
     RDKit          3D

 75 78  0  0  0  0  0  0  0  0999 V2000
   -5.2079   -1.3670    0.6900 N   0  0  0  0  0  0  0  0  0  0  0  0
   -4.2834   -0.2258    0.7198 C   0  0  1  0  0  0  0  0  0  0  0  0
   -3.5842   -0.0671   -0.6496 C   0  0  2  0  0  0  0  0  0  0  0  0
   -2.5408    0.8939   -0.5995 O   0  0  0  0  0  0  0  0  0  0  0  0
   -1.3017    0.3439   -0.1729 C   0  0  2  0  0  0  0  0  0  0  0  0
   -0.6134    1.3560    0.7935 C   0  0  1  0  0  0  0  0  0  0  0  0
   -0.1510    0.7193    2.1242 C   0  0  0  0  0  0  0  0  0  0  0  0
   -1.2540    0.2987    2.8820 O   0  0  0  0  0  0  0  0  0  0  0  0
    0.4235    2.0992    0.1637 O   0  0  0  0  0  0  0  0  0  0  0  0
    1.5029    1.3076   -0.3227 C   0  0  1  0  0  0  0  0  0  0  0  0
    2.4205    1.0512    0.7455 O   0  0  0  0  0  0  0  0  0  0  0  0
    3.7298    0.5640    0.6064 C   0  0  0  0  0  0  0  0  0  0  0  0
    4.4604    0.6751   -0.5902 C   0  0  0  0  0  0  0  0  0  0  0  0
    5.7487    0.1397   -0.6868 C   0  0  0  0  0  0  0  0  0  0  0  0
    6.3403   -0.4986    0.4290 C   0  0  0  0  0  0  0  0  0  0  0  0
    5.6144   -0.5777    1.6328 C   0  0  0  0  0  0  0  0  0  0  0  0
    4.3248   -0.0464    1.7147 C   0  0  0  0  0  0  0  0  0  0  0  0
    7.6422   -1.0292    0.2835 C   0  0  0  0  0  0  0  0  0  0  0  0
    8.3521   -1.7264    1.4149 C   0  0  0  0  0  0  0  0  0  0  0  0
    8.2858   -0.8999   -0.9550 C   0  0  0  0  0  0  0  0  0  0  0  0
    7.6308   -0.2537   -2.0055 C   0  0  0  0  0  0  0  0  0  0  0  0
    8.2007   -0.1325   -3.1213 O   0  0  0  0  0  0  0  0  0  0  0  0
    6.4081    0.2352   -1.8371 O   0  0  0  0  0  0  0  0  0  0  0  0
    1.0521   -0.0186   -0.9994 C   0  0  2  0  0  0  0  0  0  0  0  0
    1.8790   -0.3029   -2.1776 N   0  0  0  0  0  0  0  0  0  0  0  0
    2.6901   -1.4804   -2.3033 C   0  0  0  0  0  0  0  0  0  0  0  0
    3.5794   -1.6467   -3.4917 C   0  0  0  0  0  0  0  0  0  0  0  0
    2.6460   -2.3879   -1.4294 O   0  0  0  0  0  0  0  0  0  0  0  0
   -0.4219    0.0805   -1.4125 C   0  0  1  0  0  0  0  0  0  0  0  0
   -0.8379   -1.0799   -2.0904 O   0  0  0  0  0  0  0  0  0  0  0  0
   -4.5051    0.2644   -1.6758 O   0  0  0  0  0  0  0  0  0  0  0  0
   -5.2418    1.4609   -1.4467 C   0  0  2  0  0  0  0  0  0  0  0  0
   -4.4799    2.7330   -1.8862 C   0  0  0  0  0  0  0  0  0  0  0  0
   -3.6826    3.2561   -0.8625 O   0  0  0  0  0  0  0  0  0  0  0  0
   -5.9344    1.5397   -0.0568 C   0  0  1  0  0  0  0  0  0  0  0  0
   -7.0985    0.7508   -0.0915 O   0  0  0  0  0  0  0  0  0  0  0  0
   -5.0309    1.0604    1.1018 C   0  0  2  0  0  0  0  0  0  0  0  0
   -4.1064    2.0523    1.4648 O   0  0  0  0  0  0  0  0  0  0  0  0
   -5.6912   -1.9964    1.8849 C   0  0  0  0  0  0  0  0  0  0  0  0
   -6.6597   -3.1295    1.7898 C   0  0  0  0  0  0  0  0  0  0  0  0
   -5.2817   -1.6204    3.0167 O   0  0  0  0  0  0  0  0  0  0  0  0
   -5.5138   -1.7601   -0.2296 H   0  0  0  0  0  0  0  0  0  0  0  0
   -3.5060   -0.4292    1.4877 H   0  0  0  0  0  0  0  0  0  0  0  0
   -3.1829   -1.0680   -0.9316 H   0  0  0  0  0  0  0  0  0  0  0  0
   -1.4289   -0.6189    0.3785 H   0  0  0  0  0  0  0  0  0  0  0  0
   -1.3776    2.1097    1.0847 H   0  0  0  0  0  0  0  0  0  0  0  0
    0.4914   -0.1639    1.9316 H   0  0  0  0  0  0  0  0  0  0  0  0
    0.4505    1.4546    2.7059 H   0  0  0  0  0  0  0  0  0  0  0  0
   -1.6562    1.1148    3.2794 H   0  0  0  0  0  0  0  0  0  0  0  0
    2.0045    1.9462   -1.0789 H   0  0  0  0  0  0  0  0  0  0  0  0
    4.0458    1.1729   -1.4541 H   0  0  0  0  0  0  0  0  0  0  0  0
    6.0297   -1.0510    2.5124 H   0  0  0  0  0  0  0  0  0  0  0  0
    3.7748   -0.1245    2.6442 H   0  0  0  0  0  0  0  0  0  0  0  0
    8.4740   -1.0280    2.2693 H   0  0  0  0  0  0  0  0  0  0  0  0
    9.3617   -2.0775    1.1122 H   0  0  0  0  0  0  0  0  0  0  0  0
    7.7646   -2.6110    1.7390 H   0  0  0  0  0  0  0  0  0  0  0  0
    9.2839   -1.2946   -1.1055 H   0  0  0  0  0  0  0  0  0  0  0  0
    1.1454   -0.8440   -0.2594 H   0  0  0  0  0  0  0  0  0  0  0  0
    1.8866    0.3912   -2.9596 H   0  0  0  0  0  0  0  0  0  0  0  0
    4.3178   -2.4574   -3.3148 H   0  0  0  0  0  0  0  0  0  0  0  0
    2.9652   -1.8998   -4.3805 H   0  0  0  0  0  0  0  0  0  0  0  0
    4.1297   -0.7017   -3.6833 H   0  0  0  0  0  0  0  0  0  0  0  0
   -0.5295    0.9384   -2.1144 H   0  0  0  0  0  0  0  0  0  0  0  0
   -0.6878   -1.8540   -1.4867 H   0  0  0  0  0  0  0  0  0  0  0  0
   -6.0793    1.4108   -2.1784 H   0  0  0  0  0  0  0  0  0  0  0  0
   -3.8502    2.4948   -2.7729 H   0  0  0  0  0  0  0  0  0  0  0  0
   -5.2193    3.5082   -2.1910 H   0  0  0  0  0  0  0  0  0  0  0  0
   -3.2086    4.0365   -1.2510 H   0  0  0  0  0  0  0  0  0  0  0  0
   -6.2317    2.5995    0.1268 H   0  0  0  0  0  0  0  0  0  0  0  0
   -7.6828    1.0602    0.6496 H   0  0  0  0  0  0  0  0  0  0  0  0
   -5.6689    0.8444    1.9907 H   0  0  0  0  0  0  0  0  0  0  0  0
   -4.6108    2.7548    1.9527 H   0  0  0  0  0  0  0  0  0  0  0  0
   -6.1419   -4.0256    1.3892 H   0  0  0  0  0  0  0  0  0  0  0  0
   -7.4923   -2.8533    1.1095 H   0  0  0  0  0  0  0  0  0  0  0  0
   -7.0797   -3.3691    2.7898 H   0  0  0  0  0  0  0  0  0  0  0  0
  1  2  1  0
  2  3  1  0
  3  4  1  0
  4  5  1  0
  5  6  1  0
  6  7  1  0
  7  8  1  0
  6  9  1  0
  9 10  1  0
 10 11  1  0
 11 12  1  0
 12 13  2  0
 13 14  1  0
 14 15  2  0
 15 16  1  0
 16 17  2  0
 15 18  1  0
 18 19  1  0
 18 20  2  0
 20 21  1  0
 21 22  2  0
 21 23  1  0
 10 24  1  0
 24 25  1  0
 25 26  1  0
 26 27  1  0
 26 28  2  0
 24 29  1  0
 29 30  1  0
  3 31  1  0
 31 32  1  0
 32 33  1  0
 33 34  1  0
 32 35  1  0
 35 36  1  0
 35 37  1  0
 37 38  1  0
  1 39  1  0
 39 40  1  0
 39 41  2  0
 37  2  1  0
 29  5  1  0
 17 12  1  0
 23 14  1  0
  1 42  1  0
  2 43  1  1
  3 44  1  6
  5 45  1  1
  6 46  1  1
  7 47  1  0
  7 48  1  0
  8 49  1  0
 10 50  1  6
 13 51  1  0
 16 52  1  0
 17 53  1  0
 19 54  1  0
 19 55  1  0
 19 56  1  0
 20 57  1  0
 24 58  1  1
 25 59  1  0
 27 60  1  0
 27 61  1  0
 27 62  1  0
 29 63  1  6
 30 64  1  0
 32 65  1  6
 33 66  1  0
 33 67  1  0
 34 68  1  0
 35 69  1  1
 36 70  1  0
 37 71  1  1
 38 72  1  0
 40 73  1  0
 40 74  1  0
 40 75  1  0
M  END
$$$$
