
     RDKit          3D

196201  0  0  0  0  0  0  0  0999 V2000
   -5.8284    0.3463    4.4542 C   0  0  0  0  0  0  0  0  0  0  0  0
   -4.5188   -0.4468    4.5510 C   0  0  0  0  0  0  0  0  0  0  0  0
   -4.7960   -1.9435    4.7324 C   0  0  0  0  0  0  0  0  0  0  0  0
   -3.5280   -0.1539    3.3942 C   0  0  0  0  0  0  0  0  0  0  0  0
   -3.9432   -0.6324    1.9792 C   0  0  2  0  0  0  0  0  0  0  0  0
   -2.8099   -0.5070    1.0579 N   0  0  0  0  0  0  0  0  0  0  0  0
   -2.7843   -1.1540   -0.2255 C   0  0  0  0  0  0  0  0  0  0  0  0
   -3.7741   -1.8323   -0.6119 O   0  0  0  0  0  0  0  0  0  0  0  0
   -1.5673   -1.0488   -1.1151 C   0  0  1  0  0  0  0  0  0  0  0  0
   -1.2898    0.4107   -1.5225 C   0  0  0  0  0  0  0  0  0  0  0  0
   -2.4233    0.9862   -2.3216 C   0  0  0  0  0  0  0  0  0  0  0  0
   -3.3562    1.8803   -1.7174 N   0  0  0  0  0  0  0  0  0  0  0  0
   -2.5670    0.6574   -3.5292 O   0  0  0  0  0  0  0  0  0  0  0  0
   -0.4029   -1.6153   -0.4271 N   0  0  0  0  0  0  0  0  0  0  0  0
    0.7718   -2.0632   -1.1252 C   0  0  0  0  0  0  0  0  0  0  0  0
    0.8968   -1.8260   -2.3576 O   0  0  0  0  0  0  0  0  0  0  0  0
    1.8403   -2.8879   -0.4256 C   0  0  2  0  0  0  0  0  0  0  0  0
    1.3372   -4.3326   -0.1657 C   0  0  0  0  0  0  0  0  0  0  0  0
    0.0828   -4.4029    0.6738 C   0  0  0  0  0  0  0  0  0  0  0  0
    0.1427   -4.2355    2.0674 C   0  0  0  0  0  0  0  0  0  0  0  0
   -1.0290   -4.2466    2.8307 C   0  0  0  0  0  0  0  0  0  0  0  0
   -2.2702   -4.4307    2.2128 C   0  0  0  0  0  0  0  0  0  0  0  0
   -3.4286   -4.4494    2.9860 O   0  0  0  0  0  0  0  0  0  0  0  0
   -2.3375   -4.5999    0.8238 C   0  0  0  0  0  0  0  0  0  0  0  0
   -1.1683   -4.5892    0.0588 C   0  0  0  0  0  0  0  0  0  0  0  0
    2.3999   -2.2728    0.8057 N   0  0  0  0  0  0  0  0  0  0  0  0
    3.6052   -2.8704    1.3978 C   0  0  0  0  0  0  0  0  0  0  0  0
    2.0016   -0.9770    1.3035 C   0  0  0  0  0  0  0  0  0  0  0  0
    1.8394   -0.0179    0.4993 O   0  0  0  0  0  0  0  0  0  0  0  0
    1.8458   -0.7260    2.7854 C   0  0  2  0  0  0  0  0  0  0  0  0
    0.4149   -0.2822    3.1120 C   0  0  0  0  0  0  0  0  0  0  0  0
    0.2775   -0.0413    4.4860 O   0  0  0  0  0  0  0  0  0  0  0  0
    2.8036    0.3003    3.2013 N   0  0  0  0  0  0  0  0  0  0  0  0
    4.1076   -0.0365    3.6923 C   0  0  0  0  0  0  0  0  0  0  0  0
    4.2991   -1.1381    4.2761 O   0  0  0  0  0  0  0  0  0  0  0  0
    5.2708    0.8714    3.4037 C   0  0  1  0  0  0  0  0  0  0  0  0
    6.2182    0.9793    4.6129 C   0  0  0  0  0  0  0  0  0  0  0  0
    7.3211    1.9731    4.3509 C   0  0  0  0  0  0  0  0  0  0  0  0
    8.5823    1.5469    3.9024 C   0  0  0  0  0  0  0  0  0  0  0  0
    9.5597    2.4564    3.6462 N   0  0  0  0  0  0  0  0  0  0  0  0
    9.3526    3.7910    3.8007 C   0  0  0  0  0  0  0  0  0  0  0  0
    8.1085    4.2618    4.2255 C   0  0  0  0  0  0  0  0  0  0  0  0
    7.0894    3.3484    4.4987 C   0  0  0  0  0  0  0  0  0  0  0  0
    5.9829    0.3574    2.2324 N   0  0  0  0  0  0  0  0  0  0  0  0
    5.5369    0.6177    0.8948 C   0  0  0  0  0  0  0  0  0  0  0  0
    4.6385    1.4783    0.6826 O   0  0  0  0  0  0  0  0  0  0  0  0
    6.1743   -0.1249   -0.2520 C   0  0  1  0  0  0  0  0  0  0  0  0
    5.4435    0.0940   -1.5934 C   0  0  0  0  0  0  0  0  0  0  0  0
    6.0580   -0.7359   -2.6907 C   0  0  0  0  0  0  0  0  0  0  0  0
    5.6745   -2.0748   -2.8633 C   0  0  0  0  0  0  0  0  0  0  0  0
    6.2721   -2.8562   -3.8584 C   0  0  0  0  0  0  0  0  0  0  0  0
    7.2664   -2.3104   -4.6771 C   0  0  0  0  0  0  0  0  0  0  0  0
    8.0217   -3.2951   -5.9195 Cl  0  0  0  0  0  0  0  0  0  0  0  0
    7.6616   -0.9813   -4.5021 C   0  0  0  0  0  0  0  0  0  0  0  0
    7.0600   -0.1958   -3.5138 C   0  0  0  0  0  0  0  0  0  0  0  0
    7.5953    0.2257   -0.3503 N   0  0  0  0  0  0  0  0  0  0  0  0
    8.0857    1.5658   -0.5200 C   0  0  0  0  0  0  0  0  0  0  0  0
    7.2786    2.5238   -0.6679 O   0  0  0  0  0  0  0  0  0  0  0  0
    9.5723    1.8113   -0.5681 C   0  0  1  0  0  0  0  0  0  0  0  0
   10.1201    1.4436   -1.9577 C   0  0  0  0  0  0  0  0  0  0  0  0
   11.6226    1.5537   -1.9973 C   0  0  0  0  0  0  0  0  0  0  0  0
   12.4164    0.5331   -1.4489 C   0  0  0  0  0  0  0  0  0  0  0  0
   13.8133    0.6543   -1.4292 C   0  0  0  0  0  0  0  0  0  0  0  0
   14.4244    1.8157   -1.9611 C   0  0  0  0  0  0  0  0  0  0  0  0
   15.8222    1.9377   -1.9367 C   0  0  0  0  0  0  0  0  0  0  0  0
   16.6064    0.9165   -1.3911 C   0  0  0  0  0  0  0  0  0  0  0  0
   16.0030   -0.2301   -0.8678 C   0  0  0  0  0  0  0  0  0  0  0  0
   14.6120   -0.3629   -0.8832 C   0  0  0  0  0  0  0  0  0  0  0  0
   13.6268    2.8341   -2.5022 C   0  0  0  0  0  0  0  0  0  0  0  0
   12.2359    2.7046   -2.5171 C   0  0  0  0  0  0  0  0  0  0  0  0
    9.8760    3.2144   -0.2575 N   0  0  0  0  0  0  0  0  0  0  0  0
   10.9567    3.6058    0.6018 C   0  0  0  0  0  0  0  0  0  0  0  0
   11.2823    5.0530    0.7742 C   0  0  0  0  0  0  0  0  0  0  0  0
   11.6597    2.7376    1.1853 O   0  0  0  0  0  0  0  0  0  0  0  0
   -5.0949    0.1678    1.4340 C   0  0  0  0  0  0  0  0  0  0  0  0
   -5.0069    1.4252    1.3759 O   0  0  0  0  0  0  0  0  0  0  0  0
   -6.2730   -0.4975    0.9536 N   0  0  0  0  0  0  0  0  0  0  0  0
   -7.3815    0.2352    0.3255 C   0  0  1  0  0  0  0  0  0  0  0  0
   -7.0048    0.6613   -1.1100 C   0  0  0  0  0  0  0  0  0  0  0  0
   -6.7293   -0.5111   -2.0795 C   0  0  0  0  0  0  0  0  0  0  0  0
   -7.9366   -0.9033   -2.9518 C   0  0  0  0  0  0  0  0  0  0  0  0
   -8.2280    0.1020   -4.0794 C   0  0  0  0  0  0  0  0  0  0  0  0
   -9.0881    1.1891   -3.5891 N   0  0  0  0  0  0  0  0  0  0  0  0
   -9.0790    2.3527   -4.4958 C   0  0  0  0  0  0  0  0  0  0  0  0
   -7.9008    3.2724   -4.1474 C   0  0  0  0  0  0  0  0  0  0  0  0
  -10.3923    3.1387   -4.3708 C   0  0  0  0  0  0  0  0  0  0  0  0
   -8.6684   -0.5665    0.3670 C   0  0  0  0  0  0  0  0  0  0  0  0
   -8.6158   -1.8236    0.2660 O   0  0  0  0  0  0  0  0  0  0  0  0
   -9.9567    0.0734    0.4866 N   0  0  0  0  0  0  0  0  0  0  0  0
  -10.1697    1.5132    0.4541 C   0  0  0  0  0  0  0  0  0  0  0  0
  -11.6707    1.7174    0.6169 C   0  0  0  0  0  0  0  0  0  0  0  0
  -12.2168    0.4010    1.1621 C   0  0  0  0  0  0  0  0  0  0  0  0
  -11.1711   -0.6624    0.8156 C   0  0  1  0  0  0  0  0  0  0  0  0
  -11.6151   -1.5214   -0.3423 C   0  0  0  0  0  0  0  0  0  0  0  0
  -11.8209   -2.7501   -0.1497 O   0  0  0  0  0  0  0  0  0  0  0  0
  -11.8353   -0.9501   -1.6406 N   0  0  0  0  0  0  0  0  0  0  0  0
  -12.4410   -1.7115   -2.7363 C   0  0  2  0  0  0  0  0  0  0  0  0
  -11.3714   -2.5193   -3.4753 C   0  0  0  0  0  0  0  0  0  0  0  0
  -13.1662   -0.7784   -3.6721 C   0  0  0  0  0  0  0  0  0  0  0  0
  -14.5835   -0.6315   -3.5870 N   0  0  0  0  0  0  0  0  0  0  0  0
  -12.5211   -0.0838   -4.5024 O   0  0  0  0  0  0  0  0  0  0  0  0
   -6.3633    0.3049    5.4272 H   0  0  0  0  0  0  0  0  0  0  0  0
   -6.5018   -0.0775    3.6815 H   0  0  0  0  0  0  0  0  0  0  0  0
   -5.6223    1.4126    4.2217 H   0  0  0  0  0  0  0  0  0  0  0  0
   -4.0124   -0.1025    5.4808 H   0  0  0  0  0  0  0  0  0  0  0  0
   -5.3606   -2.1098    5.6753 H   0  0  0  0  0  0  0  0  0  0  0  0
   -5.4010   -2.3453    3.8918 H   0  0  0  0  0  0  0  0  0  0  0  0
   -3.8388   -2.5042    4.8016 H   0  0  0  0  0  0  0  0  0  0  0  0
   -2.5698   -0.6534    3.6537 H   0  0  0  0  0  0  0  0  0  0  0  0
   -3.3074    0.9358    3.3708 H   0  0  0  0  0  0  0  0  0  0  0  0
   -4.2163   -1.7064    2.0394 H   0  0  0  0  0  0  0  0  0  0  0  0
   -1.9923    0.0810    1.3347 H   0  0  0  0  0  0  0  0  0  0  0  0
   -1.7569   -1.6475   -2.0359 H   0  0  0  0  0  0  0  0  0  0  0  0
   -1.0984    1.0365   -0.6246 H   0  0  0  0  0  0  0  0  0  0  0  0
   -0.3714    0.4562   -2.1444 H   0  0  0  0  0  0  0  0  0  0  0  0
   -4.1402    2.2800   -2.2786 H   0  0  0  0  0  0  0  0  0  0  0  0
   -3.2636    2.1493   -0.7135 H   0  0  0  0  0  0  0  0  0  0  0  0
   -0.4569   -1.7772    0.6022 H   0  0  0  0  0  0  0  0  0  0  0  0
    2.6822   -2.9796   -1.1479 H   0  0  0  0  0  0  0  0  0  0  0  0
    2.1302   -4.9375    0.3231 H   0  0  0  0  0  0  0  0  0  0  0  0
    1.1555   -4.8236   -1.1482 H   0  0  0  0  0  0  0  0  0  0  0  0
    1.0927   -4.0924    2.5631 H   0  0  0  0  0  0  0  0  0  0  0  0
   -0.9723   -4.1118    3.9033 H   0  0  0  0  0  0  0  0  0  0  0  0
   -4.3431   -4.5719    2.5667 H   0  0  0  0  0  0  0  0  0  0  0  0
   -3.2948   -4.7367    0.3366 H   0  0  0  0  0  0  0  0  0  0  0  0
   -1.2402   -4.7061   -1.0158 H   0  0  0  0  0  0  0  0  0  0  0  0
    4.3917   -2.0989    1.5276 H   0  0  0  0  0  0  0  0  0  0  0  0
    3.3684   -3.3149    2.3854 H   0  0  0  0  0  0  0  0  0  0  0  0
    4.0290   -3.6629    0.7467 H   0  0  0  0  0  0  0  0  0  0  0  0
    2.0253   -1.6666    3.3474 H   0  0  0  0  0  0  0  0  0  0  0  0
    0.1373    0.6230    2.5241 H   0  0  0  0  0  0  0  0  0  0  0  0
   -0.2867   -1.0967    2.8357 H   0  0  0  0  0  0  0  0  0  0  0  0
    0.5388    0.9039    4.6395 H   0  0  0  0  0  0  0  0  0  0  0  0
    2.6327    1.2828    2.8873 H   0  0  0  0  0  0  0  0  0  0  0  0
    4.8873    1.8936    3.1890 H   0  0  0  0  0  0  0  0  0  0  0  0
    5.6410    1.3052    5.5068 H   0  0  0  0  0  0  0  0  0  0  0  0
    6.6526   -0.0169    4.8514 H   0  0  0  0  0  0  0  0  0  0  0  0
    8.7889    0.4942    3.7601 H   0  0  0  0  0  0  0  0  0  0  0  0
   10.1525    4.4875    3.5925 H   0  0  0  0  0  0  0  0  0  0  0  0
    7.9365    5.3244    4.3442 H   0  0  0  0  0  0  0  0  0  0  0  0
    6.1218    3.7103    4.8251 H   0  0  0  0  0  0  0  0  0  0  0  0
    6.7215   -0.3696    2.3717 H   0  0  0  0  0  0  0  0  0  0  0  0
    6.1009   -1.2088   -0.0118 H   0  0  0  0  0  0  0  0  0  0  0  0
    5.4564    1.1674   -1.8789 H   0  0  0  0  0  0  0  0  0  0  0  0
    4.3746   -0.1922   -1.4779 H   0  0  0  0  0  0  0  0  0  0  0  0
    4.9162   -2.5133   -2.2270 H   0  0  0  0  0  0  0  0  0  0  0  0
    5.9636   -3.8849   -3.9905 H   0  0  0  0  0  0  0  0  0  0  0  0
    8.4358   -0.5565   -5.1282 H   0  0  0  0  0  0  0  0  0  0  0  0
    7.3796    0.8294   -3.3853 H   0  0  0  0  0  0  0  0  0  0  0  0
    8.2915   -0.5479   -0.2595 H   0  0  0  0  0  0  0  0  0  0  0  0
   10.0376    1.1455    0.1921 H   0  0  0  0  0  0  0  0  0  0  0  0
    9.6632    2.1030   -2.7291 H   0  0  0  0  0  0  0  0  0  0  0  0
    9.8308    0.3997   -2.2113 H   0  0  0  0  0  0  0  0  0  0  0  0
   11.9421   -0.3482   -1.0316 H   0  0  0  0  0  0  0  0  0  0  0  0
   16.3067    2.8192   -2.3395 H   0  0  0  0  0  0  0  0  0  0  0  0
   17.6844    1.0133   -1.3757 H   0  0  0  0  0  0  0  0  0  0  0  0
   16.6151   -1.0189   -0.4510 H   0  0  0  0  0  0  0  0  0  0  0  0
   14.1617   -1.2582   -0.4715 H   0  0  0  0  0  0  0  0  0  0  0  0
   14.0778    3.7316   -2.9085 H   0  0  0  0  0  0  0  0  0  0  0  0
   11.6351    3.5086   -2.9246 H   0  0  0  0  0  0  0  0  0  0  0  0
    9.3950    3.9628   -0.8072 H   0  0  0  0  0  0  0  0  0  0  0  0
   11.9462    5.2015    1.6530 H   0  0  0  0  0  0  0  0  0  0  0  0
   11.7954    5.4264   -0.1366 H   0  0  0  0  0  0  0  0  0  0  0  0
   10.3480    5.6309    0.9328 H   0  0  0  0  0  0  0  0  0  0  0  0
   -6.3043   -1.5399    1.0139 H   0  0  0  0  0  0  0  0  0  0  0  0
   -7.5443    1.1596    0.9183 H   0  0  0  0  0  0  0  0  0  0  0  0
   -6.0848    1.2791   -1.0512 H   0  0  0  0  0  0  0  0  0  0  0  0
   -7.7809    1.3410   -1.5056 H   0  0  0  0  0  0  0  0  0  0  0  0
   -5.8766   -0.2426   -2.7416 H   0  0  0  0  0  0  0  0  0  0  0  0
   -6.3999   -1.4073   -1.5115 H   0  0  0  0  0  0  0  0  0  0  0  0
   -8.8408   -1.0563   -2.3270 H   0  0  0  0  0  0  0  0  0  0  0  0
   -7.7035   -1.8836   -3.4228 H   0  0  0  0  0  0  0  0  0  0  0  0
   -7.2702    0.4884   -4.4898 H   0  0  0  0  0  0  0  0  0  0  0  0
   -8.7451   -0.4282   -4.9107 H   0  0  0  0  0  0  0  0  0  0  0  0
  -10.0582    0.8013   -3.5252 H   0  0  0  0  0  0  0  0  0  0  0  0
   -8.9832    2.0270   -5.5576 H   0  0  0  0  0  0  0  0  0  0  0  0
   -6.9349    2.7406   -4.2630 H   0  0  0  0  0  0  0  0  0  0  0  0
   -7.9830    3.6262   -3.0974 H   0  0  0  0  0  0  0  0  0  0  0  0
   -7.8861    4.1527   -4.8245 H   0  0  0  0  0  0  0  0  0  0  0  0
  -11.2468    2.5090   -4.6976 H   0  0  0  0  0  0  0  0  0  0  0  0
  -10.5598    3.4507   -3.3183 H   0  0  0  0  0  0  0  0  0  0  0  0
  -10.3656    4.0407   -5.0167 H   0  0  0  0  0  0  0  0  0  0  0  0
   -9.8253    1.9382   -0.5122 H   0  0  0  0  0  0  0  0  0  0  0  0
   -9.6350    1.9949    1.3002 H   0  0  0  0  0  0  0  0  0  0  0  0
  -11.8918    2.5608    1.3054 H   0  0  0  0  0  0  0  0  0  0  0  0
  -12.1311    1.9313   -0.3721 H   0  0  0  0  0  0  0  0  0  0  0  0
  -13.2236    0.1774    0.7421 H   0  0  0  0  0  0  0  0  0  0  0  0
  -12.3092    0.4775    2.2688 H   0  0  0  0  0  0  0  0  0  0  0  0
  -10.9865   -1.3005    1.7098 H   0  0  0  0  0  0  0  0  0  0  0  0
  -11.5530    0.0397   -1.8026 H   0  0  0  0  0  0  0  0  0  0  0  0
  -13.1827   -2.4286   -2.3207 H   0  0  0  0  0  0  0  0  0  0  0  0
  -11.8402   -3.1240   -4.2808 H   0  0  0  0  0  0  0  0  0  0  0  0
  -10.6130   -1.8471   -3.9267 H   0  0  0  0  0  0  0  0  0  0  0  0
  -10.8599   -3.2092   -2.7712 H   0  0  0  0  0  0  0  0  0  0  0  0
  -15.1364   -1.1762   -2.8884 H   0  0  0  0  0  0  0  0  0  0  0  0
  -15.0837    0.0267   -4.2251 H   0  0  0  0  0  0  0  0  0  0  0  0
  1  2  1  0
  2  3  1  0
  2  4  1  0
  4  5  1  0
  5  6  1  0
  6  7  1  0
  7  8  2  0
  7  9  1  0
  9 10  1  0
 10 11  1  0
 11 12  1  0
 11 13  2  0
  9 14  1  0
 14 15  1  0
 15 16  2  0
 15 17  1  0
 17 18  1  0
 18 19  1  0
 19 20  2  0
 20 21  1  0
 21 22  2  0
 22 23  1  0
 22 24  1  0
 24 25  2  0
 17 26  1  0
 26 27  1  0
 26 28  1  0
 28 29  2  0
 28 30  1  0
 30 31  1  0
 31 32  1  0
 30 33  1  0
 33 34  1  0
 34 35  2  0
 34 36  1  0
 36 37  1  0
 37 38  1  0
 38 39  2  0
 39 40  1  0
 40 41  2  0
 41 42  1  0
 42 43  2  0
 36 44  1  0
 44 45  1  0
 45 46  2  0
 45 47  1  0
 47 48  1  0
 48 49  1  0
 49 50  2  0
 50 51  1  0
 51 52  2  0
 52 53  1  0
 52 54  1  0
 54 55  2  0
 47 56  1  0
 56 57  1  0
 57 58  2  0
 57 59  1  0
 59 60  1  0
 60 61  1  0
 61 62  2  0
 62 63  1  0
 63 64  2  0
 64 65  1  0
 65 66  2  0
 66 67  1  0
 67 68  2  0
 64 69  1  0
 69 70  2  0
 59 71  1  0
 71 72  1  0
 72 73  1  0
 72 74  2  0
  5 75  1  0
 75 76  2  0
 75 77  1  0
 77 78  1  0
 78 79  1  0
 79 80  1  0
 80 81  1  0
 81 82  1  0
 82 83  1  0
 83 84  1  0
 84 85  1  0
 84 86  1  0
 78 87  1  0
 87 88  2  0
 87 89  1  0
 89 90  1  0
 90 91  1  0
 91 92  1  0
 92 93  1  0
 93 94  1  0
 94 95  2  0
 94 96  1  0
 96 97  1  0
 97 98  1  0
 97 99  1  0
 99100  1  0
 99101  2  0
 25 19  1  0
 43 38  1  0
 55 49  1  0
 70 61  1  0
 93 89  1  0
 68 63  1  0
  1102  1  0
  1103  1  0
  1104  1  0
  2105  1  0
  3106  1  0
  3107  1  0
  3108  1  0
  4109  1  0
  4110  1  0
  5111  1  1
  6112  1  0
  9113  1  6
 10114  1  0
 10115  1  0
 12116  1  0
 12117  1  0
 14118  1  0
 17119  1  6
 18120  1  0
 18121  1  0
 20122  1  0
 21123  1  0
 23124  1  0
 24125  1  0
 25126  1  0
 27127  1  0
 27128  1  0
 27129  1  0
 30130  1  1
 31131  1  0
 31132  1  0
 32133  1  0
 33134  1  0
 36135  1  6
 37136  1  0
 37137  1  0
 39138  1  0
 41139  1  0
 42140  1  0
 43141  1  0
 44142  1  0
 47143  1  1
 48144  1  0
 48145  1  0
 50146  1  0
 51147  1  0
 54148  1  0
 55149  1  0
 56150  1  0
 59151  1  1
 60152  1  0
 60153  1  0
 62154  1  0
 65155  1  0
 66156  1  0
 67157  1  0
 68158  1  0
 69159  1  0
 70160  1  0
 71161  1  0
 73162  1  0
 73163  1  0
 73164  1  0
 77165  1  0
 78166  1  1
 79167  1  0
 79168  1  0
 80169  1  0
 80170  1  0
 81171  1  0
 81172  1  0
 82173  1  0
 82174  1  0
 83175  1  0
 84176  1  0
 85177  1  0
 85178  1  0
 85179  1  0
 86180  1  0
 86181  1  0
 86182  1  0
 90183  1  0
 90184  1  0
 91185  1  0
 91186  1  0
 92187  1  0
 92188  1  0
 93189  1  1
 96190  1  0
 97191  1  1
 98192  1  0
 98193  1  0
 98194  1  0
100195  1  0
100196  1  0
M  END
$$$$
