
     RDKit          3D

 50 52  0  0  0  0  0  0  0  0999 V2000
    1.8247    1.0119   -2.5417 C   0  0  0  0  0  0  0  0  0  0  0  0
    0.3929    1.1306   -2.0789 C   0  0  0  0  0  0  0  0  0  0  0  0
   -0.6294    0.8316   -2.9902 C   0  0  0  0  0  0  0  0  0  0  0  0
   -1.9240    0.9179   -2.6069 N   0  0  0  0  0  0  0  0  0  0  0  0
   -2.2703    1.2910   -1.3500 C   0  0  0  0  0  0  0  0  0  0  0  0
   -3.6569    1.3594   -0.9755 N   0  0  0  0  0  0  0  0  0  0  0  0
   -4.7314    0.7939   -1.7937 C   0  0  0  0  0  0  0  0  0  0  0  0
   -4.7923   -0.7365   -1.6639 C   0  0  0  0  0  0  0  0  0  0  0  0
   -5.8966   -1.2026   -2.3578 F   0  0  0  0  0  0  0  0  0  0  0  0
   -3.6648   -1.3011   -2.2362 F   0  0  0  0  0  0  0  0  0  0  0  0
   -4.8911   -1.1540   -0.2183 C   0  0  0  0  0  0  0  0  0  0  0  0
   -6.1089   -1.0676    0.4757 C   0  0  0  0  0  0  0  0  0  0  0  0
   -6.1538   -1.4142    1.8277 C   0  0  0  0  0  0  0  0  0  0  0  0
   -4.9911   -1.8310    2.4776 C   0  0  0  0  0  0  0  0  0  0  0  0
   -3.7937   -1.8919    1.7621 C   0  0  0  0  0  0  0  0  0  0  0  0
   -3.7691   -1.5513    0.4461 N   0  0  0  0  0  0  0  0  0  0  0  0
   -1.2585    1.6065   -0.4281 C   0  0  0  0  0  0  0  0  0  0  0  0
   -1.5764    1.9405    0.7475 O   0  0  0  0  0  0  0  0  0  0  0  0
    0.0645    1.5393   -0.8025 N   0  0  0  0  0  0  0  0  0  0  0  0
    1.1149    1.8535    0.1902 C   0  0  0  0  0  0  0  0  0  0  0  0
    1.5485    0.6088    0.9094 C   0  0  0  0  0  0  0  0  0  0  0  0
    0.6936   -0.0737    1.5370 O   0  0  0  0  0  0  0  0  0  0  0  0
    2.9243    0.2057    0.8982 N   0  0  0  0  0  0  0  0  0  0  0  0
    3.3611   -1.0278    1.5503 C   0  0  0  0  0  0  0  0  0  0  0  0
    4.8375   -1.2306    1.3657 C   0  0  0  0  0  0  0  0  0  0  0  0
    5.7668   -0.5422    2.1631 C   0  0  0  0  0  0  0  0  0  0  0  0
    5.3549    0.3044    3.1405 F   0  0  0  0  0  0  0  0  0  0  0  0
    7.1325   -0.7314    1.9390 C   0  0  0  0  0  0  0  0  0  0  0  0
    7.5585   -1.5908    0.9250 C   0  0  0  0  0  0  0  0  0  0  0  0
    6.6071   -2.2491    0.1432 C   0  0  0  0  0  0  0  0  0  0  0  0
    5.2815   -2.0535    0.3751 N   0  0  0  0  0  0  0  0  0  0  0  0
    2.3999    0.3673   -1.8471 H   0  0  0  0  0  0  0  0  0  0  0  0
    1.8933    0.5527   -3.5510 H   0  0  0  0  0  0  0  0  0  0  0  0
    2.2886    2.0187   -2.5931 H   0  0  0  0  0  0  0  0  0  0  0  0
   -0.4012    0.5248   -4.0029 H   0  0  0  0  0  0  0  0  0  0  0  0
   -3.9274    1.8289   -0.0818 H   0  0  0  0  0  0  0  0  0  0  0  0
   -4.5929    1.0831   -2.8578 H   0  0  0  0  0  0  0  0  0  0  0  0
   -5.7023    1.2226   -1.4614 H   0  0  0  0  0  0  0  0  0  0  0  0
   -7.0094   -0.7309   -0.0224 H   0  0  0  0  0  0  0  0  0  0  0  0
   -7.0873   -1.3546    2.3720 H   0  0  0  0  0  0  0  0  0  0  0  0
   -5.0163   -2.0991    3.5258 H   0  0  0  0  0  0  0  0  0  0  0  0
   -2.8826   -2.2058    2.2536 H   0  0  0  0  0  0  0  0  0  0  0  0
    1.9809    2.3519   -0.2922 H   0  0  0  0  0  0  0  0  0  0  0  0
    0.7522    2.5902    0.9391 H   0  0  0  0  0  0  0  0  0  0  0  0
    3.6217    0.8062    0.4014 H   0  0  0  0  0  0  0  0  0  0  0  0
    3.1193   -0.9827    2.6344 H   0  0  0  0  0  0  0  0  0  0  0  0
    2.8113   -1.8893    1.1129 H   0  0  0  0  0  0  0  0  0  0  0  0
    7.8603   -0.2102    2.5474 H   0  0  0  0  0  0  0  0  0  0  0  0
    8.6147   -1.7420    0.7438 H   0  0  0  0  0  0  0  0  0  0  0  0
    6.9221   -2.9136   -0.6502 H   0  0  0  0  0  0  0  0  0  0  0  0
  1  2  1  0
  2  3  2  0
  3  4  1  0
  4  5  2  0
  5  6  1  0
  6  7  1  0
  7  8  1  0
  8  9  1  0
  8 10  1  0
  8 11  1  0
 11 12  2  0
 12 13  1  0
 13 14  2  0
 14 15  1  0
 15 16  2  0
  5 17  1  0
 17 18  2  0
 17 19  1  0
 19 20  1  0
 20 21  1  0
 21 22  2  0
 21 23  1  0
 23 24  1  0
 24 25  1  0
 25 26  2  0
 26 27  1  0
 26 28  1  0
 28 29  2  0
 29 30  1  0
 30 31  2  0
 19  2  1  0
 31 25  1  0
 16 11  1  0
  1 32  1  0
  1 33  1  0
  1 34  1  0
  3 35  1  0
  6 36  1  0
  7 37  1  0
  7 38  1  0
 12 39  1  0
 13 40  1  0
 14 41  1  0
 15 42  1  0
 20 43  1  0
 20 44  1  0
 23 45  1  0
 24 46  1  0
 24 47  1  0
 28 48  1  0
 29 49  1  0
 30 50  1  0
M  END
$$$$
