
     RDKit          3D

 48 50  0  0  0  0  0  0  0  0999 V2000
    2.5004   -1.3165    1.7580 C   0  0  1  0  0  0  0  0  0  0  0  0
    3.4342   -0.5471    2.5852 N   0  0  0  0  0  0  0  0  0  0  0  0
    1.0369   -0.9303    2.0843 C   0  0  0  0  0  0  0  0  0  0  0  0
    0.0314   -1.7913    1.3578 C   0  0  0  0  0  0  0  0  0  0  0  0
    0.1587   -3.0453    1.4148 O   0  0  0  0  0  0  0  0  0  0  0  0
   -1.0831   -1.2229    0.6305 N   0  0  0  0  0  0  0  0  0  0  0  0
   -1.6385   -1.9873   -0.5021 C   0  0  0  0  0  0  0  0  0  0  0  0
   -2.0517   -1.0553   -1.6079 C   0  0  0  0  0  0  0  0  0  0  0  0
   -1.8500   -1.3830   -2.9573 C   0  0  0  0  0  0  0  0  0  0  0  0
   -2.2474   -0.4928   -3.9597 C   0  0  0  0  0  0  0  0  0  0  0  0
   -2.8577    0.7186   -3.6206 C   0  0  0  0  0  0  0  0  0  0  0  0
   -3.0742    1.0433   -2.2780 C   0  0  0  0  0  0  0  0  0  0  0  0
   -2.6648    0.1593   -1.2687 C   0  0  0  0  0  0  0  0  0  0  0  0
   -2.9090    0.4552    0.1821 C   0  0  0  0  0  0  0  0  0  0  0  0
   -1.6654    0.0874    1.0192 C   0  0  1  0  0  0  0  0  0  0  0  0
   -2.0279    0.0982    2.4820 C   0  0  0  0  0  0  0  0  0  0  0  0
   -1.6491    1.1949    3.3139 N   0  0  0  0  0  0  0  0  0  0  0  0
   -2.6921   -0.8543    2.9722 O   0  0  0  0  0  0  0  0  0  0  0  0
    2.8675   -1.1754    0.2598 C   0  0  0  0  0  0  0  0  0  0  0  0
    2.6147    0.2027   -0.3119 C   0  0  0  0  0  0  0  0  0  0  0  0
    1.4272    0.4598   -1.0188 C   0  0  0  0  0  0  0  0  0  0  0  0
    1.1626    1.7350   -1.5235 C   0  0  0  0  0  0  0  0  0  0  0  0
    2.0895    2.7636   -1.3427 C   0  0  0  0  0  0  0  0  0  0  0  0
    3.2862    2.5146   -0.6656 C   0  0  0  0  0  0  0  0  0  0  0  0
    3.5547    1.2398   -0.1549 C   0  0  0  0  0  0  0  0  0  0  0  0
    4.7347    1.0166    0.4770 F   0  0  0  0  0  0  0  0  0  0  0  0
    2.6359   -2.3909    2.0180 H   0  0  0  0  0  0  0  0  0  0  0  0
    3.3289   -0.8551    3.5794 H   0  0  0  0  0  0  0  0  0  0  0  0
    3.1779    0.4665    2.5549 H   0  0  0  0  0  0  0  0  0  0  0  0
    0.8633   -1.0550    3.1747 H   0  0  0  0  0  0  0  0  0  0  0  0
    0.8932    0.1428    1.8561 H   0  0  0  0  0  0  0  0  0  0  0  0
   -0.8846   -2.7078   -0.8900 H   0  0  0  0  0  0  0  0  0  0  0  0
   -2.5239   -2.5623   -0.1572 H   0  0  0  0  0  0  0  0  0  0  0  0
   -1.3830   -2.3205   -3.2320 H   0  0  0  0  0  0  0  0  0  0  0  0
   -2.0858   -0.7436   -5.0001 H   0  0  0  0  0  0  0  0  0  0  0  0
   -3.1687    1.4032   -4.3990 H   0  0  0  0  0  0  0  0  0  0  0  0
   -3.5579    1.9790   -2.0272 H   0  0  0  0  0  0  0  0  0  0  0  0
   -3.7879   -0.1415    0.5120 H   0  0  0  0  0  0  0  0  0  0  0  0
   -3.1478    1.5316    0.3312 H   0  0  0  0  0  0  0  0  0  0  0  0
   -0.9114    0.8785    0.8202 H   0  0  0  0  0  0  0  0  0  0  0  0
   -1.9067    1.2010    4.3257 H   0  0  0  0  0  0  0  0  0  0  0  0
   -1.1100    2.0002    2.9256 H   0  0  0  0  0  0  0  0  0  0  0  0
    3.9393   -1.4382    0.1246 H   0  0  0  0  0  0  0  0  0  0  0  0
    2.2989   -1.9319   -0.3244 H   0  0  0  0  0  0  0  0  0  0  0  0
    0.7086   -0.3290   -1.1851 H   0  0  0  0  0  0  0  0  0  0  0  0
    0.2401    1.9237   -2.0578 H   0  0  0  0  0  0  0  0  0  0  0  0
    1.8851    3.7511   -1.7354 H   0  0  0  0  0  0  0  0  0  0  0  0
    4.0085    3.3109   -0.5394 H   0  0  0  0  0  0  0  0  0  0  0  0
  1  2  1  0
  1  3  1  0
  3  4  1  0
  4  5  2  0
  4  6  1  0
  6  7  1  0
  7  8  1  0
  8  9  2  0
  9 10  1  0
 10 11  2  0
 11 12  1  0
 12 13  2  0
 13 14  1  0
 14 15  1  0
 15 16  1  0
 16 17  1  0
 16 18  2  0
  1 19  1  0
 19 20  1  0
 20 21  2  0
 21 22  1  0
 22 23  2  0
 23 24  1  0
 24 25  2  0
 25 26  1  0
 15  6  1  0
 25 20  1  0
 13  8  1  0
  1 27  1  1
  2 28  1  0
  2 29  1  0
  3 30  1  0
  3 31  1  0
  7 32  1  0
  7 33  1  0
  9 34  1  0
 10 35  1  0
 11 36  1  0
 12 37  1  0
 14 38  1  0
 14 39  1  0
 15 40  1  1
 17 41  1  0
 17 42  1  0
 19 43  1  0
 19 44  1  0
 21 45  1  0
 22 46  1  0
 23 47  1  0
 24 48  1  0
M  END
$$$$
