
     RDKit          3D

 54 56  0  0  0  0  0  0  0  0999 V2000
   -4.4760   -4.4517    0.3554 C   0  0  0  0  0  0  0  0  0  0  0  0
   -3.4922   -3.7587   -0.5826 C   0  0  0  0  0  0  0  0  0  0  0  0
   -3.3428   -2.2751   -0.2290 C   0  0  0  0  0  0  0  0  0  0  0  0
   -2.3543   -1.5799   -1.1706 C   0  0  0  0  0  0  0  0  0  0  0  0
   -2.2232   -0.1583   -0.8107 N   0  0  0  0  0  0  0  0  0  0  0  0
   -1.2941    0.2404    0.1002 C   0  0  0  0  0  0  0  0  0  0  0  0
   -1.1658    1.5278    0.4828 C   0  0  0  0  0  0  0  0  0  0  0  0
   -0.1796    1.6340    1.3816 N   0  0  0  0  0  0  0  0  0  0  0  0
    0.2613    0.3588    1.5203 C   0  0  0  0  0  0  0  0  0  0  0  0
    1.4203   -0.0178    2.3870 C   0  0  0  0  0  0  0  0  0  0  0  0
    2.7020    0.1177    1.6137 C   0  0  0  0  0  0  0  0  0  0  0  0
    3.3926    1.3389    1.5961 C   0  0  0  0  0  0  0  0  0  0  0  0
    4.5628    1.4765    0.8443 C   0  0  0  0  0  0  0  0  0  0  0  0
    5.0645    0.3964    0.1031 C   0  0  0  0  0  0  0  0  0  0  0  0
    6.2576    0.5730   -0.6802 N   0  0  0  0  0  0  0  0  0  0  0  0
    7.2135   -0.4670   -0.9386 C   0  0  0  0  0  0  0  0  0  0  0  0
    8.3132   -0.2375   -1.9233 C   0  0  0  0  0  0  0  0  0  0  0  0
    7.1863   -1.5435   -0.2833 O   0  0  0  0  0  0  0  0  0  0  0  0
    4.3514   -0.8158    0.0926 C   0  0  0  0  0  0  0  0  0  0  0  0
    3.1804   -0.9534    0.8437 C   0  0  0  0  0  0  0  0  0  0  0  0
   -0.3967   -0.5370    0.7366 N   0  0  0  0  0  0  0  0  0  0  0  0
   -1.9918    2.5061   -0.0394 C   0  0  0  0  0  0  0  0  0  0  0  0
   -1.8668    3.7064    0.3298 O   0  0  0  0  0  0  0  0  0  0  0  0
   -2.9480    2.1319   -0.9574 N   0  0  0  0  0  0  0  0  0  0  0  0
   -3.8647    3.1521   -1.5044 C   0  0  0  0  0  0  0  0  0  0  0  0
   -4.9400    3.4879   -0.5078 C   0  0  0  0  0  0  0  0  0  0  0  0
   -5.8884    2.6088   -0.1735 C   0  0  0  0  0  0  0  0  0  0  0  0
   -3.0696    0.8006   -1.3302 C   0  0  0  0  0  0  0  0  0  0  0  0
   -3.9665    0.4574   -2.1511 O   0  0  0  0  0  0  0  0  0  0  0  0
   -4.1192   -4.3865    1.4055 H   0  0  0  0  0  0  0  0  0  0  0  0
   -5.4793   -3.9809    0.2787 H   0  0  0  0  0  0  0  0  0  0  0  0
   -4.5641   -5.5228    0.0763 H   0  0  0  0  0  0  0  0  0  0  0  0
   -2.5047   -4.2639   -0.5051 H   0  0  0  0  0  0  0  0  0  0  0  0
   -3.8591   -3.8600   -1.6273 H   0  0  0  0  0  0  0  0  0  0  0  0
   -4.3329   -1.7744   -0.3046 H   0  0  0  0  0  0  0  0  0  0  0  0
   -2.9787   -2.1785    0.8174 H   0  0  0  0  0  0  0  0  0  0  0  0
   -2.6977   -1.6830   -2.2235 H   0  0  0  0  0  0  0  0  0  0  0  0
   -1.3644   -2.0849   -1.1154 H   0  0  0  0  0  0  0  0  0  0  0  0
    0.1729    2.4946    1.8570 H   0  0  0  0  0  0  0  0  0  0  0  0
    1.2938   -1.0632    2.7433 H   0  0  0  0  0  0  0  0  0  0  0  0
    1.4402    0.6349    3.2866 H   0  0  0  0  0  0  0  0  0  0  0  0
    3.0222    2.1857    2.1607 H   0  0  0  0  0  0  0  0  0  0  0  0
    5.0843    2.4255    0.8438 H   0  0  0  0  0  0  0  0  0  0  0  0
    6.4875    1.5362   -1.0153 H   0  0  0  0  0  0  0  0  0  0  0  0
    8.7221   -1.2070   -2.2789 H   0  0  0  0  0  0  0  0  0  0  0  0
    7.9265    0.3271   -2.7975 H   0  0  0  0  0  0  0  0  0  0  0  0
    9.1249    0.3459   -1.4413 H   0  0  0  0  0  0  0  0  0  0  0  0
    4.6794   -1.6469   -0.5171 H   0  0  0  0  0  0  0  0  0  0  0  0
    2.6397   -1.8915    0.8159 H   0  0  0  0  0  0  0  0  0  0  0  0
   -4.3290    2.8246   -2.4596 H   0  0  0  0  0  0  0  0  0  0  0  0
   -3.2966    4.0761   -1.7492 H   0  0  0  0  0  0  0  0  0  0  0  0
   -4.9473    4.4738   -0.0527 H   0  0  0  0  0  0  0  0  0  0  0  0
   -5.9147    1.6173   -0.6135 H   0  0  0  0  0  0  0  0  0  0  0  0
   -6.6512    2.8826    0.5480 H   0  0  0  0  0  0  0  0  0  0  0  0
  1  2  1  0
  2  3  1  0
  3  4  1  0
  4  5  1  0
  5  6  1  0
  6  7  2  0
  7  8  1  0
  8  9  1  0
  9 10  1  0
 10 11  1  0
 11 12  2  0
 12 13  1  0
 13 14  2  0
 14 15  1  0
 15 16  1  0
 16 17  1  0
 16 18  2  0
 14 19  1  0
 19 20  2  0
  9 21  2  0
  7 22  1  0
 22 23  2  0
 22 24  1  0
 24 25  1  0
 25 26  1  0
 26 27  2  3
 24 28  1  0
 28 29  2  0
 28  5  1  0
 21  6  1  0
 20 11  1  0
  1 30  1  0
  1 31  1  0
  1 32  1  0
  2 33  1  0
  2 34  1  0
  3 35  1  0
  3 36  1  0
  4 37  1  0
  4 38  1  0
  8 39  1  0
 10 40  1  0
 10 41  1  0
 12 42  1  0
 13 43  1  0
 15 44  1  0
 17 45  1  0
 17 46  1  0
 17 47  1  0
 19 48  1  0
 20 49  1  0
 25 50  1  0
 25 51  1  0
 26 52  1  0
 27 53  1  0
 27 54  1  0
M  END
$$$$
