
     RDKit          3D

 39 40  0  0  0  0  0  0  0  0999 V2000
    0.1363    1.3123   -2.1233 C   0  0  0  0  0  0  0  0  0  0  0  0
   -0.9782    0.7431   -1.2721 C   0  0  0  0  0  0  0  0  0  0  0  0
   -0.7983   -0.3826   -0.5287 C   0  0  0  0  0  0  0  0  0  0  0  0
    0.5330   -1.1142   -0.4768 C   0  0  0  0  0  0  0  0  0  0  0  0
    1.3802   -0.6217    0.7067 C   0  0  0  0  0  0  0  0  0  0  0  0
    2.6413   -1.4732    0.9388 C   0  0  0  0  0  0  0  0  0  0  0  0
    3.6435   -1.4904   -0.2337 C   0  0  0  0  0  0  0  0  0  0  0  0
    4.1868   -0.1087   -0.6300 C   0  0  0  0  0  0  0  0  0  0  0  0
    4.9137    0.5535    0.4995 C   0  0  0  0  0  0  0  0  0  0  0  0
    4.2784    1.5365    1.2517 O   0  0  0  0  0  0  0  0  0  0  0  0
    6.0885    0.2005    0.7875 O   0  0  0  0  0  0  0  0  0  0  0  0
   -1.9093   -0.9057    0.3140 C   0  0  0  0  0  0  0  0  0  0  0  0
   -1.7238   -1.9250    1.0343 O   0  0  0  0  0  0  0  0  0  0  0  0
   -3.2285   -0.2388    0.3184 C   0  0  0  0  0  0  0  0  0  0  0  0
   -4.2871   -0.7291    1.1048 C   0  0  0  0  0  0  0  0  0  0  0  0
   -5.5279   -0.0879    1.0954 C   0  0  0  0  0  0  0  0  0  0  0  0
   -5.7241    1.0446    0.3040 C   0  0  0  0  0  0  0  0  0  0  0  0
   -4.6799    1.5402   -0.4804 C   0  0  0  0  0  0  0  0  0  0  0  0
   -3.4256    0.9026   -0.4781 C   0  0  0  0  0  0  0  0  0  0  0  0
   -2.3082    1.4142   -1.3007 C   0  0  0  0  0  0  0  0  0  0  0  0
   -2.4890    2.4248   -2.0341 O   0  0  0  0  0  0  0  0  0  0  0  0
    1.0650    1.4241   -1.5286 H   0  0  0  0  0  0  0  0  0  0  0  0
   -0.1096    2.3201   -2.5157 H   0  0  0  0  0  0  0  0  0  0  0  0
    0.3252    0.6440   -2.9895 H   0  0  0  0  0  0  0  0  0  0  0  0
    1.0911   -0.9975   -1.4272 H   0  0  0  0  0  0  0  0  0  0  0  0
    0.3510   -2.2056   -0.3712 H   0  0  0  0  0  0  0  0  0  0  0  0
    0.7676   -0.6744    1.6333 H   0  0  0  0  0  0  0  0  0  0  0  0
    1.6553    0.4440    0.5685 H   0  0  0  0  0  0  0  0  0  0  0  0
    2.3317   -2.5198    1.1507 H   0  0  0  0  0  0  0  0  0  0  0  0
    3.1549   -1.1040    1.8525 H   0  0  0  0  0  0  0  0  0  0  0  0
    4.4997   -2.1409    0.0499 H   0  0  0  0  0  0  0  0  0  0  0  0
    3.1741   -1.9633   -1.1217 H   0  0  0  0  0  0  0  0  0  0  0  0
    3.3657    0.5454   -0.9884 H   0  0  0  0  0  0  0  0  0  0  0  0
    4.8905   -0.2345   -1.4810 H   0  0  0  0  0  0  0  0  0  0  0  0
    4.7513    1.9834    2.0279 H   0  0  0  0  0  0  0  0  0  0  0  0
   -4.1566   -1.6067    1.7255 H   0  0  0  0  0  0  0  0  0  0  0  0
   -6.3387   -0.4698    1.7024 H   0  0  0  0  0  0  0  0  0  0  0  0
   -6.6866    1.5397    0.2984 H   0  0  0  0  0  0  0  0  0  0  0  0
   -4.8535    2.4206   -1.0863 H   0  0  0  0  0  0  0  0  0  0  0  0
  1  2  1  0
  2  3  2  0
  3  4  1  0
  4  5  1  0
  5  6  1  0
  6  7  1  0
  7  8  1  0
  8  9  1  0
  9 10  1  0
  9 11  2  0
  3 12  1  0
 12 13  2  0
 12 14  1  0
 14 15  2  0
 15 16  1  0
 16 17  2  0
 17 18  1  0
 18 19  2  0
 19 20  1  0
 20 21  2  0
 20  2  1  0
 19 14  1  0
  1 22  1  0
  1 23  1  0
  1 24  1  0
  4 25  1  0
  4 26  1  0
  5 27  1  0
  5 28  1  0
  6 29  1  0
  6 30  1  0
  7 31  1  0
  7 32  1  0
  8 33  1  0
  8 34  1  0
 10 35  1  0
 15 36  1  0
 16 37  1  0
 17 38  1  0
 18 39  1  0
M  END
$$$$
