
     RDKit          3D

 38 40  0  0  0  0  0  0  0  0999 V2000
   -1.2671   -1.2546    2.2069 O   0  0  0  0  0  0  0  0  0  0  0  0
    0.0644   -1.2594    1.8001 C   0  0  0  0  0  0  0  0  0  0  0  0
    0.8419   -2.1430    2.2526 O   0  0  0  0  0  0  0  0  0  0  0  0
    0.5791   -0.2166    0.8793 C   0  0  0  0  0  0  0  0  0  0  0  0
   -0.2709    0.4831   -0.0125 C   0  0  0  0  0  0  0  0  0  0  0  0
   -1.6442    0.0957   -0.1870 N   0  0  0  0  0  0  0  0  0  0  0  0
   -2.7157    1.0448   -0.2972 C   0  0  0  0  0  0  0  0  0  0  0  0
   -2.5401    2.2381    0.0722 O   0  0  0  0  0  0  0  0  0  0  0  0
   -4.0523    0.6211   -0.7665 C   0  0  0  0  0  0  0  0  0  0  0  0
   -4.2200   -0.2223   -1.8891 C   0  0  0  0  0  0  0  0  0  0  0  0
   -2.8617   -0.7455   -2.8813 Cl  0  0  0  0  0  0  0  0  0  0  0  0
   -5.5071   -0.6096   -2.2834 C   0  0  0  0  0  0  0  0  0  0  0  0
   -6.6283   -0.1605   -1.5806 C   0  0  0  0  0  0  0  0  0  0  0  0
   -8.2353   -0.6505   -2.0851 Cl  0  0  0  0  0  0  0  0  0  0  0  0
   -6.4690    0.6890   -0.4838 C   0  0  0  0  0  0  0  0  0  0  0  0
   -5.1903    1.0819   -0.0817 C   0  0  0  0  0  0  0  0  0  0  0  0
    0.2608    1.5131   -0.8063 C   0  0  0  0  0  0  0  0  0  0  0  0
    1.6134    1.8439   -0.7316 C   0  0  0  0  0  0  0  0  0  0  0  0
    2.4688    1.1394    0.1164 C   0  0  0  0  0  0  0  0  0  0  0  0
    3.8219    1.5069    0.1579 O   0  0  0  0  0  0  0  0  0  0  0  0
    4.8884    0.6358    0.4126 C   0  0  0  0  0  0  0  0  0  0  0  0
    6.1006    1.1523    0.7471 N   0  0  0  0  0  0  0  0  0  0  0  0
    7.1667    0.3435    0.9820 C   0  0  0  0  0  0  0  0  0  0  0  0
    7.0276   -1.0394    0.8743 C   0  0  0  0  0  0  0  0  0  0  0  0
    5.7820   -1.5551    0.5204 C   0  0  0  0  0  0  0  0  0  0  0  0
    4.7407   -0.7132    0.2931 N   0  0  0  0  0  0  0  0  0  0  0  0
    1.9450    0.1210    0.9308 C   0  0  0  0  0  0  0  0  0  0  0  0
   -1.6195   -1.9587    2.8443 H   0  0  0  0  0  0  0  0  0  0  0  0
   -1.8784   -0.9223   -0.2039 H   0  0  0  0  0  0  0  0  0  0  0  0
   -5.6368   -1.2512   -3.1461 H   0  0  0  0  0  0  0  0  0  0  0  0
   -7.3353    1.0445    0.0596 H   0  0  0  0  0  0  0  0  0  0  0  0
   -5.0878    1.7342    0.7771 H   0  0  0  0  0  0  0  0  0  0  0  0
   -0.3691    2.0426   -1.5097 H   0  0  0  0  0  0  0  0  0  0  0  0
    2.0046    2.6379   -1.3551 H   0  0  0  0  0  0  0  0  0  0  0  0
    8.1218    0.7749    1.2503 H   0  0  0  0  0  0  0  0  0  0  0  0
    7.8676   -1.6967    1.0578 H   0  0  0  0  0  0  0  0  0  0  0  0
    5.6425   -2.6235    0.4240 H   0  0  0  0  0  0  0  0  0  0  0  0
    2.5912   -0.3766    1.6420 H   0  0  0  0  0  0  0  0  0  0  0  0
  1  2  1  0
  2  3  2  0
  2  4  1  0
  4  5  2  0
  5  6  1  0
  6  7  1  0
  7  8  2  0
  7  9  1  0
  9 10  2  0
 10 11  1  0
 10 12  1  0
 12 13  2  0
 13 14  1  0
 13 15  1  0
 15 16  2  0
  5 17  1  0
 17 18  2  0
 18 19  1  0
 19 20  1  0
 20 21  1  0
 21 22  2  0
 22 23  1  0
 23 24  2  0
 24 25  1  0
 25 26  2  0
 19 27  2  0
 27  4  1  0
 16  9  1  0
 26 21  1  0
  1 28  1  0
  6 29  1  0
 12 30  1  0
 15 31  1  0
 16 32  1  0
 17 33  1  0
 18 34  1  0
 23 35  1  0
 24 36  1  0
 25 37  1  0
 27 38  1  0
M  END
$$$$
