
     RDKit          3D

 13 12  0  0  0  0  0  0  0  0999 V2000
   -1.5472    0.3165    0.2207 C   0  0  0  0  0  0  0  0  0  0  0  0
   -0.2537   -0.4622   -0.0146 C   0  0  0  0  0  0  0  0  0  0  0  0
   -0.4090   -1.2692   -1.1531 O   0  0  0  0  0  0  0  0  0  0  0  0
    0.9266    0.4978   -0.2073 C   0  0  0  0  0  0  0  0  0  0  0  0
    2.1154   -0.2314   -0.3385 O   0  0  0  0  0  0  0  0  0  0  0  0
   -1.4591    0.9451    1.1326 H   0  0  0  0  0  0  0  0  0  0  0  0
   -2.3909   -0.3917    0.3635 H   0  0  0  0  0  0  0  0  0  0  0  0
   -1.7730    0.9687   -0.6502 H   0  0  0  0  0  0  0  0  0  0  0  0
   -0.0671   -1.0960    0.8843 H   0  0  0  0  0  0  0  0  0  0  0  0
    0.2540   -2.0045   -1.0787 H   0  0  0  0  0  0  0  0  0  0  0  0
    1.0050    1.1729    0.6746 H   0  0  0  0  0  0  0  0  0  0  0  0
    0.7626    1.1155   -1.1193 H   0  0  0  0  0  0  0  0  0  0  0  0
    2.8365    0.4384   -0.4670 H   0  0  0  0  0  0  0  0  0  0  0  0
  1  2  1  0
  2  3  1  0
  2  4  1  0
  4  5  1  0
  1  6  1  0
  1  7  1  0
  1  8  1  0
  2  9  1  0
  3 10  1  0
  4 11  1  0
  4 12  1  0
  5 13  1  0
M  END
$$$$
