
     RDKit          3D

 55 57  0  0  0  0  0  0  0  0999 V2000
   -3.9640   -0.6231    1.9091 C   0  0  0  0  0  0  0  0  0  0  0  0
   -2.9282    0.4957    1.9448 C   0  0  0  0  0  0  0  0  0  0  0  0
   -3.0663    1.3953    0.7428 C   0  0  0  0  0  0  0  0  0  0  0  0
   -3.8601    2.4934    0.8540 N   0  0  0  0  0  0  0  0  0  0  0  0
   -4.0690    3.3293   -0.1934 C   0  0  0  0  0  0  0  0  0  0  0  0
   -4.9036    4.4744   -0.0370 N   0  0  0  0  0  0  0  0  0  0  0  0
   -3.4845    3.0736   -1.3903 N   0  0  0  0  0  0  0  0  0  0  0  0
   -2.6878    1.9888   -1.5741 C   0  0  0  0  0  0  0  0  0  0  0  0
   -2.0886    1.7838   -2.8584 N   0  0  0  0  0  0  0  0  0  0  0  0
   -2.4585    1.1030   -0.4999 C   0  0  0  0  0  0  0  0  0  0  0  0
   -1.6087   -0.0933   -0.6762 C   0  0  0  0  0  0  0  0  0  0  0  0
   -0.2888   -0.0939   -0.2036 C   0  0  0  0  0  0  0  0  0  0  0  0
    0.5364   -1.2270   -0.3730 C   0  0  0  0  0  0  0  0  0  0  0  0
    0.0074   -2.3520   -1.0358 C   0  0  0  0  0  0  0  0  0  0  0  0
    0.7933   -3.4899   -1.2362 O   0  0  0  0  0  0  0  0  0  0  0  0
    2.0121   -3.7408   -0.5333 C   0  0  0  0  0  0  0  0  0  0  0  0
    1.6857   -4.4851    0.7685 C   0  0  0  0  0  0  0  0  0  0  0  0
    2.8995   -4.6195   -1.4281 C   0  0  0  0  0  0  0  0  0  0  0  0
    2.7034   -2.4361   -0.1951 C   0  0  0  0  0  0  0  0  0  0  0  0
    3.9593   -2.4063   -0.0657 O   0  0  0  0  0  0  0  0  0  0  0  0
    1.9182   -1.2538    0.0677 N   0  0  0  0  0  0  0  0  0  0  0  0
    2.5633   -0.0905    0.7009 C   0  0  0  0  0  0  0  0  0  0  0  0
    3.0204    0.9130   -0.3616 C   0  0  0  0  0  0  0  0  0  0  0  0
    3.6533    2.0707    0.2662 N   0  0  0  0  0  0  0  0  0  0  0  0
    2.9014    3.0951    0.9311 C   0  0  0  0  0  0  0  0  0  0  0  0
    3.6097    4.2514    1.5576 C   0  0  0  0  0  0  0  0  0  0  0  0
    1.6418    3.0481    0.9582 O   0  0  0  0  0  0  0  0  0  0  0  0
   -1.3026   -2.3394   -1.5228 C   0  0  0  0  0  0  0  0  0  0  0  0
   -2.1096   -1.2170   -1.3428 C   0  0  0  0  0  0  0  0  0  0  0  0
   -4.9900   -0.1975    1.8877 H   0  0  0  0  0  0  0  0  0  0  0  0
   -3.8155   -1.2634    1.0146 H   0  0  0  0  0  0  0  0  0  0  0  0
   -3.8598   -1.2545    2.8164 H   0  0  0  0  0  0  0  0  0  0  0  0
   -3.0790    1.0928    2.8703 H   0  0  0  0  0  0  0  0  0  0  0  0
   -1.9094    0.0608    2.0065 H   0  0  0  0  0  0  0  0  0  0  0  0
   -5.0691    5.1216   -0.8395 H   0  0  0  0  0  0  0  0  0  0  0  0
   -5.3572    4.6763    0.8816 H   0  0  0  0  0  0  0  0  0  0  0  0
   -2.2880    2.4508   -3.6366 H   0  0  0  0  0  0  0  0  0  0  0  0
   -1.4318    0.9953   -3.0477 H   0  0  0  0  0  0  0  0  0  0  0  0
    0.0743    0.8006    0.2792 H   0  0  0  0  0  0  0  0  0  0  0  0
    2.6149   -4.7172    1.3329 H   0  0  0  0  0  0  0  0  0  0  0  0
    1.0257   -3.8649    1.4128 H   0  0  0  0  0  0  0  0  0  0  0  0
    1.1570   -5.4367    0.5461 H   0  0  0  0  0  0  0  0  0  0  0  0
    3.8380   -4.9040   -0.9049 H   0  0  0  0  0  0  0  0  0  0  0  0
    3.1605   -4.0741   -2.3605 H   0  0  0  0  0  0  0  0  0  0  0  0
    2.3596   -5.5491   -1.7095 H   0  0  0  0  0  0  0  0  0  0  0  0
    3.4452   -0.4107    1.2976 H   0  0  0  0  0  0  0  0  0  0  0  0
    1.8796    0.3819    1.4350 H   0  0  0  0  0  0  0  0  0  0  0  0
    3.7547    0.4156   -1.0319 H   0  0  0  0  0  0  0  0  0  0  0  0
    2.1648    1.2458   -0.9871 H   0  0  0  0  0  0  0  0  0  0  0  0
    4.6889    2.1804    0.1789 H   0  0  0  0  0  0  0  0  0  0  0  0
    2.9258    4.8062    2.2346 H   0  0  0  0  0  0  0  0  0  0  0  0
    4.4763    3.8862    2.1474 H   0  0  0  0  0  0  0  0  0  0  0  0
    3.9706    4.9375    0.7636 H   0  0  0  0  0  0  0  0  0  0  0  0
   -1.6965   -3.2057   -2.0388 H   0  0  0  0  0  0  0  0  0  0  0  0
   -3.1242   -1.2216   -1.7219 H   0  0  0  0  0  0  0  0  0  0  0  0
  1  2  1  0
  2  3  1  0
  3  4  2  0
  4  5  1  0
  5  6  1  0
  5  7  2  0
  7  8  1  0
  8  9  1  0
  8 10  2  0
 10 11  1  0
 11 12  2  0
 12 13  1  0
 13 14  2  0
 14 15  1  0
 15 16  1  0
 16 17  1  0
 16 18  1  0
 16 19  1  0
 19 20  2  0
 19 21  1  0
 21 22  1  0
 22 23  1  0
 23 24  1  0
 24 25  1  0
 25 26  1  0
 25 27  2  0
 14 28  1  0
 28 29  2  0
 10  3  1  0
 29 11  1  0
 21 13  1  0
  1 30  1  0
  1 31  1  0
  1 32  1  0
  2 33  1  0
  2 34  1  0
  6 35  1  0
  6 36  1  0
  9 37  1  0
  9 38  1  0
 12 39  1  0
 17 40  1  0
 17 41  1  0
 17 42  1  0
 18 43  1  0
 18 44  1  0
 18 45  1  0
 22 46  1  0
 22 47  1  0
 23 48  1  0
 23 49  1  0
 24 50  1  0
 26 51  1  0
 26 52  1  0
 26 53  1  0
 28 54  1  0
 29 55  1  0
M  END
$$$$
