
     RDKit          2D

144147  0  0  0  0  0  0  0  0999 V2000
  -14.4969   -5.0497    0.0000 C   0  0  0  0  0  0  0  0  0  0  0  0
  -13.0263   -4.7537    0.0000 C   0  0  0  0  0  0  0  0  0  0  0  0
  -11.5558   -4.4577    0.0000 C   0  0  0  0  0  0  0  0  0  0  0  0
  -11.2599   -5.9283    0.0000 C   0  0  0  0  0  0  0  0  0  0  0  0
  -10.0853   -4.1618    0.0000 C   0  0  0  0  0  0  0  0  0  0  0  0
  -10.4605   -5.6141    0.0000 C   0  0  0  0  0  0  0  0  0  0  0  0
  -10.5146   -7.1131    0.0000 C   0  0  0  0  0  0  0  0  0  0  0  0
  -12.0107   -7.2214    0.0000 O   0  0  0  0  0  0  0  0  0  0  0  0
  -10.2452   -8.5888    0.0000 C   0  0  0  0  0  0  0  0  0  0  0  0
  -11.2368   -9.7143    0.0000 C   0  0  0  0  0  0  0  0  0  0  0  0
   -9.6650   -9.9720    0.0000 C   0  0  0  0  0  0  0  0  0  0  0  0
   -8.8009  -11.1981    0.0000 C   0  0  0  0  0  0  0  0  0  0  0  0
   -9.9264  -12.1897    0.0000 C   0  0  0  0  0  0  0  0  0  0  0  0
   -7.6935  -12.2098    0.0000 C   0  0  0  0  0  0  0  0  0  0  0  0
   -7.8017  -13.7059    0.0000 O   0  0  0  0  0  0  0  0  0  0  0  0
   -6.3944  -12.9598    0.0000 C   0  0  0  0  0  0  0  0  0  0  0  0
   -6.1785  -14.4442    0.0000 O   0  0  0  0  0  0  0  0  0  0  0  0
   -7.3561  -15.3734    0.0000 C   0  0  0  0  0  0  0  0  0  0  0  0
   -4.9645  -13.4130    0.0000 C   0  0  0  0  0  0  0  0  0  0  0  0
   -5.2605  -14.8836    0.0000 O   0  0  0  0  0  0  0  0  0  0  0  0
   -3.4706  -13.5483    0.0000 C   0  0  0  0  0  0  0  0  0  0  0  0
   -2.6514  -14.8048    0.0000 C   0  0  0  0  0  0  0  0  0  0  0  0
   -1.9826  -13.3592    0.0000 C   0  0  0  0  0  0  0  0  0  0  0  0
   -0.5700  -12.8547    0.0000 C   0  0  0  0  0  0  0  0  0  0  0  0
    0.7011  -13.6511    0.0000 C   0  0  0  0  0  0  0  0  0  0  0  0
    0.7011  -12.0582    0.0000 C   0  0  0  0  0  0  0  0  0  0  0  0
    1.7713  -11.0072    0.0000 C   0  0  0  0  0  0  0  0  0  0  0  0
    2.5905   -9.7507    0.0000 C   0  0  0  0  0  0  0  0  0  0  0  0
    3.1205   -8.3474    0.0000 C   0  0  0  0  0  0  0  0  0  0  0  0
    3.3364   -6.8630    0.0000 C   0  0  0  0  0  0  0  0  0  0  0  0
    3.2282   -5.3669    0.0000 C   0  0  0  0  0  0  0  0  0  0  0  0
    4.7038   -5.0976    0.0000 C   0  0  0  0  0  0  0  0  0  0  0  0
    2.8008   -3.9291    0.0000 C   0  0  0  0  0  0  0  0  0  0  0  0
    2.0744   -2.6167    0.0000 C   0  0  0  0  0  0  0  0  0  0  0  0
    0.7500   -1.2990    0.0000 C   0  0  0  0  0  0  0  0  0  0  0  0
    1.5000    0.0000    0.0000 C   0  0  0  0  0  0  0  0  0  0  0  0
    0.7500    1.2990    0.0000 C   0  0  0  0  0  0  0  0  0  0  0  0
   -0.7500    1.2990    0.0000 C   0  0  0  0  0  0  0  0  0  0  0  0
   -0.4895    2.7762    0.0000 C   0  0  0  0  0  0  0  0  0  0  0  0
   -1.5000    0.0000    0.0000 C   0  0  0  0  0  0  0  0  0  0  0  0
   -3.0000    0.0000    0.0000 O   0  0  0  0  0  0  0  0  0  0  0  0
   -0.7500   -1.2990    0.0000 O   0  0  0  0  0  0  0  0  0  0  0  0
   -2.9705    0.2960    0.0000 C   0  0  0  0  0  0  0  0  0  0  0  0
   -3.0184    1.7952    0.0000 O   0  0  0  0  0  0  0  0  0  0  0  0
   -4.4703    0.2689    0.0000 C   0  0  0  0  0  0  0  0  0  0  0  0
   -4.4765    1.7689    0.0000 O   0  0  0  0  0  0  0  0  0  0  0  0
   -5.9291   -0.0800    0.0000 N   0  0  0  0  0  0  0  0  0  0  0  0
   -5.8209    1.4161    0.0000 C   0  0  0  0  0  0  0  0  0  0  0  0
   -7.0624    2.2579    0.0000 C   0  0  0  0  0  0  0  0  0  0  0  0
   -8.4122    1.6036    0.0000 C   0  0  0  0  0  0  0  0  0  0  0  0
   -8.5204    0.1075    0.0000 C   0  0  0  0  0  0  0  0  0  0  0  0
   -7.2789   -0.7343    0.0000 C   0  0  0  0  0  0  0  0  0  0  0  0
   -8.4565   -1.6635    0.0000 C   0  0  0  0  0  0  0  0  0  0  0  0
   -9.7352   -0.8794    0.0000 O   0  0  0  0  0  0  0  0  0  0  0  0
   -9.4067   -2.8240    0.0000 O   0  0  0  0  0  0  0  0  0  0  0  0
    3.6649   -2.7030    0.0000 O   0  0  0  0  0  0  0  0  0  0  0  0
    5.1588   -2.8382    0.0000 C   0  0  0  0  0  0  0  0  0  0  0  0
  -14.5330   -3.5501    0.0000 C   0  0  0  0  0  0  0  0  0  0  0  0
  -15.8497   -2.8316    0.0000 C   0  0  0  0  0  0  0  0  0  0  0  0
  -17.1303   -3.6126    0.0000 C   0  0  0  0  0  0  0  0  0  0  0  0
  -17.6771   -2.2158    0.0000 O   0  0  0  0  0  0  0  0  0  0  0  0
  -17.0942   -5.1122    0.0000 C   0  0  0  0  0  0  0  0  0  0  0  0
  -15.7775   -5.8307    0.0000 C   0  0  0  0  0  0  0  0  0  0  0  0
  -18.5772   -4.8874    0.0000 O   0  0  0  0  0  0  0  0  0  0  0  0
  -19.5135   -6.0593    0.0000 C   0  0  0  0  0  0  0  0  0  0  0  0
  -13.9500   -6.4464    0.0000 H   0  0  0  0  0  0  0  0  0  0  0  0
  -13.1408   -3.2581    0.0000 H   0  0  0  0  0  0  0  0  0  0  0  0
  -13.0950   -6.2521    0.0000 H   0  0  0  0  0  0  0  0  0  0  0  0
  -12.0288   -3.0343    0.0000 H   0  0  0  0  0  0  0  0  0  0  0  0
   -9.7614   -5.9969    0.0000 H   0  0  0  0  0  0  0  0  0  0  0  0
  -12.7304   -6.2242    0.0000 H   0  0  0  0  0  0  0  0  0  0  0  0
  -11.3285   -7.4267    0.0000 H   0  0  0  0  0  0  0  0  0  0  0  0
  -10.8407   -2.8659    0.0000 H   0  0  0  0  0  0  0  0  0  0  0  0
  -11.8047   -4.9485    0.0000 H   0  0  0  0  0  0  0  0  0  0  0  0
  -11.3881   -6.7929    0.0000 H   0  0  0  0  0  0  0  0  0  0  0  0
  -11.6309   -8.0143    0.0000 H   0  0  0  0  0  0  0  0  0  0  0  0
  -12.4748   -8.8673    0.0000 H   0  0  0  0  0  0  0  0  0  0  0  0
  -10.3847  -10.9487    0.0000 H   0  0  0  0  0  0  0  0  0  0  0  0
  -12.2284  -10.8398    0.0000 H   0  0  0  0  0  0  0  0  0  0  0  0
  -10.9773  -10.6984    0.0000 H   0  0  0  0  0  0  0  0  0  0  0  0
   -9.0795  -13.4277    0.0000 H   0  0  0  0  0  0  0  0  0  0  0  0
  -11.1609  -11.3375    0.0000 H   0  0  0  0  0  0  0  0  0  0  0  0
  -11.0520  -13.1812    0.0000 H   0  0  0  0  0  0  0  0  0  0  0  0
   -9.0089  -12.9308    0.0000 H   0  0  0  0  0  0  0  0  0  0  0  0
   -9.2212  -14.1908    0.0000 H   0  0  0  0  0  0  0  0  0  0  0  0
   -7.5241  -13.9467    0.0000 H   0  0  0  0  0  0  0  0  0  0  0  0
   -6.4269  -16.5509    0.0000 H   0  0  0  0  0  0  0  0  0  0  0  0
   -8.7294  -14.7700    0.0000 H   0  0  0  0  0  0  0  0  0  0  0  0
   -8.5336  -16.3026    0.0000 H   0  0  0  0  0  0  0  0  0  0  0  0
   -4.3949  -14.7297    0.0000 H   0  0  0  0  0  0  0  0  0  0  0  0
   -3.7987  -15.7711    0.0000 H   0  0  0  0  0  0  0  0  0  0  0  0
   -1.2340  -14.3140    0.0000 H   0  0  0  0  0  0  0  0  0  0  0  0
   -1.8322  -16.0613    0.0000 H   0  0  0  0  0  0  0  0  0  0  0  0
   -2.1034  -14.8543    0.0000 H   0  0  0  0  0  0  0  0  0  0  0  0
   -0.9124  -14.4102    0.0000 H   0  0  0  0  0  0  0  0  0  0  0  0
   -0.5492  -14.3545    0.0000 H   0  0  0  0  0  0  0  0  0  0  0  0
    1.6465  -12.4865    0.0000 H   0  0  0  0  0  0  0  0  0  0  0  0
    0.0656  -15.0098    0.0000 H   0  0  0  0  0  0  0  0  0  0  0  0
    1.9722  -14.4475    0.0000 H   0  0  0  0  0  0  0  0  0  0  0  0
    1.7669  -13.1138    0.0000 H   0  0  0  0  0  0  0  0  0  0  0  0
    2.9319  -11.9575    0.0000 H   0  0  0  0  0  0  0  0  0  0  0  0
    3.9283  -10.4292    0.0000 H   0  0  0  0  0  0  0  0  0  0  0  0
    4.5728   -8.7225    0.0000 H   0  0  0  0  0  0  0  0  0  0  0  0
    4.8176   -7.0995    0.0000 H   0  0  0  0  0  0  0  0  0  0  0  0
    4.6163   -3.6001    0.0000 H   0  0  0  0  0  0  0  0  0  0  0  0
    5.1510   -6.5294    0.0000 H   0  0  0  0  0  0  0  0  0  0  0  0
    6.1794   -4.8282    0.0000 H   0  0  0  0  0  0  0  0  0  0  0  0
    4.2811   -4.1718    0.0000 H   0  0  0  0  0  0  0  0  0  0  0  0
    3.5080   -2.1755    0.0000 H   0  0  0  0  0  0  0  0  0  0  0  0
    2.8190   -1.3146    0.0000 H   0  0  0  0  0  0  0  0  0  0  0  0
    1.7920   -2.3780    0.0000 H   0  0  0  0  0  0  0  0  0  0  0  0
    2.6491    0.9642    0.0000 H   0  0  0  0  0  0  0  0  0  0  0  0
    2.7580   -0.8169    0.0000 H   0  0  0  0  0  0  0  0  0  0  0  0
    0.6715    2.7970    0.0000 H   0  0  0  0  0  0  0  0  0  0  0  0
    2.1595    1.8121    0.0000 H   0  0  0  0  0  0  0  0  0  0  0  0
   -2.0865    1.9801    0.0000 H   0  0  0  0  0  0  0  0  0  0  0  0
   -1.9667    3.0367    0.0000 H   0  0  0  0  0  0  0  0  0  0  0  0
    1.0084    2.6978    0.0000 H   0  0  0  0  0  0  0  0  0  0  0  0
   -0.2291    4.2535    0.0000 H   0  0  0  0  0  0  0  0  0  0  0  0
   -3.7500   -1.2990    0.0000 H   0  0  0  0  0  0  0  0  0  0  0  0
   -5.2075    2.7850    0.0000 H   0  0  0  0  0  0  0  0  0  0  0  0
   -4.3317    1.5955    0.0000 H   0  0  0  0  0  0  0  0  0  0  0  0
   -7.9412    3.4735    0.0000 H   0  0  0  0  0  0  0  0  0  0  0  0
   -6.0179    3.3344    0.0000 H   0  0  0  0  0  0  0  0  0  0  0  0
   -9.9044    1.4504    0.0000 H   0  0  0  0  0  0  0  0  0  0  0  0
   -8.8222    3.0465    0.0000 H   0  0  0  0  0  0  0  0  0  0  0  0
   -9.7048   -0.8130    0.0000 H   0  0  0  0  0  0  0  0  0  0  0  0
   -9.9750    0.4739    0.0000 H   0  0  0  0  0  0  0  0  0  0  0  0
   -8.7779   -0.7884    0.0000 H   0  0  0  0  0  0  0  0  0  0  0  0
    5.2940   -1.3443    0.0000 H   0  0  0  0  0  0  0  0  0  0  0  0
    5.2067   -4.3374    0.0000 H   0  0  0  0  0  0  0  0  0  0  0  0
    6.6527   -2.9734    0.0000 H   0  0  0  0  0  0  0  0  0  0  0  0
  -14.0540   -2.1286    0.0000 H   0  0  0  0  0  0  0  0  0  0  0  0
  -13.0336   -3.5925    0.0000 H   0  0  0  0  0  0  0  0  0  0  0  0
  -16.8412   -1.7060    0.0000 H   0  0  0  0  0  0  0  0  0  0  0  0
  -14.9134   -1.6596    0.0000 H   0  0  0  0  0  0  0  0  0  0  0  0
  -18.6008   -3.9086    0.0000 H   0  0  0  0  0  0  0  0  0  0  0  0
  -19.1602   -1.9910    0.0000 H   0  0  0  0  0  0  0  0  0  0  0  0
  -17.3963   -6.5815    0.0000 H   0  0  0  0  0  0  0  0  0  0  0  0
  -14.7859   -6.9562    0.0000 H   0  0  0  0  0  0  0  0  0  0  0  0
  -16.7137   -7.0026    0.0000 H   0  0  0  0  0  0  0  0  0  0  0  0
  -20.6854   -5.1231    0.0000 H   0  0  0  0  0  0  0  0  0  0  0  0
  -18.4644   -7.1314    0.0000 H   0  0  0  0  0  0  0  0  0  0  0  0
  -20.4497   -7.2312    0.0000 H   0  0  0  0  0  0  0  0  0  0  0  0
  1  2  1  0
  2  3  1  0
  3  4  1  0
  3  5  1  0
  5  6  1  0
  6  7  1  0
  7  8  2  0
  7  9  1  0
  9 10  1  0
  9 11  1  0
 11 12  2  0
 12 13  1  0
 12 14  1  0
 14 15  1  0
 14 16  1  0
 16 17  1  0
 17 18  1  0
 16 19  1  0
 19 20  2  0
 19 21  1  0
 21 22  1  0
 21 23  1  0
 23 24  1  0
 24 25  1  0
 24 26  1  0
 26 27  2  0
 27 28  1  0
 28 29  2  0
 29 30  1  0
 30 31  2  0
 31 32  1  0
 31 33  1  0
 33 34  1  0
 34 35  1  0
 35 36  1  0
 36 37  1  0
 37 38  1  0
 38 39  1  0
 38 40  1  0
 40 41  1  6
 40 42  1  0
 40 43  1  0
 43 44  2  0
 43 45  1  0
 45 46  2  0
 45 47  1  0
 47 48  1  0
 48 49  1  0
 49 50  1  0
 50 51  1  0
 51 52  1  0
 52 53  1  0
 53 54  2  0
 53 55  1  0
 33 56  1  0
 56 57  1  0
  1 58  1  0
 58 59  1  0
 59 60  1  0
 60 61  1  0
 60 62  1  0
 62 63  1  0
 62 64  1  0
 64 65  1  0
 63  1  1  0
 55  5  1  0
 42 35  1  0
 52 47  1  0
  1 66  1  6
  2 67  1  0
  2 68  1  0
  3 69  1  1
  4 70  1  0
  4 71  1  0
  4 72  1  0
  5 73  1  6
  6 74  1  0
  6 75  1  0
  9 76  1  6
 10 77  1  0
 10 78  1  0
 10 79  1  0
 11 80  1  0
 13 81  1  0
 13 82  1  0
 13 83  1  0
 14 84  1  1
 15 85  1  0
 16 86  1  1
 18 87  1  0
 18 88  1  0
 18 89  1  0
 21 90  1  6
 22 91  1  0
 22 92  1  0
 22 93  1  0
 23 94  1  0
 23 95  1  0
 24 96  1  6
 25 97  1  0
 25 98  1  0
 25 99  1  0
 26100  1  0
 27101  1  0
 28102  1  0
 29103  1  0
 30104  1  0
 32105  1  0
 32106  1  0
 32107  1  0
 33108  1  1
 34109  1  0
 34110  1  0
 35111  1  6
 36112  1  0
 36113  1  0
 37114  1  0
 37115  1  0
 38116  1  1
 39117  1  0
 39118  1  0
 39119  1  0
 41120  1  0
 48121  1  0
 48122  1  0
 49123  1  0
 49124  1  0
 50125  1  0
 50126  1  0
 51127  1  0
 51128  1  0
 52129  1  1
 57130  1  0
 57131  1  0
 57132  1  0
 58133  1  0
 58134  1  0
 59135  1  0
 59136  1  0
 60137  1  1
 61138  1  0
 62139  1  6
 63140  1  0
 63141  1  0
 65142  1  0
 65143  1  0
 65144  1  0
M  END
$$$$
