
     RDKit          3D

 39 41  0  0  0  0  0  0  0  0999 V2000
   -0.9178   -1.0189    0.3014 C   0  0  2  0  0  0  0  0  0  0  0  0
   -2.1157   -0.3944    1.0157 C   0  0  0  0  0  0  0  0  0  0  0  0
   -2.0434    1.1246    0.7549 C   0  0  1  0  0  0  0  0  0  0  0  0
   -3.0726    1.8697    1.6396 C   0  0  0  0  0  0  0  0  0  0  0  0
   -2.8144    1.6634    3.0049 O   0  0  0  0  0  0  0  0  0  0  0  0
   -0.5852    1.6510    1.0028 C   0  0  0  0  0  0  0  0  0  0  0  0
    0.2347    0.7326    1.7074 O   0  0  0  0  0  0  0  0  0  0  0  0
    0.3654   -0.5325    1.0552 C   0  0  2  0  0  0  0  0  0  0  0  0
    1.6598   -0.6655    0.2677 C   0  0  0  0  0  0  0  0  0  0  0  0
    2.3891    0.4530   -0.1810 C   0  0  0  0  0  0  0  0  0  0  0  0
    3.5663    0.2836   -0.9163 C   0  0  0  0  0  0  0  0  0  0  0  0
    4.0397   -1.0020   -1.2043 C   0  0  0  0  0  0  0  0  0  0  0  0
    5.2094   -1.1809   -1.9394 O   0  0  0  0  0  0  0  0  0  0  0  0
    3.3349   -2.1173   -0.7461 C   0  0  0  0  0  0  0  0  0  0  0  0
    2.1589   -1.9518   -0.0099 C   0  0  0  0  0  0  0  0  0  0  0  0
   -2.3959    1.3389   -0.7399 C   0  0  0  0  0  0  0  0  0  0  0  0
   -1.5738    0.4452   -1.6445 C   0  0  0  0  0  0  0  0  0  0  0  0
   -0.9447   -0.6648   -1.1920 C   0  0  0  0  0  0  0  0  0  0  0  0
   -0.2983   -1.5834   -2.1948 C   0  0  0  0  0  0  0  0  0  0  0  0
   -0.9967   -2.1246    0.4007 H   0  0  0  0  0  0  0  0  0  0  0  0
   -3.0667   -0.8258    0.6287 H   0  0  0  0  0  0  0  0  0  0  0  0
   -2.0676   -0.6233    2.1040 H   0  0  0  0  0  0  0  0  0  0  0  0
   -3.0734    2.9587    1.3973 H   0  0  0  0  0  0  0  0  0  0  0  0
   -4.0946    1.4907    1.4222 H   0  0  0  0  0  0  0  0  0  0  0  0
   -2.2327    2.4074    3.3091 H   0  0  0  0  0  0  0  0  0  0  0  0
   -0.0874    1.9311    0.0509 H   0  0  0  0  0  0  0  0  0  0  0  0
   -0.6074    2.5990    1.5797 H   0  0  0  0  0  0  0  0  0  0  0  0
    0.4769   -1.2517    1.8976 H   0  0  0  0  0  0  0  0  0  0  0  0
    2.0741    1.4594    0.0459 H   0  0  0  0  0  0  0  0  0  0  0  0
    4.1134    1.1536   -1.2566 H   0  0  0  0  0  0  0  0  0  0  0  0
    5.7436   -0.3921   -2.2846 H   0  0  0  0  0  0  0  0  0  0  0  0
    3.6986   -3.1142   -0.9605 H   0  0  0  0  0  0  0  0  0  0  0  0
    1.6272   -2.8300    0.3354 H   0  0  0  0  0  0  0  0  0  0  0  0
   -2.2310    2.4004   -1.0268 H   0  0  0  0  0  0  0  0  0  0  0  0
   -3.4690    1.1093   -0.9195 H   0  0  0  0  0  0  0  0  0  0  0  0
   -1.5927    0.6553   -2.7105 H   0  0  0  0  0  0  0  0  0  0  0  0
    0.0589   -2.5166   -1.7141 H   0  0  0  0  0  0  0  0  0  0  0  0
    0.5639   -1.0709   -2.6715 H   0  0  0  0  0  0  0  0  0  0  0  0
   -1.0334   -1.8662   -2.9779 H   0  0  0  0  0  0  0  0  0  0  0  0
  1  2  1  0
  2  3  1  0
  3  4  1  1
  4  5  1  0
  3  6  1  0
  6  7  1  0
  7  8  1  0
  8  9  1  0
  9 10  2  0
 10 11  1  0
 11 12  2  0
 12 13  1  0
 12 14  1  0
 14 15  2  0
  3 16  1  0
 16 17  1  0
 17 18  2  0
 18 19  1  0
  8  1  1  0
 15  9  1  0
 18  1  1  0
  1 20  1  6
  2 21  1  0
  2 22  1  0
  4 23  1  0
  4 24  1  0
  5 25  1  0
  6 26  1  0
  6 27  1  0
  8 28  1  1
 10 29  1  0
 11 30  1  0
 13 31  1  0
 14 32  1  0
 15 33  1  0
 16 34  1  0
 16 35  1  0
 17 36  1  0
 19 37  1  0
 19 38  1  0
 19 39  1  0
M  END
$$$$
