
     RDKit          3D

 61 62  0  0  0  0  0  0  0  0999 V2000
    8.2823   -0.2500   -1.0814 C   0  0  0  0  0  0  0  0  0  0  0  0
    7.2811    0.7200   -0.8709 O   0  0  0  0  0  0  0  0  0  0  0  0
    6.0191    0.1613   -1.1679 C   0  0  0  0  0  0  0  0  0  0  0  0
    4.9394    1.2170   -0.9408 C   0  0  0  0  0  0  0  0  0  0  0  0
    3.6688    0.7074   -1.3029 O   0  0  0  0  0  0  0  0  0  0  0  0
    2.9928    0.1529   -0.1871 C   0  0  0  0  0  0  0  0  0  0  0  0
    2.0524    1.2013    0.4485 C   0  0  2  0  0  0  0  0  0  0  0  0
    1.5290    0.8038    1.8626 C   0  0  0  0  0  0  0  0  0  0  0  0
    0.3774   -0.2541    1.9806 C   0  0  0  0  0  0  0  0  0  0  0  0
    0.1013   -0.5560    3.4640 C   0  0  0  0  0  0  0  0  0  0  0  0
   -0.4787   -1.9601    3.4966 C   0  0  0  0  0  0  0  0  0  0  0  0
    0.1485   -2.6959    2.3200 C   0  0  0  0  0  0  0  0  0  0  0  0
    0.8017   -1.6336    1.4322 C   0  0  0  0  0  0  0  0  0  0  0  0
   -0.9188    0.2861    1.3691 C   0  0  0  0  0  0  0  0  0  0  0  0
   -1.2745    1.4634    1.6552 O   0  0  0  0  0  0  0  0  0  0  0  0
   -1.7701   -0.5145    0.5298 N   0  0  0  0  0  0  0  0  0  0  0  0
   -2.8708    0.0680   -0.2421 C   0  0  1  0  0  0  0  0  0  0  0  0
   -2.9566   -0.5975   -1.6375 C   0  0  0  0  0  0  0  0  0  0  0  0
   -4.3701   -0.5490   -2.2560 C   0  0  0  0  0  0  0  0  0  0  0  0
   -5.1787    0.6538   -1.7391 C   0  0  2  0  0  0  0  0  0  0  0  0
   -5.3690    0.5847   -0.2035 C   0  0  0  0  0  0  0  0  0  0  0  0
   -4.1891   -0.0873    0.5303 C   0  0  0  0  0  0  0  0  0  0  0  0
   -6.5062    0.7544   -2.4386 C   0  0  0  0  0  0  0  0  0  0  0  0
   -6.8726    1.9462   -3.0563 O   0  0  0  0  0  0  0  0  0  0  0  0
   -7.2974   -0.2275   -2.4523 O   0  0  0  0  0  0  0  0  0  0  0  0
    0.9630    1.6361   -0.4973 C   0  0  0  0  0  0  0  0  0  0  0  0
    0.4663    2.9336   -0.4199 O   0  0  0  0  0  0  0  0  0  0  0  0
    0.4727    0.8295   -1.3337 O   0  0  0  0  0  0  0  0  0  0  0  0
    8.1445   -1.1247   -0.4074 H   0  0  0  0  0  0  0  0  0  0  0  0
    9.2675    0.2023   -0.8459 H   0  0  0  0  0  0  0  0  0  0  0  0
    8.3088   -0.5783   -2.1444 H   0  0  0  0  0  0  0  0  0  0  0  0
    5.8110   -0.7108   -0.5073 H   0  0  0  0  0  0  0  0  0  0  0  0
    5.9729   -0.1630   -2.2331 H   0  0  0  0  0  0  0  0  0  0  0  0
    4.9827    1.5967    0.1072 H   0  0  0  0  0  0  0  0  0  0  0  0
    5.1569    2.0860   -1.5976 H   0  0  0  0  0  0  0  0  0  0  0  0
    2.4034   -0.7071   -0.5598 H   0  0  0  0  0  0  0  0  0  0  0  0
    3.6901   -0.2646    0.5769 H   0  0  0  0  0  0  0  0  0  0  0  0
    2.6809    2.1031    0.6192 H   0  0  0  0  0  0  0  0  0  0  0  0
    1.1943    1.7362    2.3699 H   0  0  0  0  0  0  0  0  0  0  0  0
    2.4036    0.4578    2.4571 H   0  0  0  0  0  0  0  0  0  0  0  0
   -0.5899    0.1765    3.9373 H   0  0  0  0  0  0  0  0  0  0  0  0
    1.0480   -0.5592    4.0500 H   0  0  0  0  0  0  0  0  0  0  0  0
   -0.2523   -2.4659    4.4604 H   0  0  0  0  0  0  0  0  0  0  0  0
   -1.5821   -1.9094    3.3637 H   0  0  0  0  0  0  0  0  0  0  0  0
   -0.6235   -3.2662    1.7600 H   0  0  0  0  0  0  0  0  0  0  0  0
    0.9150   -3.4151    2.6847 H   0  0  0  0  0  0  0  0  0  0  0  0
    0.5372   -1.7739    0.3628 H   0  0  0  0  0  0  0  0  0  0  0  0
    1.9023   -1.7603    1.5262 H   0  0  0  0  0  0  0  0  0  0  0  0
   -1.7259   -1.5541    0.5928 H   0  0  0  0  0  0  0  0  0  0  0  0
   -2.6833    1.1551   -0.3967 H   0  0  0  0  0  0  0  0  0  0  0  0
   -2.2415   -0.0835   -2.3167 H   0  0  0  0  0  0  0  0  0  0  0  0
   -2.6417   -1.6626   -1.5811 H   0  0  0  0  0  0  0  0  0  0  0  0
   -4.9094   -1.4890   -2.0022 H   0  0  0  0  0  0  0  0  0  0  0  0
   -4.2812   -0.5007   -3.3637 H   0  0  0  0  0  0  0  0  0  0  0  0
   -4.6001    1.5747   -1.9781 H   0  0  0  0  0  0  0  0  0  0  0  0
   -5.4972    1.6198    0.1827 H   0  0  0  0  0  0  0  0  0  0  0  0
   -6.2952    0.0237    0.0527 H   0  0  0  0  0  0  0  0  0  0  0  0
   -4.4057   -1.1710    0.6610 H   0  0  0  0  0  0  0  0  0  0  0  0
   -4.0866    0.3579    1.5441 H   0  0  0  0  0  0  0  0  0  0  0  0
   -7.7659    2.0349   -3.5257 H   0  0  0  0  0  0  0  0  0  0  0  0
   -0.2809    3.2405   -1.0311 H   0  0  0  0  0  0  0  0  0  0  0  0
  1  2  1  0
  2  3  1  0
  3  4  1  0
  4  5  1  0
  5  6  1  0
  6  7  1  0
  7  8  1  0
  8  9  1  0
  9 10  1  0
 10 11  1  0
 11 12  1  0
 12 13  1  0
  9 14  1  0
 14 15  2  0
 14 16  1  0
 16 17  1  0
 17 18  1  0
 18 19  1  0
 19 20  1  0
 20 21  1  0
 21 22  1  0
 20 23  1  0
 23 24  1  0
 23 25  2  0
  7 26  1  0
 26 27  1  0
 26 28  2  0
 13  9  1  0
 22 17  1  0
  1 29  1  0
  1 30  1  0
  1 31  1  0
  3 32  1  0
  3 33  1  0
  4 34  1  0
  4 35  1  0
  6 36  1  0
  6 37  1  0
  7 38  1  1
  8 39  1  0
  8 40  1  0
 10 41  1  0
 10 42  1  0
 11 43  1  0
 11 44  1  0
 12 45  1  0
 12 46  1  0
 13 47  1  0
 13 48  1  0
 16 49  1  0
 17 50  1  6
 18 51  1  0
 18 52  1  0
 19 53  1  0
 19 54  1  0
 20 55  1  1
 21 56  1  0
 21 57  1  0
 22 58  1  0
 22 59  1  0
 24 60  1  0
 27 61  1  0
M  END
$$$$
