
     RDKit          3D

 42 45  0  0  0  0  0  0  0  0999 V2000
    1.1365    1.7086    0.3245 C   0  0  1  0  0  0  0  0  0  0  0  0
    1.4678    2.9164   -0.5772 C   0  0  0  0  0  0  0  0  0  0  0  0
    0.1923    3.6221   -1.0384 C   0  0  1  0  0  0  0  0  0  0  0  0
    0.5300    4.7163   -1.8486 O   0  0  0  0  0  0  0  0  0  0  0  0
   -0.6375    2.6379   -1.8148 C   0  0  0  0  0  0  0  0  0  0  0  0
   -0.7657    1.3755   -1.3846 C   0  0  0  0  0  0  0  0  0  0  0  0
   -0.1900    0.9220   -0.0471 C   0  0  2  0  0  0  0  0  0  0  0  0
   -1.2361    1.0615    1.0885 C   0  0  0  0  0  0  0  0  0  0  0  0
   -2.5814    0.3575    0.8341 C   0  0  0  0  0  0  0  0  0  0  0  0
   -2.4613   -1.1154    0.9331 N   0  0  0  0  0  0  0  0  0  0  0  0
   -3.7813   -1.7009    1.2274 C   0  0  0  0  0  0  0  0  0  0  0  0
   -1.9139   -1.7047   -0.3100 C   0  0  0  0  0  0  0  0  0  0  0  0
   -0.4080   -1.6889   -0.2773 C   0  0  0  0  0  0  0  0  0  0  0  0
    0.3151   -0.4911   -0.1411 C   0  0  0  0  0  0  0  0  0  0  0  0
    1.6787   -0.5073    0.0059 C   0  0  0  0  0  0  0  0  0  0  0  0
    2.1868    0.7501    0.2401 O   0  0  0  0  0  0  0  0  0  0  0  0
    2.4217   -1.6852   -0.0493 C   0  0  0  0  0  0  0  0  0  0  0  0
    3.8154   -1.6216    0.0898 O   0  0  0  0  0  0  0  0  0  0  0  0
    4.6750   -2.7557    0.0538 C   0  0  0  0  0  0  0  0  0  0  0  0
    1.7226   -2.8955   -0.2355 C   0  0  0  0  0  0  0  0  0  0  0  0
    0.3204   -2.8963   -0.3362 C   0  0  0  0  0  0  0  0  0  0  0  0
    1.0892    2.0690    1.3768 H   0  0  0  0  0  0  0  0  0  0  0  0
    2.1120    3.6303   -0.0190 H   0  0  0  0  0  0  0  0  0  0  0  0
    2.0385    2.5739   -1.4699 H   0  0  0  0  0  0  0  0  0  0  0  0
   -0.3758    3.9690   -0.1440 H   0  0  0  0  0  0  0  0  0  0  0  0
   -0.2820    5.2843   -1.9134 H   0  0  0  0  0  0  0  0  0  0  0  0
   -1.0598    2.9207   -2.7748 H   0  0  0  0  0  0  0  0  0  0  0  0
   -1.3171    0.6797   -2.0059 H   0  0  0  0  0  0  0  0  0  0  0  0
   -1.4440    2.1434    1.2411 H   0  0  0  0  0  0  0  0  0  0  0  0
   -0.8105    0.6786    2.0431 H   0  0  0  0  0  0  0  0  0  0  0  0
   -3.0304    0.6724   -0.1337 H   0  0  0  0  0  0  0  0  0  0  0  0
   -3.2711    0.7355    1.6228 H   0  0  0  0  0  0  0  0  0  0  0  0
   -3.6942   -2.8006    1.3626 H   0  0  0  0  0  0  0  0  0  0  0  0
   -4.1800   -1.2977    2.1833 H   0  0  0  0  0  0  0  0  0  0  0  0
   -4.5049   -1.4876    0.4089 H   0  0  0  0  0  0  0  0  0  0  0  0
   -2.2902   -1.1871   -1.2166 H   0  0  0  0  0  0  0  0  0  0  0  0
   -2.2501   -2.7605   -0.4252 H   0  0  0  0  0  0  0  0  0  0  0  0
    5.7239   -2.4202    0.1871 H   0  0  0  0  0  0  0  0  0  0  0  0
    4.4179   -3.4558    0.8765 H   0  0  0  0  0  0  0  0  0  0  0  0
    4.5875   -3.2698   -0.9267 H   0  0  0  0  0  0  0  0  0  0  0  0
    2.2476   -3.8397   -0.2838 H   0  0  0  0  0  0  0  0  0  0  0  0
   -0.1935   -3.8429   -0.4484 H   0  0  0  0  0  0  0  0  0  0  0  0
  1  2  1  0
  2  3  1  0
  3  4  1  0
  3  5  1  0
  5  6  2  0
  6  7  1  0
  7  8  1  1
  8  9  1  0
  9 10  1  0
 10 11  1  0
 10 12  1  0
 12 13  1  0
 13 14  1  0
 14 15  2  0
 15 16  1  0
 15 17  1  0
 17 18  1  0
 18 19  1  0
 17 20  2  0
 20 21  1  0
  7  1  1  0
 14  7  1  0
 16  1  1  0
 21 13  2  0
  1 22  1  1
  2 23  1  0
  2 24  1  0
  3 25  1  1
  4 26  1  0
  5 27  1  0
  6 28  1  0
  8 29  1  0
  8 30  1  0
  9 31  1  0
  9 32  1  0
 11 33  1  0
 11 34  1  0
 11 35  1  0
 12 36  1  0
 12 37  1  0
 19 38  1  0
 19 39  1  0
 19 40  1  0
 20 41  1  0
 21 42  1  0
M  END
$$$$
