
     RDKit          3D

 52 54  0  0  0  0  0  0  0  0999 V2000
   -1.0226    2.7202    1.1537 C   0  0  1  0  0  0  0  0  0  0  0  0
   -0.4390    3.8878    0.3558 C   0  0  0  0  0  0  0  0  0  0  0  0
   -1.9520    1.9451    0.3179 C   0  0  0  0  0  0  0  0  0  0  0  0
   -2.6850    1.2847   -0.3738 C   0  0  0  0  0  0  0  0  0  0  0  0
   -3.5336    0.4677   -1.2091 C   0  0  0  0  0  0  0  0  0  0  0  0
   -3.0257   -0.6917   -1.8277 C   0  0  0  0  0  0  0  0  0  0  0  0
   -1.5958   -1.1175   -1.6518 C   0  0  0  0  0  0  0  0  0  0  0  0
   -3.8429   -1.4445   -2.6108 N   0  0  0  0  0  0  0  0  0  0  0  0
   -5.1422   -1.1053   -2.8092 C   0  0  0  0  0  0  0  0  0  0  0  0
   -5.9732   -1.9169   -3.6356 N   0  0  0  0  0  0  0  0  0  0  0  0
   -5.6495    0.0077   -2.2203 N   0  0  0  0  0  0  0  0  0  0  0  0
   -4.8838    0.8028   -1.4274 C   0  0  0  0  0  0  0  0  0  0  0  0
   -5.4749    1.9642   -0.8343 N   0  0  0  0  0  0  0  0  0  0  0  0
    0.0797    1.8241    1.6799 C   0  0  0  0  0  0  0  0  0  0  0  0
    0.3887    1.8202    3.0488 C   0  0  0  0  0  0  0  0  0  0  0  0
    1.4025    0.9997    3.5536 C   0  0  0  0  0  0  0  0  0  0  0  0
    1.6627    1.0387    4.9318 O   0  0  0  0  0  0  0  0  0  0  0  0
    2.6590    0.2597    5.5860 C   0  0  0  0  0  0  0  0  0  0  0  0
    2.1222    0.1701    2.6736 C   0  0  0  0  0  0  0  0  0  0  0  0
    1.8361    0.1665    1.2975 C   0  0  0  0  0  0  0  0  0  0  0  0
    0.8212    1.0050    0.8090 C   0  0  0  0  0  0  0  0  0  0  0  0
    2.5877   -0.7190    0.3717 C   0  0  0  0  0  0  0  0  0  0  0  0
    2.9908   -0.2546   -0.8936 C   0  0  0  0  0  0  0  0  0  0  0  0
    3.6884   -1.0927   -1.7680 C   0  0  0  0  0  0  0  0  0  0  0  0
    4.0059   -2.4047   -1.3892 C   0  0  0  0  0  0  0  0  0  0  0  0
    4.7181   -3.3160   -2.3443 C   0  0  0  0  0  0  0  0  0  0  0  0
    3.5909   -2.8786   -0.1366 C   0  0  0  0  0  0  0  0  0  0  0  0
    2.8937   -2.0417    0.7394 C   0  0  0  0  0  0  0  0  0  0  0  0
   -1.6114    3.1401    1.9984 H   0  0  0  0  0  0  0  0  0  0  0  0
    0.1191    3.5230   -0.5338 H   0  0  0  0  0  0  0  0  0  0  0  0
    0.2529    4.4760    0.9959 H   0  0  0  0  0  0  0  0  0  0  0  0
   -1.2536    4.5620    0.0139 H   0  0  0  0  0  0  0  0  0  0  0  0
   -1.4013   -2.0687   -2.1912 H   0  0  0  0  0  0  0  0  0  0  0  0
   -0.9179   -0.3368   -2.0567 H   0  0  0  0  0  0  0  0  0  0  0  0
   -1.3756   -1.2724   -0.5743 H   0  0  0  0  0  0  0  0  0  0  0  0
   -6.9734   -1.6616   -3.7926 H   0  0  0  0  0  0  0  0  0  0  0  0
   -5.5892   -2.7741   -4.0917 H   0  0  0  0  0  0  0  0  0  0  0  0
   -6.4791    2.1862   -1.0150 H   0  0  0  0  0  0  0  0  0  0  0  0
   -4.9333    2.6096   -0.2182 H   0  0  0  0  0  0  0  0  0  0  0  0
   -0.1614    2.4558    3.7321 H   0  0  0  0  0  0  0  0  0  0  0  0
    3.6640    0.5106    5.1855 H   0  0  0  0  0  0  0  0  0  0  0  0
    2.6426    0.4877    6.6714 H   0  0  0  0  0  0  0  0  0  0  0  0
    2.4504   -0.8222    5.4468 H   0  0  0  0  0  0  0  0  0  0  0  0
    2.9164   -0.4598    3.0506 H   0  0  0  0  0  0  0  0  0  0  0  0
    0.5845    1.0021   -0.2480 H   0  0  0  0  0  0  0  0  0  0  0  0
    2.7776    0.7611   -1.2025 H   0  0  0  0  0  0  0  0  0  0  0  0
    3.9837   -0.7166   -2.7398 H   0  0  0  0  0  0  0  0  0  0  0  0
    3.9730   -3.8474   -2.9723 H   0  0  0  0  0  0  0  0  0  0  0  0
    5.3265   -4.0640   -1.7924 H   0  0  0  0  0  0  0  0  0  0  0  0
    5.4006   -2.7374   -3.0027 H   0  0  0  0  0  0  0  0  0  0  0  0
    3.8037   -3.8980    0.1613 H   0  0  0  0  0  0  0  0  0  0  0  0
    2.5738   -2.4364    1.6956 H   0  0  0  0  0  0  0  0  0  0  0  0
  1  2  1  0
  1  3  1  0
  3  4  3  0
  4  5  1  0
  5  6  2  0
  6  7  1  0
  6  8  1  0
  8  9  2  0
  9 10  1  0
  9 11  1  0
 11 12  2  0
 12 13  1  0
  1 14  1  0
 14 15  2  0
 15 16  1  0
 16 17  1  0
 17 18  1  0
 16 19  2  0
 19 20  1  0
 20 21  2  0
 20 22  1  0
 22 23  2  0
 23 24  1  0
 24 25  2  0
 25 26  1  0
 25 27  1  0
 27 28  2  0
 12  5  1  0
 21 14  1  0
 28 22  1  0
  1 29  1  1
  2 30  1  0
  2 31  1  0
  2 32  1  0
  7 33  1  0
  7 34  1  0
  7 35  1  0
 10 36  1  0
 10 37  1  0
 13 38  1  0
 13 39  1  0
 15 40  1  0
 18 41  1  0
 18 42  1  0
 18 43  1  0
 19 44  1  0
 21 45  1  0
 23 46  1  0
 24 47  1  0
 26 48  1  0
 26 49  1  0
 26 50  1  0
 27 51  1  0
 28 52  1  0
M  END
$$$$
