
     RDKit          3D

 29 31  0  0  0  0  0  0  0  0999 V2000
   -4.5136    1.8406    0.7619 O   0  0  0  0  0  0  0  0  0  0  0  0
   -3.3002    1.1825    0.5687 C   0  0  0  0  0  0  0  0  0  0  0  0
   -2.0908    1.8654    0.7415 C   0  0  0  0  0  0  0  0  0  0  0  0
   -0.8739    1.2103    0.5449 C   0  0  0  0  0  0  0  0  0  0  0  0
   -0.8484   -0.1442    0.1594 C   0  0  0  0  0  0  0  0  0  0  0  0
   -2.0746   -0.8395    0.0071 C   0  0  0  0  0  0  0  0  0  0  0  0
   -2.0764   -2.1298   -0.3173 O   0  0  0  0  0  0  0  0  0  0  0  0
   -0.9629   -2.8268   -0.5082 C   0  0  0  0  0  0  0  0  0  0  0  0
   -1.0367   -4.0468   -0.8093 O   0  0  0  0  0  0  0  0  0  0  0  0
    0.2848   -2.2154   -0.3809 C   0  0  0  0  0  0  0  0  0  0  0  0
    0.3554   -0.8551   -0.0568 C   0  0  0  0  0  0  0  0  0  0  0  0
    1.6887   -0.2165    0.0266 C   0  0  0  0  0  0  0  0  0  0  0  0
    2.0344    0.8264   -0.8495 C   0  0  0  0  0  0  0  0  0  0  0  0
    3.3026    1.4115   -0.7815 C   0  0  0  0  0  0  0  0  0  0  0  0
    4.2360    0.9537    0.1526 C   0  0  0  0  0  0  0  0  0  0  0  0
    3.9040   -0.0926    1.0179 C   0  0  0  0  0  0  0  0  0  0  0  0
    2.6367   -0.6802    0.9535 C   0  0  0  0  0  0  0  0  0  0  0  0
   -3.2956   -0.1695    0.2050 C   0  0  0  0  0  0  0  0  0  0  0  0
   -4.5126   -0.8343    0.0474 O   0  0  0  0  0  0  0  0  0  0  0  0
   -4.5506    2.8180    1.0269 H   0  0  0  0  0  0  0  0  0  0  0  0
   -2.0929    2.9079    1.0337 H   0  0  0  0  0  0  0  0  0  0  0  0
    0.0379    1.7682    0.7090 H   0  0  0  0  0  0  0  0  0  0  0  0
    1.1886   -2.7895   -0.5510 H   0  0  0  0  0  0  0  0  0  0  0  0
    1.3231    1.1826   -1.5847 H   0  0  0  0  0  0  0  0  0  0  0  0
    3.5628    2.2174   -1.4554 H   0  0  0  0  0  0  0  0  0  0  0  0
    5.2175    1.4070    0.2033 H   0  0  0  0  0  0  0  0  0  0  0  0
    4.6293   -0.4492    1.7379 H   0  0  0  0  0  0  0  0  0  0  0  0
    2.3915   -1.4906    1.6290 H   0  0  0  0  0  0  0  0  0  0  0  0
   -4.5640   -1.8115   -0.2146 H   0  0  0  0  0  0  0  0  0  0  0  0
  1  2  1  0
  2  3  2  0
  3  4  1  0
  4  5  2  0
  5  6  1  0
  6  7  1  0
  7  8  1  0
  8  9  2  0
  8 10  1  0
 10 11  2  0
 11 12  1  0
 12 13  2  0
 13 14  1  0
 14 15  2  0
 15 16  1  0
 16 17  2  0
  6 18  2  0
 18 19  1  0
 18  2  1  0
 11  5  1  0
 17 12  1  0
  1 20  1  0
  3 21  1  0
  4 22  1  0
 10 23  1  0
 13 24  1  0
 14 25  1  0
 15 26  1  0
 16 27  1  0
 17 28  1  0
 19 29  1  0
M  END
$$$$
