
     RDKit          3D

 30 31  0  0  0  0  0  0  0  0999 V2000
    4.7212   -0.5089    1.9453 N   0  0  0  0  0  0  0  0  0  0  0  0
    3.5032   -0.4115    1.2069 C   0  0  0  0  0  0  0  0  0  0  0  0
    3.3202   -1.1756    0.1012 N   0  0  0  0  0  0  0  0  0  0  0  0
    2.1747   -1.1094   -0.6267 C   0  0  0  0  0  0  0  0  0  0  0  0
    2.0507   -1.8538   -1.6367 O   0  0  0  0  0  0  0  0  0  0  0  0
    1.1700   -0.2472   -0.2610 N   0  0  0  0  0  0  0  0  0  0  0  0
    1.3211    0.5180    0.8655 C   0  0  0  0  0  0  0  0  0  0  0  0
    2.4929    0.4557    1.6162 C   0  0  0  0  0  0  0  0  0  0  0  0
   -0.0902   -0.1933   -1.0339 C   0  0  2  0  0  0  0  0  0  0  0  0
   -0.6829    1.0860   -0.9548 O   0  0  0  0  0  0  0  0  0  0  0  0
   -2.0851    0.9168   -0.8976 C   0  0  2  0  0  0  0  0  0  0  0  0
   -2.6261    1.6273    0.3519 C   0  0  0  0  0  0  0  0  0  0  0  0
   -2.2828    2.9866    0.3309 O   0  0  0  0  0  0  0  0  0  0  0  0
   -2.4181   -0.5840   -0.8821 C   0  0  1  0  0  0  0  0  0  0  0  0
   -2.9044   -1.0149   -2.1322 O   0  0  0  0  0  0  0  0  0  0  0  0
   -1.0949   -1.2377   -0.5550 C   0  0  2  0  0  0  0  0  0  0  0  0
   -0.9844   -1.4382    0.8319 O   0  0  0  0  0  0  0  0  0  0  0  0
    5.4731   -1.1636    1.6351 H   0  0  0  0  0  0  0  0  0  0  0  0
    4.8785    0.0692    2.8009 H   0  0  0  0  0  0  0  0  0  0  0  0
    0.5313    1.1797    1.1992 H   0  0  0  0  0  0  0  0  0  0  0  0
    2.6074    1.0676    2.5021 H   0  0  0  0  0  0  0  0  0  0  0  0
    0.1267   -0.3766   -2.1112 H   0  0  0  0  0  0  0  0  0  0  0  0
   -2.5395    1.3983   -1.7920 H   0  0  0  0  0  0  0  0  0  0  0  0
   -2.1866    1.1670    1.2627 H   0  0  0  0  0  0  0  0  0  0  0  0
   -3.7329    1.5135    0.4108 H   0  0  0  0  0  0  0  0  0  0  0  0
   -2.8866    3.4220   -0.3259 H   0  0  0  0  0  0  0  0  0  0  0  0
   -3.1848   -0.8365   -0.1156 H   0  0  0  0  0  0  0  0  0  0  0  0
   -2.2286   -0.7899   -2.8247 H   0  0  0  0  0  0  0  0  0  0  0  0
   -0.9514   -2.2007   -1.0999 H   0  0  0  0  0  0  0  0  0  0  0  0
   -1.4916   -2.2659    1.0397 H   0  0  0  0  0  0  0  0  0  0  0  0
  1  2  1  0
  2  3  2  0
  3  4  1  0
  4  5  2  0
  4  6  1  0
  6  7  1  0
  7  8  2  0
  6  9  1  0
  9 10  1  0
 10 11  1  0
 11 12  1  0
 12 13  1  0
 11 14  1  0
 14 15  1  0
 14 16  1  0
 16 17  1  0
  8  2  1  0
 16  9  1  0
  1 18  1  0
  1 19  1  0
  7 20  1  0
  8 21  1  0
  9 22  1  6
 11 23  1  6
 12 24  1  0
 12 25  1  0
 13 26  1  0
 14 27  1  1
 15 28  1  0
 16 29  1  6
 17 30  1  0
M  END
$$$$
