
     RDKit          3D

 75 77  0  0  0  0  0  0  0  0999 V2000
   -8.4426   -0.3121    1.0018 C   0  0  0  0  0  0  0  0  0  0  0  0
   -6.9454   -0.0895    0.7635 C   0  0  0  0  0  0  0  0  0  0  0  0
   -6.5928    0.4320   -0.6566 C   0  0  0  0  0  0  0  0  0  0  0  0
   -7.3069    1.6276   -0.8854 O   0  0  0  0  0  0  0  0  0  0  0  0
   -6.9792   -0.6290   -1.7289 C   0  0  0  0  0  0  0  0  0  0  0  0
   -6.6683   -0.2095   -3.1705 C   0  0  0  0  0  0  0  0  0  0  0  0
   -5.0893    0.6887   -0.6880 C   0  0  0  0  0  0  0  0  0  0  0  0
   -4.5296    1.7281   -0.0463 C   0  0  0  0  0  0  0  0  0  0  0  0
   -3.0418    1.9539   -0.0628 C   0  0  0  0  0  0  0  0  0  0  0  0
   -2.2854    0.8927    0.7626 C   0  0  2  0  0  0  0  0  0  0  0  0
   -2.6155    0.9901    2.2597 C   0  0  0  0  0  0  0  0  0  0  0  0
   -0.7938    1.0188    0.5308 C   0  0  0  0  0  0  0  0  0  0  0  0
   -0.0477    2.0625    0.9210 C   0  0  0  0  0  0  0  0  0  0  0  0
    1.3998    1.8631    0.5913 C   0  0  0  0  0  0  0  0  0  0  0  0
    1.3019    0.7593   -0.4637 C   0  0  1  0  0  0  0  0  0  0  0  0
    2.4474   -0.1623   -0.7891 C   0  0  0  0  0  0  0  0  0  0  0  0
    2.0959   -1.3360   -1.6964 C   0  0  0  0  0  0  0  0  0  0  0  0
    0.6495   -1.2661   -2.2699 C   0  0  0  0  0  0  0  0  0  0  0  0
   -0.4681   -0.8213   -1.2747 C   0  0  0  0  0  0  0  0  0  0  0  0
    0.0799   -0.0681   -0.0352 C   0  0  2  0  0  0  0  0  0  0  0  0
    0.3786   -1.0708    1.1151 C   0  0  0  0  0  0  0  0  0  0  0  0
    3.6808    0.0284   -0.2862 C   0  0  0  0  0  0  0  0  0  0  0  0
    4.8157   -0.8890   -0.5391 C   0  0  0  0  0  0  0  0  0  0  0  0
    5.9478   -0.9128    0.1960 C   0  0  0  0  0  0  0  0  0  0  0  0
    7.1271   -1.6914   -0.3523 C   0  0  0  0  0  0  0  0  0  0  0  0
    8.4402   -1.4148    0.4094 C   0  0  1  0  0  0  0  0  0  0  0  0
    9.5511   -1.8134   -0.3542 O   0  0  0  0  0  0  0  0  0  0  0  0
    8.5449    0.0707    0.7992 C   0  0  0  0  0  0  0  0  0  0  0  0
    7.4616    0.4358    1.8258 C   0  0  2  0  0  0  0  0  0  0  0  0
    7.8688   -0.0030    3.0765 F   0  0  0  0  0  0  0  0  0  0  0  0
    6.1164   -0.1731    1.4856 C   0  0  0  0  0  0  0  0  0  0  0  0
    5.1443   -0.1475    2.4075 C   0  0  0  0  0  0  0  0  0  0  0  0
   -9.0286    0.5879    0.7209 H   0  0  0  0  0  0  0  0  0  0  0  0
   -8.6149   -0.5162    2.0797 H   0  0  0  0  0  0  0  0  0  0  0  0
   -8.8092   -1.1903    0.4321 H   0  0  0  0  0  0  0  0  0  0  0  0
   -6.5970    0.6460    1.5219 H   0  0  0  0  0  0  0  0  0  0  0  0
   -6.4075   -1.0431    0.9616 H   0  0  0  0  0  0  0  0  0  0  0  0
   -6.9086    2.0879   -1.6697 H   0  0  0  0  0  0  0  0  0  0  0  0
   -8.0689   -0.8343   -1.6830 H   0  0  0  0  0  0  0  0  0  0  0  0
   -6.4492   -1.5837   -1.5164 H   0  0  0  0  0  0  0  0  0  0  0  0
   -7.2881    0.6618   -3.4678 H   0  0  0  0  0  0  0  0  0  0  0  0
   -6.9106   -1.0492   -3.8555 H   0  0  0  0  0  0  0  0  0  0  0  0
   -5.5952    0.0400   -3.2990 H   0  0  0  0  0  0  0  0  0  0  0  0
   -4.4449   -0.0004   -1.2283 H   0  0  0  0  0  0  0  0  0  0  0  0
   -5.1545    2.4377    0.4887 H   0  0  0  0  0  0  0  0  0  0  0  0
   -2.6896    1.9368   -1.1181 H   0  0  0  0  0  0  0  0  0  0  0  0
   -2.8281    2.9668    0.3426 H   0  0  0  0  0  0  0  0  0  0  0  0
   -2.6003   -0.1166    0.4195 H   0  0  0  0  0  0  0  0  0  0  0  0
   -2.0172    0.2494    2.8319 H   0  0  0  0  0  0  0  0  0  0  0  0
   -3.6900    0.7677    2.4313 H   0  0  0  0  0  0  0  0  0  0  0  0
   -2.3968    2.0065    2.6506 H   0  0  0  0  0  0  0  0  0  0  0  0
   -0.4393    2.9373    1.4296 H   0  0  0  0  0  0  0  0  0  0  0  0
    1.9458    1.5309    1.4999 H   0  0  0  0  0  0  0  0  0  0  0  0
    1.8492    2.7897    0.1745 H   0  0  0  0  0  0  0  0  0  0  0  0
    1.0629    1.2902   -1.4178 H   0  0  0  0  0  0  0  0  0  0  0  0
    2.7926   -1.3530   -2.5615 H   0  0  0  0  0  0  0  0  0  0  0  0
    2.2271   -2.2876   -1.1395 H   0  0  0  0  0  0  0  0  0  0  0  0
    0.6601   -0.5455   -3.1175 H   0  0  0  0  0  0  0  0  0  0  0  0
    0.3837   -2.2546   -2.7026 H   0  0  0  0  0  0  0  0  0  0  0  0
   -1.1781   -0.1646   -1.8246 H   0  0  0  0  0  0  0  0  0  0  0  0
   -1.0530   -1.7117   -0.9551 H   0  0  0  0  0  0  0  0  0  0  0  0
    1.0262   -1.9056    0.7841 H   0  0  0  0  0  0  0  0  0  0  0  0
   -0.5686   -1.5180    1.4857 H   0  0  0  0  0  0  0  0  0  0  0  0
    0.8768   -0.5703    1.9723 H   0  0  0  0  0  0  0  0  0  0  0  0
    3.8656    0.8995    0.3260 H   0  0  0  0  0  0  0  0  0  0  0  0
    4.7721   -1.5198   -1.4181 H   0  0  0  0  0  0  0  0  0  0  0  0
    6.9020   -2.7791   -0.3092 H   0  0  0  0  0  0  0  0  0  0  0  0
    7.2650   -1.4152   -1.4217 H   0  0  0  0  0  0  0  0  0  0  0  0
    8.4400   -2.0233    1.3410 H   0  0  0  0  0  0  0  0  0  0  0  0
    9.5963   -1.2240   -1.1524 H   0  0  0  0  0  0  0  0  0  0  0  0
    9.5479    0.2775    1.2320 H   0  0  0  0  0  0  0  0  0  0  0  0
    8.4281    0.7064   -0.1067 H   0  0  0  0  0  0  0  0  0  0  0  0
    7.3593    1.5418    1.8627 H   0  0  0  0  0  0  0  0  0  0  0  0
    4.2040   -0.6609    2.2536 H   0  0  0  0  0  0  0  0  0  0  0  0
    5.2875    0.3634    3.3516 H   0  0  0  0  0  0  0  0  0  0  0  0
  1  2  1  0
  2  3  1  0
  3  4  1  0
  3  5  1  0
  5  6  1  0
  3  7  1  0
  7  8  2  0
  8  9  1  0
  9 10  1  0
 10 11  1  0
 10 12  1  0
 12 13  2  0
 13 14  1  0
 14 15  1  0
 15 16  1  0
 16 17  1  0
 17 18  1  0
 18 19  1  0
 19 20  1  0
 20 21  1  1
 16 22  2  0
 22 23  1  0
 23 24  2  0
 24 25  1  0
 25 26  1  0
 26 27  1  0
 26 28  1  0
 28 29  1  0
 29 30  1  0
 29 31  1  0
 31 32  2  3
 20 12  1  0
 31 24  1  0
 20 15  1  0
  1 33  1  0
  1 34  1  0
  1 35  1  0
  2 36  1  0
  2 37  1  0
  4 38  1  0
  5 39  1  0
  5 40  1  0
  6 41  1  0
  6 42  1  0
  6 43  1  0
  7 44  1  0
  8 45  1  0
  9 46  1  0
  9 47  1  0
 10 48  1  6
 11 49  1  0
 11 50  1  0
 11 51  1  0
 13 52  1  0
 14 53  1  0
 14 54  1  0
 15 55  1  6
 17 56  1  0
 17 57  1  0
 18 58  1  0
 18 59  1  0
 19 60  1  0
 19 61  1  0
 21 62  1  0
 21 63  1  0
 21 64  1  0
 22 65  1  0
 23 66  1  0
 25 67  1  0
 25 68  1  0
 26 69  1  1
 27 70  1  0
 28 71  1  0
 28 72  1  0
 29 73  1  1
 32 74  1  0
 32 75  1  0
M  END
$$$$
