
     RDKit          3D

 49 52  0  0  0  0  0  0  0  0999 V2000
    7.8031    2.3711    1.1567 N   0  0  0  0  0  0  0  0  0  0  0  0
    6.7197    1.7036    1.8098 C   0  0  0  0  0  0  0  0  0  0  0  0
    6.8920    1.2659    2.9794 O   0  0  0  0  0  0  0  0  0  0  0  0
    5.4129    1.5033    1.1364 C   0  0  0  0  0  0  0  0  0  0  0  0
    5.0025    2.3346    0.0785 C   0  0  0  0  0  0  0  0  0  0  0  0
    3.7655    2.1351   -0.5415 C   0  0  0  0  0  0  0  0  0  0  0  0
    2.9196    1.0979   -0.1272 C   0  0  0  0  0  0  0  0  0  0  0  0
    1.6432    0.9300   -0.7668 N   0  0  0  0  0  0  0  0  0  0  0  0
    1.0133   -0.3396   -0.9880 C   0  0  0  0  0  0  0  0  0  0  0  0
   -0.3015   -0.3781   -1.3823 N   0  0  0  0  0  0  0  0  0  0  0  0
   -0.9449   -1.5606   -1.6270 C   0  0  0  0  0  0  0  0  0  0  0  0
   -2.2873   -1.6051   -2.0191 O   0  0  0  0  0  0  0  0  0  0  0  0
   -3.1428   -0.4630   -2.0740 C   0  0  0  0  0  0  0  0  0  0  0  0
   -3.9303   -0.3070   -0.7593 C   0  0  0  0  0  0  0  0  0  0  0  0
   -5.0442    0.7460   -0.9096 C   0  0  0  0  0  0  0  0  0  0  0  0
   -5.9434    0.8115    0.3435 C   0  0  0  0  0  0  0  0  0  0  0  0
   -5.2309    0.3688    1.6364 C   0  0  0  0  0  0  0  0  0  0  0  0
   -3.7424    0.7267    1.6076 C   0  0  0  0  0  0  0  0  0  0  0  0
   -3.0041    0.0527    0.4310 C   0  0  0  0  0  0  0  0  0  0  0  0
   -0.2129   -2.7282   -1.4788 C   0  0  0  0  0  0  0  0  0  0  0  0
   -0.5965   -4.0044   -1.6577 N   0  0  0  0  0  0  0  0  0  0  0  0
    0.5406   -4.6966   -1.3680 C   0  0  0  0  0  0  0  0  0  0  0  0
    1.5883   -3.9055   -1.0242 N   0  0  0  0  0  0  0  0  0  0  0  0
    1.0826   -2.6720   -1.1027 C   0  0  0  0  0  0  0  0  0  0  0  0
    1.7220   -1.5048   -0.8554 N   0  0  0  0  0  0  0  0  0  0  0  0
    3.3099    0.2881    0.9522 C   0  0  0  0  0  0  0  0  0  0  0  0
    4.5454    0.4871    1.5748 C   0  0  0  0  0  0  0  0  0  0  0  0
    8.6917    2.5499    1.6752 H   0  0  0  0  0  0  0  0  0  0  0  0
    7.7700    2.6113    0.1422 H   0  0  0  0  0  0  0  0  0  0  0  0
    5.6191    3.1567   -0.2582 H   0  0  0  0  0  0  0  0  0  0  0  0
    3.4664    2.7886   -1.3515 H   0  0  0  0  0  0  0  0  0  0  0  0
    1.1752    1.7761   -1.1638 H   0  0  0  0  0  0  0  0  0  0  0  0
   -3.8619   -0.6281   -2.9045 H   0  0  0  0  0  0  0  0  0  0  0  0
   -2.5720    0.4602   -2.3162 H   0  0  0  0  0  0  0  0  0  0  0  0
   -4.4171   -1.2856   -0.5451 H   0  0  0  0  0  0  0  0  0  0  0  0
   -4.5811    1.7431   -1.0826 H   0  0  0  0  0  0  0  0  0  0  0  0
   -5.6781    0.5134   -1.7933 H   0  0  0  0  0  0  0  0  0  0  0  0
   -6.8345    0.1638    0.1929 H   0  0  0  0  0  0  0  0  0  0  0  0
   -6.3107    1.8540    0.4643 H   0  0  0  0  0  0  0  0  0  0  0  0
   -5.7145    0.8548    2.5112 H   0  0  0  0  0  0  0  0  0  0  0  0
   -5.3363   -0.7313    1.7630 H   0  0  0  0  0  0  0  0  0  0  0  0
   -3.2691    0.4233    2.5665 H   0  0  0  0  0  0  0  0  0  0  0  0
   -3.6440    1.8317    1.5222 H   0  0  0  0  0  0  0  0  0  0  0  0
   -2.2023    0.7464    0.0980 H   0  0  0  0  0  0  0  0  0  0  0  0
   -2.5130   -0.8769    0.7933 H   0  0  0  0  0  0  0  0  0  0  0  0
    0.6015   -5.7761   -1.4085 H   0  0  0  0  0  0  0  0  0  0  0  0
    2.5566   -4.1936   -0.7609 H   0  0  0  0  0  0  0  0  0  0  0  0
    2.6518   -0.4820    1.3321 H   0  0  0  0  0  0  0  0  0  0  0  0
    4.8230   -0.1572    2.3999 H   0  0  0  0  0  0  0  0  0  0  0  0
  1  2  1  0
  2  3  2  0
  2  4  1  0
  4  5  2  0
  5  6  1  0
  6  7  2  0
  7  8  1  0
  8  9  1  0
  9 10  2  0
 10 11  1  0
 11 12  1  0
 12 13  1  0
 13 14  1  0
 14 15  1  0
 15 16  1  0
 16 17  1  0
 17 18  1  0
 18 19  1  0
 11 20  2  0
 20 21  1  0
 21 22  2  0
 22 23  1  0
 23 24  1  0
 24 25  2  0
  7 26  1  0
 26 27  2  0
 27  4  1  0
 25  9  1  0
 19 14  1  0
 24 20  1  0
  1 28  1  0
  1 29  1  0
  5 30  1  0
  6 31  1  0
  8 32  1  0
 13 33  1  0
 13 34  1  0
 14 35  1  0
 15 36  1  0
 15 37  1  0
 16 38  1  0
 16 39  1  0
 17 40  1  0
 17 41  1  0
 18 42  1  0
 18 43  1  0
 19 44  1  0
 19 45  1  0
 22 46  1  0
 23 47  1  0
 26 48  1  0
 27 49  1  0
M  END
$$$$
