
     RDKit          3D

 47 49  0  0  0  0  0  0  0  0999 V2000
    0.2981   -1.6454    0.6700 C   0  0  1  0  0  0  0  0  0  0  0  0
   -0.5464   -0.6778   -0.6258 S   0  0  0  0  0  0  0  0  0  0  0  0
    0.9893   -0.5244   -1.6225 C   0  0  0  0  0  0  0  0  0  0  0  0
    2.1302    0.1848   -0.8988 C   0  0  0  0  0  0  0  0  0  0  0  0
    3.0647    1.0202   -1.7444 C   0  0  0  0  0  0  0  0  0  0  0  0
    4.3797    0.4738   -1.6967 O   0  0  0  0  0  0  0  0  0  0  0  0
    5.4641    1.0577   -2.3568 C   0  0  0  0  0  0  0  0  0  0  0  0
    6.8168    0.4442   -2.2309 C   0  0  0  0  0  0  0  0  0  0  0  0
    5.3190    2.1207   -3.0197 O   0  0  0  0  0  0  0  0  0  0  0  0
    2.3447   -0.0328    0.4285 C   0  0  0  0  0  0  0  0  0  0  0  0
    1.4176   -0.8646    1.1279 N   0  0  0  0  0  0  0  0  0  0  0  0
    0.8872   -0.9649    2.5079 C   0  0  0  0  0  0  0  0  0  0  0  0
    1.2532   -0.5515    3.6390 O   0  0  0  0  0  0  0  0  0  0  0  0
   -0.3017   -1.7133    1.9861 C   0  0  1  0  0  0  0  0  0  0  0  0
   -1.5368   -0.9390    2.1328 N   0  0  0  0  0  0  0  0  0  0  0  0
   -2.8206   -1.5086    1.8434 C   0  0  0  0  0  0  0  0  0  0  0  0
   -2.9155   -2.7280    1.5327 O   0  0  0  0  0  0  0  0  0  0  0  0
   -4.0427   -0.6270    1.8433 C   0  0  2  0  0  0  0  0  0  0  0  0
   -5.2659   -1.4152    2.0224 N   0  0  0  0  0  0  0  0  0  0  0  0
   -4.0977    0.1986    0.5716 C   0  0  0  0  0  0  0  0  0  0  0  0
   -4.0992    1.6033    0.6424 C   0  0  0  0  0  0  0  0  0  0  0  0
   -4.1318    2.3706   -0.5261 C   0  0  0  0  0  0  0  0  0  0  0  0
   -4.1641    1.7456   -1.7748 C   0  0  0  0  0  0  0  0  0  0  0  0
   -4.1655    0.3514   -1.8581 C   0  0  0  0  0  0  0  0  0  0  0  0
   -4.1340   -0.4206   -0.6931 C   0  0  0  0  0  0  0  0  0  0  0  0
    3.4443    0.5820    1.2119 C   0  0  0  0  0  0  0  0  0  0  0  0
    3.8859   -0.0464    2.3721 O   0  0  0  0  0  0  0  0  0  0  0  0
    3.9666    1.6763    0.8704 O   0  0  0  0  0  0  0  0  0  0  0  0
    0.6335   -2.6401    0.3000 H   0  0  0  0  0  0  0  0  0  0  0  0
    0.7195    0.0207   -2.5509 H   0  0  0  0  0  0  0  0  0  0  0  0
    1.3295   -1.5388   -1.9208 H   0  0  0  0  0  0  0  0  0  0  0  0
    3.0634    2.0712   -1.3856 H   0  0  0  0  0  0  0  0  0  0  0  0
    2.7291    1.0395   -2.8036 H   0  0  0  0  0  0  0  0  0  0  0  0
    7.3769    0.5560   -3.1833 H   0  0  0  0  0  0  0  0  0  0  0  0
    7.3759    0.9470   -1.4148 H   0  0  0  0  0  0  0  0  0  0  0  0
    6.7221   -0.6366   -1.9955 H   0  0  0  0  0  0  0  0  0  0  0  0
   -0.3692   -2.7363    2.4168 H   0  0  0  0  0  0  0  0  0  0  0  0
   -1.4846    0.0733    2.3917 H   0  0  0  0  0  0  0  0  0  0  0  0
   -3.9519    0.0480    2.7235 H   0  0  0  0  0  0  0  0  0  0  0  0
   -5.4338   -2.0153    1.1825 H   0  0  0  0  0  0  0  0  0  0  0  0
   -6.0756   -0.7567    2.0970 H   0  0  0  0  0  0  0  0  0  0  0  0
   -4.0705    2.1067    1.6007 H   0  0  0  0  0  0  0  0  0  0  0  0
   -4.1302    3.4511   -0.4631 H   0  0  0  0  0  0  0  0  0  0  0  0
   -4.1873    2.3416   -2.6779 H   0  0  0  0  0  0  0  0  0  0  0  0
   -4.1875   -0.1319   -2.8262 H   0  0  0  0  0  0  0  0  0  0  0  0
   -4.1243   -1.4997   -0.7786 H   0  0  0  0  0  0  0  0  0  0  0  0
    4.6257    0.3578    2.9338 H   0  0  0  0  0  0  0  0  0  0  0  0
  1  2  1  0
  2  3  1  0
  3  4  1  0
  4  5  1  0
  5  6  1  0
  6  7  1  0
  7  8  1  0
  7  9  2  0
  4 10  2  0
 10 11  1  0
 11 12  1  0
 12 13  2  0
 12 14  1  0
 14 15  1  0
 15 16  1  0
 16 17  2  0
 16 18  1  0
 18 19  1  0
 18 20  1  0
 20 21  2  0
 21 22  1  0
 22 23  2  0
 23 24  1  0
 24 25  2  0
 10 26  1  0
 26 27  1  0
 26 28  2  0
 11  1  1  0
 25 20  1  0
 14  1  1  0
  1 29  1  6
  3 30  1  0
  3 31  1  0
  5 32  1  0
  5 33  1  0
  8 34  1  0
  8 35  1  0
  8 36  1  0
 14 37  1  1
 15 38  1  0
 18 39  1  1
 19 40  1  0
 19 41  1  0
 21 42  1  0
 22 43  1  0
 23 44  1  0
 24 45  1  0
 25 46  1  0
 27 47  1  0
M  END
$$$$
