
     RDKit          3D

 31 33  0  0  0  0  0  0  0  0999 V2000
   -2.0547   -2.3211   -0.8975 O   0  0  0  0  0  0  0  0  0  0  0  0
   -1.4111   -2.5184    0.3335 C   0  0  0  0  0  0  0  0  0  0  0  0
   -0.0768   -1.9264    0.3226 N   0  0  0  0  0  0  0  0  0  0  0  0
    0.2109   -0.6769    0.0887 C   0  0  0  0  0  0  0  0  0  0  0  0
    1.6390   -0.2670    0.1421 C   0  0  0  0  0  0  0  0  0  0  0  0
    2.6558   -1.1825   -0.1902 C   0  0  0  0  0  0  0  0  0  0  0  0
    3.9998   -0.8010   -0.1312 C   0  0  0  0  0  0  0  0  0  0  0  0
    4.3445    0.4926    0.2664 C   0  0  0  0  0  0  0  0  0  0  0  0
    3.3461    1.4067    0.6096 C   0  0  0  0  0  0  0  0  0  0  0  0
    2.0007    1.0309    0.5523 C   0  0  0  0  0  0  0  0  0  0  0  0
   -0.8447    0.3212   -0.2582 C   0  0  0  0  0  0  0  0  0  0  0  0
   -2.0715    0.4159    0.4501 C   0  0  0  0  0  0  0  0  0  0  0  0
   -2.4222   -0.4909    1.5086 N   0  0  0  0  0  0  0  0  0  0  0  0
   -2.2130   -1.9065    1.4387 C   0  0  0  0  0  0  0  0  0  0  0  0
   -2.7110   -2.6496    2.3264 O   0  0  0  0  0  0  0  0  0  0  0  0
   -2.9730    1.4443    0.1318 C   0  0  0  0  0  0  0  0  0  0  0  0
   -2.6973    2.3420   -0.8994 C   0  0  0  0  0  0  0  0  0  0  0  0
   -1.5119    2.2293   -1.6244 C   0  0  0  0  0  0  0  0  0  0  0  0
   -1.1702    3.3530   -2.9273 Cl  0  0  0  0  0  0  0  0  0  0  0  0
   -0.5923    1.2277   -1.3063 C   0  0  0  0  0  0  0  0  0  0  0  0
   -1.5398   -2.8388   -1.5701 H   0  0  0  0  0  0  0  0  0  0  0  0
   -1.3080   -3.6111    0.5227 H   0  0  0  0  0  0  0  0  0  0  0  0
    2.4109   -2.1887   -0.5072 H   0  0  0  0  0  0  0  0  0  0  0  0
    4.7746   -1.5094   -0.3947 H   0  0  0  0  0  0  0  0  0  0  0  0
    5.3855    0.7855    0.3120 H   0  0  0  0  0  0  0  0  0  0  0  0
    3.6148    2.4066    0.9249 H   0  0  0  0  0  0  0  0  0  0  0  0
    1.2450    1.7506    0.8410 H   0  0  0  0  0  0  0  0  0  0  0  0
   -3.0428   -0.1378    2.2724 H   0  0  0  0  0  0  0  0  0  0  0  0
   -3.9042    1.5382    0.6767 H   0  0  0  0  0  0  0  0  0  0  0  0
   -3.4096    3.1217   -1.1375 H   0  0  0  0  0  0  0  0  0  0  0  0
    0.3265    1.1598   -1.8764 H   0  0  0  0  0  0  0  0  0  0  0  0
  1  2  1  0
  2  3  1  0
  3  4  2  0
  4  5  1  0
  5  6  2  0
  6  7  1  0
  7  8  2  0
  8  9  1  0
  9 10  2  0
  4 11  1  0
 11 12  2  0
 12 13  1  0
 13 14  1  0
 14 15  2  0
 12 16  1  0
 16 17  2  0
 17 18  1  0
 18 19  1  0
 18 20  2  0
 14  2  1  0
 10  5  1  0
 20 11  1  0
  1 21  1  0
  2 22  1  0
  6 23  1  0
  7 24  1  0
  8 25  1  0
  9 26  1  0
 10 27  1  0
 13 28  1  0
 16 29  1  0
 17 30  1  0
 20 31  1  0
M  END
$$$$
