
     RDKit          3D

 41 41  0  0  0  0  0  0  0  0999 V2000
   -5.6978    0.2168   -0.0303 C   0  0  0  0  0  0  0  0  0  0  0  0
   -4.6988   -0.6749    0.7077 C   0  0  0  0  0  0  0  0  0  0  0  0
   -5.3744   -1.3462    1.9152 C   0  0  0  0  0  0  0  0  0  0  0  0
   -3.5408    0.1412    1.1187 N   0  0  0  0  0  0  0  0  0  0  0  0
   -2.3110   -0.6504    1.3005 C   0  0  0  0  0  0  0  0  0  0  0  0
   -1.3713   -0.4887    0.0928 C   0  0  1  0  0  0  0  0  0  0  0  0
   -2.0048   -0.9204   -1.0834 O   0  0  0  0  0  0  0  0  0  0  0  0
   -0.9274    0.9726   -0.0781 C   0  0  0  0  0  0  0  0  0  0  0  0
    0.0075    1.0960   -1.1507 O   0  0  0  0  0  0  0  0  0  0  0  0
    1.3602    0.7197   -1.1038 C   0  0  0  0  0  0  0  0  0  0  0  0
    2.1094    0.8060   -2.2831 C   0  0  0  0  0  0  0  0  0  0  0  0
    3.4597    0.4459   -2.2971 C   0  0  0  0  0  0  0  0  0  0  0  0
    4.0814   -0.0147   -1.1269 C   0  0  0  0  0  0  0  0  0  0  0  0
    5.5424   -0.3709   -1.1343 C   0  0  0  0  0  0  0  0  0  0  0  0
    6.3717    0.8483   -0.8705 C   0  0  0  0  0  0  0  0  0  0  0  0
    6.6257    1.2738    0.4682 N   0  0  0  0  0  0  0  0  0  0  0  0
    6.8156    1.5250   -1.8361 O   0  0  0  0  0  0  0  0  0  0  0  0
    3.3391   -0.0877    0.0617 C   0  0  0  0  0  0  0  0  0  0  0  0
    1.9885    0.2731    0.0754 C   0  0  0  0  0  0  0  0  0  0  0  0
   -6.5637   -0.3833   -0.3834 H   0  0  0  0  0  0  0  0  0  0  0  0
   -6.0655    1.0262    0.6364 H   0  0  0  0  0  0  0  0  0  0  0  0
   -5.2081    0.6781   -0.9144 H   0  0  0  0  0  0  0  0  0  0  0  0
   -4.3816   -1.4689   -0.0053 H   0  0  0  0  0  0  0  0  0  0  0  0
   -5.7584   -0.5830    2.6257 H   0  0  0  0  0  0  0  0  0  0  0  0
   -4.6555   -2.0001    2.4506 H   0  0  0  0  0  0  0  0  0  0  0  0
   -6.2242   -1.9756    1.5748 H   0  0  0  0  0  0  0  0  0  0  0  0
   -3.7617    0.6510    2.0070 H   0  0  0  0  0  0  0  0  0  0  0  0
   -1.7752   -0.3059    2.2138 H   0  0  0  0  0  0  0  0  0  0  0  0
   -2.5262   -1.7311    1.4561 H   0  0  0  0  0  0  0  0  0  0  0  0
   -0.4669   -1.1122    0.2769 H   0  0  0  0  0  0  0  0  0  0  0  0
   -2.0160   -1.9130   -1.0556 H   0  0  0  0  0  0  0  0  0  0  0  0
   -0.4959    1.3789    0.8616 H   0  0  0  0  0  0  0  0  0  0  0  0
   -1.8135    1.5953   -0.3251 H   0  0  0  0  0  0  0  0  0  0  0  0
    1.6414    1.1556   -3.1947 H   0  0  0  0  0  0  0  0  0  0  0  0
    4.0210    0.5273   -3.2198 H   0  0  0  0  0  0  0  0  0  0  0  0
    5.7569   -1.1417   -0.3626 H   0  0  0  0  0  0  0  0  0  0  0  0
    5.8233   -0.8112   -2.1161 H   0  0  0  0  0  0  0  0  0  0  0  0
    7.1904    2.1330    0.6498 H   0  0  0  0  0  0  0  0  0  0  0  0
    6.2484    0.7350    1.2791 H   0  0  0  0  0  0  0  0  0  0  0  0
    3.8070   -0.4228    0.9792 H   0  0  0  0  0  0  0  0  0  0  0  0
    1.4491    0.2040    1.0091 H   0  0  0  0  0  0  0  0  0  0  0  0
  1  2  1  0
  2  3  1  0
  2  4  1  0
  4  5  1  0
  5  6  1  0
  6  7  1  0
  6  8  1  0
  8  9  1  0
  9 10  1  0
 10 11  2  0
 11 12  1  0
 12 13  2  0
 13 14  1  0
 14 15  1  0
 15 16  1  0
 15 17  2  0
 13 18  1  0
 18 19  2  0
 19 10  1  0
  1 20  1  0
  1 21  1  0
  1 22  1  0
  2 23  1  0
  3 24  1  0
  3 25  1  0
  3 26  1  0
  4 27  1  0
  5 28  1  0
  5 29  1  0
  6 30  1  1
  7 31  1  0
  8 32  1  0
  8 33  1  0
 11 34  1  0
 12 35  1  0
 14 36  1  0
 14 37  1  0
 16 38  1  0
 16 39  1  0
 18 40  1  0
 19 41  1  0
M  END
$$$$
