
     RDKit          3D

 24 25  0  0  0  0  0  0  0  0999 V2000
    0.4782   -1.2233    2.1704 C   0  0  0  0  0  0  0  0  0  0  0  0
    1.1324   -0.5276    1.0177 C   0  0  0  0  0  0  0  0  0  0  0  0
    2.4674   -0.3640    0.9267 N   0  0  0  0  0  0  0  0  0  0  0  0
    2.5903    0.3396   -0.2196 C   0  0  0  0  0  0  0  0  0  0  0  0
    1.4045    0.5965   -0.8053 N   0  0  0  0  0  0  0  0  0  0  0  0
    0.4923    0.0373   -0.0302 N   0  0  0  0  0  0  0  0  0  0  0  0
   -0.9185    0.0951   -0.3005 C   0  0  0  0  0  0  0  0  0  0  0  0
   -1.4871    1.2853   -0.7822 C   0  0  0  0  0  0  0  0  0  0  0  0
   -2.8555    1.3521   -1.0656 C   0  0  0  0  0  0  0  0  0  0  0  0
   -3.5579    2.8487   -1.6519 Cl  0  0  0  0  0  0  0  0  0  0  0  0
   -3.6632    0.2254   -0.8828 C   0  0  0  0  0  0  0  0  0  0  0  0
   -3.1021   -0.9705   -0.4244 C   0  0  0  0  0  0  0  0  0  0  0  0
   -4.1120   -2.3899   -0.2178 Cl  0  0  0  0  0  0  0  0  0  0  0  0
   -1.7337   -1.0386   -0.1404 C   0  0  0  0  0  0  0  0  0  0  0  0
    3.8771    0.7818   -0.7628 C   0  0  0  0  0  0  0  0  0  0  0  0
    5.0563    0.4756   -0.0910 O   0  0  0  0  0  0  0  0  0  0  0  0
    3.9174    1.4387   -1.8372 O   0  0  0  0  0  0  0  0  0  0  0  0
    1.1355   -1.1708    3.0635 H   0  0  0  0  0  0  0  0  0  0  0  0
   -0.4872   -0.7359    2.4198 H   0  0  0  0  0  0  0  0  0  0  0  0
    0.3086   -2.2898    1.9169 H   0  0  0  0  0  0  0  0  0  0  0  0
   -0.8679    2.1623   -0.9245 H   0  0  0  0  0  0  0  0  0  0  0  0
   -4.7220    0.2769   -1.1034 H   0  0  0  0  0  0  0  0  0  0  0  0
   -1.3066   -1.9792    0.1786 H   0  0  0  0  0  0  0  0  0  0  0  0
    5.9536    0.7743   -0.4540 H   0  0  0  0  0  0  0  0  0  0  0  0
  1  2  1  0
  2  3  2  0
  3  4  1  0
  4  5  2  0
  5  6  1  0
  6  7  1  0
  7  8  2  0
  8  9  1  0
  9 10  1  0
  9 11  2  0
 11 12  1  0
 12 13  1  0
 12 14  2  0
  4 15  1  0
 15 16  1  0
 15 17  2  0
  6  2  1  0
 14  7  1  0
  1 18  1  0
  1 19  1  0
  1 20  1  0
  8 21  1  0
 11 22  1  0
 14 23  1  0
 16 24  1  0
M  END
$$$$
