
     RDKit          3D

 55 54  0  0  0  0  0  0  0  0999 V2000
   -4.5787   -1.5956    0.2627 C   0  0  1  0  0  0  0  0  0  0  0  0
   -4.6760   -2.7817    1.1153 N   0  0  0  0  0  0  0  0  0  0  0  0
   -3.4924   -0.6423    0.8132 C   0  0  0  0  0  0  0  0  0  0  0  0
   -3.5538    0.7808    0.2244 C   0  0  0  0  0  0  0  0  0  0  0  0
   -2.9890    0.8639   -1.1723 C   0  0  0  0  0  0  0  0  0  0  0  0
   -3.8742    0.7898   -2.2439 O   0  0  0  0  0  0  0  0  0  0  0  0
   -1.7142    0.9941   -1.4178 N   0  0  0  0  0  0  0  0  0  0  0  0
   -0.6341    1.1353   -0.4367 C   0  0  1  0  0  0  0  0  0  0  0  0
    0.7039    0.8297   -1.1235 C   0  0  0  0  0  0  0  0  0  0  0  0
    2.0967    0.8317    0.0670 S   0  0  0  0  0  0  0  0  0  0  0  0
    1.9245   -0.9171    0.5786 C   0  0  0  0  0  0  0  0  0  0  0  0
    2.9671   -1.2898    1.6401 C   0  0  0  0  0  0  0  0  0  0  0  0
    4.4215   -1.2495    1.1365 C   0  0  0  0  0  0  0  0  0  0  0  0
    4.7315   -2.3595    0.1209 C   0  0  0  0  0  0  0  0  0  0  0  0
    6.2251   -2.3848   -0.2242 C   0  0  0  0  0  0  0  0  0  0  0  0
    6.5374   -3.4761   -1.2441 C   0  0  0  0  0  0  0  0  0  0  0  0
   -0.6313    2.5273    0.1365 C   0  0  0  0  0  0  0  0  0  0  0  0
   -0.4874    2.6784    1.5187 O   0  0  0  0  0  0  0  0  0  0  0  0
   -0.7464    3.5509   -0.6627 N   0  0  0  0  0  0  0  0  0  0  0  0
   -0.7779    4.9544   -0.2594 C   0  0  0  0  0  0  0  0  0  0  0  0
   -2.0716    5.2789    0.4199 C   0  0  0  0  0  0  0  0  0  0  0  0
   -2.0663    5.8406    1.6926 O   0  0  0  0  0  0  0  0  0  0  0  0
   -3.1650    5.0574   -0.1662 O   0  0  0  0  0  0  0  0  0  0  0  0
   -4.2742   -2.0281   -1.1454 C   0  0  0  0  0  0  0  0  0  0  0  0
   -5.2357   -1.8712   -2.1389 O   0  0  0  0  0  0  0  0  0  0  0  0
   -3.1670   -2.5636   -1.4232 O   0  0  0  0  0  0  0  0  0  0  0  0
   -5.5605   -1.0693    0.2730 H   0  0  0  0  0  0  0  0  0  0  0  0
   -5.4376   -3.3955    0.7427 H   0  0  0  0  0  0  0  0  0  0  0  0
   -4.9946   -2.4817    2.0656 H   0  0  0  0  0  0  0  0  0  0  0  0
   -3.6411   -0.5415    1.9107 H   0  0  0  0  0  0  0  0  0  0  0  0
   -2.4849   -1.0884    0.6733 H   0  0  0  0  0  0  0  0  0  0  0  0
   -4.6069    1.1353    0.2131 H   0  0  0  0  0  0  0  0  0  0  0  0
   -3.0095    1.4758    0.8958 H   0  0  0  0  0  0  0  0  0  0  0  0
   -3.5437    0.8325   -3.2008 H   0  0  0  0  0  0  0  0  0  0  0  0
   -0.7779    0.4028    0.3820 H   0  0  0  0  0  0  0  0  0  0  0  0
    0.6466   -0.1510   -1.6427 H   0  0  0  0  0  0  0  0  0  0  0  0
    0.9097    1.5976   -1.9001 H   0  0  0  0  0  0  0  0  0  0  0  0
    0.9169   -1.0668    1.0184 H   0  0  0  0  0  0  0  0  0  0  0  0
    2.0098   -1.5854   -0.3022 H   0  0  0  0  0  0  0  0  0  0  0  0
    2.8671   -0.5878    2.4965 H   0  0  0  0  0  0  0  0  0  0  0  0
    2.7412   -2.3076    2.0264 H   0  0  0  0  0  0  0  0  0  0  0  0
    5.0868   -1.3764    2.0186 H   0  0  0  0  0  0  0  0  0  0  0  0
    4.6492   -0.2571    0.6920 H   0  0  0  0  0  0  0  0  0  0  0  0
    4.1534   -2.1859   -0.8114 H   0  0  0  0  0  0  0  0  0  0  0  0
    4.4368   -3.3443    0.5456 H   0  0  0  0  0  0  0  0  0  0  0  0
    6.8202   -2.5731    0.6959 H   0  0  0  0  0  0  0  0  0  0  0  0
    6.5290   -1.4015   -0.6451 H   0  0  0  0  0  0  0  0  0  0  0  0
    6.2641   -4.4733   -0.8381 H   0  0  0  0  0  0  0  0  0  0  0  0
    5.9758   -3.2966   -2.1857 H   0  0  0  0  0  0  0  0  0  0  0  0
    7.6240   -3.4713   -1.4727 H   0  0  0  0  0  0  0  0  0  0  0  0
   -0.4583    3.5779    1.9796 H   0  0  0  0  0  0  0  0  0  0  0  0
    0.0879    5.1889    0.3966 H   0  0  0  0  0  0  0  0  0  0  0  0
   -0.6904    5.5861   -1.1677 H   0  0  0  0  0  0  0  0  0  0  0  0
   -2.9339    6.0683    2.1634 H   0  0  0  0  0  0  0  0  0  0  0  0
   -5.0515   -2.1647   -3.0908 H   0  0  0  0  0  0  0  0  0  0  0  0
  1  2  1  0
  1  3  1  0
  3  4  1  0
  4  5  1  0
  5  6  1  0
  5  7  2  3
  7  8  1  0
  8  9  1  0
  9 10  1  0
 10 11  1  0
 11 12  1  0
 12 13  1  0
 13 14  1  0
 14 15  1  0
 15 16  1  0
  8 17  1  0
 17 18  1  0
 17 19  2  3
 19 20  1  0
 20 21  1  0
 21 22  1  0
 21 23  2  0
  1 24  1  0
 24 25  1  0
 24 26  2  0
  1 27  1  6
  2 28  1  0
  2 29  1  0
  3 30  1  0
  3 31  1  0
  4 32  1  0
  4 33  1  0
  6 34  1  0
  8 35  1  1
  9 36  1  0
  9 37  1  0
 11 38  1  0
 11 39  1  0
 12 40  1  0
 12 41  1  0
 13 42  1  0
 13 43  1  0
 14 44  1  0
 14 45  1  0
 15 46  1  0
 15 47  1  0
 16 48  1  0
 16 49  1  0
 16 50  1  0
 18 51  1  0
 20 52  1  0
 20 53  1  0
 22 54  1  0
 25 55  1  0
M  END
$$$$
