
     RDKit          3D

 23 23  0  0  0  0  0  0  0  0999 V2000
    4.1943    0.5959   -0.2256 N   0  0  0  0  0  0  0  0  0  0  0  0
    3.2457   -0.3103    0.3359 C   0  0  0  0  0  0  0  0  0  0  0  0
    3.5198   -0.9015    1.4147 O   0  0  0  0  0  0  0  0  0  0  0  0
    1.9947   -0.5388   -0.3309 N   0  0  0  0  0  0  0  0  0  0  0  0
    0.9714   -1.4210    0.1584 C   0  0  0  0  0  0  0  0  0  0  0  0
    1.1221   -2.0452    1.2435 O   0  0  0  0  0  0  0  0  0  0  0  0
   -0.3127   -1.5702   -0.5993 C   0  0  0  0  0  0  0  0  0  0  0  0
   -1.2581   -0.4581   -0.2378 C   0  0  0  0  0  0  0  0  0  0  0  0
   -2.0939   -0.5770    0.8855 C   0  0  0  0  0  0  0  0  0  0  0  0
   -2.9499    0.4703    1.2403 C   0  0  0  0  0  0  0  0  0  0  0  0
   -2.9712    1.6449    0.4832 C   0  0  0  0  0  0  0  0  0  0  0  0
   -2.1340    1.7756   -0.6282 C   0  0  0  0  0  0  0  0  0  0  0  0
   -1.2766    0.7307   -0.9868 C   0  0  0  0  0  0  0  0  0  0  0  0
    3.9875    1.0966   -1.1180 H   0  0  0  0  0  0  0  0  0  0  0  0
    5.1067    0.7679    0.2522 H   0  0  0  0  0  0  0  0  0  0  0  0
    1.8179   -0.0282   -1.2251 H   0  0  0  0  0  0  0  0  0  0  0  0
   -0.1045   -1.5628   -1.6913 H   0  0  0  0  0  0  0  0  0  0  0  0
   -0.7755   -2.5544   -0.3670 H   0  0  0  0  0  0  0  0  0  0  0  0
   -2.0806   -1.4786    1.4854 H   0  0  0  0  0  0  0  0  0  0  0  0
   -3.5945    0.3726    2.1043 H   0  0  0  0  0  0  0  0  0  0  0  0
   -3.6334    2.4551    0.7600 H   0  0  0  0  0  0  0  0  0  0  0  0
   -2.1473    2.6880   -1.2104 H   0  0  0  0  0  0  0  0  0  0  0  0
   -0.6279    0.8484   -1.8460 H   0  0  0  0  0  0  0  0  0  0  0  0
  1  2  1  0
  2  3  2  0
  2  4  1  0
  4  5  1  0
  5  6  2  0
  5  7  1  0
  7  8  1  0
  8  9  2  0
  9 10  1  0
 10 11  2  0
 11 12  1  0
 12 13  2  0
 13  8  1  0
  1 14  1  0
  1 15  1  0
  4 16  1  0
  7 17  1  0
  7 18  1  0
  9 19  1  0
 10 20  1  0
 11 21  1  0
 12 22  1  0
 13 23  1  0
M  END
$$$$
