
     RDKit          3D

 48 51  0  0  0  0  0  0  0  0999 V2000
   -3.5998    1.7842   -1.4840 N   0  0  0  0  0  0  0  0  0  0  0  0
   -3.7754    0.3302   -1.4783 C   0  0  2  0  0  0  0  0  0  0  0  0
   -4.9278   -0.1033   -0.5443 C   0  0  0  0  0  0  0  0  0  0  0  0
   -5.0375    0.6525    0.7966 C   0  0  0  0  0  0  0  0  0  0  0  0
   -3.7201    0.9374    1.5414 C   0  0  0  0  0  0  0  0  0  0  0  0
   -2.6589   -0.1559    1.3937 C   0  0  0  0  0  0  0  0  0  0  0  0
   -1.8999    0.0304    0.1515 N   0  0  0  0  0  0  0  0  0  0  0  0
   -2.4555   -0.3901   -1.1394 C   0  0  0  0  0  0  0  0  0  0  0  0
   -0.5090    0.3869    0.2249 C   0  0  0  0  0  0  0  0  0  0  0  0
   -0.1535    1.7354    0.2489 C   0  0  0  0  0  0  0  0  0  0  0  0
   -1.1056    2.6979    0.1716 F   0  0  0  0  0  0  0  0  0  0  0  0
    1.1758    2.1063    0.3970 C   0  0  0  0  0  0  0  0  0  0  0  0
    2.1911    1.1360    0.4536 C   0  0  0  0  0  0  0  0  0  0  0  0
    3.5280    1.5215    0.6651 C   0  0  0  0  0  0  0  0  0  0  0  0
    3.8166    2.7428    0.8041 O   0  0  0  0  0  0  0  0  0  0  0  0
    4.5360    0.5475    0.7372 C   0  0  0  0  0  0  0  0  0  0  0  0
    4.1873   -0.7876    0.4995 C   0  0  0  0  0  0  0  0  0  0  0  0
    2.9045   -1.1559    0.1978 N   0  0  0  0  0  0  0  0  0  0  0  0
    2.7160   -2.5407   -0.2728 C   0  0  0  0  0  0  0  0  0  0  0  0
    3.6027   -2.9285   -1.4581 C   0  0  0  0  0  0  0  0  0  0  0  0
    2.1296   -2.6629   -1.6779 C   0  0  0  0  0  0  0  0  0  0  0  0
    1.8693   -0.2428    0.3086 C   0  0  0  0  0  0  0  0  0  0  0  0
    0.4853   -0.6109    0.2909 C   0  0  0  0  0  0  0  0  0  0  0  0
   -0.0824   -2.2658    0.5627 Cl  0  0  0  0  0  0  0  0  0  0  0  0
    5.9549    0.8986    1.0213 C   0  0  0  0  0  0  0  0  0  0  0  0
    6.3250    2.2121    1.2991 O   0  0  0  0  0  0  0  0  0  0  0  0
    6.8437    0.0038    1.0192 O   0  0  0  0  0  0  0  0  0  0  0  0
   -2.8741    2.0267   -2.1974 H   0  0  0  0  0  0  0  0  0  0  0  0
   -4.4908    2.2200   -1.8164 H   0  0  0  0  0  0  0  0  0  0  0  0
   -4.0538    0.0062   -2.5078 H   0  0  0  0  0  0  0  0  0  0  0  0
   -5.8880    0.0421   -1.0865 H   0  0  0  0  0  0  0  0  0  0  0  0
   -4.8583   -1.1952   -0.3453 H   0  0  0  0  0  0  0  0  0  0  0  0
   -5.5531    1.6221    0.6220 H   0  0  0  0  0  0  0  0  0  0  0  0
   -5.7004    0.0600    1.4646 H   0  0  0  0  0  0  0  0  0  0  0  0
   -3.3040    1.9105    1.2064 H   0  0  0  0  0  0  0  0  0  0  0  0
   -3.9568    1.0582    2.6212 H   0  0  0  0  0  0  0  0  0  0  0  0
   -1.9715   -0.0960    2.2670 H   0  0  0  0  0  0  0  0  0  0  0  0
   -3.1191   -1.1673    1.4194 H   0  0  0  0  0  0  0  0  0  0  0  0
   -1.7257   -0.1811   -1.9537 H   0  0  0  0  0  0  0  0  0  0  0  0
   -2.6132   -1.4904   -1.1308 H   0  0  0  0  0  0  0  0  0  0  0  0
    1.4077    3.1623    0.4666 H   0  0  0  0  0  0  0  0  0  0  0  0
    4.9680   -1.5409    0.5042 H   0  0  0  0  0  0  0  0  0  0  0  0
    2.5428   -3.3460    0.4725 H   0  0  0  0  0  0  0  0  0  0  0  0
    4.2517   -2.1347   -1.8861 H   0  0  0  0  0  0  0  0  0  0  0  0
    3.8699   -4.0051   -1.5077 H   0  0  0  0  0  0  0  0  0  0  0  0
    1.5228   -3.5782   -1.8411 H   0  0  0  0  0  0  0  0  0  0  0  0
    1.9157   -1.7031   -2.1953 H   0  0  0  0  0  0  0  0  0  0  0  0
    7.2899    2.4513    1.4943 H   0  0  0  0  0  0  0  0  0  0  0  0
  1  2  1  0
  2  3  1  0
  3  4  1  0
  4  5  1  0
  5  6  1  0
  6  7  1  0
  7  8  1  0
  7  9  1  0
  9 10  2  0
 10 11  1  0
 10 12  1  0
 12 13  2  0
 13 14  1  0
 14 15  2  0
 14 16  1  0
 16 17  2  0
 17 18  1  0
 18 19  1  0
 19 20  1  0
 20 21  1  0
 18 22  1  0
 22 23  2  0
 23 24  1  0
 16 25  1  0
 25 26  1  0
 25 27  2  0
  8  2  1  0
 23  9  1  0
 22 13  1  0
 21 19  1  0
  1 28  1  0
  1 29  1  0
  2 30  1  6
  3 31  1  0
  3 32  1  0
  4 33  1  0
  4 34  1  0
  5 35  1  0
  5 36  1  0
  6 37  1  0
  6 38  1  0
  8 39  1  0
  8 40  1  0
 12 41  1  0
 17 42  1  0
 19 43  1  0
 20 44  1  0
 20 45  1  0
 21 46  1  0
 21 47  1  0
 26 48  1  0
M  END
$$$$
