
     RDKit          3D

 56 59  0  0  0  0  0  0  0  0999 V2000
   -1.0880    0.8110   -0.5683 C   0  0  2  0  0  0  0  0  0  0  0  0
   -0.0711   -0.3052   -0.8604 C   0  0  0  0  0  0  0  0  0  0  0  0
    1.3153    0.0465   -0.2814 C   0  0  1  0  0  0  0  0  0  0  0  0
    1.2205    0.5626    1.1512 C   0  0  0  0  0  0  0  0  0  0  0  0
    0.0606    1.0371    1.6864 C   0  0  0  0  0  0  0  0  0  0  0  0
    0.0768    1.5664    2.9813 O   0  0  0  0  0  0  0  0  0  0  0  0
   -1.2833    0.9867    0.9573 C   0  0  1  0  0  0  0  0  0  0  0  0
   -1.9448    2.2189    1.1546 O   0  0  0  0  0  0  0  0  0  0  0  0
   -2.1250   -0.1626    1.5101 C   0  0  0  0  0  0  0  0  0  0  0  0
   -2.1349   -0.3752    2.7542 O   0  0  0  0  0  0  0  0  0  0  0  0
   -2.9517   -1.0206    0.6201 C   0  0  0  0  0  0  0  0  0  0  0  0
   -3.6030   -2.2248    1.1873 C   0  0  0  0  0  0  0  0  0  0  0  0
   -3.4977   -3.4941    0.5390 N   0  0  0  0  0  0  0  0  0  0  0  0
   -4.2362   -2.1383    2.2732 O   0  0  0  0  0  0  0  0  0  0  0  0
   -3.0668   -0.7293   -0.6923 C   0  0  0  0  0  0  0  0  0  0  0  0
   -3.7996   -1.5733   -1.5300 O   0  0  0  0  0  0  0  0  0  0  0  0
   -2.4501    0.5338   -1.2829 C   0  0  1  0  0  0  0  0  0  0  0  0
   -3.3869    1.6967   -1.1780 N   0  0  0  0  0  0  0  0  0  0  0  0
   -2.8681    2.8778   -1.9018 C   0  0  0  0  0  0  0  0  0  0  0  0
   -4.7270    1.3787   -1.7140 C   0  0  0  0  0  0  0  0  0  0  0  0
    2.5004    0.6245    1.9078 C   0  0  0  0  0  0  0  0  0  0  0  0
    2.5093    0.9072    3.1368 O   0  0  0  0  0  0  0  0  0  0  0  0
    3.7649    0.2274    1.2491 C   0  0  0  0  0  0  0  0  0  0  0  0
    5.0217    0.6882    1.7226 C   0  0  0  0  0  0  0  0  0  0  0  0
    5.1431    1.7299    2.6453 O   0  0  0  0  0  0  0  0  0  0  0  0
    6.1978    0.1140    1.2408 C   0  0  0  0  0  0  0  0  0  0  0  0
    6.1498   -0.8837    0.2755 C   0  0  0  0  0  0  0  0  0  0  0  0
    4.9268   -1.2916   -0.2515 C   0  0  0  0  0  0  0  0  0  0  0  0
    3.7135   -0.7058    0.1808 C   0  0  0  0  0  0  0  0  0  0  0  0
    2.3478   -1.1416   -0.3976 C   0  0  2  0  0  0  0  0  0  0  0  0
    2.4907   -1.5564   -1.8851 C   0  0  0  0  0  0  0  0  0  0  0  0
    1.8796   -2.2696    0.3060 O   0  0  0  0  0  0  0  0  0  0  0  0
   -0.6376    1.7380   -0.9804 H   0  0  0  0  0  0  0  0  0  0  0  0
   -0.0020   -0.3966   -1.9638 H   0  0  0  0  0  0  0  0  0  0  0  0
   -0.4139   -1.2784   -0.4492 H   0  0  0  0  0  0  0  0  0  0  0  0
    1.7123    0.8924   -0.8879 H   0  0  0  0  0  0  0  0  0  0  0  0
   -0.7566    1.8902    3.4545 H   0  0  0  0  0  0  0  0  0  0  0  0
   -2.4550    2.1942    2.0058 H   0  0  0  0  0  0  0  0  0  0  0  0
   -2.8724   -3.6267   -0.2865 H   0  0  0  0  0  0  0  0  0  0  0  0
   -3.9927   -4.3257    0.9308 H   0  0  0  0  0  0  0  0  0  0  0  0
   -3.8957   -1.3863   -2.5206 H   0  0  0  0  0  0  0  0  0  0  0  0
   -2.2388    0.3353   -2.3589 H   0  0  0  0  0  0  0  0  0  0  0  0
   -2.5213    2.6099   -2.9243 H   0  0  0  0  0  0  0  0  0  0  0  0
   -3.6426    3.6708   -1.9896 H   0  0  0  0  0  0  0  0  0  0  0  0
   -2.0431    3.3523   -1.3355 H   0  0  0  0  0  0  0  0  0  0  0  0
   -5.3875    2.2724   -1.6859 H   0  0  0  0  0  0  0  0  0  0  0  0
   -5.2335    0.6231   -1.0787 H   0  0  0  0  0  0  0  0  0  0  0  0
   -4.6634    1.0107   -2.7619 H   0  0  0  0  0  0  0  0  0  0  0  0
    4.3813    2.3489    2.8885 H   0  0  0  0  0  0  0  0  0  0  0  0
    7.1570    0.4487    1.6154 H   0  0  0  0  0  0  0  0  0  0  0  0
    7.0681   -1.3350   -0.0781 H   0  0  0  0  0  0  0  0  0  0  0  0
    4.9554   -2.0746   -0.9910 H   0  0  0  0  0  0  0  0  0  0  0  0
    2.9118   -0.7247   -2.4897 H   0  0  0  0  0  0  0  0  0  0  0  0
    1.5240   -1.8723   -2.3209 H   0  0  0  0  0  0  0  0  0  0  0  0
    3.1236   -2.4577   -1.9994 H   0  0  0  0  0  0  0  0  0  0  0  0
    1.8385   -2.0442    1.2714 H   0  0  0  0  0  0  0  0  0  0  0  0
  1  2  1  0
  2  3  1  0
  3  4  1  0
  4  5  2  0
  5  6  1  0
  5  7  1  0
  7  8  1  6
  7  9  1  0
  9 10  2  0
  9 11  1  0
 11 12  1  0
 12 13  1  0
 12 14  2  0
 11 15  2  0
 15 16  1  0
 15 17  1  0
 17 18  1  0
 18 19  1  0
 18 20  1  0
  4 21  1  0
 21 22  2  0
 21 23  1  0
 23 24  2  0
 24 25  1  0
 24 26  1  0
 26 27  2  0
 27 28  1  0
 28 29  2  0
 29 30  1  0
 30 31  1  0
 30 32  1  1
  7  1  1  0
 29 23  1  0
 17  1  1  0
 30  3  1  0
  1 33  1  6
  2 34  1  0
  2 35  1  0
  3 36  1  6
  6 37  1  0
  8 38  1  0
 13 39  1  0
 13 40  1  0
 16 41  1  0
 17 42  1  6
 19 43  1  0
 19 44  1  0
 19 45  1  0
 20 46  1  0
 20 47  1  0
 20 48  1  0
 25 49  1  0
 26 50  1  0
 27 51  1  0
 28 52  1  0
 31 53  1  0
 31 54  1  0
 31 55  1  0
 32 56  1  0
M  END
$$$$
