
     RDKit          3D

 19 18  0  0  0  0  0  0  0  0999 V2000
    3.0786    0.6141   -0.4071 O   0  0  0  0  0  0  0  0  0  0  0  0
    2.4163   -0.5766   -0.6883 C   0  0  0  0  0  0  0  0  0  0  0  0
    2.5647   -1.1305   -1.8103 O   0  0  0  0  0  0  0  0  0  0  0  0
    1.5010   -1.1838    0.3345 C   0  0  0  0  0  0  0  0  0  0  0  0
    0.0850   -0.9394    0.0139 N   0  0  0  0  0  4  0  0  0  0  0  0
   -0.2889    0.4671    0.2259 C   0  0  0  0  0  0  0  0  0  0  0  0
   -2.0615    0.7179   -0.1153 P   0  0  0  0  0  5  0  0  0  0  0  0
   -2.4579    2.3424    0.1424 O   0  0  0  0  0  0  0  0  0  0  0  0
   -2.9811   -0.2589    0.9162 O   0  0  0  0  0  0  0  0  0  0  0  0
   -2.3576    0.3538   -1.5525 O   0  0  0  0  0  0  0  0  0  0  0  0
    3.6899    1.0427   -1.0919 H   0  0  0  0  0  0  0  0  0  0  0  0
    1.7482   -0.7886    1.3450 H   0  0  0  0  0  0  0  0  0  0  0  0
    1.6860   -2.2805    0.3623 H   0  0  0  0  0  0  0  0  0  0  0  0
   -0.4971   -1.5417    0.6421 H   0  0  0  0  0  0  0  0  0  0  0  0
   -0.1061   -1.2149   -0.9784 H   0  0  0  0  0  0  0  0  0  0  0  0
   -0.0915    0.7664    1.2786 H   0  0  0  0  0  0  0  0  0  0  0  0
    0.2896    1.1313   -0.4516 H   0  0  0  0  0  0  0  0  0  0  0  0
   -2.2964    2.4911    1.1081 H   0  0  0  0  0  0  0  0  0  0  0  0
   -3.9212   -0.0118    0.7264 H   0  0  0  0  0  0  0  0  0  0  0  0
  1  2  1  0
  2  3  2  0
  2  4  1  0
  4  5  1  0
  5  6  1  0
  6  7  1  0
  7  8  1  0
  7  9  1  0
  7 10  2  0
  1 11  1  0
  4 12  1  0
  4 13  1  0
  5 14  1  0
  5 15  1  0
  6 16  1  0
  6 17  1  0
  8 18  1  0
  9 19  1  0
M  CHG  1   5   1
M  END
$$$$
