
     RDKit          3D

 66 66  0  0  0  0  0  0  0  0999 V2000
   -7.9077   -3.0032    0.3117 C   0  0  0  0  0  0  0  0  0  0  0  0
   -6.9620   -1.8922   -0.1381 C   0  0  0  0  0  0  0  0  0  0  0  0
   -6.5029   -1.0354    1.0502 C   0  0  0  0  0  0  0  0  0  0  0  0
   -5.9616    0.3597    0.6608 C   0  0  0  0  0  0  0  0  0  0  0  0
   -4.6110    0.4522   -0.1347 C   0  0  0  0  0  0  0  0  0  0  0  0
   -4.1199    1.9187   -0.0179 C   0  0  0  0  0  0  0  0  0  0  0  0
   -4.8490    0.1670   -1.6393 C   0  0  0  0  0  0  0  0  0  0  0  0
   -3.5391   -0.5338    0.4410 C   0  0  2  0  0  0  0  0  0  0  0  0
   -3.3682   -0.3211    1.8214 O   0  0  0  0  0  0  0  0  0  0  0  0
   -2.2062   -0.4567   -0.2784 C   0  0  0  0  0  0  0  0  0  0  0  0
   -1.2453    0.4184    0.0611 C   0  0  0  0  0  0  0  0  0  0  0  0
    0.0519    0.4958   -0.7182 C   0  0  1  0  0  0  0  0  0  0  0  0
   -0.1912    1.1720   -2.0901 C   0  0  2  0  0  0  0  0  0  0  0  0
    0.7062    0.6610   -3.0422 O   0  0  0  0  0  0  0  0  0  0  0  0
    0.0848    2.6614   -1.8822 C   0  0  0  0  0  0  0  0  0  0  0  0
    0.9143    2.7067   -0.6535 C   0  0  0  0  0  0  0  0  0  0  0  0
    1.3564    3.7497   -0.1975 O   0  0  0  0  0  0  0  0  0  0  0  0
    1.0901    1.3816    0.0111 C   0  0  2  0  0  0  0  0  0  0  0  0
    2.5251    0.8364   -0.1730 C   0  0  0  0  0  0  0  0  0  0  0  0
    3.5569    1.5907    0.6841 C   0  0  0  0  0  0  0  0  0  0  0  0
    4.9836    1.0477    0.5026 C   0  0  0  0  0  0  0  0  0  0  0  0
    5.1910   -0.3149    1.1821 C   0  0  0  0  0  0  0  0  0  0  0  0
    6.6332   -0.7301    1.1319 C   0  0  0  0  0  0  0  0  0  0  0  0
    7.2123   -1.1047   -0.0134 C   0  0  0  0  0  0  0  0  0  0  0  0
    8.6196   -1.5261   -0.0760 C   0  0  0  0  0  0  0  0  0  0  0  0
    9.1080   -1.8717   -1.1859 O   0  0  0  0  0  0  0  0  0  0  0  0
    9.4076   -1.5428    1.0802 O   0  0  0  0  0  0  0  0  0  0  0  0
   10.7731   -1.9411    1.0719 C   0  0  0  0  0  0  0  0  0  0  0  0
   -8.8341   -2.5707    0.7462 H   0  0  0  0  0  0  0  0  0  0  0  0
   -8.1869   -3.6302   -0.5613 H   0  0  0  0  0  0  0  0  0  0  0  0
   -7.4125   -3.6479    1.0690 H   0  0  0  0  0  0  0  0  0  0  0  0
   -7.4837   -1.2624   -0.8911 H   0  0  0  0  0  0  0  0  0  0  0  0
   -6.0828   -2.3757   -0.6092 H   0  0  0  0  0  0  0  0  0  0  0  0
   -5.7640   -1.5950    1.6608 H   0  0  0  0  0  0  0  0  0  0  0  0
   -7.3780   -0.8587    1.7147 H   0  0  0  0  0  0  0  0  0  0  0  0
   -6.7592    0.9092    0.1132 H   0  0  0  0  0  0  0  0  0  0  0  0
   -5.8361    0.9075    1.6219 H   0  0  0  0  0  0  0  0  0  0  0  0
   -3.2396    2.1112   -0.6663 H   0  0  0  0  0  0  0  0  0  0  0  0
   -4.9194    2.6232   -0.3354 H   0  0  0  0  0  0  0  0  0  0  0  0
   -3.8417    2.1636    1.0295 H   0  0  0  0  0  0  0  0  0  0  0  0
   -3.9644    0.4641   -2.2430 H   0  0  0  0  0  0  0  0  0  0  0  0
   -5.0153   -0.9069   -1.8386 H   0  0  0  0  0  0  0  0  0  0  0  0
   -5.7215    0.7400   -2.0201 H   0  0  0  0  0  0  0  0  0  0  0  0
   -3.9104   -1.5715    0.2808 H   0  0  0  0  0  0  0  0  0  0  0  0
   -2.9202   -1.1293    2.1851 H   0  0  0  0  0  0  0  0  0  0  0  0
   -2.0371   -1.1359   -1.1100 H   0  0  0  0  0  0  0  0  0  0  0  0
   -1.4091    1.0915    0.8985 H   0  0  0  0  0  0  0  0  0  0  0  0
    0.4321   -0.5427   -0.8502 H   0  0  0  0  0  0  0  0  0  0  0  0
   -1.2365    1.0340   -2.4556 H   0  0  0  0  0  0  0  0  0  0  0  0
    0.3613   -0.2319   -3.3059 H   0  0  0  0  0  0  0  0  0  0  0  0
    0.6282    3.1067   -2.7437 H   0  0  0  0  0  0  0  0  0  0  0  0
   -0.8639    3.2136   -1.7071 H   0  0  0  0  0  0  0  0  0  0  0  0
    0.8653    1.4603    1.0986 H   0  0  0  0  0  0  0  0  0  0  0  0
    2.8186    0.8879   -1.2449 H   0  0  0  0  0  0  0  0  0  0  0  0
    2.5294   -0.2314    0.1307 H   0  0  0  0  0  0  0  0  0  0  0  0
    3.2690    1.5438    1.7572 H   0  0  0  0  0  0  0  0  0  0  0  0
    3.5681    2.6593    0.3850 H   0  0  0  0  0  0  0  0  0  0  0  0
    5.6894    1.7800    0.9536 H   0  0  0  0  0  0  0  0  0  0  0  0
    5.2218    0.9763   -0.5813 H   0  0  0  0  0  0  0  0  0  0  0  0
    4.8819   -0.2451    2.2475 H   0  0  0  0  0  0  0  0  0  0  0  0
    4.5726   -1.0975    0.6941 H   0  0  0  0  0  0  0  0  0  0  0  0
    7.1931   -0.7462    2.0594 H   0  0  0  0  0  0  0  0  0  0  0  0
    6.6348   -1.1038   -0.9307 H   0  0  0  0  0  0  0  0  0  0  0  0
   11.1797   -1.8702    2.1015 H   0  0  0  0  0  0  0  0  0  0  0  0
   11.3599   -1.2732    0.4063 H   0  0  0  0  0  0  0  0  0  0  0  0
   10.8606   -2.9915    0.7218 H   0  0  0  0  0  0  0  0  0  0  0  0
  1  2  1  0
  2  3  1  0
  3  4  1  0
  4  5  1  0
  5  6  1  0
  5  7  1  0
  5  8  1  0
  8  9  1  0
  8 10  1  0
 10 11  2  0
 11 12  1  0
 12 13  1  0
 13 14  1  0
 13 15  1  0
 15 16  1  0
 16 17  2  0
 16 18  1  0
 18 19  1  0
 19 20  1  0
 20 21  1  0
 21 22  1  0
 22 23  1  0
 23 24  2  0
 24 25  1  0
 25 26  2  0
 25 27  1  0
 27 28  1  0
 18 12  1  0
  1 29  1  0
  1 30  1  0
  1 31  1  0
  2 32  1  0
  2 33  1  0
  3 34  1  0
  3 35  1  0
  4 36  1  0
  4 37  1  0
  6 38  1  0
  6 39  1  0
  6 40  1  0
  7 41  1  0
  7 42  1  0
  7 43  1  0
  8 44  1  1
  9 45  1  0
 10 46  1  0
 11 47  1  0
 12 48  1  6
 13 49  1  6
 14 50  1  0
 15 51  1  0
 15 52  1  0
 18 53  1  1
 19 54  1  0
 19 55  1  0
 20 56  1  0
 20 57  1  0
 21 58  1  0
 21 59  1  0
 22 60  1  0
 22 61  1  0
 23 62  1  0
 24 63  1  0
 28 64  1  0
 28 65  1  0
 28 66  1  0
M  END
$$$$
