
     RDKit          2D

146149  0  0  0  0  0  0  0  0999 V2000
    6.8255   -1.6485    0.0000 C   0  0  0  0  0  0  0  0  0  0  0  0
    5.5723   -0.8243    0.0000 C   0  0  0  0  0  0  0  0  0  0  0  0
    4.3191    0.0000    0.0000 C   0  0  0  0  0  0  0  0  0  0  0  0
    4.0586   -1.4772    0.0000 C   0  0  0  0  0  0  0  0  0  0  0  0
    3.3086   -2.7762    0.0000 C   0  0  0  0  0  0  0  0  0  0  0  0
    4.4577   -3.7404    0.0000 C   0  0  0  0  0  0  0  0  0  0  0  0
    2.1595   -3.7404    0.0000 C   0  0  0  0  0  0  0  0  0  0  0  0
    2.0723   -5.2379    0.0000 O   0  0  0  0  0  0  0  0  0  0  0  0
    0.7500   -4.2535    0.0000 C   0  0  0  0  0  0  0  0  0  0  0  0
   -0.7500   -4.2535    0.0000 C   0  0  0  0  0  0  0  0  0  0  0  0
   -2.1595   -3.7404    0.0000 C   0  0  0  0  0  0  0  0  0  0  0  0
   -3.3086   -2.7762    0.0000 C   0  0  0  0  0  0  0  0  0  0  0  0
   -4.0586   -1.4772    0.0000 C   0  0  0  0  0  0  0  0  0  0  0  0
   -5.4681   -1.9902    0.0000 C   0  0  0  0  0  0  0  0  0  0  0  0
   -6.8777   -2.5033    0.0000 O   0  0  0  0  0  0  0  0  0  0  0  0
   -7.1382   -3.9805    0.0000 C   0  0  0  0  0  0  0  0  0  0  0  0
   -8.5477   -3.4675    0.0000 O   0  0  0  0  0  0  0  0  0  0  0  0
   -9.6968   -4.4316    0.0000 C   0  0  0  0  0  0  0  0  0  0  0  0
  -10.4468   -3.1326    0.0000 C   0  0  0  0  0  0  0  0  0  0  0  0
   -9.4363   -5.9088    0.0000 C   0  0  0  0  0  0  0  0  0  0  0  0
  -10.9363   -5.9088    0.0000 O   0  0  0  0  0  0  0  0  0  0  0  0
  -11.6863   -7.2079    0.0000 C   0  0  0  0  0  0  0  0  0  0  0  0
  -10.9363   -8.5069    0.0000 O   0  0  0  0  0  0  0  0  0  0  0  0
  -13.1863   -7.2079    0.0000 C   0  0  0  0  0  0  0  0  0  0  0  0
  -13.9363   -5.9088    0.0000 C   0  0  0  0  0  0  0  0  0  0  0  0
  -13.1863   -4.6098    0.0000 C   0  0  0  0  0  0  0  0  0  0  0  0
  -12.4363   -3.3108    0.0000 C   0  0  0  0  0  0  0  0  0  0  0  0
  -15.4363   -5.9088    0.0000 C   0  0  0  0  0  0  0  0  0  0  0  0
  -16.1863   -4.6098    0.0000 Cl  0  0  0  0  0  0  0  0  0  0  0  0
  -16.1863   -7.2079    0.0000 C   0  0  0  0  0  0  0  0  0  0  0  0
  -17.6863   -7.2079    0.0000 O   0  0  0  0  0  0  0  0  0  0  0  0
  -15.4363   -8.5069    0.0000 C   0  0  0  0  0  0  0  0  0  0  0  0
  -16.1863   -9.8060    0.0000 Cl  0  0  0  0  0  0  0  0  0  0  0  0
  -13.9363   -8.5069    0.0000 C   0  0  0  0  0  0  0  0  0  0  0  0
  -13.1863   -9.8060    0.0000 O   0  0  0  0  0  0  0  0  0  0  0  0
   -8.0268   -6.4219    0.0000 C   0  0  0  0  0  0  0  0  0  0  0  0
   -8.7768   -7.7209    0.0000 O   0  0  0  0  0  0  0  0  0  0  0  0
   -6.8777   -5.4577    0.0000 C   0  0  0  0  0  0  0  0  0  0  0  0
   -6.1277   -6.7567    0.0000 O   0  0  0  0  0  0  0  0  0  0  0  0
   -6.8777   -8.0558    0.0000 C   0  0  0  0  0  0  0  0  0  0  0  0
   -4.3191    0.0000    0.0000 C   0  0  0  0  0  0  0  0  0  0  0  0
   -5.8079    0.1828    0.0000 O   0  0  0  0  0  0  0  0  0  0  0  0
   -4.0586    1.4772    0.0000 O   0  0  0  0  0  0  0  0  0  0  0  0
   -3.3086    2.7762    0.0000 C   0  0  0  0  0  0  0  0  0  0  0  0
   -2.1595    3.7404    0.0000 C   0  0  0  0  0  0  0  0  0  0  0  0
   -0.7500    4.2535    0.0000 C   0  0  0  0  0  0  0  0  0  0  0  0
    0.7500    4.2535    0.0000 C   0  0  0  0  0  0  0  0  0  0  0  0
    1.0105    5.7307    0.0000 C   0  0  0  0  0  0  0  0  0  0  0  0
    2.1595    3.7404    0.0000 C   0  0  0  0  0  0  0  0  0  0  0  0
    3.3086    2.7762    0.0000 C   0  0  0  0  0  0  0  0  0  0  0  0
    4.4577    3.7404    0.0000 C   0  0  0  0  0  0  0  0  0  0  0  0
    4.0586    1.4772    0.0000 C   0  0  0  0  0  0  0  0  0  0  0  0
    5.5182    1.1313    0.0000 O   0  0  0  0  0  0  0  0  0  0  0  0
    6.5475    2.2223    0.0000 C   0  0  0  0  0  0  0  0  0  0  0  0
    7.4433    1.0192    0.0000 O   0  0  0  0  0  0  0  0  0  0  0  0
    8.9331    1.1933    0.0000 C   0  0  0  0  0  0  0  0  0  0  0  0
   10.3927    0.8474    0.0000 C   0  0  0  0  0  0  0  0  0  0  0  0
    8.8459   -0.3042    0.0000 C   0  0  0  0  0  0  0  0  0  0  0  0
    9.5273    2.5706    0.0000 C   0  0  0  0  0  0  0  0  0  0  0  0
   10.7805    1.7464    0.0000 O   0  0  0  0  0  0  0  0  0  0  0  0
   12.1209    2.4196    0.0000 C   0  0  0  0  0  0  0  0  0  0  0  0
   12.2081    3.9170    0.0000 O   0  0  0  0  0  0  0  0  0  0  0  0
   13.3742    1.5953    0.0000 C   0  0  0  0  0  0  0  0  0  0  0  0
   12.5499    0.3421    0.0000 C   0  0  0  0  0  0  0  0  0  0  0  0
   14.6274    0.7710    0.0000 C   0  0  0  0  0  0  0  0  0  0  0  0
    8.6315    3.7738    0.0000 C   0  0  0  0  0  0  0  0  0  0  0  0
    9.9720    4.4470    0.0000 O   0  0  0  0  0  0  0  0  0  0  0  0
    7.1417    3.5997    0.0000 C   0  0  0  0  0  0  0  0  0  0  0  0
    7.2289    5.0971    0.0000 O   0  0  0  0  0  0  0  0  0  0  0  0
   -3.7388    4.2132    0.0000 C   0  0  0  0  0  0  0  0  0  0  0  0
   -5.1758    3.7830    0.0000 C   0  0  0  0  0  0  0  0  0  0  0  0
   -4.1690    5.6502    0.0000 O   0  0  0  0  0  0  0  0  0  0  0  0
    7.4909   -0.3042    0.0000 H   0  0  0  0  0  0  0  0  0  0  0  0
    5.9517   -2.6776    0.0000 H   0  0  0  0  0  0  0  0  0  0  0  0
    8.0788   -2.4728    0.0000 H   0  0  0  0  0  0  0  0  0  0  0  0
    6.3966    0.4290    0.0000 H   0  0  0  0  0  0  0  0  0  0  0  0
    5.2791   -1.6601    0.0000 H   0  0  0  0  0  0  0  0  0  0  0  0
    5.1549    0.2932    0.0000 H   0  0  0  0  0  0  0  0  0  0  0  0
    4.8077   -1.7499    0.0000 H   0  0  0  0  0  0  0  0  0  0  0  0
    3.6407   -4.9985    0.0000 H   0  0  0  0  0  0  0  0  0  0  0  0
    5.5547   -2.7175    0.0000 H   0  0  0  0  0  0  0  0  0  0  0  0
    5.6067   -4.7046    0.0000 H   0  0  0  0  0  0  0  0  0  0  0  0
    3.4079   -4.5720    0.0000 H   0  0  0  0  0  0  0  0  0  0  0  0
    3.3256   -6.0622    0.0000 H   0  0  0  0  0  0  0  0  0  0  0  0
    1.4848   -5.5612    0.0000 H   0  0  0  0  0  0  0  0  0  0  0  0
    0.1559   -5.6308    0.0000 H   0  0  0  0  0  0  0  0  0  0  0  0
   -1.0105   -5.7307    0.0000 H   0  0  0  0  0  0  0  0  0  0  0  0
   -2.9095   -5.0395    0.0000 H   0  0  0  0  0  0  0  0  0  0  0  0
   -4.3316   -3.8733    0.0000 H   0  0  0  0  0  0  0  0  0  0  0  0
   -4.9551   -3.3998    0.0000 H   0  0  0  0  0  0  0  0  0  0  0  0
   -6.1492   -0.6538    0.0000 H   0  0  0  0  0  0  0  0  0  0  0  0
   -5.6493   -4.1633    0.0000 H   0  0  0  0  0  0  0  0  0  0  0  0
  -10.9403   -5.2705    0.0000 H   0  0  0  0  0  0  0  0  0  0  0  0
  -11.6447   -4.0354    0.0000 H   0  0  0  0  0  0  0  0  0  0  0  0
   -9.1477   -2.3826    0.0000 H   0  0  0  0  0  0  0  0  0  0  0  0
  -11.0328   -1.7518    0.0000 H   0  0  0  0  0  0  0  0  0  0  0  0
   -9.6968   -7.3861    0.0000 H   0  0  0  0  0  0  0  0  0  0  0  0
  -14.4853   -3.8598    0.0000 H   0  0  0  0  0  0  0  0  0  0  0  0
  -11.9884   -5.5126    0.0000 H   0  0  0  0  0  0  0  0  0  0  0  0
  -13.7353   -2.5608    0.0000 H   0  0  0  0  0  0  0  0  0  0  0  0
  -11.3573   -4.3528    0.0000 H   0  0  0  0  0  0  0  0  0  0  0  0
  -11.8502   -1.9300    0.0000 H   0  0  0  0  0  0  0  0  0  0  0  0
  -18.4363   -8.5069    0.0000 H   0  0  0  0  0  0  0  0  0  0  0  0
  -13.9363  -11.1050    0.0000 H   0  0  0  0  0  0  0  0  0  0  0  0
   -7.1451   -7.6354    0.0000 H   0  0  0  0  0  0  0  0  0  0  0  0
   -8.1907   -9.1017    0.0000 H   0  0  0  0  0  0  0  0  0  0  0  0
   -5.4681   -4.9447    0.0000 H   0  0  0  0  0  0  0  0  0  0  0  0
   -5.5786   -8.8058    0.0000 H   0  0  0  0  0  0  0  0  0  0  0  0
   -8.3196   -7.6424    0.0000 H   0  0  0  0  0  0  0  0  0  0  0  0
   -7.4637   -9.4365    0.0000 H   0  0  0  0  0  0  0  0  0  0  0  0
   -4.8086    2.7675    0.0000 H   0  0  0  0  0  0  0  0  0  0  0  0
   -3.2973    4.7180    0.0000 H   0  0  0  0  0  0  0  0  0  0  0  0
   -1.8904    5.2161    0.0000 H   0  0  0  0  0  0  0  0  0  0  0  0
   -1.1886    5.6879    0.0000 H   0  0  0  0  0  0  0  0  0  0  0  0
    2.5084    5.6522    0.0000 H   0  0  0  0  0  0  0  0  0  0  0  0
   -0.4240    6.1693    0.0000 H   0  0  0  0  0  0  0  0  0  0  0  0
    1.2709    7.2079    0.0000 H   0  0  0  0  0  0  0  0  0  0  0  0
    2.9095    5.0395    0.0000 H   0  0  0  0  0  0  0  0  0  0  0  0
    5.5547    2.7175    0.0000 H   0  0  0  0  0  0  0  0  0  0  0  0
    3.6407    4.9985    0.0000 H   0  0  0  0  0  0  0  0  0  0  0  0
    5.4806    4.8375    0.0000 H   0  0  0  0  0  0  0  0  0  0  0  0
    5.0943    2.5622    0.0000 H   0  0  0  0  0  0  0  0  0  0  0  0
    7.7078    1.2717    0.0000 H   0  0  0  0  0  0  0  0  0  0  0  0
   10.2273   -0.6435    0.0000 H   0  0  0  0  0  0  0  0  0  0  0  0
   11.0815    2.1799    0.0000 H   0  0  0  0  0  0  0  0  0  0  0  0
   11.7992    0.3261    0.0000 H   0  0  0  0  0  0  0  0  0  0  0  0
   10.3216   -0.5733    0.0000 H   0  0  0  0  0  0  0  0  0  0  0  0
    7.3702   -0.0351    0.0000 H   0  0  0  0  0  0  0  0  0  0  0  0
    8.7587   -1.8016    0.0000 H   0  0  0  0  0  0  0  0  0  0  0  0
   10.5566    3.6617    0.0000 H   0  0  0  0  0  0  0  0  0  0  0  0
   14.1984    2.8485    0.0000 H   0  0  0  0  0  0  0  0  0  0  0  0
   13.6933   -0.6288    0.0000 H   0  0  0  0  0  0  0  0  0  0  0  0
   11.2055    1.0074    0.0000 H   0  0  0  0  0  0  0  0  0  0  0  0
   11.7256   -0.9112    0.0000 H   0  0  0  0  0  0  0  0  0  0  0  0
   13.9620   -0.5733    0.0000 H   0  0  0  0  0  0  0  0  0  0  0  0
   15.4517    2.0243    0.0000 H   0  0  0  0  0  0  0  0  0  0  0  0
   15.8806   -0.0532    0.0000 H   0  0  0  0  0  0  0  0  0  0  0  0
    8.3797    5.2525    0.0000 H   0  0  0  0  0  0  0  0  0  0  0  0
   10.0592    5.9445    0.0000 H   0  0  0  0  0  0  0  0  0  0  0  0
    5.7351    4.1209    0.0000 H   0  0  0  0  0  0  0  0  0  0  0  0
    8.4773    5.9287    0.0000 H   0  0  0  0  0  0  0  0  0  0  0  0
   -2.3650    4.8154    0.0000 H   0  0  0  0  0  0  0  0  0  0  0  0
   -5.7780    5.1569    0.0000 H   0  0  0  0  0  0  0  0  0  0  0  0
   -4.9240    2.3043    0.0000 H   0  0  0  0  0  0  0  0  0  0  0  0
   -6.6128    3.3528    0.0000 H   0  0  0  0  0  0  0  0  0  0  0  0
   -5.5755    6.1715    0.0000 H   0  0  0  0  0  0  0  0  0  0  0  0
  1  2  1  0
  2  3  1  0
  3  4  1  0
  4  5  2  0
  5  6  1  0
  5  7  1  0
  7  8  1  0
  7  9  1  0
  9 10  1  0
 10 11  2  0
 11 12  1  0
 12 13  2  0
 13 14  1  0
 14 15  1  0
 15 16  1  0
 16 17  1  0
 17 18  1  0
 18 19  1  0
 18 20  1  0
 20 21  1  0
 21 22  1  0
 22 23  2  0
 22 24  1  0
 24 25  2  0
 25 26  1  0
 26 27  1  0
 25 28  1  0
 28 29  1  0
 28 30  2  0
 30 31  1  0
 30 32  1  0
 32 33  1  0
 32 34  2  0
 34 35  1  0
 20 36  1  0
 36 37  1  0
 36 38  1  0
 38 39  1  0
 39 40  1  0
 13 41  1  0
 41 42  2  0
 41 43  1  0
 43 44  1  0
 44 45  1  0
 45 46  1  0
 46 47  2  0
 47 48  1  0
 47 49  1  0
 49 50  2  0
 50 51  1  0
 50 52  1  0
 52 53  1  0
 53 54  1  0
 54 55  1  0
 55 56  1  0
 56 57  1  0
 56 58  1  0
 56 59  1  0
 59 60  1  0
 60 61  1  0
 61 62  2  0
 61 63  1  0
 63 64  1  0
 63 65  1  0
 59 66  1  0
 66 67  1  0
 66 68  1  0
 68 69  1  0
 44 70  1  0
 70 71  1  0
 70 72  1  0
 52  3  1  0
 68 54  1  0
 38 16  1  0
 34 24  1  0
  1 73  1  0
  1 74  1  0
  1 75  1  0
  2 76  1  0
  2 77  1  0
  3 78  1  6
  4 79  1  0
  6 80  1  0
  6 81  1  0
  6 82  1  0
  7 83  1  6
  8 84  1  0
  9 85  1  0
  9 86  1  0
 10 87  1  0
 11 88  1  0
 12 89  1  0
 14 90  1  0
 14 91  1  0
 16 92  1  6
 18 93  1  6
 19 94  1  0
 19 95  1  0
 19 96  1  0
 20 97  1  1
 26 98  1  0
 26 99  1  0
 27100  1  0
 27101  1  0
 27102  1  0
 31103  1  0
 35104  1  0
 36105  1  6
 37106  1  0
 38107  1  6
 40108  1  0
 40109  1  0
 40110  1  0
 44111  1  0
 45112  1  0
 45113  1  0
 46114  1  0
 48115  1  0
 48116  1  0
 48117  1  0
 49118  1  0
 51119  1  0
 51120  1  0
 51121  1  0
 52122  1  1
 54123  1  6
 57124  1  0
 57125  1  0
 57126  1  0
 58127  1  0
 58128  1  0
 58129  1  0
 59130  1  1
 63131  1  0
 64132  1  0
 64133  1  0
 64134  1  0
 65135  1  0
 65136  1  0
 65137  1  0
 66138  1  6
 67139  1  0
 68140  1  6
 69141  1  0
 70142  1  6
 71143  1  0
 71144  1  0
 71145  1  0
 72146  1  0
M  END
$$$$
