
     RDKit          3D

 23 23  0  0  0  0  0  0  0  0999 V2000
    3.6251   -0.0122    0.4147 C   0  0  0  0  0  0  0  0  0  0  0  0
    2.3366    0.1339   -0.2496 N   0  0  0  0  0  0  0  0  0  0  0  0
    1.8882    1.2174   -0.9129 C   0  0  0  0  0  0  0  0  0  0  0  0
    0.6086    1.0802   -1.3208 N   0  0  0  0  0  0  0  0  0  0  0  0
    0.2568   -0.1476   -0.8838 C   0  0  0  0  0  0  0  0  0  0  0  0
   -1.1180   -0.7278   -1.0336 C   0  0  0  0  0  0  0  0  0  0  0  0
   -1.9703   -0.4984    0.2315 C   0  0  2  0  0  0  0  0  0  0  0  0
   -3.2513   -1.2015    0.1351 N   0  0  0  0  0  0  0  0  0  0  0  0
   -2.2149    0.9665    0.4673 C   0  0  0  0  0  0  0  0  0  0  0  0
   -1.5986    1.6061    1.5384 O   0  0  0  0  0  0  0  0  0  0  0  0
   -2.9542    1.6235   -0.3146 O   0  0  0  0  0  0  0  0  0  0  0  0
    1.3079   -0.7268   -0.2066 C   0  0  0  0  0  0  0  0  0  0  0  0
    3.5571    0.3861    1.4486 H   0  0  0  0  0  0  0  0  0  0  0  0
    3.9151   -1.0838    0.4539 H   0  0  0  0  0  0  0  0  0  0  0  0
    4.4070    0.5466   -0.1420 H   0  0  0  0  0  0  0  0  0  0  0  0
    2.4779    2.1087   -1.0850 H   0  0  0  0  0  0  0  0  0  0  0  0
   -1.0226   -1.8190   -1.2229 H   0  0  0  0  0  0  0  0  0  0  0  0
   -1.6150   -0.2763   -1.9200 H   0  0  0  0  0  0  0  0  0  0  0  0
   -1.4197   -0.9056    1.1095 H   0  0  0  0  0  0  0  0  0  0  0  0
   -3.0660   -2.2308    0.1081 H   0  0  0  0  0  0  0  0  0  0  0  0
   -3.7225   -0.9486   -0.7647 H   0  0  0  0  0  0  0  0  0  0  0  0
   -1.7412    2.5951    1.7048 H   0  0  0  0  0  0  0  0  0  0  0  0
    1.3140   -1.6857    0.2962 H   0  0  0  0  0  0  0  0  0  0  0  0
  1  2  1  0
  2  3  1  0
  3  4  2  0
  4  5  1  0
  5  6  1  0
  6  7  1  0
  7  8  1  0
  7  9  1  0
  9 10  1  0
  9 11  2  0
  5 12  2  0
 12  2  1  0
  1 13  1  0
  1 14  1  0
  1 15  1  0
  3 16  1  0
  6 17  1  0
  6 18  1  0
  7 19  1  1
  8 20  1  0
  8 21  1  0
 10 22  1  0
 12 23  1  0
M  END
$$$$
