
     RDKit          3D

 41 43  0  0  0  0  0  0  0  0999 V2000
   -1.0865    1.0405    1.3860 C   0  0  1  0  0  0  0  0  0  0  0  0
   -1.4458    0.3268    2.6920 C   0  0  0  0  0  0  0  0  0  0  0  0
   -0.2390   -0.5374    3.0603 C   0  0  0  0  0  0  0  0  0  0  0  0
    0.7100   -0.5146    1.8655 C   0  0  0  0  0  0  0  0  0  0  0  0
    0.1593    0.4454    0.9206 N   0  0  0  0  0  0  0  0  0  0  0  0
    0.8234    0.8490   -0.2952 C   0  0  0  0  0  0  0  0  0  0  0  0
    0.2999    1.7238   -1.0367 O   0  0  0  0  0  0  0  0  0  0  0  0
    2.0900    0.2291   -0.7243 C   0  0  0  0  0  0  0  0  0  0  0  0
    2.1401   -0.5455   -1.8977 C   0  0  0  0  0  0  0  0  0  0  0  0
    0.9845   -0.7496   -2.6518 O   0  0  0  0  0  0  0  0  0  0  0  0
    3.3547   -1.1176   -2.3041 C   0  0  0  0  0  0  0  0  0  0  0  0
    4.5181   -0.9128   -1.5557 C   0  0  0  0  0  0  0  0  0  0  0  0
    5.7150   -1.4902   -1.9734 O   0  0  0  0  0  0  0  0  0  0  0  0
    4.4705   -0.1271   -0.3973 C   0  0  0  0  0  0  0  0  0  0  0  0
    3.2641    0.4463    0.0127 C   0  0  0  0  0  0  0  0  0  0  0  0
   -2.2091    0.9621    0.3521 C   0  0  0  0  0  0  0  0  0  0  0  0
   -2.9599    2.1325    0.1237 C   0  0  0  0  0  0  0  0  0  0  0  0
   -4.0005    2.1502   -0.8044 C   0  0  0  0  0  0  0  0  0  0  0  0
   -4.3171    0.9998   -1.5202 C   0  0  0  0  0  0  0  0  0  0  0  0
   -3.6014   -0.1767   -1.3038 C   0  0  0  0  0  0  0  0  0  0  0  0
   -2.5565   -0.2237   -0.3621 C   0  0  0  0  0  0  0  0  0  0  0  0
   -1.8243   -1.5299   -0.1870 C   0  0  0  0  0  0  0  0  0  0  0  0
   -0.8673    2.1055    1.6268 H   0  0  0  0  0  0  0  0  0  0  0  0
   -1.6526    1.0672    3.4958 H   0  0  0  0  0  0  0  0  0  0  0  0
   -2.3493   -0.3122    2.5831 H   0  0  0  0  0  0  0  0  0  0  0  0
    0.2681   -0.1140    3.9552 H   0  0  0  0  0  0  0  0  0  0  0  0
   -0.5556   -1.5782    3.2906 H   0  0  0  0  0  0  0  0  0  0  0  0
    0.7743   -1.5179    1.3922 H   0  0  0  0  0  0  0  0  0  0  0  0
    1.7189   -0.1967    2.2000 H   0  0  0  0  0  0  0  0  0  0  0  0
    0.9940   -1.3070   -3.4980 H   0  0  0  0  0  0  0  0  0  0  0  0
    3.3956   -1.7205   -3.2025 H   0  0  0  0  0  0  0  0  0  0  0  0
    6.5754   -1.3600   -1.4540 H   0  0  0  0  0  0  0  0  0  0  0  0
    5.3687    0.0453    0.1820 H   0  0  0  0  0  0  0  0  0  0  0  0
    3.2496    1.0717    0.8966 H   0  0  0  0  0  0  0  0  0  0  0  0
   -2.7372    3.0442    0.6644 H   0  0  0  0  0  0  0  0  0  0  0  0
   -4.5615    3.0609   -0.9703 H   0  0  0  0  0  0  0  0  0  0  0  0
   -5.1217    1.0182   -2.2441 H   0  0  0  0  0  0  0  0  0  0  0  0
   -3.8693   -1.0575   -1.8745 H   0  0  0  0  0  0  0  0  0  0  0  0
   -1.7225   -1.7886    0.8833 H   0  0  0  0  0  0  0  0  0  0  0  0
   -2.3725   -2.3697   -0.6646 H   0  0  0  0  0  0  0  0  0  0  0  0
   -0.8247   -1.4709   -0.6611 H   0  0  0  0  0  0  0  0  0  0  0  0
  1  2  1  0
  2  3  1  0
  3  4  1  0
  4  5  1  0
  5  6  1  0
  6  7  2  0
  6  8  1  0
  8  9  2  0
  9 10  1  0
  9 11  1  0
 11 12  2  0
 12 13  1  0
 12 14  1  0
 14 15  2  0
  1 16  1  0
 16 17  2  0
 17 18  1  0
 18 19  2  0
 19 20  1  0
 20 21  2  0
 21 22  1  0
  5  1  1  0
 15  8  1  0
 21 16  1  0
  1 23  1  1
  2 24  1  0
  2 25  1  0
  3 26  1  0
  3 27  1  0
  4 28  1  0
  4 29  1  0
 10 30  1  0
 11 31  1  0
 13 32  1  0
 14 33  1  0
 15 34  1  0
 17 35  1  0
 18 36  1  0
 19 37  1  0
 20 38  1  0
 22 39  1  0
 22 40  1  0
 22 41  1  0
M  END
$$$$
