
     RDKit          3D

 47 48  0  0  0  0  0  0  0  0999 V2000
    8.5907    0.8505   -0.1256 C   0  0  0  0  0  0  0  0  0  0  0  0
    8.1280   -0.4653   -0.4121 O   0  0  0  0  0  0  0  0  0  0  0  0
    6.8065   -0.9016   -0.2273 C   0  0  0  0  0  0  0  0  0  0  0  0
    5.7978   -0.0533    0.2711 C   0  0  0  0  0  0  0  0  0  0  0  0
    4.4817   -0.5179    0.4347 C   0  0  0  0  0  0  0  0  0  0  0  0
    3.4604    0.4147    0.9729 C   0  0  0  0  0  0  0  0  0  0  0  0
    2.1409    0.2544    0.7979 C   0  0  0  0  0  0  0  0  0  0  0  0
    1.1537    1.2126    1.3356 C   0  0  0  0  0  0  0  0  0  0  0  0
    1.5288    2.2289    1.9819 O   0  0  0  0  0  0  0  0  0  0  0  0
   -0.3124    1.0056    1.0777 C   0  0  0  0  0  0  0  0  0  0  0  0
   -0.7502    1.5660   -0.2553 C   0  0  0  0  0  0  0  0  0  0  0  0
    0.0985    2.0886   -1.0288 O   0  0  0  0  0  0  0  0  0  0  0  0
   -2.1602    1.5230   -0.6988 C   0  0  0  0  0  0  0  0  0  0  0  0
   -3.1420    0.9539    0.0174 C   0  0  0  0  0  0  0  0  0  0  0  0
   -4.5563    0.8982   -0.4287 C   0  0  0  0  0  0  0  0  0  0  0  0
   -5.3959   -0.0884    0.1155 C   0  0  0  0  0  0  0  0  0  0  0  0
   -6.7492   -0.1767   -0.2673 C   0  0  0  0  0  0  0  0  0  0  0  0
   -7.6110   -1.1569    0.2496 O   0  0  0  0  0  0  0  0  0  0  0  0
   -7.2283   -2.1502    1.1954 C   0  0  0  0  0  0  0  0  0  0  0  0
   -7.2618    0.7405   -1.1940 C   0  0  0  0  0  0  0  0  0  0  0  0
   -8.5994    0.6581   -1.5777 O   0  0  0  0  0  0  0  0  0  0  0  0
   -6.4351    1.7363   -1.7274 C   0  0  0  0  0  0  0  0  0  0  0  0
   -5.0946    1.8202   -1.3463 C   0  0  0  0  0  0  0  0  0  0  0  0
    4.1880   -1.8577    0.1174 C   0  0  0  0  0  0  0  0  0  0  0  0
    5.1851   -2.7012   -0.3761 C   0  0  0  0  0  0  0  0  0  0  0  0
    6.4905   -2.2274   -0.5519 C   0  0  0  0  0  0  0  0  0  0  0  0
    7.4836   -3.0715   -1.0463 O   0  0  0  0  0  0  0  0  0  0  0  0
    8.4518    1.0780    0.9525 H   0  0  0  0  0  0  0  0  0  0  0  0
    8.0446    1.5913   -0.7471 H   0  0  0  0  0  0  0  0  0  0  0  0
    9.6718    0.9146   -0.3653 H   0  0  0  0  0  0  0  0  0  0  0  0
    6.0280    0.9730    0.5255 H   0  0  0  0  0  0  0  0  0  0  0  0
    3.8166    1.2932    1.4986 H   0  0  0  0  0  0  0  0  0  0  0  0
    1.7617   -0.5791    0.2229 H   0  0  0  0  0  0  0  0  0  0  0  0
   -0.5385   -0.0820    1.1092 H   0  0  0  0  0  0  0  0  0  0  0  0
   -0.8939    1.4980    1.8869 H   0  0  0  0  0  0  0  0  0  0  0  0
   -2.3769    1.9550   -1.6664 H   0  0  0  0  0  0  0  0  0  0  0  0
   -2.9034    0.4644    0.9528 H   0  0  0  0  0  0  0  0  0  0  0  0
   -4.9868   -0.7905    0.8302 H   0  0  0  0  0  0  0  0  0  0  0  0
   -6.4246   -2.7899    0.7735 H   0  0  0  0  0  0  0  0  0  0  0  0
   -8.1058   -2.7884    1.4256 H   0  0  0  0  0  0  0  0  0  0  0  0
   -6.8822   -1.6697    2.1349 H   0  0  0  0  0  0  0  0  0  0  0  0
   -9.0010    1.3068   -2.2447 H   0  0  0  0  0  0  0  0  0  0  0  0
   -6.8339    2.4529   -2.4342 H   0  0  0  0  0  0  0  0  0  0  0  0
   -4.4963    2.6227   -1.7547 H   0  0  0  0  0  0  0  0  0  0  0  0
    3.2000   -2.2692    0.2693 H   0  0  0  0  0  0  0  0  0  0  0  0
    4.9431   -3.7290   -0.6155 H   0  0  0  0  0  0  0  0  0  0  0  0
    7.2878   -4.0356   -1.2893 H   0  0  0  0  0  0  0  0  0  0  0  0
  1  2  1  0
  2  3  1  0
  3  4  2  0
  4  5  1  0
  5  6  1  0
  6  7  2  0
  7  8  1  0
  8  9  2  0
  8 10  1  0
 10 11  1  0
 11 12  2  0
 11 13  1  0
 13 14  2  0
 14 15  1  0
 15 16  2  0
 16 17  1  0
 17 18  1  0
 18 19  1  0
 17 20  2  0
 20 21  1  0
 20 22  1  0
 22 23  2  0
  5 24  2  0
 24 25  1  0
 25 26  2  0
 26 27  1  0
 26  3  1  0
 23 15  1  0
  1 28  1  0
  1 29  1  0
  1 30  1  0
  4 31  1  0
  6 32  1  0
  7 33  1  0
 10 34  1  0
 10 35  1  0
 13 36  1  0
 14 37  1  0
 16 38  1  0
 19 39  1  0
 19 40  1  0
 19 41  1  0
 21 42  1  0
 22 43  1  0
 23 44  1  0
 24 45  1  0
 25 46  1  0
 27 47  1  0
M  END
$$$$
