
     RDKit          3D

 49 52  0  0  0  0  0  0  0  0999 V2000
   -2.1659    0.1273   -0.3848 C   0  0  2  0  0  0  0  0  0  0  0  0
   -3.1879    0.7645   -1.3306 C   0  0  0  0  0  0  0  0  0  0  0  0
   -4.5160    0.6148   -0.5681 C   0  0  0  0  0  0  0  0  0  0  0  0
   -4.0914    0.4336    0.8572 C   0  0  0  0  0  0  0  0  0  0  0  0
   -4.8749    0.2821    1.7820 O   0  0  0  0  0  0  0  0  0  0  0  0
   -2.6117    0.5385    1.0219 C   0  0  2  0  0  0  0  0  0  0  0  0
   -2.3017    2.0130    1.4048 C   0  0  0  0  0  0  0  0  0  0  0  0
   -1.9673   -0.4457    2.0132 C   0  0  0  0  0  0  0  0  0  0  0  0
   -0.4240   -0.3809    1.9091 C   0  0  0  0  0  0  0  0  0  0  0  0
    0.1355   -0.5093    0.4441 C   0  0  1  0  0  0  0  0  0  0  0  0
   -0.6569    0.3430   -0.6101 C   0  0  1  0  0  0  0  0  0  0  0  0
   -0.2614   -0.0374   -2.0610 C   0  0  0  0  0  0  0  0  0  0  0  0
    1.0941   -0.7449   -2.1664 C   0  0  0  0  0  0  0  0  0  0  0  0
    2.1400   -0.1543   -1.2014 C   0  0  2  0  0  0  0  0  0  0  0  0
    3.5188   -0.7970   -1.5260 C   0  0  0  0  0  0  0  0  0  0  0  0
    4.4550   -0.7882   -0.3550 C   0  0  0  0  0  0  0  0  0  0  0  0
    5.6173   -0.4428   -0.5018 O   0  0  0  0  0  0  0  0  0  0  0  0
    3.9821   -1.2644    0.9860 C   0  0  0  0  0  0  0  0  0  0  0  0
    2.4548   -1.4397    1.0103 C   0  0  0  0  0  0  0  0  0  0  0  0
    1.6972   -0.2589    0.3232 C   0  0  2  0  0  0  0  0  0  0  0  0
    2.0903    1.0710    1.0348 C   0  0  0  0  0  0  0  0  0  0  0  0
   -2.3322   -0.9743   -0.4976 H   0  0  0  0  0  0  0  0  0  0  0  0
   -2.9486    1.8367   -1.5002 H   0  0  0  0  0  0  0  0  0  0  0  0
   -3.2311    0.2385   -2.3084 H   0  0  0  0  0  0  0  0  0  0  0  0
   -5.1482    1.5210   -0.6822 H   0  0  0  0  0  0  0  0  0  0  0  0
   -5.0654   -0.2879   -0.9121 H   0  0  0  0  0  0  0  0  0  0  0  0
   -1.2183    2.2346    1.4396 H   0  0  0  0  0  0  0  0  0  0  0  0
   -2.7177    2.2347    2.4111 H   0  0  0  0  0  0  0  0  0  0  0  0
   -2.7611    2.7253    0.6871 H   0  0  0  0  0  0  0  0  0  0  0  0
   -2.3059   -1.4848    1.8034 H   0  0  0  0  0  0  0  0  0  0  0  0
   -2.2792   -0.2004    3.0519 H   0  0  0  0  0  0  0  0  0  0  0  0
   -0.0932    0.5599    2.3865 H   0  0  0  0  0  0  0  0  0  0  0  0
   -0.0202   -1.2049    2.5325 H   0  0  0  0  0  0  0  0  0  0  0  0
   -0.0495   -1.5743    0.1731 H   0  0  0  0  0  0  0  0  0  0  0  0
   -0.4196    1.4177   -0.4804 H   0  0  0  0  0  0  0  0  0  0  0  0
   -0.2382    0.8867   -2.6799 H   0  0  0  0  0  0  0  0  0  0  0  0
   -1.0156   -0.7121   -2.5216 H   0  0  0  0  0  0  0  0  0  0  0  0
    0.9613   -1.8289   -1.9532 H   0  0  0  0  0  0  0  0  0  0  0  0
    1.4539   -0.6589   -3.2159 H   0  0  0  0  0  0  0  0  0  0  0  0
    2.2236    0.9234   -1.4743 H   0  0  0  0  0  0  0  0  0  0  0  0
    3.9806   -0.2679   -2.3890 H   0  0  0  0  0  0  0  0  0  0  0  0
    3.3907   -1.8608   -1.8249 H   0  0  0  0  0  0  0  0  0  0  0  0
    4.4725   -2.2315    1.2278 H   0  0  0  0  0  0  0  0  0  0  0  0
    4.2835   -0.5272    1.7612 H   0  0  0  0  0  0  0  0  0  0  0  0
    2.1482   -1.5471    2.0710 H   0  0  0  0  0  0  0  0  0  0  0  0
    2.1968   -2.3924    0.4966 H   0  0  0  0  0  0  0  0  0  0  0  0
    1.4029    1.8975    0.7643 H   0  0  0  0  0  0  0  0  0  0  0  0
    3.1123    1.3956    0.7463 H   0  0  0  0  0  0  0  0  0  0  0  0
    2.0916    0.9577    2.1393 H   0  0  0  0  0  0  0  0  0  0  0  0
  1  2  1  0
  2  3  1  0
  3  4  1  0
  4  5  2  0
  4  6  1  0
  6  7  1  1
  6  8  1  0
  8  9  1  0
  9 10  1  0
 10 11  1  0
 11 12  1  0
 12 13  1  0
 13 14  1  0
 14 15  1  0
 15 16  1  0
 16 17  2  0
 16 18  1  0
 18 19  1  0
 19 20  1  0
 20 21  1  1
  6  1  1  0
 20 10  1  0
 11  1  1  0
 20 14  1  0
  1 22  1  1
  2 23  1  0
  2 24  1  0
  3 25  1  0
  3 26  1  0
  7 27  1  0
  7 28  1  0
  7 29  1  0
  8 30  1  0
  8 31  1  0
  9 32  1  0
  9 33  1  0
 10 34  1  6
 11 35  1  1
 12 36  1  0
 12 37  1  0
 13 38  1  0
 13 39  1  0
 14 40  1  6
 15 41  1  0
 15 42  1  0
 18 43  1  0
 18 44  1  0
 19 45  1  0
 19 46  1  0
 21 47  1  0
 21 48  1  0
 21 49  1  0
M  END
$$$$
