
     RDKit          3D

 48 51  0  0  0  0  0  0  0  0999 V2000
    2.8395   -1.4617    0.0893 C   0  0  2  0  0  0  0  0  0  0  0  0
    2.4870   -2.0190    1.4871 C   0  0  0  0  0  0  0  0  0  0  0  0
    1.8245   -0.8978    2.3355 C   0  0  0  0  0  0  0  0  0  0  0  0
    1.6113    0.3287    1.5221 N   0  0  0  0  0  0  0  0  0  0  0  0
    2.9457    0.8422    1.1129 C   0  0  0  0  0  0  0  0  0  0  0  0
    3.7428   -0.2212    0.2979 C   0  0  2  0  0  0  0  0  0  0  0  0
    4.2796    0.3294   -1.0060 C   0  0  0  0  0  0  0  0  0  0  0  0
    5.1699    1.3259   -1.0263 C   0  0  0  0  0  0  0  0  0  0  0  0
    0.7722   -0.0345    0.3412 C   0  0  2  0  0  0  0  0  0  0  0  0
    1.5233   -1.0295   -0.5942 C   0  0  0  0  0  0  0  0  0  0  0  0
    0.1266    1.2082   -0.3539 C   0  0  1  0  0  0  0  0  0  0  0  0
    1.0493    2.0801   -0.9648 O   0  0  0  0  0  0  0  0  0  0  0  0
   -0.9792    0.7931   -1.3278 C   0  0  0  0  0  0  0  0  0  0  0  0
   -2.2973    0.4624   -0.8923 C   0  0  0  0  0  0  0  0  0  0  0  0
   -2.6940    0.4902    0.4650 C   0  0  0  0  0  0  0  0  0  0  0  0
   -4.0018    0.1646    0.8446 C   0  0  0  0  0  0  0  0  0  0  0  0
   -4.3285    0.2126    2.2085 O   0  0  0  0  0  0  0  0  0  0  0  0
   -5.6135   -0.0934    2.7400 C   0  0  0  0  0  0  0  0  0  0  0  0
   -4.9373   -0.1980   -0.1386 C   0  0  0  0  0  0  0  0  0  0  0  0
   -4.5643   -0.2414   -1.4807 C   0  0  0  0  0  0  0  0  0  0  0  0
   -3.2589    0.0790   -1.8632 C   0  0  0  0  0  0  0  0  0  0  0  0
   -2.9198    0.0101   -3.1756 N   0  0  0  0  0  0  0  0  0  0  0  0
   -1.6687    0.2953   -3.6074 C   0  0  0  0  0  0  0  0  0  0  0  0
   -0.6840    0.6805   -2.7018 C   0  0  0  0  0  0  0  0  0  0  0  0
    3.3594   -2.2379   -0.5143 H   0  0  0  0  0  0  0  0  0  0  0  0
    3.4059   -2.3877    1.9933 H   0  0  0  0  0  0  0  0  0  0  0  0
    1.7919   -2.8813    1.3854 H   0  0  0  0  0  0  0  0  0  0  0  0
    0.8544   -1.2550    2.7465 H   0  0  0  0  0  0  0  0  0  0  0  0
    2.4629   -0.6634    3.2163 H   0  0  0  0  0  0  0  0  0  0  0  0
    3.5283    1.1095    2.0226 H   0  0  0  0  0  0  0  0  0  0  0  0
    2.8446    1.8008    0.5705 H   0  0  0  0  0  0  0  0  0  0  0  0
    4.6251   -0.5411    0.8983 H   0  0  0  0  0  0  0  0  0  0  0  0
    3.9777   -0.1114   -1.9513 H   0  0  0  0  0  0  0  0  0  0  0  0
    5.5190    1.7815   -0.1046 H   0  0  0  0  0  0  0  0  0  0  0  0
    5.5553    1.6910   -1.9727 H   0  0  0  0  0  0  0  0  0  0  0  0
   -0.1016   -0.6054    0.7320 H   0  0  0  0  0  0  0  0  0  0  0  0
    0.8908   -1.9282   -0.7691 H   0  0  0  0  0  0  0  0  0  0  0  0
    1.7267   -0.6108   -1.5976 H   0  0  0  0  0  0  0  0  0  0  0  0
   -0.3338    1.8214    0.4458 H   0  0  0  0  0  0  0  0  0  0  0  0
    1.7036    1.5539   -1.4857 H   0  0  0  0  0  0  0  0  0  0  0  0
   -2.0066    0.7485    1.2557 H   0  0  0  0  0  0  0  0  0  0  0  0
   -5.5876    0.0262    3.8425 H   0  0  0  0  0  0  0  0  0  0  0  0
   -6.3738    0.6014    2.3248 H   0  0  0  0  0  0  0  0  0  0  0  0
   -5.8847   -1.1438    2.5026 H   0  0  0  0  0  0  0  0  0  0  0  0
   -5.9546   -0.4536    0.1247 H   0  0  0  0  0  0  0  0  0  0  0  0
   -5.2946   -0.5305   -2.2269 H   0  0  0  0  0  0  0  0  0  0  0  0
   -1.4357    0.2206   -4.6612 H   0  0  0  0  0  0  0  0  0  0  0  0
    0.3028    0.8894   -3.0892 H   0  0  0  0  0  0  0  0  0  0  0  0
  1  2  1  0
  2  3  1  0
  3  4  1  0
  4  5  1  0
  5  6  1  0
  6  7  1  0
  7  8  2  3
  4  9  1  0
  9 10  1  0
  9 11  1  0
 11 12  1  0
 11 13  1  0
 13 14  1  0
 14 15  2  0
 15 16  1  0
 16 17  1  0
 17 18  1  0
 16 19  2  0
 19 20  1  0
 20 21  2  0
 21 22  1  0
 22 23  2  0
 23 24  1  0
  6  1  1  0
 24 13  2  0
 10  1  1  0
 21 14  1  0
  1 25  1  6
  2 26  1  0
  2 27  1  0
  3 28  1  0
  3 29  1  0
  5 30  1  0
  5 31  1  0
  6 32  1  1
  7 33  1  0
  8 34  1  0
  8 35  1  0
  9 36  1  1
 10 37  1  0
 10 38  1  0
 11 39  1  1
 12 40  1  0
 15 41  1  0
 18 42  1  0
 18 43  1  0
 18 44  1  0
 19 45  1  0
 20 46  1  0
 23 47  1  0
 24 48  1  0
M  END
$$$$
