
     RDKit          3D

 12 11  0  0  0  0  0  0  0  0999 V2000
    1.4016    0.2186    0.3282 C   0  0  0  0  0  0  0  0  0  0  0  0
    0.3409   -0.4185   -0.5671 C   0  0  0  0  0  0  0  0  0  0  0  0
   -1.0612    0.1018   -0.2483 C   0  0  0  0  0  0  0  0  0  0  0  0
   -1.4380   -0.2880    1.0436 O   0  0  0  0  0  0  0  0  0  0  0  0
    2.4040   -0.1685    0.0484 H   0  0  0  0  0  0  0  0  0  0  0  0
    1.4002    1.3224    0.2031 H   0  0  0  0  0  0  0  0  0  0  0  0
    1.2118   -0.0306    1.3937 H   0  0  0  0  0  0  0  0  0  0  0  0
    0.5798   -0.1867   -1.6276 H   0  0  0  0  0  0  0  0  0  0  0  0
    0.3656   -1.5227   -0.4409 H   0  0  0  0  0  0  0  0  0  0  0  0
   -1.7769   -0.3224   -0.9872 H   0  0  0  0  0  0  0  0  0  0  0  0
   -1.0807    1.2116   -0.3341 H   0  0  0  0  0  0  0  0  0  0  0  0
   -2.3470    0.0829    1.1883 H   0  0  0  0  0  0  0  0  0  0  0  0
  1  2  1  0
  2  3  1  0
  3  4  1  0
  1  5  1  0
  1  6  1  0
  1  7  1  0
  2  8  1  0
  2  9  1  0
  3 10  1  0
  3 11  1  0
  4 12  1  0
M  END
$$$$
