
     RDKit          3D

 40 43  0  0  0  0  0  0  0  0999 V2000
   -0.2756    0.7586   -0.7686 C   0  0  2  0  0  0  0  0  0  0  0  0
    0.2241    1.0226   -2.1297 C   0  0  0  0  0  0  0  0  0  0  0  0
    0.6176    1.2304   -3.1980 N   0  0  0  0  0  0  0  0  0  0  0  0
    0.7353   -0.1113   -0.0709 C   0  0  0  0  0  0  0  0  0  0  0  0
    0.6778   -1.4884   -0.0678 C   0  0  0  0  0  0  0  0  0  0  0  0
    1.7745   -2.0288    0.5241 N   0  0  0  0  0  0  0  0  0  0  0  0
    2.0928   -3.4501    0.6628 C   0  0  0  0  0  0  0  0  0  0  0  0
    2.5516   -0.9699    0.8600 C   0  0  0  0  0  0  0  0  0  0  0  0
    3.8251   -0.9784    1.4412 C   0  0  0  0  0  0  0  0  0  0  0  0
    4.4598    0.2579    1.6672 C   0  0  0  0  0  0  0  0  0  0  0  0
    6.0548    0.2971    2.3955 Cl  0  0  0  0  0  0  0  0  0  0  0  0
    3.8250    1.4663    1.3037 C   0  0  0  0  0  0  0  0  0  0  0  0
    2.5513    1.4521    0.7108 C   0  0  0  0  0  0  0  0  0  0  0  0
    1.9416    0.2158    0.5093 C   0  0  0  0  0  0  0  0  0  0  0  0
   -0.4459   -2.1742   -0.7142 C   0  0  0  0  0  0  0  0  0  0  0  0
   -0.4522   -3.4215   -0.8855 O   0  0  0  0  0  0  0  0  0  0  0  0
   -1.5312   -1.3680   -1.1990 N   0  0  0  0  0  0  0  0  0  0  0  0
   -1.6869    0.0441   -0.7778 C   0  0  0  0  0  0  0  0  0  0  0  0
   -2.3041    0.0593    0.6585 C   0  0  0  0  0  0  0  0  0  0  0  0
   -3.2185    1.2720    0.9259 C   0  0  0  0  0  0  0  0  0  0  0  0
   -2.7928    2.4284    0.1328 N   0  0  0  0  0  0  0  0  0  0  0  0
   -2.9952    2.2002   -1.3089 C   0  0  0  0  0  0  0  0  0  0  0  0
   -2.6855    0.7489   -1.7379 C   0  0  0  0  0  0  0  0  0  0  0  0
   -0.3351    1.7295   -0.2345 H   0  0  0  0  0  0  0  0  0  0  0  0
    2.4675   -3.8445   -0.3046 H   0  0  0  0  0  0  0  0  0  0  0  0
    1.1889   -4.0151    0.9710 H   0  0  0  0  0  0  0  0  0  0  0  0
    2.8595   -3.6128    1.4464 H   0  0  0  0  0  0  0  0  0  0  0  0
    4.3224   -1.9010    1.7059 H   0  0  0  0  0  0  0  0  0  0  0  0
    4.3223    2.4123    1.4752 H   0  0  0  0  0  0  0  0  0  0  0  0
    2.0645    2.3735    0.4184 H   0  0  0  0  0  0  0  0  0  0  0  0
   -2.2675   -1.8263   -1.7830 H   0  0  0  0  0  0  0  0  0  0  0  0
   -1.5033    0.0328    1.4291 H   0  0  0  0  0  0  0  0  0  0  0  0
   -2.9127   -0.8586    0.8169 H   0  0  0  0  0  0  0  0  0  0  0  0
   -4.2754    1.0139    0.6857 H   0  0  0  0  0  0  0  0  0  0  0  0
   -3.1768    1.5289    2.0069 H   0  0  0  0  0  0  0  0  0  0  0  0
   -3.3723    3.2523    0.4177 H   0  0  0  0  0  0  0  0  0  0  0  0
   -4.0416    2.4512   -1.5946 H   0  0  0  0  0  0  0  0  0  0  0  0
   -2.3247    2.8894   -1.8654 H   0  0  0  0  0  0  0  0  0  0  0  0
   -2.3182    0.7334   -2.7865 H   0  0  0  0  0  0  0  0  0  0  0  0
   -3.6410    0.1775   -1.7379 H   0  0  0  0  0  0  0  0  0  0  0  0
  1  2  1  0
  2  3  3  0
  1  4  1  0
  4  5  2  0
  5  6  1  0
  6  7  1  0
  6  8  1  0
  8  9  2  0
  9 10  1  0
 10 11  1  0
 10 12  2  0
 12 13  1  0
 13 14  2  0
  5 15  1  0
 15 16  2  0
 15 17  1  0
 17 18  1  0
 18 19  1  0
 19 20  1  0
 20 21  1  0
 21 22  1  0
 22 23  1  0
 18  1  1  0
 23 18  1  0
 14  4  1  0
 14  8  1  0
  1 24  1  1
  7 25  1  0
  7 26  1  0
  7 27  1  0
  9 28  1  0
 12 29  1  0
 13 30  1  0
 17 31  1  0
 19 32  1  0
 19 33  1  0
 20 34  1  0
 20 35  1  0
 21 36  1  0
 22 37  1  0
 22 38  1  0
 23 39  1  0
 23 40  1  0
M  END
$$$$
