
     RDKit          3D

 57 60  0  0  0  0  0  0  0  0999 V2000
    1.3594   -0.8492    0.0370 C   0  0  2  0  0  0  0  0  0  0  0  0
    2.2129   -1.8944    0.7460 C   0  0  0  0  0  0  0  0  0  0  0  0
    3.6604   -1.5087    0.3898 C   0  0  0  0  0  0  0  0  0  0  0  0
    3.5812   -0.1501   -0.3572 C   0  0  2  0  0  0  0  0  0  0  0  0
    4.7569    0.7968   -0.1592 C   0  0  0  0  0  0  0  0  0  0  0  0
    5.8897    0.5074    0.7845 C   0  0  0  0  0  0  0  0  0  0  0  0
    4.7893    1.8320   -0.8075 O   0  0  0  0  0  0  0  0  0  0  0  0
    2.2071    0.4277    0.0613 C   0  0  2  0  0  0  0  0  0  0  0  0
    2.3245    1.0789    1.4786 C   0  0  0  0  0  0  0  0  0  0  0  0
    1.5899    1.4191   -0.9543 C   0  0  0  0  0  0  0  0  0  0  0  0
    0.0921    1.7148   -0.6596 C   0  0  2  0  0  0  0  0  0  0  0  0
   -0.0180    2.5674    0.4486 O   0  0  0  0  0  0  0  0  0  0  0  0
   -0.7676    0.4115   -0.4653 C   0  0  1  0  0  0  0  0  0  0  0  0
   -0.0989   -0.6244    0.4986 C   0  0  1  0  0  0  0  0  0  0  0  0
   -0.8740   -1.9532    0.4559 C   0  0  0  0  0  0  0  0  0  0  0  0
   -2.3398   -1.7668    0.8673 C   0  0  2  0  0  0  0  0  0  0  0  0
   -3.0302   -3.1439    0.9026 C   0  0  0  0  0  0  0  0  0  0  0  0
   -3.0071   -0.7157   -0.0268 C   0  0  0  0  0  0  0  0  0  0  0  0
   -4.2619   -0.8962   -0.5032 C   0  0  0  0  0  0  0  0  0  0  0  0
   -5.0034    0.1644   -1.1978 C   0  0  0  0  0  0  0  0  0  0  0  0
   -6.1506   -0.0759   -1.6592 O   0  0  0  0  0  0  0  0  0  0  0  0
   -4.4405    1.5409   -1.2961 C   0  0  0  0  0  0  0  0  0  0  0  0
   -2.9156    1.4767   -1.3365 C   0  0  0  0  0  0  0  0  0  0  0  0
   -2.3029    0.6516   -0.1568 C   0  0  2  0  0  0  0  0  0  0  0  0
   -2.5340    1.4209    1.1721 C   0  0  0  0  0  0  0  0  0  0  0  0
    1.2945   -1.2025   -1.0229 H   0  0  0  0  0  0  0  0  0  0  0  0
    1.9750   -2.9194    0.3865 H   0  0  0  0  0  0  0  0  0  0  0  0
    2.0525   -1.8459    1.8455 H   0  0  0  0  0  0  0  0  0  0  0  0
    4.2457   -1.4498    1.3301 H   0  0  0  0  0  0  0  0  0  0  0  0
    4.1227   -2.2798   -0.2645 H   0  0  0  0  0  0  0  0  0  0  0  0
    3.5522   -0.3847   -1.4468 H   0  0  0  0  0  0  0  0  0  0  0  0
    6.6682    1.2969    0.7134 H   0  0  0  0  0  0  0  0  0  0  0  0
    6.3570   -0.4662    0.5280 H   0  0  0  0  0  0  0  0  0  0  0  0
    5.5144    0.4833    1.8285 H   0  0  0  0  0  0  0  0  0  0  0  0
    2.8781    0.4283    2.1865 H   0  0  0  0  0  0  0  0  0  0  0  0
    1.3495    1.2941    1.9486 H   0  0  0  0  0  0  0  0  0  0  0  0
    2.8735    2.0421    1.4126 H   0  0  0  0  0  0  0  0  0  0  0  0
    1.6660    0.9983   -1.9817 H   0  0  0  0  0  0  0  0  0  0  0  0
    2.1640    2.3707   -0.9584 H   0  0  0  0  0  0  0  0  0  0  0  0
   -0.2959    2.2460   -1.5585 H   0  0  0  0  0  0  0  0  0  0  0  0
    0.2600    3.4726    0.1500 H   0  0  0  0  0  0  0  0  0  0  0  0
   -0.7476   -0.0777   -1.4679 H   0  0  0  0  0  0  0  0  0  0  0  0
   -0.1113   -0.2625    1.5445 H   0  0  0  0  0  0  0  0  0  0  0  0
   -0.3949   -2.6714    1.1569 H   0  0  0  0  0  0  0  0  0  0  0  0
   -0.8275   -2.3910   -0.5670 H   0  0  0  0  0  0  0  0  0  0  0  0
   -2.3573   -1.3802    1.9100 H   0  0  0  0  0  0  0  0  0  0  0  0
   -3.1176   -3.5675   -0.1211 H   0  0  0  0  0  0  0  0  0  0  0  0
   -4.0361   -3.0625    1.3662 H   0  0  0  0  0  0  0  0  0  0  0  0
   -2.4463   -3.8535    1.5273 H   0  0  0  0  0  0  0  0  0  0  0  0
   -4.7844   -1.8329   -0.3815 H   0  0  0  0  0  0  0  0  0  0  0  0
   -4.7812    2.1413   -0.4263 H   0  0  0  0  0  0  0  0  0  0  0  0
   -4.8098    2.0337   -2.2217 H   0  0  0  0  0  0  0  0  0  0  0  0
   -2.5344    2.5201   -1.3276 H   0  0  0  0  0  0  0  0  0  0  0  0
   -2.6181    1.0247   -2.3093 H   0  0  0  0  0  0  0  0  0  0  0  0
   -1.8850    1.0457    1.9874 H   0  0  0  0  0  0  0  0  0  0  0  0
   -3.5858    1.3081    1.5130 H   0  0  0  0  0  0  0  0  0  0  0  0
   -2.3591    2.5099    1.0553 H   0  0  0  0  0  0  0  0  0  0  0  0
  1  2  1  0
  2  3  1  0
  3  4  1  0
  4  5  1  0
  5  6  1  0
  5  7  2  0
  4  8  1  0
  8  9  1  1
  8 10  1  0
 10 11  1  0
 11 12  1  0
 11 13  1  0
 13 14  1  0
 14 15  1  0
 15 16  1  0
 16 17  1  0
 16 18  1  0
 18 19  2  0
 19 20  1  0
 20 21  2  0
 20 22  1  0
 22 23  1  0
 23 24  1  0
 24 25  1  1
  8  1  1  0
 24 13  1  0
 14  1  1  0
 24 18  1  0
  1 26  1  6
  2 27  1  0
  2 28  1  0
  3 29  1  0
  3 30  1  0
  4 31  1  6
  6 32  1  0
  6 33  1  0
  6 34  1  0
  9 35  1  0
  9 36  1  0
  9 37  1  0
 10 38  1  0
 10 39  1  0
 11 40  1  6
 12 41  1  0
 13 42  1  6
 14 43  1  1
 15 44  1  0
 15 45  1  0
 16 46  1  1
 17 47  1  0
 17 48  1  0
 17 49  1  0
 19 50  1  0
 22 51  1  0
 22 52  1  0
 23 53  1  0
 23 54  1  0
 25 55  1  0
 25 56  1  0
 25 57  1  0
M  END
$$$$
