
     RDKit          3D

 49 51  0  0  0  0  0  0  0  0999 V2000
   -5.4328    3.4044   -1.3136 N   0  0  0  0  0  0  0  0  0  0  0  0
   -4.7334    2.7308   -0.2675 C   0  0  0  0  0  0  0  0  0  0  0  0
   -3.9680    1.6356   -0.5638 N   0  0  0  0  0  0  0  0  0  0  0  0
   -3.3189    1.0168    0.4512 C   0  0  0  0  0  0  0  0  0  0  0  0
   -3.3903    1.4446    1.7303 C   0  0  0  0  0  0  0  0  0  0  0  0
   -2.6234    0.6795    2.5298 N   0  0  0  0  0  0  0  0  0  0  0  0
   -2.0947   -0.2253    1.6596 C   0  0  0  0  0  0  0  0  0  0  0  0
   -2.5138   -0.0494    0.3783 N   0  0  0  0  0  0  0  0  0  0  0  0
   -2.0765   -0.7603   -0.8243 C   0  0  2  0  0  0  0  0  0  0  0  0
   -1.7383   -2.0942   -0.5085 O   0  0  0  0  0  0  0  0  0  0  0  0
   -0.5853   -2.4438   -1.2524 C   0  0  2  0  0  0  0  0  0  0  0  0
    0.5086   -2.9315   -0.2933 C   0  0  0  0  0  0  0  0  0  0  0  0
    0.7945   -1.9275    0.6525 O   0  0  0  0  0  0  0  0  0  0  0  0
    2.1538   -2.4097    1.5617 P   0  0  0  0  0  5  0  0  0  0  0  0
    1.8637   -3.9238    2.2628 O   0  0  0  0  0  0  0  0  0  0  0  0
    2.3849   -1.4105    2.6734 O   0  0  0  0  0  0  0  0  0  0  0  0
    3.5270   -2.5168    0.5580 O   0  0  0  0  0  0  0  0  0  0  0  0
    3.9518   -0.9440    0.0532 P   0  0  0  0  0  5  0  0  0  0  0  0
    2.5992    0.0767   -0.0514 O   0  0  0  0  0  0  0  0  0  0  0  0
    4.5934   -1.0552   -1.3123 O   0  0  0  0  0  0  0  0  0  0  0  0
    5.1261   -0.2858    1.1865 N   0  0  0  0  0  0  0  0  0  0  0  0
    5.4944    1.3757    0.7449 P   0  0  0  0  0  5  0  0  0  0  0  0
    6.7075    1.9605    1.7693 O   0  0  0  0  0  0  0  0  0  0  0  0
    4.1157    2.3413    0.9220 O   0  0  0  0  0  0  0  0  0  0  0  0
    5.9810    1.4410   -0.6859 O   0  0  0  0  0  0  0  0  0  0  0  0
   -0.1251   -1.2353   -2.0884 C   0  0  1  0  0  0  0  0  0  0  0  0
   -0.4736   -1.3864   -3.4460 O   0  0  0  0  0  0  0  0  0  0  0  0
   -0.8515   -0.0836   -1.4325 C   0  0  1  0  0  0  0  0  0  0  0  0
   -1.1632    0.9654   -2.3200 O   0  0  0  0  0  0  0  0  0  0  0  0
   -4.1593    2.5549    2.0460 C   0  0  0  0  0  0  0  0  0  0  0  0
   -4.2398    2.9771    3.2303 O   0  0  0  0  0  0  0  0  0  0  0  0
   -4.8269    3.1823    1.0295 N   0  0  0  0  0  0  0  0  0  0  0  0
   -5.3620    3.0646   -2.2984 H   0  0  0  0  0  0  0  0  0  0  0  0
   -6.0214    4.2421   -1.1088 H   0  0  0  0  0  0  0  0  0  0  0  0
   -1.4001   -0.9970    1.9634 H   0  0  0  0  0  0  0  0  0  0  0  0
   -2.9157   -0.7898   -1.5548 H   0  0  0  0  0  0  0  0  0  0  0  0
   -0.8421   -3.2932   -1.9238 H   0  0  0  0  0  0  0  0  0  0  0  0
    0.1339   -3.8438    0.2223 H   0  0  0  0  0  0  0  0  0  0  0  0
    1.4070   -3.1993   -0.8966 H   0  0  0  0  0  0  0  0  0  0  0  0
    2.1771   -4.5810    1.5914 H   0  0  0  0  0  0  0  0  0  0  0  0
    2.7598    0.6468   -0.8452 H   0  0  0  0  0  0  0  0  0  0  0  0
    4.6709   -0.2529    2.1250 H   0  0  0  0  0  0  0  0  0  0  0  0
    7.4547    1.3181    1.6688 H   0  0  0  0  0  0  0  0  0  0  0  0
    4.4193    3.2582    0.7029 H   0  0  0  0  0  0  0  0  0  0  0  0
    0.9743   -1.0762   -2.0316 H   0  0  0  0  0  0  0  0  0  0  0  0
   -1.4410   -1.6062   -3.4982 H   0  0  0  0  0  0  0  0  0  0  0  0
   -0.2096    0.3232   -0.6192 H   0  0  0  0  0  0  0  0  0  0  0  0
   -1.8792    0.6623   -2.9359 H   0  0  0  0  0  0  0  0  0  0  0  0
   -5.4132    4.0207    1.2434 H   0  0  0  0  0  0  0  0  0  0  0  0
  1  2  1  0
  2  3  2  0
  3  4  1  0
  4  5  2  0
  5  6  1  0
  6  7  2  0
  7  8  1  0
  8  9  1  0
  9 10  1  0
 10 11  1  0
 11 12  1  0
 12 13  1  0
 13 14  1  0
 14 15  1  0
 14 16  2  0
 14 17  1  0
 17 18  1  0
 18 19  1  0
 18 20  2  0
 18 21  1  0
 21 22  1  0
 22 23  1  0
 22 24  1  0
 22 25  2  0
 11 26  1  0
 26 27  1  0
 26 28  1  0
 28 29  1  0
  5 30  1  0
 30 31  2  0
 30 32  1  0
 32  2  1  0
  8  4  1  0
 28  9  1  0
  1 33  1  0
  1 34  1  0
  7 35  1  0
  9 36  1  6
 11 37  1  6
 12 38  1  0
 12 39  1  0
 15 40  1  0
 19 41  1  0
 21 42  1  0
 23 43  1  0
 24 44  1  0
 26 45  1  6
 27 46  1  0
 28 47  1  1
 29 48  1  0
 32 49  1  0
M  END
$$$$
