
     RDKit          3D

 26 25  0  0  0  0  0  0  0  0999 V2000
   -2.8047   -1.4528   -0.0252 N   0  0  0  0  0  0  0  0  0  0  0  0
   -2.5510   -0.0770    0.4111 C   0  0  1  0  0  0  0  0  0  0  0  0
   -1.0693    0.2914    0.2134 C   0  0  0  0  0  0  0  0  0  0  0  0
   -0.1456   -0.5733    1.0838 C   0  0  0  0  0  0  0  0  0  0  0  0
    1.2907   -0.1534    0.9341 C   0  0  0  0  0  0  0  0  0  0  0  0
    1.9770   -0.3933   -0.1932 C   0  0  0  0  0  0  0  0  0  0  0  0
    3.4969    0.0398   -0.3502 B   0  0  0  0  0  4  0  0  0  0  0  0
    4.3120   -0.6254    0.6881 O   0  0  0  0  0  0  0  0  0  0  0  0
    3.9810   -0.3526   -1.6917 O   0  0  0  0  0  0  0  0  0  0  0  0
    3.6143    1.5041   -0.1868 O   0  0  0  0  0  0  0  0  0  0  0  0
   -3.4379    0.8889   -0.3299 C   0  0  0  0  0  0  0  0  0  0  0  0
   -4.3383    1.6809    0.3758 O   0  0  0  0  0  0  0  0  0  0  0  0
   -3.3677    0.9855   -1.5851 O   0  0  0  0  0  0  0  0  0  0  0  0
   -2.6501   -1.5280   -1.0575 H   0  0  0  0  0  0  0  0  0  0  0  0
   -3.8084   -1.6836    0.1597 H   0  0  0  0  0  0  0  0  0  0  0  0
   -2.7884   -0.0022    1.4959 H   0  0  0  0  0  0  0  0  0  0  0  0
   -0.9215    1.3599    0.4886 H   0  0  0  0  0  0  0  0  0  0  0  0
   -0.7954    0.1714   -0.8582 H   0  0  0  0  0  0  0  0  0  0  0  0
   -0.4365   -0.4602    2.1506 H   0  0  0  0  0  0  0  0  0  0  0  0
   -0.2460   -1.6465    0.8115 H   0  0  0  0  0  0  0  0  0  0  0  0
    1.7783    0.3307    1.7768 H   0  0  0  0  0  0  0  0  0  0  0  0
    1.4936   -0.8956   -1.0265 H   0  0  0  0  0  0  0  0  0  0  0  0
    4.2914   -1.5952    0.4811 H   0  0  0  0  0  0  0  0  0  0  0  0
    4.9276   -0.0608   -1.7373 H   0  0  0  0  0  0  0  0  0  0  0  0
    3.1397    1.9105   -0.9572 H   0  0  0  0  0  0  0  0  0  0  0  0
   -4.9417    2.3367   -0.1059 H   0  0  0  0  0  0  0  0  0  0  0  0
  1  2  1  0
  2  3  1  0
  3  4  1  0
  4  5  1  0
  5  6  2  0
  6  7  1  0
  7  8  1  0
  7  9  1  0
  7 10  1  0
  2 11  1  0
 11 12  1  0
 11 13  2  0
  1 14  1  0
  1 15  1  0
  2 16  1  1
  3 17  1  0
  3 18  1  0
  4 19  1  0
  4 20  1  0
  5 21  1  0
  6 22  1  0
  8 23  1  0
  9 24  1  0
 10 25  1  0
 12 26  1  0
M  CHG  1   7  -1
M  END
$$$$
