
     RDKit          3D

 54 56  0  0  0  0  0  0  0  0999 V2000
   -5.9235   -4.4714   -0.3797 C   0  0  0  0  0  0  0  0  0  0  0  0
   -4.5327   -4.7726   -0.3266 O   0  0  0  0  0  0  0  0  0  0  0  0
   -3.5121   -3.8100   -0.3105 C   0  0  0  0  0  0  0  0  0  0  0  0
   -2.1887   -4.2503   -0.2532 C   0  0  0  0  0  0  0  0  0  0  0  0
   -1.1365   -3.3350   -0.2343 C   0  0  0  0  0  0  0  0  0  0  0  0
   -1.3868   -1.9535   -0.2806 C   0  0  0  0  0  0  0  0  0  0  0  0
   -0.2903   -1.0274   -0.1766 N   0  0  0  0  0  0  0  0  0  0  0  0
    0.9503   -1.2035   -0.8813 C   0  0  0  0  0  0  0  0  0  0  0  0
    1.0030   -1.9965   -1.8615 O   0  0  0  0  0  0  0  0  0  0  0  0
    2.1601   -0.4352   -0.5004 C   0  0  0  0  0  0  0  0  0  0  0  0
    3.2011   -0.2526   -1.4281 C   0  0  0  0  0  0  0  0  0  0  0  0
    4.3477    0.4653   -1.0774 C   0  0  0  0  0  0  0  0  0  0  0  0
    4.4825    1.0018    0.2109 C   0  0  0  0  0  0  0  0  0  0  0  0
    3.4470    0.8225    1.1400 C   0  0  0  0  0  0  0  0  0  0  0  0
    2.2991    0.1052    0.7909 C   0  0  0  0  0  0  0  0  0  0  0  0
    5.6953    1.7694    0.5792 C   0  0  0  0  0  0  0  0  0  0  0  0
    5.5695    2.9445    1.1163 N   0  0  0  0  0  0  0  0  0  0  0  0
    7.0151    1.2290    0.3507 N   0  0  0  0  0  0  0  0  0  0  0  0
    7.2249   -0.2225    0.3050 C   0  0  0  0  0  0  0  0  0  0  0  0
    8.1639    2.1372    0.2742 C   0  0  0  0  0  0  0  0  0  0  0  0
   -2.7250   -1.4931   -0.3358 C   0  0  0  0  0  0  0  0  0  0  0  0
   -3.7756   -2.4287   -0.3513 C   0  0  0  0  0  0  0  0  0  0  0  0
   -3.0472   -0.0494   -0.4345 C   0  0  0  0  0  0  0  0  0  0  0  0
   -2.3175    0.7016   -1.1373 O   0  0  0  0  0  0  0  0  0  0  0  0
   -4.1853    0.4887    0.2625 N   0  0  0  0  0  0  0  0  0  0  0  0
   -4.6909    1.8225    0.0776 C   0  0  0  0  0  0  0  0  0  0  0  0
   -5.7441    2.2870    0.8790 C   0  0  0  0  0  0  0  0  0  0  0  0
   -6.2366    3.5797    0.6882 C   0  0  0  0  0  0  0  0  0  0  0  0
   -5.6805    4.3969   -0.2981 C   0  0  0  0  0  0  0  0  0  0  0  0
   -6.2881    6.0227   -0.5506 Cl  0  0  0  0  0  0  0  0  0  0  0  0
   -4.6352    3.9030   -1.0824 C   0  0  0  0  0  0  0  0  0  0  0  0
   -4.1704    2.6412   -0.8802 N   0  0  0  0  0  0  0  0  0  0  0  0
   -6.5000   -5.4191   -0.3746 H   0  0  0  0  0  0  0  0  0  0  0  0
   -6.2185   -3.8711    0.5068 H   0  0  0  0  0  0  0  0  0  0  0  0
   -6.1588   -3.9174   -1.3129 H   0  0  0  0  0  0  0  0  0  0  0  0
   -1.9742   -5.3108   -0.2136 H   0  0  0  0  0  0  0  0  0  0  0  0
   -0.1226   -3.7059   -0.1550 H   0  0  0  0  0  0  0  0  0  0  0  0
   -0.4313   -0.1536    0.3774 H   0  0  0  0  0  0  0  0  0  0  0  0
    3.1226   -0.6525   -2.4315 H   0  0  0  0  0  0  0  0  0  0  0  0
    5.1242    0.6154   -1.8174 H   0  0  0  0  0  0  0  0  0  0  0  0
    3.5354    1.2229    2.1426 H   0  0  0  0  0  0  0  0  0  0  0  0
    1.5349   -0.0424    1.5423 H   0  0  0  0  0  0  0  0  0  0  0  0
    4.6372    3.3811    1.2951 H   0  0  0  0  0  0  0  0  0  0  0  0
    8.3008   -0.4811    0.3970 H   0  0  0  0  0  0  0  0  0  0  0  0
    6.8534   -0.6327   -0.6555 H   0  0  0  0  0  0  0  0  0  0  0  0
    6.6878   -0.7087    1.1470 H   0  0  0  0  0  0  0  0  0  0  0  0
    9.0996    1.5938    0.0248 H   0  0  0  0  0  0  0  0  0  0  0  0
    8.3037    2.6510    1.2486 H   0  0  0  0  0  0  0  0  0  0  0  0
    7.9878    2.8953   -0.5180 H   0  0  0  0  0  0  0  0  0  0  0  0
   -4.7962   -2.0773   -0.4211 H   0  0  0  0  0  0  0  0  0  0  0  0
   -4.6604   -0.1209    0.9663 H   0  0  0  0  0  0  0  0  0  0  0  0
   -6.1776    1.6545    1.6434 H   0  0  0  0  0  0  0  0  0  0  0  0
   -7.0483    3.9435    1.3052 H   0  0  0  0  0  0  0  0  0  0  0  0
   -4.1917    4.5194   -1.8531 H   0  0  0  0  0  0  0  0  0  0  0  0
  1  2  1  0
  2  3  1  0
  3  4  2  0
  4  5  1  0
  5  6  2  0
  6  7  1  0
  7  8  1  0
  8  9  2  0
  8 10  1  0
 10 11  2  0
 11 12  1  0
 12 13  2  0
 13 14  1  0
 14 15  2  0
 13 16  1  0
 16 17  2  3
 16 18  1  0
 18 19  1  0
 18 20  1  0
  6 21  1  0
 21 22  2  0
 21 23  1  0
 23 24  2  0
 23 25  1  0
 25 26  1  0
 26 27  2  0
 27 28  1  0
 28 29  2  0
 29 30  1  0
 29 31  1  0
 31 32  2  0
 22  3  1  0
 32 26  1  0
 15 10  1  0
  1 33  1  0
  1 34  1  0
  1 35  1  0
  4 36  1  0
  5 37  1  0
  7 38  1  0
 11 39  1  0
 12 40  1  0
 14 41  1  0
 15 42  1  0
 17 43  1  0
 19 44  1  0
 19 45  1  0
 19 46  1  0
 20 47  1  0
 20 48  1  0
 20 49  1  0
 22 50  1  0
 25 51  1  0
 27 52  1  0
 28 53  1  0
 31 54  1  0
M  END
$$$$
