
     RDKit          3D

 25 25  0  0  0  0  0  0  0  0999 V2000
   -3.7722   -1.6880    0.9257 N   0  0  0  0  0  0  0  0  0  0  0  0
   -3.1817   -0.3966    0.7575 C   0  0  0  0  0  0  0  0  0  0  0  0
   -3.7988    0.6404    1.2333 N   0  0  0  0  0  0  0  0  0  0  0  0
   -1.8793   -0.2558    0.0587 C   0  0  0  0  0  0  0  0  0  0  0  0
   -0.8828   -1.2343    0.2160 C   0  0  0  0  0  0  0  0  0  0  0  0
    0.3447   -1.1094   -0.4410 C   0  0  0  0  0  0  0  0  0  0  0  0
    0.5941   -0.0093   -1.2751 C   0  0  0  0  0  0  0  0  0  0  0  0
    1.9253    0.1433   -1.9597 C   0  0  0  0  0  0  0  0  0  0  0  0
    2.8223    1.0446   -1.1602 C   0  0  0  0  0  0  0  0  0  0  0  0
    2.8317    2.2801   -1.4082 O   0  0  0  0  0  0  0  0  0  0  0  0
    3.6572    0.5243   -0.0656 C   0  0  0  0  0  0  0  0  0  0  0  0
    4.4550    1.3963    0.6690 O   0  0  0  0  0  0  0  0  0  0  0  0
    3.6557   -0.7049    0.2122 O   0  0  0  0  0  0  0  0  0  0  0  0
   -0.3957    0.9727   -1.4301 C   0  0  0  0  0  0  0  0  0  0  0  0
   -1.6231    0.8494   -0.7726 C   0  0  0  0  0  0  0  0  0  0  0  0
   -4.6673   -1.7936    1.4534 H   0  0  0  0  0  0  0  0  0  0  0  0
   -3.3544   -2.5361    0.4830 H   0  0  0  0  0  0  0  0  0  0  0  0
   -3.4159    1.6095    1.1652 H   0  0  0  0  0  0  0  0  0  0  0  0
   -1.0431   -2.0864    0.8643 H   0  0  0  0  0  0  0  0  0  0  0  0
    1.1012   -1.8706   -0.2964 H   0  0  0  0  0  0  0  0  0  0  0  0
    2.4082   -0.8476   -2.1038 H   0  0  0  0  0  0  0  0  0  0  0  0
    1.7771    0.5719   -2.9751 H   0  0  0  0  0  0  0  0  0  0  0  0
    5.0358    1.0564    1.4262 H   0  0  0  0  0  0  0  0  0  0  0  0
   -0.2173    1.8333   -2.0630 H   0  0  0  0  0  0  0  0  0  0  0  0
   -2.3768    1.6103   -0.9303 H   0  0  0  0  0  0  0  0  0  0  0  0
  1  2  1  0
  2  3  2  3
  2  4  1  0
  4  5  2  0
  5  6  1  0
  6  7  2  0
  7  8  1  0
  8  9  1  0
  9 10  2  0
  9 11  1  0
 11 12  1  0
 11 13  2  0
  7 14  1  0
 14 15  2  0
 15  4  1  0
  1 16  1  0
  1 17  1  0
  3 18  1  0
  5 19  1  0
  6 20  1  0
  8 21  1  0
  8 22  1  0
 12 23  1  0
 14 24  1  0
 15 25  1  0
M  END
$$$$
