
     RDKit          3D

 28 28  0  0  0  0  0  0  0  0999 V2000
   -3.5824    2.1803   -0.0258 C   0  0  0  0  0  0  0  0  0  0  0  0
   -2.3194    1.5555   -0.2309 O   0  0  0  0  0  0  0  0  0  0  0  0
   -2.0538    0.1993    0.0165 C   0  0  0  0  0  0  0  0  0  0  0  0
   -3.0429   -0.6796    0.5012 C   0  0  0  0  0  0  0  0  0  0  0  0
   -2.7397   -2.0222    0.7347 C   0  0  0  0  0  0  0  0  0  0  0  0
   -1.4540   -2.5020    0.4870 C   0  0  0  0  0  0  0  0  0  0  0  0
   -0.4650   -1.6415    0.0060 C   0  0  0  0  0  0  0  0  0  0  0  0
   -0.7566   -0.2824   -0.2296 C   0  0  0  0  0  0  0  0  0  0  0  0
    0.2042    0.6220   -0.7146 O   0  0  0  0  0  0  0  0  0  0  0  0
    1.5928    0.3439   -0.9006 C   0  0  0  0  0  0  0  0  0  0  0  0
    2.3308    0.3153    0.4499 C   0  0  0  0  0  0  0  0  0  0  0  0
    2.1448    1.5256    1.1414 O   0  0  0  0  0  0  0  0  0  0  0  0
    3.8254    0.0246    0.2568 C   0  0  0  0  0  0  0  0  0  0  0  0
    4.4613   -0.0275    1.5037 O   0  0  0  0  0  0  0  0  0  0  0  0
   -4.3532    1.7029   -0.6670 H   0  0  0  0  0  0  0  0  0  0  0  0
   -3.5054    3.2520   -0.3014 H   0  0  0  0  0  0  0  0  0  0  0  0
   -3.8750    2.1083    1.0430 H   0  0  0  0  0  0  0  0  0  0  0  0
   -4.0483   -0.3348    0.7003 H   0  0  0  0  0  0  0  0  0  0  0  0
   -3.5038   -2.6923    1.1071 H   0  0  0  0  0  0  0  0  0  0  0  0
   -1.2231   -3.5442    0.6666 H   0  0  0  0  0  0  0  0  0  0  0  0
    0.5185   -2.0475   -0.1807 H   0  0  0  0  0  0  0  0  0  0  0  0
    1.7282   -0.6089   -1.4556 H   0  0  0  0  0  0  0  0  0  0  0  0
    2.0230    1.1495   -1.5332 H   0  0  0  0  0  0  0  0  0  0  0  0
    1.9050   -0.5003    1.0716 H   0  0  0  0  0  0  0  0  0  0  0  0
    2.5340    2.2520    0.5870 H   0  0  0  0  0  0  0  0  0  0  0  0
    4.2892    0.8209   -0.3683 H   0  0  0  0  0  0  0  0  0  0  0  0
    3.9475   -0.9530   -0.2619 H   0  0  0  0  0  0  0  0  0  0  0  0
    5.4177   -0.2156    1.3173 H   0  0  0  0  0  0  0  0  0  0  0  0
  1  2  1  0
  2  3  1  0
  3  4  2  0
  4  5  1  0
  5  6  2  0
  6  7  1  0
  7  8  2  0
  8  9  1  0
  9 10  1  0
 10 11  1  0
 11 12  1  0
 11 13  1  0
 13 14  1  0
  8  3  1  0
  1 15  1  0
  1 16  1  0
  1 17  1  0
  4 18  1  0
  5 19  1  0
  6 20  1  0
  7 21  1  0
 10 22  1  0
 10 23  1  0
 11 24  1  0
 12 25  1  0
 13 26  1  0
 13 27  1  0
 14 28  1  0
M  END
$$$$
