
     RDKit          3D

 26 27  0  0  0  0  0  0  0  0999 V2000
   -2.3887   -1.6659    1.6038 N   0  0  0  0  0  0  0  0  0  0  0  0
   -2.9288   -0.5185    0.9443 C   0  0  0  0  0  0  0  0  0  0  0  0
   -2.2577    0.4064    0.1605 C   0  0  0  0  0  0  0  0  0  0  0  0
   -0.8747    0.4757   -0.2019 N   0  0  0  0  0  0  0  0  0  0  0  0
   -0.0245   -0.3836    0.1904 N   0  0  0  0  0  0  0  0  0  0  0  0
    1.3585   -0.3101   -0.1750 C   0  0  0  0  0  0  0  0  0  0  0  0
    1.8532    0.7232   -0.9925 C   0  0  0  0  0  0  0  0  0  0  0  0
    3.2098    0.7642   -1.3297 C   0  0  0  0  0  0  0  0  0  0  0  0
    4.0830   -0.2209   -0.8569 C   0  0  0  0  0  0  0  0  0  0  0  0
    5.4318   -0.1674   -1.2008 O   0  0  0  0  0  0  0  0  0  0  0  0
    3.5932   -1.2511   -0.0426 C   0  0  0  0  0  0  0  0  0  0  0  0
    2.2371   -1.2940    0.2957 C   0  0  0  0  0  0  0  0  0  0  0  0
   -3.2379    1.2963   -0.2229 C   0  0  0  0  0  0  0  0  0  0  0  0
   -3.0505    2.4442   -1.0485 N   0  0  0  0  0  0  0  0  0  0  0  0
   -4.4274    0.9321    0.2966 N   0  0  0  0  0  0  0  0  0  0  0  0
   -4.2291   -0.1715    1.0041 N   0  0  0  0  0  0  0  0  0  0  0  0
   -3.0171   -2.2810    2.1665 H   0  0  0  0  0  0  0  0  0  0  0  0
   -1.3800   -1.9188    1.5464 H   0  0  0  0  0  0  0  0  0  0  0  0
    1.1946    1.4953   -1.3690 H   0  0  0  0  0  0  0  0  0  0  0  0
    3.5830    1.5622   -1.9590 H   0  0  0  0  0  0  0  0  0  0  0  0
    6.0895   -0.8658   -0.8744 H   0  0  0  0  0  0  0  0  0  0  0  0
    4.2615   -2.0179    0.3280 H   0  0  0  0  0  0  0  0  0  0  0  0
    1.8686   -2.0942    0.9254 H   0  0  0  0  0  0  0  0  0  0  0  0
   -2.1058    2.6807   -1.4251 H   0  0  0  0  0  0  0  0  0  0  0  0
   -3.8608    3.0591   -1.2832 H   0  0  0  0  0  0  0  0  0  0  0  0
   -4.9808   -0.6788    1.5214 H   0  0  0  0  0  0  0  0  0  0  0  0
  1  2  1  0
  2  3  2  0
  3  4  1  0
  4  5  2  0
  5  6  1  0
  6  7  2  0
  7  8  1  0
  8  9  2  0
  9 10  1  0
  9 11  1  0
 11 12  2  0
  3 13  1  0
 13 14  1  0
 13 15  2  0
 15 16  1  0
 16  2  1  0
 12  6  1  0
  1 17  1  0
  1 18  1  0
  7 19  1  0
  8 20  1  0
 10 21  1  0
 11 22  1  0
 12 23  1  0
 14 24  1  0
 14 25  1  0
 16 26  1  0
M  END
$$$$
