
     RDKit          3D

 64 67  0  0  0  0  0  0  0  0999 V2000
   -0.7535    0.7522   -0.6294 C   0  0  2  0  0  0  0  0  0  0  0  0
   -2.2560    0.8686   -0.9324 C   0  0  0  0  0  0  0  0  0  0  0  0
   -2.9122    1.8766   -0.0244 C   0  0  0  0  0  0  0  0  0  0  0  0
   -3.0388    3.2173   -0.4238 C   0  0  0  0  0  0  0  0  0  0  0  0
   -3.6016    4.1730    0.4421 C   0  0  0  0  0  0  0  0  0  0  0  0
   -4.0274    3.7694    1.7192 C   0  0  0  0  0  0  0  0  0  0  0  0
   -3.8941    2.4385    2.1220 C   0  0  0  0  0  0  0  0  0  0  0  0
   -3.3354    1.4958    1.2576 C   0  0  0  0  0  0  0  0  0  0  0  0
   -3.7321    5.5919    0.0253 C   0  0  0  0  0  0  0  0  0  0  0  0
   -3.5292    6.6422    0.9742 N   0  0  0  0  0  0  0  0  0  0  0  0
   -4.0384    5.9023   -1.1962 N   0  0  0  0  0  0  0  0  0  0  0  0
   -0.0951    2.0263   -0.9836 N   0  0  0  0  0  0  0  0  0  0  0  0
    1.2018    2.4078    0.1087 S   0  0  0  0  0  6  0  0  0  0  0  0
    0.6311    2.7297    1.4621 O   0  0  0  0  0  0  0  0  0  0  0  0
    1.9340    3.6191   -0.3965 O   0  0  0  0  0  0  0  0  0  0  0  0
    2.3332    1.0640    0.2345 C   0  0  0  0  0  0  0  0  0  0  0  0
    2.3254    0.2330    1.3633 C   0  0  0  0  0  0  0  0  0  0  0  0
    3.2430   -0.8219    1.4695 C   0  0  0  0  0  0  0  0  0  0  0  0
    3.2427   -1.6595    2.5957 C   0  0  0  0  0  0  0  0  0  0  0  0
    4.1557   -2.7140    2.6856 C   0  0  0  0  0  0  0  0  0  0  0  0
    5.0750   -2.9385    1.6572 C   0  0  0  0  0  0  0  0  0  0  0  0
    5.0866   -2.1113    0.5303 C   0  0  0  0  0  0  0  0  0  0  0  0
    4.1730   -1.0511    0.4258 C   0  0  0  0  0  0  0  0  0  0  0  0
    4.1611   -0.2257   -0.7075 C   0  0  0  0  0  0  0  0  0  0  0  0
    3.2445    0.8243   -0.8014 C   0  0  0  0  0  0  0  0  0  0  0  0
   -0.1665   -0.4251   -1.3925 C   0  0  0  0  0  0  0  0  0  0  0  0
    0.0776   -0.2894   -2.6238 O   0  0  0  0  0  0  0  0  0  0  0  0
    0.0704   -1.7089   -0.7651 N   0  0  0  0  0  0  0  0  0  0  0  0
    1.0204   -2.6201   -1.4345 C   0  0  0  0  0  0  0  0  0  0  0  0
    1.6124   -3.6544   -0.4735 C   0  0  0  0  0  0  0  0  0  0  0  0
    0.5244   -4.3412    0.3435 C   0  0  0  0  0  0  0  0  0  0  0  0
   -0.2701   -3.2994    1.1283 C   0  0  0  0  0  0  0  0  0  0  0  0
   -0.9123   -2.2545    0.1999 C   0  0  2  0  0  0  0  0  0  0  0  0
   -2.1127   -2.8277   -0.5099 C   0  0  0  0  0  0  0  0  0  0  0  0
   -1.9981   -3.3546   -1.7928 O   0  0  0  0  0  0  0  0  0  0  0  0
   -3.2269   -2.8607    0.0784 O   0  0  0  0  0  0  0  0  0  0  0  0
   -0.6402    0.5701    0.4603 H   0  0  0  0  0  0  0  0  0  0  0  0
   -2.7537   -0.1146   -0.7953 H   0  0  0  0  0  0  0  0  0  0  0  0
   -2.4054    1.1558   -1.9970 H   0  0  0  0  0  0  0  0  0  0  0  0
   -2.6724    3.5161   -1.3984 H   0  0  0  0  0  0  0  0  0  0  0  0
   -4.4770    4.4791    2.4021 H   0  0  0  0  0  0  0  0  0  0  0  0
   -4.2235    2.1374    3.1080 H   0  0  0  0  0  0  0  0  0  0  0  0
   -3.2263    0.4701    1.5884 H   0  0  0  0  0  0  0  0  0  0  0  0
   -3.6609    7.6393    0.6929 H   0  0  0  0  0  0  0  0  0  0  0  0
   -3.1956    6.4398    1.9424 H   0  0  0  0  0  0  0  0  0  0  0  0
   -4.2202    5.1869   -1.9349 H   0  0  0  0  0  0  0  0  0  0  0  0
    0.2829    2.0219   -1.9579 H   0  0  0  0  0  0  0  0  0  0  0  0
    1.6078    0.4074    2.1560 H   0  0  0  0  0  0  0  0  0  0  0  0
    2.5350   -1.5027    3.4010 H   0  0  0  0  0  0  0  0  0  0  0  0
    4.1499   -3.3598    3.5541 H   0  0  0  0  0  0  0  0  0  0  0  0
    5.7786   -3.7574    1.7324 H   0  0  0  0  0  0  0  0  0  0  0  0
    5.8029   -2.3033   -0.2596 H   0  0  0  0  0  0  0  0  0  0  0  0
    4.8586   -0.3927   -1.5195 H   0  0  0  0  0  0  0  0  0  0  0  0
    3.2464    1.4539   -1.6821 H   0  0  0  0  0  0  0  0  0  0  0  0
    0.5096   -3.1424   -2.2709 H   0  0  0  0  0  0  0  0  0  0  0  0
    1.8645   -2.0387   -1.8669 H   0  0  0  0  0  0  0  0  0  0  0  0
    2.3262   -3.1601    0.2132 H   0  0  0  0  0  0  0  0  0  0  0  0
    2.1751   -4.4165   -1.0543 H   0  0  0  0  0  0  0  0  0  0  0  0
    0.9957   -5.0538    1.0542 H   0  0  0  0  0  0  0  0  0  0  0  0
   -0.1498   -4.9186   -0.3260 H   0  0  0  0  0  0  0  0  0  0  0  0
    0.4128   -2.7817    1.8382 H   0  0  0  0  0  0  0  0  0  0  0  0
   -1.0513   -3.8079    1.7350 H   0  0  0  0  0  0  0  0  0  0  0  0
   -1.2804   -1.4503    0.8671 H   0  0  0  0  0  0  0  0  0  0  0  0
   -2.8012   -3.7513   -2.2657 H   0  0  0  0  0  0  0  0  0  0  0  0
  1  2  1  0
  2  3  1  0
  3  4  2  0
  4  5  1  0
  5  6  2  0
  6  7  1  0
  7  8  2  0
  5  9  1  0
  9 10  1  0
  9 11  2  3
  1 12  1  0
 12 13  1  0
 13 14  2  0
 13 15  2  0
 13 16  1  0
 16 17  2  0
 17 18  1  0
 18 19  2  0
 19 20  1  0
 20 21  2  0
 21 22  1  0
 22 23  2  0
 23 24  1  0
 24 25  2  0
  1 26  1  0
 26 27  2  0
 26 28  1  0
 28 29  1  0
 29 30  1  0
 30 31  1  0
 31 32  1  0
 32 33  1  0
 33 34  1  0
 34 35  1  0
 34 36  2  0
  8  3  1  0
 25 16  1  0
 33 28  1  0
 23 18  1  0
  1 37  1  1
  2 38  1  0
  2 39  1  0
  4 40  1  0
  6 41  1  0
  7 42  1  0
  8 43  1  0
 10 44  1  0
 10 45  1  0
 11 46  1  0
 12 47  1  0
 17 48  1  0
 19 49  1  0
 20 50  1  0
 21 51  1  0
 22 52  1  0
 24 53  1  0
 25 54  1  0
 29 55  1  0
 29 56  1  0
 30 57  1  0
 30 58  1  0
 31 59  1  0
 31 60  1  0
 32 61  1  0
 32 62  1  0
 33 63  1  1
 35 64  1  0
M  END
$$$$
