
     RDKit          3D

 89 91  0  0  0  0  0  0  0  0999 V2000
   -8.5520    2.8539   -4.1514 N   0  0  0  0  0  0  0  0  0  0  0  0
   -7.8050    2.2389   -3.1017 C   0  0  0  0  0  0  0  0  0  0  0  0
   -8.4211    1.4885   -2.1062 C   0  0  0  0  0  0  0  0  0  0  0  0
   -9.7231    1.1877   -1.9422 N   0  0  0  0  0  0  0  0  0  0  0  0
   -9.7137    0.4138   -0.8214 C   0  0  0  0  0  0  0  0  0  0  0  0
   -8.4736    0.2405   -0.2953 N   0  0  0  0  0  0  0  0  0  0  0  0
   -8.1069   -0.6035    0.8452 C   0  0  2  0  0  0  0  0  0  0  0  0
   -7.0921    0.0287    1.5979 O   0  0  0  0  0  0  0  0  0  0  0  0
   -6.0573   -0.9079    1.7932 C   0  0  2  0  0  0  0  0  0  0  0  0
   -4.7076   -0.1842    1.8247 C   0  0  0  0  0  0  0  0  0  0  0  0
   -3.6773   -1.1160    2.0586 O   0  0  0  0  0  0  0  0  0  0  0  0
   -2.1858   -0.3318    1.8066 P   0  0  0  0  0  5  0  0  0  0  0  0
   -2.0198    0.0021    0.1507 O   0  0  0  0  0  0  0  0  0  0  0  0
   -1.0766   -1.2714    2.2205 O   0  0  0  0  0  0  0  0  0  0  0  0
   -2.1114    1.0588    2.7961 O   0  0  0  0  0  0  0  0  0  0  0  0
   -1.7013    2.3923    1.8225 P   0  0  0  0  0  5  0  0  0  0  0  0
   -2.9481    2.6870    0.7155 O   0  0  0  0  0  0  0  0  0  0  0  0
   -1.5421    3.6120    2.7027 O   0  0  0  0  0  0  0  0  0  0  0  0
   -0.2498    2.1009    0.9723 O   0  0  0  0  0  0  0  0  0  0  0  0
    0.7924    1.9142    1.9051 C   0  0  0  0  0  0  0  0  0  0  0  0
    2.0959    1.4774    1.1826 C   0  0  0  0  0  0  0  0  0  0  0  0
    1.8447    0.1383    0.4491 C   0  0  0  0  0  0  0  0  0  0  0  0
    2.4784    2.5578    0.1425 C   0  0  0  0  0  0  0  0  0  0  0  0
    3.2349    1.3308    2.2477 C   0  0  1  0  0  0  0  0  0  0  0  0
    2.8768    0.3778    3.2180 O   0  0  0  0  0  0  0  0  0  0  0  0
    4.5723    0.9648    1.6430 C   0  0  0  0  0  0  0  0  0  0  0  0
    5.3897    1.8821    1.3572 O   0  0  0  0  0  0  0  0  0  0  0  0
    4.9091   -0.4059    1.3771 N   0  0  0  0  0  0  0  0  0  0  0  0
    6.1165   -0.7873    0.6487 C   0  0  0  0  0  0  0  0  0  0  0  0
    5.9556   -0.4851   -0.8429 C   0  0  0  0  0  0  0  0  0  0  0  0
    7.1898   -0.8843   -1.5916 C   0  0  0  0  0  0  0  0  0  0  0  0
    7.2205   -1.9908   -2.1954 O   0  0  0  0  0  0  0  0  0  0  0  0
    8.3408   -0.0286   -1.5839 N   0  0  0  0  0  0  0  0  0  0  0  0
    9.6199   -0.4201   -2.1739 C   0  0  0  0  0  0  0  0  0  0  0  0
   10.3245   -1.4900   -1.3239 C   0  0  0  0  0  0  0  0  0  0  0  0
   10.5924   -1.0413    0.1217 C   0  0  1  0  0  0  0  0  0  0  0  0
   11.1339   -2.0992    0.8302 F   0  0  0  0  0  0  0  0  0  0  0  0
   11.5461    0.1137    0.1732 C   0  0  0  0  0  0  0  0  0  0  0  0
   12.8942   -0.0855   -0.1086 O   0  0  0  0  0  0  0  0  0  0  0  0
   11.1246    1.2693    0.4470 O   0  0  0  0  0  0  0  0  0  0  0  0
   -6.1282   -1.9433    0.6752 C   0  0  1  0  0  0  0  0  0  0  0  0
   -5.6496   -3.1920    1.1387 O   0  0  0  0  0  0  0  0  0  0  0  0
   -4.9825   -4.0694   -0.1639 P   0  0  0  0  0  5  0  0  0  0  0  0
   -3.6089   -3.2683   -0.7463 O   0  0  0  0  0  0  0  0  0  0  0  0
   -6.1209   -4.2404   -1.4061 O   0  0  0  0  0  0  0  0  0  0  0  0
   -4.5823   -5.4417    0.3268 O   0  0  0  0  0  0  0  0  0  0  0  0
   -7.6109   -1.9744    0.3645 C   0  0  1  0  0  0  0  0  0  0  0  0
   -8.2758   -3.0234    1.0311 O   0  0  0  0  0  0  0  0  0  0  0  0
   -7.6762    0.9190   -1.1319 C   0  0  0  0  0  0  0  0  0  0  0  0
   -6.3280    1.0405   -1.0791 N   0  0  0  0  0  0  0  0  0  0  0  0
   -5.7107    1.7779   -2.0502 C   0  0  0  0  0  0  0  0  0  0  0  0
   -6.4452    2.3682   -3.0474 N   0  0  0  0  0  0  0  0  0  0  0  0
   -9.5907    2.7583   -4.1997 H   0  0  0  0  0  0  0  0  0  0  0  0
   -8.0625    3.4102   -4.8869 H   0  0  0  0  0  0  0  0  0  0  0  0
  -10.6081   -0.0291   -0.4024 H   0  0  0  0  0  0  0  0  0  0  0  0
   -8.9989   -0.7237    1.5000 H   0  0  0  0  0  0  0  0  0  0  0  0
   -6.2172   -1.4015    2.7794 H   0  0  0  0  0  0  0  0  0  0  0  0
   -4.5723    0.3484    0.8556 H   0  0  0  0  0  0  0  0  0  0  0  0
   -4.7325    0.5654    2.6470 H   0  0  0  0  0  0  0  0  0  0  0  0
   -2.1479   -0.8711   -0.2981 H   0  0  0  0  0  0  0  0  0  0  0  0
   -2.5799    3.3647    0.0944 H   0  0  0  0  0  0  0  0  0  0  0  0
    0.9831    2.8666    2.4506 H   0  0  0  0  0  0  0  0  0  0  0  0
    0.5198    1.1308    2.6490 H   0  0  0  0  0  0  0  0  0  0  0  0
    2.7332   -0.1667   -0.1416 H   0  0  0  0  0  0  0  0  0  0  0  0
    1.6041   -0.6701    1.1717 H   0  0  0  0  0  0  0  0  0  0  0  0
    0.9954    0.2286   -0.2614 H   0  0  0  0  0  0  0  0  0  0  0  0
    1.6606    2.7107   -0.5938 H   0  0  0  0  0  0  0  0  0  0  0  0
    3.3824    2.2603   -0.4299 H   0  0  0  0  0  0  0  0  0  0  0  0
    2.6825    3.5283    0.6437 H   0  0  0  0  0  0  0  0  0  0  0  0
    3.3533    2.3196    2.7528 H   0  0  0  0  0  0  0  0  0  0  0  0
    3.4729    0.5214    3.9994 H   0  0  0  0  0  0  0  0  0  0  0  0
    4.2797   -1.1656    1.7208 H   0  0  0  0  0  0  0  0  0  0  0  0
    6.2920   -1.8774    0.7826 H   0  0  0  0  0  0  0  0  0  0  0  0
    6.9936   -0.2457    1.0662 H   0  0  0  0  0  0  0  0  0  0  0  0
    5.7712    0.5995   -0.9966 H   0  0  0  0  0  0  0  0  0  0  0  0
    5.0784   -1.0403   -1.2414 H   0  0  0  0  0  0  0  0  0  0  0  0
    8.2631    0.9199   -1.1520 H   0  0  0  0  0  0  0  0  0  0  0  0
    9.4531   -0.8094   -3.2014 H   0  0  0  0  0  0  0  0  0  0  0  0
   10.2739    0.4739   -2.2638 H   0  0  0  0  0  0  0  0  0  0  0  0
   11.2864   -1.7607   -1.8118 H   0  0  0  0  0  0  0  0  0  0  0  0
    9.7002   -2.4087   -1.3024 H   0  0  0  0  0  0  0  0  0  0  0  0
    9.6352   -0.7622    0.6135 H   0  0  0  0  0  0  0  0  0  0  0  0
   13.5486    0.6875   -0.0888 H   0  0  0  0  0  0  0  0  0  0  0  0
   -5.5758   -1.5478   -0.2124 H   0  0  0  0  0  0  0  0  0  0  0  0
   -3.3169   -3.8016   -1.5281 H   0  0  0  0  0  0  0  0  0  0  0  0
   -5.9848   -3.4511   -1.9886 H   0  0  0  0  0  0  0  0  0  0  0  0
   -7.7682   -2.1029   -0.7290 H   0  0  0  0  0  0  0  0  0  0  0  0
   -8.1404   -2.9047    2.0081 H   0  0  0  0  0  0  0  0  0  0  0  0
   -4.6358    1.8952   -2.0324 H   0  0  0  0  0  0  0  0  0  0  0  0
  1  2  1  0
  2  3  2  0
  3  4  1  0
  4  5  2  0
  5  6  1  0
  6  7  1  0
  7  8  1  0
  8  9  1  0
  9 10  1  0
 10 11  1  0
 11 12  1  0
 12 13  1  0
 12 14  2  0
 12 15  1  0
 15 16  1  0
 16 17  1  0
 16 18  2  0
 16 19  1  0
 19 20  1  0
 20 21  1  0
 21 22  1  0
 21 23  1  0
 21 24  1  0
 24 25  1  0
 24 26  1  0
 26 27  2  0
 26 28  1  0
 28 29  1  0
 29 30  1  0
 30 31  1  0
 31 32  2  0
 31 33  1  0
 33 34  1  0
 34 35  1  0
 35 36  1  0
 36 37  1  0
 36 38  1  0
 38 39  1  0
 38 40  2  0
  9 41  1  0
 41 42  1  0
 42 43  1  0
 43 44  1  0
 43 45  1  0
 43 46  2  0
 41 47  1  0
 47 48  1  0
  6 49  1  0
 49 50  2  0
 50 51  1  0
 51 52  2  0
 52  2  1  0
 49  3  1  0
 47  7  1  0
  1 53  1  0
  1 54  1  0
  5 55  1  0
  7 56  1  1
  9 57  1  1
 10 58  1  0
 10 59  1  0
 13 60  1  0
 17 61  1  0
 20 62  1  0
 20 63  1  0
 22 64  1  0
 22 65  1  0
 22 66  1  0
 23 67  1  0
 23 68  1  0
 23 69  1  0
 24 70  1  1
 25 71  1  0
 28 72  1  0
 29 73  1  0
 29 74  1  0
 30 75  1  0
 30 76  1  0
 33 77  1  0
 34 78  1  0
 34 79  1  0
 35 80  1  0
 35 81  1  0
 36 82  1  1
 39 83  1  0
 41 84  1  6
 44 85  1  0
 45 86  1  0
 47 87  1  6
 48 88  1  0
 51 89  1  0
M  END
$$$$
