
     RDKit          3D

 51 53  0  0  0  0  0  0  0  0999 V2000
    1.1063    3.2932   -1.5976 C   0  0  0  0  0  0  0  0  0  0  0  0
    2.1970    2.6295   -0.9655 O   0  0  0  0  0  0  0  0  0  0  0  0
    2.0799    1.6453    0.0297 C   0  0  0  0  0  0  0  0  0  0  0  0
    3.2443    1.0468    0.5797 C   0  0  0  0  0  0  0  0  0  0  0  0
    4.5431    1.4102    0.1751 O   0  0  0  0  0  0  0  0  0  0  0  0
    4.9054    2.3933   -0.7885 C   0  0  0  0  0  0  0  0  0  0  0  0
    3.1042    0.0408    1.5749 C   0  0  0  0  0  0  0  0  0  0  0  0
    4.1956   -0.6219    2.1737 O   0  0  0  0  0  0  0  0  0  0  0  0
    5.5783   -0.4247    1.8990 C   0  0  0  0  0  0  0  0  0  0  0  0
    1.8238   -0.3425    2.0094 C   0  0  0  0  0  0  0  0  0  0  0  0
    1.6914   -1.6137    3.2299 Cl  0  0  0  0  0  0  0  0  0  0  0  0
    0.6732    0.2669    1.4766 C   0  0  0  0  0  0  0  0  0  0  0  0
   -0.7195   -0.1495    1.8933 C   0  0  0  0  0  0  0  0  0  0  0  0
   -1.2269   -1.2635    1.0166 C   0  0  0  0  0  0  0  0  0  0  0  0
   -0.4636   -2.3511    0.7094 N   0  0  0  0  0  0  0  0  0  0  0  0
   -1.2865   -3.0882   -0.0573 C   0  0  0  0  0  0  0  0  0  0  0  0
   -1.0531   -4.3056   -0.6857 C   0  0  0  0  0  0  0  0  0  0  0  0
    0.1979   -4.9837   -0.5709 N   0  0  0  0  0  0  0  0  0  0  0  0
   -2.0683   -4.8388   -1.4294 N   0  0  0  0  0  0  0  0  0  0  0  0
   -3.2754   -4.1984   -1.5545 C   0  0  0  0  0  0  0  0  0  0  0  0
   -4.2584   -4.7559   -2.3010 F   0  0  0  0  0  0  0  0  0  0  0  0
   -3.4925   -3.0010   -0.9310 N   0  0  0  0  0  0  0  0  0  0  0  0
   -2.4845   -2.4765   -0.1922 C   0  0  0  0  0  0  0  0  0  0  0  0
   -2.4857   -1.3247    0.4919 N   0  0  0  0  0  0  0  0  0  0  0  0
   -3.5682   -0.3410    0.5589 C   0  0  0  0  0  0  0  0  0  0  0  0
   -3.3933    0.7111   -0.5393 C   0  0  0  0  0  0  0  0  0  0  0  0
   -4.4987    1.7665   -0.4727 C   0  0  0  0  0  0  0  0  0  0  0  0
   -4.3060    2.7740   -1.5217 C   0  0  0  0  0  0  0  0  0  0  0  0
   -4.1463    3.6019   -2.3833 C   0  0  0  0  0  0  0  0  0  0  0  0
    0.8141    1.2426    0.4864 C   0  0  0  0  0  0  0  0  0  0  0  0
    0.5112    3.8529   -0.8456 H   0  0  0  0  0  0  0  0  0  0  0  0
    0.4646    2.5568   -2.1262 H   0  0  0  0  0  0  0  0  0  0  0  0
    1.5040    4.0137   -2.3412 H   0  0  0  0  0  0  0  0  0  0  0  0
    4.5096    2.1174   -1.7884 H   0  0  0  0  0  0  0  0  0  0  0  0
    4.5423    3.3942   -0.4738 H   0  0  0  0  0  0  0  0  0  0  0  0
    6.0117    2.4347   -0.8568 H   0  0  0  0  0  0  0  0  0  0  0  0
    5.7987   -0.6648    0.8376 H   0  0  0  0  0  0  0  0  0  0  0  0
    6.1705   -1.1120    2.5371 H   0  0  0  0  0  0  0  0  0  0  0  0
    5.8759    0.6159    2.1460 H   0  0  0  0  0  0  0  0  0  0  0  0
   -0.7419   -0.4806    2.9516 H   0  0  0  0  0  0  0  0  0  0  0  0
   -1.3905    0.7318    1.8375 H   0  0  0  0  0  0  0  0  0  0  0  0
    0.9781   -4.5806   -0.0055 H   0  0  0  0  0  0  0  0  0  0  0  0
    0.3461   -5.8966   -1.0553 H   0  0  0  0  0  0  0  0  0  0  0  0
   -4.5462   -0.8542    0.4290 H   0  0  0  0  0  0  0  0  0  0  0  0
   -3.5828    0.1393    1.5604 H   0  0  0  0  0  0  0  0  0  0  0  0
   -3.4176    0.2078   -1.5314 H   0  0  0  0  0  0  0  0  0  0  0  0
   -2.4048    1.2044   -0.4216 H   0  0  0  0  0  0  0  0  0  0  0  0
   -5.4912    1.2879   -0.6146 H   0  0  0  0  0  0  0  0  0  0  0  0
   -4.4812    2.2740    0.5154 H   0  0  0  0  0  0  0  0  0  0  0  0
   -4.0056    4.3286   -3.1397 H   0  0  0  0  0  0  0  0  0  0  0  0
   -0.0786    1.6880    0.0711 H   0  0  0  0  0  0  0  0  0  0  0  0
  1  2  1  0
  2  3  1  0
  3  4  2  0
  4  5  1  0
  5  6  1  0
  4  7  1  0
  7  8  1  0
  8  9  1  0
  7 10  2  0
 10 11  1  0
 10 12  1  0
 12 13  1  0
 13 14  1  0
 14 15  2  0
 15 16  1  0
 16 17  2  0
 17 18  1  0
 17 19  1  0
 19 20  2  0
 20 21  1  0
 20 22  1  0
 22 23  2  0
 23 24  1  0
 24 25  1  0
 25 26  1  0
 26 27  1  0
 27 28  1  0
 28 29  3  0
 12 30  2  0
 30  3  1  0
 24 14  1  0
 23 16  1  0
  1 31  1  0
  1 32  1  0
  1 33  1  0
  6 34  1  0
  6 35  1  0
  6 36  1  0
  9 37  1  0
  9 38  1  0
  9 39  1  0
 13 40  1  0
 13 41  1  0
 18 42  1  0
 18 43  1  0
 25 44  1  0
 25 45  1  0
 26 46  1  0
 26 47  1  0
 27 48  1  0
 27 49  1  0
 29 50  1  0
 30 51  1  0
M  END
$$$$
