
     RDKit          3D

 48 50  0  0  0  0  0  0  0  0999 V2000
   -0.8285   -2.0624    0.4972 C   0  0  2  0  0  0  0  0  0  0  0  0
    0.2180   -2.6096    1.3844 N   0  0  0  0  0  0  0  0  0  0  0  0
    0.0830   -2.1430    2.7778 C   0  0  0  0  0  0  0  0  0  0  0  0
    0.1502   -0.6158    2.9105 C   0  0  0  0  0  0  0  0  0  0  0  0
   -0.5233    0.1165    1.7787 C   0  0  0  0  0  0  0  0  0  0  0  0
   -0.6188    1.5135    1.8427 C   0  0  0  0  0  0  0  0  0  0  0  0
   -1.1296    2.2449    0.7636 C   0  0  0  0  0  0  0  0  0  0  0  0
   -1.2030    3.6353    0.8299 O   0  0  0  0  0  0  0  0  0  0  0  0
   -1.5591    1.5848   -0.3937 C   0  0  0  0  0  0  0  0  0  0  0  0
   -2.0452    2.3547   -1.4617 O   0  0  0  0  0  0  0  0  0  0  0  0
   -2.4478    1.8228   -2.7195 C   0  0  0  0  0  0  0  0  0  0  0  0
   -1.4814    0.1815   -0.4555 C   0  0  0  0  0  0  0  0  0  0  0  0
   -0.9482   -0.5548    0.6148 C   0  0  0  0  0  0  0  0  0  0  0  0
    1.8383   -2.3961    0.7325 S   0  0  0  0  0  6  0  0  0  0  0  0
    2.8524   -2.4029    1.8433 O   0  0  0  0  0  0  0  0  0  0  0  0
    2.1411   -3.5578   -0.1716 O   0  0  0  0  0  0  0  0  0  0  0  0
    2.0177   -0.9044   -0.2030 C   0  0  0  0  0  0  0  0  0  0  0  0
    2.5106    0.2610    0.4000 C   0  0  0  0  0  0  0  0  0  0  0  0
    2.5377    1.4656   -0.3083 C   0  0  0  0  0  0  0  0  0  0  0  0
    2.0914    1.5145   -1.6425 C   0  0  0  0  0  0  0  0  0  0  0  0
    2.0660    2.7042   -2.3845 O   0  0  0  0  0  0  0  0  0  0  0  0
    2.4229    3.9810   -1.8656 C   0  0  0  0  0  0  0  0  0  0  0  0
    1.6524    0.3372   -2.2579 C   0  0  0  0  0  0  0  0  0  0  0  0
    1.6211   -0.8656   -1.5474 C   0  0  0  0  0  0  0  0  0  0  0  0
   -2.1465   -2.7446    0.7720 C   0  0  0  0  0  0  0  0  0  0  0  0
   -3.0136   -2.1940    1.5048 O   0  0  0  0  0  0  0  0  0  0  0  0
   -2.3955   -4.0489    0.2414 N   0  0  0  0  0  0  0  0  0  0  0  0
   -3.5625   -4.6864    0.4984 O   0  0  0  0  0  0  0  0  0  0  0  0
   -0.5694   -2.3127   -0.5542 H   0  0  0  0  0  0  0  0  0  0  0  0
    0.8629   -2.6103    3.4160 H   0  0  0  0  0  0  0  0  0  0  0  0
   -0.8877   -2.4959    3.1880 H   0  0  0  0  0  0  0  0  0  0  0  0
   -0.3227   -0.3203    3.8721 H   0  0  0  0  0  0  0  0  0  0  0  0
    1.2126   -0.3039    2.9610 H   0  0  0  0  0  0  0  0  0  0  0  0
   -0.2702    2.0375    2.7246 H   0  0  0  0  0  0  0  0  0  0  0  0
   -0.8940    4.1446    1.6496 H   0  0  0  0  0  0  0  0  0  0  0  0
   -1.5976    1.2922   -3.1986 H   0  0  0  0  0  0  0  0  0  0  0  0
   -3.3051    1.1301   -2.5847 H   0  0  0  0  0  0  0  0  0  0  0  0
   -2.7647    2.6554   -3.3803 H   0  0  0  0  0  0  0  0  0  0  0  0
   -1.8084   -0.3459   -1.3416 H   0  0  0  0  0  0  0  0  0  0  0  0
    2.8553    0.2466    1.4245 H   0  0  0  0  0  0  0  0  0  0  0  0
    2.8977    2.3534    0.1932 H   0  0  0  0  0  0  0  0  0  0  0  0
    3.4872    3.9807   -1.5489 H   0  0  0  0  0  0  0  0  0  0  0  0
    1.7678    4.2400   -1.0068 H   0  0  0  0  0  0  0  0  0  0  0  0
    2.2886    4.7450   -2.6585 H   0  0  0  0  0  0  0  0  0  0  0  0
    1.3153    0.3588   -3.2864 H   0  0  0  0  0  0  0  0  0  0  0  0
    1.2569   -1.7587   -2.0382 H   0  0  0  0  0  0  0  0  0  0  0  0
   -1.6654   -4.5315   -0.3291 H   0  0  0  0  0  0  0  0  0  0  0  0
   -4.1591   -4.4362   -0.2527 H   0  0  0  0  0  0  0  0  0  0  0  0
  1  2  1  0
  2  3  1  0
  3  4  1  0
  4  5  1  0
  5  6  2  0
  6  7  1  0
  7  8  1  0
  7  9  2  0
  9 10  1  0
 10 11  1  0
  9 12  1  0
 12 13  2  0
  2 14  1  0
 14 15  2  0
 14 16  2  0
 14 17  1  0
 17 18  2  0
 18 19  1  0
 19 20  2  0
 20 21  1  0
 21 22  1  0
 20 23  1  0
 23 24  2  0
  1 25  1  0
 25 26  2  0
 25 27  1  0
 27 28  1  0
 13  1  1  0
 24 17  1  0
 13  5  1  0
  1 29  1  6
  3 30  1  0
  3 31  1  0
  4 32  1  0
  4 33  1  0
  6 34  1  0
  8 35  1  0
 11 36  1  0
 11 37  1  0
 11 38  1  0
 12 39  1  0
 18 40  1  0
 19 41  1  0
 22 42  1  0
 22 43  1  0
 22 44  1  0
 23 45  1  0
 24 46  1  0
 27 47  1  0
 28 48  1  0
M  END
$$$$
