
     RDKit          3D

 78 77  0  0  0  0  0  0  0  0999 V2000
   -0.7691    0.0485    1.4942 N   0  0  0  0  0  0  0  0  0  0  0  0
   -0.0548    0.0194    0.2090 C   0  0  0  0  0  0  0  0  0  0  0  0
    1.2603   -0.7741    0.4056 C   0  0  0  0  0  0  0  0  0  0  0  0
    1.9692   -0.8799   -0.8000 O   0  0  0  0  0  0  0  0  0  0  0  0
    0.2811    1.4642   -0.2531 C   0  0  0  0  0  0  0  0  0  0  0  0
   -0.8817    2.2348   -0.4144 O   0  0  0  0  0  0  0  0  0  0  0  0
   -0.9436   -0.6805   -0.8494 C   0  0  0  0  0  0  0  0  0  0  0  0
   -1.2673   -1.9808   -0.4361 O   0  0  0  0  0  0  0  0  0  0  0  0
   -8.1152   -1.0445   -1.1055 C   0  0  0  0  0  0  0  0  0  0  0  0
   -6.9046   -1.4009   -1.9683 C   0  0  0  0  0  0  0  0  0  0  0  0
   -5.6546   -0.5815   -1.6101 C   0  0  0  0  0  0  0  0  0  0  0  0
   -5.0254   -1.0204   -0.2764 C   0  0  0  0  0  0  0  0  0  0  0  0
   -3.7942   -0.1792    0.1048 C   0  0  0  0  0  0  0  0  0  0  0  0
   -2.5487   -0.4823   -0.7600 C   0  0  2  0  0  0  0  0  0  0  0  0
   -2.1881   -1.8411   -0.7075 O   0  0  0  0  0  0  0  0  0  0  0  0
   -1.3787    0.3941   -0.3756 C   0  0  0  0  0  0  0  0  0  0  0  0
   -0.8006    0.3396    0.8356 C   0  0  0  0  0  0  0  0  0  0  0  0
    0.3912    1.2007    1.1829 C   0  0  1  0  0  0  0  0  0  0  0  0
    0.1946    1.9424    2.5158 C   0  0  2  0  0  0  0  0  0  0  0  0
   -0.3005    3.2380    2.2988 O   0  0  0  0  0  0  0  0  0  0  0  0
    1.5761    2.0044    3.1884 C   0  0  0  0  0  0  0  0  0  0  0  0
    2.5501    1.2311    2.2876 C   0  0  2  0  0  0  0  0  0  0  0  0
    3.3588    2.1153    1.5492 O   0  0  0  0  0  0  0  0  0  0  0  0
    1.6532    0.3615    1.3968 C   0  0  2  0  0  0  0  0  0  0  0  0
    2.3079   -0.2116    0.1157 C   0  0  0  0  0  0  0  0  0  0  0  0
    2.5816    0.8045   -0.9705 C   0  0  0  0  0  0  0  0  0  0  0  0
    3.7960    1.2475   -1.3505 C   0  0  0  0  0  0  0  0  0  0  0  0
    5.1217    0.8164   -0.7678 C   0  0  0  0  0  0  0  0  0  0  0  0
    5.8946   -0.0908   -1.7372 C   0  0  0  0  0  0  0  0  0  0  0  0
    5.2968   -1.5011   -1.8665 C   0  0  0  0  0  0  0  0  0  0  0  0
    5.4628   -2.3136   -0.6159 C   0  0  0  0  0  0  0  0  0  0  0  0
    6.6821   -2.3279    0.0554 O   0  0  0  0  0  0  0  0  0  0  0  0
    4.5129   -3.0309   -0.2026 O   0  0  0  0  0  0  0  0  0  0  0  0
   -1.6949    0.5218    1.3796 H   0  0  0  0  0  0  0  0  0  0  0  0
   -0.2205    0.6079    2.1881 H   0  0  0  0  0  0  0  0  0  0  0  0
    1.0319   -1.7929    0.7927 H   0  0  0  0  0  0  0  0  0  0  0  0
    1.8961   -0.2621    1.1634 H   0  0  0  0  0  0  0  0  0  0  0  0
    2.7902   -1.3976   -0.5931 H   0  0  0  0  0  0  0  0  0  0  0  0
    0.8096    1.4331   -1.2301 H   0  0  0  0  0  0  0  0  0  0  0  0
    0.9748    1.9522    0.4716 H   0  0  0  0  0  0  0  0  0  0  0  0
   -1.0583    2.6790    0.4556 H   0  0  0  0  0  0  0  0  0  0  0  0
   -0.4152   -0.7208   -1.8288 H   0  0  0  0  0  0  0  0  0  0  0  0
   -1.8836   -0.1021   -0.9955 H   0  0  0  0  0  0  0  0  0  0  0  0
   -1.8242   -2.3701   -1.1595 H   0  0  0  0  0  0  0  0  0  0  0  0
   -8.3109    0.0483   -1.1415 H   0  0  0  0  0  0  0  0  0  0  0  0
   -7.9570   -1.3581   -0.0533 H   0  0  0  0  0  0  0  0  0  0  0  0
   -9.0109   -1.5754   -1.4912 H   0  0  0  0  0  0  0  0  0  0  0  0
   -6.6894   -2.4879   -1.8792 H   0  0  0  0  0  0  0  0  0  0  0  0
   -7.1650   -1.1969   -3.0296 H   0  0  0  0  0  0  0  0  0  0  0  0
   -4.9179   -0.7267   -2.4274 H   0  0  0  0  0  0  0  0  0  0  0  0
   -5.9111    0.5000   -1.5742 H   0  0  0  0  0  0  0  0  0  0  0  0
   -5.7732   -0.8984    0.5350 H   0  0  0  0  0  0  0  0  0  0  0  0
   -4.7536   -2.0973   -0.3199 H   0  0  0  0  0  0  0  0  0  0  0  0
   -4.0467    0.9014    0.0280 H   0  0  0  0  0  0  0  0  0  0  0  0
   -3.5586   -0.3832    1.1720 H   0  0  0  0  0  0  0  0  0  0  0  0
   -2.7886   -0.2403   -1.8158 H   0  0  0  0  0  0  0  0  0  0  0  0
   -2.0939   -2.0969    0.2468 H   0  0  0  0  0  0  0  0  0  0  0  0
   -0.9961    1.0860   -1.1212 H   0  0  0  0  0  0  0  0  0  0  0  0
   -1.1612   -0.3667    1.5780 H   0  0  0  0  0  0  0  0  0  0  0  0
    0.5718    1.9589    0.3888 H   0  0  0  0  0  0  0  0  0  0  0  0
   -0.4970    1.3811    3.1891 H   0  0  0  0  0  0  0  0  0  0  0  0
   -1.2529    3.1351    2.0379 H   0  0  0  0  0  0  0  0  0  0  0  0
    1.9154    3.0530    3.3421 H   0  0  0  0  0  0  0  0  0  0  0  0
    1.5261    1.5151    4.1864 H   0  0  0  0  0  0  0  0  0  0  0  0
    3.2137    0.5854    2.9036 H   0  0  0  0  0  0  0  0  0  0  0  0
    2.7668    2.7567    1.0759 H   0  0  0  0  0  0  0  0  0  0  0  0
    1.3709   -0.5222    2.0175 H   0  0  0  0  0  0  0  0  0  0  0  0
    1.6120   -0.9629   -0.3156 H   0  0  0  0  0  0  0  0  0  0  0  0
    3.2097   -0.7836    0.3979 H   0  0  0  0  0  0  0  0  0  0  0  0
    1.7209    1.2001   -1.5014 H   0  0  0  0  0  0  0  0  0  0  0  0
    3.8343    1.9584   -2.1712 H   0  0  0  0  0  0  0  0  0  0  0  0
    5.7233    1.7372   -0.6116 H   0  0  0  0  0  0  0  0  0  0  0  0
    5.0346    0.3471    0.2312 H   0  0  0  0  0  0  0  0  0  0  0  0
    6.9516   -0.1651   -1.4005 H   0  0  0  0  0  0  0  0  0  0  0  0
    5.9148    0.3832   -2.7434 H   0  0  0  0  0  0  0  0  0  0  0  0
    4.2217   -1.4342   -2.1407 H   0  0  0  0  0  0  0  0  0  0  0  0
    5.8168   -2.0329   -2.6914 H   0  0  0  0  0  0  0  0  0  0  0  0
    6.8092   -2.8878    0.8899 H   0  0  0  0  0  0  0  0  0  0  0  0
  1  2  1  0
  2  3  1  0
  3  4  1  0
  2  5  1  0
  5  6  1  0
  2  7  1  0
  7  8  1  0
  9 10  1  0
 10 11  1  0
 11 12  1  0
 12 13  1  0
 13 14  1  0
 14 15  1  0
 14 16  1  0
 16 17  2  0
 17 18  1  0
 18 19  1  0
 19 20  1  0
 19 21  1  0
 21 22  1  0
 22 23  1  0
 22 24  1  0
 24 25  1  0
 25 26  1  0
 26 27  2  0
 27 28  1  0
 28 29  1  0
 29 30  1  0
 30 31  1  0
 31 32  1  0
 31 33  2  0
 24 18  1  0
  1 34  1  0
  1 35  1  0
  3 36  1  0
  3 37  1  0
  4 38  1  0
  5 39  1  0
  5 40  1  0
  6 41  1  0
  7 42  1  0
  7 43  1  0
  8 44  1  0
  9 45  1  0
  9 46  1  0
  9 47  1  0
 10 48  1  0
 10 49  1  0
 11 50  1  0
 11 51  1  0
 12 52  1  0
 12 53  1  0
 13 54  1  0
 13 55  1  0
 14 56  1  6
 15 57  1  0
 16 58  1  0
 17 59  1  0
 18 60  1  6
 19 61  1  1
 20 62  1  0
 21 63  1  0
 21 64  1  0
 22 65  1  1
 23 66  1  0
 24 67  1  1
 25 68  1  0
 25 69  1  0
 26 70  1  0
 27 71  1  0
 28 72  1  0
 28 73  1  0
 29 74  1  0
 29 75  1  0
 30 76  1  0
 30 77  1  0
 32 78  1  0
M  END
$$$$
