
     RDKit          3D

 96 98  0  0  0  0  0  0  0  0999 V2000
   12.4001   -2.8716   -3.6819 C   0  0  0  0  0  0  0  0  0  0  0  0
   11.8664   -3.0000   -2.2500 C   0  0  0  0  0  0  0  0  0  0  0  0
   11.8893   -4.3441   -1.8429 O   0  0  0  0  0  0  0  0  0  0  0  0
   10.4424   -2.4348   -2.1028 C   0  0  0  0  0  0  0  0  0  0  0  0
    9.4071   -3.2484   -2.8324 C   0  0  0  0  0  0  0  0  0  0  0  0
    9.3085   -3.1729   -4.0468 O   0  0  0  0  0  0  0  0  0  0  0  0
    8.2930   -4.3252   -1.9202 S   0  0  0  0  0  0  0  0  0  0  0  0
    7.0488   -3.0283   -1.5934 C   0  0  0  0  0  0  0  0  0  0  0  0
    6.1391   -2.8282   -2.8060 C   0  0  0  0  0  0  0  0  0  0  0  0
    5.1067   -1.8380   -2.5092 N   0  0  0  0  0  0  0  0  0  0  0  0
    5.3816   -0.4312   -2.4518 C   0  0  0  0  0  0  0  0  0  0  0  0
    6.5407    0.0031   -2.6931 O   0  0  0  0  0  0  0  0  0  0  0  0
    4.2998    0.5293   -2.0624 C   0  0  0  0  0  0  0  0  0  0  0  0
    4.1532    0.5782   -0.5403 C   0  0  0  0  0  0  0  0  0  0  0  0
    3.1098    1.5268   -0.1578 N   0  0  0  0  0  0  0  0  0  0  0  0
    1.7106    1.2267   -0.2870 C   0  0  0  0  0  0  0  0  0  0  0  0
    1.3452    0.1131   -0.7538 O   0  0  0  0  0  0  0  0  0  0  0  0
    0.6611    2.2221    0.1491 C   0  0  2  0  0  0  0  0  0  0  0  0
    1.1160    3.5206   -0.1492 O   0  0  0  0  0  0  0  0  0  0  0  0
    0.2818    2.0997    1.6659 C   0  0  0  0  0  0  0  0  0  0  0  0
    1.5029    2.3849    2.5706 C   0  0  0  0  0  0  0  0  0  0  0  0
   -0.2463    0.6747    1.9641 C   0  0  0  0  0  0  0  0  0  0  0  0
   -0.8407    3.1234    1.9859 C   0  0  0  0  0  0  0  0  0  0  0  0
   -1.2569    2.9978    3.3267 O   0  0  0  0  0  0  0  0  0  0  0  0
   -2.5417    4.0887    3.6245 P   0  0  0  0  0  5  0  0  0  0  0  0
   -3.3918    4.4708    2.2065 O   0  0  0  0  0  0  0  0  0  0  0  0
   -1.9647    5.3599    4.2056 O   0  0  0  0  0  0  0  0  0  0  0  0
   -3.6494    3.4436    4.7483 O   0  0  0  0  0  0  0  0  0  0  0  0
   -3.6430    1.7473    4.5881 P   0  0  0  0  0  5  0  0  0  0  0  0
   -5.0509    1.1279    5.2974 O   0  0  0  0  0  0  0  0  0  0  0  0
   -2.4471    1.1890    5.3264 O   0  0  0  0  0  0  0  0  0  0  0  0
   -3.5512    1.2709    2.9513 O   0  0  0  0  0  0  0  0  0  0  0  0
   -4.8059    1.4741    2.3482 C   0  0  0  0  0  0  0  0  0  0  0  0
   -4.6515    1.3307    0.8319 C   0  0  1  0  0  0  0  0  0  0  0  0
   -4.1838    0.0411    0.5122 O   0  0  0  0  0  0  0  0  0  0  0  0
   -4.7086   -0.2956   -0.7551 C   0  0  2  0  0  0  0  0  0  0  0  0
   -5.7678    0.7404   -1.1615 C   0  0  2  0  0  0  0  0  0  0  0  0
   -5.3264    1.5273   -2.2445 O   0  0  0  0  0  0  0  0  0  0  0  0
   -5.9674    1.5564    0.1005 C   0  0  2  0  0  0  0  0  0  0  0  0
   -6.1429    2.9349   -0.1673 O   0  0  0  0  0  0  0  0  0  0  0  0
   -7.8095    3.2903   -0.2521 P   0  0  0  0  0  5  0  0  0  0  0  0
   -8.5246    3.0281    1.2597 O   0  0  0  0  0  0  0  0  0  0  0  0
   -8.5630    2.3132   -1.4116 O   0  0  0  0  0  0  0  0  0  0  0  0
   -7.9836    4.7421   -0.6360 O   0  0  0  0  0  0  0  0  0  0  0  0
   -5.2938   -1.6375   -0.7043 N   0  0  0  0  0  0  0  0  0  0  0  0
   -5.2697   -2.5809   -1.6809 C   0  0  0  0  0  0  0  0  0  0  0  0
   -5.9841   -3.6985   -1.3713 N   0  0  0  0  0  0  0  0  0  0  0  0
   -6.4718   -3.4101   -0.1498 C   0  0  0  0  0  0  0  0  0  0  0  0
   -6.0681   -2.1812    0.2444 C   0  0  0  0  0  0  0  0  0  0  0  0
   -6.4429   -1.6333    1.4256 N   0  0  0  0  0  0  0  0  0  0  0  0
   -7.2544   -2.3675    2.2445 C   0  0  0  0  0  0  0  0  0  0  0  0
   -7.6745   -3.6183    1.8682 N   0  0  0  0  0  0  0  0  0  0  0  0
   -7.2993   -4.1657    0.6732 C   0  0  0  0  0  0  0  0  0  0  0  0
   -7.7529   -5.4655    0.2951 N   0  0  0  0  0  0  0  0  0  0  0  0
   12.3015   -1.8249   -4.0405 H   0  0  0  0  0  0  0  0  0  0  0  0
   11.8541   -3.5496   -4.3704 H   0  0  0  0  0  0  0  0  0  0  0  0
   13.4755   -3.1479   -3.7052 H   0  0  0  0  0  0  0  0  0  0  0  0
   12.5279   -2.3989   -1.5832 H   0  0  0  0  0  0  0  0  0  0  0  0
   12.8395   -4.5767   -1.6729 H   0  0  0  0  0  0  0  0  0  0  0  0
   10.4067   -1.3834   -2.4621 H   0  0  0  0  0  0  0  0  0  0  0  0
   10.1872   -2.4151   -1.0212 H   0  0  0  0  0  0  0  0  0  0  0  0
    6.4321   -3.3549   -0.7293 H   0  0  0  0  0  0  0  0  0  0  0  0
    7.5486   -2.0766   -1.3138 H   0  0  0  0  0  0  0  0  0  0  0  0
    5.6531   -3.7962   -3.0562 H   0  0  0  0  0  0  0  0  0  0  0  0
    6.7261   -2.5012   -3.6901 H   0  0  0  0  0  0  0  0  0  0  0  0
    4.1250   -2.1685   -2.3696 H   0  0  0  0  0  0  0  0  0  0  0  0
    3.3441    0.2105   -2.5300 H   0  0  0  0  0  0  0  0  0  0  0  0
    4.5448    1.5445   -2.4443 H   0  0  0  0  0  0  0  0  0  0  0  0
    5.1186    0.9015   -0.0921 H   0  0  0  0  0  0  0  0  0  0  0  0
    3.9105   -0.4298   -0.1375 H   0  0  0  0  0  0  0  0  0  0  0  0
    3.4027    2.4289    0.2802 H   0  0  0  0  0  0  0  0  0  0  0  0
   -0.2536    2.0037   -0.4560 H   0  0  0  0  0  0  0  0  0  0  0  0
    0.3400    4.0400   -0.4867 H   0  0  0  0  0  0  0  0  0  0  0  0
    2.2986    1.6262    2.4177 H   0  0  0  0  0  0  0  0  0  0  0  0
    1.2171    2.3485    3.6436 H   0  0  0  0  0  0  0  0  0  0  0  0
    1.9246    3.3906    2.3598 H   0  0  0  0  0  0  0  0  0  0  0  0
   -0.5657    0.5795    3.0238 H   0  0  0  0  0  0  0  0  0  0  0  0
   -1.1172    0.4363    1.3157 H   0  0  0  0  0  0  0  0  0  0  0  0
    0.5410   -0.0889    1.7918 H   0  0  0  0  0  0  0  0  0  0  0  0
   -1.6900    2.9208    1.2953 H   0  0  0  0  0  0  0  0  0  0  0  0
   -0.4648    4.1566    1.8072 H   0  0  0  0  0  0  0  0  0  0  0  0
   -2.8775    5.2033    1.7822 H   0  0  0  0  0  0  0  0  0  0  0  0
   -4.9701    0.1449    5.2051 H   0  0  0  0  0  0  0  0  0  0  0  0
   -5.2046    2.4934    2.5600 H   0  0  0  0  0  0  0  0  0  0  0  0
   -5.5282    0.7125    2.7169 H   0  0  0  0  0  0  0  0  0  0  0  0
   -3.8969    2.0725    0.4828 H   0  0  0  0  0  0  0  0  0  0  0  0
   -3.8697   -0.2999   -1.4868 H   0  0  0  0  0  0  0  0  0  0  0  0
   -6.7245    0.2529   -1.4524 H   0  0  0  0  0  0  0  0  0  0  0  0
   -4.4716    1.9614   -1.9843 H   0  0  0  0  0  0  0  0  0  0  0  0
   -6.7925    1.1041    0.7039 H   0  0  0  0  0  0  0  0  0  0  0  0
   -9.4944    3.1572    1.1062 H   0  0  0  0  0  0  0  0  0  0  0  0
   -8.1097    2.5361   -2.2636 H   0  0  0  0  0  0  0  0  0  0  0  0
   -4.7467   -2.4559   -2.6203 H   0  0  0  0  0  0  0  0  0  0  0  0
   -7.5684   -1.9584    3.1949 H   0  0  0  0  0  0  0  0  0  0  0  0
   -8.3757   -6.0095    0.9325 H   0  0  0  0  0  0  0  0  0  0  0  0
   -7.4711   -5.8893   -0.6167 H   0  0  0  0  0  0  0  0  0  0  0  0
  1  2  1  0
  2  3  1  0
  2  4  1  0
  4  5  1  0
  5  6  2  0
  5  7  1  0
  7  8  1  0
  8  9  1  0
  9 10  1  0
 10 11  1  0
 11 12  2  0
 11 13  1  0
 13 14  1  0
 14 15  1  0
 15 16  1  0
 16 17  2  0
 16 18  1  0
 18 19  1  0
 18 20  1  0
 20 21  1  0
 20 22  1  0
 20 23  1  0
 23 24  1  0
 24 25  1  0
 25 26  1  0
 25 27  2  0
 25 28  1  0
 28 29  1  0
 29 30  1  0
 29 31  2  0
 29 32  1  0
 32 33  1  0
 33 34  1  0
 34 35  1  0
 35 36  1  0
 36 37  1  0
 37 38  1  0
 37 39  1  0
 39 40  1  0
 40 41  1  0
 41 42  1  0
 41 43  1  0
 41 44  2  0
 36 45  1  0
 45 46  1  0
 46 47  2  0
 47 48  1  0
 48 49  2  0
 49 50  1  0
 50 51  2  0
 51 52  1  0
 52 53  2  0
 53 54  1  0
 39 34  1  0
 49 45  1  0
 53 48  1  0
  1 55  1  0
  1 56  1  0
  1 57  1  0
  2 58  1  0
  3 59  1  0
  4 60  1  0
  4 61  1  0
  8 62  1  0
  8 63  1  0
  9 64  1  0
  9 65  1  0
 10 66  1  0
 13 67  1  0
 13 68  1  0
 14 69  1  0
 14 70  1  0
 15 71  1  0
 18 72  1  6
 19 73  1  0
 21 74  1  0
 21 75  1  0
 21 76  1  0
 22 77  1  0
 22 78  1  0
 22 79  1  0
 23 80  1  0
 23 81  1  0
 26 82  1  0
 30 83  1  0
 33 84  1  0
 33 85  1  0
 34 86  1  6
 36 87  1  6
 37 88  1  6
 38 89  1  0
 39 90  1  1
 42 91  1  0
 43 92  1  0
 46 93  1  0
 51 94  1  0
 54 95  1  0
 54 96  1  0
M  END
$$$$
