
     RDKit          3D

 50 53  0  0  0  0  0  0  0  0999 V2000
   -7.1958   -1.4956   -3.7233 Cl  0  0  0  0  0  0  0  0  0  0  0  0
   -6.3542   -1.4303   -2.1860 C   0  0  0  0  0  0  0  0  0  0  0  0
   -5.0905   -0.8407   -2.0963 C   0  0  0  0  0  0  0  0  0  0  0  0
   -4.4454   -0.7935   -0.9006 N   0  0  0  0  0  0  0  0  0  0  0  0
   -4.9932   -1.3092    0.2358 C   0  0  0  0  0  0  0  0  0  0  0  0
   -4.2870   -1.2309    1.4802 N   0  0  0  0  0  0  0  0  0  0  0  0
   -2.7272   -0.4838    1.6015 S   0  0  0  0  0  6  0  0  0  0  0  0
   -1.7931   -1.1711    0.6447 O   0  0  0  0  0  0  0  0  0  0  0  0
   -2.2106   -0.6513    3.0024 O   0  0  0  0  0  0  0  0  0  0  0  0
   -2.8356    1.2419    1.2280 C   0  0  0  0  0  0  0  0  0  0  0  0
   -1.6955    1.9825    0.8411 C   0  0  0  0  0  0  0  0  0  0  0  0
   -0.3962    1.3694    0.8251 N   0  0  0  0  0  0  0  0  0  0  0  0
    0.5166    1.4936   -0.2804 C   0  0  0  0  0  0  0  0  0  0  0  0
    0.2028    2.2007   -1.2770 O   0  0  0  0  0  0  0  0  0  0  0  0
    1.8254    0.7975   -0.2752 C   0  0  0  0  0  0  0  0  0  0  0  0
    2.0085   -0.4084    0.4257 C   0  0  0  0  0  0  0  0  0  0  0  0
    3.2480   -1.0544    0.4130 C   0  0  0  0  0  0  0  0  0  0  0  0
    4.3243   -0.5152   -0.3080 C   0  0  0  0  0  0  0  0  0  0  0  0
    4.1425    0.6837   -1.0144 C   0  0  0  0  0  0  0  0  0  0  0  0
    2.9036    1.3303   -1.0034 C   0  0  0  0  0  0  0  0  0  0  0  0
    5.6040   -1.1800   -0.3116 N   0  0  0  0  0  0  0  0  0  0  0  0
    6.2162   -1.4395    0.8851 C   0  0  0  0  0  0  0  0  0  0  0  0
    7.4598   -2.0729    0.9269 C   0  0  0  0  0  0  0  0  0  0  0  0
    8.0789   -2.4447   -0.2636 C   0  0  0  0  0  0  0  0  0  0  0  0
    7.4505   -2.1850   -1.4796 C   0  0  0  0  0  0  0  0  0  0  0  0
    6.2028   -1.5516   -1.4912 C   0  0  0  0  0  0  0  0  0  0  0  0
    5.6335   -1.3427   -2.5976 O   0  0  0  0  0  0  0  0  0  0  0  0
   -1.8316    3.3480    0.5351 C   0  0  0  0  0  0  0  0  0  0  0  0
   -3.0811    3.9674    0.5990 C   0  0  0  0  0  0  0  0  0  0  0  0
   -4.2046    3.2360    0.9833 C   0  0  0  0  0  0  0  0  0  0  0  0
   -4.0830    1.8822    1.3021 C   0  0  0  0  0  0  0  0  0  0  0  0
   -6.2592   -1.9075    0.1819 C   0  0  0  0  0  0  0  0  0  0  0  0
   -6.9392   -1.9666   -1.0364 C   0  0  0  0  0  0  0  0  0  0  0  0
   -4.6202   -0.4191   -2.9748 H   0  0  0  0  0  0  0  0  0  0  0  0
   -4.7163   -1.6214    2.3487 H   0  0  0  0  0  0  0  0  0  0  0  0
   -0.1265    0.7933    1.6521 H   0  0  0  0  0  0  0  0  0  0  0  0
    1.1925   -0.8736    0.9617 H   0  0  0  0  0  0  0  0  0  0  0  0
    3.3673   -1.9855    0.9527 H   0  0  0  0  0  0  0  0  0  0  0  0
    4.9653    1.1218   -1.5653 H   0  0  0  0  0  0  0  0  0  0  0  0
    2.7926    2.2568   -1.5533 H   0  0  0  0  0  0  0  0  0  0  0  0
    5.7494   -1.1455    1.8183 H   0  0  0  0  0  0  0  0  0  0  0  0
    7.9400   -2.2709    1.8765 H   0  0  0  0  0  0  0  0  0  0  0  0
    9.0433   -2.9357   -0.2442 H   0  0  0  0  0  0  0  0  0  0  0  0
    7.9272   -2.4793   -2.4066 H   0  0  0  0  0  0  0  0  0  0  0  0
   -0.9649    3.9401    0.2708 H   0  0  0  0  0  0  0  0  0  0  0  0
   -3.1760    5.0195    0.3628 H   0  0  0  0  0  0  0  0  0  0  0  0
   -5.1711    3.7200    1.0399 H   0  0  0  0  0  0  0  0  0  0  0  0
   -4.9659    1.3359    1.6062 H   0  0  0  0  0  0  0  0  0  0  0  0
   -6.7134   -2.3210    1.0735 H   0  0  0  0  0  0  0  0  0  0  0  0
   -7.9177   -2.4270   -1.0854 H   0  0  0  0  0  0  0  0  0  0  0  0
  1  2  1  0
  2  3  2  0
  3  4  1  0
  4  5  2  0
  5  6  1  0
  6  7  1  0
  7  8  2  0
  7  9  2  0
  7 10  1  0
 10 11  1  0
 11 12  1  0
 12 13  1  0
 13 14  2  0
 13 15  1  0
 15 16  2  0
 16 17  1  0
 17 18  2  0
 18 19  1  0
 19 20  2  0
 18 21  1  0
 21 22  1  0
 22 23  2  0
 23 24  1  0
 24 25  2  0
 25 26  1  0
 26 27  2  0
 11 28  2  0
 28 29  1  0
 29 30  2  0
 30 31  1  0
  5 32  1  0
 32 33  2  0
 33  2  1  0
 31 10  2  0
 20 15  1  0
 26 21  1  0
  3 34  1  0
  6 35  1  0
 12 36  1  0
 16 37  1  0
 17 38  1  0
 19 39  1  0
 20 40  1  0
 22 41  1  0
 23 42  1  0
 24 43  1  0
 25 44  1  0
 28 45  1  0
 29 46  1  0
 30 47  1  0
 31 48  1  0
 32 49  1  0
 33 50  1  0
M  END
$$$$
