
     RDKit          3D

 61 64  0  0  0  0  0  0  0  0999 V2000
    5.3864   -2.9738   -3.3533 O   0  0  0  0  0  0  0  0  0  0  0  0
    5.3744   -3.1096   -2.1000 C   0  0  0  0  0  0  0  0  0  0  0  0
    4.3509   -3.9932   -1.4591 C   0  0  0  0  0  0  0  0  0  0  0  0
    3.2443   -3.1377   -0.9185 C   0  0  0  0  0  0  0  0  0  0  0  0
    3.3077   -2.6253    0.3835 C   0  0  0  0  0  0  0  0  0  0  0  0
    2.3230   -1.7399    0.8215 C   0  0  0  0  0  0  0  0  0  0  0  0
    1.2803   -1.3585   -0.0386 C   0  0  0  0  0  0  0  0  0  0  0  0
    1.2556   -1.9001   -1.3353 C   0  0  0  0  0  0  0  0  0  0  0  0
    2.2294   -2.7574   -1.7407 N   0  0  0  0  0  0  0  0  0  0  0  0
    0.2482   -0.3857    0.4018 C   0  0  0  0  0  0  0  0  0  0  0  0
   -0.2626   -0.4273    1.7107 C   0  0  0  0  0  0  0  0  0  0  0  0
   -1.2249    0.4968    2.1258 C   0  0  0  0  0  0  0  0  0  0  0  0
   -1.6988    1.4767    1.2475 C   0  0  0  0  0  0  0  0  0  0  0  0
   -2.6690    2.3751    1.7200 O   0  0  0  0  0  0  0  0  0  0  0  0
   -3.4078    3.2988    0.9187 C   0  0  0  0  0  0  0  0  0  0  0  0
   -4.4387    2.5722    0.0453 C   0  0  0  0  0  0  0  0  0  0  0  0
   -5.2019    1.5849    0.8385 N   0  0  0  0  0  0  0  0  0  0  0  0
   -5.7330    0.5170   -0.0328 C   0  0  0  0  0  0  0  0  0  0  0  0
   -6.7349   -0.3742    0.7280 C   0  0  0  0  0  0  0  0  0  0  0  0
   -6.6475   -0.1557    2.1214 O   0  0  0  0  0  0  0  0  0  0  0  0
   -7.0555    1.1669    2.4244 C   0  0  0  0  0  0  0  0  0  0  0  0
   -6.3065    2.2213    1.5809 C   0  0  0  0  0  0  0  0  0  0  0  0
   -1.1839    1.5290   -0.0610 C   0  0  0  0  0  0  0  0  0  0  0  0
   -0.2234    0.6038   -0.4789 C   0  0  0  0  0  0  0  0  0  0  0  0
    6.2667   -2.3424   -1.2827 N   0  0  0  0  0  0  0  0  0  0  0  0
    6.6183   -0.9699   -1.6319 C   0  0  0  0  0  0  0  0  0  0  0  0
    5.4864   -0.0521   -1.2563 C   0  0  0  0  0  0  0  0  0  0  0  0
    4.4845    0.2595   -2.1908 C   0  0  0  0  0  0  0  0  0  0  0  0
    3.3966    1.0552   -1.8181 C   0  0  0  0  0  0  0  0  0  0  0  0
    3.2959    1.5361   -0.5099 C   0  0  0  0  0  0  0  0  0  0  0  0
    4.2791    1.2159    0.4299 C   0  0  0  0  0  0  0  0  0  0  0  0
    5.3683    0.4199    0.0615 C   0  0  0  0  0  0  0  0  0  0  0  0
    3.9423   -4.7088   -2.2053 H   0  0  0  0  0  0  0  0  0  0  0  0
    4.8214   -4.5864   -0.6455 H   0  0  0  0  0  0  0  0  0  0  0  0
    4.1251   -2.8879    1.0433 H   0  0  0  0  0  0  0  0  0  0  0  0
    2.3983   -1.3254    1.8188 H   0  0  0  0  0  0  0  0  0  0  0  0
    0.4644   -1.6429   -2.0270 H   0  0  0  0  0  0  0  0  0  0  0  0
    0.0692   -1.1849    2.4095 H   0  0  0  0  0  0  0  0  0  0  0  0
   -1.6118    0.4463    3.1358 H   0  0  0  0  0  0  0  0  0  0  0  0
   -2.7240    3.9100    0.2925 H   0  0  0  0  0  0  0  0  0  0  0  0
   -3.9322    4.0051    1.5943 H   0  0  0  0  0  0  0  0  0  0  0  0
   -5.1141    3.3158   -0.4351 H   0  0  0  0  0  0  0  0  0  0  0  0
   -3.8869    2.0652   -0.7765 H   0  0  0  0  0  0  0  0  0  0  0  0
   -4.8865   -0.1137   -0.3839 H   0  0  0  0  0  0  0  0  0  0  0  0
   -6.2363    0.9490   -0.9283 H   0  0  0  0  0  0  0  0  0  0  0  0
   -6.5085   -1.4419    0.5218 H   0  0  0  0  0  0  0  0  0  0  0  0
   -7.7730   -0.1911    0.3659 H   0  0  0  0  0  0  0  0  0  0  0  0
   -8.1554    1.2707    2.2883 H   0  0  0  0  0  0  0  0  0  0  0  0
   -6.8463    1.3499    3.4999 H   0  0  0  0  0  0  0  0  0  0  0  0
   -5.9143    3.0081    2.2600 H   0  0  0  0  0  0  0  0  0  0  0  0
   -7.0219    2.7031    0.8754 H   0  0  0  0  0  0  0  0  0  0  0  0
   -1.5062    2.2851   -0.7619 H   0  0  0  0  0  0  0  0  0  0  0  0
    0.1690    0.6792   -1.4851 H   0  0  0  0  0  0  0  0  0  0  0  0
    6.4084   -2.6383   -0.2904 H   0  0  0  0  0  0  0  0  0  0  0  0
    7.5410   -0.6772   -1.0854 H   0  0  0  0  0  0  0  0  0  0  0  0
    6.8463   -0.8931   -2.7174 H   0  0  0  0  0  0  0  0  0  0  0  0
    4.5411   -0.1204   -3.2031 H   0  0  0  0  0  0  0  0  0  0  0  0
    2.6267    1.2914   -2.5411 H   0  0  0  0  0  0  0  0  0  0  0  0
    2.4504    2.1471   -0.2214 H   0  0  0  0  0  0  0  0  0  0  0  0
    4.1923    1.5767    1.4465 H   0  0  0  0  0  0  0  0  0  0  0  0
    6.1140    0.1638    0.8039 H   0  0  0  0  0  0  0  0  0  0  0  0
  1  2  2  0
  2  3  1  0
  3  4  1  0
  4  5  2  0
  5  6  1  0
  6  7  2  0
  7  8  1  0
  8  9  2  0
  7 10  1  0
 10 11  2  0
 11 12  1  0
 12 13  2  0
 13 14  1  0
 14 15  1  0
 15 16  1  0
 16 17  1  0
 17 18  1  0
 18 19  1  0
 19 20  1  0
 20 21  1  0
 21 22  1  0
 13 23  1  0
 23 24  2  0
  2 25  1  0
 25 26  1  0
 26 27  1  0
 27 28  2  0
 28 29  1  0
 29 30  2  0
 30 31  1  0
 31 32  2  0
  9  4  1  0
 24 10  1  0
 32 27  1  0
 22 17  1  0
  3 33  1  0
  3 34  1  0
  5 35  1  0
  6 36  1  0
  8 37  1  0
 11 38  1  0
 12 39  1  0
 15 40  1  0
 15 41  1  0
 16 42  1  0
 16 43  1  0
 18 44  1  0
 18 45  1  0
 19 46  1  0
 19 47  1  0
 21 48  1  0
 21 49  1  0
 22 50  1  0
 22 51  1  0
 23 52  1  0
 24 53  1  0
 25 54  1  0
 26 55  1  0
 26 56  1  0
 28 57  1  0
 29 58  1  0
 30 59  1  0
 31 60  1  0
 32 61  1  0
M  END
$$$$
