
     RDKit          3D

 43 46  0  0  0  0  0  0  0  0999 V2000
    0.0140    1.1866   -0.7412 C   0  0  2  0  0  0  0  0  0  0  0  0
    0.1427    2.6267   -0.4537 C   0  0  0  0  0  0  0  0  0  0  0  0
    0.2427    3.7574   -0.2280 N   0  0  0  0  0  0  0  0  0  0  0  0
   -1.2001    0.6775   -0.0103 C   0  0  0  0  0  0  0  0  0  0  0  0
   -1.1583    0.1646    1.2671 C   0  0  0  0  0  0  0  0  0  0  0  0
   -2.4077   -0.1304    1.7218 N   0  0  0  0  0  0  0  0  0  0  0  0
   -2.7577   -0.7647    2.9948 C   0  0  0  0  0  0  0  0  0  0  0  0
   -3.2534    0.2600    0.7262 C   0  0  0  0  0  0  0  0  0  0  0  0
   -4.6671    0.2557    0.6917 C   0  0  0  0  0  0  0  0  0  0  0  0
   -5.6599   -0.2596    2.0545 Cl  0  0  0  0  0  0  0  0  0  0  0  0
   -5.2999    0.7392   -0.4799 C   0  0  0  0  0  0  0  0  0  0  0  0
   -7.0536    0.7694   -0.6208 Cl  0  0  0  0  0  0  0  0  0  0  0  0
   -4.5358    1.2233   -1.5616 C   0  0  0  0  0  0  0  0  0  0  0  0
   -3.1375    1.2414   -1.4971 C   0  0  0  0  0  0  0  0  0  0  0  0
   -2.5316    0.7513   -0.3452 C   0  0  0  0  0  0  0  0  0  0  0  0
    0.1372    0.0602    1.9600 C   0  0  0  0  0  0  0  0  0  0  0  0
    0.2179   -0.1533    3.1976 O   0  0  0  0  0  0  0  0  0  0  0  0
    1.3276    0.3066    1.1934 N   0  0  0  0  0  0  0  0  0  0  0  0
    1.2847    0.3757   -0.2869 C   0  0  0  0  0  0  0  0  0  0  0  0
    2.5816    1.0385   -0.8364 C   0  0  0  0  0  0  0  0  0  0  0  0
    3.8251    0.1534   -0.6567 C   0  0  0  0  0  0  0  0  0  0  0  0
    3.6157   -1.1704   -1.2707 N   0  0  0  0  0  0  0  0  0  0  0  0
    4.8346   -1.9832   -1.1386 C   0  0  0  0  0  0  0  0  0  0  0  0
    2.4820   -1.8561   -0.6256 C   0  0  0  0  0  0  0  0  0  0  0  0
    1.1911   -1.0660   -0.8590 C   0  0  0  0  0  0  0  0  0  0  0  0
   -0.1383    1.0710   -1.8361 H   0  0  0  0  0  0  0  0  0  0  0  0
   -3.2078   -0.0154    3.6788 H   0  0  0  0  0  0  0  0  0  0  0  0
   -1.8773   -1.2205    3.4829 H   0  0  0  0  0  0  0  0  0  0  0  0
   -3.4626   -1.6022    2.8185 H   0  0  0  0  0  0  0  0  0  0  0  0
   -5.0302    1.5965   -2.4495 H   0  0  0  0  0  0  0  0  0  0  0  0
   -2.5509    1.6276   -2.3207 H   0  0  0  0  0  0  0  0  0  0  0  0
    2.2222    0.4586    1.7104 H   0  0  0  0  0  0  0  0  0  0  0  0
    2.7647    2.0071   -0.3225 H   0  0  0  0  0  0  0  0  0  0  0  0
    2.4578    1.2503   -1.9218 H   0  0  0  0  0  0  0  0  0  0  0  0
    4.0796    0.0564    0.4225 H   0  0  0  0  0  0  0  0  0  0  0  0
    4.6787    0.6647   -1.1543 H   0  0  0  0  0  0  0  0  0  0  0  0
    4.6933   -2.9672   -1.6353 H   0  0  0  0  0  0  0  0  0  0  0  0
    5.6865   -1.4804   -1.6449 H   0  0  0  0  0  0  0  0  0  0  0  0
    5.0959   -2.1511   -0.0696 H   0  0  0  0  0  0  0  0  0  0  0  0
    2.3487   -2.8666   -1.0721 H   0  0  0  0  0  0  0  0  0  0  0  0
    2.6587   -1.9858    0.4670 H   0  0  0  0  0  0  0  0  0  0  0  0
    0.9998   -1.0278   -1.9545 H   0  0  0  0  0  0  0  0  0  0  0  0
    0.3466   -1.6190   -0.3940 H   0  0  0  0  0  0  0  0  0  0  0  0
  1  2  1  0
  2  3  3  0
  1  4  1  0
  4  5  2  0
  5  6  1  0
  6  7  1  0
  6  8  1  0
  8  9  2  0
  9 10  1  0
  9 11  1  0
 11 12  1  0
 11 13  2  0
 13 14  1  0
 14 15  2  0
  5 16  1  0
 16 17  2  0
 16 18  1  0
 18 19  1  0
 19 20  1  0
 20 21  1  0
 21 22  1  0
 22 23  1  0
 22 24  1  0
 24 25  1  0
 19  1  1  0
 25 19  1  0
 15  4  1  0
 15  8  1  0
  1 26  1  6
  7 27  1  0
  7 28  1  0
  7 29  1  0
 13 30  1  0
 14 31  1  0
 18 32  1  0
 20 33  1  0
 20 34  1  0
 21 35  1  0
 21 36  1  0
 23 37  1  0
 23 38  1  0
 23 39  1  0
 24 40  1  0
 24 41  1  0
 25 42  1  0
 25 43  1  0
M  END
$$$$
