
     RDKit          3D

 35 37  0  0  0  0  0  0  0  0999 V2000
    3.3321    2.4966    1.8600 C   0  0  0  0  0  0  0  0  0  0  0  0
    1.9903    1.6091    1.0087 S   0  0  0  0  0  0  0  0  0  0  0  0
    2.6820   -0.0536    1.3302 C   0  0  0  0  0  0  0  0  0  0  0  0
    1.8112   -1.1719    0.7390 C   0  0  1  0  0  0  0  0  0  0  0  0
    0.4721   -1.0400    1.1521 O   0  0  0  0  0  0  0  0  0  0  0  0
   -0.3041   -1.7464    0.2072 C   0  0  2  0  0  0  0  0  0  0  0  0
    0.4984   -1.8838   -1.1006 C   0  0  2  0  0  0  0  0  0  0  0  0
    0.6577   -3.2356   -1.4656 O   0  0  0  0  0  0  0  0  0  0  0  0
    1.8207   -1.2042   -0.7830 C   0  0  2  0  0  0  0  0  0  0  0  0
    2.9295   -1.9201   -1.2631 O   0  0  0  0  0  0  0  0  0  0  0  0
   -1.5685   -1.0428   -0.0216 N   0  0  0  0  0  0  0  0  0  0  0  0
   -2.8227   -1.5595    0.0490 C   0  0  0  0  0  0  0  0  0  0  0  0
   -3.7976   -0.6560   -0.2480 N   0  0  0  0  0  0  0  0  0  0  0  0
   -3.0954    0.4615   -0.5145 C   0  0  0  0  0  0  0  0  0  0  0  0
   -1.7694    0.2317   -0.3820 C   0  0  0  0  0  0  0  0  0  0  0  0
   -0.8359    1.1841   -0.6187 N   0  0  0  0  0  0  0  0  0  0  0  0
   -1.2672    2.4257   -0.9943 C   0  0  0  0  0  0  0  0  0  0  0  0
   -2.6077    2.6850   -1.1305 N   0  0  0  0  0  0  0  0  0  0  0  0
   -3.5467    1.7194   -0.8980 C   0  0  0  0  0  0  0  0  0  0  0  0
   -4.9369    2.0057   -1.0515 N   0  0  0  0  0  0  0  0  0  0  0  0
    3.3752    2.1918    2.9264 H   0  0  0  0  0  0  0  0  0  0  0  0
    4.3037    2.2821    1.3682 H   0  0  0  0  0  0  0  0  0  0  0  0
    3.1357    3.5870    1.8061 H   0  0  0  0  0  0  0  0  0  0  0  0
    3.7070   -0.1208    0.9059 H   0  0  0  0  0  0  0  0  0  0  0  0
    2.7514   -0.2025    2.4292 H   0  0  0  0  0  0  0  0  0  0  0  0
    2.2022   -2.1417    1.1271 H   0  0  0  0  0  0  0  0  0  0  0  0
   -0.5255   -2.7519    0.6320 H   0  0  0  0  0  0  0  0  0  0  0  0
    0.0030   -1.3533   -1.9436 H   0  0  0  0  0  0  0  0  0  0  0  0
    1.1203   -3.7042   -0.7216 H   0  0  0  0  0  0  0  0  0  0  0  0
    1.8171   -0.1691   -1.1973 H   0  0  0  0  0  0  0  0  0  0  0  0
    2.9530   -1.7733   -2.2446 H   0  0  0  0  0  0  0  0  0  0  0  0
   -3.0321   -2.5888    0.3103 H   0  0  0  0  0  0  0  0  0  0  0  0
   -0.5464    3.2082   -1.1868 H   0  0  0  0  0  0  0  0  0  0  0  0
   -5.6596    1.2725   -0.8764 H   0  0  0  0  0  0  0  0  0  0  0  0
   -5.2469    2.9592   -1.3425 H   0  0  0  0  0  0  0  0  0  0  0  0
  1  2  1  0
  2  3  1  0
  3  4  1  0
  4  5  1  0
  5  6  1  0
  6  7  1  0
  7  8  1  0
  7  9  1  0
  9 10  1  0
  6 11  1  0
 11 12  1  0
 12 13  2  0
 13 14  1  0
 14 15  2  0
 15 16  1  0
 16 17  2  0
 17 18  1  0
 18 19  2  0
 19 20  1  0
  9  4  1  0
 15 11  1  0
 19 14  1  0
  1 21  1  0
  1 22  1  0
  1 23  1  0
  3 24  1  0
  3 25  1  0
  4 26  1  1
  6 27  1  1
  7 28  1  6
  8 29  1  0
  9 30  1  6
 10 31  1  0
 12 32  1  0
 17 33  1  0
 20 34  1  0
 20 35  1  0
M  END
$$$$
