
     RDKit          3D

 45 48  0  0  0  0  0  0  0  0999 V2000
   -1.0478    2.8469    2.2276 C   0  0  0  0  0  0  0  0  0  0  0  0
   -1.5731    1.8820    1.2453 N   0  0  0  0  0  0  0  0  0  0  0  0
   -2.9171    1.8599    0.9518 C   0  0  0  0  0  0  0  0  0  0  0  0
   -3.7045    2.6790    1.5038 O   0  0  0  0  0  0  0  0  0  0  0  0
   -3.4335    0.9276    0.0319 C   0  0  0  0  0  0  0  0  0  0  0  0
   -2.5711    0.0115   -0.5727 C   0  0  0  0  0  0  0  0  0  0  0  0
   -1.2164    0.0190   -0.2476 C   0  0  0  0  0  0  0  0  0  0  0  0
   -0.3220   -0.8934   -0.8146 C   0  0  0  0  0  0  0  0  0  0  0  0
    0.9879   -0.8633   -0.4615 N   0  0  0  0  0  0  0  0  0  0  0  0
    1.4530    0.0363    0.4471 C   0  0  0  0  0  0  0  0  0  0  0  0
    2.8447    0.0797    0.7929 N   0  0  0  0  0  0  0  0  0  0  0  0
    3.7928   -0.9486    0.4607 C   0  0  0  0  0  0  0  0  0  0  0  0
    5.1162   -0.5926    0.1584 C   0  0  0  0  0  0  0  0  0  0  0  0
    6.0716   -1.5774   -0.1401 C   0  0  0  0  0  0  0  0  0  0  0  0
    7.4742   -1.1828   -0.5124 C   0  0  0  0  0  0  0  0  0  0  0  0
    7.5405   -0.8733   -1.8773 O   0  0  0  0  0  0  0  0  0  0  0  0
    5.6916   -2.9278   -0.1452 C   0  0  0  0  0  0  0  0  0  0  0  0
    4.3824   -3.2904    0.1793 C   0  0  0  0  0  0  0  0  0  0  0  0
    3.4380   -2.3089    0.4905 C   0  0  0  0  0  0  0  0  0  0  0  0
    0.5991    0.9408    0.9959 N   0  0  0  0  0  0  0  0  0  0  0  0
   -0.7259    0.9607    0.6771 C   0  0  0  0  0  0  0  0  0  0  0  0
   -4.8751    0.8984   -0.3009 C   0  0  0  0  0  0  0  0  0  0  0  0
   -5.8066    0.3578    0.6111 C   0  0  0  0  0  0  0  0  0  0  0  0
   -5.2969   -0.3184    2.1553 Cl  0  0  0  0  0  0  0  0  0  0  0  0
   -7.1677    0.3330    0.2874 C   0  0  0  0  0  0  0  0  0  0  0  0
   -7.6102    0.8395   -0.9355 C   0  0  0  0  0  0  0  0  0  0  0  0
   -6.6953    1.3735   -1.8443 C   0  0  0  0  0  0  0  0  0  0  0  0
   -5.3308    1.4058   -1.5361 C   0  0  0  0  0  0  0  0  0  0  0  0
   -4.2200    2.1082   -2.7083 Cl  0  0  0  0  0  0  0  0  0  0  0  0
   -0.0376    3.2033    1.9330 H   0  0  0  0  0  0  0  0  0  0  0  0
   -1.6862    3.7530    2.2982 H   0  0  0  0  0  0  0  0  0  0  0  0
   -0.9896    2.3663    3.2268 H   0  0  0  0  0  0  0  0  0  0  0  0
   -2.9600   -0.7108   -1.2820 H   0  0  0  0  0  0  0  0  0  0  0  0
   -0.6606   -1.6280   -1.5346 H   0  0  0  0  0  0  0  0  0  0  0  0
    3.2023    0.9520    1.2446 H   0  0  0  0  0  0  0  0  0  0  0  0
    5.3985    0.4535    0.1455 H   0  0  0  0  0  0  0  0  0  0  0  0
    7.7808   -0.2891    0.0718 H   0  0  0  0  0  0  0  0  0  0  0  0
    8.1945   -1.9952   -0.2624 H   0  0  0  0  0  0  0  0  0  0  0  0
    7.5278   -1.7381   -2.3651 H   0  0  0  0  0  0  0  0  0  0  0  0
    6.4104   -3.6994   -0.3917 H   0  0  0  0  0  0  0  0  0  0  0  0
    4.1002   -4.3352    0.1953 H   0  0  0  0  0  0  0  0  0  0  0  0
    2.4397   -2.6151    0.7737 H   0  0  0  0  0  0  0  0  0  0  0  0
   -7.8849   -0.0831    0.9835 H   0  0  0  0  0  0  0  0  0  0  0  0
   -8.6643    0.8173   -1.1800 H   0  0  0  0  0  0  0  0  0  0  0  0
   -7.0490    1.7654   -2.7895 H   0  0  0  0  0  0  0  0  0  0  0  0
  1  2  1  0
  2  3  1  0
  3  4  2  0
  3  5  1  0
  5  6  2  0
  6  7  1  0
  7  8  2  0
  8  9  1  0
  9 10  2  0
 10 11  1  0
 11 12  1  0
 12 13  2  0
 13 14  1  0
 14 15  1  0
 15 16  1  0
 14 17  2  0
 17 18  1  0
 18 19  2  0
 10 20  1  0
 20 21  2  0
  5 22  1  0
 22 23  2  0
 23 24  1  0
 23 25  1  0
 25 26  2  0
 26 27  1  0
 27 28  2  0
 28 29  1  0
 21  2  1  0
 28 22  1  0
 21  7  1  0
 19 12  1  0
  1 30  1  0
  1 31  1  0
  1 32  1  0
  6 33  1  0
  8 34  1  0
 11 35  1  0
 13 36  1  0
 15 37  1  0
 15 38  1  0
 16 39  1  0
 17 40  1  0
 18 41  1  0
 19 42  1  0
 25 43  1  0
 26 44  1  0
 27 45  1  0
M  END
$$$$
