
     RDKit          3D

 33 33  0  0  0  0  0  0  0  0999 V2000
   -2.5351   -1.7110   -0.6975 C   0  0  1  0  0  0  0  0  0  0  0  0
   -1.3347   -2.5325   -0.8489 N   0  0  0  0  0  0  0  0  0  0  0  0
   -3.4815   -2.4064    0.0738 O   0  0  0  0  0  0  0  0  0  0  0  0
   -2.1867   -0.3758   -0.0173 C   0  0  0  0  0  0  0  0  0  0  0  0
   -1.2571    0.4846   -0.8944 C   0  0  0  0  0  0  0  0  0  0  0  0
   -0.8106    1.8133   -0.2394 C   0  0  1  0  0  0  0  0  0  0  0  0
   -1.9745    2.6548    0.0538 N   0  0  0  0  0  0  0  0  0  0  0  0
    0.0715    1.6305    1.0205 C   0  0  0  0  0  0  0  0  0  0  0  0
    1.3366    0.8635    0.7260 C   0  0  0  0  0  0  0  0  0  0  0  0
    2.3998    1.4876    0.0532 C   0  0  0  0  0  0  0  0  0  0  0  0
    3.5616    0.7707   -0.2488 C   0  0  0  0  0  0  0  0  0  0  0  0
    3.6720   -0.5756    0.1134 C   0  0  0  0  0  0  0  0  0  0  0  0
    4.8345   -1.2780   -0.1956 O   0  0  0  0  0  0  0  0  0  0  0  0
    2.6133   -1.2047    0.7821 C   0  0  0  0  0  0  0  0  0  0  0  0
    1.4513   -0.4897    1.0867 C   0  0  0  0  0  0  0  0  0  0  0  0
   -2.9550   -1.5068   -1.7109 H   0  0  0  0  0  0  0  0  0  0  0  0
   -1.0045   -2.8255    0.0999 H   0  0  0  0  0  0  0  0  0  0  0  0
   -1.6007   -3.4049   -1.3608 H   0  0  0  0  0  0  0  0  0  0  0  0
   -4.3587   -1.9690   -0.0852 H   0  0  0  0  0  0  0  0  0  0  0  0
   -3.1303    0.1808    0.1678 H   0  0  0  0  0  0  0  0  0  0  0  0
   -1.7158   -0.5880    0.9642 H   0  0  0  0  0  0  0  0  0  0  0  0
   -1.7887    0.7259   -1.8411 H   0  0  0  0  0  0  0  0  0  0  0  0
   -0.3563   -0.1008   -1.1768 H   0  0  0  0  0  0  0  0  0  0  0  0
   -0.1965    2.3462   -1.0006 H   0  0  0  0  0  0  0  0  0  0  0  0
   -2.4425    2.3170    0.9261 H   0  0  0  0  0  0  0  0  0  0  0  0
   -1.6403    3.6269    0.2482 H   0  0  0  0  0  0  0  0  0  0  0  0
    0.3528    2.6338    1.4090 H   0  0  0  0  0  0  0  0  0  0  0  0
   -0.5026    1.1386    1.8341 H   0  0  0  0  0  0  0  0  0  0  0  0
    2.3268    2.5278   -0.2394 H   0  0  0  0  0  0  0  0  0  0  0  0
    4.3756    1.2610   -0.7674 H   0  0  0  0  0  0  0  0  0  0  0  0
    4.9450   -2.2542    0.0528 H   0  0  0  0  0  0  0  0  0  0  0  0
    2.6891   -2.2470    1.0643 H   0  0  0  0  0  0  0  0  0  0  0  0
    0.6420   -0.9929    1.6001 H   0  0  0  0  0  0  0  0  0  0  0  0
  1  2  1  0
  1  3  1  0
  1  4  1  0
  4  5  1  0
  5  6  1  0
  6  7  1  0
  6  8  1  0
  8  9  1  0
  9 10  2  0
 10 11  1  0
 11 12  2  0
 12 13  1  0
 12 14  1  0
 14 15  2  0
 15  9  1  0
  1 16  1  6
  2 17  1  0
  2 18  1  0
  3 19  1  0
  4 20  1  0
  4 21  1  0
  5 22  1  0
  5 23  1  0
  6 24  1  6
  7 25  1  0
  7 26  1  0
  8 27  1  0
  8 28  1  0
 10 29  1  0
 11 30  1  0
 13 31  1  0
 14 32  1  0
 15 33  1  0
M  END
$$$$
