
     RDKit          3D

 40 40  0  0  0  0  0  0  0  0999 V2000
   -2.0772   -2.4890    2.1149 C   0  0  0  0  0  0  0  0  0  0  0  0
   -1.9817   -1.2939    1.1395 C   0  0  0  0  0  0  0  0  0  0  0  0
   -2.7494   -1.6642   -0.1446 C   0  0  0  0  0  0  0  0  0  0  0  0
   -2.6302   -0.0740    1.8238 C   0  0  0  0  0  0  0  0  0  0  0  0
   -0.5143   -1.0264    0.8150 C   0  0  0  0  0  0  0  0  0  0  0  0
    0.0647   -0.0160    0.0413 C   0  0  0  0  0  0  0  0  0  0  0  0
   -0.5500    1.1485   -0.6925 C   0  0  0  0  0  0  0  0  0  0  0  0
   -0.1641    2.5022   -0.0641 C   0  0  2  0  0  0  0  0  0  0  0  0
   -0.6936    2.6177    1.2962 N   0  0  0  0  0  0  0  0  0  0  0  0
   -0.7082    3.6160   -0.9137 C   0  0  0  0  0  0  0  0  0  0  0  0
   -2.0723    3.8938   -0.9083 O   0  0  0  0  0  0  0  0  0  0  0  0
    0.0649    4.2801   -1.6549 O   0  0  0  0  0  0  0  0  0  0  0  0
    1.4103   -0.3122    0.0758 C   0  0  0  0  0  0  0  0  0  0  0  0
    2.4130    0.4196   -0.5676 O   0  0  0  0  0  0  0  0  0  0  0  0
    3.7807    0.0235   -0.5804 C   0  0  0  0  0  0  0  0  0  0  0  0
    4.0533   -1.2591   -1.8407 P   0  0  0  0  0  5  0  0  0  0  0  0
    3.1885   -2.6567   -1.4367 O   0  0  0  0  0  0  0  0  0  0  0  0
    3.5299   -0.6808   -3.3426 O   0  0  0  0  0  0  0  0  0  0  0  0
    5.5286   -1.5826   -1.9102 O   0  0  0  0  0  0  0  0  0  0  0  0
    1.6259   -1.4100    0.8200 N   0  0  0  0  0  0  0  0  0  0  0  0
    0.4608   -1.8070    1.2402 O   0  0  0  0  0  0  0  0  0  0  0  0
   -1.5356   -2.2678    3.0605 H   0  0  0  0  0  0  0  0  0  0  0  0
   -3.1367   -2.7116    2.3683 H   0  0  0  0  0  0  0  0  0  0  0  0
   -1.6352   -3.4041    1.6636 H   0  0  0  0  0  0  0  0  0  0  0  0
   -3.8043   -1.9220    0.0928 H   0  0  0  0  0  0  0  0  0  0  0  0
   -2.2788   -2.5422   -0.6380 H   0  0  0  0  0  0  0  0  0  0  0  0
   -2.7660   -0.8316   -0.8731 H   0  0  0  0  0  0  0  0  0  0  0  0
   -3.6520   -0.3255    2.1820 H   0  0  0  0  0  0  0  0  0  0  0  0
   -2.7367    0.7838    1.1350 H   0  0  0  0  0  0  0  0  0  0  0  0
   -2.0258    0.2467    2.6996 H   0  0  0  0  0  0  0  0  0  0  0  0
   -0.1786    1.1185   -1.7404 H   0  0  0  0  0  0  0  0  0  0  0  0
   -1.6488    1.0629   -0.7503 H   0  0  0  0  0  0  0  0  0  0  0  0
    0.9460    2.5911   -0.0315 H   0  0  0  0  0  0  0  0  0  0  0  0
   -0.4416    3.5621    1.6700 H   0  0  0  0  0  0  0  0  0  0  0  0
   -0.1911    1.9334    1.9067 H   0  0  0  0  0  0  0  0  0  0  0  0
   -2.4540    4.6337   -1.4854 H   0  0  0  0  0  0  0  0  0  0  0  0
    4.0948   -0.3460    0.4192 H   0  0  0  0  0  0  0  0  0  0  0  0
    4.4027    0.9048   -0.8391 H   0  0  0  0  0  0  0  0  0  0  0  0
    3.3677   -3.2895   -2.1771 H   0  0  0  0  0  0  0  0  0  0  0  0
    3.6945   -1.4263   -3.9734 H   0  0  0  0  0  0  0  0  0  0  0  0
  1  2  1  0
  2  3  1  0
  2  4  1  0
  2  5  1  0
  5  6  2  0
  6  7  1  0
  7  8  1  0
  8  9  1  0
  8 10  1  0
 10 11  1  0
 10 12  2  0
  6 13  1  0
 13 14  1  0
 14 15  1  0
 15 16  1  0
 16 17  1  0
 16 18  1  0
 16 19  2  0
 13 20  2  0
 20 21  1  0
 21  5  1  0
  1 22  1  0
  1 23  1  0
  1 24  1  0
  3 25  1  0
  3 26  1  0
  3 27  1  0
  4 28  1  0
  4 29  1  0
  4 30  1  0
  7 31  1  0
  7 32  1  0
  8 33  1  1
  9 34  1  0
  9 35  1  0
 11 36  1  0
 15 37  1  0
 15 38  1  0
 17 39  1  0
 18 40  1  0
M  END
$$$$
