
     RDKit          3D

 36 37  0  0  0  0  0  0  0  0999 V2000
    6.1912    2.4688    0.3574 N   0  0  0  0  0  0  0  0  0  0  0  0
    5.5752    1.2750    0.8475 C   0  0  0  0  0  0  0  0  0  0  0  0
    6.0274    0.7403    1.9394 N   0  0  0  0  0  0  0  0  0  0  0  0
    4.4454    0.6593    0.1067 C   0  0  0  0  0  0  0  0  0  0  0  0
    3.3792    0.0505    0.7925 C   0  0  0  0  0  0  0  0  0  0  0  0
    2.3165   -0.5221    0.0874 C   0  0  0  0  0  0  0  0  0  0  0  0
    2.2922   -0.4828   -1.3163 C   0  0  0  0  0  0  0  0  0  0  0  0
    1.2223   -1.0871   -2.0632 N   0  0  0  0  0  0  0  0  0  0  0  0
   -0.1231   -1.0626   -1.6544 N   0  0  0  0  0  0  0  0  0  0  0  0
   -0.5256   -0.3042   -0.7150 N   0  0  0  0  0  0  0  0  0  0  0  0
   -1.8927   -0.2745   -0.2890 C   0  0  0  0  0  0  0  0  0  0  0  0
   -2.8724   -1.0815   -0.8924 C   0  0  0  0  0  0  0  0  0  0  0  0
   -4.1983   -1.0283   -0.4520 C   0  0  0  0  0  0  0  0  0  0  0  0
   -4.5674   -0.1718    0.5996 C   0  0  0  0  0  0  0  0  0  0  0  0
   -3.5825    0.6346    1.1981 C   0  0  0  0  0  0  0  0  0  0  0  0
   -2.2575    0.5811    0.7556 C   0  0  0  0  0  0  0  0  0  0  0  0
   -5.9780   -0.1179    1.0599 C   0  0  0  0  0  0  0  0  0  0  0  0
   -7.0474   -0.2438    0.1190 N   0  0  0  0  0  0  0  0  0  0  0  0
   -6.2642    0.0342    2.3159 N   0  0  0  0  0  0  0  0  0  0  0  0
    3.3653    0.1023   -2.0015 C   0  0  0  0  0  0  0  0  0  0  0  0
    4.4276    0.6773   -1.2982 C   0  0  0  0  0  0  0  0  0  0  0  0
    7.0125    2.8804    0.8543 H   0  0  0  0  0  0  0  0  0  0  0  0
    5.8038    2.9783   -0.4673 H   0  0  0  0  0  0  0  0  0  0  0  0
    5.6401   -0.1416    2.3426 H   0  0  0  0  0  0  0  0  0  0  0  0
    3.3585    0.0266    1.8746 H   0  0  0  0  0  0  0  0  0  0  0  0
    1.5274   -1.0134    0.6409 H   0  0  0  0  0  0  0  0  0  0  0  0
    1.4386   -1.5035   -2.9963 H   0  0  0  0  0  0  0  0  0  0  0  0
   -2.6144   -1.7542   -1.7003 H   0  0  0  0  0  0  0  0  0  0  0  0
   -4.9304   -1.6726   -0.9222 H   0  0  0  0  0  0  0  0  0  0  0  0
   -3.8383    1.3222    1.9941 H   0  0  0  0  0  0  0  0  0  0  0  0
   -1.5123    1.2112    1.2251 H   0  0  0  0  0  0  0  0  0  0  0  0
   -8.0393   -0.2482    0.4460 H   0  0  0  0  0  0  0  0  0  0  0  0
   -6.8636   -0.2785   -0.9080 H   0  0  0  0  0  0  0  0  0  0  0  0
   -5.5346    0.1114    3.0589 H   0  0  0  0  0  0  0  0  0  0  0  0
    3.3738    0.1196   -3.0842 H   0  0  0  0  0  0  0  0  0  0  0  0
    5.2451    1.1171   -1.8553 H   0  0  0  0  0  0  0  0  0  0  0  0
  1  2  1  0
  2  3  2  3
  2  4  1  0
  4  5  2  0
  5  6  1  0
  6  7  2  0
  7  8  1  0
  8  9  1  0
  9 10  2  0
 10 11  1  0
 11 12  2  0
 12 13  1  0
 13 14  2  0
 14 15  1  0
 15 16  2  0
 14 17  1  0
 17 18  1  0
 17 19  2  3
  7 20  1  0
 20 21  2  0
 21  4  1  0
 16 11  1  0
  1 22  1  0
  1 23  1  0
  3 24  1  0
  5 25  1  0
  6 26  1  0
  8 27  1  0
 12 28  1  0
 13 29  1  0
 15 30  1  0
 16 31  1  0
 18 32  1  0
 18 33  1  0
 19 34  1  0
 20 35  1  0
 21 36  1  0
M  END
$$$$
