
     RDKit          3D

 48 50  0  0  0  0  0  0  0  0999 V2000
   -4.3290   -1.2935    2.1039 C   0  0  0  0  0  0  0  0  0  0  0  0
   -3.5028   -0.7399    1.0389 N   0  0  0  0  0  0  0  0  0  0  0  0
   -2.0860   -1.0544    0.8020 C   0  0  0  0  0  0  0  0  0  0  0  0
   -1.7049   -0.2522   -0.3715 N   0  0  0  0  0  0  0  0  0  0  0  0
   -0.3890   -0.2043   -1.0103 C   0  0  2  0  0  0  0  0  0  0  0  0
    0.4359   -1.2327   -0.5013 O   0  0  0  0  0  0  0  0  0  0  0  0
    1.6856   -0.6746   -0.1525 C   0  0  2  0  0  0  0  0  0  0  0  0
    1.8712   -0.7803    1.3713 C   0  0  0  0  0  0  0  0  0  0  0  0
    3.1512   -0.3183    1.7494 O   0  0  0  0  0  0  0  0  0  0  0  0
    4.2209   -1.6385    1.9406 P   0  0  0  0  0  5  0  0  0  0  0  0
    3.9086   -2.8590    0.8068 O   0  0  0  0  0  0  0  0  0  0  0  0
    4.0351   -2.2101    3.3278 O   0  0  0  0  0  0  0  0  0  0  0  0
    5.8330   -1.1169    1.7870 O   0  0  0  0  0  0  0  0  0  0  0  0
    5.9570   -0.2595    0.3213 P   0  0  0  0  0  5  0  0  0  0  0  0
    5.3588   -1.1730   -0.9732 O   0  0  0  0  0  0  0  0  0  0  0  0
    5.1037    1.1989    0.4207 O   0  0  0  0  0  0  0  0  0  0  0  0
    7.4144    0.0500    0.0651 O   0  0  0  0  0  0  0  0  0  0  0  0
    1.7387    0.7774   -0.6426 C   0  0  1  0  0  0  0  0  0  0  0  0
    2.4139    0.8743   -1.8766 O   0  0  0  0  0  0  0  0  0  0  0  0
    0.2786    1.1429   -0.7632 C   0  0  1  0  0  0  0  0  0  0  0  0
    0.0363    2.0314   -1.8233 O   0  0  0  0  0  0  0  0  0  0  0  0
   -2.8606    0.4668   -0.7731 C   0  0  0  0  0  0  0  0  0  0  0  0
   -3.9045    0.1903    0.0403 C   0  0  0  0  0  0  0  0  0  0  0  0
   -5.1371    0.7959   -0.1867 C   0  0  0  0  0  0  0  0  0  0  0  0
   -6.1291    0.5592    0.5526 O   0  0  0  0  0  0  0  0  0  0  0  0
   -5.2456    1.6606   -1.2402 N   0  0  0  0  0  0  0  0  0  0  0  0
   -4.1702    1.9241   -2.0539 C   0  0  0  0  0  0  0  0  0  0  0  0
   -4.3031    2.8295   -3.1494 N   0  0  0  0  0  0  0  0  0  0  0  0
   -2.9662    1.3210   -1.8194 N   0  0  0  0  0  0  0  0  0  0  0  0
   -5.1866   -1.8438    1.6639 H   0  0  0  0  0  0  0  0  0  0  0  0
   -3.7332   -1.9950    2.7252 H   0  0  0  0  0  0  0  0  0  0  0  0
   -4.7051   -0.4731    2.7499 H   0  0  0  0  0  0  0  0  0  0  0  0
   -1.4757   -0.7594    1.6821 H   0  0  0  0  0  0  0  0  0  0  0  0
   -1.9662   -2.1369    0.5832 H   0  0  0  0  0  0  0  0  0  0  0  0
   -0.5131   -0.3771   -2.1026 H   0  0  0  0  0  0  0  0  0  0  0  0
    2.4839   -1.2676   -0.6471 H   0  0  0  0  0  0  0  0  0  0  0  0
    1.6441   -1.8154    1.7194 H   0  0  0  0  0  0  0  0  0  0  0  0
    1.1160   -0.1335    1.8669 H   0  0  0  0  0  0  0  0  0  0  0  0
    4.6229   -3.5291    0.9536 H   0  0  0  0  0  0  0  0  0  0  0  0
    5.9386   -1.9754   -1.0064 H   0  0  0  0  0  0  0  0  0  0  0  0
    5.4268    1.6246    1.2545 H   0  0  0  0  0  0  0  0  0  0  0  0
    2.2429    1.4530    0.0825 H   0  0  0  0  0  0  0  0  0  0  0  0
    1.9755    0.2581   -2.5209 H   0  0  0  0  0  0  0  0  0  0  0  0
   -0.0796    1.5766    0.2013 H   0  0  0  0  0  0  0  0  0  0  0  0
    0.3569    2.9211   -1.5215 H   0  0  0  0  0  0  0  0  0  0  0  0
   -6.1621    2.1267   -1.4282 H   0  0  0  0  0  0  0  0  0  0  0  0
   -5.2143    3.3000   -3.3452 H   0  0  0  0  0  0  0  0  0  0  0  0
   -3.4864    3.0313   -3.7678 H   0  0  0  0  0  0  0  0  0  0  0  0
  1  2  1  0
  2  3  1  0
  3  4  1  0
  4  5  1  0
  5  6  1  0
  6  7  1  0
  7  8  1  0
  8  9  1  0
  9 10  1  0
 10 11  1  0
 10 12  2  0
 10 13  1  0
 13 14  1  0
 14 15  1  0
 14 16  1  0
 14 17  2  0
  7 18  1  0
 18 19  1  0
 18 20  1  0
 20 21  1  0
  4 22  1  0
 22 23  2  0
 23 24  1  0
 24 25  2  0
 24 26  1  0
 26 27  1  0
 27 28  1  0
 27 29  2  0
 23  2  1  0
 20  5  1  0
 29 22  1  0
  1 30  1  0
  1 31  1  0
  1 32  1  0
  3 33  1  0
  3 34  1  0
  5 35  1  6
  7 36  1  6
  8 37  1  0
  8 38  1  0
 11 39  1  0
 15 40  1  0
 16 41  1  0
 18 42  1  1
 19 43  1  0
 20 44  1  1
 21 45  1  0
 26 46  1  0
 28 47  1  0
 28 48  1  0
M  END
$$$$
