
     RDKit          3D

 46 49  0  0  0  0  0  0  0  0999 V2000
   -1.6354    0.8475   -0.5930 C   0  0  2  0  0  0  0  0  0  0  0  0
   -2.4097    2.1630   -0.4812 C   0  0  0  0  0  0  0  0  0  0  0  0
   -3.8237    1.7821   -0.9535 C   0  0  0  0  0  0  0  0  0  0  0  0
   -3.8738    0.2958   -0.7705 C   0  0  0  0  0  0  0  0  0  0  0  0
   -4.8519   -0.3853   -1.0378 O   0  0  0  0  0  0  0  0  0  0  0  0
   -2.6236   -0.2397   -0.1555 C   0  0  2  0  0  0  0  0  0  0  0  0
   -2.8724   -0.3274    1.3762 C   0  0  0  0  0  0  0  0  0  0  0  0
   -2.1113   -1.5793   -0.7122 C   0  0  0  0  0  0  0  0  0  0  0  0
   -0.6880   -1.8856   -0.1793 C   0  0  0  0  0  0  0  0  0  0  0  0
    0.3346   -0.7044   -0.3463 C   0  0  1  0  0  0  0  0  0  0  0  0
   -0.2640    0.6857    0.0867 C   0  0  1  0  0  0  0  0  0  0  0  0
    0.6776    1.8384   -0.3104 C   0  0  0  0  0  0  0  0  0  0  0  0
    2.0737    1.5948    0.1931 C   0  0  0  0  0  0  0  0  0  0  0  0
    2.7810    2.5900    0.7427 C   0  0  0  0  0  0  0  0  0  0  0  0
    2.6466    0.2391    0.0076 C   0  0  0  0  0  0  0  0  0  0  0  0
    3.9122    0.0962   -0.4251 C   0  0  0  0  0  0  0  0  0  0  0  0
    4.4583   -1.2268   -0.7246 C   0  0  0  0  0  0  0  0  0  0  0  0
    5.6590   -1.3517   -1.0822 O   0  0  0  0  0  0  0  0  0  0  0  0
    3.5904   -2.3982   -0.6407 C   0  0  0  0  0  0  0  0  0  0  0  0
    2.3316   -2.2790   -0.2169 C   0  0  0  0  0  0  0  0  0  0  0  0
    1.7440   -0.9683    0.3112 C   0  0  2  0  0  0  0  0  0  0  0  0
    1.6653   -1.1087    1.8494 C   0  0  0  0  0  0  0  0  0  0  0  0
   -1.4471    0.7328   -1.6909 H   0  0  0  0  0  0  0  0  0  0  0  0
   -1.9715    2.9518   -1.1305 H   0  0  0  0  0  0  0  0  0  0  0  0
   -2.4279    2.5191    0.5716 H   0  0  0  0  0  0  0  0  0  0  0  0
   -3.9579    2.0313   -2.0281 H   0  0  0  0  0  0  0  0  0  0  0  0
   -4.6005    2.2844   -0.3385 H   0  0  0  0  0  0  0  0  0  0  0  0
   -1.9763   -0.6427    1.9438 H   0  0  0  0  0  0  0  0  0  0  0  0
   -3.6715   -1.0711    1.5846 H   0  0  0  0  0  0  0  0  0  0  0  0
   -3.2040    0.6479    1.7912 H   0  0  0  0  0  0  0  0  0  0  0  0
   -2.8003   -2.4023   -0.4217 H   0  0  0  0  0  0  0  0  0  0  0  0
   -2.0856   -1.5479   -1.8244 H   0  0  0  0  0  0  0  0  0  0  0  0
   -0.3285   -2.7702   -0.7439 H   0  0  0  0  0  0  0  0  0  0  0  0
   -0.7625   -2.1956    0.8801 H   0  0  0  0  0  0  0  0  0  0  0  0
    0.5187   -0.6382   -1.4445 H   0  0  0  0  0  0  0  0  0  0  0  0
   -0.3976    0.7344    1.1849 H   0  0  0  0  0  0  0  0  0  0  0  0
    0.7198    1.9334   -1.4174 H   0  0  0  0  0  0  0  0  0  0  0  0
    0.2745    2.7914    0.0983 H   0  0  0  0  0  0  0  0  0  0  0  0
    2.3601    3.5821    0.8474 H   0  0  0  0  0  0  0  0  0  0  0  0
    3.7834    2.4259    1.1171 H   0  0  0  0  0  0  0  0  0  0  0  0
    4.5313    0.9628   -0.6245 H   0  0  0  0  0  0  0  0  0  0  0  0
    3.9728   -3.3708   -0.9253 H   0  0  0  0  0  0  0  0  0  0  0  0
    1.7592   -3.1915   -0.1202 H   0  0  0  0  0  0  0  0  0  0  0  0
    1.0476   -1.9777    2.1537 H   0  0  0  0  0  0  0  0  0  0  0  0
    1.2598   -0.1973    2.3326 H   0  0  0  0  0  0  0  0  0  0  0  0
    2.6835   -1.2702    2.2667 H   0  0  0  0  0  0  0  0  0  0  0  0
  1  2  1  0
  2  3  1  0
  3  4  1  0
  4  5  2  0
  4  6  1  0
  6  7  1  1
  6  8  1  0
  8  9  1  0
  9 10  1  0
 10 11  1  0
 11 12  1  0
 12 13  1  0
 13 14  2  3
 13 15  1  0
 15 16  2  0
 16 17  1  0
 17 18  2  0
 17 19  1  0
 19 20  2  0
 20 21  1  0
 21 22  1  1
  6  1  1  0
 21 10  1  0
 11  1  1  0
 21 15  1  0
  1 23  1  6
  2 24  1  0
  2 25  1  0
  3 26  1  0
  3 27  1  0
  7 28  1  0
  7 29  1  0
  7 30  1  0
  8 31  1  0
  8 32  1  0
  9 33  1  0
  9 34  1  0
 10 35  1  6
 11 36  1  1
 12 37  1  0
 12 38  1  0
 14 39  1  0
 14 40  1  0
 16 41  1  0
 19 42  1  0
 20 43  1  0
 22 44  1  0
 22 45  1  0
 22 46  1  0
M  END
$$$$
