
     RDKit          3D

 39 40  0  0  0  0  0  0  0  0999 V2000
   -5.3759   -0.1157   -1.1640 C   0  0  2  0  0  0  0  0  0  0  0  0
   -5.9593   -1.4522   -0.6875 C   0  0  0  0  0  0  0  0  0  0  0  0
   -3.9158   -0.1066   -1.0475 N   0  0  0  0  0  0  0  0  0  0  0  0
   -3.2671   -0.1828    0.0764 C   0  0  0  0  0  0  0  0  0  0  0  0
   -1.7911   -0.1671    0.1056 C   0  0  0  0  0  0  0  0  0  0  0  0
   -1.0344   -0.0710   -1.0758 C   0  0  0  0  0  0  0  0  0  0  0  0
    0.3628   -0.0579   -1.0222 C   0  0  0  0  0  0  0  0  0  0  0  0
    1.0268   -0.1408    0.2162 C   0  0  0  0  0  0  0  0  0  0  0  0
    2.4252   -0.1316    0.3231 O   0  0  0  0  0  0  0  0  0  0  0  0
    3.3179   -0.0392   -0.7834 C   0  0  0  0  0  0  0  0  0  0  0  0
    4.7309   -0.0588   -0.2791 C   0  0  0  0  0  0  0  0  0  0  0  0
    5.3705    1.1386    0.0821 C   0  0  0  0  0  0  0  0  0  0  0  0
    6.6746    1.1157    0.5878 C   0  0  0  0  0  0  0  0  0  0  0  0
    7.2898    2.2750    0.9282 F   0  0  0  0  0  0  0  0  0  0  0  0
    7.3423   -0.1022    0.7474 C   0  0  0  0  0  0  0  0  0  0  0  0
    6.7054   -1.2987    0.4064 C   0  0  0  0  0  0  0  0  0  0  0  0
    5.4018   -1.2797   -0.0995 C   0  0  0  0  0  0  0  0  0  0  0  0
    0.2714   -0.2364    1.3898 C   0  0  0  0  0  0  0  0  0  0  0  0
   -1.1253   -0.2496    1.3377 C   0  0  0  0  0  0  0  0  0  0  0  0
   -5.9765    1.0641   -0.4400 C   0  0  0  0  0  0  0  0  0  0  0  0
   -6.1384    2.3113   -1.1156 N   0  0  0  0  0  0  0  0  0  0  0  0
   -6.2898    0.9747    0.7781 O   0  0  0  0  0  0  0  0  0  0  0  0
   -5.6270   -0.0206   -2.2424 H   0  0  0  0  0  0  0  0  0  0  0  0
   -5.5119   -2.2861   -1.2691 H   0  0  0  0  0  0  0  0  0  0  0  0
   -7.0589   -1.4644   -0.8460 H   0  0  0  0  0  0  0  0  0  0  0  0
   -5.7517   -1.6205    0.3904 H   0  0  0  0  0  0  0  0  0  0  0  0
   -3.8098   -0.2567    1.0118 H   0  0  0  0  0  0  0  0  0  0  0  0
   -1.5202   -0.0059   -2.0414 H   0  0  0  0  0  0  0  0  0  0  0  0
    0.9158    0.0170   -1.9484 H   0  0  0  0  0  0  0  0  0  0  0  0
    3.1282    0.9034   -1.3422 H   0  0  0  0  0  0  0  0  0  0  0  0
    3.1503   -0.8943   -1.4744 H   0  0  0  0  0  0  0  0  0  0  0  0
    4.8592    2.0872   -0.0278 H   0  0  0  0  0  0  0  0  0  0  0  0
    8.3508   -0.1203    1.1401 H   0  0  0  0  0  0  0  0  0  0  0  0
    7.2205   -2.2415    0.5377 H   0  0  0  0  0  0  0  0  0  0  0  0
    4.9162   -2.2147   -0.3503 H   0  0  0  0  0  0  0  0  0  0  0  0
    0.7704   -0.3007    2.3486 H   0  0  0  0  0  0  0  0  0  0  0  0
   -1.6865   -0.3243    2.2613 H   0  0  0  0  0  0  0  0  0  0  0  0
   -6.5382    3.1345   -0.6129 H   0  0  0  0  0  0  0  0  0  0  0  0
   -5.8531    2.4187   -2.1142 H   0  0  0  0  0  0  0  0  0  0  0  0
  1  2  1  0
  1  3  1  0
  3  4  2  0
  4  5  1  0
  5  6  2  0
  6  7  1  0
  7  8  2  0
  8  9  1  0
  9 10  1  0
 10 11  1  0
 11 12  2  0
 12 13  1  0
 13 14  1  0
 13 15  2  0
 15 16  1  0
 16 17  2  0
  8 18  1  0
 18 19  2  0
  1 20  1  0
 20 21  1  0
 20 22  2  0
 19  5  1  0
 17 11  1  0
  1 23  1  6
  2 24  1  0
  2 25  1  0
  2 26  1  0
  4 27  1  0
  6 28  1  0
  7 29  1  0
 10 30  1  0
 10 31  1  0
 12 32  1  0
 15 33  1  0
 16 34  1  0
 17 35  1  0
 18 36  1  0
 19 37  1  0
 21 38  1  0
 21 39  1  0
M  END
$$$$
