
     RDKit          3D

 23 23  0  0  0  0  0  0  0  0999 V2000
   -2.2845   -0.7948    0.8881 C   0  0  0  0  0  0  0  0  0  0  0  0
   -1.1991   -0.8507   -0.1963 C   0  0  2  0  0  0  0  0  0  0  0  0
   -0.0263   -1.5001    0.2862 O   0  0  0  0  0  0  0  0  0  0  0  0
    0.8706   -0.5980    0.9149 C   0  0  1  0  0  0  0  0  0  0  0  0
    1.8645   -1.3179    1.5986 O   0  0  0  0  0  0  0  0  0  0  0  0
    1.5023    0.3859   -0.1103 C   0  0  1  0  0  0  0  0  0  0  0  0
    2.7262   -0.1064   -0.5977 O   0  0  0  0  0  0  0  0  0  0  0  0
    0.5549    0.6220   -1.3096 C   0  0  2  0  0  0  0  0  0  0  0  0
    0.8306    1.8414   -1.9541 O   0  0  0  0  0  0  0  0  0  0  0  0
   -0.9312    0.5168   -0.9053 C   0  0  2  0  0  0  0  0  0  0  0  0
   -1.3520    1.6221   -0.1382 O   0  0  0  0  0  0  0  0  0  0  0  0
   -2.4850   -1.8185    1.2694 H   0  0  0  0  0  0  0  0  0  0  0  0
   -1.9750   -0.1586    1.7423 H   0  0  0  0  0  0  0  0  0  0  0  0
   -3.2266   -0.3890    0.4618 H   0  0  0  0  0  0  0  0  0  0  0  0
   -1.6057   -1.5248   -0.9826 H   0  0  0  0  0  0  0  0  0  0  0  0
    0.3331   -0.0119    1.6911 H   0  0  0  0  0  0  0  0  0  0  0  0
    2.1735   -2.0437    0.9954 H   0  0  0  0  0  0  0  0  0  0  0  0
    1.6740    1.3572    0.4127 H   0  0  0  0  0  0  0  0  0  0  0  0
    3.4265    0.1520    0.0573 H   0  0  0  0  0  0  0  0  0  0  0  0
    0.7378   -0.1880   -2.0517 H   0  0  0  0  0  0  0  0  0  0  0  0
    0.6901    2.5728   -1.2984 H   0  0  0  0  0  0  0  0  0  0  0  0
   -1.5306    0.5378   -1.8426 H   0  0  0  0  0  0  0  0  0  0  0  0
   -0.7679    1.6943    0.6580 H   0  0  0  0  0  0  0  0  0  0  0  0
  1  2  1  0
  2  3  1  0
  3  4  1  0
  4  5  1  0
  4  6  1  0
  6  7  1  0
  6  8  1  0
  8  9  1  0
  8 10  1  0
 10 11  1  0
 10  2  1  0
  1 12  1  0
  1 13  1  0
  1 14  1  0
  2 15  1  6
  4 16  1  1
  5 17  1  0
  6 18  1  1
  7 19  1  0
  8 20  1  6
  9 21  1  0
 10 22  1  6
 11 23  1  0
M  END
$$$$
