
     RDKit          3D

 45 46  0  0  0  0  0  0  0  0999 V2000
    2.5692    2.1643   -0.8001 O   0  0  0  0  0  0  0  0  0  0  0  0
    2.8581    1.8002    0.5237 C   0  0  0  0  0  0  0  0  0  0  0  0
    2.6568    0.2939    0.7482 C   0  0  1  0  0  0  0  0  0  0  0  0
    1.2971   -0.0388    0.5663 O   0  0  0  0  0  0  0  0  0  0  0  0
    1.2407   -1.3167   -0.0439 C   0  0  1  0  0  0  0  0  0  0  0  0
    1.2046   -2.4247    1.0419 C   0  0  0  0  0  0  0  0  0  0  0  0
    0.1345   -2.2446    1.9290 O   0  0  0  0  0  0  0  0  0  0  0  0
    0.1108   -1.4671   -0.9041 O   0  0  0  0  0  0  0  0  0  0  0  0
   -1.0063   -0.6701   -0.5437 C   0  0  1  0  0  0  0  0  0  0  0  0
   -0.8130    0.6551   -1.0104 O   0  0  0  0  0  0  0  0  0  0  0  0
   -1.8178    1.5565   -0.5449 C   0  0  2  0  0  0  0  0  0  0  0  0
   -1.3072    2.3657    0.6613 C   0  0  0  0  0  0  0  0  0  0  0  0
   -1.0087    1.5348    1.7513 O   0  0  0  0  0  0  0  0  0  0  0  0
   -3.2128    0.9068   -0.2921 C   0  0  1  0  0  0  0  0  0  0  0  0
   -4.2306    1.8620   -0.4535 O   0  0  0  0  0  0  0  0  0  0  0  0
   -3.4245   -0.2328   -1.2946 C   0  0  2  0  0  0  0  0  0  0  0  0
   -4.6655   -0.8443   -1.0539 O   0  0  0  0  0  0  0  0  0  0  0  0
   -2.2820   -1.2759   -1.1819 C   0  0  1  0  0  0  0  0  0  0  0  0
   -2.0103   -1.8348   -2.4444 O   0  0  0  0  0  0  0  0  0  0  0  0
    2.5189   -1.4560   -0.8901 C   0  0  1  0  0  0  0  0  0  0  0  0
    2.3163   -1.0328   -2.2197 O   0  0  0  0  0  0  0  0  0  0  0  0
    3.5243   -0.5612   -0.1900 C   0  0  2  0  0  0  0  0  0  0  0  0
    4.4286   -1.3421    0.5486 O   0  0  0  0  0  0  0  0  0  0  0  0
    1.5812    2.1779   -0.8850 H   0  0  0  0  0  0  0  0  0  0  0  0
    3.9150    2.0634    0.7419 H   0  0  0  0  0  0  0  0  0  0  0  0
    2.2180    2.3757    1.2307 H   0  0  0  0  0  0  0  0  0  0  0  0
    2.9201    0.0786    1.8085 H   0  0  0  0  0  0  0  0  0  0  0  0
    2.1621   -2.4552    1.6106 H   0  0  0  0  0  0  0  0  0  0  0  0
    1.0859   -3.4140    0.5501 H   0  0  0  0  0  0  0  0  0  0  0  0
    0.4069   -1.5317    2.5639 H   0  0  0  0  0  0  0  0  0  0  0  0
   -1.1504   -0.6788    0.5597 H   0  0  0  0  0  0  0  0  0  0  0  0
   -1.9612    2.2933   -1.3661 H   0  0  0  0  0  0  0  0  0  0  0  0
   -0.3799    2.8998    0.3675 H   0  0  0  0  0  0  0  0  0  0  0  0
   -2.0488    3.1476    0.9452 H   0  0  0  0  0  0  0  0  0  0  0  0
   -1.8189    1.5028    2.3232 H   0  0  0  0  0  0  0  0  0  0  0  0
   -3.2644    0.4716    0.7339 H   0  0  0  0  0  0  0  0  0  0  0  0
   -4.2898    2.3671    0.3987 H   0  0  0  0  0  0  0  0  0  0  0  0
   -3.4284    0.2179   -2.3160 H   0  0  0  0  0  0  0  0  0  0  0  0
   -4.8679   -1.3997   -1.8517 H   0  0  0  0  0  0  0  0  0  0  0  0
   -2.6149   -2.1037   -0.5170 H   0  0  0  0  0  0  0  0  0  0  0  0
   -1.6211   -1.1180   -3.0113 H   0  0  0  0  0  0  0  0  0  0  0  0
    2.8739   -2.5107   -0.9251 H   0  0  0  0  0  0  0  0  0  0  0  0
    1.9678   -0.1029   -2.1992 H   0  0  0  0  0  0  0  0  0  0  0  0
    4.0868    0.0495   -0.9358 H   0  0  0  0  0  0  0  0  0  0  0  0
    5.1468   -0.7280    0.8535 H   0  0  0  0  0  0  0  0  0  0  0  0
  1  2  1  0
  2  3  1  0
  3  4  1  0
  4  5  1  0
  5  6  1  0
  6  7  1  0
  5  8  1  6
  8  9  1  0
  9 10  1  0
 10 11  1  0
 11 12  1  0
 12 13  1  0
 11 14  1  0
 14 15  1  0
 14 16  1  0
 16 17  1  0
 16 18  1  0
 18 19  1  0
  5 20  1  0
 20 21  1  0
 20 22  1  0
 22 23  1  0
 22  3  1  0
 18  9  1  0
  1 24  1  0
  2 25  1  0
  2 26  1  0
  3 27  1  1
  6 28  1  0
  6 29  1  0
  7 30  1  0
  9 31  1  1
 11 32  1  6
 12 33  1  0
 12 34  1  0
 13 35  1  0
 14 36  1  1
 15 37  1  0
 16 38  1  6
 17 39  1  0
 18 40  1  1
 19 41  1  0
 20 42  1  6
 21 43  1  0
 22 44  1  6
 23 45  1  0
M  END
$$$$
