
     RDKit          3D

 33 35  0  0  0  0  0  0  0  0999 V2000
    1.5866    2.5499   -1.7956 N   0  0  0  0  0  0  0  0  0  0  0  0
    0.2760    2.1550   -1.3780 C   0  0  0  0  0  0  0  0  0  0  0  0
   -0.7218    2.7272   -1.8947 O   0  0  0  0  0  0  0  0  0  0  0  0
    0.0833    1.0969   -0.4124 N   0  0  0  0  0  0  0  0  0  0  0  0
    1.2037    0.4223    0.1678 C   0  0  0  0  0  0  0  0  0  0  0  0
    1.4550   -0.9046   -0.1884 C   0  0  0  0  0  0  0  0  0  0  0  0
    0.5478   -1.5610   -1.1868 C   0  0  0  0  0  0  0  0  0  0  0  0
   -0.8246   -1.8790   -0.5699 C   0  0  2  0  0  0  0  0  0  0  0  0
   -1.5821   -2.5797   -1.5251 O   0  0  0  0  0  0  0  0  0  0  0  0
   -1.6570   -0.6941   -0.0670 C   0  0  0  0  0  0  0  0  0  0  0  0
   -1.2391    0.6746   -0.0260 C   0  0  0  0  0  0  0  0  0  0  0  0
   -2.1215    1.6484    0.4779 C   0  0  0  0  0  0  0  0  0  0  0  0
   -3.3928    1.3021    0.9289 C   0  0  0  0  0  0  0  0  0  0  0  0
   -3.8018   -0.0262    0.9016 C   0  0  0  0  0  0  0  0  0  0  0  0
   -2.9431   -1.0123    0.4181 C   0  0  0  0  0  0  0  0  0  0  0  0
    2.5217   -1.5969    0.4066 C   0  0  0  0  0  0  0  0  0  0  0  0
    3.3389   -0.9523    1.3410 C   0  0  0  0  0  0  0  0  0  0  0  0
    3.0899    0.3788    1.6898 C   0  0  0  0  0  0  0  0  0  0  0  0
    2.0206    1.0661    1.1078 C   0  0  0  0  0  0  0  0  0  0  0  0
    2.4452    2.0618   -1.4605 H   0  0  0  0  0  0  0  0  0  0  0  0
    1.7006    3.3264   -2.4843 H   0  0  0  0  0  0  0  0  0  0  0  0
    0.4209   -0.9076   -2.0779 H   0  0  0  0  0  0  0  0  0  0  0  0
    1.0111   -2.5045   -1.5507 H   0  0  0  0  0  0  0  0  0  0  0  0
   -0.6485   -2.5397    0.3129 H   0  0  0  0  0  0  0  0  0  0  0  0
   -1.2566   -3.5181   -1.5264 H   0  0  0  0  0  0  0  0  0  0  0  0
   -1.8099    2.6834    0.5434 H   0  0  0  0  0  0  0  0  0  0  0  0
   -4.0569    2.0648    1.3146 H   0  0  0  0  0  0  0  0  0  0  0  0
   -4.7860   -0.2957    1.2628 H   0  0  0  0  0  0  0  0  0  0  0  0
   -3.2875   -2.0397    0.4207 H   0  0  0  0  0  0  0  0  0  0  0  0
    2.7203   -2.6295    0.1483 H   0  0  0  0  0  0  0  0  0  0  0  0
    4.1634   -1.4851    1.7967 H   0  0  0  0  0  0  0  0  0  0  0  0
    3.7213    0.8752    2.4153 H   0  0  0  0  0  0  0  0  0  0  0  0
    1.8229    2.0927    1.3891 H   0  0  0  0  0  0  0  0  0  0  0  0
  1  2  1  0
  2  3  2  0
  2  4  1  0
  4  5  1  0
  5  6  2  0
  6  7  1  0
  7  8  1  0
  8  9  1  0
  8 10  1  0
 10 11  2  0
 11 12  1  0
 12 13  2  0
 13 14  1  0
 14 15  2  0
  6 16  1  0
 16 17  2  0
 17 18  1  0
 18 19  2  0
 11  4  1  0
 19  5  1  0
 15 10  1  0
  1 20  1  0
  1 21  1  0
  7 22  1  0
  7 23  1  0
  8 24  1  1
  9 25  1  0
 12 26  1  0
 13 27  1  0
 14 28  1  0
 15 29  1  0
 16 30  1  0
 17 31  1  0
 18 32  1  0
 19 33  1  0
M  END
$$$$
