
     RDKit          3D

 37 38  0  0  0  0  0  0  0  0999 V2000
   -2.4674   -2.0194   -0.4323 C   0  0  2  0  0  0  0  0  0  0  0  0
   -2.8260   -3.0400    0.4645 O   0  0  0  0  0  0  0  0  0  0  0  0
   -0.9506   -1.8829   -0.5739 C   0  0  2  0  0  0  0  0  0  0  0  0
   -0.3187   -2.0826    0.6648 O   0  0  0  0  0  0  0  0  0  0  0  0
   -0.7781   -0.4441   -1.0586 C   0  0  2  0  0  0  0  0  0  0  0  0
    0.6091    0.0606   -0.9243 N   0  0  0  0  0  0  0  0  0  0  0  0
    0.9760    0.6498    0.3724 C   0  0  0  0  0  0  0  0  0  0  0  0
    2.4696    0.6092    0.5275 C   0  0  0  0  0  0  0  0  0  0  0  0
    3.2577    1.6948    0.1099 C   0  0  0  0  0  0  0  0  0  0  0  0
    4.6505    1.6376    0.2219 C   0  0  0  0  0  0  0  0  0  0  0  0
    5.2655    0.4941    0.7392 C   0  0  0  0  0  0  0  0  0  0  0  0
    4.4889   -0.5963    1.1412 C   0  0  0  0  0  0  0  0  0  0  0  0
    3.0959   -0.5432    1.0310 C   0  0  0  0  0  0  0  0  0  0  0  0
   -1.8942    0.3817   -0.3795 C   0  0  1  0  0  0  0  0  0  0  0  0
   -2.5538    1.6350   -1.5495 S   0  0  0  0  0  0  0  0  0  0  0  0
   -3.4291    2.6283   -0.2976 C   0  0  0  0  0  0  0  0  0  0  0  0
   -2.9727   -0.6456    0.0361 C   0  0  2  0  0  0  0  0  0  0  0  0
   -3.1309   -0.6421    1.4335 O   0  0  0  0  0  0  0  0  0  0  0  0
   -2.9055   -2.2311   -1.4371 H   0  0  0  0  0  0  0  0  0  0  0  0
   -2.6271   -3.8988    0.0078 H   0  0  0  0  0  0  0  0  0  0  0  0
   -0.5550   -2.5964   -1.3355 H   0  0  0  0  0  0  0  0  0  0  0  0
   -0.1639   -3.0589    0.7549 H   0  0  0  0  0  0  0  0  0  0  0  0
   -1.0067   -0.4831   -2.1505 H   0  0  0  0  0  0  0  0  0  0  0  0
    0.7626    0.7913   -1.6593 H   0  0  0  0  0  0  0  0  0  0  0  0
    0.6237    1.7049    0.4270 H   0  0  0  0  0  0  0  0  0  0  0  0
    0.5158    0.1042    1.2215 H   0  0  0  0  0  0  0  0  0  0  0  0
    2.7946    2.5828   -0.3023 H   0  0  0  0  0  0  0  0  0  0  0  0
    5.2534    2.4783   -0.0963 H   0  0  0  0  0  0  0  0  0  0  0  0
    6.3437    0.4509    0.8238 H   0  0  0  0  0  0  0  0  0  0  0  0
    4.9666   -1.4842    1.5346 H   0  0  0  0  0  0  0  0  0  0  0  0
    2.5061   -1.3986    1.3367 H   0  0  0  0  0  0  0  0  0  0  0  0
   -1.5305    0.9030    0.5267 H   0  0  0  0  0  0  0  0  0  0  0  0
   -4.2364    2.0306    0.1718 H   0  0  0  0  0  0  0  0  0  0  0  0
   -2.7199    2.9831    0.4786 H   0  0  0  0  0  0  0  0  0  0  0  0
   -3.8840    3.5102   -0.7930 H   0  0  0  0  0  0  0  0  0  0  0  0
   -3.9537   -0.4398   -0.4526 H   0  0  0  0  0  0  0  0  0  0  0  0
   -3.6753    0.1567    1.6576 H   0  0  0  0  0  0  0  0  0  0  0  0
  1  2  1  0
  1  3  1  0
  3  4  1  0
  3  5  1  0
  5  6  1  0
  6  7  1  0
  7  8  1  0
  8  9  2  0
  9 10  1  0
 10 11  2  0
 11 12  1  0
 12 13  2  0
  5 14  1  0
 14 15  1  0
 15 16  1  0
 14 17  1  0
 17 18  1  0
 17  1  1  0
 13  8  1  0
  1 19  1  6
  2 20  1  0
  3 21  1  6
  4 22  1  0
  5 23  1  6
  6 24  1  0
  7 25  1  0
  7 26  1  0
  9 27  1  0
 10 28  1  0
 11 29  1  0
 12 30  1  0
 13 31  1  0
 14 32  1  1
 16 33  1  0
 16 34  1  0
 16 35  1  0
 17 36  1  6
 18 37  1  0
M  END
$$$$
