
     RDKit          3D

 74 75  0  0  0  0  0  0  0  0999 V2000
   -4.0796   -5.7002    1.6351 C   0  0  0  0  0  0  0  0  0  0  0  0
   -5.1292   -4.9804    0.7963 C   0  0  0  0  0  0  0  0  0  0  0  0
   -4.5089   -4.2168   -0.2358 O   0  0  0  0  0  0  0  0  0  0  0  0
   -3.8621   -2.9939   -0.0104 C   0  0  0  0  0  0  0  0  0  0  0  0
   -3.8423   -2.4932    1.1489 O   0  0  0  0  0  0  0  0  0  0  0  0
   -3.1243   -2.3110   -1.1453 C   0  0  0  0  0  0  0  0  0  0  0  0
   -1.8001   -3.0821   -1.3365 C   0  0  0  0  0  0  0  0  0  0  0  0
   -3.9928   -2.4178   -2.4222 C   0  0  0  0  0  0  0  0  0  0  0  0
   -2.9151   -0.8900   -0.7567 N   0  0  0  0  0  0  0  0  0  0  0  0
   -1.7263    0.0451   -1.6843 P   0  0  0  0  0  5  0  0  0  0  0  0
   -1.7166   -0.3964   -3.1294 O   0  0  0  0  0  0  0  0  0  0  0  0
   -2.1776    1.7612   -1.6728 N   0  0  0  0  0  0  0  0  0  0  0  0
   -2.0302    2.5267   -0.4048 C   0  0  0  0  0  0  0  0  0  0  0  0
   -2.5879    1.7695    0.8175 C   0  0  0  0  0  0  0  0  0  0  0  0
   -0.5565    2.9257   -0.1558 C   0  0  0  0  0  0  0  0  0  0  0  0
   -2.8445    3.8003   -0.5381 C   0  0  0  0  0  0  0  0  0  0  0  0
   -3.6981    3.9168   -1.4617 O   0  0  0  0  0  0  0  0  0  0  0  0
   -2.6901    4.8255    0.4026 O   0  0  0  0  0  0  0  0  0  0  0  0
   -3.4388    6.0351    0.3527 C   0  0  0  0  0  0  0  0  0  0  0  0
   -3.0305    6.9335    1.5090 C   0  0  0  0  0  0  0  0  0  0  0  0
   -0.0779   -0.2235   -1.0395 C   0  0  0  0  0  0  0  0  0  0  0  0
    0.2331   -0.7231    0.2082 C   0  0  0  0  0  0  0  0  0  0  0  0
    1.6094   -0.7288    0.2721 C   0  0  0  0  0  0  0  0  0  0  0  0
    2.0478   -0.2206   -0.9402 C   0  0  0  0  0  0  0  0  0  0  0  0
    1.0167    0.0640   -1.7020 O   0  0  0  0  0  0  0  0  0  0  0  0
    3.4437   -0.0414   -1.3772 C   0  0  0  0  0  0  0  0  0  0  0  0
    4.5476    0.1226   -0.5245 C   0  0  0  0  0  0  0  0  0  0  0  0
    5.9305    0.2578   -1.4807 S   0  0  0  0  0  0  0  0  0  0  0  0
    5.0753    0.0902   -2.9135 C   0  0  0  0  0  0  0  0  0  0  0  0
    5.6624    0.1121   -4.2113 N   0  0  0  0  0  0  0  0  0  0  0  0
    3.7513   -0.0556   -2.7032 N   0  0  0  0  0  0  0  0  0  0  0  0
    4.5132    0.3560    0.9341 C   0  0  0  0  0  0  0  0  0  0  0  0
    3.7004    1.2159    1.3732 O   0  0  0  0  0  0  0  0  0  0  0  0
    5.4600   -0.3478    1.9029 C   0  0  0  0  0  0  0  0  0  0  0  0
    4.8120   -0.4290    3.3033 C   0  0  0  0  0  0  0  0  0  0  0  0
    5.7602   -1.7879    1.4327 C   0  0  0  0  0  0  0  0  0  0  0  0
    6.7730    0.4491    2.0085 C   0  0  0  0  0  0  0  0  0  0  0  0
   -3.4285   -4.9666    2.1545 H   0  0  0  0  0  0  0  0  0  0  0  0
   -3.4529   -6.3461    0.9844 H   0  0  0  0  0  0  0  0  0  0  0  0
   -4.5807   -6.3341    2.3966 H   0  0  0  0  0  0  0  0  0  0  0  0
   -5.7906   -5.7382    0.3260 H   0  0  0  0  0  0  0  0  0  0  0  0
   -5.7569   -4.3261    1.4395 H   0  0  0  0  0  0  0  0  0  0  0  0
   -1.2226   -2.7104   -2.2060 H   0  0  0  0  0  0  0  0  0  0  0  0
   -2.0028   -4.1595   -1.5229 H   0  0  0  0  0  0  0  0  0  0  0  0
   -1.1723   -3.0115   -0.4246 H   0  0  0  0  0  0  0  0  0  0  0  0
   -4.9686   -1.9070   -2.2740 H   0  0  0  0  0  0  0  0  0  0  0  0
   -4.1943   -3.4809   -2.6759 H   0  0  0  0  0  0  0  0  0  0  0  0
   -3.4978   -1.9700   -3.3028 H   0  0  0  0  0  0  0  0  0  0  0  0
   -3.8274   -0.3828   -0.8274 H   0  0  0  0  0  0  0  0  0  0  0  0
   -1.6356    2.2329   -2.4338 H   0  0  0  0  0  0  0  0  0  0  0  0
   -1.9865    0.8695    1.0496 H   0  0  0  0  0  0  0  0  0  0  0  0
   -3.6436    1.4722    0.6435 H   0  0  0  0  0  0  0  0  0  0  0  0
   -2.5601    2.4152    1.7222 H   0  0  0  0  0  0  0  0  0  0  0  0
    0.0702    2.0550    0.0993 H   0  0  0  0  0  0  0  0  0  0  0  0
   -0.4733    3.6245    0.7042 H   0  0  0  0  0  0  0  0  0  0  0  0
   -0.1268    3.4256   -1.0500 H   0  0  0  0  0  0  0  0  0  0  0  0
   -4.5243    5.8082    0.4293 H   0  0  0  0  0  0  0  0  0  0  0  0
   -3.2414    6.5594   -0.6075 H   0  0  0  0  0  0  0  0  0  0  0  0
   -3.2298    6.4226    2.4748 H   0  0  0  0  0  0  0  0  0  0  0  0
   -3.6124    7.8785    1.4734 H   0  0  0  0  0  0  0  0  0  0  0  0
   -1.9482    7.1727    1.4393 H   0  0  0  0  0  0  0  0  0  0  0  0
   -0.4538   -1.0521    0.9762 H   0  0  0  0  0  0  0  0  0  0  0  0
    2.2089   -1.0901    1.0959 H   0  0  0  0  0  0  0  0  0  0  0  0
    5.0650    0.0070   -5.0610 H   0  0  0  0  0  0  0  0  0  0  0  0
    6.6933    0.2330   -4.3218 H   0  0  0  0  0  0  0  0  0  0  0  0
    4.6255    0.5865    3.7153 H   0  0  0  0  0  0  0  0  0  0  0  0
    3.8427   -0.9712    3.2533 H   0  0  0  0  0  0  0  0  0  0  0  0
    5.4751   -0.9663    4.0156 H   0  0  0  0  0  0  0  0  0  0  0  0
    4.8144   -2.3535    1.2863 H   0  0  0  0  0  0  0  0  0  0  0  0
    6.3251   -1.7942    0.4779 H   0  0  0  0  0  0  0  0  0  0  0  0
    6.3766   -2.3261    2.1850 H   0  0  0  0  0  0  0  0  0  0  0  0
    7.4567   -0.0204    2.7485 H   0  0  0  0  0  0  0  0  0  0  0  0
    6.5707    1.4929    2.3330 H   0  0  0  0  0  0  0  0  0  0  0  0
    7.2998    0.4838    1.0327 H   0  0  0  0  0  0  0  0  0  0  0  0
  1  2  1  0
  2  3  1  0
  3  4  1  0
  4  5  2  0
  4  6  1  0
  6  7  1  0
  6  8  1  0
  6  9  1  0
  9 10  1  0
 10 11  2  0
 10 12  1  0
 12 13  1  0
 13 14  1  0
 13 15  1  0
 13 16  1  0
 16 17  2  0
 16 18  1  0
 18 19  1  0
 19 20  1  0
 10 21  1  0
 21 22  2  0
 22 23  1  0
 23 24  2  0
 24 25  1  0
 24 26  1  0
 26 27  2  0
 27 28  1  0
 28 29  1  0
 29 30  1  0
 29 31  2  0
 27 32  1  0
 32 33  2  0
 32 34  1  0
 34 35  1  0
 34 36  1  0
 34 37  1  0
 25 21  1  0
 31 26  1  0
  1 38  1  0
  1 39  1  0
  1 40  1  0
  2 41  1  0
  2 42  1  0
  7 43  1  0
  7 44  1  0
  7 45  1  0
  8 46  1  0
  8 47  1  0
  8 48  1  0
  9 49  1  0
 12 50  1  0
 14 51  1  0
 14 52  1  0
 14 53  1  0
 15 54  1  0
 15 55  1  0
 15 56  1  0
 19 57  1  0
 19 58  1  0
 20 59  1  0
 20 60  1  0
 20 61  1  0
 22 62  1  0
 23 63  1  0
 30 64  1  0
 30 65  1  0
 35 66  1  0
 35 67  1  0
 35 68  1  0
 36 69  1  0
 36 70  1  0
 36 71  1  0
 37 72  1  0
 37 73  1  0
 37 74  1  0
M  END
$$$$
