
     RDKit          3D

 27 29  0  0  0  0  0  0  0  0999 V2000
    5.9349    0.5761    0.5413 O   0  0  0  0  0  0  0  0  0  0  0  0
    4.5486    0.4668    0.4586 C   0  0  0  0  0  0  0  0  0  0  0  0
    3.7197    1.2967    1.2222 C   0  0  0  0  0  0  0  0  0  0  0  0
    2.3296    1.1782    1.1313 C   0  0  0  0  0  0  0  0  0  0  0  0
    1.7455    0.2281    0.2715 C   0  0  0  0  0  0  0  0  0  0  0  0
    2.5907   -0.6036   -0.4892 C   0  0  0  0  0  0  0  0  0  0  0  0
    3.9804   -0.4820   -0.3946 C   0  0  0  0  0  0  0  0  0  0  0  0
    0.2672    0.1080    0.1808 C   0  0  0  0  0  0  0  0  0  0  0  0
   -0.4530   -0.5938   -0.7964 C   0  0  0  0  0  0  0  0  0  0  0  0
   -1.8380   -0.5167   -0.6093 C   0  0  0  0  0  0  0  0  0  0  0  0
   -2.2101    0.2326    0.4944 C   0  0  0  0  0  0  0  0  0  0  0  0
   -0.8378    0.8152    1.2593 S   0  0  0  0  0  0  0  0  0  0  0  0
   -3.5441    0.4266    0.8437 C   0  0  0  0  0  0  0  0  0  0  0  0
   -4.5346   -0.1629    0.0411 C   0  0  0  0  0  0  0  0  0  0  0  0
   -5.8766    0.0151    0.3682 O   0  0  0  0  0  0  0  0  0  0  0  0
   -4.1665   -0.9287   -1.0876 C   0  0  0  0  0  0  0  0  0  0  0  0
   -2.8123   -1.1079   -1.4176 C   0  0  0  0  0  0  0  0  0  0  0  0
    6.3771    1.2540    1.1511 H   0  0  0  0  0  0  0  0  0  0  0  0
    4.1510    2.0351    1.8861 H   0  0  0  0  0  0  0  0  0  0  0  0
    1.7161    1.8387    1.7298 H   0  0  0  0  0  0  0  0  0  0  0  0
    2.1880   -1.3596   -1.1483 H   0  0  0  0  0  0  0  0  0  0  0  0
    4.6172   -1.1296   -0.9840 H   0  0  0  0  0  0  0  0  0  0  0  0
   -0.0047   -1.1292   -1.6219 H   0  0  0  0  0  0  0  0  0  0  0  0
   -3.8096    1.0172    1.7112 H   0  0  0  0  0  0  0  0  0  0  0  0
   -6.6161   -0.3962   -0.1894 H   0  0  0  0  0  0  0  0  0  0  0  0
   -4.9292   -1.3830   -1.7070 H   0  0  0  0  0  0  0  0  0  0  0  0
   -2.5336   -1.6950   -2.2837 H   0  0  0  0  0  0  0  0  0  0  0  0
  1  2  1  0
  2  3  2  0
  3  4  1  0
  4  5  2  0
  5  6  1  0
  6  7  2  0
  5  8  1  0
  8  9  2  0
  9 10  1  0
 10 11  2  0
 11 12  1  0
 11 13  1  0
 13 14  2  0
 14 15  1  0
 14 16  1  0
 16 17  2  0
  7  2  1  0
 12  8  1  0
 17 10  1  0
  1 18  1  0
  3 19  1  0
  4 20  1  0
  6 21  1  0
  7 22  1  0
  9 23  1  0
 13 24  1  0
 15 25  1  0
 16 26  1  0
 17 27  1  0
M  END
$$$$
