
     RDKit          3D

 43 45  0  0  0  0  0  0  0  0999 V2000
   -0.4631   -1.9505    0.2084 C   0  0  2  0  0  0  0  0  0  0  0  0
    0.7223   -2.0682   -0.7606 C   0  0  0  0  0  0  0  0  0  0  0  0
   -1.7701   -2.3747   -0.5165 C   0  0  0  0  0  0  0  0  0  0  0  0
   -3.0156   -1.6611    0.0244 C   0  0  0  0  0  0  0  0  0  0  0  0
   -2.8531   -0.2001   -0.0699 N   0  0  0  0  0  0  0  0  0  0  0  0
   -1.5108    0.3901    0.0744 C   0  0  0  0  0  0  0  0  0  0  0  0
   -0.5948   -0.5490    0.8813 C   0  0  2  0  0  0  0  0  0  0  0  0
    0.7063    0.0645    1.2438 N   0  0  0  0  0  0  0  0  0  0  0  0
    1.1134    0.0232    2.6524 C   0  0  0  0  0  0  0  0  0  0  0  0
    1.5410    0.7696    0.2977 C   0  0  0  0  0  0  0  0  0  0  0  0
    1.0296    1.7743   -0.4750 N   0  0  0  0  0  0  0  0  0  0  0  0
    1.8079    2.4787   -1.3547 C   0  0  0  0  0  0  0  0  0  0  0  0
    3.1386    2.2000   -1.4784 N   0  0  0  0  0  0  0  0  0  0  0  0
    3.6626    1.2162   -0.7094 C   0  0  0  0  0  0  0  0  0  0  0  0
    2.9073    0.5024    0.1721 C   0  0  0  0  0  0  0  0  0  0  0  0
    3.7463   -0.4178    0.7686 C   0  0  0  0  0  0  0  0  0  0  0  0
    4.9968   -0.1945    0.1969 C   0  0  0  0  0  0  0  0  0  0  0  0
    4.9402    0.8090   -0.7089 N   0  0  0  0  0  0  0  0  0  0  0  0
   -4.0128    0.6331   -0.2909 C   0  0  0  0  0  0  0  0  0  0  0  0
   -5.1680    0.1580   -0.1137 O   0  0  0  0  0  0  0  0  0  0  0  0
   -3.8901    2.0712   -0.7075 C   0  0  0  0  0  0  0  0  0  0  0  0
   -3.8607    2.9365    0.4751 C   0  0  0  0  0  0  0  0  0  0  0  0
   -3.8365    3.6197    1.4088 N   0  0  0  0  0  0  0  0  0  0  0  0
   -0.2809   -2.6859    1.0246 H   0  0  0  0  0  0  0  0  0  0  0  0
    0.6946   -3.0482   -1.2837 H   0  0  0  0  0  0  0  0  0  0  0  0
    1.6787   -2.0276   -0.2038 H   0  0  0  0  0  0  0  0  0  0  0  0
    0.6927   -1.2593   -1.5212 H   0  0  0  0  0  0  0  0  0  0  0  0
   -1.7017   -2.1410   -1.6030 H   0  0  0  0  0  0  0  0  0  0  0  0
   -1.9072   -3.4742   -0.4246 H   0  0  0  0  0  0  0  0  0  0  0  0
   -3.8890   -1.9945   -0.5779 H   0  0  0  0  0  0  0  0  0  0  0  0
   -3.1938   -1.9488    1.0829 H   0  0  0  0  0  0  0  0  0  0  0  0
   -1.0987    0.5625   -0.9412 H   0  0  0  0  0  0  0  0  0  0  0  0
   -1.5736    1.3564    0.6187 H   0  0  0  0  0  0  0  0  0  0  0  0
   -1.1507   -0.7319    1.8308 H   0  0  0  0  0  0  0  0  0  0  0  0
    1.2681   -1.0307    2.9652 H   0  0  0  0  0  0  0  0  0  0  0  0
    0.3242    0.4807    3.2858 H   0  0  0  0  0  0  0  0  0  0  0  0
    2.0520    0.5921    2.8242 H   0  0  0  0  0  0  0  0  0  0  0  0
    1.3655    3.2626   -1.9536 H   0  0  0  0  0  0  0  0  0  0  0  0
    3.4930   -1.1647    1.5087 H   0  0  0  0  0  0  0  0  0  0  0  0
    5.8982   -0.7454    0.4305 H   0  0  0  0  0  0  0  0  0  0  0  0
    5.7248    1.1813   -1.2884 H   0  0  0  0  0  0  0  0  0  0  0  0
   -4.7608    2.3543   -1.3362 H   0  0  0  0  0  0  0  0  0  0  0  0
   -2.9725    2.2316   -1.3103 H   0  0  0  0  0  0  0  0  0  0  0  0
  1  2  1  0
  1  3  1  0
  3  4  1  0
  4  5  1  0
  5  6  1  0
  6  7  1  0
  7  8  1  0
  8  9  1  0
  8 10  1  0
 10 11  2  0
 11 12  1  0
 12 13  2  0
 13 14  1  0
 14 15  2  0
 15 16  1  0
 16 17  2  0
 17 18  1  0
  5 19  1  0
 19 20  2  0
 19 21  1  0
 21 22  1  0
 22 23  3  0
  7  1  1  0
 15 10  1  0
 18 14  1  0
  1 24  1  1
  2 25  1  0
  2 26  1  0
  2 27  1  0
  3 28  1  0
  3 29  1  0
  4 30  1  0
  4 31  1  0
  6 32  1  0
  6 33  1  0
  7 34  1  1
  9 35  1  0
  9 36  1  0
  9 37  1  0
 12 38  1  0
 16 39  1  0
 17 40  1  0
 18 41  1  0
 21 42  1  0
 21 43  1  0
M  END
$$$$
