
     RDKit          3D

 71 74  0  0  0  0  0  0  0  0999 V2000
   -7.6735    2.0822    0.0066 C   0  0  0  0  0  0  0  0  0  0  0  0
   -7.2309    0.7619    0.6446 C   0  0  0  0  0  0  0  0  0  0  0  0
   -7.2302    0.8453    2.1847 C   0  0  0  0  0  0  0  0  0  0  0  0
   -5.9247    0.3086    0.0755 N   0  0  0  0  0  0  0  0  0  0  0  0
   -4.7436    0.8649    0.5332 C   0  0  0  0  0  0  0  0  0  0  0  0
   -4.7669    1.8731    1.2911 O   0  0  0  0  0  0  0  0  0  0  0  0
   -3.4931    0.3216    0.1741 C   0  0  0  0  0  0  0  0  0  0  0  0
   -3.4570   -0.7589   -0.7048 C   0  0  0  0  0  0  0  0  0  0  0  0
   -4.6299   -1.2370   -1.2796 C   0  0  0  0  0  0  0  0  0  0  0  0
   -4.5645   -2.2627   -2.2368 C   0  0  0  0  0  0  0  0  0  0  0  0
   -5.7192   -2.6968   -2.8820 C   0  0  0  0  0  0  0  0  0  0  0  0
   -6.9414   -2.0959   -2.5972 C   0  0  0  0  0  0  0  0  0  0  0  0
   -7.0243   -1.0813   -1.6404 C   0  0  0  0  0  0  0  0  0  0  0  0
   -5.8753   -0.6587   -0.9197 C   0  0  0  0  0  0  0  0  0  0  0  0
   -2.2190    0.8840    0.6947 C   0  0  0  0  0  0  0  0  0  0  0  0
   -2.1375    2.1161    0.9537 O   0  0  0  0  0  0  0  0  0  0  0  0
   -1.0772    0.0363    0.9052 N   0  0  0  0  0  0  0  0  0  0  0  0
    0.2524    0.5760    1.2243 C   0  0  2  0  0  0  0  0  0  0  0  0
    0.8417    1.3474    0.0027 C   0  0  0  0  0  0  0  0  0  0  0  0
    1.7495    0.4673   -0.8818 C   0  0  2  0  0  0  0  0  0  0  0  0
    0.9836   -0.7411   -1.4445 C   0  0  0  0  0  0  0  0  0  0  0  0
    1.2541   -1.8545   -0.4380 C   0  0  0  0  0  0  0  0  0  0  0  0
    2.0895   -1.1741    0.6522 C   0  0  2  0  0  0  0  0  0  0  0  0
    1.2022   -0.5457    1.7540 C   0  0  0  0  0  0  0  0  0  0  0  0
    2.7976   -0.0747   -0.0097 N   0  0  0  0  0  0  0  0  0  0  0  0
    3.9964   -0.5230   -0.7626 C   0  0  0  0  0  0  0  0  0  0  0  0
    5.1614    0.4620   -0.5568 C   0  0  1  0  0  0  0  0  0  0  0  0
    4.8637    1.7033   -1.1490 O   0  0  0  0  0  0  0  0  0  0  0  0
    5.5248    0.6135    0.9504 C   0  0  0  0  0  0  0  0  0  0  0  0
    6.8970    1.0971    1.2291 N   0  0  0  0  0  0  0  0  0  0  0  0
    7.3725    2.1747    0.3530 C   0  0  0  0  0  0  0  0  0  0  0  0
    8.0690   -0.1954    1.3617 S   0  0  0  0  0  6  0  0  0  0  0  0
    8.2210   -1.1579   -0.1300 C   0  0  0  0  0  0  0  0  0  0  0  0
    9.4152    0.3883    1.6887 O   0  0  0  0  0  0  0  0  0  0  0  0
    7.6647   -1.1126    2.4817 O   0  0  0  0  0  0  0  0  0  0  0  0
   -7.7274    1.9686   -1.0966 H   0  0  0  0  0  0  0  0  0  0  0  0
   -6.9585    2.8969    0.2455 H   0  0  0  0  0  0  0  0  0  0  0  0
   -8.6799    2.3685    0.3798 H   0  0  0  0  0  0  0  0  0  0  0  0
   -8.0208    0.0107    0.4533 H   0  0  0  0  0  0  0  0  0  0  0  0
   -8.2741    0.8021    2.5643 H   0  0  0  0  0  0  0  0  0  0  0  0
   -6.6723   -0.0133    2.6153 H   0  0  0  0  0  0  0  0  0  0  0  0
   -6.7959    1.7955    2.5568 H   0  0  0  0  0  0  0  0  0  0  0  0
   -2.5059   -1.1839   -1.0039 H   0  0  0  0  0  0  0  0  0  0  0  0
   -3.6158   -2.7164   -2.4991 H   0  0  0  0  0  0  0  0  0  0  0  0
   -5.6619   -3.4814   -3.6255 H   0  0  0  0  0  0  0  0  0  0  0  0
   -7.8299   -2.4073   -3.1316 H   0  0  0  0  0  0  0  0  0  0  0  0
   -7.9893   -0.6133   -1.5281 H   0  0  0  0  0  0  0  0  0  0  0  0
   -1.2382   -0.9942    0.9404 H   0  0  0  0  0  0  0  0  0  0  0  0
    0.1224    1.3047    2.0556 H   0  0  0  0  0  0  0  0  0  0  0  0
    1.4549    2.1938    0.3835 H   0  0  0  0  0  0  0  0  0  0  0  0
    0.0364    1.7939   -0.6190 H   0  0  0  0  0  0  0  0  0  0  0  0
    2.1685    1.0918   -1.7029 H   0  0  0  0  0  0  0  0  0  0  0  0
   -0.1034   -0.5413   -1.5580 H   0  0  0  0  0  0  0  0  0  0  0  0
    1.3933   -1.0208   -2.4396 H   0  0  0  0  0  0  0  0  0  0  0  0
    1.8574   -2.6554   -0.9192 H   0  0  0  0  0  0  0  0  0  0  0  0
    0.3216   -2.3115   -0.0476 H   0  0  0  0  0  0  0  0  0  0  0  0
    2.7872   -1.8962    1.1332 H   0  0  0  0  0  0  0  0  0  0  0  0
    0.6289   -1.3382    2.2823 H   0  0  0  0  0  0  0  0  0  0  0  0
    1.8817   -0.0959    2.5115 H   0  0  0  0  0  0  0  0  0  0  0  0
    3.7949   -0.6226   -1.8533 H   0  0  0  0  0  0  0  0  0  0  0  0
    4.3419   -1.5266   -0.4266 H   0  0  0  0  0  0  0  0  0  0  0  0
    6.0259    0.0402   -1.1020 H   0  0  0  0  0  0  0  0  0  0  0  0
    4.1488    2.1362   -0.6141 H   0  0  0  0  0  0  0  0  0  0  0  0
    5.3663   -0.3580    1.4679 H   0  0  0  0  0  0  0  0  0  0  0  0
    4.8073    1.3125    1.4314 H   0  0  0  0  0  0  0  0  0  0  0  0
    6.6201    2.9903    0.3067 H   0  0  0  0  0  0  0  0  0  0  0  0
    7.5874    1.8022   -0.6703 H   0  0  0  0  0  0  0  0  0  0  0  0
    8.3020    2.6144    0.7711 H   0  0  0  0  0  0  0  0  0  0  0  0
    7.2970   -1.7500   -0.2919 H   0  0  0  0  0  0  0  0  0  0  0  0
    8.4058   -0.4914   -0.9967 H   0  0  0  0  0  0  0  0  0  0  0  0
    9.0758   -1.8577   -0.0274 H   0  0  0  0  0  0  0  0  0  0  0  0
  1  2  1  0
  2  3  1  0
  2  4  1  0
  4  5  1  0
  5  6  2  0
  5  7  1  0
  7  8  2  0
  8  9  1  0
  9 10  2  0
 10 11  1  0
 11 12  2  0
 12 13  1  0
 13 14  2  0
  7 15  1  0
 15 16  2  0
 15 17  1  0
 17 18  1  0
 18 19  1  0
 19 20  1  0
 20 21  1  0
 21 22  1  0
 22 23  1  0
 23 24  1  0
 23 25  1  0
 25 26  1  0
 26 27  1  0
 27 28  1  0
 27 29  1  0
 29 30  1  0
 30 31  1  0
 30 32  1  0
 32 33  1  0
 32 34  2  0
 32 35  2  0
 14  4  1  0
 24 18  1  0
 14  9  1  0
 25 20  1  0
  1 36  1  0
  1 37  1  0
  1 38  1  0
  2 39  1  0
  3 40  1  0
  3 41  1  0
  3 42  1  0
  8 43  1  0
 10 44  1  0
 11 45  1  0
 12 46  1  0
 13 47  1  0
 17 48  1  0
 18 49  1  1
 19 50  1  0
 19 51  1  0
 20 52  1  6
 21 53  1  0
 21 54  1  0
 22 55  1  0
 22 56  1  0
 23 57  1  1
 24 58  1  0
 24 59  1  0
 26 60  1  0
 26 61  1  0
 27 62  1  6
 28 63  1  0
 29 64  1  0
 29 65  1  0
 31 66  1  0
 31 67  1  0
 31 68  1  0
 33 69  1  0
 33 70  1  0
 33 71  1  0
M  END
$$$$
