
     RDKit          3D

 21 22  0  0  0  0  0  0  0  0999 V2000
   -3.5256    0.4564   -0.1120 C   0  0  0  0  0  0  0  0  0  0  0  0
   -2.1183   -0.0487   -0.0641 C   0  0  0  0  0  0  0  0  0  0  0  0
   -1.9185   -1.3280    0.0363 N   0  0  0  0  0  0  0  0  0  0  0  0
   -0.3505   -2.0384    0.1276 S   0  0  0  0  0  6  0  0  0  0  0  0
   -0.2127   -2.7889    1.4219 O   0  0  0  0  0  0  0  0  0  0  0  0
   -0.1492   -2.9642   -1.0385 O   0  0  0  0  0  0  0  0  0  0  0  0
    0.8157   -0.7464    0.0659 C   0  0  0  0  0  0  0  0  0  0  0  0
    0.3688    0.5805   -0.0290 C   0  0  0  0  0  0  0  0  0  0  0  0
   -1.0344    0.9028   -0.0788 N   0  0  0  0  0  0  0  0  0  0  0  0
    1.3167    1.6166   -0.0747 C   0  0  0  0  0  0  0  0  0  0  0  0
    2.6844    1.3305   -0.0276 C   0  0  0  0  0  0  0  0  0  0  0  0
    3.1203    0.0060    0.0662 C   0  0  0  0  0  0  0  0  0  0  0  0
    4.8364   -0.3523    0.1255 Cl  0  0  0  0  0  0  0  0  0  0  0  0
    2.1861   -1.0328    0.1132 C   0  0  0  0  0  0  0  0  0  0  0  0
   -3.7926    0.8976    0.8708 H   0  0  0  0  0  0  0  0  0  0  0  0
   -3.6193    1.2345   -0.8983 H   0  0  0  0  0  0  0  0  0  0  0  0
   -4.2348   -0.3669   -0.3442 H   0  0  0  0  0  0  0  0  0  0  0  0
   -1.2958    1.9136   -0.1354 H   0  0  0  0  0  0  0  0  0  0  0  0
    0.9953    2.6480   -0.1474 H   0  0  0  0  0  0  0  0  0  0  0  0
    3.4034    2.1390   -0.0641 H   0  0  0  0  0  0  0  0  0  0  0  0
    2.5247   -2.0589    0.1868 H   0  0  0  0  0  0  0  0  0  0  0  0
  1  2  1  0
  2  3  2  0
  3  4  1  0
  4  5  2  0
  4  6  2  0
  4  7  1  0
  7  8  2  0
  8  9  1  0
  8 10  1  0
 10 11  2  0
 11 12  1  0
 12 13  1  0
 12 14  2  0
  9  2  1  0
 14  7  1  0
  1 15  1  0
  1 16  1  0
  1 17  1  0
  9 18  1  0
 10 19  1  0
 11 20  1  0
 14 21  1  0
M  END
$$$$
