
     RDKit          3D

 25 24  0  0  0  0  0  0  0  0999 V2000
   -2.7016   -0.1724   -0.0997 C   0  0  1  0  0  0  0  0  0  0  0  0
   -3.3732   -1.2792   -0.7856 N   0  0  0  0  0  0  0  0  0  0  0  0
   -1.2042   -0.1502   -0.4427 C   0  0  0  0  0  0  0  0  0  0  0  0
   -0.3368   -1.5679    0.3232 S   0  0  0  0  0  0  0  0  0  0  0  0
    1.3302   -1.1301   -0.2858 C   0  0  0  0  0  0  0  0  0  0  0  0
    2.0273   -0.1866    0.6931 C   0  0  0  0  0  0  0  0  0  0  0  0
    3.6922    0.1780    0.1599 S   0  0  0  0  0  6  0  0  0  0  0  0
    3.6603    0.9922   -1.3659 N   0  0  0  0  0  0  0  0  0  0  0  0
    4.3487    1.0649    1.1798 O   0  0  0  0  0  0  0  0  0  0  0  0
    4.4788   -1.0971    0.0353 O   0  0  0  0  0  0  0  0  0  0  0  0
   -3.3308    1.1313   -0.5043 C   0  0  0  0  0  0  0  0  0  0  0  0
   -3.7073    2.0497    0.4707 O   0  0  0  0  0  0  0  0  0  0  0  0
   -3.4952    1.4068   -1.7237 O   0  0  0  0  0  0  0  0  0  0  0  0
   -2.8197   -0.2937    1.0013 H   0  0  0  0  0  0  0  0  0  0  0  0
   -3.0105   -2.1814   -0.4017 H   0  0  0  0  0  0  0  0  0  0  0  0
   -4.3887   -1.2548   -0.5337 H   0  0  0  0  0  0  0  0  0  0  0  0
   -1.0718   -0.1839   -1.5461 H   0  0  0  0  0  0  0  0  0  0  0  0
   -0.7531    0.7900   -0.0596 H   0  0  0  0  0  0  0  0  0  0  0  0
    1.2712   -0.6724   -1.2957 H   0  0  0  0  0  0  0  0  0  0  0  0
    1.9163   -2.0695   -0.3689 H   0  0  0  0  0  0  0  0  0  0  0  0
    2.0712   -0.6573    1.6984 H   0  0  0  0  0  0  0  0  0  0  0  0
    1.4657    0.7669    0.7724 H   0  0  0  0  0  0  0  0  0  0  0  0
    4.6383    1.2983   -1.5686 H   0  0  0  0  0  0  0  0  0  0  0  0
    3.4156    0.2808   -2.0905 H   0  0  0  0  0  0  0  0  0  0  0  0
   -4.1231    2.9374    0.2152 H   0  0  0  0  0  0  0  0  0  0  0  0
  1  2  1  0
  1  3  1  0
  3  4  1  0
  4  5  1  0
  5  6  1  0
  6  7  1  0
  7  8  1  0
  7  9  2  0
  7 10  2  0
  1 11  1  0
 11 12  1  0
 11 13  2  0
  1 14  1  1
  2 15  1  0
  2 16  1  0
  3 17  1  0
  3 18  1  0
  5 19  1  0
  5 20  1  0
  6 21  1  0
  6 22  1  0
  8 23  1  0
  8 24  1  0
 12 25  1  0
M  END
$$$$
