
     RDKit          3D

 48 49  0  0  0  0  0  0  0  0999 V2000
    5.2193   -3.2854    0.1394 C   0  0  0  0  0  0  0  0  0  0  0  0
    4.9612   -1.8080    0.1021 C   0  0  0  0  0  0  0  0  0  0  0  0
    3.7822   -1.2838    0.6520 C   0  0  0  0  0  0  0  0  0  0  0  0
    3.5123    0.0907    0.5867 C   0  0  0  0  0  0  0  0  0  0  0  0
    2.3136    0.6015    1.1943 N   0  0  0  0  0  0  0  0  0  0  0  0
    1.5628    1.7139    0.6820 C   0  0  0  0  0  0  0  0  0  0  0  0
    1.8094    2.1839   -0.4617 O   0  0  0  0  0  0  0  0  0  0  0  0
    0.4126    2.2654    1.4677 C   0  0  0  0  0  0  0  0  0  0  0  0
   -0.8367    1.4809    1.1754 C   0  0  0  0  0  0  0  0  0  0  0  0
   -1.6271    1.7999    0.0616 C   0  0  0  0  0  0  0  0  0  0  0  0
   -2.7704    1.0513   -0.2337 C   0  0  0  0  0  0  0  0  0  0  0  0
   -3.1398   -0.0371    0.5825 C   0  0  0  0  0  0  0  0  0  0  0  0
   -4.2743   -0.8389    0.3485 O   0  0  0  0  0  0  0  0  0  0  0  0
   -5.3375   -0.6238   -0.5936 C   0  0  0  0  0  0  0  0  0  0  0  0
   -6.3027   -1.8105   -0.4689 C   0  0  0  0  0  0  0  0  0  0  0  0
   -6.1019    0.6695   -0.2431 C   0  0  0  0  0  0  0  0  0  0  0  0
   -4.8116   -0.6022   -2.0108 C   0  0  0  0  0  0  0  0  0  0  0  0
   -5.4531    0.1522   -2.9901 O   0  0  0  0  0  0  0  0  0  0  0  0
   -3.8218   -1.3168   -2.3260 O   0  0  0  0  0  0  0  0  0  0  0  0
   -2.3356   -0.3606    1.6822 C   0  0  0  0  0  0  0  0  0  0  0  0
   -1.1930    0.3874    1.9779 C   0  0  0  0  0  0  0  0  0  0  0  0
    4.4479    0.9466   -0.0203 C   0  0  0  0  0  0  0  0  0  0  0  0
    5.6123    0.4279   -0.6060 C   0  0  0  0  0  0  0  0  0  0  0  0
    6.6172    1.3501   -1.2310 C   0  0  0  0  0  0  0  0  0  0  0  0
    5.8665   -0.9496   -0.5382 C   0  0  0  0  0  0  0  0  0  0  0  0
    4.7635   -3.7406    1.0445 H   0  0  0  0  0  0  0  0  0  0  0  0
    4.7816   -3.7593   -0.7638 H   0  0  0  0  0  0  0  0  0  0  0  0
    6.3105   -3.4924    0.1647 H   0  0  0  0  0  0  0  0  0  0  0  0
    3.0686   -1.9459    1.1282 H   0  0  0  0  0  0  0  0  0  0  0  0
    1.9118    0.0753    2.0031 H   0  0  0  0  0  0  0  0  0  0  0  0
    0.2597    3.3360    1.2087 H   0  0  0  0  0  0  0  0  0  0  0  0
    0.6508    2.2270    2.5529 H   0  0  0  0  0  0  0  0  0  0  0  0
   -1.3540    2.6267   -0.5826 H   0  0  0  0  0  0  0  0  0  0  0  0
   -3.3396    1.3270   -1.1067 H   0  0  0  0  0  0  0  0  0  0  0  0
   -6.7105   -1.8704    0.5633 H   0  0  0  0  0  0  0  0  0  0  0  0
   -7.1514   -1.7095   -1.1803 H   0  0  0  0  0  0  0  0  0  0  0  0
   -5.7729   -2.7639   -0.6840 H   0  0  0  0  0  0  0  0  0  0  0  0
   -7.0124    0.7726   -0.8724 H   0  0  0  0  0  0  0  0  0  0  0  0
   -6.4153    0.6489    0.8227 H   0  0  0  0  0  0  0  0  0  0  0  0
   -5.4794    1.5721   -0.3983 H   0  0  0  0  0  0  0  0  0  0  0  0
   -5.1185    0.1549   -3.9462 H   0  0  0  0  0  0  0  0  0  0  0  0
   -2.5995   -1.1997    2.3135 H   0  0  0  0  0  0  0  0  0  0  0  0
   -0.5864    0.1127    2.8319 H   0  0  0  0  0  0  0  0  0  0  0  0
    4.2849    2.0167   -0.0222 H   0  0  0  0  0  0  0  0  0  0  0  0
    7.3405    1.6857   -0.4589 H   0  0  0  0  0  0  0  0  0  0  0  0
    6.1144    2.2393   -1.6677 H   0  0  0  0  0  0  0  0  0  0  0  0
    7.1695    0.8348   -2.0456 H   0  0  0  0  0  0  0  0  0  0  0  0
    6.7723   -1.3523   -0.9764 H   0  0  0  0  0  0  0  0  0  0  0  0
  1  2  1  0
  2  3  2  0
  3  4  1  0
  4  5  1  0
  5  6  1  0
  6  7  2  0
  6  8  1  0
  8  9  1  0
  9 10  2  0
 10 11  1  0
 11 12  2  0
 12 13  1  0
 13 14  1  0
 14 15  1  0
 14 16  1  0
 14 17  1  0
 17 18  1  0
 17 19  2  0
 12 20  1  0
 20 21  2  0
  4 22  2  0
 22 23  1  0
 23 24  1  0
 23 25  2  0
 25  2  1  0
 21  9  1  0
  1 26  1  0
  1 27  1  0
  1 28  1  0
  3 29  1  0
  5 30  1  0
  8 31  1  0
  8 32  1  0
 10 33  1  0
 11 34  1  0
 15 35  1  0
 15 36  1  0
 15 37  1  0
 16 38  1  0
 16 39  1  0
 16 40  1  0
 18 41  1  0
 20 42  1  0
 21 43  1  0
 22 44  1  0
 24 45  1  0
 24 46  1  0
 24 47  1  0
 25 48  1  0
M  END
$$$$
