
     RDKit          3D

 39 40  0  0  0  0  0  0  0  0999 V2000
    0.1641    3.9530    0.9824 C   0  0  0  0  0  0  0  0  0  0  0  0
   -0.4933    2.6322    0.5803 C   0  0  0  0  0  0  0  0  0  0  0  0
    0.4524    1.4469    0.6767 C   0  0  0  0  0  0  0  0  0  0  0  0
    1.4829    1.5716    1.3271 O   0  0  0  0  0  0  0  0  0  0  0  0
    0.0827    0.0463    0.1550 C   0  0  0  0  0  0  0  0  0  0  0  0
   -0.8240    0.0968   -1.1211 C   0  0  0  0  0  0  0  0  0  0  0  0
   -2.3221    0.0652   -0.7824 C   0  0  0  0  0  0  0  0  0  0  0  0
   -2.7012   -1.1938   -0.0972 N   0  0  0  0  0  0  0  0  0  0  0  0
   -3.9761   -1.0246    0.6171 C   0  0  0  0  0  0  0  0  0  0  0  0
   -1.6486   -1.7461    0.7942 C   0  0  0  0  0  0  0  0  0  0  0  0
   -0.6887   -0.6624    1.3165 C   0  0  0  0  0  0  0  0  0  0  0  0
    1.3886   -0.6741   -0.2578 C   0  0  0  0  0  0  0  0  0  0  0  0
    2.2445   -0.0405   -1.1882 C   0  0  0  0  0  0  0  0  0  0  0  0
    3.4242   -0.6522   -1.6223 C   0  0  0  0  0  0  0  0  0  0  0  0
    4.2464    0.0086   -2.5323 O   0  0  0  0  0  0  0  0  0  0  0  0
    3.7673   -1.9195   -1.1429 C   0  0  0  0  0  0  0  0  0  0  0  0
    2.9299   -2.5729   -0.2401 C   0  0  0  0  0  0  0  0  0  0  0  0
    1.7491   -1.9653    0.1962 C   0  0  0  0  0  0  0  0  0  0  0  0
   -0.5637    4.7829    0.8603 H   0  0  0  0  0  0  0  0  0  0  0  0
    0.4832    3.9197    2.0460 H   0  0  0  0  0  0  0  0  0  0  0  0
    1.0455    4.1561    0.3372 H   0  0  0  0  0  0  0  0  0  0  0  0
   -0.8663    2.7524   -0.4557 H   0  0  0  0  0  0  0  0  0  0  0  0
   -1.3627    2.4561    1.2477 H   0  0  0  0  0  0  0  0  0  0  0  0
   -0.6297   -0.7922   -1.7639 H   0  0  0  0  0  0  0  0  0  0  0  0
   -0.5872    0.9755   -1.7566 H   0  0  0  0  0  0  0  0  0  0  0  0
   -2.8989    0.1430   -1.7292 H   0  0  0  0  0  0  0  0  0  0  0  0
   -2.5806    0.9527   -0.1654 H   0  0  0  0  0  0  0  0  0  0  0  0
   -4.7512   -0.6177   -0.0681 H   0  0  0  0  0  0  0  0  0  0  0  0
   -3.8588   -0.3369    1.4838 H   0  0  0  0  0  0  0  0  0  0  0  0
   -4.3422   -2.0091    0.9797 H   0  0  0  0  0  0  0  0  0  0  0  0
   -1.0776   -2.5045    0.2203 H   0  0  0  0  0  0  0  0  0  0  0  0
   -2.0863   -2.2887    1.6624 H   0  0  0  0  0  0  0  0  0  0  0  0
    0.0035   -1.0743    2.0803 H   0  0  0  0  0  0  0  0  0  0  0  0
   -1.3145    0.0721    1.8708 H   0  0  0  0  0  0  0  0  0  0  0  0
    1.9928    0.9377   -1.5799 H   0  0  0  0  0  0  0  0  0  0  0  0
    5.1076   -0.4075   -2.8673 H   0  0  0  0  0  0  0  0  0  0  0  0
    4.6785   -2.4012   -1.4740 H   0  0  0  0  0  0  0  0  0  0  0  0
    3.1941   -3.5586    0.1211 H   0  0  0  0  0  0  0  0  0  0  0  0
    1.1362   -2.5266    0.8828 H   0  0  0  0  0  0  0  0  0  0  0  0
  1  2  1  0
  2  3  1  0
  3  4  2  0
  3  5  1  0
  5  6  1  0
  6  7  1  0
  7  8  1  0
  8  9  1  0
  8 10  1  0
 10 11  1  0
  5 12  1  0
 12 13  2  0
 13 14  1  0
 14 15  1  0
 14 16  2  0
 16 17  1  0
 17 18  2  0
 11  5  1  0
 18 12  1  0
  1 19  1  0
  1 20  1  0
  1 21  1  0
  2 22  1  0
  2 23  1  0
  6 24  1  0
  6 25  1  0
  7 26  1  0
  7 27  1  0
  9 28  1  0
  9 29  1  0
  9 30  1  0
 10 31  1  0
 10 32  1  0
 11 33  1  0
 11 34  1  0
 13 35  1  0
 15 36  1  0
 16 37  1  0
 17 38  1  0
 18 39  1  0
M  END
$$$$
