
     RDKit          3D

177177  0  0  0  0  0  0  0  0999 V2000
   -9.7209    7.6567    0.7731 C   0  0  0  0  0  0  0  0  0  0  0  0
   -8.4691    7.0171    0.8809 O   0  0  0  0  0  0  0  0  0  0  0  0
   -8.6638    5.6258    1.0295 C   0  0  0  0  0  0  0  0  0  0  0  0
   -7.2961    4.9302    1.1370 C   0  0  2  0  0  0  0  0  0  0  0  0
   -6.4640    5.2435   -0.0566 N   0  0  0  0  0  0  0  0  0  0  0  0
   -6.7282    4.3789   -1.2221 C   0  0  0  0  0  0  0  0  0  0  0  0
   -5.0274    5.2520    0.2645 C   0  0  0  0  0  0  0  0  0  0  0  0
   -7.4332    3.4443    1.3988 C   0  0  0  0  0  0  0  0  0  0  0  0
   -8.4704    2.8236    1.0342 O   0  0  0  0  0  0  0  0  0  0  0  0
   -6.3831    2.7639    2.0262 O   0  0  0  0  0  0  0  0  0  0  0  0
   -6.4005    1.3629    2.3183 C   0  0  2  0  0  0  0  0  0  0  0  0
   -5.3823    1.0807    3.4496 C   0  0  0  0  0  0  0  0  0  0  0  0
   -3.9805    1.4749    3.0828 C   0  0  0  0  0  0  0  0  0  0  0  0
   -2.9745    0.5901    3.0988 C   0  0  0  0  0  0  0  0  0  0  0  0
   -1.6167    0.8831    2.5960 C   0  0  0  0  0  0  0  0  0  0  0  0
   -1.3564    1.8335    1.6902 C   0  0  0  0  0  0  0  0  0  0  0  0
   -0.0046    2.0786    1.1645 C   0  0  0  0  0  0  0  0  0  0  0  0
    0.4186    3.2635    1.1549 O   0  0  0  0  0  0  0  0  0  0  0  0
    0.8186    1.0765    0.6272 O   0  0  0  0  0  0  0  0  0  0  0  0
    0.4363   -0.2526    0.2509 C   0  0  1  0  0  0  0  0  0  0  0  0
   -0.6771   -0.1993   -0.8335 C   0  0  0  0  0  0  0  0  0  0  0  0
   -0.9825   -1.5389   -1.4534 C   0  0  0  0  0  0  0  0  0  0  0  0
   -1.4763   -2.5649   -0.7392 C   0  0  0  0  0  0  0  0  0  0  0  0
   -1.5960   -3.9554   -1.3300 C   0  0  2  0  0  0  0  0  0  0  0  0
   -0.3775   -4.3098   -1.9661 O   0  0  0  0  0  0  0  0  0  0  0  0
    0.5065   -4.9169   -1.0474 C   0  0  0  0  0  0  0  0  0  0  0  0
   -2.7395   -4.0225   -2.3712 C   0  0  0  0  0  0  0  0  0  0  0  0
   -4.1142   -4.3678   -1.7385 C   0  0  2  0  0  0  0  0  0  0  0  0
   -4.2444   -5.8934   -1.5517 C   0  0  0  0  0  0  0  0  0  0  0  0
   -5.2654   -3.8152   -2.6116 C   0  0  0  0  0  0  0  0  0  0  0  0
   -6.6128   -3.9141   -1.9289 C   0  0  0  0  0  0  0  0  0  0  0  0
   -7.7286   -3.3050   -2.3929 C   0  0  0  0  0  0  0  0  0  0  0  0
   -7.7052   -2.5371   -3.6950 C   0  0  0  0  0  0  0  0  0  0  0  0
   -9.0293   -3.3489   -1.5916 C   0  0  1  0  0  0  0  0  0  0  0  0
   -9.2398   -4.6243   -1.0037 O   0  0  0  0  0  0  0  0  0  0  0  0
   -9.7851   -5.5216   -1.9474 C   0  0  0  0  0  0  0  0  0  0  0  0
   -9.0387   -2.2490   -0.5026 C   0  0  0  0  0  0  0  0  0  0  0  0
   -8.3821   -2.6664    0.8342 C   0  0  0  0  0  0  0  0  0  0  0  0
   -7.8263   -1.4573    1.6390 C   0  0  1  0  0  0  0  0  0  0  0  0
   -7.8809   -1.7976    3.1403 C   0  0  0  0  0  0  0  0  0  0  0  0
   -6.3662   -1.0250    1.2212 C   0  0  1  0  0  0  0  0  0  0  0  0
   -5.9243   -1.7243    0.0813 O   0  0  0  0  0  0  0  0  0  0  0  0
   -6.2190    0.5198    1.0086 C   0  0  2  0  0  0  0  0  0  0  0  0
   -4.9149    0.8605    0.2535 C   0  0  0  0  0  0  0  0  0  0  0  0
    1.7106   -1.0284   -0.2159 C   0  0  1  0  0  0  0  0  0  0  0  0
    2.4631   -0.3062   -1.3511 C   0  0  0  0  0  0  0  0  0  0  0  0
    2.6475   -1.4512    0.9626 C   0  0  1  0  0  0  0  0  0  0  0  0
    3.6196   -2.3485    0.4779 O   0  0  0  0  0  0  0  0  0  0  0  0
    3.3198   -0.2556    1.7392 C   0  0  1  0  0  0  0  0  0  0  0  0
    2.6442   -0.0584    3.1079 C   0  0  0  0  0  0  0  0  0  0  0  0
    4.8495   -0.4180    1.9528 C   0  0  0  0  0  0  0  0  0  0  0  0
    5.6532   -0.0763    0.6863 C   0  0  0  0  0  0  0  0  0  0  0  0
    7.0739   -0.6931    0.6453 C   0  0  1  0  0  0  0  0  0  0  0  0
    7.6259   -0.4814   -0.6562 O   0  0  0  0  0  0  0  0  0  0  0  0
    7.2358   -1.1859   -1.8006 C   0  0  0  0  0  0  0  0  0  0  0  0
    6.4627   -2.1792   -1.7166 O   0  0  0  0  0  0  0  0  0  0  0  0
    7.7439   -0.7391   -3.1455 C   0  0  2  0  0  0  0  0  0  0  0  0
    9.2735   -0.9150   -3.1441 C   0  0  0  0  0  0  0  0  0  0  0  0
    7.3428    0.6724   -3.4046 N   0  0  0  0  0  0  0  0  0  0  0  0
    5.8714    0.8028   -3.4427 C   0  0  0  0  0  0  0  0  0  0  0  0
    7.8912    1.1722   -4.6807 C   0  0  0  0  0  0  0  0  0  0  0  0
    8.0898   -0.1361    1.6925 C   0  0  2  0  0  0  0  0  0  0  0  0
    7.8874   -0.7522    3.0923 C   0  0  0  0  0  0  0  0  0  0  0  0
    8.1569    1.4230    1.7336 C   0  0  2  0  0  0  0  0  0  0  0  0
    8.2777    1.9205    0.3965 O   0  0  0  0  0  0  0  0  0  0  0  0
    7.6373    3.0687   -0.0836 C   0  0  0  0  0  0  0  0  0  0  0  0
    7.8880    3.5142   -1.4831 C   0  0  0  0  0  0  0  0  0  0  0  0
    6.8424    3.7224    0.6445 O   0  0  0  0  0  0  0  0  0  0  0  0
    9.3297    1.9542    2.6129 C   0  0  2  0  0  0  0  0  0  0  0  0
    9.3269    3.4850    2.7318 C   0  0  0  0  0  0  0  0  0  0  0  0
   10.6838    1.4441    2.1669 C   0  0  0  0  0  0  0  0  0  0  0  0
   11.2482    1.7868    0.9994 C   0  0  0  0  0  0  0  0  0  0  0  0
   12.5045    1.2374    0.5616 N   0  0  0  0  0  0  0  0  0  0  0  0
   12.7846    1.2046   -0.8750 C   0  0  0  0  0  0  0  0  0  0  0  0
   13.5569    0.9445    1.4989 C   0  0  0  0  0  0  0  0  0  0  0  0
   14.6523    0.4601    1.1078 O   0  0  0  0  0  0  0  0  0  0  0  0
  -10.2724    7.3124   -0.1299 H   0  0  0  0  0  0  0  0  0  0  0  0
   -9.5519    8.7479    0.6665 H   0  0  0  0  0  0  0  0  0  0  0  0
  -10.3349    7.4996    1.6878 H   0  0  0  0  0  0  0  0  0  0  0  0
   -9.2386    5.4151    1.9616 H   0  0  0  0  0  0  0  0  0  0  0  0
   -9.2268    5.2134    0.1619 H   0  0  0  0  0  0  0  0  0  0  0  0
   -6.8195    5.3648    2.0459 H   0  0  0  0  0  0  0  0  0  0  0  0
   -7.8145    4.3333   -1.4420 H   0  0  0  0  0  0  0  0  0  0  0  0
   -6.3463    3.3475   -1.0581 H   0  0  0  0  0  0  0  0  0  0  0  0
   -6.2308    4.8003   -2.1215 H   0  0  0  0  0  0  0  0  0  0  0  0
   -4.6921    4.2650    0.6442 H   0  0  0  0  0  0  0  0  0  0  0  0
   -4.4310    5.5138   -0.6361 H   0  0  0  0  0  0  0  0  0  0  0  0
   -4.8135    6.0259    1.0322 H   0  0  0  0  0  0  0  0  0  0  0  0
   -7.4005    1.1277    2.7408 H   0  0  0  0  0  0  0  0  0  0  0  0
   -5.6753    1.6832    4.3360 H   0  0  0  0  0  0  0  0  0  0  0  0
   -5.4308    0.0221    3.7738 H   0  0  0  0  0  0  0  0  0  0  0  0
   -3.8126    2.5003    2.7824 H   0  0  0  0  0  0  0  0  0  0  0  0
   -3.1511   -0.4094    3.4768 H   0  0  0  0  0  0  0  0  0  0  0  0
   -0.8186    0.2468    2.9498 H   0  0  0  0  0  0  0  0  0  0  0  0
   -2.1373    2.4954    1.3426 H   0  0  0  0  0  0  0  0  0  0  0  0
    0.0254   -0.7860    1.1312 H   0  0  0  0  0  0  0  0  0  0  0  0
   -1.6165    0.1968   -0.3970 H   0  0  0  0  0  0  0  0  0  0  0  0
   -0.3746    0.5050   -1.6370 H   0  0  0  0  0  0  0  0  0  0  0  0
   -0.7355   -1.6821   -2.5018 H   0  0  0  0  0  0  0  0  0  0  0  0
   -1.7065   -2.4264    0.3136 H   0  0  0  0  0  0  0  0  0  0  0  0
   -1.8422   -4.6590   -0.4994 H   0  0  0  0  0  0  0  0  0  0  0  0
    1.4973   -5.0332   -1.5322 H   0  0  0  0  0  0  0  0  0  0  0  0
    0.6478   -4.2947   -0.1355 H   0  0  0  0  0  0  0  0  0  0  0  0
    0.1418   -5.9295   -0.7682 H   0  0  0  0  0  0  0  0  0  0  0  0
   -2.7907   -3.0582   -2.9228 H   0  0  0  0  0  0  0  0  0  0  0  0
   -2.4948   -4.7883   -3.1410 H   0  0  0  0  0  0  0  0  0  0  0  0
   -4.1794   -3.8793   -0.7399 H   0  0  0  0  0  0  0  0  0  0  0  0
   -3.3840   -6.2972   -0.9795 H   0  0  0  0  0  0  0  0  0  0  0  0
   -5.1619   -6.1519   -0.9859 H   0  0  0  0  0  0  0  0  0  0  0  0
   -4.2802   -6.4055   -2.5371 H   0  0  0  0  0  0  0  0  0  0  0  0
   -5.0626   -2.7409   -2.8111 H   0  0  0  0  0  0  0  0  0  0  0  0
   -5.3000   -4.3506   -3.5852 H   0  0  0  0  0  0  0  0  0  0  0  0
   -6.6705   -4.4666   -1.0004 H   0  0  0  0  0  0  0  0  0  0  0  0
   -7.0044   -1.6798   -3.6186 H   0  0  0  0  0  0  0  0  0  0  0  0
   -8.7057   -2.1289   -3.9475 H   0  0  0  0  0  0  0  0  0  0  0  0
   -7.3880   -3.2047   -4.5234 H   0  0  0  0  0  0  0  0  0  0  0  0
   -9.8761   -3.0881   -2.2714 H   0  0  0  0  0  0  0  0  0  0  0  0
   -9.8490   -6.5267   -1.4829 H   0  0  0  0  0  0  0  0  0  0  0  0
  -10.8155   -5.2164   -2.2337 H   0  0  0  0  0  0  0  0  0  0  0  0
   -9.1410   -5.6090   -2.8503 H   0  0  0  0  0  0  0  0  0  0  0  0
   -8.5820   -1.3212   -0.9080 H   0  0  0  0  0  0  0  0  0  0  0  0
  -10.0966   -1.9813   -0.2849 H   0  0  0  0  0  0  0  0  0  0  0  0
   -7.5811   -3.4161    0.6991 H   0  0  0  0  0  0  0  0  0  0  0  0
   -9.1687   -3.1906    1.4220 H   0  0  0  0  0  0  0  0  0  0  0  0
   -8.5270   -0.6063    1.4870 H   0  0  0  0  0  0  0  0  0  0  0  0
   -8.9222   -2.0355    3.4461 H   0  0  0  0  0  0  0  0  0  0  0  0
   -7.2343   -2.6733    3.3640 H   0  0  0  0  0  0  0  0  0  0  0  0
   -7.5499   -0.9425    3.7594 H   0  0  0  0  0  0  0  0  0  0  0  0
   -5.6587   -1.3233    2.0214 H   0  0  0  0  0  0  0  0  0  0  0  0
   -6.3544   -1.3194   -0.7141 H   0  0  0  0  0  0  0  0  0  0  0  0
   -7.0395    0.8210    0.3217 H   0  0  0  0  0  0  0  0  0  0  0  0
   -5.0243    0.6276   -0.8268 H   0  0  0  0  0  0  0  0  0  0  0  0
   -4.0624    0.2648    0.6369 H   0  0  0  0  0  0  0  0  0  0  0  0
   -4.6695    1.9375    0.3258 H   0  0  0  0  0  0  0  0  0  0  0  0
    1.3721   -1.9900   -0.6529 H   0  0  0  0  0  0  0  0  0  0  0  0
    3.3264   -0.9155   -1.6902 H   0  0  0  0  0  0  0  0  0  0  0  0
    2.8270    0.6933   -1.0390 H   0  0  0  0  0  0  0  0  0  0  0  0
    1.8001   -0.1747   -2.2306 H   0  0  0  0  0  0  0  0  0  0  0  0
    2.0121   -2.0191    1.6849 H   0  0  0  0  0  0  0  0  0  0  0  0
    3.1700   -3.2200    0.3199 H   0  0  0  0  0  0  0  0  0  0  0  0
    3.1778    0.6946    1.1871 H   0  0  0  0  0  0  0  0  0  0  0  0
    1.5494    0.0579    2.9915 H   0  0  0  0  0  0  0  0  0  0  0  0
    3.0294    0.8590    3.6026 H   0  0  0  0  0  0  0  0  0  0  0  0
    2.8400   -0.9310    3.7676 H   0  0  0  0  0  0  0  0  0  0  0  0
    5.1750    0.2886    2.7441 H   0  0  0  0  0  0  0  0  0  0  0  0
    5.0757   -1.4467    2.3083 H   0  0  0  0  0  0  0  0  0  0  0  0
    5.6935    1.0242    0.5552 H   0  0  0  0  0  0  0  0  0  0  0  0
    5.1054   -0.4557   -0.1956 H   0  0  0  0  0  0  0  0  0  0  0  0
    6.9851   -1.7921    0.7996 H   0  0  0  0  0  0  0  0  0  0  0  0
    7.3229   -1.4071   -3.9329 H   0  0  0  0  0  0  0  0  0  0  0  0
    9.6790   -0.8421   -4.1746 H   0  0  0  0  0  0  0  0  0  0  0  0
    9.5500   -1.9212   -2.7605 H   0  0  0  0  0  0  0  0  0  0  0  0
    9.7537   -0.1436   -2.5039 H   0  0  0  0  0  0  0  0  0  0  0  0
    5.4319    0.5741   -2.4505 H   0  0  0  0  0  0  0  0  0  0  0  0
    5.5757    1.8497   -3.6708 H   0  0  0  0  0  0  0  0  0  0  0  0
    5.4260    0.1271   -4.2064 H   0  0  0  0  0  0  0  0  0  0  0  0
    7.4744    2.1731   -4.9273 H   0  0  0  0  0  0  0  0  0  0  0  0
    8.9875    1.3204   -4.5970 H   0  0  0  0  0  0  0  0  0  0  0  0
    7.6682    0.4736   -5.5177 H   0  0  0  0  0  0  0  0  0  0  0  0
    9.0824   -0.5049    1.3496 H   0  0  0  0  0  0  0  0  0  0  0  0
    7.5766   -1.8159    3.0252 H   0  0  0  0  0  0  0  0  0  0  0  0
    8.8439   -0.7331    3.6560 H   0  0  0  0  0  0  0  0  0  0  0  0
    7.1379   -0.1920    3.6846 H   0  0  0  0  0  0  0  0  0  0  0  0
    7.2060    1.7825    2.1858 H   0  0  0  0  0  0  0  0  0  0  0  0
    8.2444    4.5653   -1.4828 H   0  0  0  0  0  0  0  0  0  0  0  0
    8.6609    2.8722   -1.9559 H   0  0  0  0  0  0  0  0  0  0  0  0
    6.9490    3.4442   -2.0701 H   0  0  0  0  0  0  0  0  0  0  0  0
    9.1666    1.5817    3.6469 H   0  0  0  0  0  0  0  0  0  0  0  0
    8.3457    3.8363    3.1159 H   0  0  0  0  0  0  0  0  0  0  0  0
    9.5230    3.9712    1.7541 H   0  0  0  0  0  0  0  0  0  0  0  0
   10.1128    3.8100    3.4469 H   0  0  0  0  0  0  0  0  0  0  0  0
   11.1841    0.7409    2.8200 H   0  0  0  0  0  0  0  0  0  0  0  0
   10.7183    2.4495    0.3276 H   0  0  0  0  0  0  0  0  0  0  0  0
   11.8400    1.1702   -1.4600 H   0  0  0  0  0  0  0  0  0  0  0  0
   13.3566    2.1110   -1.1644 H   0  0  0  0  0  0  0  0  0  0  0  0
   13.3724    0.2986   -1.1343 H   0  0  0  0  0  0  0  0  0  0  0  0
   13.4295    1.1489    2.5535 H   0  0  0  0  0  0  0  0  0  0  0  0
  1  2  1  0
  2  3  1  0
  3  4  1  0
  4  5  1  0
  5  6  1  0
  5  7  1  0
  4  8  1  0
  8  9  2  0
  8 10  1  0
 10 11  1  0
 11 12  1  0
 12 13  1  0
 13 14  2  0
 14 15  1  0
 15 16  2  0
 16 17  1  0
 17 18  2  0
 17 19  1  0
 19 20  1  0
 20 21  1  0
 21 22  1  0
 22 23  2  0
 23 24  1  0
 24 25  1  0
 25 26  1  0
 24 27  1  0
 27 28  1  0
 28 29  1  0
 28 30  1  0
 30 31  1  0
 31 32  2  0
 32 33  1  0
 32 34  1  0
 34 35  1  0
 35 36  1  0
 34 37  1  0
 37 38  1  0
 38 39  1  0
 39 40  1  0
 39 41  1  0
 41 42  1  0
 41 43  1  0
 43 44  1  0
 20 45  1  0
 45 46  1  0
 45 47  1  0
 47 48  1  0
 47 49  1  0
 49 50  1  0
 49 51  1  0
 51 52  1  0
 52 53  1  0
 53 54  1  0
 54 55  1  0
 55 56  2  0
 55 57  1  0
 57 58  1  0
 57 59  1  0
 59 60  1  0
 59 61  1  0
 53 62  1  0
 62 63  1  0
 62 64  1  0
 64 65  1  0
 65 66  1  0
 66 67  1  0
 66 68  2  0
 64 69  1  0
 69 70  1  0
 69 71  1  0
 71 72  2  0
 72 73  1  0
 73 74  1  0
 73 75  1  0
 75 76  2  0
 43 11  1  0
  1 77  1  0
  1 78  1  0
  1 79  1  0
  3 80  1  0
  3 81  1  0
  4 82  1  1
  6 83  1  0
  6 84  1  0
  6 85  1  0
  7 86  1  0
  7 87  1  0
  7 88  1  0
 11 89  1  1
 12 90  1  0
 12 91  1  0
 13 92  1  0
 14 93  1  0
 15 94  1  0
 16 95  1  0
 20 96  1  1
 21 97  1  0
 21 98  1  0
 22 99  1  0
 23100  1  0
 24101  1  1
 26102  1  0
 26103  1  0
 26104  1  0
 27105  1  0
 27106  1  0
 28107  1  1
 29108  1  0
 29109  1  0
 29110  1  0
 30111  1  0
 30112  1  0
 31113  1  0
 33114  1  0
 33115  1  0
 33116  1  0
 34117  1  6
 36118  1  0
 36119  1  0
 36120  1  0
 37121  1  0
 37122  1  0
 38123  1  0
 38124  1  0
 39125  1  1
 40126  1  0
 40127  1  0
 40128  1  0
 41129  1  1
 42130  1  0
 43131  1  6
 44132  1  0
 44133  1  0
 44134  1  0
 45135  1  6
 46136  1  0
 46137  1  0
 46138  1  0
 47139  1  1
 48140  1  0
 49141  1  6
 50142  1  0
 50143  1  0
 50144  1  0
 51145  1  0
 51146  1  0
 52147  1  0
 52148  1  0
 53149  1  1
 57150  1  6
 58151  1  0
 58152  1  0
 58153  1  0
 60154  1  0
 60155  1  0
 60156  1  0
 61157  1  0
 61158  1  0
 61159  1  0
 62160  1  6
 63161  1  0
 63162  1  0
 63163  1  0
 64164  1  1
 67165  1  0
 67166  1  0
 67167  1  0
 69168  1  1
 70169  1  0
 70170  1  0
 70171  1  0
 71172  1  0
 72173  1  0
 74174  1  0
 74175  1  0
 74176  1  0
 75177  1  0
M  END
$$$$
