
     RDKit          3D

 74 76  0  0  0  0  0  0  0  0999 V2000
    2.7917    3.4016   -0.1812 C   0  0  0  0  0  0  0  0  0  0  0  0
    2.8038    1.8604   -0.2234 C   0  0  2  0  0  0  0  0  0  0  0  0
    4.1668    1.3827   -0.8096 C   0  0  0  0  0  0  0  0  0  0  0  0
    5.2914    1.3203    0.2421 C   0  0  0  0  0  0  0  0  0  0  0  0
    5.2310    0.0231    1.0746 C   0  0  0  0  0  0  0  0  0  0  0  0
    6.2202    0.0042    2.2741 C   0  0  0  0  0  0  0  0  0  0  0  0
    6.0138   -1.2905    3.0851 C   0  0  0  0  0  0  0  0  0  0  0  0
    7.6782    0.0506    1.7843 C   0  0  0  0  0  0  0  0  0  0  0  0
    6.0016    1.1156    3.1110 O   0  0  0  0  0  0  0  0  0  0  0  0
    1.6003    1.2970   -1.0540 C   0  0  1  0  0  0  0  0  0  0  0  0
    1.5830   -0.2551   -1.1060 C   0  0  0  0  0  0  0  0  0  0  0  0
    0.1154   -0.6978   -1.1349 C   0  0  0  0  0  0  0  0  0  0  0  0
   -0.6631    0.5972   -1.3303 C   0  0  1  0  0  0  0  0  0  0  0  0
   -2.1251    0.6671   -0.9396 C   0  0  0  0  0  0  0  0  0  0  0  0
   -2.7299    2.0610   -0.8913 C   0  0  0  0  0  0  0  0  0  0  0  0
   -1.8066    3.1225   -1.5293 C   0  0  0  0  0  0  0  0  0  0  0  0
   -0.3384    3.0857   -1.0257 C   0  0  0  0  0  0  0  0  0  0  0  0
    0.1575    1.6681   -0.5871 C   0  0  2  0  0  0  0  0  0  0  0  0
    0.0152    1.5186    0.9632 C   0  0  0  0  0  0  0  0  0  0  0  0
   -2.8639   -0.4411   -0.7365 C   0  0  0  0  0  0  0  0  0  0  0  0
   -4.2848   -0.4050   -0.3184 C   0  0  0  0  0  0  0  0  0  0  0  0
   -5.1073   -1.4731   -0.3634 C   0  0  0  0  0  0  0  0  0  0  0  0
   -6.4676   -1.4025    0.2856 C   0  0  0  0  0  0  0  0  0  0  0  0
   -6.7125   -2.6403    1.1675 C   0  0  1  0  0  0  0  0  0  0  0  0
   -8.0211   -2.6088    1.6740 O   0  0  0  0  0  0  0  0  0  0  0  0
   -6.5234   -3.9372    0.3585 C   0  0  0  0  0  0  0  0  0  0  0  0
   -5.1290   -4.0426   -0.2957 C   0  0  2  0  0  0  0  0  0  0  0  0
   -4.1479   -4.3810    0.6536 O   0  0  0  0  0  0  0  0  0  0  0  0
   -4.7598   -2.7624   -1.0169 C   0  0  0  0  0  0  0  0  0  0  0  0
   -4.2151   -2.8063   -2.2391 C   0  0  0  0  0  0  0  0  0  0  0  0
    3.7214    3.7955    0.2779 H   0  0  0  0  0  0  0  0  0  0  0  0
    2.7091    3.8212   -1.2063 H   0  0  0  0  0  0  0  0  0  0  0  0
    1.9576    3.7812    0.4364 H   0  0  0  0  0  0  0  0  0  0  0  0
    2.7144    1.4918    0.8193 H   0  0  0  0  0  0  0  0  0  0  0  0
    4.0903    0.3838   -1.2844 H   0  0  0  0  0  0  0  0  0  0  0  0
    4.4778    2.0700   -1.6277 H   0  0  0  0  0  0  0  0  0  0  0  0
    5.2502    2.2083    0.9059 H   0  0  0  0  0  0  0  0  0  0  0  0
    6.2609    1.3521   -0.2990 H   0  0  0  0  0  0  0  0  0  0  0  0
    5.4404   -0.8422    0.4071 H   0  0  0  0  0  0  0  0  0  0  0  0
    4.1999   -0.1145    1.4646 H   0  0  0  0  0  0  0  0  0  0  0  0
    4.9670   -1.3603    3.4514 H   0  0  0  0  0  0  0  0  0  0  0  0
    6.2266   -2.1841    2.4592 H   0  0  0  0  0  0  0  0  0  0  0  0
    6.6883   -1.3063    3.9682 H   0  0  0  0  0  0  0  0  0  0  0  0
    7.9047    1.0277    1.3091 H   0  0  0  0  0  0  0  0  0  0  0  0
    7.8748   -0.7612    1.0511 H   0  0  0  0  0  0  0  0  0  0  0  0
    8.3777   -0.0694    2.6396 H   0  0  0  0  0  0  0  0  0  0  0  0
    5.0558    1.0887    3.4139 H   0  0  0  0  0  0  0  0  0  0  0  0
    1.7270    1.6537   -2.1029 H   0  0  0  0  0  0  0  0  0  0  0  0
    2.1026   -0.6167   -2.0204 H   0  0  0  0  0  0  0  0  0  0  0  0
    2.0825   -0.6960   -0.2149 H   0  0  0  0  0  0  0  0  0  0  0  0
   -0.0755   -1.4087   -1.9686 H   0  0  0  0  0  0  0  0  0  0  0  0
   -0.1518   -1.1849   -0.1717 H   0  0  0  0  0  0  0  0  0  0  0  0
   -0.6273    0.8115   -2.4254 H   0  0  0  0  0  0  0  0  0  0  0  0
   -3.6884    2.0717   -1.4545 H   0  0  0  0  0  0  0  0  0  0  0  0
   -2.9465    2.3397    0.1616 H   0  0  0  0  0  0  0  0  0  0  0  0
   -2.2334    4.1331   -1.3508 H   0  0  0  0  0  0  0  0  0  0  0  0
   -1.8074    2.9650   -2.6307 H   0  0  0  0  0  0  0  0  0  0  0  0
   -0.2514    3.8053   -0.1837 H   0  0  0  0  0  0  0  0  0  0  0  0
    0.3043    3.4843   -1.8395 H   0  0  0  0  0  0  0  0  0  0  0  0
    0.4024    0.5433    1.3231 H   0  0  0  0  0  0  0  0  0  0  0  0
    0.5739    2.3121    1.4974 H   0  0  0  0  0  0  0  0  0  0  0  0
   -1.0384    1.6031    1.2929 H   0  0  0  0  0  0  0  0  0  0  0  0
   -2.3992   -1.4099   -0.8513 H   0  0  0  0  0  0  0  0  0  0  0  0
   -4.6567    0.5097    0.1265 H   0  0  0  0  0  0  0  0  0  0  0  0
   -7.2403   -1.3511   -0.5121 H   0  0  0  0  0  0  0  0  0  0  0  0
   -6.5711   -0.4911    0.9152 H   0  0  0  0  0  0  0  0  0  0  0  0
   -5.9895   -2.6366    2.0161 H   0  0  0  0  0  0  0  0  0  0  0  0
   -8.0345   -1.9245    2.3935 H   0  0  0  0  0  0  0  0  0  0  0  0
   -7.2975   -3.9801   -0.4400 H   0  0  0  0  0  0  0  0  0  0  0  0
   -6.6838   -4.8138    1.0234 H   0  0  0  0  0  0  0  0  0  0  0  0
   -5.1821   -4.8813   -1.0250 H   0  0  0  0  0  0  0  0  0  0  0  0
   -4.0139   -3.6009    1.2523 H   0  0  0  0  0  0  0  0  0  0  0  0
   -4.0103   -1.8994   -2.7938 H   0  0  0  0  0  0  0  0  0  0  0  0
   -3.9848   -3.7517   -2.7135 H   0  0  0  0  0  0  0  0  0  0  0  0
  1  2  1  0
  2  3  1  0
  3  4  1  0
  4  5  1  0
  5  6  1  0
  6  7  1  0
  6  8  1  0
  6  9  1  0
  2 10  1  0
 10 11  1  0
 11 12  1  0
 12 13  1  0
 13 14  1  0
 14 15  1  0
 15 16  1  0
 16 17  1  0
 17 18  1  0
 18 19  1  1
 14 20  2  0
 20 21  1  0
 21 22  2  0
 22 23  1  0
 23 24  1  0
 24 25  1  0
 24 26  1  0
 26 27  1  0
 27 28  1  0
 27 29  1  0
 29 30  2  3
 18 10  1  0
 29 22  1  0
 18 13  1  0
  1 31  1  0
  1 32  1  0
  1 33  1  0
  2 34  1  1
  3 35  1  0
  3 36  1  0
  4 37  1  0
  4 38  1  0
  5 39  1  0
  5 40  1  0
  7 41  1  0
  7 42  1  0
  7 43  1  0
  8 44  1  0
  8 45  1  0
  8 46  1  0
  9 47  1  0
 10 48  1  6
 11 49  1  0
 11 50  1  0
 12 51  1  0
 12 52  1  0
 13 53  1  6
 15 54  1  0
 15 55  1  0
 16 56  1  0
 16 57  1  0
 17 58  1  0
 17 59  1  0
 19 60  1  0
 19 61  1  0
 19 62  1  0
 20 63  1  0
 21 64  1  0
 23 65  1  0
 23 66  1  0
 24 67  1  1
 25 68  1  0
 26 69  1  0
 26 70  1  0
 27 71  1  6
 28 72  1  0
 30 73  1  0
 30 74  1  0
M  END
$$$$
