
     RDKit          3D

 38 40  0  0  0  0  0  0  0  0999 V2000
    1.5880    0.8063   -1.0883 C   0  0  1  0  0  0  0  0  0  0  0  0
    2.2171    0.9387   -2.3385 O   0  0  0  0  0  0  0  0  0  0  0  0
    0.2128    0.1172   -1.2574 C   0  0  0  0  0  0  0  0  0  0  0  0
   -0.5270    0.0535    0.0121 N   0  0  0  0  0  0  0  0  0  0  0  0
   -1.9602    0.1639    0.0253 C   0  0  0  0  0  0  0  0  0  0  0  0
   -2.7374   -0.5171   -0.9256 C   0  0  0  0  0  0  0  0  0  0  0  0
   -4.1313   -0.4115   -0.9079 C   0  0  0  0  0  0  0  0  0  0  0  0
   -4.7703    0.3825    0.0632 C   0  0  0  0  0  0  0  0  0  0  0  0
   -6.1649    0.5212    0.1234 O   0  0  0  0  0  0  0  0  0  0  0  0
   -7.0747   -0.1118   -0.7704 C   0  0  0  0  0  0  0  0  0  0  0  0
   -3.9927    1.0633    1.0067 C   0  0  0  0  0  0  0  0  0  0  0  0
   -2.5991    0.9569    0.9896 C   0  0  0  0  0  0  0  0  0  0  0  0
    0.2809   -0.6186    1.3953 S   0  0  0  0  0  6  0  0  0  0  0  0
   -0.1475   -2.0446    1.5970 O   0  0  0  0  0  0  0  0  0  0  0  0
    0.0001    0.1972    2.6251 O   0  0  0  0  0  0  0  0  0  0  0  0
    1.9804   -0.5463    1.0264 C   0  0  0  0  0  0  0  0  0  0  0  0
    2.4795    0.0733   -0.1070 C   0  0  0  0  0  0  0  0  0  0  0  0
    3.8816    0.0482   -0.1583 C   0  0  0  0  0  0  0  0  0  0  0  0
    4.4473   -0.6211    0.9209 C   0  0  0  0  0  0  0  0  0  0  0  0
    3.2346   -1.1629    1.9575 S   0  0  0  0  0  0  0  0  0  0  0  0
    6.1648   -0.8556    1.1795 S   0  0  0  0  0  6  0  0  0  0  0  0
    7.0273    0.5413    0.6371 N   0  0  0  0  0  0  0  0  0  0  0  0
    6.6264   -2.0634    0.4144 O   0  0  0  0  0  0  0  0  0  0  0  0
    6.4296   -1.0597    2.6449 O   0  0  0  0  0  0  0  0  0  0  0  0
    1.4142    1.8275   -0.6861 H   0  0  0  0  0  0  0  0  0  0  0  0
    2.3683    0.0236   -2.6947 H   0  0  0  0  0  0  0  0  0  0  0  0
   -0.3739    0.6930   -2.0069 H   0  0  0  0  0  0  0  0  0  0  0  0
    0.3522   -0.9141   -1.6489 H   0  0  0  0  0  0  0  0  0  0  0  0
   -2.2646   -1.1410   -1.6733 H   0  0  0  0  0  0  0  0  0  0  0  0
   -4.7015   -0.9518   -1.6510 H   0  0  0  0  0  0  0  0  0  0  0  0
   -8.1109    0.1712   -0.4936 H   0  0  0  0  0  0  0  0  0  0  0  0
   -6.8812    0.2217   -1.8118 H   0  0  0  0  0  0  0  0  0  0  0  0
   -6.9760   -1.2155   -0.6975 H   0  0  0  0  0  0  0  0  0  0  0  0
   -4.4715    1.6820    1.7552 H   0  0  0  0  0  0  0  0  0  0  0  0
   -2.0195    1.5098    1.7163 H   0  0  0  0  0  0  0  0  0  0  0  0
    4.4651    0.5067   -0.9460 H   0  0  0  0  0  0  0  0  0  0  0  0
    8.0338    0.3895    0.8716 H   0  0  0  0  0  0  0  0  0  0  0  0
    6.7003    1.3464    1.2169 H   0  0  0  0  0  0  0  0  0  0  0  0
  1  2  1  0
  1  3  1  0
  3  4  1  0
  4  5  1  0
  5  6  2  0
  6  7  1  0
  7  8  2  0
  8  9  1  0
  9 10  1  0
  8 11  1  0
 11 12  2  0
  4 13  1  0
 13 14  2  0
 13 15  2  0
 13 16  1  0
 16 17  2  0
 17 18  1  0
 18 19  2  0
 19 20  1  0
 19 21  1  0
 21 22  1  0
 21 23  2  0
 21 24  2  0
 17  1  1  0
 12  5  1  0
 20 16  1  0
  1 25  1  1
  2 26  1  0
  3 27  1  0
  3 28  1  0
  6 29  1  0
  7 30  1  0
 10 31  1  0
 10 32  1  0
 10 33  1  0
 11 34  1  0
 12 35  1  0
 18 36  1  0
 22 37  1  0
 22 38  1  0
M  END
$$$$
