
     RDKit          3D

 56 58  0  0  0  0  0  0  0  0999 V2000
    5.7005    0.0344   -1.8039 C   0  0  0  0  0  0  0  0  0  0  0  0
    5.8753    1.3711   -1.0800 C   0  0  0  0  0  0  0  0  0  0  0  0
    5.5401    1.3177    0.3602 N   0  0  0  0  0  0  0  0  0  0  0  0
    6.5049    0.5507    1.1781 C   0  0  0  0  0  0  0  0  0  0  0  0
    6.5116    1.0460    2.6225 C   0  0  0  0  0  0  0  0  0  0  0  0
    4.0979    1.1257    0.6599 C   0  0  0  0  0  0  0  0  0  0  0  0
    3.6759   -0.3342    0.9237 C   0  0  0  0  0  0  0  0  0  0  0  0
    2.2199   -0.4351    0.9964 N   0  0  0  0  0  0  0  0  0  0  0  0
    1.3895   -0.4630   -0.1740 C   0  0  0  0  0  0  0  0  0  0  0  0
    1.9005   -0.2848   -1.3126 O   0  0  0  0  0  0  0  0  0  0  0  0
   -0.0679   -0.6774   -0.0621 C   0  0  0  0  0  0  0  0  0  0  0  0
   -0.7330   -1.5442    0.7989 C   0  0  0  0  0  0  0  0  0  0  0  0
   -0.1126   -2.4599    1.8084 C   0  0  0  0  0  0  0  0  0  0  0  0
   -2.0594   -1.5017    0.5667 N   0  0  0  0  0  0  0  0  0  0  0  0
   -2.2603   -0.6227   -0.4348 C   0  0  0  0  0  0  0  0  0  0  0  0
   -3.5655   -0.3855   -1.0770 C   0  0  0  0  0  0  0  0  0  0  0  0
   -4.7109   -0.2099   -0.4025 C   0  0  0  0  0  0  0  0  0  0  0  0
   -4.9369   -0.0555    1.0451 C   0  0  0  0  0  0  0  0  0  0  0  0
   -4.0463   -0.0169    1.9340 O   0  0  0  0  0  0  0  0  0  0  0  0
   -6.3188    0.1529    1.3226 N   0  0  0  0  0  0  0  0  0  0  0  0
   -6.9478    0.1628    0.0470 C   0  0  0  0  0  0  0  0  0  0  0  0
   -6.0463   -0.0382   -0.9822 C   0  0  0  0  0  0  0  0  0  0  0  0
   -6.4645   -0.0592   -2.3155 C   0  0  0  0  0  0  0  0  0  0  0  0
   -7.8297    0.1341   -2.5890 C   0  0  0  0  0  0  0  0  0  0  0  0
   -8.2683    0.1200   -3.8716 F   0  0  0  0  0  0  0  0  0  0  0  0
   -8.7454    0.3426   -1.5371 C   0  0  0  0  0  0  0  0  0  0  0  0
   -8.3051    0.3588   -0.2031 C   0  0  0  0  0  0  0  0  0  0  0  0
   -1.0484   -0.1015   -0.8602 C   0  0  0  0  0  0  0  0  0  0  0  0
   -0.8359    0.8526   -1.9976 C   0  0  0  0  0  0  0  0  0  0  0  0
    4.6245   -0.2067   -1.9177 H   0  0  0  0  0  0  0  0  0  0  0  0
    6.2202   -0.7845   -1.2656 H   0  0  0  0  0  0  0  0  0  0  0  0
    6.1360    0.1113   -2.8223 H   0  0  0  0  0  0  0  0  0  0  0  0
    6.9267    1.7108   -1.2038 H   0  0  0  0  0  0  0  0  0  0  0  0
    5.2479    2.1392   -1.5824 H   0  0  0  0  0  0  0  0  0  0  0  0
    7.5355    0.6910    0.7837 H   0  0  0  0  0  0  0  0  0  0  0  0
    6.2974   -0.5390    1.1453 H   0  0  0  0  0  0  0  0  0  0  0  0
    5.5397    0.8420    3.1166 H   0  0  0  0  0  0  0  0  0  0  0  0
    6.7120    2.1381    2.6488 H   0  0  0  0  0  0  0  0  0  0  0  0
    7.3090    0.5228    3.1913 H   0  0  0  0  0  0  0  0  0  0  0  0
    3.8431    1.7281    1.5578 H   0  0  0  0  0  0  0  0  0  0  0  0
    3.4799    1.5459   -0.1634 H   0  0  0  0  0  0  0  0  0  0  0  0
    4.0946   -0.6695    1.8958 H   0  0  0  0  0  0  0  0  0  0  0  0
    4.0558   -1.0239    0.1445 H   0  0  0  0  0  0  0  0  0  0  0  0
    1.7778   -0.4667    1.9415 H   0  0  0  0  0  0  0  0  0  0  0  0
    0.0358   -1.9158    2.7637 H   0  0  0  0  0  0  0  0  0  0  0  0
    0.8612   -2.8429    1.4381 H   0  0  0  0  0  0  0  0  0  0  0  0
   -0.7790   -3.3283    1.9935 H   0  0  0  0  0  0  0  0  0  0  0  0
   -2.7838   -2.0972    1.0272 H   0  0  0  0  0  0  0  0  0  0  0  0
   -3.5837   -0.3421   -2.1581 H   0  0  0  0  0  0  0  0  0  0  0  0
   -6.7612    0.3276    2.2521 H   0  0  0  0  0  0  0  0  0  0  0  0
   -5.7617   -0.2205   -3.1218 H   0  0  0  0  0  0  0  0  0  0  0  0
   -9.7946    0.4915   -1.7573 H   0  0  0  0  0  0  0  0  0  0  0  0
   -9.0023    0.5192    0.6089 H   0  0  0  0  0  0  0  0  0  0  0  0
   -0.0217    1.5656   -1.7512 H   0  0  0  0  0  0  0  0  0  0  0  0
   -1.7573    1.4398   -2.1930 H   0  0  0  0  0  0  0  0  0  0  0  0
   -0.5648    0.2847   -2.9116 H   0  0  0  0  0  0  0  0  0  0  0  0
  1  2  1  0
  2  3  1  0
  3  4  1  0
  4  5  1  0
  3  6  1  0
  6  7  1  0
  7  8  1  0
  8  9  1  0
  9 10  2  0
  9 11  1  0
 11 12  2  0
 12 13  1  0
 12 14  1  0
 14 15  1  0
 15 16  1  0
 16 17  2  0
 17 18  1  0
 18 19  2  0
 18 20  1  0
 20 21  1  0
 21 22  2  0
 22 23  1  0
 23 24  2  0
 24 25  1  0
 24 26  1  0
 26 27  2  0
 15 28  2  0
 28 29  1  0
 28 11  1  0
 22 17  1  0
 27 21  1  0
  1 30  1  0
  1 31  1  0
  1 32  1  0
  2 33  1  0
  2 34  1  0
  4 35  1  0
  4 36  1  0
  5 37  1  0
  5 38  1  0
  5 39  1  0
  6 40  1  0
  6 41  1  0
  7 42  1  0
  7 43  1  0
  8 44  1  0
 13 45  1  0
 13 46  1  0
 13 47  1  0
 14 48  1  0
 16 49  1  0
 20 50  1  0
 23 51  1  0
 26 52  1  0
 27 53  1  0
 29 54  1  0
 29 55  1  0
 29 56  1  0
M  END
$$$$
