
     RDKit          3D

 34 35  0  0  0  0  0  0  0  0999 V2000
    0.0720    1.5089   -0.9263 C   0  0  0  0  0  0  0  0  0  0  0  0
   -0.7680    0.5183   -0.2483 N   0  0  0  0  0  0  0  0  0  0  0  0
   -1.9926    0.7393    0.2867 C   0  0  0  0  0  0  0  0  0  0  0  0
   -2.7266    2.0494    0.2618 C   0  0  0  0  0  0  0  0  0  0  0  0
   -3.5561    2.1520   -0.9777 C   0  0  0  0  0  0  0  0  0  0  0  0
   -4.7373    1.4239   -1.0817 O   0  0  0  0  0  0  0  0  0  0  0  0
   -3.1773    2.8773   -1.9358 O   0  0  0  0  0  0  0  0  0  0  0  0
   -2.5130   -0.4353    0.7989 C   0  0  0  0  0  0  0  0  0  0  0  0
   -1.5509   -1.4043    0.5965 C   0  0  0  0  0  0  0  0  0  0  0  0
   -1.6686   -2.8475    0.9723 C   0  0  0  0  0  0  0  0  0  0  0  0
   -0.4830   -0.7900   -0.0387 C   0  0  0  0  0  0  0  0  0  0  0  0
    0.7675   -1.4680   -0.4434 C   0  0  0  0  0  0  0  0  0  0  0  0
    0.6871   -2.5576   -1.0726 O   0  0  0  0  0  0  0  0  0  0  0  0
    2.1023   -0.9173   -0.1059 C   0  0  0  0  0  0  0  0  0  0  0  0
    2.2711   -0.0501    0.9901 C   0  0  0  0  0  0  0  0  0  0  0  0
    3.5351    0.4588    1.3023 C   0  0  0  0  0  0  0  0  0  0  0  0
    4.6453    0.1019    0.5317 C   0  0  0  0  0  0  0  0  0  0  0  0
    6.2303    0.7417    0.9258 Cl  0  0  0  0  0  0  0  0  0  0  0  0
    4.4912   -0.7690   -0.5507 C   0  0  0  0  0  0  0  0  0  0  0  0
    3.2286   -1.2798   -0.8666 C   0  0  0  0  0  0  0  0  0  0  0  0
    0.6235    2.1093   -0.1734 H   0  0  0  0  0  0  0  0  0  0  0  0
   -0.5518    2.1853   -1.5455 H   0  0  0  0  0  0  0  0  0  0  0  0
    0.7947    1.0151   -1.6080 H   0  0  0  0  0  0  0  0  0  0  0  0
   -2.0086    2.8950    0.3199 H   0  0  0  0  0  0  0  0  0  0  0  0
   -3.3917    2.1201    1.1489 H   0  0  0  0  0  0  0  0  0  0  0  0
   -5.3060    1.4735   -1.9184 H   0  0  0  0  0  0  0  0  0  0  0  0
   -3.4827   -0.5689    1.2609 H   0  0  0  0  0  0  0  0  0  0  0  0
   -0.7353   -3.1853    1.4696 H   0  0  0  0  0  0  0  0  0  0  0  0
   -1.8401   -3.4556    0.0599 H   0  0  0  0  0  0  0  0  0  0  0  0
   -2.5180   -2.9976    1.6717 H   0  0  0  0  0  0  0  0  0  0  0  0
    1.4290    0.2287    1.6108 H   0  0  0  0  0  0  0  0  0  0  0  0
    3.6505    1.1274    2.1458 H   0  0  0  0  0  0  0  0  0  0  0  0
    5.3486   -1.0506   -1.1486 H   0  0  0  0  0  0  0  0  0  0  0  0
    3.1308   -1.9491   -1.7123 H   0  0  0  0  0  0  0  0  0  0  0  0
  1  2  1  0
  2  3  1  0
  3  4  1  0
  4  5  1  0
  5  6  1  0
  5  7  2  0
  3  8  2  0
  8  9  1  0
  9 10  1  0
  9 11  2  0
 11 12  1  0
 12 13  2  0
 12 14  1  0
 14 15  2  0
 15 16  1  0
 16 17  2  0
 17 18  1  0
 17 19  1  0
 19 20  2  0
 11  2  1  0
 20 14  1  0
  1 21  1  0
  1 22  1  0
  1 23  1  0
  4 24  1  0
  4 25  1  0
  6 26  1  0
  8 27  1  0
 10 28  1  0
 10 29  1  0
 10 30  1  0
 15 31  1  0
 16 32  1  0
 19 33  1  0
 20 34  1  0
M  END
$$$$
