
     RDKit          3D

 39 40  0  0  0  0  0  0  0  0999 V2000
    1.0432   -1.7515   -0.4864 C   0  0  0  0  0  0  0  0  0  0  0  0
   -0.0952   -0.9809   -1.1681 C   0  0  2  0  0  0  0  0  0  0  0  0
   -0.8308   -1.9049   -1.9359 O   0  0  0  0  0  0  0  0  0  0  0  0
    0.4610    0.1154   -2.1190 C   0  0  0  0  0  0  0  0  0  0  0  0
    1.2871    1.0655   -1.4376 O   0  0  0  0  0  0  0  0  0  0  0  0
    2.6840    1.0149   -1.2895 C   0  0  0  0  0  0  0  0  0  0  0  0
    3.2865    1.9729   -0.4639 C   0  0  0  0  0  0  0  0  0  0  0  0
    4.6707    1.9787   -0.2697 C   0  0  0  0  0  0  0  0  0  0  0  0
    5.4716    1.0234   -0.9049 C   0  0  0  0  0  0  0  0  0  0  0  0
    4.8820    0.0645   -1.7362 C   0  0  0  0  0  0  0  0  0  0  0  0
    3.4970    0.0582   -1.9318 C   0  0  0  0  0  0  0  0  0  0  0  0
    6.8971    1.0278   -0.7051 C   0  0  0  0  0  0  0  0  0  0  0  0
    8.0432    1.0314   -0.5445 N   0  0  0  0  0  0  0  0  0  0  0  0
   -0.9896   -0.3873   -0.0907 C   0  0  0  0  0  0  0  0  0  0  0  0
   -0.7572    0.7699    0.3557 O   0  0  0  0  0  0  0  0  0  0  0  0
   -2.0282   -1.1865    0.5010 N   0  0  0  0  0  0  0  0  0  0  0  0
   -3.0718   -0.6561    1.3359 C   0  0  0  0  0  0  0  0  0  0  0  0
   -3.6100   -1.4548    2.3545 C   0  0  0  0  0  0  0  0  0  0  0  0
   -4.6384   -0.9701    3.1665 C   0  0  0  0  0  0  0  0  0  0  0  0
   -5.1535    0.3158    2.9615 C   0  0  0  0  0  0  0  0  0  0  0  0
   -6.2144    0.7926    3.8123 C   0  0  0  0  0  0  0  0  0  0  0  0
   -7.0663    1.1746    4.4961 N   0  0  0  0  0  0  0  0  0  0  0  0
   -4.6370    1.1166    1.9271 C   0  0  0  0  0  0  0  0  0  0  0  0
   -5.3821    3.0631    1.5339 I   0  0  0  0  0  0  0  0  0  0  0  0
   -3.6060    0.6262    1.1166 C   0  0  0  0  0  0  0  0  0  0  0  0
    1.7162   -2.2015   -1.2461 H   0  0  0  0  0  0  0  0  0  0  0  0
    0.6301   -2.5784    0.1309 H   0  0  0  0  0  0  0  0  0  0  0  0
    1.6341   -1.0893    0.1813 H   0  0  0  0  0  0  0  0  0  0  0  0
   -1.5969   -1.4219   -2.3457 H   0  0  0  0  0  0  0  0  0  0  0  0
    0.9811   -0.3332   -2.9889 H   0  0  0  0  0  0  0  0  0  0  0  0
   -0.4004    0.6727   -2.5461 H   0  0  0  0  0  0  0  0  0  0  0  0
    2.6758    2.7156    0.0338 H   0  0  0  0  0  0  0  0  0  0  0  0
    5.1153    2.7272    0.3754 H   0  0  0  0  0  0  0  0  0  0  0  0
    5.4932   -0.6786   -2.2346 H   0  0  0  0  0  0  0  0  0  0  0  0
    3.0828   -0.6957   -2.5826 H   0  0  0  0  0  0  0  0  0  0  0  0
   -1.9745   -2.2238    0.3846 H   0  0  0  0  0  0  0  0  0  0  0  0
   -3.2238   -2.4519    2.5257 H   0  0  0  0  0  0  0  0  0  0  0  0
   -5.0332   -1.6001    3.9548 H   0  0  0  0  0  0  0  0  0  0  0  0
   -3.2427    1.2392    0.3028 H   0  0  0  0  0  0  0  0  0  0  0  0
  1  2  1  0
  2  3  1  6
  2  4  1  0
  4  5  1  0
  5  6  1  0
  6  7  2  0
  7  8  1  0
  8  9  2  0
  9 10  1  0
 10 11  2  0
  9 12  1  0
 12 13  3  0
  2 14  1  0
 14 15  2  0
 14 16  1  0
 16 17  1  0
 17 18  2  0
 18 19  1  0
 19 20  2  0
 20 21  1  0
 21 22  3  0
 20 23  1  0
 23 24  1  0
 23 25  2  0
 11  6  1  0
 25 17  1  0
  1 26  1  0
  1 27  1  0
  1 28  1  0
  3 29  1  0
  4 30  1  0
  4 31  1  0
  7 32  1  0
  8 33  1  0
 10 34  1  0
 11 35  1  0
 16 36  1  0
 18 37  1  0
 19 38  1  0
 25 39  1  0
M  END
$$$$
