
     RDKit          3D

 26 26  0  0  0  0  0  0  0  0999 V2000
   -0.7002   -0.4498   -0.2423 C   0  0  2  0  0  0  0  0  0  0  0  0
   -1.2117    0.5486   -1.3054 C   0  0  0  0  0  0  0  0  0  0  0  0
   -0.9513    1.9358   -0.9254 N   0  0  0  0  0  0  0  0  0  0  0  0
   -1.3730   -0.2821    1.1401 C   0  0  0  0  0  0  0  0  0  0  0  0
   -2.8412   -0.5769    1.0833 C   0  0  0  0  0  0  0  0  0  0  0  0
   -3.7560    0.4678    0.9953 O   0  0  0  0  0  0  0  0  0  0  0  0
   -3.2461   -1.7702    1.0850 O   0  0  0  0  0  0  0  0  0  0  0  0
    0.8169   -0.4067   -0.1397 C   0  0  0  0  0  0  0  0  0  0  0  0
    1.4808    0.6448    0.5239 C   0  0  0  0  0  0  0  0  0  0  0  0
    2.8771    0.6754    0.5853 C   0  0  0  0  0  0  0  0  0  0  0  0
    3.6290   -0.3350   -0.0200 C   0  0  0  0  0  0  0  0  0  0  0  0
    5.3809   -0.2927    0.0574 Cl  0  0  0  0  0  0  0  0  0  0  0  0
    2.9831   -1.3763   -0.6917 C   0  0  0  0  0  0  0  0  0  0  0  0
    1.5870   -1.4111   -0.7557 C   0  0  0  0  0  0  0  0  0  0  0  0
   -0.9878   -1.4630   -0.6056 H   0  0  0  0  0  0  0  0  0  0  0  0
   -2.3014    0.4017   -1.4768 H   0  0  0  0  0  0  0  0  0  0  0  0
   -0.7006    0.3317   -2.2702 H   0  0  0  0  0  0  0  0  0  0  0  0
   -1.0871    2.5302   -1.7749 H   0  0  0  0  0  0  0  0  0  0  0  0
   -1.6857    2.2347   -0.2439 H   0  0  0  0  0  0  0  0  0  0  0  0
   -0.9035   -0.9846    1.8633 H   0  0  0  0  0  0  0  0  0  0  0  0
   -1.2259    0.7431    1.5385 H   0  0  0  0  0  0  0  0  0  0  0  0
   -4.7507    0.2840    0.9416 H   0  0  0  0  0  0  0  0  0  0  0  0
    0.9244    1.4447    0.9929 H   0  0  0  0  0  0  0  0  0  0  0  0
    3.3734    1.4875    1.1013 H   0  0  0  0  0  0  0  0  0  0  0  0
    3.5614   -2.1582   -1.1672 H   0  0  0  0  0  0  0  0  0  0  0  0
    1.1081   -2.2234   -1.2882 H   0  0  0  0  0  0  0  0  0  0  0  0
  1  2  1  0
  2  3  1  0
  1  4  1  0
  4  5  1  0
  5  6  1  0
  5  7  2  0
  1  8  1  0
  8  9  2  0
  9 10  1  0
 10 11  2  0
 11 12  1  0
 11 13  1  0
 13 14  2  0
 14  8  1  0
  1 15  1  6
  2 16  1  0
  2 17  1  0
  3 18  1  0
  3 19  1  0
  4 20  1  0
  4 21  1  0
  6 22  1  0
  9 23  1  0
 10 24  1  0
 13 25  1  0
 14 26  1  0
M  END
$$$$
