
     RDKit          3D

 40 42  0  0  0  0  0  0  0  0999 V2000
    5.3317   -0.5258   -0.9422 O   0  0  0  0  0  0  0  0  0  0  0  0
    4.2597    0.3991   -0.0135 P   0  0  0  0  0  5  0  0  0  0  0  0
    5.1205    1.6448    0.7407 O   0  0  0  0  0  0  0  0  0  0  0  0
    3.2117    1.0109   -0.9151 O   0  0  0  0  0  0  0  0  0  0  0  0
    3.5187   -0.5633    1.1882 O   0  0  0  0  0  0  0  0  0  0  0  0
    2.9000   -1.6794    0.5865 C   0  0  0  0  0  0  0  0  0  0  0  0
    1.5980   -1.3107    0.0352 N   0  0  0  0  0  0  0  0  0  0  0  0
    1.1947   -1.3204   -1.3208 C   0  0  0  0  0  0  0  0  0  0  0  0
    1.8997   -1.7770   -2.2590 O   0  0  0  0  0  0  0  0  0  0  0  0
   -0.0883   -0.7437   -1.5163 N   0  0  0  0  0  0  0  0  0  0  0  0
   -0.5968   -0.2798   -0.2190 C   0  0  0  0  0  0  0  0  0  0  0  0
    0.5185   -0.6891    0.7200 C   0  0  0  0  0  0  0  0  0  0  0  0
    0.5068   -0.5124    1.9685 O   0  0  0  0  0  0  0  0  0  0  0  0
   -1.8725   -1.0182    0.1877 C   0  0  0  0  0  0  0  0  0  0  0  0
   -2.6296   -0.5542    1.2837 C   0  0  0  0  0  0  0  0  0  0  0  0
   -3.7804   -1.2323    1.6945 C   0  0  0  0  0  0  0  0  0  0  0  0
   -4.1840   -2.3919    1.0314 C   0  0  0  0  0  0  0  0  0  0  0  0
   -3.4329   -2.8805   -0.0387 C   0  0  0  0  0  0  0  0  0  0  0  0
   -2.2807   -2.2069   -0.4552 C   0  0  0  0  0  0  0  0  0  0  0  0
   -0.8088    1.2340   -0.3055 C   0  0  0  0  0  0  0  0  0  0  0  0
   -1.9108    1.7320   -1.0310 C   0  0  0  0  0  0  0  0  0  0  0  0
   -2.1154    3.1077   -1.1667 C   0  0  0  0  0  0  0  0  0  0  0  0
   -1.2140    4.0089   -0.5993 C   0  0  0  0  0  0  0  0  0  0  0  0
   -0.1010    3.5361    0.0970 C   0  0  0  0  0  0  0  0  0  0  0  0
    0.1094    2.1612    0.2375 C   0  0  0  0  0  0  0  0  0  0  0  0
    5.9657   -0.9110   -0.2861 H   0  0  0  0  0  0  0  0  0  0  0  0
    5.7415    1.1834    1.3588 H   0  0  0  0  0  0  0  0  0  0  0  0
    2.7368   -2.4431    1.3749 H   0  0  0  0  0  0  0  0  0  0  0  0
    3.5375   -2.1692   -0.1833 H   0  0  0  0  0  0  0  0  0  0  0  0
   -0.5646   -0.6299   -2.4393 H   0  0  0  0  0  0  0  0  0  0  0  0
   -2.3274    0.3356    1.8220 H   0  0  0  0  0  0  0  0  0  0  0  0
   -4.3568   -0.8604    2.5317 H   0  0  0  0  0  0  0  0  0  0  0  0
   -5.0745   -2.9169    1.3523 H   0  0  0  0  0  0  0  0  0  0  0  0
   -3.7406   -3.7871   -0.5437 H   0  0  0  0  0  0  0  0  0  0  0  0
   -1.7132   -2.6242   -1.2760 H   0  0  0  0  0  0  0  0  0  0  0  0
   -2.6146    1.0517   -1.4944 H   0  0  0  0  0  0  0  0  0  0  0  0
   -2.9712    3.4749   -1.7182 H   0  0  0  0  0  0  0  0  0  0  0  0
   -1.3726    5.0741   -0.7077 H   0  0  0  0  0  0  0  0  0  0  0  0
    0.6053    4.2366    0.5238 H   0  0  0  0  0  0  0  0  0  0  0  0
    0.9947    1.8361    0.7659 H   0  0  0  0  0  0  0  0  0  0  0  0
  1  2  1  0
  2  3  1  0
  2  4  2  0
  2  5  1  0
  5  6  1  0
  6  7  1  0
  7  8  1  0
  8  9  2  0
  8 10  1  0
 10 11  1  0
 11 12  1  0
 12 13  2  0
 11 14  1  0
 14 15  2  0
 15 16  1  0
 16 17  2  0
 17 18  1  0
 18 19  2  0
 11 20  1  0
 20 21  2  0
 21 22  1  0
 22 23  2  0
 23 24  1  0
 24 25  2  0
 12  7  1  0
 19 14  1  0
 25 20  1  0
  1 26  1  0
  3 27  1  0
  6 28  1  0
  6 29  1  0
 10 30  1  0
 15 31  1  0
 16 32  1  0
 17 33  1  0
 18 34  1  0
 19 35  1  0
 21 36  1  0
 22 37  1  0
 23 38  1  0
 24 39  1  0
 25 40  1  0
M  END
$$$$
