
     RDKit          3D

 38 37  0  0  0  0  0  0  0  0999 V2000
    4.9286   -1.1238    0.8968 O   0  0  0  0  0  0  0  0  0  0  0  0
    3.6367   -1.5076    1.2872 C   0  0  0  0  0  0  0  0  0  0  0  0
    2.6196   -0.4166    0.9406 C   0  0  0  0  0  0  0  0  0  0  0  0
    2.4245   -0.2754   -0.5778 C   0  0  0  0  0  0  0  0  0  0  0  0
    1.5015    0.8989   -0.9603 C   0  0  0  0  0  0  0  0  0  0  0  0
    0.0662    0.8705   -0.3582 C   0  0  0  0  0  0  0  0  0  0  0  0
   -0.7548    2.0986   -0.8450 C   0  0  0  0  0  0  0  0  0  0  0  0
   -0.1356    3.4634   -0.5007 C   0  0  0  0  0  0  0  0  0  0  0  0
    0.1939    3.5439    0.8600 O   0  0  0  0  0  0  0  0  0  0  0  0
   -0.6629   -0.4545   -0.7142 C   0  0  0  0  0  0  0  0  0  0  0  0
   -2.0599   -0.5820   -0.0811 C   0  0  0  0  0  0  0  0  0  0  0  0
   -2.5958   -2.0153   -0.2093 C   0  0  0  0  0  0  0  0  0  0  0  0
   -4.0246   -2.1444    0.3271 C   0  0  0  0  0  0  0  0  0  0  0  0
   -4.0530   -1.9502    1.7162 O   0  0  0  0  0  0  0  0  0  0  0  0
    5.0840   -1.5058   -0.0060 H   0  0  0  0  0  0  0  0  0  0  0  0
    3.6363   -1.6551    2.3880 H   0  0  0  0  0  0  0  0  0  0  0  0
    3.3417   -2.4776    0.8226 H   0  0  0  0  0  0  0  0  0  0  0  0
    2.9584    0.5510    1.3712 H   0  0  0  0  0  0  0  0  0  0  0  0
    1.6544   -0.6904    1.4164 H   0  0  0  0  0  0  0  0  0  0  0  0
    3.4118   -0.0827   -1.0505 H   0  0  0  0  0  0  0  0  0  0  0  0
    2.0514   -1.2265   -1.0115 H   0  0  0  0  0  0  0  0  0  0  0  0
    1.4286    0.9343   -2.0695 H   0  0  0  0  0  0  0  0  0  0  0  0
    2.0199    1.8249   -0.6356 H   0  0  0  0  0  0  0  0  0  0  0  0
    0.1451    0.9345    0.7485 H   0  0  0  0  0  0  0  0  0  0  0  0
   -1.7593    2.0859   -0.3746 H   0  0  0  0  0  0  0  0  0  0  0  0
   -0.9000    2.0396   -1.9459 H   0  0  0  0  0  0  0  0  0  0  0  0
    0.7744    3.6416   -1.1095 H   0  0  0  0  0  0  0  0  0  0  0  0
   -0.8548    4.2713   -0.7659 H   0  0  0  0  0  0  0  0  0  0  0  0
   -0.6630    3.6249    1.3546 H   0  0  0  0  0  0  0  0  0  0  0  0
   -0.0615   -1.3084   -0.3414 H   0  0  0  0  0  0  0  0  0  0  0  0
   -0.7475   -0.5529   -1.8189 H   0  0  0  0  0  0  0  0  0  0  0  0
   -2.7672    0.1022   -0.5960 H   0  0  0  0  0  0  0  0  0  0  0  0
   -2.0040   -0.3040    0.9939 H   0  0  0  0  0  0  0  0  0  0  0  0
   -1.9345   -2.7172    0.3448 H   0  0  0  0  0  0  0  0  0  0  0  0
   -2.5940   -2.3121   -1.2811 H   0  0  0  0  0  0  0  0  0  0  0  0
   -4.7046   -1.4316   -0.1952 H   0  0  0  0  0  0  0  0  0  0  0  0
   -4.3923   -3.1698    0.1113 H   0  0  0  0  0  0  0  0  0  0  0  0
   -4.2079   -0.9817    1.8688 H   0  0  0  0  0  0  0  0  0  0  0  0
  1  2  1  0
  2  3  1  0
  3  4  1  0
  4  5  1  0
  5  6  1  0
  6  7  1  0
  7  8  1  0
  8  9  1  0
  6 10  1  0
 10 11  1  0
 11 12  1  0
 12 13  1  0
 13 14  1  0
  1 15  1  0
  2 16  1  0
  2 17  1  0
  3 18  1  0
  3 19  1  0
  4 20  1  0
  4 21  1  0
  5 22  1  0
  5 23  1  0
  6 24  1  0
  7 25  1  0
  7 26  1  0
  8 27  1  0
  8 28  1  0
  9 29  1  0
 10 30  1  0
 10 31  1  0
 11 32  1  0
 11 33  1  0
 12 34  1  0
 12 35  1  0
 13 36  1  0
 13 37  1  0
 14 38  1  0
M  END
$$$$
