
     RDKit          3D

 39 42  0  0  0  0  0  0  0  0999 V2000
   -2.3173    0.8586    2.9251 N   0  0  0  0  0  0  0  0  0  0  0  0
   -1.9068    0.6250    1.5803 C   0  0  0  0  0  0  0  0  0  0  0  0
   -0.5803    0.6714    1.2552 N   0  0  0  0  0  0  0  0  0  0  0  0
   -0.2264    0.4347   -0.0309 C   0  0  0  0  0  0  0  0  0  0  0  0
   -1.1422    0.1896   -0.9976 C   0  0  0  0  0  0  0  0  0  0  0  0
   -0.5430    0.0951   -2.1967 N   0  0  0  0  0  0  0  0  0  0  0  0
    0.7689    0.2899   -1.8951 C   0  0  0  0  0  0  0  0  0  0  0  0
    1.0072    0.4706   -0.5652 N   0  0  0  0  0  0  0  0  0  0  0  0
    2.2686    0.9038    0.0646 C   0  0  2  0  0  0  0  0  0  0  0  0
    3.5163    0.3911   -0.6827 C   0  0  0  0  0  0  0  0  0  0  0  0
    4.5208    0.0028    0.4146 C   0  0  2  0  0  0  0  0  0  0  0  0
    5.2792   -1.2987    0.1140 C   0  0  0  0  0  0  0  0  0  0  0  0
    6.1323   -1.1249   -0.9855 O   0  0  0  0  0  0  0  0  0  0  0  0
    3.6696   -0.1347    1.6282 C   0  0  0  0  0  0  0  0  0  0  0  0
    2.4508    0.3433    1.4404 C   0  0  0  0  0  0  0  0  0  0  0  0
   -2.4997    0.1363   -0.6876 C   0  0  0  0  0  0  0  0  0  0  0  0
   -3.4840   -0.0910   -1.7199 N   0  0  0  0  0  0  0  0  0  0  0  0
   -4.9059   -0.4594   -1.5924 C   0  0  0  0  0  0  0  0  0  0  0  0
   -5.7000    0.3032   -0.5455 C   0  0  0  0  0  0  0  0  0  0  0  0
   -5.3390   -1.1649   -0.3176 C   0  0  0  0  0  0  0  0  0  0  0  0
   -2.8454    0.3628    0.6155 N   0  0  0  0  0  0  0  0  0  0  0  0
   -1.6100    1.0616    3.6658 H   0  0  0  0  0  0  0  0  0  0  0  0
   -3.3291    0.8277    3.1812 H   0  0  0  0  0  0  0  0  0  0  0  0
    1.5364    0.3357   -2.6564 H   0  0  0  0  0  0  0  0  0  0  0  0
    2.2907    2.0140    0.1225 H   0  0  0  0  0  0  0  0  0  0  0  0
    3.9342    1.1754   -1.3504 H   0  0  0  0  0  0  0  0  0  0  0  0
    3.2618   -0.5044   -1.2912 H   0  0  0  0  0  0  0  0  0  0  0  0
    5.2444    0.8316    0.5800 H   0  0  0  0  0  0  0  0  0  0  0  0
    5.9021   -1.5666    0.9943 H   0  0  0  0  0  0  0  0  0  0  0  0
    4.5711   -2.1419   -0.0623 H   0  0  0  0  0  0  0  0  0  0  0  0
    5.5853   -1.2723   -1.8004 H   0  0  0  0  0  0  0  0  0  0  0  0
    4.0243   -0.5004    2.5868 H   0  0  0  0  0  0  0  0  0  0  0  0
    1.7301    0.4175    2.2460 H   0  0  0  0  0  0  0  0  0  0  0  0
   -3.1433   -0.0504   -2.7067 H   0  0  0  0  0  0  0  0  0  0  0  0
   -5.4577   -0.7126   -2.5230 H   0  0  0  0  0  0  0  0  0  0  0  0
   -6.7651    0.4647   -0.8148 H   0  0  0  0  0  0  0  0  0  0  0  0
   -5.1441    1.0365    0.0693 H   0  0  0  0  0  0  0  0  0  0  0  0
   -4.5622   -1.3600    0.4449 H   0  0  0  0  0  0  0  0  0  0  0  0
   -6.1928   -1.8609   -0.4573 H   0  0  0  0  0  0  0  0  0  0  0  0
  1  2  1  0
  2  3  2  0
  3  4  1  0
  4  5  2  0
  5  6  1  0
  6  7  2  0
  7  8  1  0
  8  9  1  0
  9 10  1  0
 10 11  1  0
 11 12  1  0
 12 13  1  0
 11 14  1  0
 14 15  2  0
  5 16  1  0
 16 17  1  0
 17 18  1  0
 18 19  1  0
 19 20  1  0
 16 21  2  0
 21  2  1  0
  8  4  1  0
 15  9  1  0
 20 18  1  0
  1 22  1  0
  1 23  1  0
  7 24  1  0
  9 25  1  1
 10 26  1  0
 10 27  1  0
 11 28  1  1
 12 29  1  0
 12 30  1  0
 13 31  1  0
 14 32  1  0
 15 33  1  0
 17 34  1  0
 18 35  1  0
 19 36  1  0
 19 37  1  0
 20 38  1  0
 20 39  1  0
M  END
$$$$
