
     RDKit          3D

 41 43  0  0  0  0  0  0  0  0999 V2000
   -2.3465    2.1909   -2.2689 C   0  0  0  0  0  0  0  0  0  0  0  0
   -2.7342    1.3069   -1.0627 C   0  0  0  0  0  0  0  0  0  0  0  0
   -4.0462    0.5720   -1.4010 C   0  0  0  0  0  0  0  0  0  0  0  0
   -2.9404    2.2156    0.1640 C   0  0  0  0  0  0  0  0  0  0  0  0
   -1.6646    0.3244   -0.7814 N   0  0  0  0  0  0  0  0  0  0  0  0
   -0.4959    0.2864   -1.4141 N   0  0  0  0  0  0  0  0  0  0  0  0
    0.2612   -0.7057   -0.8854 C   0  0  0  0  0  0  0  0  0  0  0  0
    1.6847   -0.9352   -1.3082 C   0  0  0  0  0  0  0  0  0  0  0  0
    2.6658   -0.4919   -0.2494 C   0  0  0  0  0  0  0  0  0  0  0  0
    2.5601    0.7830    0.3380 C   0  0  0  0  0  0  0  0  0  0  0  0
    3.4890    1.2024    1.2965 C   0  0  0  0  0  0  0  0  0  0  0  0
    3.3566    2.4618    1.8770 O   0  0  0  0  0  0  0  0  0  0  0  0
    4.5436    0.3556    1.6616 C   0  0  0  0  0  0  0  0  0  0  0  0
    4.6727   -0.8995    1.0624 C   0  0  0  0  0  0  0  0  0  0  0  0
    3.7454   -1.3189    0.1045 C   0  0  0  0  0  0  0  0  0  0  0  0
   -0.4603   -1.3163    0.1376 C   0  0  0  0  0  0  0  0  0  0  0  0
   -1.6446   -0.6355    0.1658 C   0  0  0  0  0  0  0  0  0  0  0  0
   -2.6088   -0.8961    1.0816 N   0  0  0  0  0  0  0  0  0  0  0  0
   -2.3878   -1.8811    1.9978 C   0  0  0  0  0  0  0  0  0  0  0  0
   -1.2152   -2.5856    1.9878 N   0  0  0  0  0  0  0  0  0  0  0  0
   -0.2315   -2.3350    1.0739 C   0  0  0  0  0  0  0  0  0  0  0  0
    0.9570   -3.1259    1.0939 N   0  0  0  0  0  0  0  0  0  0  0  0
   -1.4104    2.7519   -2.0576 H   0  0  0  0  0  0  0  0  0  0  0  0
   -2.1852    1.5658   -3.1737 H   0  0  0  0  0  0  0  0  0  0  0  0
   -3.1475    2.9282   -2.4940 H   0  0  0  0  0  0  0  0  0  0  0  0
   -3.8842   -0.1337   -2.2440 H   0  0  0  0  0  0  0  0  0  0  0  0
   -4.8377    1.2956   -1.6933 H   0  0  0  0  0  0  0  0  0  0  0  0
   -4.4230   -0.0043   -0.5314 H   0  0  0  0  0  0  0  0  0  0  0  0
   -3.2963    1.6341    1.0394 H   0  0  0  0  0  0  0  0  0  0  0  0
   -3.6960    3.0017   -0.0519 H   0  0  0  0  0  0  0  0  0  0  0  0
   -1.9844    2.7101    0.4403 H   0  0  0  0  0  0  0  0  0  0  0  0
    1.8212   -2.0008   -1.5845 H   0  0  0  0  0  0  0  0  0  0  0  0
    1.8865   -0.3494   -2.2305 H   0  0  0  0  0  0  0  0  0  0  0  0
    1.7562    1.4511    0.0541 H   0  0  0  0  0  0  0  0  0  0  0  0
    4.0128    2.7955    2.5734 H   0  0  0  0  0  0  0  0  0  0  0  0
    5.2671    0.6724    2.4019 H   0  0  0  0  0  0  0  0  0  0  0  0
    5.4956   -1.5467    1.3370 H   0  0  0  0  0  0  0  0  0  0  0  0
    3.8709   -2.2892   -0.3595 H   0  0  0  0  0  0  0  0  0  0  0  0
   -3.1439   -2.1064    2.7371 H   0  0  0  0  0  0  0  0  0  0  0  0
    1.1112   -3.8063    1.8705 H   0  0  0  0  0  0  0  0  0  0  0  0
    1.6268   -3.1417    0.3004 H   0  0  0  0  0  0  0  0  0  0  0  0
  1  2  1  0
  2  3  1  0
  2  4  1  0
  2  5  1  0
  5  6  1  0
  6  7  2  0
  7  8  1  0
  8  9  1  0
  9 10  2  0
 10 11  1  0
 11 12  1  0
 11 13  2  0
 13 14  1  0
 14 15  2  0
  7 16  1  0
 16 17  2  0
 17 18  1  0
 18 19  2  0
 19 20  1  0
 20 21  2  0
 21 22  1  0
 17  5  1  0
 15  9  1  0
 21 16  1  0
  1 23  1  0
  1 24  1  0
  1 25  1  0
  3 26  1  0
  3 27  1  0
  3 28  1  0
  4 29  1  0
  4 30  1  0
  4 31  1  0
  8 32  1  0
  8 33  1  0
 10 34  1  0
 12 35  1  0
 13 36  1  0
 14 37  1  0
 15 38  1  0
 19 39  1  0
 22 40  1  0
 22 41  1  0
M  END
$$$$
