
     RDKit          3D

 20 19  0  0  0  0  0  0  0  0999 V2000
    0.7504   -1.0827   -1.5839 N   0  0  0  0  0  0  0  0  0  0  0  0
    0.6387   -0.5382   -0.2279 C   0  0  0  0  0  0  0  0  0  0  0  0
    0.0219    0.8767   -0.2705 C   0  0  0  0  0  0  0  0  0  0  0  0
   -1.3896    0.9030   -0.8771 C   0  0  0  0  0  0  0  0  0  0  0  0
   -2.3792    0.1865   -0.0106 C   0  0  0  0  0  0  0  0  0  0  0  0
   -2.8312    0.7819    1.1628 O   0  0  0  0  0  0  0  0  0  0  0  0
   -2.7828   -0.9639   -0.3294 O   0  0  0  0  0  0  0  0  0  0  0  0
    1.9955   -0.5059    0.4428 C   0  0  0  0  0  0  0  0  0  0  0  0
    2.1222   -0.3091    1.7588 C   0  0  0  0  0  0  0  0  0  0  0  0
    1.4390   -0.5164   -2.1323 H   0  0  0  0  0  0  0  0  0  0  0  0
    1.1218   -2.0591   -1.5245 H   0  0  0  0  0  0  0  0  0  0  0  0
   -0.0238   -1.2084    0.3638 H   0  0  0  0  0  0  0  0  0  0  0  0
   -0.0221    1.3031    0.7560 H   0  0  0  0  0  0  0  0  0  0  0  0
    0.6774    1.5420   -0.8746 H   0  0  0  0  0  0  0  0  0  0  0  0
   -1.7147    1.9606   -0.9783 H   0  0  0  0  0  0  0  0  0  0  0  0
   -1.3819    0.4623   -1.8975 H   0  0  0  0  0  0  0  0  0  0  0  0
   -3.4912    0.3058    1.7659 H   0  0  0  0  0  0  0  0  0  0  0  0
    2.8922   -0.6769   -0.1466 H   0  0  0  0  0  0  0  0  0  0  0  0
    3.1067   -0.3052    2.2150 H   0  0  0  0  0  0  0  0  0  0  0  0
    1.2506   -0.1563    2.3880 H   0  0  0  0  0  0  0  0  0  0  0  0
  1  2  1  0
  2  3  1  0
  3  4  1  0
  4  5  1  0
  5  6  1  0
  5  7  2  0
  2  8  1  0
  8  9  2  3
  1 10  1  0
  1 11  1  0
  2 12  1  0
  3 13  1  0
  3 14  1  0
  4 15  1  0
  4 16  1  0
  6 17  1  0
  8 18  1  0
  9 19  1  0
  9 20  1  0
M  END
$$$$
