
     RDKit          3D

 32 35  0  0  0  0  0  0  0  0999 V2000
    0.9287    3.0731    0.1901 O   0  0  0  0  0  0  0  0  0  0  0  0
    0.3119    1.8452    0.2358 N   0  0  0  0  0  0  0  0  0  0  0  0
    0.9362    0.7405   -0.0338 C   0  0  0  0  0  0  0  0  0  0  0  0
    0.4054   -0.6151    0.2063 C   0  0  0  0  0  0  0  0  0  0  0  0
    1.5085   -1.5280    0.2688 N   0  0  0  0  0  0  0  0  0  0  0  0
    2.6714   -0.7582   -0.0134 C   0  0  0  0  0  0  0  0  0  0  0  0
    2.3828    0.5776   -0.2037 C   0  0  0  0  0  0  0  0  0  0  0  0
    3.3902    1.4979   -0.5116 C   0  0  0  0  0  0  0  0  0  0  0  0
    4.7108    1.0290   -0.6167 C   0  0  0  0  0  0  0  0  0  0  0  0
    5.0019   -0.3356   -0.4197 C   0  0  0  0  0  0  0  0  0  0  0  0
    3.9743   -1.2440   -0.1178 C   0  0  0  0  0  0  0  0  0  0  0  0
   -0.8808   -0.9856    0.3720 C   0  0  0  0  0  0  0  0  0  0  0  0
   -1.3609   -2.2271    1.0029 C   0  0  0  0  0  0  0  0  0  0  0  0
   -0.6408   -3.1805    1.3995 O   0  0  0  0  0  0  0  0  0  0  0  0
   -2.7715   -2.2004    1.1813 N   0  0  0  0  0  0  0  0  0  0  0  0
   -3.1879   -0.9685    0.6103 C   0  0  0  0  0  0  0  0  0  0  0  0
   -4.5098   -0.5629    0.4320 C   0  0  0  0  0  0  0  0  0  0  0  0
   -4.7567    0.6070   -0.3029 C   0  0  0  0  0  0  0  0  0  0  0  0
   -6.5519    1.1981   -0.5750 Br  0  0  0  0  0  0  0  0  0  0  0  0
   -3.6879    1.3162   -0.8840 C   0  0  0  0  0  0  0  0  0  0  0  0
   -2.3645    0.8797   -0.7092 C   0  0  0  0  0  0  0  0  0  0  0  0
   -2.1247   -0.2354    0.1043 C   0  0  0  0  0  0  0  0  0  0  0  0
    0.4042    3.9109    0.4068 H   0  0  0  0  0  0  0  0  0  0  0  0
    1.4759   -2.5690    0.3286 H   0  0  0  0  0  0  0  0  0  0  0  0
    3.1746    2.5425   -0.6834 H   0  0  0  0  0  0  0  0  0  0  0  0
    5.5089    1.7197   -0.8559 H   0  0  0  0  0  0  0  0  0  0  0  0
    6.0221   -0.6865   -0.5057 H   0  0  0  0  0  0  0  0  0  0  0  0
    4.1891   -2.2945    0.0294 H   0  0  0  0  0  0  0  0  0  0  0  0
   -3.3749   -2.9528    1.5815 H   0  0  0  0  0  0  0  0  0  0  0  0
   -5.3259   -1.1522    0.8295 H   0  0  0  0  0  0  0  0  0  0  0  0
   -3.8865    2.1857   -1.4973 H   0  0  0  0  0  0  0  0  0  0  0  0
   -1.5720    1.3733   -1.2490 H   0  0  0  0  0  0  0  0  0  0  0  0
  1  2  1  0
  2  3  2  0
  3  4  1  0
  4  5  1  0
  5  6  1  0
  6  7  2  0
  7  8  1  0
  8  9  2  0
  9 10  1  0
 10 11  2  0
  4 12  2  0
 12 13  1  0
 13 14  2  0
 13 15  1  0
 15 16  1  0
 16 17  2  0
 17 18  1  0
 18 19  1  0
 18 20  2  0
 20 21  1  0
 21 22  2  0
  7  3  1  0
 22 12  1  0
 11  6  1  0
 22 16  1  0
  1 23  1  0
  5 24  1  0
  8 25  1  0
  9 26  1  0
 10 27  1  0
 11 28  1  0
 15 29  1  0
 17 30  1  0
 20 31  1  0
 21 32  1  0
M  END
$$$$
