
     RDKit          3D

 62 63  0  0  0  0  0  0  0  0999 V2000
   -7.3572   -1.3247   -2.2737 C   0  0  0  0  0  0  0  0  0  0  0  0
   -6.1265   -0.6495   -2.0359 O   0  0  0  0  0  0  0  0  0  0  0  0
   -5.8621    0.1409   -0.9076 C   0  0  0  0  0  0  0  0  0  0  0  0
   -4.6016    0.7401   -0.7967 C   0  0  0  0  0  0  0  0  0  0  0  0
   -4.2813    1.5380    0.3142 C   0  0  0  0  0  0  0  0  0  0  0  0
   -2.9013    2.1285    0.4545 C   0  0  0  0  0  0  0  0  0  0  0  0
   -1.9980    1.2569    1.3382 C   0  0  0  0  0  0  0  0  0  0  0  0
   -1.7675   -0.1082    0.7326 C   0  0  0  0  0  0  0  0  0  0  0  0
   -2.5303   -1.2016    1.1772 C   0  0  0  0  0  0  0  0  0  0  0  0
   -2.3564   -2.4633    0.6071 C   0  0  0  0  0  0  0  0  0  0  0  0
   -1.4298   -2.6442   -0.4192 C   0  0  0  0  0  0  0  0  0  0  0  0
   -0.6696   -1.5657   -0.8765 C   0  0  0  0  0  0  0  0  0  0  0  0
   -0.8221   -0.2904   -0.2984 C   0  0  0  0  0  0  0  0  0  0  0  0
   -0.0763    0.8148   -0.7396 O   0  0  0  0  0  0  0  0  0  0  0  0
    1.2848    0.7741   -1.1739 C   0  0  0  0  0  0  0  0  0  0  0  0
    2.2377    1.0777   -0.0080 C   0  0  0  0  0  0  0  0  0  0  0  0
    2.1481    0.0400    1.1376 C   0  0  0  0  0  0  0  0  0  0  0  0
    2.1510   -1.3603    0.6540 N   0  0  0  0  0  0  0  0  0  0  0  0
    1.6395   -2.2529    1.7075 C   0  0  0  0  0  0  0  0  0  0  0  0
    3.5027   -1.7951    0.2609 C   0  0  0  0  0  0  0  0  0  0  0  0
    3.5715    1.1728   -0.5100 O   0  0  0  0  0  0  0  0  0  0  0  0
    4.6132    1.8099    0.1741 C   0  0  0  0  0  0  0  0  0  0  0  0
    4.4077    2.3769    1.2820 O   0  0  0  0  0  0  0  0  0  0  0  0
    5.9934    1.7836   -0.4005 C   0  0  0  0  0  0  0  0  0  0  0  0
    6.7419    0.5335    0.0642 C   0  0  0  0  0  0  0  0  0  0  0  0
    8.1314    0.5205   -0.4888 C   0  0  0  0  0  0  0  0  0  0  0  0
    9.1605    1.1453    0.2086 O   0  0  0  0  0  0  0  0  0  0  0  0
    8.3629   -0.0207   -1.6030 O   0  0  0  0  0  0  0  0  0  0  0  0
   -5.2352    1.7245    1.3258 C   0  0  0  0  0  0  0  0  0  0  0  0
   -6.4964    1.1344    1.2198 C   0  0  0  0  0  0  0  0  0  0  0  0
   -6.8132    0.3463    0.1102 C   0  0  0  0  0  0  0  0  0  0  0  0
   -7.5558   -2.0540   -1.4601 H   0  0  0  0  0  0  0  0  0  0  0  0
   -8.1882   -0.5912   -2.3414 H   0  0  0  0  0  0  0  0  0  0  0  0
   -7.2893   -1.8744   -3.2347 H   0  0  0  0  0  0  0  0  0  0  0  0
   -3.8653    0.5715   -1.5734 H   0  0  0  0  0  0  0  0  0  0  0  0
   -2.9791    3.1400    0.9093 H   0  0  0  0  0  0  0  0  0  0  0  0
   -2.4341    2.2644   -0.5454 H   0  0  0  0  0  0  0  0  0  0  0  0
   -2.4477    1.1632    2.3513 H   0  0  0  0  0  0  0  0  0  0  0  0
   -1.0225    1.7715    1.4764 H   0  0  0  0  0  0  0  0  0  0  0  0
   -3.2672   -1.0743    1.9607 H   0  0  0  0  0  0  0  0  0  0  0  0
   -2.9485   -3.3000    0.9546 H   0  0  0  0  0  0  0  0  0  0  0  0
   -1.3064   -3.6211   -0.8685 H   0  0  0  0  0  0  0  0  0  0  0  0
    0.0128   -1.7328   -1.6964 H   0  0  0  0  0  0  0  0  0  0  0  0
    1.4178    1.5669   -1.9404 H   0  0  0  0  0  0  0  0  0  0  0  0
    1.5494   -0.1839   -1.6623 H   0  0  0  0  0  0  0  0  0  0  0  0
    1.9442    2.0709    0.4016 H   0  0  0  0  0  0  0  0  0  0  0  0
    2.9648    0.2075    1.8746 H   0  0  0  0  0  0  0  0  0  0  0  0
    1.2005    0.2509    1.6826 H   0  0  0  0  0  0  0  0  0  0  0  0
    1.5962   -3.3000    1.3376 H   0  0  0  0  0  0  0  0  0  0  0  0
    0.6010   -1.9696    1.9835 H   0  0  0  0  0  0  0  0  0  0  0  0
    2.2808   -2.2115    2.6163 H   0  0  0  0  0  0  0  0  0  0  0  0
    3.8199   -1.2733   -0.6635 H   0  0  0  0  0  0  0  0  0  0  0  0
    3.5079   -2.8794    0.0159 H   0  0  0  0  0  0  0  0  0  0  0  0
    4.2433   -1.6091    1.0702 H   0  0  0  0  0  0  0  0  0  0  0  0
    5.9240    1.7903   -1.5101 H   0  0  0  0  0  0  0  0  0  0  0  0
    6.5439    2.6959   -0.0811 H   0  0  0  0  0  0  0  0  0  0  0  0
    6.2032   -0.3781   -0.2741 H   0  0  0  0  0  0  0  0  0  0  0  0
    6.7934    0.5146    1.1747 H   0  0  0  0  0  0  0  0  0  0  0  0
   10.1039    1.1593   -0.1600 H   0  0  0  0  0  0  0  0  0  0  0  0
   -4.9991    2.3215    2.1980 H   0  0  0  0  0  0  0  0  0  0  0  0
   -7.2289    1.2835    2.0026 H   0  0  0  0  0  0  0  0  0  0  0  0
   -7.7960   -0.1014    0.0556 H   0  0  0  0  0  0  0  0  0  0  0  0
  1  2  1  0
  2  3  1  0
  3  4  2  0
  4  5  1  0
  5  6  1  0
  6  7  1  0
  7  8  1  0
  8  9  2  0
  9 10  1  0
 10 11  2  0
 11 12  1  0
 12 13  2  0
 13 14  1  0
 14 15  1  0
 15 16  1  0
 16 17  1  0
 17 18  1  0
 18 19  1  0
 18 20  1  0
 16 21  1  0
 21 22  1  0
 22 23  2  0
 22 24  1  0
 24 25  1  0
 25 26  1  0
 26 27  1  0
 26 28  2  0
  5 29  2  0
 29 30  1  0
 30 31  2  0
 31  3  1  0
 13  8  1  0
  1 32  1  0
  1 33  1  0
  1 34  1  0
  4 35  1  0
  6 36  1  0
  6 37  1  0
  7 38  1  0
  7 39  1  0
  9 40  1  0
 10 41  1  0
 11 42  1  0
 12 43  1  0
 15 44  1  0
 15 45  1  0
 16 46  1  0
 17 47  1  0
 17 48  1  0
 19 49  1  0
 19 50  1  0
 19 51  1  0
 20 52  1  0
 20 53  1  0
 20 54  1  0
 24 55  1  0
 24 56  1  0
 25 57  1  0
 25 58  1  0
 27 59  1  0
 29 60  1  0
 30 61  1  0
 31 62  1  0
M  END
$$$$
