
     RDKit          3D

 38 37  0  0  0  0  0  0  0  0999 V2000
    4.0550    1.2383    0.7553 N   0  0  0  0  0  0  0  0  0  0  0  0
    4.2770    0.2657   -0.3168 C   0  0  1  0  0  0  0  0  0  0  0  0
    3.4204   -1.0057   -0.1113 C   0  0  0  0  0  0  0  0  0  0  0  0
    1.9020   -0.8383   -0.3241 C   0  0  0  0  0  0  0  0  0  0  0  0
    1.2328    0.0472    0.7365 C   0  0  0  0  0  0  0  0  0  0  0  0
   -0.2225   -0.0615    0.6532 N   0  0  0  0  0  0  0  0  0  0  0  0
   -0.9589   -1.0400    1.1027 C   0  0  0  0  0  0  0  0  0  0  0  0
   -0.3827   -2.1618    1.7864 N   0  0  0  0  0  0  0  0  0  0  0  0
   -2.3825   -0.9977    0.9168 N   0  0  0  0  0  0  0  0  0  0  0  0
   -3.0534    0.0890    0.1937 C   0  0  2  0  0  0  0  0  0  0  0  0
   -4.5725    0.0375    0.4394 C   0  0  0  0  0  0  0  0  0  0  0  0
   -5.2659    1.2308   -0.1448 C   0  0  0  0  0  0  0  0  0  0  0  0
   -5.2533    2.4425    0.5388 O   0  0  0  0  0  0  0  0  0  0  0  0
   -5.8305    1.1471   -1.2683 O   0  0  0  0  0  0  0  0  0  0  0  0
   -2.7442   -0.0135   -1.2749 C   0  0  0  0  0  0  0  0  0  0  0  0
   -2.2464    1.0932   -1.9555 O   0  0  0  0  0  0  0  0  0  0  0  0
   -2.9464   -1.0932   -1.8936 O   0  0  0  0  0  0  0  0  0  0  0  0
    4.0328    0.8871   -1.6658 C   0  0  0  0  0  0  0  0  0  0  0  0
    4.7033    0.3939   -2.7807 O   0  0  0  0  0  0  0  0  0  0  0  0
    3.1965    1.8214   -1.8001 O   0  0  0  0  0  0  0  0  0  0  0  0
    4.7219    2.0336    0.6220 H   0  0  0  0  0  0  0  0  0  0  0  0
    4.3164    0.7929    1.6650 H   0  0  0  0  0  0  0  0  0  0  0  0
    5.3455   -0.0475   -0.2838 H   0  0  0  0  0  0  0  0  0  0  0  0
    3.7774   -1.7772   -0.8287 H   0  0  0  0  0  0  0  0  0  0  0  0
    3.6055   -1.4170    0.9052 H   0  0  0  0  0  0  0  0  0  0  0  0
    1.6917   -0.4324   -1.3365 H   0  0  0  0  0  0  0  0  0  0  0  0
    1.4487   -1.8519   -0.2910 H   0  0  0  0  0  0  0  0  0  0  0  0
    1.5832   -0.2001    1.7616 H   0  0  0  0  0  0  0  0  0  0  0  0
    1.4996    1.1053    0.5388 H   0  0  0  0  0  0  0  0  0  0  0  0
    0.6408   -2.2507    1.9641 H   0  0  0  0  0  0  0  0  0  0  0  0
   -0.9977   -2.9318    2.1305 H   0  0  0  0  0  0  0  0  0  0  0  0
   -2.9526   -1.7849    1.3024 H   0  0  0  0  0  0  0  0  0  0  0  0
   -2.6742    1.0608    0.5826 H   0  0  0  0  0  0  0  0  0  0  0  0
   -5.0013   -0.8963    0.0126 H   0  0  0  0  0  0  0  0  0  0  0  0
   -4.7652    0.0244    1.5341 H   0  0  0  0  0  0  0  0  0  0  0  0
   -5.7044    3.2623    0.1509 H   0  0  0  0  0  0  0  0  0  0  0  0
   -2.0362    1.0430   -2.9451 H   0  0  0  0  0  0  0  0  0  0  0  0
    4.5404    0.7860   -3.7004 H   0  0  0  0  0  0  0  0  0  0  0  0
  1  2  1  0
  2  3  1  0
  3  4  1  0
  4  5  1  0
  5  6  1  0
  6  7  2  0
  7  8  1  0
  7  9  1  0
  9 10  1  0
 10 11  1  0
 11 12  1  0
 12 13  1  0
 12 14  2  0
 10 15  1  0
 15 16  1  0
 15 17  2  0
  2 18  1  0
 18 19  1  0
 18 20  2  0
  1 21  1  0
  1 22  1  0
  2 23  1  6
  3 24  1  0
  3 25  1  0
  4 26  1  0
  4 27  1  0
  5 28  1  0
  5 29  1  0
  8 30  1  0
  8 31  1  0
  9 32  1  0
 10 33  1  1
 11 34  1  0
 11 35  1  0
 13 36  1  0
 16 37  1  0
 19 38  1  0
M  END
$$$$
