
     RDKit          3D

 62 69  0  0  0  0  0  0  0  0999 V2000
    0.6147   -1.7490    1.8413 C   0  0  1  0  0  0  0  0  0  0  0  0
    1.8424   -2.4532    1.2109 C   0  0  0  0  0  0  0  0  0  0  0  0
    3.0110   -1.4816    1.0411 C   0  0  1  0  0  0  0  0  0  0  0  0
    4.1452   -2.0805    0.3036 N   0  0  0  0  0  0  0  0  0  0  0  0
    3.9624   -2.2721   -1.1394 C   0  0  0  0  0  0  0  0  0  0  0  0
    2.4919   -0.1358    0.4950 C   0  0  1  0  0  0  0  0  0  0  0  0
    1.7928   -0.3574   -0.7252 O   0  0  0  0  0  0  0  0  0  0  0  0
    2.0987    0.6330   -1.6871 C   0  0  0  0  0  0  0  0  0  0  0  0
    1.5237    0.4783    1.5875 C   0  0  2  0  0  0  0  0  0  0  0  0
    2.3544    1.3151    2.5935 C   0  0  0  0  0  0  0  0  0  0  0  0
    0.9005   -0.4941    2.4295 O   0  0  0  0  0  0  0  0  0  0  0  0
    0.4526    1.2880    0.9491 N   0  0  0  0  0  0  0  0  0  0  0  0
    0.3991    2.6200    0.6161 C   0  0  0  0  0  0  0  0  0  0  0  0
   -0.7951    2.9316   -0.0187 C   0  0  0  0  0  0  0  0  0  0  0  0
   -1.0917    4.2221   -0.4646 C   0  0  0  0  0  0  0  0  0  0  0  0
   -0.1283    5.2218   -0.2853 C   0  0  0  0  0  0  0  0  0  0  0  0
    1.1094    4.9154    0.3038 C   0  0  0  0  0  0  0  0  0  0  0  0
    1.3893    3.6122    0.7459 C   0  0  0  0  0  0  0  0  0  0  0  0
   -1.4919    1.7539   -0.1448 C   0  0  0  0  0  0  0  0  0  0  0  0
   -2.6893    1.4294   -0.8066 C   0  0  0  0  0  0  0  0  0  0  0  0
   -3.6481    2.3306   -1.5351 C   0  0  1  0  0  0  0  0  0  0  0  0
   -3.0307    2.8734   -2.6693 O   0  0  0  0  0  0  0  0  0  0  0  0
   -4.7201    1.4248   -1.9416 N   0  0  0  0  0  0  0  0  0  0  0  0
   -4.3886    0.1056   -1.5365 C   0  0  0  0  0  0  0  0  0  0  0  0
   -5.1557   -0.8738   -1.7074 O   0  0  0  0  0  0  0  0  0  0  0  0
   -3.1081    0.1008   -0.8519 C   0  0  0  0  0  0  0  0  0  0  0  0
   -2.3106   -0.9094   -0.2694 C   0  0  0  0  0  0  0  0  0  0  0  0
   -2.4102   -2.2915   -0.1844 C   0  0  0  0  0  0  0  0  0  0  0  0
   -1.3171   -2.7113    0.5546 C   0  0  0  0  0  0  0  0  0  0  0  0
   -1.1233   -4.0654    0.8570 C   0  0  0  0  0  0  0  0  0  0  0  0
   -2.0508   -4.9977    0.3691 C   0  0  0  0  0  0  0  0  0  0  0  0
   -3.1455   -4.5739   -0.4065 C   0  0  0  0  0  0  0  0  0  0  0  0
   -3.3333   -3.2119   -0.6930 C   0  0  0  0  0  0  0  0  0  0  0  0
   -0.5277   -1.6704    0.9210 N   0  0  0  0  0  0  0  0  0  0  0  0
   -1.1308   -0.5710    0.4043 C   0  0  0  0  0  0  0  0  0  0  0  0
   -0.7116    0.7754    0.4595 C   0  0  0  0  0  0  0  0  0  0  0  0
    0.2939   -2.3934    2.6890 H   0  0  0  0  0  0  0  0  0  0  0  0
    1.5502   -2.9078    0.2437 H   0  0  0  0  0  0  0  0  0  0  0  0
    2.1736   -3.2890    1.8666 H   0  0  0  0  0  0  0  0  0  0  0  0
    3.3958   -1.2882    2.0690 H   0  0  0  0  0  0  0  0  0  0  0  0
    4.9915   -1.4805    0.4471 H   0  0  0  0  0  0  0  0  0  0  0  0
    2.9305   -2.5692   -1.4070 H   0  0  0  0  0  0  0  0  0  0  0  0
    4.6372   -3.0860   -1.4758 H   0  0  0  0  0  0  0  0  0  0  0  0
    4.2505   -1.3577   -1.6939 H   0  0  0  0  0  0  0  0  0  0  0  0
    3.3851    0.5187    0.3478 H   0  0  0  0  0  0  0  0  0  0  0  0
    3.1527    0.5597   -2.0228 H   0  0  0  0  0  0  0  0  0  0  0  0
    1.4471    0.4797   -2.5713 H   0  0  0  0  0  0  0  0  0  0  0  0
    1.9151    1.6562   -1.3070 H   0  0  0  0  0  0  0  0  0  0  0  0
    2.7717    0.6586    3.3880 H   0  0  0  0  0  0  0  0  0  0  0  0
    3.2401    1.8013    2.1412 H   0  0  0  0  0  0  0  0  0  0  0  0
    1.7169    2.0680    3.1041 H   0  0  0  0  0  0  0  0  0  0  0  0
   -2.0308    4.4643   -0.9363 H   0  0  0  0  0  0  0  0  0  0  0  0
   -0.3295    6.2304   -0.6224 H   0  0  0  0  0  0  0  0  0  0  0  0
    1.8598    5.6890    0.4043 H   0  0  0  0  0  0  0  0  0  0  0  0
    2.3713    3.4238    1.1272 H   0  0  0  0  0  0  0  0  0  0  0  0
   -4.0414    3.1207   -0.8570 H   0  0  0  0  0  0  0  0  0  0  0  0
   -3.6630    3.5461   -3.0332 H   0  0  0  0  0  0  0  0  0  0  0  0
   -5.5897    1.7023   -2.4487 H   0  0  0  0  0  0  0  0  0  0  0  0
   -0.2792   -4.4009    1.4439 H   0  0  0  0  0  0  0  0  0  0  0  0
   -1.9190   -6.0502    0.5839 H   0  0  0  0  0  0  0  0  0  0  0  0
   -3.8466   -5.3045   -0.7887 H   0  0  0  0  0  0  0  0  0  0  0  0
   -4.1634   -2.9232   -1.3075 H   0  0  0  0  0  0  0  0  0  0  0  0
  1  2  1  0
  2  3  1  0
  3  4  1  0
  4  5  1  0
  3  6  1  0
  6  7  1  0
  7  8  1  0
  6  9  1  0
  9 10  1  1
  9 11  1  0
  9 12  1  0
 12 13  1  0
 13 14  2  0
 14 15  1  0
 15 16  2  0
 16 17  1  0
 17 18  2  0
 14 19  1  0
 19 20  2  0
 20 21  1  0
 21 22  1  0
 21 23  1  0
 23 24  1  0
 24 25  2  0
 24 26  1  0
 26 27  2  0
 27 28  1  0
 28 29  2  0
 29 30  1  0
 30 31  2  0
 31 32  1  0
 32 33  2  0
 29 34  1  0
 34 35  1  0
 35 36  2  0
 11  1  1  0
 36 12  1  0
 34  1  1  0
 18 13  1  0
 36 19  1  0
 26 20  1  0
 35 27  1  0
 33 28  1  0
  1 37  1  1
  2 38  1  0
  2 39  1  0
  3 40  1  1
  4 41  1  0
  5 42  1  0
  5 43  1  0
  5 44  1  0
  6 45  1  6
  8 46  1  0
  8 47  1  0
  8 48  1  0
 10 49  1  0
 10 50  1  0
 10 51  1  0
 15 52  1  0
 16 53  1  0
 17 54  1  0
 18 55  1  0
 21 56  1  1
 22 57  1  0
 23 58  1  0
 30 59  1  0
 31 60  1  0
 32 61  1  0
 33 62  1  0
M  END
$$$$
