
     RDKit          3D

 48 48  0  0  0  0  0  0  0  0999 V2000
    5.5580   -2.2845    1.4944 C   0  0  0  0  0  0  0  0  0  0  0  0
    5.0375   -0.8504    1.5806 C   0  0  0  0  0  0  0  0  0  0  0  0
    5.2985   -0.0398    0.2992 C   0  0  0  0  0  0  0  0  0  0  0  0
    4.6297   -0.5985   -0.9734 C   0  0  0  0  0  0  0  0  0  0  0  0
    3.1030   -0.7769   -0.8881 C   0  0  0  0  0  0  0  0  0  0  0  0
    2.3589    0.5493   -0.6562 C   0  0  0  0  0  0  0  0  0  0  0  0
    0.8323    0.3721   -0.6403 C   0  0  0  0  0  0  0  0  0  0  0  0
    0.2458    0.1619   -2.0427 C   0  0  0  0  0  0  0  0  0  0  0  0
   -1.2495    0.0998   -1.9724 C   0  0  0  0  0  0  0  0  0  0  0  0
   -1.9269    1.1349   -2.2169 O   0  0  0  0  0  0  0  0  0  0  0  0
   -1.8995   -1.1169   -1.5795 N   0  0  0  0  0  0  0  0  0  0  0  0
   -3.3337   -1.1882   -1.3132 C   0  0  0  0  0  0  0  0  0  0  0  0
   -3.6530   -0.4975   -0.0150 C   0  0  0  0  0  0  0  0  0  0  0  0
   -4.2899    0.7538   -0.0082 C   0  0  0  0  0  0  0  0  0  0  0  0
   -4.5563    1.4141    1.2080 C   0  0  0  0  0  0  0  0  0  0  0  0
   -5.1908    2.6653    1.2565 O   0  0  0  0  0  0  0  0  0  0  0  0
   -5.6222    3.3952    0.1126 C   0  0  0  0  0  0  0  0  0  0  0  0
   -4.1763    0.8102    2.4154 C   0  0  0  0  0  0  0  0  0  0  0  0
   -4.4380    1.4577    3.6217 O   0  0  0  0  0  0  0  0  0  0  0  0
   -3.5355   -0.4356    2.4077 C   0  0  0  0  0  0  0  0  0  0  0  0
   -3.2723   -1.0842    1.2000 C   0  0  0  0  0  0  0  0  0  0  0  0
    4.9644   -2.8734    0.7646 H   0  0  0  0  0  0  0  0  0  0  0  0
    5.4645   -2.7715    2.4879 H   0  0  0  0  0  0  0  0  0  0  0  0
    6.6276   -2.2923    1.1953 H   0  0  0  0  0  0  0  0  0  0  0  0
    5.5572   -0.3427    2.4219 H   0  0  0  0  0  0  0  0  0  0  0  0
    3.9551   -0.8564    1.8271 H   0  0  0  0  0  0  0  0  0  0  0  0
    4.9670    1.0073    0.4629 H   0  0  0  0  0  0  0  0  0  0  0  0
    6.3956    0.0059    0.1243 H   0  0  0  0  0  0  0  0  0  0  0  0
    5.0892   -1.5774   -1.2280 H   0  0  0  0  0  0  0  0  0  0  0  0
    4.8620    0.0852   -1.8189 H   0  0  0  0  0  0  0  0  0  0  0  0
    2.7722   -1.2199   -1.8503 H   0  0  0  0  0  0  0  0  0  0  0  0
    2.8442   -1.5055   -0.0914 H   0  0  0  0  0  0  0  0  0  0  0  0
    2.6548    0.9612    0.3317 H   0  0  0  0  0  0  0  0  0  0  0  0
    2.6466    1.2911   -1.4331 H   0  0  0  0  0  0  0  0  0  0  0  0
    0.3838    1.2916   -0.2028 H   0  0  0  0  0  0  0  0  0  0  0  0
    0.5578   -0.4805    0.0197 H   0  0  0  0  0  0  0  0  0  0  0  0
    0.6203   -0.7848   -2.4839 H   0  0  0  0  0  0  0  0  0  0  0  0
    0.5507    0.9979   -2.7096 H   0  0  0  0  0  0  0  0  0  0  0  0
   -1.3233   -1.9770   -1.4367 H   0  0  0  0  0  0  0  0  0  0  0  0
   -3.6409   -2.2541   -1.2399 H   0  0  0  0  0  0  0  0  0  0  0  0
   -3.8977   -0.7450   -2.1628 H   0  0  0  0  0  0  0  0  0  0  0  0
   -4.5705    1.2070   -0.9495 H   0  0  0  0  0  0  0  0  0  0  0  0
   -4.7546    3.6314   -0.5392 H   0  0  0  0  0  0  0  0  0  0  0  0
   -6.3772    2.8086   -0.4524 H   0  0  0  0  0  0  0  0  0  0  0  0
   -6.0869    4.3464    0.4436 H   0  0  0  0  0  0  0  0  0  0  0  0
   -4.1756    1.0489    4.5110 H   0  0  0  0  0  0  0  0  0  0  0  0
   -3.2377   -0.9009    3.3388 H   0  0  0  0  0  0  0  0  0  0  0  0
   -2.7682   -2.0429    1.2103 H   0  0  0  0  0  0  0  0  0  0  0  0
  1  2  1  0
  2  3  1  0
  3  4  1  0
  4  5  1  0
  5  6  1  0
  6  7  1  0
  7  8  1  0
  8  9  1  0
  9 10  2  0
  9 11  1  0
 11 12  1  0
 12 13  1  0
 13 14  2  0
 14 15  1  0
 15 16  1  0
 16 17  1  0
 15 18  2  0
 18 19  1  0
 18 20  1  0
 20 21  2  0
 21 13  1  0
  1 22  1  0
  1 23  1  0
  1 24  1  0
  2 25  1  0
  2 26  1  0
  3 27  1  0
  3 28  1  0
  4 29  1  0
  4 30  1  0
  5 31  1  0
  5 32  1  0
  6 33  1  0
  6 34  1  0
  7 35  1  0
  7 36  1  0
  8 37  1  0
  8 38  1  0
 11 39  1  0
 12 40  1  0
 12 41  1  0
 14 42  1  0
 17 43  1  0
 17 44  1  0
 17 45  1  0
 19 46  1  0
 20 47  1  0
 21 48  1  0
M  END
$$$$
