
     RDKit          3D

 27 29  0  0  0  0  0  0  0  0999 V2000
    6.0144   -0.6639    0.1464 O   0  0  0  0  0  0  0  0  0  0  0  0
    4.9229    0.0085    0.6898 C   0  0  0  0  0  0  0  0  0  0  0  0
    5.1145    0.8727    1.5877 O   0  0  0  0  0  0  0  0  0  0  0  0
    3.5536   -0.2891    0.2174 C   0  0  0  0  0  0  0  0  0  0  0  0
    3.3431   -1.2648   -0.7960 C   0  0  0  0  0  0  0  0  0  0  0  0
    2.0448   -1.5581   -1.2553 C   0  0  0  0  0  0  0  0  0  0  0  0
    0.9845   -0.8627   -0.6844 C   0  0  0  0  0  0  0  0  0  0  0  0
   -0.3244   -0.9773   -0.9641 N   0  0  0  0  0  0  0  0  0  0  0  0
   -0.8777   -0.0690   -0.1144 C   0  0  0  0  0  0  0  0  0  0  0  0
    0.0179    0.5588    0.6328 O   0  0  0  0  0  0  0  0  0  0  0  0
    1.1771    0.0710    0.2843 C   0  0  0  0  0  0  0  0  0  0  0  0
    2.4410    0.3928    0.7680 C   0  0  0  0  0  0  0  0  0  0  0  0
   -2.3294    0.1916   -0.0324 C   0  0  0  0  0  0  0  0  0  0  0  0
   -3.2310   -0.5083   -0.8536 C   0  0  0  0  0  0  0  0  0  0  0  0
   -4.6049   -0.2559   -0.7702 C   0  0  0  0  0  0  0  0  0  0  0  0
   -5.7220   -1.1341   -1.7989 Cl  0  0  0  0  0  0  0  0  0  0  0  0
   -5.0882    0.6959    0.1326 C   0  0  0  0  0  0  0  0  0  0  0  0
   -4.1994    1.3967    0.9533 C   0  0  0  0  0  0  0  0  0  0  0  0
   -4.8080    2.5905    2.0855 Cl  0  0  0  0  0  0  0  0  0  0  0  0
   -2.8251    1.1464    0.8720 C   0  0  0  0  0  0  0  0  0  0  0  0
    6.9566   -0.4677    0.4628 H   0  0  0  0  0  0  0  0  0  0  0  0
    4.1795   -1.7975   -1.2302 H   0  0  0  0  0  0  0  0  0  0  0  0
    1.8785   -2.2995   -2.0261 H   0  0  0  0  0  0  0  0  0  0  0  0
    2.5534    1.1428    1.5408 H   0  0  0  0  0  0  0  0  0  0  0  0
   -2.8721   -1.2485   -1.5580 H   0  0  0  0  0  0  0  0  0  0  0  0
   -6.1515    0.8904    0.1963 H   0  0  0  0  0  0  0  0  0  0  0  0
   -2.1482    1.6968    1.5140 H   0  0  0  0  0  0  0  0  0  0  0  0
  1  2  1  0
  2  3  2  0
  2  4  1  0
  4  5  2  0
  5  6  1  0
  6  7  2  0
  7  8  1  0
  8  9  2  0
  9 10  1  0
 10 11  1  0
 11 12  2  0
  9 13  1  0
 13 14  2  0
 14 15  1  0
 15 16  1  0
 15 17  2  0
 17 18  1  0
 18 19  1  0
 18 20  2  0
 12  4  1  0
 20 13  1  0
 11  7  1  0
  1 21  1  0
  5 22  1  0
  6 23  1  0
 12 24  1  0
 14 25  1  0
 17 26  1  0
 20 27  1  0
M  END
$$$$
