
     RDKit          3D

 49 50  0  0  0  0  0  0  0  0999 V2000
    7.4797   -0.4260   -1.3398 C   0  0  0  0  0  0  0  0  0  0  0  0
    6.6289    0.4874   -0.6548 O   0  0  0  0  0  0  0  0  0  0  0  0
    5.3844    0.1488   -0.1033 C   0  0  0  0  0  0  0  0  0  0  0  0
    4.8539   -1.1532   -0.1785 C   0  0  0  0  0  0  0  0  0  0  0  0
    3.6077   -1.4401    0.3864 C   0  0  0  0  0  0  0  0  0  0  0  0
    2.8725   -0.4350    1.0339 C   0  0  0  0  0  0  0  0  0  0  0  0
    1.5212   -0.7475    1.6287 C   0  0  0  0  0  0  0  0  0  0  0  0
    0.4316   -0.9193    0.5438 C   0  0  1  0  0  0  0  0  0  0  0  0
   -0.8294   -1.5143    1.1886 C   0  0  0  0  0  0  0  0  0  0  0  0
    0.0950    0.3771   -0.0795 N   0  0  0  0  0  0  0  0  0  0  0  0
   -0.4894    0.2231   -1.4249 C   0  0  0  0  0  0  0  0  0  0  0  0
   -1.6094    1.2565   -1.6581 C   0  0  2  0  0  0  0  0  0  0  0  0
   -1.1165    2.5728   -1.7499 O   0  0  0  0  0  0  0  0  0  0  0  0
   -2.7011    1.1360   -0.6107 C   0  0  0  0  0  0  0  0  0  0  0  0
   -3.7718    0.2514   -0.8276 C   0  0  0  0  0  0  0  0  0  0  0  0
   -4.7673    0.0679    0.1491 C   0  0  0  0  0  0  0  0  0  0  0  0
   -5.8513   -0.8540   -0.0644 N   0  0  0  0  0  0  0  0  0  0  0  0
   -6.5042   -1.0484   -1.3254 C   0  0  0  0  0  0  0  0  0  0  0  0
   -6.2765   -0.2876   -2.3031 O   0  0  0  0  0  0  0  0  0  0  0  0
   -4.6610    0.7478    1.3747 C   0  0  0  0  0  0  0  0  0  0  0  0
   -5.6277    0.5604    2.3621 O   0  0  0  0  0  0  0  0  0  0  0  0
   -3.5875    1.6175    1.6017 C   0  0  0  0  0  0  0  0  0  0  0  0
   -2.6146    1.8104    0.6200 C   0  0  0  0  0  0  0  0  0  0  0  0
    3.4036    0.8624    1.1090 C   0  0  0  0  0  0  0  0  0  0  0  0
    4.6494    1.1487    0.5437 C   0  0  0  0  0  0  0  0  0  0  0  0
    7.7758   -1.2540   -0.6616 H   0  0  0  0  0  0  0  0  0  0  0  0
    8.3946    0.1079   -1.6691 H   0  0  0  0  0  0  0  0  0  0  0  0
    6.9627   -0.8313   -2.2352 H   0  0  0  0  0  0  0  0  0  0  0  0
    5.3952   -1.9493   -0.6710 H   0  0  0  0  0  0  0  0  0  0  0  0
    3.2141   -2.4469    0.3186 H   0  0  0  0  0  0  0  0  0  0  0  0
    1.6164   -1.6861    2.2183 H   0  0  0  0  0  0  0  0  0  0  0  0
    1.2140    0.0489    2.3425 H   0  0  0  0  0  0  0  0  0  0  0  0
    0.8082   -1.6382   -0.2204 H   0  0  0  0  0  0  0  0  0  0  0  0
   -0.5967   -2.4911    1.6636 H   0  0  0  0  0  0  0  0  0  0  0  0
   -1.6193   -1.6889    0.4297 H   0  0  0  0  0  0  0  0  0  0  0  0
   -1.2314   -0.8235    1.9608 H   0  0  0  0  0  0  0  0  0  0  0  0
    0.9547    0.9637   -0.1816 H   0  0  0  0  0  0  0  0  0  0  0  0
   -0.9242   -0.7900   -1.5773 H   0  0  0  0  0  0  0  0  0  0  0  0
    0.2979    0.3510   -2.2020 H   0  0  0  0  0  0  0  0  0  0  0  0
   -2.0550    1.0251   -2.6506 H   0  0  0  0  0  0  0  0  0  0  0  0
   -0.4722    2.7250   -1.0122 H   0  0  0  0  0  0  0  0  0  0  0  0
   -3.8076   -0.3207   -1.7457 H   0  0  0  0  0  0  0  0  0  0  0  0
   -6.2474   -1.3628    0.7576 H   0  0  0  0  0  0  0  0  0  0  0  0
   -7.2336   -1.8404   -1.4310 H   0  0  0  0  0  0  0  0  0  0  0  0
   -5.5758    1.0390    3.2538 H   0  0  0  0  0  0  0  0  0  0  0  0
   -3.5018    2.1405    2.5457 H   0  0  0  0  0  0  0  0  0  0  0  0
   -1.7866    2.4714    0.8364 H   0  0  0  0  0  0  0  0  0  0  0  0
    2.8517    1.6540    1.6004 H   0  0  0  0  0  0  0  0  0  0  0  0
    5.0459    2.1541    0.6075 H   0  0  0  0  0  0  0  0  0  0  0  0
  1  2  1  0
  2  3  1  0
  3  4  2  0
  4  5  1  0
  5  6  2  0
  6  7  1  0
  7  8  1  0
  8  9  1  0
  8 10  1  0
 10 11  1  0
 11 12  1  0
 12 13  1  0
 12 14  1  0
 14 15  2  0
 15 16  1  0
 16 17  1  0
 17 18  1  0
 18 19  2  0
 16 20  2  0
 20 21  1  0
 20 22  1  0
 22 23  2  0
  6 24  1  0
 24 25  2  0
 25  3  1  0
 23 14  1  0
  1 26  1  0
  1 27  1  0
  1 28  1  0
  4 29  1  0
  5 30  1  0
  7 31  1  0
  7 32  1  0
  8 33  1  6
  9 34  1  0
  9 35  1  0
  9 36  1  0
 10 37  1  0
 11 38  1  0
 11 39  1  0
 12 40  1  6
 13 41  1  0
 15 42  1  0
 17 43  1  0
 18 44  1  0
 21 45  1  0
 22 46  1  0
 23 47  1  0
 24 48  1  0
 25 49  1  0
M  END
$$$$
