
     RDKit          3D

 29 30  0  0  0  0  0  0  0  0999 V2000
   -0.9716   -2.4037   -0.6947 C   0  0  0  0  0  0  0  0  0  0  0  0
   -1.1794   -1.0090   -0.2883 N   0  0  0  0  0  0  0  0  0  0  0  0
   -0.4006   -0.4960    0.8596 C   0  0  0  0  0  0  0  0  0  0  0  0
    1.0373   -0.2252    0.4671 C   0  0  0  0  0  0  0  0  0  0  0  0
    2.0759   -0.5524    1.3572 C   0  0  0  0  0  0  0  0  0  0  0  0
    3.4062   -0.2785    1.0262 C   0  0  0  0  0  0  0  0  0  0  0  0
    3.7141    0.3342   -0.1918 C   0  0  0  0  0  0  0  0  0  0  0  0
    5.3837    0.6787   -0.6045 Cl  0  0  0  0  0  0  0  0  0  0  0  0
    2.6889    0.6771   -1.0778 C   0  0  0  0  0  0  0  0  0  0  0  0
    1.3575    0.4051   -0.7502 C   0  0  0  0  0  0  0  0  0  0  0  0
   -1.1413    0.9536    1.6250 S   0  0  0  0  0  6  0  0  0  0  0  0
   -1.5057    0.6394    3.0488 O   0  0  0  0  0  0  0  0  0  0  0  0
   -0.1825    2.1123    1.6086 O   0  0  0  0  0  0  0  0  0  0  0  0
   -2.6079    1.4039    0.7364 C   0  0  0  0  0  0  0  0  0  0  0  0
   -2.3500    1.2448   -0.7514 C   0  0  0  0  0  0  0  0  0  0  0  0
   -2.0609   -0.1885   -1.0930 C   0  0  0  0  0  0  0  0  0  0  0  0
   -2.5926   -0.6720   -2.1300 O   0  0  0  0  0  0  0  0  0  0  0  0
   -0.2432   -2.9172   -0.0310 H   0  0  0  0  0  0  0  0  0  0  0  0
   -1.9347   -2.9545   -0.6496 H   0  0  0  0  0  0  0  0  0  0  0  0
   -0.5747   -2.4386   -1.7315 H   0  0  0  0  0  0  0  0  0  0  0  0
   -0.4104   -1.2816    1.6476 H   0  0  0  0  0  0  0  0  0  0  0  0
    1.8564   -1.0180    2.3100 H   0  0  0  0  0  0  0  0  0  0  0  0
    4.1960   -0.5397    1.7189 H   0  0  0  0  0  0  0  0  0  0  0  0
    2.9220    1.1573   -2.0197 H   0  0  0  0  0  0  0  0  0  0  0  0
    0.5829    0.6858   -1.4495 H   0  0  0  0  0  0  0  0  0  0  0  0
   -2.8673    2.4593    0.9651 H   0  0  0  0  0  0  0  0  0  0  0  0
   -3.4508    0.7516    1.0515 H   0  0  0  0  0  0  0  0  0  0  0  0
   -3.2507    1.5883   -1.3055 H   0  0  0  0  0  0  0  0  0  0  0  0
   -1.4967    1.8837   -1.0636 H   0  0  0  0  0  0  0  0  0  0  0  0
  1  2  1  0
  2  3  1  0
  3  4  1  0
  4  5  2  0
  5  6  1  0
  6  7  2  0
  7  8  1  0
  7  9  1  0
  9 10  2  0
  3 11  1  0
 11 12  2  0
 11 13  2  0
 11 14  1  0
 14 15  1  0
 15 16  1  0
 16 17  2  0
 16  2  1  0
 10  4  1  0
  1 18  1  0
  1 19  1  0
  1 20  1  0
  3 21  1  0
  5 22  1  0
  6 23  1  0
  9 24  1  0
 10 25  1  0
 14 26  1  0
 14 27  1  0
 15 28  1  0
 15 29  1  0
M  END
$$$$
