
     RDKit          3D

 28 29  0  0  0  0  0  0  0  0999 V2000
   -2.7590    1.1272    1.6956 C   0  0  0  0  0  0  0  0  0  0  0  0
   -2.3138    0.0772    0.7156 C   0  0  0  0  0  0  0  0  0  0  0  0
   -0.9734   -0.0125    0.3270 C   0  0  0  0  0  0  0  0  0  0  0  0
   -0.5635   -0.9574   -0.5741 N   0  0  0  0  0  0  0  0  0  0  0  0
    0.8553   -1.0151   -0.9818 C   0  0  2  0  0  0  0  0  0  0  0  0
    1.7141   -0.7791    0.1216 O   0  0  0  0  0  0  0  0  0  0  0  0
    2.6649    0.1802   -0.3067 C   0  0  2  0  0  0  0  0  0  0  0  0
    2.7991    1.3018    0.7280 C   0  0  0  0  0  0  0  0  0  0  0  0
    3.1708    0.7761    1.9732 O   0  0  0  0  0  0  0  0  0  0  0  0
    2.1924    0.7114   -1.6094 C   0  0  0  0  0  0  0  0  0  0  0  0
    1.1492    0.0264   -1.9958 C   0  0  0  0  0  0  0  0  0  0  0  0
   -1.4911   -1.7968   -1.1400 C   0  0  0  0  0  0  0  0  0  0  0  0
   -1.1443   -2.6500   -2.0030 O   0  0  0  0  0  0  0  0  0  0  0  0
   -2.8015   -1.7153   -0.7814 N   0  0  0  0  0  0  0  0  0  0  0  0
   -3.2299   -0.8013    0.1271 C   0  0  0  0  0  0  0  0  0  0  0  0
   -4.4530   -0.7477    0.4301 O   0  0  0  0  0  0  0  0  0  0  0  0
   -1.8928    1.5859    2.2187 H   0  0  0  0  0  0  0  0  0  0  0  0
   -3.4224    0.6757    2.4632 H   0  0  0  0  0  0  0  0  0  0  0  0
   -3.3136    1.9243    1.1577 H   0  0  0  0  0  0  0  0  0  0  0  0
   -0.2592    0.6815    0.7503 H   0  0  0  0  0  0  0  0  0  0  0  0
    1.1128   -2.0109   -1.4049 H   0  0  0  0  0  0  0  0  0  0  0  0
    3.6495   -0.3162   -0.4507 H   0  0  0  0  0  0  0  0  0  0  0  0
    3.5528    2.0481    0.3866 H   0  0  0  0  0  0  0  0  0  0  0  0
    1.8300    1.8316    0.8429 H   0  0  0  0  0  0  0  0  0  0  0  0
    4.1347    0.5467    1.9083 H   0  0  0  0  0  0  0  0  0  0  0  0
    2.6597    1.5043   -2.1846 H   0  0  0  0  0  0  0  0  0  0  0  0
    0.6266    0.1685   -2.9361 H   0  0  0  0  0  0  0  0  0  0  0  0
   -3.4944   -2.3646   -1.2200 H   0  0  0  0  0  0  0  0  0  0  0  0
  1  2  1  0
  2  3  2  0
  3  4  1  0
  4  5  1  0
  5  6  1  0
  6  7  1  0
  7  8  1  0
  8  9  1  0
  7 10  1  0
 10 11  2  0
  4 12  1  0
 12 13  2  0
 12 14  1  0
 14 15  1  0
 15 16  2  0
 15  2  1  0
 11  5  1  0
  1 17  1  0
  1 18  1  0
  1 19  1  0
  3 20  1  0
  5 21  1  6
  7 22  1  6
  8 23  1  0
  8 24  1  0
  9 25  1  0
 10 26  1  0
 11 27  1  0
 14 28  1  0
M  END
$$$$
