
     RDKit          3D

 44 47  0  0  0  0  0  0  0  0999 V2000
   -4.0828   -1.7572    4.0403 Cl  0  0  0  0  0  0  0  0  0  0  0  0
   -4.7356   -0.7643    2.7501 C   0  0  0  0  0  0  0  0  0  0  0  0
   -4.0312   -0.6267    1.5490 C   0  0  0  0  0  0  0  0  0  0  0  0
   -4.5421    0.1768    0.5152 C   0  0  0  0  0  0  0  0  0  0  0  0
   -5.7847    0.8086    0.6870 C   0  0  0  0  0  0  0  0  0  0  0  0
   -6.4874    0.6674    1.8874 C   0  0  0  0  0  0  0  0  0  0  0  0
   -5.9623   -0.1145    2.9195 C   0  0  0  0  0  0  0  0  0  0  0  0
   -3.8137    0.3135   -0.7625 C   0  0  0  0  0  0  0  0  0  0  0  0
   -4.3676    0.2078   -2.0228 C   0  0  0  0  0  0  0  0  0  0  0  0
   -3.3784    0.2684   -2.9305 N   0  0  0  0  0  0  0  0  0  0  0  0
   -2.2152    0.4172   -2.3179 N   0  0  0  0  0  0  0  0  0  0  0  0
   -2.4478    0.4536   -0.9904 C   0  0  0  0  0  0  0  0  0  0  0  0
   -1.3810    0.6934   -0.0021 C   0  0  0  0  0  0  0  0  0  0  0  0
   -1.5048    1.2928    1.2378 C   0  0  0  0  0  0  0  0  0  0  0  0
   -0.2957    1.3895    1.8178 N   0  0  0  0  0  0  0  0  0  0  0  0
    0.6037    0.8708    0.9572 C   0  0  0  0  0  0  0  0  0  0  0  0
   -0.0364    0.4366   -0.1926 C   0  0  0  0  0  0  0  0  0  0  0  0
    2.0534    0.8111    1.2347 C   0  0  0  0  0  0  0  0  0  0  0  0
    2.4859    1.2753    2.3246 O   0  0  0  0  0  0  0  0  0  0  0  0
    2.9717    0.2360    0.2925 N   0  0  0  0  0  0  0  0  0  0  0  0
    4.4076    0.1880    0.5672 C   0  0  0  0  0  0  0  0  0  0  0  0
    5.1452   -0.4591   -0.5739 C   0  0  0  0  0  0  0  0  0  0  0  0
    5.3274   -1.8518   -0.6004 C   0  0  0  0  0  0  0  0  0  0  0  0
    5.9789   -2.4559   -1.6803 C   0  0  0  0  0  0  0  0  0  0  0  0
    6.4416   -1.6767   -2.7444 C   0  0  0  0  0  0  0  0  0  0  0  0
    6.2493   -0.2924   -2.7325 C   0  0  0  0  0  0  0  0  0  0  0  0
    5.5982    0.3157   -1.6545 C   0  0  0  0  0  0  0  0  0  0  0  0
   -3.0933   -1.1526    1.4200 H   0  0  0  0  0  0  0  0  0  0  0  0
   -6.2036    1.4205   -0.1023 H   0  0  0  0  0  0  0  0  0  0  0  0
   -7.4399    1.1647    2.0176 H   0  0  0  0  0  0  0  0  0  0  0  0
   -6.5112   -0.2193    3.8467 H   0  0  0  0  0  0  0  0  0  0  0  0
   -5.4127    0.0595   -2.2620 H   0  0  0  0  0  0  0  0  0  0  0  0
   -3.4919    0.2029   -3.9660 H   0  0  0  0  0  0  0  0  0  0  0  0
   -2.4166    1.6692    1.6818 H   0  0  0  0  0  0  0  0  0  0  0  0
   -0.0983    1.8074    2.7543 H   0  0  0  0  0  0  0  0  0  0  0  0
    0.4082   -0.0088   -1.0719 H   0  0  0  0  0  0  0  0  0  0  0  0
    2.6117   -0.1596   -0.6043 H   0  0  0  0  0  0  0  0  0  0  0  0
    4.5860   -0.3830    1.5044 H   0  0  0  0  0  0  0  0  0  0  0  0
    4.7885    1.2207    0.7253 H   0  0  0  0  0  0  0  0  0  0  0  0
    4.9642   -2.4678    0.2130 H   0  0  0  0  0  0  0  0  0  0  0  0
    6.1215   -3.5288   -1.6941 H   0  0  0  0  0  0  0  0  0  0  0  0
    6.9443   -2.1460   -3.5801 H   0  0  0  0  0  0  0  0  0  0  0  0
    6.6011    0.3092   -3.5607 H   0  0  0  0  0  0  0  0  0  0  0  0
    5.4460    1.3880   -1.6623 H   0  0  0  0  0  0  0  0  0  0  0  0
  1  2  1  0
  2  3  2  0
  3  4  1  0
  4  5  2  0
  5  6  1  0
  6  7  2  0
  4  8  1  0
  8  9  2  0
  9 10  1  0
 10 11  1  0
 11 12  2  0
 12 13  1  0
 13 14  2  0
 14 15  1  0
 15 16  1  0
 16 17  2  0
 16 18  1  0
 18 19  2  0
 18 20  1  0
 20 21  1  0
 21 22  1  0
 22 23  2  0
 23 24  1  0
 24 25  2  0
 25 26  1  0
 26 27  2  0
  7  2  1  0
 12  8  1  0
 17 13  1  0
 27 22  1  0
  3 28  1  0
  5 29  1  0
  6 30  1  0
  7 31  1  0
  9 32  1  0
 10 33  1  0
 14 34  1  0
 15 35  1  0
 17 36  1  0
 20 37  1  0
 21 38  1  0
 21 39  1  0
 23 40  1  0
 24 41  1  0
 25 42  1  0
 26 43  1  0
 27 44  1  0
M  END
$$$$
