
     RDKit          3D

150151  0  0  0  0  0  0  0  0999 V2000
   -1.6339    3.6581    0.4124 C   0  0  0  0  0  0  0  0  0  0  0  0
   -2.0360    2.4467    0.8095 C   0  0  0  0  0  0  0  0  0  0  0  0
   -1.1436    1.2827    0.8089 C   0  0  0  0  0  0  0  0  0  0  0  0
   -1.6377    0.1372    0.9897 O   0  0  0  0  0  0  0  0  0  0  0  0
    0.2357    1.4449    0.6252 O   0  0  0  0  0  0  0  0  0  0  0  0
    1.1470    0.3536    0.4457 C   0  0  2  0  0  0  0  0  0  0  0  0
    2.4915    0.6663    1.2066 C   0  0  1  0  0  0  0  0  0  0  0  0
    2.1764    1.4474    2.5076 C   0  0  0  0  0  0  0  0  0  0  0  0
    3.3265   -0.6178    1.5636 C   0  0  1  0  0  0  0  0  0  0  0  0
    3.2636   -1.5698    0.5117 O   0  0  0  0  0  0  0  0  0  0  0  0
    2.8019   -2.8230    0.9751 C   0  0  0  0  0  0  0  0  0  0  0  0
    4.8315   -0.2968    1.8623 C   0  0  1  0  0  0  0  0  0  0  0  0
    5.4719   -1.4391    2.6738 C   0  0  0  0  0  0  0  0  0  0  0  0
    5.6431   -0.0178    0.5681 C   0  0  0  0  0  0  0  0  0  0  0  0
    7.0608    0.5052    0.8470 C   0  0  0  0  0  0  0  0  0  0  0  0
    7.7435    0.9077   -0.4403 C   0  0  0  0  0  0  0  0  0  0  0  0
    7.3947    1.9515   -0.9730 O   0  0  0  0  0  0  0  0  0  0  0  0
    8.8506    0.0977   -1.1025 C   0  0  2  0  0  0  0  0  0  0  0  0
    8.8072   -1.4047   -0.7751 C   0  0  0  0  0  0  0  0  0  0  0  0
   10.2481    0.7463   -0.8791 C   0  0  1  0  0  0  0  0  0  0  0  0
   10.7408    0.6851    0.5933 C   0  0  0  0  0  0  0  0  0  0  0  0
   11.7019   -0.4781    0.8941 C   0  0  0  0  0  0  0  0  0  0  0  0
   11.9773   -0.5620    2.3620 C   0  0  0  0  0  0  0  0  0  0  0  0
   11.1292   -1.2976    3.1838 O   0  0  0  0  0  0  0  0  0  0  0  0
   12.9500    0.0655    2.8599 O   0  0  0  0  0  0  0  0  0  0  0  0
   11.2024    0.1362   -1.7393 O   0  0  0  0  0  0  0  0  0  0  0  0
   11.4392    0.9294   -2.8819 C   0  0  0  0  0  0  0  0  0  0  0  0
    1.2351    0.0779   -1.1003 C   0  0  1  0  0  0  0  0  0  0  0  0
    2.4368    0.7120   -1.8120 C   0  0  0  0  0  0  0  0  0  0  0  0
    1.1408   -1.3928   -1.4331 C   0  0  0  0  0  0  0  0  0  0  0  0
   -0.0316   -2.0460   -1.3954 C   0  0  0  0  0  0  0  0  0  0  0  0
   -0.1051   -3.5262   -1.6842 C   0  0  1  0  0  0  0  0  0  0  0  0
   -1.5792   -4.0196   -1.7410 C   0  0  0  0  0  0  0  0  0  0  0  0
   -1.9848   -4.9751   -0.5822 C   0  0  2  0  0  0  0  0  0  0  0  0
   -3.0541   -5.7970   -1.0305 O   0  0  0  0  0  0  0  0  0  0  0  0
   -2.5884   -7.0648   -1.4408 C   0  0  0  0  0  0  0  0  0  0  0  0
   -2.4522   -4.2490    0.7170 C   0  0  1  0  0  0  0  0  0  0  0  0
   -1.2819   -3.6700    1.5252 C   0  0  0  0  0  0  0  0  0  0  0  0
   -3.4999   -3.1817    0.4669 C   0  0  0  0  0  0  0  0  0  0  0  0
   -4.7398   -3.4881    0.0485 C   0  0  0  0  0  0  0  0  0  0  0  0
   -5.7846   -2.4320   -0.2325 C   0  0  2  0  0  0  0  0  0  0  0  0
   -5.3138   -1.4851   -1.3572 C   0  0  0  0  0  0  0  0  0  0  0  0
   -6.4668   -0.6037   -1.9303 C   0  0  2  0  0  0  0  0  0  0  0  0
   -6.6290   -0.9153   -3.3079 O   0  0  0  0  0  0  0  0  0  0  0  0
   -7.5898   -1.9334   -3.4850 C   0  0  0  0  0  0  0  0  0  0  0  0
   -6.1594    0.9216   -1.7901 C   0  0  1  0  0  0  0  0  0  0  0  0
   -7.0895    1.7557   -2.6946 C   0  0  0  0  0  0  0  0  0  0  0  0
   -6.2375    1.3827   -0.3007 C   0  0  1  0  0  0  0  0  0  0  0  0
   -5.6200    2.7769   -0.0408 C   0  0  0  0  0  0  0  0  0  0  0  0
   -6.5840    3.9223   -0.2305 C   0  0  0  0  0  0  0  0  0  0  0  0
   -6.0276    5.3066   -0.4536 C   0  0  0  0  0  0  0  0  0  0  0  0
   -5.7420    6.0365    0.8872 C   0  0  1  0  0  0  0  0  0  0  0  0
   -4.2593    6.4553    1.0029 C   0  0  0  0  0  0  0  0  0  0  0  0
   -3.3509    5.2726    1.2717 C   0  0  0  0  0  0  0  0  0  0  0  0
   -3.2991    4.7138    2.6723 C   0  0  0  0  0  0  0  0  0  0  0  0
   -2.5677    4.7955    0.2823 C   0  0  0  0  0  0  0  0  0  0  0  0
   -6.5468    7.2057    0.9359 O   0  0  0  0  0  0  0  0  0  0  0  0
   -7.1315    7.3643    2.2102 C   0  0  0  0  0  0  0  0  0  0  0  0
   -7.8936    3.7495   -0.0090 C   0  0  0  0  0  0  0  0  0  0  0  0
   -8.4195    2.4102    0.2762 C   0  0  0  0  0  0  0  0  0  0  0  0
   -9.6280    2.2595    0.5928 O   0  0  0  0  0  0  0  0  0  0  0  0
   -7.5755    1.2995    0.2036 O   0  0  0  0  0  0  0  0  0  0  0  0
   -6.0342   -1.6808    0.9429 O   0  0  0  0  0  0  0  0  0  0  0  0
   -7.0733   -2.2665    1.6958 C   0  0  0  0  0  0  0  0  0  0  0  0
    0.5199   -3.7640   -2.9365 O   0  0  0  0  0  0  0  0  0  0  0  0
    1.1921   -5.0049   -2.9261 C   0  0  0  0  0  0  0  0  0  0  0  0
   -0.6311    3.7901    0.0254 H   0  0  0  0  0  0  0  0  0  0  0  0
   -3.0648    2.2785    1.0830 H   0  0  0  0  0  0  0  0  0  0  0  0
    0.7171   -0.5400    0.9511 H   0  0  0  0  0  0  0  0  0  0  0  0
    3.0998    1.3588    0.5976 H   0  0  0  0  0  0  0  0  0  0  0  0
    1.7566    2.4484    2.2712 H   0  0  0  0  0  0  0  0  0  0  0  0
    3.0801    1.6291    3.1198 H   0  0  0  0  0  0  0  0  0  0  0  0
    1.4426    0.8893    3.1283 H   0  0  0  0  0  0  0  0  0  0  0  0
    2.8735   -1.0084    2.5102 H   0  0  0  0  0  0  0  0  0  0  0  0
    1.7495   -2.7512    1.3245 H   0  0  0  0  0  0  0  0  0  0  0  0
    3.4463   -3.2246    1.7854 H   0  0  0  0  0  0  0  0  0  0  0  0
    2.8321   -3.5457    0.1345 H   0  0  0  0  0  0  0  0  0  0  0  0
    4.8922    0.6083    2.4988 H   0  0  0  0  0  0  0  0  0  0  0  0
    5.6505   -2.3289    2.0338 H   0  0  0  0  0  0  0  0  0  0  0  0
    4.8218   -1.7309    3.5256 H   0  0  0  0  0  0  0  0  0  0  0  0
    6.4393   -1.1147    3.1096 H   0  0  0  0  0  0  0  0  0  0  0  0
    5.7084   -0.9425   -0.0453 H   0  0  0  0  0  0  0  0  0  0  0  0
    5.1205    0.7478   -0.0377 H   0  0  0  0  0  0  0  0  0  0  0  0
    7.0083    1.3947    1.5118 H   0  0  0  0  0  0  0  0  0  0  0  0
    7.6506   -0.2604    1.3823 H   0  0  0  0  0  0  0  0  0  0  0  0
    8.6462    0.1549   -2.1951 H   0  0  0  0  0  0  0  0  0  0  0  0
    7.8080   -1.8186   -1.0262 H   0  0  0  0  0  0  0  0  0  0  0  0
    9.5601   -1.9477   -1.3848 H   0  0  0  0  0  0  0  0  0  0  0  0
    9.0146   -1.6076    0.2933 H   0  0  0  0  0  0  0  0  0  0  0  0
   10.1262    1.8375   -1.0985 H   0  0  0  0  0  0  0  0  0  0  0  0
   11.2828    1.6305    0.8193 H   0  0  0  0  0  0  0  0  0  0  0  0
    9.8776    0.6491    1.2899 H   0  0  0  0  0  0  0  0  0  0  0  0
   11.2788   -1.4445    0.5555 H   0  0  0  0  0  0  0  0  0  0  0  0
   12.6604   -0.3219    0.3525 H   0  0  0  0  0  0  0  0  0  0  0  0
   11.2906   -1.3506    4.1824 H   0  0  0  0  0  0  0  0  0  0  0  0
   10.4976    1.1321   -3.4384 H   0  0  0  0  0  0  0  0  0  0  0  0
   12.1213    0.3782   -3.5609 H   0  0  0  0  0  0  0  0  0  0  0  0
   11.9377    1.8831   -2.6009 H   0  0  0  0  0  0  0  0  0  0  0  0
    0.3474    0.5520   -1.5795 H   0  0  0  0  0  0  0  0  0  0  0  0
    2.4824    1.8011   -1.5990 H   0  0  0  0  0  0  0  0  0  0  0  0
    3.3840    0.2250   -1.5062 H   0  0  0  0  0  0  0  0  0  0  0  0
    2.3313    0.5880   -2.9113 H   0  0  0  0  0  0  0  0  0  0  0  0
    2.0369   -1.9261   -1.7401 H   0  0  0  0  0  0  0  0  0  0  0  0
   -0.9318   -1.4992   -1.1276 H   0  0  0  0  0  0  0  0  0  0  0  0
    0.4408   -4.0196   -0.8444 H   0  0  0  0  0  0  0  0  0  0  0  0
   -2.2978   -3.1786   -1.8351 H   0  0  0  0  0  0  0  0  0  0  0  0
   -1.7121   -4.5795   -2.6927 H   0  0  0  0  0  0  0  0  0  0  0  0
   -1.0941   -5.5897   -0.3002 H   0  0  0  0  0  0  0  0  0  0  0  0
   -3.4386   -7.6325   -1.8710 H   0  0  0  0  0  0  0  0  0  0  0  0
   -1.8066   -6.9771   -2.2272 H   0  0  0  0  0  0  0  0  0  0  0  0
   -2.2012   -7.6401   -0.5714 H   0  0  0  0  0  0  0  0  0  0  0  0
   -2.9147   -5.0201    1.3740 H   0  0  0  0  0  0  0  0  0  0  0  0
   -1.6428   -3.3390    2.5226 H   0  0  0  0  0  0  0  0  0  0  0  0
   -0.8352   -2.7932    1.0205 H   0  0  0  0  0  0  0  0  0  0  0  0
   -0.4960   -4.4383    1.6847 H   0  0  0  0  0  0  0  0  0  0  0  0
   -3.2418   -2.1404    0.6390 H   0  0  0  0  0  0  0  0  0  0  0  0
   -5.0213   -4.5268   -0.0922 H   0  0  0  0  0  0  0  0  0  0  0  0
   -6.6968   -2.9572   -0.6059 H   0  0  0  0  0  0  0  0  0  0  0  0
   -4.8838   -2.1015   -2.1790 H   0  0  0  0  0  0  0  0  0  0  0  0
   -4.4709   -0.8617   -0.9879 H   0  0  0  0  0  0  0  0  0  0  0  0
   -7.4096   -0.7826   -1.3565 H   0  0  0  0  0  0  0  0  0  0  0  0
   -7.3032   -2.8604   -2.9431 H   0  0  0  0  0  0  0  0  0  0  0  0
   -7.6468   -2.1809   -4.5646 H   0  0  0  0  0  0  0  0  0  0  0  0
   -8.5980   -1.5884   -3.1658 H   0  0  0  0  0  0  0  0  0  0  0  0
   -5.1226    1.0929   -2.1575 H   0  0  0  0  0  0  0  0  0  0  0  0
   -8.1545    1.5925   -2.4265 H   0  0  0  0  0  0  0  0  0  0  0  0
   -6.9492    1.4810   -3.7609 H   0  0  0  0  0  0  0  0  0  0  0  0
   -6.8499    2.8346   -2.6231 H   0  0  0  0  0  0  0  0  0  0  0  0
   -5.6201    0.6837    0.2958 H   0  0  0  0  0  0  0  0  0  0  0  0
   -4.7194    2.9186   -0.6754 H   0  0  0  0  0  0  0  0  0  0  0  0
   -5.2966    2.8154    1.0199 H   0  0  0  0  0  0  0  0  0  0  0  0
   -5.1114    5.2284   -1.0771 H   0  0  0  0  0  0  0  0  0  0  0  0
   -6.7435    5.8930   -1.0720 H   0  0  0  0  0  0  0  0  0  0  0  0
   -5.9592    5.3350    1.7330 H   0  0  0  0  0  0  0  0  0  0  0  0
   -3.9511    7.0089    0.0880 H   0  0  0  0  0  0  0  0  0  0  0  0
   -4.1482    7.1764    1.8414 H   0  0  0  0  0  0  0  0  0  0  0  0
   -3.8597    5.3625    3.3779 H   0  0  0  0  0  0  0  0  0  0  0  0
   -3.7617    3.7085    2.7103 H   0  0  0  0  0  0  0  0  0  0  0  0
   -2.2475    4.6564    3.0245 H   0  0  0  0  0  0  0  0  0  0  0  0
   -2.5545    5.3098   -0.6708 H   0  0  0  0  0  0  0  0  0  0  0  0
   -7.8620    6.5497    2.4107 H   0  0  0  0  0  0  0  0  0  0  0  0
   -6.3579    7.3986    3.0094 H   0  0  0  0  0  0  0  0  0  0  0  0
   -7.6827    8.3266    2.2306 H   0  0  0  0  0  0  0  0  0  0  0  0
   -8.5740    4.5924   -0.0403 H   0  0  0  0  0  0  0  0  0  0  0  0
   -8.0421   -2.1891    1.1548 H   0  0  0  0  0  0  0  0  0  0  0  0
   -7.1751   -1.7107    2.6502 H   0  0  0  0  0  0  0  0  0  0  0  0
   -6.8482   -3.3278    1.9434 H   0  0  0  0  0  0  0  0  0  0  0  0
    2.0701   -4.9689   -2.2444 H   0  0  0  0  0  0  0  0  0  0  0  0
    1.5664   -5.2139   -3.9490 H   0  0  0  0  0  0  0  0  0  0  0  0
    0.5118   -5.8368   -2.6374 H   0  0  0  0  0  0  0  0  0  0  0  0
  1  2  2  0
  2  3  1  0
  3  4  2  0
  3  5  1  0
  5  6  1  0
  6  7  1  0
  7  8  1  0
  7  9  1  0
  9 10  1  0
 10 11  1  0
  9 12  1  0
 12 13  1  0
 12 14  1  0
 14 15  1  0
 15 16  1  0
 16 17  2  0
 16 18  1  0
 18 19  1  0
 18 20  1  0
 20 21  1  0
 21 22  1  0
 22 23  1  0
 23 24  1  0
 23 25  2  0
 20 26  1  0
 26 27  1  0
  6 28  1  0
 28 29  1  0
 28 30  1  0
 30 31  2  0
 31 32  1  0
 32 33  1  0
 33 34  1  0
 34 35  1  0
 35 36  1  0
 34 37  1  0
 37 38  1  0
 37 39  1  0
 39 40  2  0
 40 41  1  0
 41 42  1  0
 42 43  1  0
 43 44  1  0
 44 45  1  0
 43 46  1  0
 46 47  1  0
 46 48  1  0
 48 49  1  0
 49 50  1  0
 50 51  1  0
 51 52  1  0
 52 53  1  0
 53 54  1  0
 54 55  1  0
 54 56  2  0
 52 57  1  0
 57 58  1  0
 50 59  2  0
 59 60  1  0
 60 61  2  0
 60 62  1  0
 41 63  1  0
 63 64  1  0
 32 65  1  0
 65 66  1  0
 56  1  1  0
 62 48  1  0
  1 67  1  0
  2 68  1  0
  6 69  1  1
  7 70  1  6
  8 71  1  0
  8 72  1  0
  8 73  1  0
  9 74  1  1
 11 75  1  0
 11 76  1  0
 11 77  1  0
 12 78  1  1
 13 79  1  0
 13 80  1  0
 13 81  1  0
 14 82  1  0
 14 83  1  0
 15 84  1  0
 15 85  1  0
 18 86  1  6
 19 87  1  0
 19 88  1  0
 19 89  1  0
 20 90  1  6
 21 91  1  0
 21 92  1  0
 22 93  1  0
 22 94  1  0
 24 95  1  0
 27 96  1  0
 27 97  1  0
 27 98  1  0
 28 99  1  6
 29100  1  0
 29101  1  0
 29102  1  0
 30103  1  0
 31104  1  0
 32105  1  1
 33106  1  0
 33107  1  0
 34108  1  1
 36109  1  0
 36110  1  0
 36111  1  0
 37112  1  1
 38113  1  0
 38114  1  0
 38115  1  0
 39116  1  0
 40117  1  0
 41118  1  6
 42119  1  0
 42120  1  0
 43121  1  1
 45122  1  0
 45123  1  0
 45124  1  0
 46125  1  6
 47126  1  0
 47127  1  0
 47128  1  0
 48129  1  1
 49130  1  0
 49131  1  0
 51132  1  0
 51133  1  0
 52134  1  1
 53135  1  0
 53136  1  0
 55137  1  0
 55138  1  0
 55139  1  0
 56140  1  0
 58141  1  0
 58142  1  0
 58143  1  0
 59144  1  0
 64145  1  0
 64146  1  0
 64147  1  0
 66148  1  0
 66149  1  0
 66150  1  0
M  END
$$$$
