
     RDKit          3D

 34 36  0  0  0  0  0  0  0  0999 V2000
    4.8997    0.0121    0.0976 F   0  0  0  0  0  0  0  0  0  0  0  0
    4.4275    0.7349    1.1449 C   0  0  0  0  0  0  0  0  0  0  0  0
    5.3335    1.1918    2.1082 C   0  0  0  0  0  0  0  0  0  0  0  0
    4.8865    1.9515    3.1907 C   0  0  0  0  0  0  0  0  0  0  0  0
    3.5305    2.2566    3.3159 C   0  0  0  0  0  0  0  0  0  0  0  0
    2.6180    1.8052    2.3580 C   0  0  0  0  0  0  0  0  0  0  0  0
    3.0543    1.0427    1.2572 C   0  0  0  0  0  0  0  0  0  0  0  0
    2.0767    0.5588    0.2508 C   0  0  0  0  0  0  0  0  0  0  0  0
    2.3660   -0.4271   -0.4810 O   0  0  0  0  0  0  0  0  0  0  0  0
    0.8170    1.2254    0.0753 N   0  0  0  0  0  0  0  0  0  0  0  0
   -0.3045    0.6243   -0.5855 C   0  0  0  0  0  0  0  0  0  0  0  0
   -0.7570   -0.6906   -0.4388 C   0  0  0  0  0  0  0  0  0  0  0  0
   -0.1637   -1.6548    0.4541 C   0  0  0  0  0  0  0  0  0  0  0  0
    0.3110   -2.4291    1.1712 N   0  0  0  0  0  0  0  0  0  0  0  0
   -1.9232   -0.9471   -1.1816 C   0  0  0  0  0  0  0  0  0  0  0  0
   -2.4019    0.1762   -1.8498 C   0  0  0  0  0  0  0  0  0  0  0  0
   -3.5947    0.1767   -2.7567 C   0  0  0  0  0  0  0  0  0  0  0  0
   -4.5015   -1.0304   -2.4668 C   0  0  0  0  0  0  0  0  0  0  0  0
   -3.6818   -2.3260   -2.3406 C   0  0  0  0  0  0  0  0  0  0  0  0
   -2.6860   -2.2469   -1.1698 C   0  0  0  0  0  0  0  0  0  0  0  0
   -1.3689    1.4737   -1.5758 S   0  0  0  0  0  0  0  0  0  0  0  0
    6.3862    0.9578    2.0144 H   0  0  0  0  0  0  0  0  0  0  0  0
    5.5911    2.3020    3.9338 H   0  0  0  0  0  0  0  0  0  0  0  0
    3.1843    2.8398    4.1594 H   0  0  0  0  0  0  0  0  0  0  0  0
    1.5697    2.0386    2.4924 H   0  0  0  0  0  0  0  0  0  0  0  0
    0.7626    2.2473    0.2844 H   0  0  0  0  0  0  0  0  0  0  0  0
   -4.1703    1.1166   -2.6187 H   0  0  0  0  0  0  0  0  0  0  0  0
   -3.2408    0.1303   -3.8088 H   0  0  0  0  0  0  0  0  0  0  0  0
   -5.0634   -0.8555   -1.5228 H   0  0  0  0  0  0  0  0  0  0  0  0
   -5.2407   -1.1388   -3.2894 H   0  0  0  0  0  0  0  0  0  0  0  0
   -4.3694   -3.1838   -2.1784 H   0  0  0  0  0  0  0  0  0  0  0  0
   -3.1278   -2.5065   -3.2882 H   0  0  0  0  0  0  0  0  0  0  0  0
   -1.9789   -3.1013   -1.2361 H   0  0  0  0  0  0  0  0  0  0  0  0
   -3.2402   -2.3244   -0.2097 H   0  0  0  0  0  0  0  0  0  0  0  0
  1  2  1  0
  2  3  2  0
  3  4  1  0
  4  5  2  0
  5  6  1  0
  6  7  2  0
  7  8  1  0
  8  9  2  0
  8 10  1  0
 10 11  1  0
 11 12  2  0
 12 13  1  0
 13 14  3  0
 12 15  1  0
 15 16  2  0
 16 17  1  0
 17 18  1  0
 18 19  1  0
 19 20  1  0
 16 21  1  0
  7  2  1  0
 21 11  1  0
 20 15  1  0
  3 22  1  0
  4 23  1  0
  5 24  1  0
  6 25  1  0
 10 26  1  0
 17 27  1  0
 17 28  1  0
 18 29  1  0
 18 30  1  0
 19 31  1  0
 19 32  1  0
 20 33  1  0
 20 34  1  0
M  END
$$$$
