
     RDKit          3D

 73 77  0  0  0  0  0  0  0  0999 V2000
   -5.3396   -3.4355    4.6155 N   0  0  0  0  0  0  0  0  0  0  0  0
   -4.9669   -2.4126    3.6871 C   0  0  0  0  0  0  0  0  0  0  0  0
   -3.7519   -2.0829    3.6089 O   0  0  0  0  0  0  0  0  0  0  0  0
   -5.9790   -1.7412    2.8253 C   0  0  0  0  0  0  0  0  0  0  0  0
   -5.5838   -0.8865    1.8646 C   0  0  0  0  0  0  0  0  0  0  0  0
   -6.5363   -0.2193    1.0162 N   0  0  0  0  0  0  0  0  0  0  0  0
   -7.9420   -0.3665    1.2648 C   0  0  0  0  0  0  0  0  0  0  0  0
   -8.3834   -1.1988    2.2050 C   0  0  0  0  0  0  0  0  0  0  0  0
   -7.4504   -2.0539    3.0176 C   0  0  0  0  0  0  0  0  0  0  0  0
   -6.0838    0.7294   -0.0104 C   0  0  2  0  0  0  0  0  0  0  0  0
   -4.9244    0.2452   -0.6545 O   0  0  0  0  0  0  0  0  0  0  0  0
   -4.0445    1.3342   -0.8551 C   0  0  2  0  0  0  0  0  0  0  0  0
   -2.7076    1.0261   -0.1703 C   0  0  0  0  0  0  0  0  0  0  0  0
   -1.7687    2.0206   -0.5069 O   0  0  0  0  0  0  0  0  0  0  0  0
   -0.2936    1.6446    0.2621 P   0  0  2  0  0  5  0  0  0  0  0  0
   -0.5249    1.6188    1.9390 O   0  0  0  0  0  0  0  0  0  0  0  0
    0.7228    2.7175   -0.0615 O   0  0  0  0  0  0  0  0  0  0  0  0
    0.2739    0.1145   -0.2283 O   0  0  0  0  0  0  0  0  0  0  0  0
    0.6712    0.2117   -1.8822 P   0  0  2  0  0  5  0  0  0  0  0  0
   -0.6402    0.8034   -2.7751 O   0  0  0  0  0  0  0  0  0  0  0  0
    0.9985   -1.1772   -2.3840 O   0  0  0  0  0  0  0  0  0  0  0  0
    2.0161    1.2343   -2.1224 O   0  0  0  0  0  0  0  0  0  0  0  0
    3.0940    0.7369   -1.3638 C   0  0  0  0  0  0  0  0  0  0  0  0
    4.3156    1.6428   -1.5578 C   0  0  1  0  0  0  0  0  0  0  0  0
    5.3322    1.2429   -0.6576 O   0  0  0  0  0  0  0  0  0  0  0  0
    6.4868    0.9455   -1.4099 C   0  0  2  0  0  0  0  0  0  0  0  0
    6.0643    0.6972   -2.8526 C   0  0  2  0  0  0  0  0  0  0  0  0
    7.0778    0.9733   -3.7916 O   0  0  0  0  0  0  0  0  0  0  0  0
    4.8498    1.5798   -2.9985 C   0  0  2  0  0  0  0  0  0  0  0  0
    5.2129    2.8651   -3.4355 O   0  0  0  0  0  0  0  0  0  0  0  0
    7.1652   -0.2282   -0.8572 N   0  0  0  0  0  0  0  0  0  0  0  0
    8.5026   -0.4617   -0.8245 C   0  0  0  0  0  0  0  0  0  0  0  0
    8.8255   -1.6896   -0.3312 N   0  0  0  0  0  0  0  0  0  0  0  0
    7.6209   -2.2275   -0.0619 C   0  0  0  0  0  0  0  0  0  0  0  0
    7.3062   -3.4847    0.4417 C   0  0  0  0  0  0  0  0  0  0  0  0
    8.3172   -4.4313    0.7880 N   0  0  0  0  0  0  0  0  0  0  0  0
    5.9831   -3.7935    0.5920 N   0  0  0  0  0  0  0  0  0  0  0  0
    4.9979   -2.8994    0.2564 C   0  0  0  0  0  0  0  0  0  0  0  0
    5.3198   -1.6671   -0.2400 N   0  0  0  0  0  0  0  0  0  0  0  0
    6.6323   -1.3619   -0.3817 C   0  0  0  0  0  0  0  0  0  0  0  0
   -4.6895    2.6162   -0.3037 C   0  0  1  0  0  0  0  0  0  0  0  0
   -5.2086    3.4147   -1.3432 O   0  0  0  0  0  0  0  0  0  0  0  0
   -5.7752    2.0860    0.6040 C   0  0  1  0  0  0  0  0  0  0  0  0
   -6.9150    2.9059    0.6163 O   0  0  0  0  0  0  0  0  0  0  0  0
   -4.6120   -3.8781    5.2198 H   0  0  0  0  0  0  0  0  0  0  0  0
   -6.3205   -3.7793    4.7005 H   0  0  0  0  0  0  0  0  0  0  0  0
   -4.5294   -0.6852    1.7229 H   0  0  0  0  0  0  0  0  0  0  0  0
   -8.6591    0.2076    0.6903 H   0  0  0  0  0  0  0  0  0  0  0  0
   -9.4498   -1.2964    2.3657 H   0  0  0  0  0  0  0  0  0  0  0  0
   -7.6307   -3.1153    2.7456 H   0  0  0  0  0  0  0  0  0  0  0  0
   -7.7115   -1.9152    4.0882 H   0  0  0  0  0  0  0  0  0  0  0  0
   -6.8724    0.8419   -0.7898 H   0  0  0  0  0  0  0  0  0  0  0  0
   -3.8546    1.4372   -1.9469 H   0  0  0  0  0  0  0  0  0  0  0  0
   -2.8700    0.9858    0.9309 H   0  0  0  0  0  0  0  0  0  0  0  0
   -2.3630    0.0284   -0.5261 H   0  0  0  0  0  0  0  0  0  0  0  0
   -0.9359    2.4947    2.1511 H   0  0  0  0  0  0  0  0  0  0  0  0
   -0.2853    0.9314   -3.6908 H   0  0  0  0  0  0  0  0  0  0  0  0
    2.8393    0.7336   -0.2796 H   0  0  0  0  0  0  0  0  0  0  0  0
    3.3610   -0.2972   -1.6799 H   0  0  0  0  0  0  0  0  0  0  0  0
    4.0141    2.6836   -1.3036 H   0  0  0  0  0  0  0  0  0  0  0  0
    7.1666    1.8250   -1.3454 H   0  0  0  0  0  0  0  0  0  0  0  0
    5.7476   -0.3633   -2.9741 H   0  0  0  0  0  0  0  0  0  0  0  0
    7.4689    1.8621   -3.5866 H   0  0  0  0  0  0  0  0  0  0  0  0
    4.1291    1.1224   -3.7174 H   0  0  0  0  0  0  0  0  0  0  0  0
    4.3704    3.3233   -3.6924 H   0  0  0  0  0  0  0  0  0  0  0  0
    9.2422    0.2497   -1.1688 H   0  0  0  0  0  0  0  0  0  0  0  0
    9.3298   -4.2026    0.6745 H   0  0  0  0  0  0  0  0  0  0  0  0
    8.0514   -5.3692    1.1619 H   0  0  0  0  0  0  0  0  0  0  0  0
    3.9592   -3.1717    0.3835 H   0  0  0  0  0  0  0  0  0  0  0  0
   -3.9738    3.2340    0.2827 H   0  0  0  0  0  0  0  0  0  0  0  0
   -5.8386    2.8618   -1.8763 H   0  0  0  0  0  0  0  0  0  0  0  0
   -5.3722    1.9592    1.6369 H   0  0  0  0  0  0  0  0  0  0  0  0
   -6.6786    3.7046    1.1562 H   0  0  0  0  0  0  0  0  0  0  0  0
  1  2  1  0
  2  3  2  0
  2  4  1  0
  4  5  2  0
  5  6  1  0
  6  7  1  0
  7  8  2  0
  8  9  1  0
  6 10  1  0
 10 11  1  0
 11 12  1  0
 12 13  1  0
 13 14  1  0
 15 14  1  6
 15 16  1  0
 15 17  2  0
 15 18  1  0
 19 18  1  1
 19 20  1  0
 19 21  2  0
 19 22  1  0
 22 23  1  0
 23 24  1  0
 24 25  1  0
 25 26  1  0
 26 27  1  0
 27 28  1  0
 27 29  1  0
 29 30  1  0
 26 31  1  0
 31 32  1  0
 32 33  2  0
 33 34  1  0
 34 35  2  0
 35 36  1  0
 35 37  1  0
 37 38  2  0
 38 39  1  0
 39 40  2  0
 12 41  1  0
 41 42  1  0
 41 43  1  0
 43 44  1  0
  9  4  1  0
 43 10  1  0
 29 24  1  0
 40 31  1  0
 40 34  1  0
  1 45  1  0
  1 46  1  0
  5 47  1  0
  7 48  1  0
  8 49  1  0
  9 50  1  0
  9 51  1  0
 10 52  1  6
 12 53  1  6
 13 54  1  0
 13 55  1  0
 16 56  1  0
 20 57  1  0
 23 58  1  0
 23 59  1  0
 24 60  1  1
 26 61  1  6
 27 62  1  1
 28 63  1  0
 29 64  1  6
 30 65  1  0
 32 66  1  0
 36 67  1  0
 36 68  1  0
 38 69  1  0
 41 70  1  1
 42 71  1  0
 43 72  1  1
 44 73  1  0
M  END
$$$$
