
     RDKit          3D

 63 64  0  0  0  0  0  0  0  0999 V2000
   -2.5127    0.5337    0.2386 C   0  0  2  0  0  0  0  0  0  0  0  0
   -3.2758    1.6797   -0.4525 C   0  0  0  0  0  0  0  0  0  0  0  0
   -4.4941    2.0922    0.3352 C   0  0  0  0  0  0  0  0  0  0  0  0
   -5.7598    1.5746    0.0111 C   0  0  0  0  0  0  0  0  0  0  0  0
   -6.8794    1.9240    0.7722 C   0  0  0  0  0  0  0  0  0  0  0  0
   -6.7434    2.7871    1.8629 C   0  0  0  0  0  0  0  0  0  0  0  0
   -5.4868    3.2997    2.1965 C   0  0  0  0  0  0  0  0  0  0  0  0
   -4.3642    2.9517    1.4389 C   0  0  0  0  0  0  0  0  0  0  0  0
   -1.2542    0.2653   -0.4636 N   0  0  0  0  0  0  0  0  0  0  0  0
   -0.2007   -0.5076    0.1314 C   0  0  0  0  0  0  0  0  0  0  0  0
   -0.3566   -1.0072    1.2800 O   0  0  0  0  0  0  0  0  0  0  0  0
    1.1127   -0.6873   -0.6006 C   0  0  2  0  0  0  0  0  0  0  0  0
    1.6366   -2.1380   -0.4290 C   0  0  0  0  0  0  0  0  0  0  0  0
    2.8059   -2.4970   -1.3925 C   0  0  0  0  0  0  0  0  0  0  0  0
    4.1304   -2.6373   -0.6306 C   0  0  0  0  0  0  0  0  0  0  0  0
    2.5140   -3.7929   -2.1618 C   0  0  0  0  0  0  0  0  0  0  0  0
    2.1455    0.4170   -0.2140 C   0  0  2  0  0  0  0  0  0  0  0  0
    2.4854    0.4535    1.2969 C   0  0  0  0  0  0  0  0  0  0  0  0
    3.7135    1.7527    1.7041 S   0  0  0  0  0  0  0  0  0  0  0  0
    5.1363    0.8402    1.1116 C   0  0  0  0  0  0  0  0  0  0  0  0
    5.6981    0.9453   -0.1511 C   0  0  0  0  0  0  0  0  0  0  0  0
    6.8187    0.1237   -0.3187 C   0  0  0  0  0  0  0  0  0  0  0  0
    7.1417   -0.6156    0.8131 C   0  0  0  0  0  0  0  0  0  0  0  0
    6.0326   -0.2474    2.0244 S   0  0  0  0  0  0  0  0  0  0  0  0
    1.6650    1.7653   -0.7060 C   0  0  0  0  0  0  0  0  0  0  0  0
    0.8931    2.4645    0.0060 O   0  0  0  0  0  0  0  0  0  0  0  0
    2.0362    2.2269   -2.0078 N   0  0  0  0  0  0  0  0  0  0  0  0
    1.5933    3.4217   -2.4666 O   0  0  0  0  0  0  0  0  0  0  0  0
   -3.3532   -0.7169    0.2781 C   0  0  0  0  0  0  0  0  0  0  0  0
   -3.4526   -1.4370   -0.7532 O   0  0  0  0  0  0  0  0  0  0  0  0
   -4.0819   -1.0555    1.4650 N   0  0  0  0  0  0  0  0  0  0  0  0
   -4.9627   -2.2149    1.5190 C   0  0  0  0  0  0  0  0  0  0  0  0
   -2.2715    0.8563    1.2762 H   0  0  0  0  0  0  0  0  0  0  0  0
   -3.5663    1.3764   -1.4830 H   0  0  0  0  0  0  0  0  0  0  0  0
   -2.5996    2.5571   -0.5553 H   0  0  0  0  0  0  0  0  0  0  0  0
   -5.8774    0.8951   -0.8239 H   0  0  0  0  0  0  0  0  0  0  0  0
   -7.8519    1.5223    0.5188 H   0  0  0  0  0  0  0  0  0  0  0  0
   -7.6109    3.0554    2.4519 H   0  0  0  0  0  0  0  0  0  0  0  0
   -5.3817    3.9635    3.0448 H   0  0  0  0  0  0  0  0  0  0  0  0
   -3.3940    3.3468    1.7139 H   0  0  0  0  0  0  0  0  0  0  0  0
   -1.1041    0.6624   -1.4194 H   0  0  0  0  0  0  0  0  0  0  0  0
    0.8941   -0.5722   -1.6866 H   0  0  0  0  0  0  0  0  0  0  0  0
    1.9187   -2.3268    0.6288 H   0  0  0  0  0  0  0  0  0  0  0  0
    0.7788   -2.8217   -0.6213 H   0  0  0  0  0  0  0  0  0  0  0  0
    2.9361   -1.6968   -2.1542 H   0  0  0  0  0  0  0  0  0  0  0  0
    4.9668   -2.8116   -1.3406 H   0  0  0  0  0  0  0  0  0  0  0  0
    4.3485   -1.7122   -0.0644 H   0  0  0  0  0  0  0  0  0  0  0  0
    4.0836   -3.4858    0.0854 H   0  0  0  0  0  0  0  0  0  0  0  0
    3.3512   -4.0279   -2.8536 H   0  0  0  0  0  0  0  0  0  0  0  0
    1.5904   -3.6757   -2.7682 H   0  0  0  0  0  0  0  0  0  0  0  0
    2.3785   -4.6434   -1.4593 H   0  0  0  0  0  0  0  0  0  0  0  0
    3.0875    0.1988   -0.7540 H   0  0  0  0  0  0  0  0  0  0  0  0
    2.8756   -0.5267    1.6381 H   0  0  0  0  0  0  0  0  0  0  0  0
    1.5719    0.6706    1.8881 H   0  0  0  0  0  0  0  0  0  0  0  0
    5.3102    1.5915   -0.9275 H   0  0  0  0  0  0  0  0  0  0  0  0
    7.3815    0.0707   -1.2409 H   0  0  0  0  0  0  0  0  0  0  0  0
    7.9681   -1.3078    0.8990 H   0  0  0  0  0  0  0  0  0  0  0  0
    2.6632    1.6499   -2.6121 H   0  0  0  0  0  0  0  0  0  0  0  0
    0.7484    3.2135   -2.9416 H   0  0  0  0  0  0  0  0  0  0  0  0
   -4.0031   -0.4451    2.3094 H   0  0  0  0  0  0  0  0  0  0  0  0
   -5.4350   -2.2833    2.5216 H   0  0  0  0  0  0  0  0  0  0  0  0
   -4.3783   -3.1404    1.3326 H   0  0  0  0  0  0  0  0  0  0  0  0
   -5.7603   -2.1169    0.7527 H   0  0  0  0  0  0  0  0  0  0  0  0
  1  2  1  0
  2  3  1  0
  3  4  2  0
  4  5  1  0
  5  6  2  0
  6  7  1  0
  7  8  2  0
  1  9  1  0
  9 10  1  0
 10 11  2  0
 10 12  1  0
 12 13  1  0
 13 14  1  0
 14 15  1  0
 14 16  1  0
 12 17  1  0
 17 18  1  0
 18 19  1  0
 19 20  1  0
 20 21  2  0
 21 22  1  0
 22 23  2  0
 23 24  1  0
 17 25  1  0
 25 26  2  0
 25 27  1  0
 27 28  1  0
  1 29  1  0
 29 30  2  0
 29 31  1  0
 31 32  1  0
  8  3  1  0
 24 20  1  0
  1 33  1  1
  2 34  1  0
  2 35  1  0
  4 36  1  0
  5 37  1  0
  6 38  1  0
  7 39  1  0
  8 40  1  0
  9 41  1  0
 12 42  1  6
 13 43  1  0
 13 44  1  0
 14 45  1  0
 15 46  1  0
 15 47  1  0
 15 48  1  0
 16 49  1  0
 16 50  1  0
 16 51  1  0
 17 52  1  6
 18 53  1  0
 18 54  1  0
 21 55  1  0
 22 56  1  0
 23 57  1  0
 27 58  1  0
 28 59  1  0
 31 60  1  0
 32 61  1  0
 32 62  1  0
 32 63  1  0
M  END
$$$$
