
     RDKit          3D

 40 42  0  0  0  0  0  0  0  0999 V2000
   -2.4537    0.2017    1.8017 C   0  0  1  0  0  0  0  0  0  0  0  0
   -2.0423    1.3793    2.6853 C   0  0  0  0  0  0  0  0  0  0  0  0
   -3.9691    0.2305    1.4505 C   0  0  0  0  0  0  0  0  0  0  0  0
   -3.9755    0.1281   -0.0359 C   0  0  0  0  0  0  0  0  0  0  0  0
   -5.0769   -0.0114   -0.8820 C   0  0  0  0  0  0  0  0  0  0  0  0
   -4.8490   -0.1552   -2.2602 C   0  0  0  0  0  0  0  0  0  0  0  0
   -3.5338   -0.1722   -2.7628 C   0  0  0  0  0  0  0  0  0  0  0  0
   -2.4413   -0.0349   -1.8911 C   0  0  0  0  0  0  0  0  0  0  0  0
   -2.6975    0.1373   -0.5264 C   0  0  0  0  0  0  0  0  0  0  0  0
   -1.7483    0.2565    0.5203 N   0  0  0  0  0  0  0  0  0  0  0  0
   -0.3783   -0.0256    0.3870 N   0  0  0  0  0  0  0  0  0  0  0  0
    0.4751    0.8090   -0.4110 C   0  0  0  0  0  0  0  0  0  0  0  0
   -0.0201    1.7921   -1.0269 O   0  0  0  0  0  0  0  0  0  0  0  0
    1.9271    0.5371   -0.5319 C   0  0  0  0  0  0  0  0  0  0  0  0
    2.6097    0.9126   -1.6998 C   0  0  0  0  0  0  0  0  0  0  0  0
    3.9768    0.6656   -1.8318 C   0  0  0  0  0  0  0  0  0  0  0  0
    4.6887    0.0488   -0.7990 C   0  0  0  0  0  0  0  0  0  0  0  0
    6.4108   -0.2357   -1.0293 Cl  0  0  0  0  0  0  0  0  0  0  0  0
    4.0239   -0.3202    0.3874 C   0  0  0  0  0  0  0  0  0  0  0  0
    2.6474   -0.0698    0.5129 C   0  0  0  0  0  0  0  0  0  0  0  0
    4.8964   -1.0887    1.7196 S   0  0  0  0  0  6  0  0  0  0  0  0
    5.5739   -2.5845    1.1780 N   0  0  0  0  0  0  0  0  0  0  0  0
    3.9660   -1.3620    2.8687 O   0  0  0  0  0  0  0  0  0  0  0  0
    5.9936   -0.1768    2.1918 O   0  0  0  0  0  0  0  0  0  0  0  0
   -2.2091   -0.7538    2.3169 H   0  0  0  0  0  0  0  0  0  0  0  0
   -0.9575    1.3171    2.9154 H   0  0  0  0  0  0  0  0  0  0  0  0
   -2.6086    1.3528    3.6403 H   0  0  0  0  0  0  0  0  0  0  0  0
   -2.2440    2.3419    2.1681 H   0  0  0  0  0  0  0  0  0  0  0  0
   -4.4617    1.1778    1.7604 H   0  0  0  0  0  0  0  0  0  0  0  0
   -4.4965   -0.6381    1.9000 H   0  0  0  0  0  0  0  0  0  0  0  0
   -6.0835   -0.0199   -0.4846 H   0  0  0  0  0  0  0  0  0  0  0  0
   -5.6866   -0.2668   -2.9364 H   0  0  0  0  0  0  0  0  0  0  0  0
   -3.3638   -0.2999   -3.8239 H   0  0  0  0  0  0  0  0  0  0  0  0
   -1.4320   -0.0734   -2.2762 H   0  0  0  0  0  0  0  0  0  0  0  0
    0.0277   -0.7857    0.9746 H   0  0  0  0  0  0  0  0  0  0  0  0
    2.0819    1.3862   -2.5185 H   0  0  0  0  0  0  0  0  0  0  0  0
    4.4841    0.9549   -2.7435 H   0  0  0  0  0  0  0  0  0  0  0  0
    2.1491   -0.3229    1.4376 H   0  0  0  0  0  0  0  0  0  0  0  0
    4.7759   -3.1958    0.8942 H   0  0  0  0  0  0  0  0  0  0  0  0
    6.0209   -3.0361    2.0071 H   0  0  0  0  0  0  0  0  0  0  0  0
  1  2  1  0
  1  3  1  0
  3  4  1  0
  4  5  2  0
  5  6  1  0
  6  7  2  0
  7  8  1  0
  8  9  2  0
  9 10  1  0
 10 11  1  0
 11 12  1  0
 12 13  2  0
 12 14  1  0
 14 15  2  0
 15 16  1  0
 16 17  2  0
 17 18  1  0
 17 19  1  0
 19 20  2  0
 19 21  1  0
 21 22  1  0
 21 23  2  0
 21 24  2  0
 10  1  1  0
 20 14  1  0
  9  4  1  0
  1 25  1  1
  2 26  1  0
  2 27  1  0
  2 28  1  0
  3 29  1  0
  3 30  1  0
  5 31  1  0
  6 32  1  0
  7 33  1  0
  8 34  1  0
 11 35  1  0
 15 36  1  0
 16 37  1  0
 20 38  1  0
 22 39  1  0
 22 40  1  0
M  END
$$$$
