
     RDKit          3D

 52 55  0  0  0  0  0  0  0  0999 V2000
    2.7755    2.5231   -0.2108 C   0  0  0  0  0  0  0  0  0  0  0  0
    2.9408    1.0593   -0.2157 N   0  0  0  0  0  0  0  0  0  0  0  0
    4.3561    0.6630   -0.0618 C   0  0  0  0  0  0  0  0  0  0  0  0
    4.8867    0.9039    1.3648 C   0  0  0  0  0  0  0  0  0  0  0  0
    3.8370    0.6149    2.4509 C   0  0  0  0  0  0  0  0  0  0  0  0
    2.7215   -0.2881    1.9289 C   0  0  0  0  0  0  0  0  0  0  0  0
    2.0055    0.3746    0.7224 C   0  0  0  0  0  0  0  0  0  0  0  0
    1.1880   -0.6614   -0.0735 C   0  0  0  0  0  0  0  0  0  0  0  0
    0.0286   -1.2737    0.7443 C   0  0  0  0  0  0  0  0  0  0  0  0
   -1.1832   -1.4584   -0.0709 N   0  0  0  0  0  0  0  0  0  0  0  0
   -1.4279   -2.6918   -0.7891 C   0  0  0  0  0  0  0  0  0  0  0  0
   -2.7468   -3.1731   -0.9087 C   0  0  0  0  0  0  0  0  0  0  0  0
   -4.0403   -2.4735    0.1152 S   0  0  0  0  0  0  0  0  0  0  0  0
   -3.5512   -0.7834   -0.2263 C   0  0  0  0  0  0  0  0  0  0  0  0
   -2.1937   -0.4224   -0.1343 C   0  0  0  0  0  0  0  0  0  0  0  0
   -1.8444    0.9380   -0.2256 C   0  0  0  0  0  0  0  0  0  0  0  0
   -2.8261    1.9104   -0.4477 C   0  0  0  0  0  0  0  0  0  0  0  0
   -4.1666    1.5296   -0.5867 C   0  0  0  0  0  0  0  0  0  0  0  0
   -4.5280    0.1859   -0.4734 C   0  0  0  0  0  0  0  0  0  0  0  0
   -2.3507    3.6214   -0.5704 S   0  0  0  0  0  4  0  0  0  0  0  0
   -3.2166    4.4468    0.7771 C   0  0  0  0  0  0  0  0  0  0  0  0
   -3.0384    4.1151   -1.8365 O   0  0  0  0  0  0  0  0  0  0  0  0
   -3.0361   -4.2524   -1.7503 C   0  0  0  0  0  0  0  0  0  0  0  0
   -2.0083   -4.8863   -2.4510 C   0  0  0  0  0  0  0  0  0  0  0  0
   -0.6916   -4.4424   -2.3125 C   0  0  0  0  0  0  0  0  0  0  0  0
   -0.4006   -3.3482   -1.4918 C   0  0  0  0  0  0  0  0  0  0  0  0
    1.7353    2.7851   -0.5012 H   0  0  0  0  0  0  0  0  0  0  0  0
    2.9870    2.9494    0.7929 H   0  0  0  0  0  0  0  0  0  0  0  0
    3.4516    2.9930   -0.9568 H   0  0  0  0  0  0  0  0  0  0  0  0
    4.9946    1.2029   -0.7951 H   0  0  0  0  0  0  0  0  0  0  0  0
    4.4520   -0.4172   -0.3086 H   0  0  0  0  0  0  0  0  0  0  0  0
    5.7743    0.2538    1.5250 H   0  0  0  0  0  0  0  0  0  0  0  0
    5.2297    1.9570    1.4605 H   0  0  0  0  0  0  0  0  0  0  0  0
    4.3263    0.1321    3.3245 H   0  0  0  0  0  0  0  0  0  0  0  0
    3.3917    1.5702    2.8058 H   0  0  0  0  0  0  0  0  0  0  0  0
    1.9920   -0.4733    2.7468 H   0  0  0  0  0  0  0  0  0  0  0  0
    3.1575   -1.2700    1.6393 H   0  0  0  0  0  0  0  0  0  0  0  0
    1.2827    1.1111    1.1458 H   0  0  0  0  0  0  0  0  0  0  0  0
    1.8744   -1.4650   -0.4144 H   0  0  0  0  0  0  0  0  0  0  0  0
    0.7907   -0.1755   -0.9907 H   0  0  0  0  0  0  0  0  0  0  0  0
    0.3517   -2.2507    1.1658 H   0  0  0  0  0  0  0  0  0  0  0  0
   -0.2252   -0.6324    1.6169 H   0  0  0  0  0  0  0  0  0  0  0  0
   -0.8144    1.2507   -0.1523 H   0  0  0  0  0  0  0  0  0  0  0  0
   -4.9317    2.2737   -0.7670 H   0  0  0  0  0  0  0  0  0  0  0  0
   -5.5709   -0.0960   -0.5430 H   0  0  0  0  0  0  0  0  0  0  0  0
   -2.8812    4.0227    1.7459 H   0  0  0  0  0  0  0  0  0  0  0  0
   -2.9862    5.5317    0.7530 H   0  0  0  0  0  0  0  0  0  0  0  0
   -4.3116    4.3028    0.6712 H   0  0  0  0  0  0  0  0  0  0  0  0
   -4.0506   -4.6199   -1.8378 H   0  0  0  0  0  0  0  0  0  0  0  0
   -2.2306   -5.7287   -3.0931 H   0  0  0  0  0  0  0  0  0  0  0  0
    0.1035   -4.9357   -2.8566 H   0  0  0  0  0  0  0  0  0  0  0  0
    0.6183   -3.0025   -1.4434 H   0  0  0  0  0  0  0  0  0  0  0  0
  1  2  1  0
  2  3  1  0
  3  4  1  0
  4  5  1  0
  5  6  1  0
  6  7  1  0
  7  8  1  0
  8  9  1  0
  9 10  1  0
 10 11  1  0
 11 12  2  0
 12 13  1  0
 13 14  1  0
 14 15  2  0
 15 16  1  0
 16 17  2  0
 17 18  1  0
 18 19  2  0
 17 20  1  0
 20 21  1  0
 20 22  2  0
 12 23  1  0
 23 24  2  0
 24 25  1  0
 25 26  2  0
  7  2  1  0
 15 10  1  0
 26 11  1  0
 19 14  1  0
  1 27  1  0
  1 28  1  0
  1 29  1  0
  3 30  1  0
  3 31  1  0
  4 32  1  0
  4 33  1  0
  5 34  1  0
  5 35  1  0
  6 36  1  0
  6 37  1  0
  7 38  1  0
  8 39  1  0
  8 40  1  0
  9 41  1  0
  9 42  1  0
 16 43  1  0
 18 44  1  0
 19 45  1  0
 21 46  1  0
 21 47  1  0
 21 48  1  0
 23 49  1  0
 24 50  1  0
 25 51  1  0
 26 52  1  0
M  END
$$$$
