
     RDKit          3D

 19 20  0  0  0  0  0  0  0  0999 V2000
   -4.6333   -0.9139    0.0023 Cl  0  0  0  0  0  0  0  0  0  0  0  0
   -2.9143   -0.5653    0.0225 C   0  0  0  0  0  0  0  0  0  0  0  0
   -2.3386    0.0533    1.1340 C   0  0  0  0  0  0  0  0  0  0  0  0
   -0.9687    0.3323    1.1527 C   0  0  0  0  0  0  0  0  0  0  0  0
   -0.1507   -0.0049    0.0547 C   0  0  0  0  0  0  0  0  0  0  0  0
   -0.7475   -0.6290   -1.0597 C   0  0  0  0  0  0  0  0  0  0  0  0
   -2.1181   -0.9056   -1.0728 C   0  0  0  0  0  0  0  0  0  0  0  0
    1.3098    0.2917    0.0728 C   0  0  0  0  0  0  0  0  0  0  0  0
    2.0251    0.8961    1.0927 C   0  0  0  0  0  0  0  0  0  0  0  0
    3.3213    0.9908    0.7376 N   0  0  0  0  0  0  0  0  0  0  0  0
    3.3722    0.4423   -0.4926 C   0  0  0  0  0  0  0  0  0  0  0  0
    2.1731    0.0103   -0.9224 N   0  0  0  0  0  0  0  0  0  0  0  0
   -2.9516    0.3192    1.9859 H   0  0  0  0  0  0  0  0  0  0  0  0
   -0.5606    0.8117    2.0307 H   0  0  0  0  0  0  0  0  0  0  0  0
   -0.1677   -0.9083   -1.9268 H   0  0  0  0  0  0  0  0  0  0  0  0
   -2.5599   -1.3854   -1.9370 H   0  0  0  0  0  0  0  0  0  0  0  0
    1.6426    1.2503    2.0392 H   0  0  0  0  0  0  0  0  0  0  0  0
    4.2822    0.3589   -1.0720 H   0  0  0  0  0  0  0  0  0  0  0  0
    1.9847   -0.4444   -1.8418 H   0  0  0  0  0  0  0  0  0  0  0  0
  1  2  1  0
  2  3  2  0
  3  4  1  0
  4  5  2  0
  5  6  1  0
  6  7  2  0
  5  8  1  0
  8  9  2  0
  9 10  1  0
 10 11  2  0
 11 12  1  0
  7  2  1  0
 12  8  1  0
  3 13  1  0
  4 14  1  0
  6 15  1  0
  7 16  1  0
  9 17  1  0
 11 18  1  0
 12 19  1  0
M  END
$$$$
