
     RDKit          3D

 57 58  0  0  0  0  0  0  0  0999 V2000
    0.8859   -0.2291   -0.3081 C   0  0  2  0  0  0  0  0  0  0  0  0
    1.3291   -0.0703    1.1626 C   0  0  0  0  0  0  0  0  0  0  0  0
    2.8321   -0.0528    1.2924 C   0  0  0  0  0  0  0  0  0  0  0  0
    3.5533    1.1081    0.9745 C   0  0  0  0  0  0  0  0  0  0  0  0
    4.9478    1.1207    1.0627 C   0  0  0  0  0  0  0  0  0  0  0  0
    5.6466   -0.0256    1.4807 C   0  0  0  0  0  0  0  0  0  0  0  0
    4.9223   -1.1940    1.7763 C   0  0  0  0  0  0  0  0  0  0  0  0
    3.5276   -1.2055    1.6879 C   0  0  0  0  0  0  0  0  0  0  0  0
    7.1565   -0.0282    1.5259 C   0  0  0  0  0  0  0  0  0  0  0  0
    7.6335    1.2341    1.8349 F   0  0  0  0  0  0  0  0  0  0  0  0
    7.6112   -0.9064    2.4947 F   0  0  0  0  0  0  0  0  0  0  0  0
    7.8237   -0.5331   -0.0908 P   0  0  0  0  0  5  0  0  0  0  0  0
    7.2680    0.5191   -1.2944 O   0  0  0  0  0  0  0  0  0  0  0  0
    9.5143   -0.4857   -0.0357 O   0  0  0  0  0  0  0  0  0  0  0  0
    7.3719   -1.9403   -0.4096 O   0  0  0  0  0  0  0  0  0  0  0  0
   -0.5495    0.0372   -0.4538 N   0  0  0  0  0  0  0  0  0  0  0  0
   -1.5897   -0.7550    0.1490 C   0  0  0  0  0  0  0  0  0  0  0  0
   -1.2987   -1.7638    0.8465 O   0  0  0  0  0  0  0  0  0  0  0  0
   -3.0407   -0.3977   -0.0467 C   0  0  2  0  0  0  0  0  0  0  0  0
   -3.4274   -0.4858   -1.5339 C   0  0  0  0  0  0  0  0  0  0  0  0
   -4.9074   -0.2754   -1.7264 C   0  0  0  0  0  0  0  0  0  0  0  0
   -5.4101    1.0010   -2.0320 C   0  0  0  0  0  0  0  0  0  0  0  0
   -6.7875    1.2027   -2.1621 C   0  0  0  0  0  0  0  0  0  0  0  0
   -7.6717    0.1352   -1.9839 C   0  0  0  0  0  0  0  0  0  0  0  0
   -7.1801   -1.1352   -1.6717 C   0  0  0  0  0  0  0  0  0  0  0  0
   -5.8034   -1.3411   -1.5390 C   0  0  0  0  0  0  0  0  0  0  0  0
   -3.2956    0.9507    0.4726 N   0  0  0  0  0  0  0  0  0  0  0  0
   -4.4427    1.2737    1.2724 C   0  0  0  0  0  0  0  0  0  0  0  0
   -4.7240    2.6968    1.6278 C   0  0  0  0  0  0  0  0  0  0  0  0
   -5.2412    0.3718    1.6447 O   0  0  0  0  0  0  0  0  0  0  0  0
    1.2331   -1.5743   -0.9002 C   0  0  0  0  0  0  0  0  0  0  0  0
    1.5149   -1.6879   -2.2949 N   0  0  0  0  0  0  0  0  0  0  0  0
    1.2292   -2.6120   -0.1845 O   0  0  0  0  0  0  0  0  0  0  0  0
    1.4297    0.5429   -0.8980 H   0  0  0  0  0  0  0  0  0  0  0  0
    0.9003   -0.8770    1.7945 H   0  0  0  0  0  0  0  0  0  0  0  0
    0.9265    0.8878    1.5590 H   0  0  0  0  0  0  0  0  0  0  0  0
    3.0346    2.0016    0.6495 H   0  0  0  0  0  0  0  0  0  0  0  0
    5.4814    2.0242    0.7956 H   0  0  0  0  0  0  0  0  0  0  0  0
    5.4361   -2.1013    2.0682 H   0  0  0  0  0  0  0  0  0  0  0  0
    2.9916   -2.1165    1.9227 H   0  0  0  0  0  0  0  0  0  0  0  0
    7.6399    1.4033   -1.0483 H   0  0  0  0  0  0  0  0  0  0  0  0
    9.8028   -0.6879   -0.9614 H   0  0  0  0  0  0  0  0  0  0  0  0
   -0.8237    0.8543   -1.0440 H   0  0  0  0  0  0  0  0  0  0  0  0
   -3.6492   -1.1427    0.5139 H   0  0  0  0  0  0  0  0  0  0  0  0
   -3.1478   -1.4869   -1.9308 H   0  0  0  0  0  0  0  0  0  0  0  0
   -2.8608    0.2660   -2.1255 H   0  0  0  0  0  0  0  0  0  0  0  0
   -4.7370    1.8398   -2.1593 H   0  0  0  0  0  0  0  0  0  0  0  0
   -7.1697    2.1877   -2.3967 H   0  0  0  0  0  0  0  0  0  0  0  0
   -8.7377    0.2934   -2.0834 H   0  0  0  0  0  0  0  0  0  0  0  0
   -7.8662   -1.9598   -1.5278 H   0  0  0  0  0  0  0  0  0  0  0  0
   -5.4356   -2.3275   -1.2850 H   0  0  0  0  0  0  0  0  0  0  0  0
   -2.6978    1.7394    0.1362 H   0  0  0  0  0  0  0  0  0  0  0  0
   -5.1035    3.2312    0.7321 H   0  0  0  0  0  0  0  0  0  0  0  0
   -5.4850    2.7538    2.4349 H   0  0  0  0  0  0  0  0  0  0  0  0
   -3.7927    3.1876    1.9799 H   0  0  0  0  0  0  0  0  0  0  0  0
    1.4906   -0.8479   -2.9147 H   0  0  0  0  0  0  0  0  0  0  0  0
    1.7421   -2.6176   -2.7123 H   0  0  0  0  0  0  0  0  0  0  0  0
  1  2  1  0
  2  3  1  0
  3  4  2  0
  4  5  1  0
  5  6  2  0
  6  7  1  0
  7  8  2  0
  6  9  1  0
  9 10  1  0
  9 11  1  0
  9 12  1  0
 12 13  1  0
 12 14  1  0
 12 15  2  0
  1 16  1  0
 16 17  1  0
 17 18  2  0
 17 19  1  0
 19 20  1  0
 20 21  1  0
 21 22  2  0
 22 23  1  0
 23 24  2  0
 24 25  1  0
 25 26  2  0
 19 27  1  0
 27 28  1  0
 28 29  1  0
 28 30  2  0
  1 31  1  0
 31 32  1  0
 31 33  2  0
  8  3  1  0
 26 21  1  0
  1 34  1  6
  2 35  1  0
  2 36  1  0
  4 37  1  0
  5 38  1  0
  7 39  1  0
  8 40  1  0
 13 41  1  0
 14 42  1  0
 16 43  1  0
 19 44  1  1
 20 45  1  0
 20 46  1  0
 22 47  1  0
 23 48  1  0
 24 49  1  0
 25 50  1  0
 26 51  1  0
 27 52  1  0
 29 53  1  0
 29 54  1  0
 29 55  1  0
 32 56  1  0
 32 57  1  0
M  END
$$$$
