
     RDKit          3D

 44 45  0  0  0  0  0  0  0  0999 V2000
    1.3374   -0.0930   -0.0872 C   0  0  1  0  0  0  0  0  0  0  0  0
    1.2972    1.2869    0.4106 N   0  0  0  0  0  0  0  0  0  0  0  0
    0.0160   -0.4236   -0.8066 C   0  0  0  0  0  0  0  0  0  0  0  0
   -1.1795   -0.2675    0.0958 C   0  0  0  0  0  0  0  0  0  0  0  0
   -1.1257   -0.7066    1.2769 O   0  0  0  0  0  0  0  0  0  0  0  0
   -2.4043    0.3143   -0.4000 N   0  0  0  0  0  0  0  0  0  0  0  0
   -2.9841   -0.2003   -1.6477 C   0  0  0  0  0  0  0  0  0  0  0  0
   -3.5753   -1.6022   -1.4427 C   0  0  0  0  0  0  0  0  0  0  0  0
   -4.1505   -1.8378   -0.0365 C   0  0  0  0  0  0  0  0  0  0  0  0
   -4.9797   -0.7219    0.4186 N   0  0  0  0  0  0  0  0  0  0  0  0
   -4.4385    0.4719    1.0120 C   0  0  0  0  0  0  0  0  0  0  0  0
   -5.0677    1.0049    1.9660 O   0  0  0  0  0  0  0  0  0  0  0  0
   -3.2494    1.2060    0.4192 C   0  0  1  0  0  0  0  0  0  0  0  0
   -2.4473    1.9685    1.4895 C   0  0  0  0  0  0  0  0  0  0  0  0
    2.5339   -0.3171   -1.0400 C   0  0  0  0  0  0  0  0  0  0  0  0
    3.8565   -0.1515   -0.3328 C   0  0  0  0  0  0  0  0  0  0  0  0
    4.3779   -1.1877    0.4643 C   0  0  0  0  0  0  0  0  0  0  0  0
    3.7113   -2.3631    0.5923 F   0  0  0  0  0  0  0  0  0  0  0  0
    5.5930   -1.0144    1.1352 C   0  0  0  0  0  0  0  0  0  0  0  0
    6.2931    0.1899    1.0222 C   0  0  0  0  0  0  0  0  0  0  0  0
    7.4698    0.3519    1.6764 F   0  0  0  0  0  0  0  0  0  0  0  0
    5.7782    1.2266    0.2380 C   0  0  0  0  0  0  0  0  0  0  0  0
    6.4534    2.3977    0.1315 F   0  0  0  0  0  0  0  0  0  0  0  0
    4.5643    1.0586   -0.4354 C   0  0  0  0  0  0  0  0  0  0  0  0
    1.4438   -0.7852    0.7785 H   0  0  0  0  0  0  0  0  0  0  0  0
    1.3909    1.9532   -0.3906 H   0  0  0  0  0  0  0  0  0  0  0  0
    2.1054    1.4433    1.0550 H   0  0  0  0  0  0  0  0  0  0  0  0
    0.0380   -1.4718   -1.1752 H   0  0  0  0  0  0  0  0  0  0  0  0
   -0.0892    0.2508   -1.6837 H   0  0  0  0  0  0  0  0  0  0  0  0
   -2.2247   -0.2231   -2.4568 H   0  0  0  0  0  0  0  0  0  0  0  0
   -3.7933    0.4755   -2.0030 H   0  0  0  0  0  0  0  0  0  0  0  0
   -4.3727   -1.7704   -2.1990 H   0  0  0  0  0  0  0  0  0  0  0  0
   -2.7815   -2.3590   -1.6244 H   0  0  0  0  0  0  0  0  0  0  0  0
   -4.7649   -2.7640   -0.0619 H   0  0  0  0  0  0  0  0  0  0  0  0
   -3.3347   -2.0193    0.6939 H   0  0  0  0  0  0  0  0  0  0  0  0
   -5.9930   -0.9205    0.5807 H   0  0  0  0  0  0  0  0  0  0  0  0
   -3.6656    1.9894   -0.2521 H   0  0  0  0  0  0  0  0  0  0  0  0
   -1.5268    2.4015    1.0431 H   0  0  0  0  0  0  0  0  0  0  0  0
   -2.1712    1.3061    2.3360 H   0  0  0  0  0  0  0  0  0  0  0  0
   -3.0557    2.8055    1.8943 H   0  0  0  0  0  0  0  0  0  0  0  0
    2.4676    0.3830   -1.9022 H   0  0  0  0  0  0  0  0  0  0  0  0
    2.4831   -1.3437   -1.4648 H   0  0  0  0  0  0  0  0  0  0  0  0
    5.9915   -1.8147    1.7456 H   0  0  0  0  0  0  0  0  0  0  0  0
    4.1730    1.8728   -1.0330 H   0  0  0  0  0  0  0  0  0  0  0  0
  1  2  1  0
  1  3  1  0
  3  4  1  0
  4  5  2  0
  4  6  1  0
  6  7  1  0
  7  8  1  0
  8  9  1  0
  9 10  1  0
 10 11  1  0
 11 12  2  0
 11 13  1  0
 13 14  1  0
  1 15  1  0
 15 16  1  0
 16 17  2  0
 17 18  1  0
 17 19  1  0
 19 20  2  0
 20 21  1  0
 20 22  1  0
 22 23  1  0
 22 24  2  0
 13  6  1  0
 24 16  1  0
  1 25  1  1
  2 26  1  0
  2 27  1  0
  3 28  1  0
  3 29  1  0
  7 30  1  0
  7 31  1  0
  8 32  1  0
  8 33  1  0
  9 34  1  0
  9 35  1  0
 10 36  1  0
 13 37  1  6
 14 38  1  0
 14 39  1  0
 14 40  1  0
 15 41  1  0
 15 42  1  0
 19 43  1  0
 24 44  1  0
M  END
$$$$
