
     RDKit          3D

 72 71  0  0  0  0  0  0  0  0999 V2000
    7.8261    0.0037   -4.8974 N   0  0  0  0  0  0  0  0  0  0  0  0
    7.4901   -0.8367   -3.7438 C   0  0  1  0  0  0  0  0  0  0  0  0
    6.6347   -0.0878   -2.6949 C   0  0  0  0  0  0  0  0  0  0  0  0
    5.2588    0.3688   -3.2068 C   0  0  0  0  0  0  0  0  0  0  0  0
    4.4621    0.9691   -2.0878 C   0  0  0  0  0  0  0  0  0  0  0  0
    4.4470    2.2213   -1.9396 O   0  0  0  0  0  0  0  0  0  0  0  0
    3.7593    0.1179   -1.1701 N   0  0  0  0  0  0  0  0  0  0  0  0
    2.9196    0.6435   -0.0891 C   0  0  1  0  0  0  0  0  0  0  0  0
    1.4673    0.7562   -0.5739 C   0  0  0  0  0  0  0  0  0  0  0  0
    0.4346    1.6814    0.6194 S   0  0  0  0  0  0  0  0  0  0  0  0
   -0.3085   -0.0596    1.6182 S   0  0  0  0  0  0  0  0  0  0  0  0
   -1.7967   -0.2234    0.5664 C   0  0  0  0  0  0  0  0  0  0  0  0
   -3.0380    0.3668    1.2551 C   0  0  2  0  0  0  0  0  0  0  0  0
   -4.2458    0.0431    0.4898 N   0  0  0  0  0  0  0  0  0  0  0  0
   -5.5614    0.1943    1.0423 C   0  0  0  0  0  0  0  0  0  0  0  0
   -5.7126    0.5889    2.2305 O   0  0  0  0  0  0  0  0  0  0  0  0
   -6.7652   -0.1604    0.2232 C   0  0  0  0  0  0  0  0  0  0  0  0
   -7.0105   -1.6748    0.2603 C   0  0  0  0  0  0  0  0  0  0  0  0
   -8.2636   -2.0813   -0.5452 C   0  0  2  0  0  0  0  0  0  0  0  0
   -8.5818   -3.4952   -0.3373 N   0  0  0  0  0  0  0  0  0  0  0  0
   -8.0744   -1.8281   -2.0150 C   0  0  0  0  0  0  0  0  0  0  0  0
   -7.0718   -2.4936   -2.7149 O   0  0  0  0  0  0  0  0  0  0  0  0
   -8.8212   -1.0098   -2.6156 O   0  0  0  0  0  0  0  0  0  0  0  0
   -2.9158    1.8616    1.3969 C   0  0  0  0  0  0  0  0  0  0  0  0
   -2.9824    2.5921    0.3703 O   0  0  0  0  0  0  0  0  0  0  0  0
   -2.7112    2.4502    2.6897 N   0  0  0  0  0  0  0  0  0  0  0  0
   -2.5712    3.8911    2.8812 C   0  0  0  0  0  0  0  0  0  0  0  0
   -1.2193    4.3416    2.4307 C   0  0  0  0  0  0  0  0  0  0  0  0
   -1.0662    4.9408    1.1845 O   0  0  0  0  0  0  0  0  0  0  0  0
   -0.2135    4.1462    3.1640 O   0  0  0  0  0  0  0  0  0  0  0  0
    3.0214   -0.2506    1.1206 C   0  0  0  0  0  0  0  0  0  0  0  0
    2.8685   -1.4966    0.9927 O   0  0  0  0  0  0  0  0  0  0  0  0
    3.2405    0.3169    2.4208 N   0  0  0  0  0  0  0  0  0  0  0  0
    3.3046   -0.5000    3.6294 C   0  0  0  0  0  0  0  0  0  0  0  0
    4.5880   -1.2655    3.6678 C   0  0  0  0  0  0  0  0  0  0  0  0
    4.5955   -2.6249    3.3722 O   0  0  0  0  0  0  0  0  0  0  0  0
    5.6665   -0.6736    3.9401 O   0  0  0  0  0  0  0  0  0  0  0  0
    6.8366   -2.1187   -4.1863 C   0  0  0  0  0  0  0  0  0  0  0  0
    6.0459   -2.1516   -5.3321 O   0  0  0  0  0  0  0  0  0  0  0  0
    6.9719   -3.1615   -3.4916 O   0  0  0  0  0  0  0  0  0  0  0  0
    6.9595    0.2803   -5.4116 H   0  0  0  0  0  0  0  0  0  0  0  0
    8.2842    0.8800   -4.5561 H   0  0  0  0  0  0  0  0  0  0  0  0
    8.4469   -1.1115   -3.2461 H   0  0  0  0  0  0  0  0  0  0  0  0
    7.2004    0.8009   -2.3379 H   0  0  0  0  0  0  0  0  0  0  0  0
    6.4931   -0.7578   -1.8173 H   0  0  0  0  0  0  0  0  0  0  0  0
    4.6947   -0.4909   -3.6257 H   0  0  0  0  0  0  0  0  0  0  0  0
    5.3796    1.1274   -4.0088 H   0  0  0  0  0  0  0  0  0  0  0  0
    3.7337   -0.9071   -1.3756 H   0  0  0  0  0  0  0  0  0  0  0  0
    3.2767    1.6585    0.1920 H   0  0  0  0  0  0  0  0  0  0  0  0
    1.4533    1.3274   -1.5264 H   0  0  0  0  0  0  0  0  0  0  0  0
    1.0411   -0.2476   -0.7880 H   0  0  0  0  0  0  0  0  0  0  0  0
   -1.9632   -1.3098    0.4053 H   0  0  0  0  0  0  0  0  0  0  0  0
   -1.6423    0.2359   -0.4338 H   0  0  0  0  0  0  0  0  0  0  0  0
   -3.1218   -0.1042    2.2595 H   0  0  0  0  0  0  0  0  0  0  0  0
   -4.1574   -0.3071   -0.4918 H   0  0  0  0  0  0  0  0  0  0  0  0
   -7.6551    0.3750    0.6206 H   0  0  0  0  0  0  0  0  0  0  0  0
   -6.6010    0.1769   -0.8227 H   0  0  0  0  0  0  0  0  0  0  0  0
   -7.1491   -1.9845    1.3199 H   0  0  0  0  0  0  0  0  0  0  0  0
   -6.1177   -2.2091   -0.1347 H   0  0  0  0  0  0  0  0  0  0  0  0
   -9.1278   -1.4776   -0.1857 H   0  0  0  0  0  0  0  0  0  0  0  0
   -8.8365   -3.6371    0.6674 H   0  0  0  0  0  0  0  0  0  0  0  0
   -7.7322   -4.0763   -0.5272 H   0  0  0  0  0  0  0  0  0  0  0  0
   -6.9321   -2.3289   -3.7046 H   0  0  0  0  0  0  0  0  0  0  0  0
   -2.6744    1.8330    3.5321 H   0  0  0  0  0  0  0  0  0  0  0  0
   -3.3662    4.4294    2.3216 H   0  0  0  0  0  0  0  0  0  0  0  0
   -2.6922    4.1340    3.9590 H   0  0  0  0  0  0  0  0  0  0  0  0
   -0.1529    5.2325    0.8574 H   0  0  0  0  0  0  0  0  0  0  0  0
    3.3156    1.3544    2.5202 H   0  0  0  0  0  0  0  0  0  0  0  0
    3.2494    0.1571    4.5240 H   0  0  0  0  0  0  0  0  0  0  0  0
    2.4375   -1.1943    3.6646 H   0  0  0  0  0  0  0  0  0  0  0  0
    5.4594   -3.1537    3.3814 H   0  0  0  0  0  0  0  0  0  0  0  0
    5.5887   -3.0071   -5.6237 H   0  0  0  0  0  0  0  0  0  0  0  0
  1  2  1  0
  2  3  1  0
  3  4  1  0
  4  5  1  0
  5  6  2  0
  5  7  1  0
  7  8  1  0
  8  9  1  0
  9 10  1  0
 10 11  1  0
 11 12  1  0
 12 13  1  0
 13 14  1  0
 14 15  1  0
 15 16  2  0
 15 17  1  0
 17 18  1  0
 18 19  1  0
 19 20  1  0
 19 21  1  0
 21 22  1  0
 21 23  2  0
 13 24  1  0
 24 25  2  0
 24 26  1  0
 26 27  1  0
 27 28  1  0
 28 29  1  0
 28 30  2  0
  8 31  1  0
 31 32  2  0
 31 33  1  0
 33 34  1  0
 34 35  1  0
 35 36  1  0
 35 37  2  0
  2 38  1  0
 38 39  1  0
 38 40  2  0
  1 41  1  0
  1 42  1  0
  2 43  1  1
  3 44  1  0
  3 45  1  0
  4 46  1  0
  4 47  1  0
  7 48  1  0
  8 49  1  1
  9 50  1  0
  9 51  1  0
 12 52  1  0
 12 53  1  0
 13 54  1  1
 14 55  1  0
 17 56  1  0
 17 57  1  0
 18 58  1  0
 18 59  1  0
 19 60  1  1
 20 61  1  0
 20 62  1  0
 22 63  1  0
 26 64  1  0
 27 65  1  0
 27 66  1  0
 29 67  1  0
 33 68  1  0
 34 69  1  0
 34 70  1  0
 36 71  1  0
 39 72  1  0
M  END
$$$$
