
     RDKit          3D

 24 24  0  0  0  0  0  0  0  0999 V2000
    0.0036    2.8927    0.6526 C   0  0  0  0  0  0  0  0  0  0  0  0
    0.3495    1.5175    0.5217 O   0  0  0  0  0  0  0  0  0  0  0  0
   -0.5313    0.4993    0.1275 C   0  0  0  0  0  0  0  0  0  0  0  0
   -1.8850    0.7807   -0.1394 C   0  0  0  0  0  0  0  0  0  0  0  0
   -2.7700   -0.2404   -0.4717 C   0  0  0  0  0  0  0  0  0  0  0  0
   -2.3258   -1.5568   -0.5383 C   0  0  0  0  0  0  0  0  0  0  0  0
   -0.9822   -1.8717   -0.2898 C   0  0  0  0  0  0  0  0  0  0  0  0
   -0.5776   -3.2939   -0.3872 C   0  0  0  0  0  0  0  0  0  0  0  0
    0.6079   -3.6657   -0.1815 O   0  0  0  0  0  0  0  0  0  0  0  0
   -0.0640   -0.8376    0.0241 C   0  0  0  0  0  0  0  0  0  0  0  0
    1.2806   -1.1898    0.2422 O   0  0  0  0  0  0  0  0  0  0  0  0
    2.6504   -0.1948   -0.0792 P   0  0  0  0  0  5  0  0  0  0  0  0
    2.3900    0.7081   -1.4872 O   0  0  0  0  0  0  0  0  0  0  0  0
    2.9285    0.8435    1.2281 O   0  0  0  0  0  0  0  0  0  0  0  0
    3.8626   -1.0772   -0.2711 O   0  0  0  0  0  0  0  0  0  0  0  0
   -0.7851    3.0169    1.4244 H   0  0  0  0  0  0  0  0  0  0  0  0
   -0.3452    3.2933   -0.3226 H   0  0  0  0  0  0  0  0  0  0  0  0
    0.9014    3.4622    0.9687 H   0  0  0  0  0  0  0  0  0  0  0  0
   -2.2699    1.7892   -0.0794 H   0  0  0  0  0  0  0  0  0  0  0  0
   -3.8094   -0.0111   -0.6688 H   0  0  0  0  0  0  0  0  0  0  0  0
   -3.0365   -2.3353   -0.7893 H   0  0  0  0  0  0  0  0  0  0  0  0
   -1.3154   -4.0447   -0.6413 H   0  0  0  0  0  0  0  0  0  0  0  0
    2.0979    0.0445   -2.1619 H   0  0  0  0  0  0  0  0  0  0  0  0
    3.6249    1.4710    0.9086 H   0  0  0  0  0  0  0  0  0  0  0  0
  1  2  1  0
  2  3  1  0
  3  4  2  0
  4  5  1  0
  5  6  2  0
  6  7  1  0
  7  8  1  0
  8  9  2  0
  7 10  2  0
 10 11  1  0
 11 12  1  0
 12 13  1  0
 12 14  1  0
 12 15  2  0
 10  3  1  0
  1 16  1  0
  1 17  1  0
  1 18  1  0
  4 19  1  0
  5 20  1  0
  6 21  1  0
  8 22  1  0
 13 23  1  0
 14 24  1  0
M  END
$$$$
