
     RDKit          3D

 37 40  0  0  0  0  0  0  0  0999 V2000
    5.0159    1.2938    0.7288 O   0  0  0  0  0  0  0  0  0  0  0  0
    3.7234    0.9174    0.3578 C   0  0  0  0  0  0  0  0  0  0  0  0
    2.8595    1.7674   -0.3654 C   0  0  0  0  0  0  0  0  0  0  0  0
    3.2488    3.0301   -0.8171 O   0  0  0  0  0  0  0  0  0  0  0  0
    1.5619    1.3384   -0.6614 C   0  0  0  0  0  0  0  0  0  0  0  0
    1.0759    0.0981   -0.2073 C   0  0  0  0  0  0  0  0  0  0  0  0
   -0.3341   -0.3481   -0.6034 C   0  0  1  0  0  0  0  0  0  0  0  0
   -0.6751   -1.7827   -0.1462 C   0  0  2  0  0  0  0  0  0  0  0  0
    0.5225   -2.7199   -0.2840 C   0  0  0  0  0  0  0  0  0  0  0  0
    1.6327   -2.2419    0.6540 C   0  0  0  0  0  0  0  0  0  0  0  0
    1.9965   -0.8022    0.3848 C   0  0  0  0  0  0  0  0  0  0  0  0
    3.2883   -0.3628    0.7092 C   0  0  0  0  0  0  0  0  0  0  0  0
   -1.8207   -2.2735   -0.9248 N   0  0  0  0  0  0  0  0  0  0  0  0
   -3.0447   -1.4878   -0.6644 C   0  0  0  0  0  0  0  0  0  0  0  0
   -2.8130   -0.0204   -0.3209 C   0  0  0  0  0  0  0  0  0  0  0  0
   -3.9339    0.7700   -0.0222 C   0  0  0  0  0  0  0  0  0  0  0  0
   -3.7777    2.0679    0.4619 C   0  0  0  0  0  0  0  0  0  0  0  0
   -2.5012    2.5799    0.6831 C   0  0  0  0  0  0  0  0  0  0  0  0
   -1.3732    1.8119    0.3870 C   0  0  0  0  0  0  0  0  0  0  0  0
   -1.5083    0.5170   -0.1600 C   0  0  0  0  0  0  0  0  0  0  0  0
    5.4088    2.2077    0.5548 H   0  0  0  0  0  0  0  0  0  0  0  0
    4.1747    3.4132   -0.6918 H   0  0  0  0  0  0  0  0  0  0  0  0
    0.9256    1.9829   -1.2560 H   0  0  0  0  0  0  0  0  0  0  0  0
   -0.3345   -0.3342   -1.7166 H   0  0  0  0  0  0  0  0  0  0  0  0
   -0.9568   -1.7758    0.9349 H   0  0  0  0  0  0  0  0  0  0  0  0
    0.8874   -2.7318   -1.3351 H   0  0  0  0  0  0  0  0  0  0  0  0
    0.2257   -3.7536   -0.0023 H   0  0  0  0  0  0  0  0  0  0  0  0
    2.5200   -2.8956    0.5060 H   0  0  0  0  0  0  0  0  0  0  0  0
    1.3067   -2.3421    1.7121 H   0  0  0  0  0  0  0  0  0  0  0  0
    3.9752   -1.0314    1.2148 H   0  0  0  0  0  0  0  0  0  0  0  0
   -1.5990   -2.2279   -1.9479 H   0  0  0  0  0  0  0  0  0  0  0  0
   -3.5811   -1.9617    0.1855 H   0  0  0  0  0  0  0  0  0  0  0  0
   -3.7177   -1.5506   -1.5479 H   0  0  0  0  0  0  0  0  0  0  0  0
   -4.9326    0.3668   -0.1380 H   0  0  0  0  0  0  0  0  0  0  0  0
   -4.6485    2.6662    0.6968 H   0  0  0  0  0  0  0  0  0  0  0  0
   -2.3844    3.5748    1.0936 H   0  0  0  0  0  0  0  0  0  0  0  0
   -0.4130    2.2403    0.6190 H   0  0  0  0  0  0  0  0  0  0  0  0
  1  2  1  0
  2  3  2  0
  3  4  1  0
  3  5  1  0
  5  6  2  0
  6  7  1  0
  7  8  1  0
  8  9  1  0
  9 10  1  0
 10 11  1  0
 11 12  2  0
  8 13  1  0
 13 14  1  0
 14 15  1  0
 15 16  2  0
 16 17  1  0
 17 18  2  0
 18 19  1  0
 19 20  2  0
 12  2  1  0
 20 15  1  0
 11  6  1  0
 20  7  1  0
  1 21  1  0
  4 22  1  0
  5 23  1  0
  7 24  1  6
  8 25  1  1
  9 26  1  0
  9 27  1  0
 10 28  1  0
 10 29  1  0
 12 30  1  0
 13 31  1  0
 14 32  1  0
 14 33  1  0
 16 34  1  0
 17 35  1  0
 18 36  1  0
 19 37  1  0
M  END
$$$$
