
     RDKit          3D

 31 32  0  0  0  0  0  0  0  0999 V2000
   -1.7559    0.1919   -0.8303 C   0  0  2  0  0  0  0  0  0  0  0  0
   -2.5253    0.3695    0.4890 C   0  0  0  0  0  0  0  0  0  0  0  0
   -1.5873   -0.2074    1.5475 C   0  0  0  0  0  0  0  0  0  0  0  0
   -0.3536   -0.6645    0.7489 C   0  0  1  0  0  0  0  0  0  0  0  0
   -0.8246   -0.9187   -0.6172 N   0  0  0  0  0  0  0  0  0  0  0  0
   -1.4761   -2.2339   -0.7522 C   0  0  0  0  0  0  0  0  0  0  0  0
    0.7053    0.4717    0.6652 C   0  0  1  0  0  0  0  0  0  0  0  0
    1.9381   -0.0240   -0.0509 C   0  0  0  0  0  0  0  0  0  0  0  0
    1.9279   -0.1827   -1.3032 O   0  0  0  0  0  0  0  0  0  0  0  0
    3.0797   -0.3373    0.6925 O   0  0  0  0  0  0  0  0  0  0  0  0
    4.2733   -0.8264    0.0933 C   0  0  0  0  0  0  0  0  0  0  0  0
    0.1058    1.7572    0.0025 C   0  0  1  0  0  0  0  0  0  0  0  0
    1.1312    2.5985   -0.4619 O   0  0  0  0  0  0  0  0  0  0  0  0
   -0.8959    1.4385   -1.1460 C   0  0  0  0  0  0  0  0  0  0  0  0
   -2.4488   -0.0025   -1.6801 H   0  0  0  0  0  0  0  0  0  0  0  0
   -3.4711   -0.2143    0.4579 H   0  0  0  0  0  0  0  0  0  0  0  0
   -2.7751    1.4332    0.6956 H   0  0  0  0  0  0  0  0  0  0  0  0
   -1.3368    0.5441    2.3278 H   0  0  0  0  0  0  0  0  0  0  0  0
   -2.0634   -1.0816    2.0430 H   0  0  0  0  0  0  0  0  0  0  0  0
    0.1018   -1.5714    1.2097 H   0  0  0  0  0  0  0  0  0  0  0  0
   -0.7381   -3.0396   -0.5523 H   0  0  0  0  0  0  0  0  0  0  0  0
   -1.8391   -2.3670   -1.7935 H   0  0  0  0  0  0  0  0  0  0  0  0
   -2.3339   -2.3533   -0.0561 H   0  0  0  0  0  0  0  0  0  0  0  0
    1.0151    0.7370    1.7008 H   0  0  0  0  0  0  0  0  0  0  0  0
    4.6681   -0.0820   -0.6301 H   0  0  0  0  0  0  0  0  0  0  0  0
    5.0333   -0.9990    0.8827 H   0  0  0  0  0  0  0  0  0  0  0  0
    4.0713   -1.7861   -0.4279 H   0  0  0  0  0  0  0  0  0  0  0  0
   -0.4563    2.3003    0.7978 H   0  0  0  0  0  0  0  0  0  0  0  0
    0.7175    3.4828   -0.6437 H   0  0  0  0  0  0  0  0  0  0  0  0
   -0.3326    1.2506   -2.0861 H   0  0  0  0  0  0  0  0  0  0  0  0
   -1.5544    2.3166   -1.3228 H   0  0  0  0  0  0  0  0  0  0  0  0
  1  2  1  0
  2  3  1  0
  3  4  1  0
  4  5  1  0
  5  6  1  0
  4  7  1  0
  7  8  1  0
  8  9  2  0
  8 10  1  0
 10 11  1  0
  7 12  1  0
 12 13  1  0
 12 14  1  0
  5  1  1  0
 14  1  1  0
  1 15  1  6
  2 16  1  0
  2 17  1  0
  3 18  1  0
  3 19  1  0
  4 20  1  1
  6 21  1  0
  6 22  1  0
  6 23  1  0
  7 24  1  1
 11 25  1  0
 11 26  1  0
 11 27  1  0
 12 28  1  1
 13 29  1  0
 14 30  1  0
 14 31  1  0
M  END
$$$$
