
     RDKit          3D

 58 61  0  0  0  0  0  0  0  0999 V2000
   -0.5739    1.2314   -0.4950 C   0  0  2  0  0  0  0  0  0  0  0  0
    0.0893    1.9714   -1.6480 C   0  0  0  0  0  0  0  0  0  0  0  0
    1.5948    1.7889   -1.3882 C   0  0  0  0  0  0  0  0  0  0  0  0
    1.7290    0.7676   -0.2385 C   0  0  2  0  0  0  0  0  0  0  0  0
    2.8238   -0.1180   -0.4837 O   0  0  0  0  0  0  0  0  0  0  0  0
    3.4509   -0.8670    0.5174 C   0  0  0  0  0  0  0  0  0  0  0  0
    3.1433   -0.7116    1.7305 O   0  0  0  0  0  0  0  0  0  0  0  0
    4.5316   -1.8324    0.1417 C   0  0  0  0  0  0  0  0  0  0  0  0
    5.8166   -1.1076   -0.2778 C   0  0  0  0  0  0  0  0  0  0  0  0
    6.4848   -0.3835    0.8999 C   0  0  0  0  0  0  0  0  0  0  0  0
    7.7889    0.2808    0.4685 C   0  0  0  0  0  0  0  0  0  0  0  0
    0.3617    0.0499   -0.2024 C   0  0  2  0  0  0  0  0  0  0  0  0
    0.3340   -1.0731   -1.2893 C   0  0  0  0  0  0  0  0  0  0  0  0
   -0.0360   -0.5377    1.1693 C   0  0  0  0  0  0  0  0  0  0  0  0
   -1.5309   -0.9483    1.2039 C   0  0  0  0  0  0  0  0  0  0  0  0
   -2.4955    0.1856    0.7371 C   0  0  2  0  0  0  0  0  0  0  0  0
   -3.9676   -0.2272    0.6779 C   0  0  0  0  0  0  0  0  0  0  0  0
   -4.8618    0.4375   -0.2069 C   0  0  0  0  0  0  0  0  0  0  0  0
   -4.3880    1.4441   -1.2334 C   0  0  0  0  0  0  0  0  0  0  0  0
   -2.9709    1.9621   -0.9747 C   0  0  0  0  0  0  0  0  0  0  0  0
   -2.0440    0.7913   -0.6249 C   0  0  1  0  0  0  0  0  0  0  0  0
   -6.2257    0.1027   -0.2022 C   0  0  0  0  0  0  0  0  0  0  0  0
   -6.7264   -0.8412    0.6940 C   0  0  0  0  0  0  0  0  0  0  0  0
   -8.0846   -1.1510    0.6800 O   0  0  0  0  0  0  0  0  0  0  0  0
   -5.8636   -1.4626    1.5985 C   0  0  0  0  0  0  0  0  0  0  0  0
   -4.5031   -1.1512    1.6017 C   0  0  0  0  0  0  0  0  0  0  0  0
   -0.5332    1.9395    0.3704 H   0  0  0  0  0  0  0  0  0  0  0  0
   -0.1999    1.5211   -2.6226 H   0  0  0  0  0  0  0  0  0  0  0  0
   -0.1874    3.0483   -1.6465 H   0  0  0  0  0  0  0  0  0  0  0  0
    2.0623    2.7554   -1.0988 H   0  0  0  0  0  0  0  0  0  0  0  0
    2.0919    1.4170   -2.3110 H   0  0  0  0  0  0  0  0  0  0  0  0
    1.9010    1.3317    0.7077 H   0  0  0  0  0  0  0  0  0  0  0  0
    4.7421   -2.5241    0.9868 H   0  0  0  0  0  0  0  0  0  0  0  0
    4.1706   -2.4465   -0.7109 H   0  0  0  0  0  0  0  0  0  0  0  0
    6.5234   -1.8625   -0.6868 H   0  0  0  0  0  0  0  0  0  0  0  0
    5.5888   -0.3814   -1.0894 H   0  0  0  0  0  0  0  0  0  0  0  0
    6.7031   -1.1103    1.7123 H   0  0  0  0  0  0  0  0  0  0  0  0
    5.8037    0.3983    1.3001 H   0  0  0  0  0  0  0  0  0  0  0  0
    8.2476    0.7983    1.3372 H   0  0  0  0  0  0  0  0  0  0  0  0
    7.5947    1.0294   -0.3290 H   0  0  0  0  0  0  0  0  0  0  0  0
    8.5039   -0.4809    0.0910 H   0  0  0  0  0  0  0  0  0  0  0  0
    0.6166   -0.6869   -2.2902 H   0  0  0  0  0  0  0  0  0  0  0  0
    1.0536   -1.8768   -1.0252 H   0  0  0  0  0  0  0  0  0  0  0  0
   -0.6534   -1.5611   -1.3863 H   0  0  0  0  0  0  0  0  0  0  0  0
    0.1464    0.2119    1.9710 H   0  0  0  0  0  0  0  0  0  0  0  0
    0.5878   -1.4274    1.4005 H   0  0  0  0  0  0  0  0  0  0  0  0
   -1.6951   -1.8605    0.5928 H   0  0  0  0  0  0  0  0  0  0  0  0
   -1.7502   -1.2162    2.2579 H   0  0  0  0  0  0  0  0  0  0  0  0
   -2.4334    0.9859    1.5092 H   0  0  0  0  0  0  0  0  0  0  0  0
   -5.0827    2.3119   -1.2574 H   0  0  0  0  0  0  0  0  0  0  0  0
   -4.4170    0.9599   -2.2339 H   0  0  0  0  0  0  0  0  0  0  0  0
   -2.6155    2.4783   -1.8922 H   0  0  0  0  0  0  0  0  0  0  0  0
   -2.9862    2.7056   -0.1470 H   0  0  0  0  0  0  0  0  0  0  0  0
   -2.1433    0.0369   -1.4336 H   0  0  0  0  0  0  0  0  0  0  0  0
   -6.9047    0.5805   -0.8986 H   0  0  0  0  0  0  0  0  0  0  0  0
   -8.4795   -1.8312    1.3190 H   0  0  0  0  0  0  0  0  0  0  0  0
   -6.2480   -2.1841    2.3084 H   0  0  0  0  0  0  0  0  0  0  0  0
   -3.8849   -1.6379    2.3398 H   0  0  0  0  0  0  0  0  0  0  0  0
  1  2  1  0
  2  3  1  0
  3  4  1  0
  4  5  1  0
  5  6  1  0
  6  7  2  0
  6  8  1  0
  8  9  1  0
  9 10  1  0
 10 11  1  0
  4 12  1  0
 12 13  1  6
 12 14  1  0
 14 15  1  0
 15 16  1  0
 16 17  1  0
 17 18  2  0
 18 19  1  0
 19 20  1  0
 20 21  1  0
 18 22  1  0
 22 23  2  0
 23 24  1  0
 23 25  1  0
 25 26  2  0
 12  1  1  0
 21 16  1  0
 21  1  1  0
 26 17  1  0
  1 27  1  1
  2 28  1  0
  2 29  1  0
  3 30  1  0
  3 31  1  0
  4 32  1  1
  8 33  1  0
  8 34  1  0
  9 35  1  0
  9 36  1  0
 10 37  1  0
 10 38  1  0
 11 39  1  0
 11 40  1  0
 11 41  1  0
 13 42  1  0
 13 43  1  0
 13 44  1  0
 14 45  1  0
 14 46  1  0
 15 47  1  0
 15 48  1  0
 16 49  1  1
 19 50  1  0
 19 51  1  0
 20 52  1  0
 20 53  1  0
 21 54  1  6
 22 55  1  0
 24 56  1  0
 25 57  1  0
 26 58  1  0
M  END
$$$$
