
     RDKit          3D

 27 29  0  0  0  0  0  0  0  0999 V2000
    2.0775    3.0409    0.5467 O   0  0  0  0  0  0  0  0  0  0  0  0
    2.1260    1.6731    0.2614 C   0  0  0  0  0  0  0  0  0  0  0  0
    3.3961    1.1058    0.1521 C   0  0  0  0  0  0  0  0  0  0  0  0
    3.5581   -0.2647   -0.0157 C   0  0  0  0  0  0  0  0  0  0  0  0
    2.4479   -1.1166   -0.0802 C   0  0  0  0  0  0  0  0  0  0  0  0
    1.1496   -0.5553   -0.0253 C   0  0  0  0  0  0  0  0  0  0  0  0
    0.9715    0.8500    0.1148 C   0  0  0  0  0  0  0  0  0  0  0  0
   -0.3540    1.3521    0.0594 C   0  0  0  0  0  0  0  0  0  0  0  0
   -0.5705    2.5927    0.0436 O   0  0  0  0  0  0  0  0  0  0  0  0
   -1.4422    0.4570   -0.0249 C   0  0  0  0  0  0  0  0  0  0  0  0
   -2.7960    0.8813   -0.0370 C   0  0  0  0  0  0  0  0  0  0  0  0
   -3.1280    2.2342    0.0474 O   0  0  0  0  0  0  0  0  0  0  0  0
   -3.8232   -0.0696   -0.1296 C   0  0  0  0  0  0  0  0  0  0  0  0
   -3.5245   -1.4295   -0.2105 C   0  0  0  0  0  0  0  0  0  0  0  0
   -2.1971   -1.8549   -0.2019 C   0  0  0  0  0  0  0  0  0  0  0  0
   -1.1585   -0.9231   -0.1113 C   0  0  0  0  0  0  0  0  0  0  0  0
    0.0933   -1.3548   -0.1202 O   0  0  0  0  0  0  0  0  0  0  0  0
    2.6569   -2.5393   -0.2206 N   0  0  0  0  0  4  0  0  0  0  0  0
    3.9200   -3.0362   -0.4488 O   0  0  0  0  0  1  0  0  0  0  0  0
    1.7140   -3.3485   -0.1012 O   0  0  0  0  0  0  0  0  0  0  0  0
    1.2934    3.5059    0.9800 H   0  0  0  0  0  0  0  0  0  0  0  0
    4.2740    1.7341    0.2381 H   0  0  0  0  0  0  0  0  0  0  0  0
    4.5633   -0.6622   -0.0691 H   0  0  0  0  0  0  0  0  0  0  0  0
   -4.0914    2.5484    0.0414 H   0  0  0  0  0  0  0  0  0  0  0  0
   -4.8586    0.2468   -0.1379 H   0  0  0  0  0  0  0  0  0  0  0  0
   -4.3242   -2.1554   -0.2815 H   0  0  0  0  0  0  0  0  0  0  0  0
   -1.9735   -2.9123   -0.2689 H   0  0  0  0  0  0  0  0  0  0  0  0
  1  2  1  0
  2  3  2  0
  3  4  1  0
  4  5  2  0
  5  6  1  0
  6  7  2  0
  7  8  1  0
  8  9  2  0
  8 10  1  0
 10 11  2  0
 11 12  1  0
 11 13  1  0
 13 14  2  0
 14 15  1  0
 15 16  2  0
 16 17  1  0
  5 18  1  0
 18 19  1  0
 18 20  2  0
  7  2  1  0
 16 10  1  0
 17  6  1  0
  1 21  1  0
  3 22  1  0
  4 23  1  0
 12 24  1  0
 13 25  1  0
 14 26  1  0
 15 27  1  0
M  CHG  2  18   1  19  -1
M  END
$$$$
