
     RDKit          3D

 47 50  0  0  0  0  0  0  0  0999 V2000
    1.1580   -4.6668   -2.4056 C   0  0  0  0  0  0  0  0  0  0  0  0
    0.1399   -3.6423   -1.9835 C   0  0  0  0  0  0  0  0  0  0  0  0
   -1.1450   -4.0622   -1.6025 C   0  0  0  0  0  0  0  0  0  0  0  0
   -2.0991   -3.1360   -1.1775 C   0  0  0  0  0  0  0  0  0  0  0  0
   -1.8042   -1.7677   -1.1604 C   0  0  0  0  0  0  0  0  0  0  0  0
   -2.7776   -0.8403   -0.6452 N   0  0  0  0  0  0  0  0  0  0  0  0
   -2.6533    0.5841   -0.7625 C   0  0  0  0  0  0  0  0  0  0  0  0
   -2.4130    1.0912   -1.8921 O   0  0  0  0  0  0  0  0  0  0  0  0
   -2.8071    1.4604    0.4238 C   0  0  0  0  0  0  0  0  0  0  0  0
   -2.8828    0.9221    1.7202 C   0  0  0  0  0  0  0  0  0  0  0  0
   -2.9978    1.7666    2.8257 C   0  0  0  0  0  0  0  0  0  0  0  0
   -3.0280    3.1472    2.6321 C   0  0  0  0  0  0  0  0  0  0  0  0
   -2.9476    3.6594    1.3765 N   0  0  0  0  0  0  0  0  0  0  0  0
   -2.8384    2.8594    0.2822 C   0  0  0  0  0  0  0  0  0  0  0  0
   -0.5320   -1.3402   -1.5764 C   0  0  0  0  0  0  0  0  0  0  0  0
    0.4583   -2.2654   -1.9547 C   0  0  0  0  0  0  0  0  0  0  0  0
    1.7772   -1.8088   -2.3180 N   0  0  0  0  0  0  0  0  0  0  0  0
    2.4689   -0.7510   -1.6350 C   0  0  0  0  0  0  0  0  0  0  0  0
    3.6705   -0.3191   -2.0997 N   0  0  0  0  0  0  0  0  0  0  0  0
    4.3453    0.6769   -1.4696 C   0  0  0  0  0  0  0  0  0  0  0  0
    3.8050    1.2791   -0.3326 C   0  0  0  0  0  0  0  0  0  0  0  0
    2.5614    0.8312    0.1407 C   0  0  0  0  0  0  0  0  0  0  0  0
    1.9418   -0.1849   -0.5166 N   0  0  0  0  0  0  0  0  0  0  0  0
    1.8944    1.4355    1.3238 C   0  0  0  0  0  0  0  0  0  0  0  0
    2.1432    2.7626    1.7205 C   0  0  0  0  0  0  0  0  0  0  0  0
    1.4694    3.3071    2.8154 C   0  0  0  0  0  0  0  0  0  0  0  0
    0.5460    2.5261    3.5091 C   0  0  0  0  0  0  0  0  0  0  0  0
    0.3047    1.2492    3.1151 N   0  0  0  0  0  0  0  0  0  0  0  0
    0.9432    0.6950    2.0505 C   0  0  0  0  0  0  0  0  0  0  0  0
    1.3591   -4.5665   -3.4927 H   0  0  0  0  0  0  0  0  0  0  0  0
    2.1024   -4.5194   -1.8402 H   0  0  0  0  0  0  0  0  0  0  0  0
    0.8030   -5.7011   -2.2097 H   0  0  0  0  0  0  0  0  0  0  0  0
   -1.4059   -5.1133   -1.6141 H   0  0  0  0  0  0  0  0  0  0  0  0
   -3.0725   -3.4872   -0.8586 H   0  0  0  0  0  0  0  0  0  0  0  0
   -3.5849   -1.2156   -0.0977 H   0  0  0  0  0  0  0  0  0  0  0  0
   -2.8364   -0.1461    1.8862 H   0  0  0  0  0  0  0  0  0  0  0  0
   -3.0516    1.3543    3.8250 H   0  0  0  0  0  0  0  0  0  0  0  0
   -3.1107    3.8128    3.4808 H   0  0  0  0  0  0  0  0  0  0  0  0
   -2.7749    3.3183   -0.6959 H   0  0  0  0  0  0  0  0  0  0  0  0
   -0.3019   -0.2858   -1.5935 H   0  0  0  0  0  0  0  0  0  0  0  0
    2.2954   -2.3128   -3.0721 H   0  0  0  0  0  0  0  0  0  0  0  0
    5.3037    1.0020   -1.8520 H   0  0  0  0  0  0  0  0  0  0  0  0
    4.3611    2.0595    0.1686 H   0  0  0  0  0  0  0  0  0  0  0  0
    2.8319    3.3925    1.1744 H   0  0  0  0  0  0  0  0  0  0  0  0
    1.6558    4.3293    3.1184 H   0  0  0  0  0  0  0  0  0  0  0  0
    0.0148    2.9369    4.3572 H   0  0  0  0  0  0  0  0  0  0  0  0
    0.7102   -0.3261    1.7772 H   0  0  0  0  0  0  0  0  0  0  0  0
  1  2  1  0
  2  3  2  0
  3  4  1  0
  4  5  2  0
  5  6  1  0
  6  7  1  0
  7  8  2  0
  7  9  1  0
  9 10  2  0
 10 11  1  0
 11 12  2  0
 12 13  1  0
 13 14  2  0
  5 15  1  0
 15 16  2  0
 16 17  1  0
 17 18  1  0
 18 19  2  0
 19 20  1  0
 20 21  2  0
 21 22  1  0
 22 23  2  0
 22 24  1  0
 24 25  2  0
 25 26  1  0
 26 27  2  0
 27 28  1  0
 28 29  2  0
 16  2  1  0
 23 18  1  0
 29 24  1  0
 14  9  1  0
  1 30  1  0
  1 31  1  0
  1 32  1  0
  3 33  1  0
  4 34  1  0
  6 35  1  0
 10 36  1  0
 11 37  1  0
 12 38  1  0
 14 39  1  0
 15 40  1  0
 17 41  1  0
 20 42  1  0
 21 43  1  0
 25 44  1  0
 26 45  1  0
 27 46  1  0
 29 47  1  0
M  END
$$$$
