
     RDKit          3D

 45 47  0  0  0  0  0  0  0  0999 V2000
    2.8955   -2.3011   -0.4549 C   0  0  0  0  0  0  0  0  0  0  0  0
    2.6126   -1.6262    0.8239 N   0  0  0  0  0  0  0  0  0  0  0  0
    3.1703   -2.4181    1.9314 C   0  0  0  0  0  0  0  0  0  0  0  0
    3.1665   -0.2534    0.8337 C   0  0  0  0  0  0  0  0  0  0  0  0
    2.1405    0.7521    0.2918 C   0  0  0  0  0  0  0  0  0  0  0  0
    0.9494    0.9357    1.2535 C   0  0  0  0  0  0  0  0  0  0  0  0
   -0.2868    1.3045    0.5451 N   0  0  0  0  0  0  0  0  0  0  0  0
   -0.6433    2.6888    0.3235 C   0  0  0  0  0  0  0  0  0  0  0  0
    0.2627    3.5941   -0.2563 C   0  0  0  0  0  0  0  0  0  0  0  0
   -0.1535    4.8812   -0.6113 C   0  0  0  0  0  0  0  0  0  0  0  0
   -1.4793    5.2716   -0.4098 C   0  0  0  0  0  0  0  0  0  0  0  0
   -2.3900    4.3820    0.1637 C   0  0  0  0  0  0  0  0  0  0  0  0
   -1.9723    3.1022    0.5434 C   0  0  0  0  0  0  0  0  0  0  0  0
   -3.1068    2.0102    1.4009 S   0  0  0  0  0  0  0  0  0  0  0  0
   -2.6363    0.5779    0.4289 C   0  0  0  0  0  0  0  0  0  0  0  0
   -1.2746    0.2970    0.2270 C   0  0  0  0  0  0  0  0  0  0  0  0
   -0.9087   -0.9107   -0.3907 C   0  0  0  0  0  0  0  0  0  0  0  0
   -1.8872   -1.8192   -0.8399 C   0  0  0  0  0  0  0  0  0  0  0  0
   -3.2461   -1.4921   -0.6656 C   0  0  0  0  0  0  0  0  0  0  0  0
   -3.6149   -0.3026   -0.0344 C   0  0  0  0  0  0  0  0  0  0  0  0
   -1.4772   -3.0889   -1.4995 C   0  0  0  0  0  0  0  0  0  0  0  0
   -2.4819   -4.0917   -1.9827 C   0  0  0  0  0  0  0  0  0  0  0  0
   -0.2529   -3.3421   -1.6647 O   0  0  0  0  0  0  0  0  0  0  0  0
    2.3968   -3.2937   -0.4787 H   0  0  0  0  0  0  0  0  0  0  0  0
    2.4925   -1.7129   -1.3055 H   0  0  0  0  0  0  0  0  0  0  0  0
    3.9892   -2.4438   -0.6042 H   0  0  0  0  0  0  0  0  0  0  0  0
    2.7623   -3.4519    1.9112 H   0  0  0  0  0  0  0  0  0  0  0  0
    2.8732   -1.9713    2.9046 H   0  0  0  0  0  0  0  0  0  0  0  0
    4.2811   -2.4628    1.8742 H   0  0  0  0  0  0  0  0  0  0  0  0
    3.4385    0.0687    1.8655 H   0  0  0  0  0  0  0  0  0  0  0  0
    4.1013   -0.1898    0.2308 H   0  0  0  0  0  0  0  0  0  0  0  0
    1.7972    0.4454   -0.7172 H   0  0  0  0  0  0  0  0  0  0  0  0
    2.6653    1.7223    0.1751 H   0  0  0  0  0  0  0  0  0  0  0  0
    1.2003    1.7181    2.0030 H   0  0  0  0  0  0  0  0  0  0  0  0
    0.7682    0.0025    1.8315 H   0  0  0  0  0  0  0  0  0  0  0  0
    1.2748    3.3034   -0.4808 H   0  0  0  0  0  0  0  0  0  0  0  0
    0.5482    5.5698   -1.0641 H   0  0  0  0  0  0  0  0  0  0  0  0
   -1.7998    6.2655   -0.6943 H   0  0  0  0  0  0  0  0  0  0  0  0
   -3.4113    4.6967    0.3364 H   0  0  0  0  0  0  0  0  0  0  0  0
    0.1352   -1.1314   -0.5473 H   0  0  0  0  0  0  0  0  0  0  0  0
   -4.0303   -2.1569   -1.0014 H   0  0  0  0  0  0  0  0  0  0  0  0
   -4.6632   -0.0828    0.1235 H   0  0  0  0  0  0  0  0  0  0  0  0
   -1.9709   -4.9726   -2.4268 H   0  0  0  0  0  0  0  0  0  0  0  0
   -3.1288   -3.6329   -2.7594 H   0  0  0  0  0  0  0  0  0  0  0  0
   -3.1056   -4.4403   -1.1331 H   0  0  0  0  0  0  0  0  0  0  0  0
  1  2  1  0
  2  3  1  0
  2  4  1  0
  4  5  1  0
  5  6  1  0
  6  7  1  0
  7  8  1  0
  8  9  2  0
  9 10  1  0
 10 11  2  0
 11 12  1  0
 12 13  2  0
 13 14  1  0
 14 15  1  0
 15 16  2  0
 16 17  1  0
 17 18  2  0
 18 19  1  0
 19 20  2  0
 18 21  1  0
 21 22  1  0
 21 23  2  0
 16  7  1  0
 13  8  1  0
 20 15  1  0
  1 24  1  0
  1 25  1  0
  1 26  1  0
  3 27  1  0
  3 28  1  0
  3 29  1  0
  4 30  1  0
  4 31  1  0
  5 32  1  0
  5 33  1  0
  6 34  1  0
  6 35  1  0
  9 36  1  0
 10 37  1  0
 11 38  1  0
 12 39  1  0
 17 40  1  0
 19 41  1  0
 20 42  1  0
 22 43  1  0
 22 44  1  0
 22 45  1  0
M  END
$$$$
