
     RDKit          3D

 42 46  0  0  0  0  0  0  0  0999 V2000
    7.5191   -1.3915   -1.4174 F   0  0  0  0  0  0  0  0  0  0  0  0
    7.3261   -1.1534   -0.0676 C   0  0  0  0  0  0  0  0  0  0  0  0
    7.6594   -2.3040    0.6262 F   0  0  0  0  0  0  0  0  0  0  0  0
    8.1619   -0.1278    0.3330 F   0  0  0  0  0  0  0  0  0  0  0  0
    5.8953   -0.7630    0.2049 C   0  0  0  0  0  0  0  0  0  0  0  0
    5.3110   -1.0273    1.4542 C   0  0  0  0  0  0  0  0  0  0  0  0
    4.0002   -0.6239    1.7236 C   0  0  0  0  0  0  0  0  0  0  0  0
    3.2479    0.0610    0.7538 C   0  0  0  0  0  0  0  0  0  0  0  0
    3.8484    0.3606   -0.4822 C   0  0  0  0  0  0  0  0  0  0  0  0
    5.1601   -0.0422   -0.7503 C   0  0  0  0  0  0  0  0  0  0  0  0
    1.8596    0.4818    1.0622 C   0  0  0  0  0  0  0  0  0  0  0  0
    1.5408    0.7111    2.2606 O   0  0  0  0  0  0  0  0  0  0  0  0
    0.8758    0.6350    0.0257 N   0  0  0  0  0  0  0  0  0  0  0  0
   -0.4601    0.9664    0.3153 N   0  0  0  0  0  0  0  0  0  0  0  0
   -1.3098    0.2465    1.1983 C   0  0  0  0  0  0  0  0  0  0  0  0
   -0.8852   -0.5934    2.0356 O   0  0  0  0  0  0  0  0  0  0  0  0
   -2.7645    0.5425    0.9831 C   0  0  1  0  0  0  0  0  0  0  0  0
   -2.7617    1.5306   -0.2458 C   0  0  2  0  0  0  0  0  0  0  0  0
   -3.5946    0.9154   -1.4147 C   0  0  1  0  0  0  0  0  0  0  0  0
   -3.0170   -0.4647   -1.7014 C   0  0  0  0  0  0  0  0  0  0  0  0
   -3.0213   -1.3068   -0.6537 C   0  0  0  0  0  0  0  0  0  0  0  0
   -3.6022   -0.7275    0.6299 C   0  0  2  0  0  0  0  0  0  0  0  0
   -5.0540   -0.2003    0.3620 C   0  0  2  0  0  0  0  0  0  0  0  0
   -5.8232   -0.5478   -0.9160 C   0  0  0  0  0  0  0  0  0  0  0  0
   -5.0497    0.7724   -0.8494 C   0  0  2  0  0  0  0  0  0  0  0  0
   -1.3062    1.6762   -0.5735 C   0  0  0  0  0  0  0  0  0  0  0  0
   -0.8672    2.3616   -1.5351 O   0  0  0  0  0  0  0  0  0  0  0  0
    5.8684   -1.5452    2.2246 H   0  0  0  0  0  0  0  0  0  0  0  0
    3.5713   -0.8547    2.6911 H   0  0  0  0  0  0  0  0  0  0  0  0
    3.3259    0.9354   -1.2341 H   0  0  0  0  0  0  0  0  0  0  0  0
    5.6034    0.2189   -1.7032 H   0  0  0  0  0  0  0  0  0  0  0  0
    1.1576    0.5627   -0.9761 H   0  0  0  0  0  0  0  0  0  0  0  0
   -3.1744    1.0430    1.8881 H   0  0  0  0  0  0  0  0  0  0  0  0
   -3.1720    2.5220    0.0481 H   0  0  0  0  0  0  0  0  0  0  0  0
   -3.5779    1.5594   -2.3192 H   0  0  0  0  0  0  0  0  0  0  0  0
   -2.6341   -0.7517   -2.6750 H   0  0  0  0  0  0  0  0  0  0  0  0
   -2.6420   -2.3209   -0.7227 H   0  0  0  0  0  0  0  0  0  0  0  0
   -3.5926   -1.4726    1.4533 H   0  0  0  0  0  0  0  0  0  0  0  0
   -5.6452    0.1945    1.2161 H   0  0  0  0  0  0  0  0  0  0  0  0
   -5.4171   -1.3521   -1.5606 H   0  0  0  0  0  0  0  0  0  0  0  0
   -6.9214   -0.4199   -0.8172 H   0  0  0  0  0  0  0  0  0  0  0  0
   -5.6386    1.6936   -0.6508 H   0  0  0  0  0  0  0  0  0  0  0  0
  1  2  1  0
  2  3  1  0
  2  4  1  0
  2  5  1  0
  5  6  2  0
  6  7  1  0
  7  8  2  0
  8  9  1  0
  9 10  2  0
  8 11  1  0
 11 12  2  0
 11 13  1  0
 13 14  1  0
 14 15  1  0
 15 16  2  0
 15 17  1  0
 17 18  1  0
 18 19  1  0
 19 20  1  0
 20 21  2  0
 21 22  1  0
 22 23  1  0
 23 24  1  0
 24 25  1  0
 18 26  1  0
 26 27  2  0
 10  5  1  0
 26 14  1  0
 22 17  1  0
 25 23  1  0
 25 19  1  0
  6 28  1  0
  7 29  1  0
  9 30  1  0
 10 31  1  0
 13 32  1  0
 17 33  1  1
 18 34  1  1
 19 35  1  6
 20 36  1  0
 21 37  1  0
 22 38  1  1
 23 39  1  1
 24 40  1  0
 24 41  1  0
 25 42  1  1
M  END
$$$$
