
     RDKit          3D

 55 56  0  0  0  0  0  0  0  0999 V2000
   -4.8027   -3.8200    0.1217 C   0  0  0  0  0  0  0  0  0  0  0  0
   -4.4375   -2.4241    0.6171 C   0  0  0  0  0  0  0  0  0  0  0  0
   -4.5918   -1.3824   -0.4969 C   0  0  0  0  0  0  0  0  0  0  0  0
   -4.2440    0.0026    0.0108 C   0  0  0  0  0  0  0  0  0  0  0  0
   -2.9146    0.4636   -0.1118 C   0  0  0  0  0  0  0  0  0  0  0  0
   -1.9502   -0.3803   -0.6895 O   0  0  0  0  0  0  0  0  0  0  0  0
   -0.5738   -0.0514   -0.8559 C   0  0  0  0  0  0  0  0  0  0  0  0
    0.1500   -1.2299   -1.5060 C   0  0  0  0  0  0  0  0  0  0  0  0
    1.6313   -0.9303   -1.7337 C   0  0  0  0  0  0  0  0  0  0  0  0
    2.2915   -0.7561   -0.4817 O   0  0  0  0  0  0  0  0  0  0  0  0
    3.6559   -0.4654   -0.3379 C   0  0  0  0  0  0  0  0  0  0  0  0
    4.5194   -0.3264   -1.4406 C   0  0  0  0  0  0  0  0  0  0  0  0
    5.8724   -0.0354   -1.2428 C   0  0  0  0  0  0  0  0  0  0  0  0
    6.3861    0.1212    0.0493 C   0  0  0  0  0  0  0  0  0  0  0  0
    7.7506    0.4127    0.1935 O   0  0  0  0  0  0  0  0  0  0  0  0
    8.4065    0.5979    1.4443 C   0  0  0  0  0  0  0  0  0  0  0  0
    9.8496    0.8871    1.2030 C   0  0  0  0  0  0  0  0  0  0  0  0
   10.7662   -0.1580    1.1490 O   0  0  0  0  0  0  0  0  0  0  0  0
   10.2311    2.0714    1.0043 O   0  0  0  0  0  0  0  0  0  0  0  0
    5.5224   -0.0181    1.1521 C   0  0  0  0  0  0  0  0  0  0  0  0
    4.1694   -0.3092    0.9542 C   0  0  0  0  0  0  0  0  0  0  0  0
   -2.5809    1.7468    0.3489 C   0  0  0  0  0  0  0  0  0  0  0  0
   -3.5459    2.5650    0.9270 C   0  0  0  0  0  0  0  0  0  0  0  0
   -4.8683    2.1245    1.0751 C   0  0  0  0  0  0  0  0  0  0  0  0
   -5.8551    3.0436    1.7018 C   0  0  0  0  0  0  0  0  0  0  0  0
   -7.3035    3.0470    1.3170 C   0  0  0  0  0  0  0  0  0  0  0  0
   -5.4687    3.8567    2.5848 O   0  0  0  0  0  0  0  0  0  0  0  0
   -5.2148    0.8213    0.6491 C   0  0  0  0  0  0  0  0  0  0  0  0
   -6.5091    0.3531    0.8994 O   0  0  0  0  0  0  0  0  0  0  0  0
   -4.6783   -4.5518    0.9475 H   0  0  0  0  0  0  0  0  0  0  0  0
   -5.8601   -3.8440   -0.2180 H   0  0  0  0  0  0  0  0  0  0  0  0
   -4.1397   -4.1168   -0.7188 H   0  0  0  0  0  0  0  0  0  0  0  0
   -5.0940   -2.1640    1.4753 H   0  0  0  0  0  0  0  0  0  0  0  0
   -3.3845   -2.4333    0.9745 H   0  0  0  0  0  0  0  0  0  0  0  0
   -3.9336   -1.6584   -1.3492 H   0  0  0  0  0  0  0  0  0  0  0  0
   -5.6198   -1.4014   -0.9148 H   0  0  0  0  0  0  0  0  0  0  0  0
   -0.1224    0.1620    0.1375 H   0  0  0  0  0  0  0  0  0  0  0  0
   -0.4829    0.8452   -1.5074 H   0  0  0  0  0  0  0  0  0  0  0  0
    0.0507   -2.1290   -0.8595 H   0  0  0  0  0  0  0  0  0  0  0  0
   -0.3268   -1.4530   -2.4852 H   0  0  0  0  0  0  0  0  0  0  0  0
    2.0890   -1.7852   -2.2771 H   0  0  0  0  0  0  0  0  0  0  0  0
    1.7374   -0.0113   -2.3509 H   0  0  0  0  0  0  0  0  0  0  0  0
    4.1565   -0.4414   -2.4527 H   0  0  0  0  0  0  0  0  0  0  0  0
    6.5266    0.0691   -2.0992 H   0  0  0  0  0  0  0  0  0  0  0  0
    8.3162   -0.3243    2.0577 H   0  0  0  0  0  0  0  0  0  0  0  0
    7.9442    1.4479    1.9918 H   0  0  0  0  0  0  0  0  0  0  0  0
   11.7471    0.0202    0.9688 H   0  0  0  0  0  0  0  0  0  0  0  0
    5.8854    0.0963    2.1643 H   0  0  0  0  0  0  0  0  0  0  0  0
    3.5151   -0.4136    1.8105 H   0  0  0  0  0  0  0  0  0  0  0  0
   -1.5727    2.1274    0.2609 H   0  0  0  0  0  0  0  0  0  0  0  0
   -3.2564    3.5558    1.2560 H   0  0  0  0  0  0  0  0  0  0  0  0
   -7.8653    2.3397    1.9619 H   0  0  0  0  0  0  0  0  0  0  0  0
   -7.7295    4.0639    1.4513 H   0  0  0  0  0  0  0  0  0  0  0  0
   -7.4235    2.7623    0.2504 H   0  0  0  0  0  0  0  0  0  0  0  0
   -6.8201   -0.5899    0.7124 H   0  0  0  0  0  0  0  0  0  0  0  0
  1  2  1  0
  2  3  1  0
  3  4  1  0
  4  5  2  0
  5  6  1  0
  6  7  1  0
  7  8  1  0
  8  9  1  0
  9 10  1  0
 10 11  1  0
 11 12  2  0
 12 13  1  0
 13 14  2  0
 14 15  1  0
 15 16  1  0
 16 17  1  0
 17 18  1  0
 17 19  2  0
 14 20  1  0
 20 21  2  0
  5 22  1  0
 22 23  2  0
 23 24  1  0
 24 25  1  0
 25 26  1  0
 25 27  2  0
 24 28  2  0
 28 29  1  0
 28  4  1  0
 21 11  1  0
  1 30  1  0
  1 31  1  0
  1 32  1  0
  2 33  1  0
  2 34  1  0
  3 35  1  0
  3 36  1  0
  7 37  1  0
  7 38  1  0
  8 39  1  0
  8 40  1  0
  9 41  1  0
  9 42  1  0
 12 43  1  0
 13 44  1  0
 16 45  1  0
 16 46  1  0
 18 47  1  0
 20 48  1  0
 21 49  1  0
 22 50  1  0
 23 51  1  0
 26 52  1  0
 26 53  1  0
 26 54  1  0
 29 55  1  0
M  END
$$$$
