
     RDKit          3D

 27 27  0  0  0  0  0  0  0  0999 V2000
    0.9779   -0.2551    0.2027 C   0  0  2  0  0  0  0  0  0  0  0  0
    0.2630    1.1089    0.1492 C   0  0  0  0  0  0  0  0  0  0  0  0
   -1.2245    0.9536   -0.0477 C   0  0  0  0  0  0  0  0  0  0  0  0
   -1.7873    1.0562   -1.3312 C   0  0  0  0  0  0  0  0  0  0  0  0
   -3.1625    0.8798   -1.5133 C   0  0  0  0  0  0  0  0  0  0  0  0
   -3.9833    0.5945   -0.4188 C   0  0  0  0  0  0  0  0  0  0  0  0
   -3.4298    0.4821    0.8596 C   0  0  0  0  0  0  0  0  0  0  0  0
   -2.0551    0.6572    1.0461 C   0  0  0  0  0  0  0  0  0  0  0  0
    2.3896   -0.0763    0.5575 N   0  0  0  0  0  0  0  0  0  0  0  0
    3.2134   -1.1691    0.9867 C   0  0  0  0  0  0  0  0  0  0  0  0
    4.5851   -0.9453    1.3091 N   0  0  0  0  0  0  0  0  0  0  0  0
    2.7338   -2.3309    1.0823 O   0  0  0  0  0  0  0  0  0  0  0  0
    0.8722   -0.9665   -1.1179 C   0  0  0  0  0  0  0  0  0  0  0  0
    0.0149   -2.0543   -1.2499 O   0  0  0  0  0  0  0  0  0  0  0  0
    1.5339   -0.5634   -2.1125 O   0  0  0  0  0  0  0  0  0  0  0  0
    0.4900   -0.8712    0.9910 H   0  0  0  0  0  0  0  0  0  0  0  0
    0.4440    1.6519    1.1030 H   0  0  0  0  0  0  0  0  0  0  0  0
    0.6968    1.7352   -0.6619 H   0  0  0  0  0  0  0  0  0  0  0  0
   -1.1618    1.2682   -2.1894 H   0  0  0  0  0  0  0  0  0  0  0  0
   -3.5914    0.9614   -2.5037 H   0  0  0  0  0  0  0  0  0  0  0  0
   -5.0473    0.4572   -0.5617 H   0  0  0  0  0  0  0  0  0  0  0  0
   -4.0657    0.2561    1.7058 H   0  0  0  0  0  0  0  0  0  0  0  0
   -1.6371    0.5597    2.0404 H   0  0  0  0  0  0  0  0  0  0  0  0
    2.8228    0.8731    0.4925 H   0  0  0  0  0  0  0  0  0  0  0  0
    4.9992    0.0102    1.2355 H   0  0  0  0  0  0  0  0  0  0  0  0
    5.1895   -1.7372    1.6221 H   0  0  0  0  0  0  0  0  0  0  0  0
   -0.0802   -2.5360   -2.1358 H   0  0  0  0  0  0  0  0  0  0  0  0
  1  2  1  0
  2  3  1  0
  3  4  2  0
  4  5  1  0
  5  6  2  0
  6  7  1  0
  7  8  2  0
  1  9  1  0
  9 10  1  0
 10 11  1  0
 10 12  2  0
  1 13  1  0
 13 14  1  0
 13 15  2  0
  8  3  1  0
  1 16  1  1
  2 17  1  0
  2 18  1  0
  4 19  1  0
  5 20  1  0
  6 21  1  0
  7 22  1  0
  8 23  1  0
  9 24  1  0
 11 25  1  0
 11 26  1  0
 14 27  1  0
M  END
$$$$
