
     RDKit          3D

 21 22  0  0  0  0  0  0  0  0999 V2000
   -0.1599    2.7105   -0.0306 C   0  0  0  0  0  0  0  0  0  0  0  0
   -0.1512    1.2428    0.0247 N   0  0  0  0  0  0  0  0  0  0  0  0
    1.0211    0.5549    0.0885 C   0  0  0  0  0  0  0  0  0  0  0  0
    1.0648   -0.7945    0.0903 C   0  0  0  0  0  0  0  0  0  0  0  0
    2.3387   -1.2027    0.1412 N   0  0  0  0  0  0  0  0  0  0  0  0
    3.0408   -0.0443    0.1691 C   0  0  0  0  0  0  0  0  0  0  0  0
    4.7900    0.0141    0.2347 Cl  0  0  0  0  0  0  0  0  0  0  0  0
    2.2648    1.0709    0.1355 N   0  0  0  0  0  0  0  0  0  0  0  0
   -0.0988   -1.5400    0.0222 C   0  0  0  0  0  0  0  0  0  0  0  0
   -0.0450   -2.8005    0.0050 O   0  0  0  0  0  0  0  0  0  0  0  0
   -1.2993   -0.8689   -0.0346 N   0  0  0  0  0  0  0  0  0  0  0  0
   -2.5575   -1.6250   -0.1468 C   0  0  0  0  0  0  0  0  0  0  0  0
   -1.3208    0.5170   -0.0654 C   0  0  0  0  0  0  0  0  0  0  0  0
   -2.4224    1.1248   -0.1841 O   0  0  0  0  0  0  0  0  0  0  0  0
   -1.0260    3.1182    0.5331 H   0  0  0  0  0  0  0  0  0  0  0  0
   -0.2224    3.0423   -1.0883 H   0  0  0  0  0  0  0  0  0  0  0  0
    0.7570    3.1375    0.4290 H   0  0  0  0  0  0  0  0  0  0  0  0
    2.7069   -2.1798    0.1506 H   0  0  0  0  0  0  0  0  0  0  0  0
   -2.8123   -1.7664   -1.2182 H   0  0  0  0  0  0  0  0  0  0  0  0
   -2.4781   -2.6192    0.3427 H   0  0  0  0  0  0  0  0  0  0  0  0
   -3.3901   -1.0916    0.3597 H   0  0  0  0  0  0  0  0  0  0  0  0
  1  2  1  0
  2  3  1  0
  3  4  2  0
  4  5  1  0
  5  6  1  0
  6  7  1  0
  6  8  2  0
  4  9  1  0
  9 10  2  0
  9 11  1  0
 11 12  1  0
 11 13  1  0
 13 14  2  0
 13  2  1  0
  8  3  1  0
  1 15  1  0
  1 16  1  0
  1 17  1  0
  5 18  1  0
 12 19  1  0
 12 20  1  0
 12 21  1  0
M  END
$$$$
