
     RDKit          3D

 88 91  0  0  0  0  0  0  0  0999 V2000
    7.2321   -2.9146   -1.0002 N   0  0  0  0  0  0  0  0  0  0  0  0
    6.4660   -1.6897   -0.7834 C   0  0  0  0  0  0  0  0  0  0  0  0
    5.8752   -1.6460    0.6392 C   0  0  2  0  0  0  0  0  0  0  0  0
    4.8410   -0.6682    0.6340 O   0  0  0  0  0  0  0  0  0  0  0  0
    4.4065   -0.3739    1.9502 C   0  0  2  0  0  0  0  0  0  0  0  0
    3.1621    0.3016    1.9122 O   0  0  0  0  0  0  0  0  0  0  0  0
    2.1458   -0.5189    1.3515 C   0  0  2  0  0  0  0  0  0  0  0  0
    1.9039   -0.1227   -0.1169 C   0  0  1  0  0  0  0  0  0  0  0  0
    1.9163   -1.3453   -1.0405 C   0  0  0  0  0  0  0  0  0  0  0  0
    1.6651   -0.9451   -2.3590 O   0  0  0  0  0  0  0  0  0  0  0  0
    0.6589    0.5371   -0.2252 O   0  0  0  0  0  0  0  0  0  0  0  0
    0.2436    0.8526    1.0828 C   0  0  1  0  0  0  0  0  0  0  0  0
   -1.1708    0.8413    1.1689 O   0  0  0  0  0  0  0  0  0  0  0  0
   -1.7390    1.9759    0.5319 C   0  0  2  0  0  0  0  0  0  0  0  0
   -2.1763    2.9970    1.6082 C   0  0  1  0  0  0  0  0  0  0  0  0
   -1.0477    3.4115    2.3364 O   0  0  0  0  0  0  0  0  0  0  0  0
   -2.8502    4.2261    0.9572 C   0  0  2  0  0  0  0  0  0  0  0  0
   -3.3270    5.1487    1.9912 N   0  0  0  0  0  0  0  0  0  0  0  0
   -4.0327    3.7856    0.0758 C   0  0  0  0  0  0  0  0  0  0  0  0
   -3.5943    2.7623   -0.9897 C   0  0  2  0  0  0  0  0  0  0  0  0
   -4.7474    2.3788   -1.8085 N   0  0  0  0  0  0  0  0  0  0  0  0
   -2.9609    1.5217   -0.3006 C   0  0  1  0  0  0  0  0  0  0  0  0
   -2.5254    0.5781   -1.2742 O   0  0  0  0  0  0  0  0  0  0  0  0
   -3.4883   -0.4432   -1.5193 C   0  0  1  0  0  0  0  0  0  0  0  0
   -3.4992   -0.7192   -2.9078 O   0  0  0  0  0  0  0  0  0  0  0  0
   -4.6198   -1.5130   -3.2980 C   0  0  2  0  0  0  0  0  0  0  0  0
   -5.7575   -0.5998   -3.7898 C   0  0  0  0  0  0  0  0  0  0  0  0
   -6.8213   -1.3816   -4.4146 N   0  0  0  0  0  0  0  0  0  0  0  0
   -5.1040   -2.5202   -2.2097 C   0  0  1  0  0  0  0  0  0  0  0  0
   -5.6843   -3.6394   -2.8308 O   0  0  0  0  0  0  0  0  0  0  0  0
   -3.9053   -2.9588   -1.3448 C   0  0  2  0  0  0  0  0  0  0  0  0
   -4.3095   -3.8417   -0.3276 O   0  0  0  0  0  0  0  0  0  0  0  0
   -3.1379   -1.7420   -0.7467 C   0  0  1  0  0  0  0  0  0  0  0  0
   -1.6977   -2.0079   -0.7980 N   0  0  0  0  0  0  0  0  0  0  0  0
    0.8164   -0.2050    1.9998 C   0  0  2  0  0  0  0  0  0  0  0  0
    0.9548    0.2851    3.3084 O   0  0  0  0  0  0  0  0  0  0  0  0
    5.4744    0.5066    2.6537 C   0  0  2  0  0  0  0  0  0  0  0  0
    5.2465    1.9311    2.3852 N   0  0  0  0  0  0  0  0  0  0  0  0
    6.9003    0.1078    2.1771 C   0  0  1  0  0  0  0  0  0  0  0  0
    7.8566    0.3829    3.1711 O   0  0  0  0  0  0  0  0  0  0  0  0
    6.9520   -1.3709    1.7490 C   0  0  2  0  0  0  0  0  0  0  0  0
    8.2536   -1.6922    1.3263 O   0  0  0  0  0  0  0  0  0  0  0  0
    6.5628   -3.7176   -1.0400 H   0  0  0  0  0  0  0  0  0  0  0  0
    7.6746   -2.8501   -1.9454 H   0  0  0  0  0  0  0  0  0  0  0  0
    7.1179   -0.8035   -0.9469 H   0  0  0  0  0  0  0  0  0  0  0  0
    5.6404   -1.6415   -1.5295 H   0  0  0  0  0  0  0  0  0  0  0  0
    5.4109   -2.6393    0.8371 H   0  0  0  0  0  0  0  0  0  0  0  0
    4.2897   -1.3084    2.5551 H   0  0  0  0  0  0  0  0  0  0  0  0
    2.3434   -1.6125    1.4758 H   0  0  0  0  0  0  0  0  0  0  0  0
    2.6988    0.5763   -0.4617 H   0  0  0  0  0  0  0  0  0  0  0  0
    1.1398   -2.0720   -0.7137 H   0  0  0  0  0  0  0  0  0  0  0  0
    2.9120   -1.8398   -0.9871 H   0  0  0  0  0  0  0  0  0  0  0  0
    1.6705   -1.7746   -2.9039 H   0  0  0  0  0  0  0  0  0  0  0  0
    0.6658    1.8457    1.3684 H   0  0  0  0  0  0  0  0  0  0  0  0
   -1.0281    2.4805   -0.1699 H   0  0  0  0  0  0  0  0  0  0  0  0
   -2.9100    2.4959    2.2867 H   0  0  0  0  0  0  0  0  0  0  0  0
   -1.3331    3.5359    3.2791 H   0  0  0  0  0  0  0  0  0  0  0  0
   -2.1052    4.7527    0.3162 H   0  0  0  0  0  0  0  0  0  0  0  0
   -3.7927    5.9603    1.5234 H   0  0  0  0  0  0  0  0  0  0  0  0
   -2.4982    5.5523    2.4849 H   0  0  0  0  0  0  0  0  0  0  0  0
   -4.4555    4.6812   -0.4303 H   0  0  0  0  0  0  0  0  0  0  0  0
   -4.8323    3.3443    0.7121 H   0  0  0  0  0  0  0  0  0  0  0  0
   -2.8334    3.2426   -1.6485 H   0  0  0  0  0  0  0  0  0  0  0  0
   -4.3892    1.9152   -2.6742 H   0  0  0  0  0  0  0  0  0  0  0  0
   -5.2258    3.2446   -2.1486 H   0  0  0  0  0  0  0  0  0  0  0  0
   -3.6928    1.0778    0.4182 H   0  0  0  0  0  0  0  0  0  0  0  0
   -4.5122   -0.1210   -1.2073 H   0  0  0  0  0  0  0  0  0  0  0  0
   -4.2766   -2.1100   -4.1721 H   0  0  0  0  0  0  0  0  0  0  0  0
   -6.1782   -0.0256   -2.9362 H   0  0  0  0  0  0  0  0  0  0  0  0
   -5.3527    0.1310   -4.5254 H   0  0  0  0  0  0  0  0  0  0  0  0
   -7.5952   -0.7239   -4.6637 H   0  0  0  0  0  0  0  0  0  0  0  0
   -6.4578   -1.7671   -5.3166 H   0  0  0  0  0  0  0  0  0  0  0  0
   -5.8584   -2.0218   -1.5545 H   0  0  0  0  0  0  0  0  0  0  0  0
   -6.2627   -4.0787   -2.1540 H   0  0  0  0  0  0  0  0  0  0  0  0
   -3.2191   -3.5211   -2.0182 H   0  0  0  0  0  0  0  0  0  0  0  0
   -4.9773   -3.3669    0.2335 H   0  0  0  0  0  0  0  0  0  0  0  0
   -3.4386   -1.5912    0.3158 H   0  0  0  0  0  0  0  0  0  0  0  0
   -1.2110   -1.2943   -0.2161 H   0  0  0  0  0  0  0  0  0  0  0  0
   -1.5123   -2.9187   -0.3176 H   0  0  0  0  0  0  0  0  0  0  0  0
    0.1616   -1.1090    1.9868 H   0  0  0  0  0  0  0  0  0  0  0  0
    1.2039   -0.4930    3.8724 H   0  0  0  0  0  0  0  0  0  0  0  0
    5.3867    0.3307    3.7509 H   0  0  0  0  0  0  0  0  0  0  0  0
    4.3847    2.2320    2.8960 H   0  0  0  0  0  0  0  0  0  0  0  0
    6.0264    2.4784    2.8175 H   0  0  0  0  0  0  0  0  0  0  0  0
    7.1619    0.7168    1.2824 H   0  0  0  0  0  0  0  0  0  0  0  0
    7.6646   -0.2080    3.9457 H   0  0  0  0  0  0  0  0  0  0  0  0
    6.6941   -1.9861    2.6450 H   0  0  0  0  0  0  0  0  0  0  0  0
    8.3634   -2.6706    1.4546 H   0  0  0  0  0  0  0  0  0  0  0  0
  1  2  1  0
  2  3  1  0
  3  4  1  0
  4  5  1  0
  5  6  1  0
  6  7  1  0
  7  8  1  0
  8  9  1  0
  9 10  1  0
  8 11  1  0
 11 12  1  0
 12 13  1  0
 13 14  1  0
 14 15  1  0
 15 16  1  0
 15 17  1  0
 17 18  1  0
 17 19  1  0
 19 20  1  0
 20 21  1  0
 20 22  1  0
 22 23  1  0
 23 24  1  0
 24 25  1  0
 25 26  1  0
 26 27  1  0
 27 28  1  0
 26 29  1  0
 29 30  1  0
 29 31  1  0
 31 32  1  0
 31 33  1  0
 33 34  1  0
 12 35  1  0
 35 36  1  0
  5 37  1  0
 37 38  1  0
 37 39  1  0
 39 40  1  0
 39 41  1  0
 41 42  1  0
 41  3  1  0
 35  7  1  0
 22 14  1  0
 33 24  1  0
  1 43  1  0
  1 44  1  0
  2 45  1  0
  2 46  1  0
  3 47  1  1
  5 48  1  1
  7 49  1  6
  8 50  1  6
  9 51  1  0
  9 52  1  0
 10 53  1  0
 12 54  1  1
 14 55  1  6
 15 56  1  1
 16 57  1  0
 17 58  1  6
 18 59  1  0
 18 60  1  0
 19 61  1  0
 19 62  1  0
 20 63  1  6
 21 64  1  0
 21 65  1  0
 22 66  1  1
 24 67  1  1
 26 68  1  6
 27 69  1  0
 27 70  1  0
 28 71  1  0
 28 72  1  0
 29 73  1  1
 30 74  1  0
 31 75  1  6
 32 76  1  0
 33 77  1  1
 34 78  1  0
 34 79  1  0
 35 80  1  1
 36 81  1  0
 37 82  1  1
 38 83  1  0
 38 84  1  0
 39 85  1  6
 40 86  1  0
 41 87  1  1
 42 88  1  0
M  END
$$$$
