
     RDKit          3D

 36 36  0  0  0  0  0  0  0  0999 V2000
   -3.4737    0.4695    1.4122 C   0  0  0  0  0  0  0  0  0  0  0  0
   -2.9585   -0.1920    0.1264 C   0  0  0  0  0  0  0  0  0  0  0  0
   -3.4858   -1.6259   -0.0054 C   0  0  0  0  0  0  0  0  0  0  0  0
   -1.4335   -0.1622    0.0556 C   0  0  0  0  0  0  0  0  0  0  0  0
   -0.7020   -0.7836    1.0880 C   0  0  0  0  0  0  0  0  0  0  0  0
    0.6911   -0.7790    1.0925 C   0  0  0  0  0  0  0  0  0  0  0  0
    1.4035   -0.1500    0.0648 C   0  0  0  0  0  0  0  0  0  0  0  0
    0.6908    0.4518   -0.9833 C   0  0  0  0  0  0  0  0  0  0  0  0
   -0.7153    0.4490   -1.0118 C   0  0  0  0  0  0  0  0  0  0  0  0
   -1.5097    1.2304   -2.3956 S   0  0  0  0  0  6  0  0  0  0  0  0
   -2.2280    2.7812   -1.8929 C   0  0  0  0  0  0  0  0  0  0  0  0
   -2.5624    0.3258   -2.9728 O   0  0  0  0  0  0  0  0  0  0  0  0
   -0.5013    1.5134   -3.4743 O   0  0  0  0  0  0  0  0  0  0  0  0
    2.8876   -0.1399    0.0638 C   0  0  0  0  0  0  0  0  0  0  0  0
    3.5061    0.0977   -1.0100 O   0  0  0  0  0  0  0  0  0  0  0  0
    3.6261   -0.3469    1.2788 N   0  0  0  0  0  0  0  0  0  0  0  0
    5.0050   -0.7441    1.3097 C   0  0  0  0  0  0  0  0  0  0  0  0
    5.5770   -1.5029    0.2379 N   0  0  0  0  0  0  0  0  0  0  0  0
    5.7208   -0.4580    2.3503 N   0  0  0  0  0  0  0  0  0  0  0  0
   -4.5814    0.5491    1.3800 H   0  0  0  0  0  0  0  0  0  0  0  0
   -3.1945   -0.1166    2.3127 H   0  0  0  0  0  0  0  0  0  0  0  0
   -3.0559    1.4948    1.5056 H   0  0  0  0  0  0  0  0  0  0  0  0
   -3.4106    0.3816   -0.6999 H   0  0  0  0  0  0  0  0  0  0  0  0
   -3.1116   -2.0824   -0.9467 H   0  0  0  0  0  0  0  0  0  0  0  0
   -4.5963   -1.6217   -0.0396 H   0  0  0  0  0  0  0  0  0  0  0  0
   -3.1628   -2.2540    0.8515 H   0  0  0  0  0  0  0  0  0  0  0  0
   -1.2114   -1.2838    1.9012 H   0  0  0  0  0  0  0  0  0  0  0  0
    1.2064   -1.2865    1.8975 H   0  0  0  0  0  0  0  0  0  0  0  0
    1.2388    0.9365   -1.7808 H   0  0  0  0  0  0  0  0  0  0  0  0
   -2.7416    3.2486   -2.7580 H   0  0  0  0  0  0  0  0  0  0  0  0
   -1.4257    3.4585   -1.5344 H   0  0  0  0  0  0  0  0  0  0  0  0
   -2.9595    2.6246   -1.0755 H   0  0  0  0  0  0  0  0  0  0  0  0
    3.1730   -0.0930    2.1856 H   0  0  0  0  0  0  0  0  0  0  0  0
    6.5923   -1.7474    0.2422 H   0  0  0  0  0  0  0  0  0  0  0  0
    4.9813   -1.8957   -0.5233 H   0  0  0  0  0  0  0  0  0  0  0  0
    6.7218   -0.7467    2.4257 H   0  0  0  0  0  0  0  0  0  0  0  0
  1  2  1  0
  2  3  1  0
  2  4  1  0
  4  5  2  0
  5  6  1  0
  6  7  2  0
  7  8  1  0
  8  9  2  0
  9 10  1  0
 10 11  1  0
 10 12  2  0
 10 13  2  0
  7 14  1  0
 14 15  2  0
 14 16  1  0
 16 17  1  0
 17 18  1  0
 17 19  2  3
  9  4  1  0
  1 20  1  0
  1 21  1  0
  1 22  1  0
  2 23  1  0
  3 24  1  0
  3 25  1  0
  3 26  1  0
  5 27  1  0
  6 28  1  0
  8 29  1  0
 11 30  1  0
 11 31  1  0
 11 32  1  0
 16 33  1  0
 18 34  1  0
 18 35  1  0
 19 36  1  0
M  END
$$$$
