
     RDKit          3D

 52 54  0  0  0  0  0  0  0  0999 V2000
   -5.2558    3.0094    1.4956 C   0  0  0  0  0  0  0  0  0  0  0  0
   -5.2505    1.9310    0.5653 O   0  0  0  0  0  0  0  0  0  0  0  0
   -4.1304    1.1488    0.2409 C   0  0  0  0  0  0  0  0  0  0  0  0
   -2.8818    1.3894    0.8473 C   0  0  0  0  0  0  0  0  0  0  0  0
   -1.7562    0.6117    0.5335 C   0  0  0  0  0  0  0  0  0  0  0  0
   -1.8913   -0.4194   -0.4083 C   0  0  0  0  0  0  0  0  0  0  0  0
   -3.1261   -0.6768   -1.0272 C   0  0  0  0  0  0  0  0  0  0  0  0
   -3.2793   -1.7028   -1.9748 O   0  0  0  0  0  0  0  0  0  0  0  0
   -2.2361   -2.5721   -2.4042 C   0  0  0  0  0  0  0  0  0  0  0  0
   -4.2493    0.1013   -0.7073 C   0  0  0  0  0  0  0  0  0  0  0  0
   -5.4497   -0.2213   -1.3699 O   0  0  0  0  0  0  0  0  0  0  0  0
   -6.7085    0.4235   -1.2101 C   0  0  0  0  0  0  0  0  0  0  0  0
   -0.4768    0.8779    1.1603 N   0  0  0  0  0  0  0  0  0  0  0  0
   -0.0838    2.2544    1.4841 C   0  0  0  0  0  0  0  0  0  0  0  0
    0.4533   -0.2153    1.4888 C   0  0  0  0  0  0  0  0  0  0  0  0
    1.6897   -0.2227    0.5996 C   0  0  0  0  0  0  0  0  0  0  0  0
    2.9050   -0.8244    1.0291 C   0  0  0  0  0  0  0  0  0  0  0  0
    2.8984   -1.6809    2.2788 C   0  0  0  0  0  0  0  0  0  0  0  0
    4.0678   -0.6962    0.2090 C   0  0  0  0  0  0  0  0  0  0  0  0
    5.3947   -1.0433    0.5940 C   0  0  0  0  0  0  0  0  0  0  0  0
    5.7762   -1.2495    1.9567 N   0  0  0  0  0  0  0  0  0  0  0  0
    6.3826   -1.0453   -0.3398 N   0  0  0  0  0  0  0  0  0  0  0  0
    6.1580   -0.6694   -1.6218 C   0  0  0  0  0  0  0  0  0  0  0  0
    7.2230   -0.6894   -2.5692 N   0  0  0  0  0  0  0  0  0  0  0  0
    4.9320   -0.2272   -1.9883 N   0  0  0  0  0  0  0  0  0  0  0  0
    3.8981   -0.2139   -1.1107 C   0  0  0  0  0  0  0  0  0  0  0  0
    2.6987    0.2617   -1.5197 N   0  0  0  0  0  0  0  0  0  0  0  0
    1.6204    0.2964   -0.7037 C   0  0  0  0  0  0  0  0  0  0  0  0
   -4.5504    3.8016    1.1668 H   0  0  0  0  0  0  0  0  0  0  0  0
   -4.9800    2.6433    2.5070 H   0  0  0  0  0  0  0  0  0  0  0  0
   -6.2763    3.4414    1.5420 H   0  0  0  0  0  0  0  0  0  0  0  0
   -2.7870    2.1756    1.5801 H   0  0  0  0  0  0  0  0  0  0  0  0
   -1.0277   -1.0105   -0.6739 H   0  0  0  0  0  0  0  0  0  0  0  0
   -1.4204   -1.9856   -2.8774 H   0  0  0  0  0  0  0  0  0  0  0  0
   -2.6420   -3.2828   -3.1528 H   0  0  0  0  0  0  0  0  0  0  0  0
   -1.8419   -3.1510   -1.5423 H   0  0  0  0  0  0  0  0  0  0  0  0
   -7.4491   -0.0681   -1.8735 H   0  0  0  0  0  0  0  0  0  0  0  0
   -7.0623    0.3229   -0.1626 H   0  0  0  0  0  0  0  0  0  0  0  0
   -6.6345    1.4911   -1.5059 H   0  0  0  0  0  0  0  0  0  0  0  0
   -0.2530    2.9122    0.6054 H   0  0  0  0  0  0  0  0  0  0  0  0
    0.9929    2.3088    1.7537 H   0  0  0  0  0  0  0  0  0  0  0  0
   -0.6703    2.6250    2.3497 H   0  0  0  0  0  0  0  0  0  0  0  0
    0.7561   -0.0921    2.5511 H   0  0  0  0  0  0  0  0  0  0  0  0
   -0.0542   -1.2009    1.4212 H   0  0  0  0  0  0  0  0  0  0  0  0
    3.6508   -2.4929    2.2216 H   0  0  0  0  0  0  0  0  0  0  0  0
    3.0636   -1.0511    3.1773 H   0  0  0  0  0  0  0  0  0  0  0  0
    1.9305   -2.2107    2.3939 H   0  0  0  0  0  0  0  0  0  0  0  0
    5.2932   -0.7494    2.7332 H   0  0  0  0  0  0  0  0  0  0  0  0
    6.7014   -1.6828    2.1724 H   0  0  0  0  0  0  0  0  0  0  0  0
    8.1753   -1.0119   -2.2874 H   0  0  0  0  0  0  0  0  0  0  0  0
    7.0603   -0.3832   -3.5541 H   0  0  0  0  0  0  0  0  0  0  0  0
    0.7025    0.7153   -1.0904 H   0  0  0  0  0  0  0  0  0  0  0  0
  1  2  1  0
  2  3  1  0
  3  4  2  0
  4  5  1  0
  5  6  2  0
  6  7  1  0
  7  8  1  0
  8  9  1  0
  7 10  2  0
 10 11  1  0
 11 12  1  0
  5 13  1  0
 13 14  1  0
 13 15  1  0
 15 16  1  0
 16 17  2  0
 17 18  1  0
 17 19  1  0
 19 20  2  0
 20 21  1  0
 20 22  1  0
 22 23  2  0
 23 24  1  0
 23 25  1  0
 25 26  2  0
 26 27  1  0
 27 28  2  0
 10  3  1  0
 28 16  1  0
 26 19  1  0
  1 29  1  0
  1 30  1  0
  1 31  1  0
  4 32  1  0
  6 33  1  0
  9 34  1  0
  9 35  1  0
  9 36  1  0
 12 37  1  0
 12 38  1  0
 12 39  1  0
 14 40  1  0
 14 41  1  0
 14 42  1  0
 15 43  1  0
 15 44  1  0
 18 45  1  0
 18 46  1  0
 18 47  1  0
 21 48  1  0
 21 49  1  0
 24 50  1  0
 24 51  1  0
 28 52  1  0
M  END
$$$$
