
     RDKit          3D

 80 83  0  0  0  0  0  0  0  0999 V2000
   -8.5236    0.2524   -3.2797 C   0  0  0  0  0  0  0  0  0  0  0  0
   -8.0450    1.1041   -2.2623 O   0  0  0  0  0  0  0  0  0  0  0  0
   -7.0536    0.4572   -1.4742 C   0  0  2  0  0  0  0  0  0  0  0  0
   -7.5143    0.3992   -0.0055 C   0  0  1  0  0  0  0  0  0  0  0  0
   -8.7655   -0.2871    0.1047 O   0  0  0  0  0  0  0  0  0  0  0  0
  -10.0119    0.3281   -0.0603 C   0  0  0  0  0  0  0  0  0  0  0  0
  -11.1962   -0.4610    0.0038 N   0  0  0  0  0  0  0  0  0  0  0  0
  -10.0997    1.5702   -0.2586 O   0  0  0  0  0  0  0  0  0  0  0  0
   -6.4438   -0.3071    0.8650 C   0  0  1  0  0  0  0  0  0  0  0  0
   -6.7416   -1.6731    1.0173 O   0  0  0  0  0  0  0  0  0  0  0  0
   -5.0367   -0.1784    0.2460 C   0  0  2  0  0  0  0  0  0  0  0  0
   -4.0687   -0.3068    1.2872 O   0  0  0  0  0  0  0  0  0  0  0  0
   -2.6751   -0.3515    1.1054 C   0  0  0  0  0  0  0  0  0  0  0  0
   -1.8435   -0.4107    2.2432 C   0  0  0  0  0  0  0  0  0  0  0  0
   -2.4572   -0.4479    3.6202 C   0  0  0  0  0  0  0  0  0  0  0  0
   -0.4448   -0.5024    2.0848 C   0  0  0  0  0  0  0  0  0  0  0  0
    0.1246   -0.4974    0.7920 C   0  0  0  0  0  0  0  0  0  0  0  0
   -0.7100   -0.4087   -0.3310 C   0  0  0  0  0  0  0  0  0  0  0  0
   -2.0941   -0.3436   -0.1760 C   0  0  0  0  0  0  0  0  0  0  0  0
    1.5220   -0.5749    0.6672 C   0  0  0  0  0  0  0  0  0  0  0  0
    2.1078   -0.4991   -0.6001 O   0  0  0  0  0  0  0  0  0  0  0  0
    2.3072   -0.6993    1.8300 C   0  0  0  0  0  0  0  0  0  0  0  0
    3.7357   -0.8321    1.7629 N   0  0  0  0  0  0  0  0  0  0  0  0
    4.3689   -1.9198    1.0690 C   0  0  0  0  0  0  0  0  0  0  0  0
    3.6680   -2.8802    0.6459 O   0  0  0  0  0  0  0  0  0  0  0  0
    5.8369   -1.9407    0.8608 C   0  0  0  0  0  0  0  0  0  0  0  0
    6.4937   -3.1540    0.6030 C   0  0  0  0  0  0  0  0  0  0  0  0
    7.8724   -3.1822    0.3910 C   0  0  0  0  0  0  0  0  0  0  0  0
    8.6238   -2.0043    0.4268 C   0  0  0  0  0  0  0  0  0  0  0  0
    9.9965   -2.0928    0.1838 O   0  0  0  0  0  0  0  0  0  0  0  0
    7.9816   -0.7720    0.6943 C   0  0  0  0  0  0  0  0  0  0  0  0
    8.7456    0.5305    0.7305 C   0  0  0  0  0  0  0  0  0  0  0  0
    9.0857    0.9962   -0.6646 C   0  0  0  0  0  0  0  0  0  0  0  0
    9.7947    2.1168   -0.9159 C   0  0  0  0  0  0  0  0  0  0  0  0
   10.0772    2.4886   -2.3484 C   0  0  0  0  0  0  0  0  0  0  0  0
   10.3055    2.9958    0.2010 C   0  0  0  0  0  0  0  0  0  0  0  0
    6.5888   -0.7531    0.8919 C   0  0  0  0  0  0  0  0  0  0  0  0
    1.6644   -0.6827    3.0772 C   0  0  0  0  0  0  0  0  0  0  0  0
    2.3367   -0.7704    4.1388 O   0  0  0  0  0  0  0  0  0  0  0  0
    0.3421   -0.5894    3.1543 O   0  0  0  0  0  0  0  0  0  0  0  0
   -4.8849    1.0839   -0.3786 O   0  0  0  0  0  0  0  0  0  0  0  0
   -5.6811    1.2274   -1.5574 C   0  0  0  0  0  0  0  0  0  0  0  0
   -4.8726    0.7378   -2.7758 C   0  0  0  0  0  0  0  0  0  0  0  0
   -5.9172    2.7432   -1.7263 C   0  0  0  0  0  0  0  0  0  0  0  0
   -9.0150   -0.6465   -2.8460 H   0  0  0  0  0  0  0  0  0  0  0  0
   -7.7041   -0.0466   -3.9692 H   0  0  0  0  0  0  0  0  0  0  0  0
   -9.2835    0.8009   -3.8729 H   0  0  0  0  0  0  0  0  0  0  0  0
   -6.8820   -0.6063   -1.7816 H   0  0  0  0  0  0  0  0  0  0  0  0
   -7.6295    1.4373    0.3804 H   0  0  0  0  0  0  0  0  0  0  0  0
  -12.1347   -0.0192   -0.1157 H   0  0  0  0  0  0  0  0  0  0  0  0
  -11.1324   -1.4898    0.1683 H   0  0  0  0  0  0  0  0  0  0  0  0
   -6.4331    0.1897    1.8655 H   0  0  0  0  0  0  0  0  0  0  0  0
   -7.3761   -1.7501    1.7772 H   0  0  0  0  0  0  0  0  0  0  0  0
   -4.8759   -1.0049   -0.4834 H   0  0  0  0  0  0  0  0  0  0  0  0
   -1.7568   -0.0570    4.3877 H   0  0  0  0  0  0  0  0  0  0  0  0
   -2.7262   -1.4940    3.8757 H   0  0  0  0  0  0  0  0  0  0  0  0
   -3.3701    0.1828    3.6640 H   0  0  0  0  0  0  0  0  0  0  0  0
   -0.2983   -0.4020   -1.3328 H   0  0  0  0  0  0  0  0  0  0  0  0
   -2.7039   -0.2960   -1.0653 H   0  0  0  0  0  0  0  0  0  0  0  0
    3.1081   -0.4423   -0.7409 H   0  0  0  0  0  0  0  0  0  0  0  0
    4.3085   -0.2623    2.4251 H   0  0  0  0  0  0  0  0  0  0  0  0
    5.9413   -4.0850    0.5694 H   0  0  0  0  0  0  0  0  0  0  0  0
    8.3610   -4.1273    0.1900 H   0  0  0  0  0  0  0  0  0  0  0  0
   10.6091   -1.2887    0.1523 H   0  0  0  0  0  0  0  0  0  0  0  0
    8.1429    1.3160    1.2361 H   0  0  0  0  0  0  0  0  0  0  0  0
    9.6700    0.4028    1.3321 H   0  0  0  0  0  0  0  0  0  0  0  0
    8.7412    0.3984   -1.5064 H   0  0  0  0  0  0  0  0  0  0  0  0
    9.1208    2.6361   -2.8933 H   0  0  0  0  0  0  0  0  0  0  0  0
   10.6536    1.6763   -2.8400 H   0  0  0  0  0  0  0  0  0  0  0  0
   10.6669    3.4261   -2.4209 H   0  0  0  0  0  0  0  0  0  0  0  0
   10.8603    3.8729   -0.1921 H   0  0  0  0  0  0  0  0  0  0  0  0
   10.9953    2.4189    0.8521 H   0  0  0  0  0  0  0  0  0  0  0  0
    9.4548    3.3729    0.8064 H   0  0  0  0  0  0  0  0  0  0  0  0
    6.0923    0.1959    1.0495 H   0  0  0  0  0  0  0  0  0  0  0  0
   -5.4211    0.9430   -3.7198 H   0  0  0  0  0  0  0  0  0  0  0  0
   -3.8903    1.2554   -2.8206 H   0  0  0  0  0  0  0  0  0  0  0  0
   -4.6832   -0.3541   -2.7185 H   0  0  0  0  0  0  0  0  0  0  0  0
   -6.5358    3.1378   -0.8931 H   0  0  0  0  0  0  0  0  0  0  0  0
   -6.4248    2.9734   -2.6878 H   0  0  0  0  0  0  0  0  0  0  0  0
   -4.9473    3.2862   -1.7153 H   0  0  0  0  0  0  0  0  0  0  0  0
  1  2  1  0
  2  3  1  0
  3  4  1  0
  4  5  1  0
  5  6  1  0
  6  7  1  0
  6  8  2  0
  4  9  1  0
  9 10  1  0
  9 11  1  0
 11 12  1  0
 12 13  1  0
 13 14  2  0
 14 15  1  0
 14 16  1  0
 16 17  2  0
 17 18  1  0
 18 19  2  0
 17 20  1  0
 20 21  1  0
 20 22  2  0
 22 23  1  0
 23 24  1  0
 24 25  2  0
 24 26  1  0
 26 27  2  0
 27 28  1  0
 28 29  2  0
 29 30  1  0
 29 31  1  0
 31 32  1  0
 32 33  1  0
 33 34  2  3
 34 35  1  0
 34 36  1  0
 31 37  2  0
 22 38  1  0
 38 39  2  0
 38 40  1  0
 11 41  1  0
 41 42  1  0
 42 43  1  0
 42 44  1  0
 42  3  1  0
 19 13  1  0
 37 26  1  0
 40 16  1  0
  1 45  1  0
  1 46  1  0
  1 47  1  0
  3 48  1  6
  4 49  1  1
  7 50  1  0
  7 51  1  0
  9 52  1  1
 10 53  1  0
 11 54  1  6
 15 55  1  0
 15 56  1  0
 15 57  1  0
 18 58  1  0
 19 59  1  0
 21 60  1  0
 23 61  1  0
 27 62  1  0
 28 63  1  0
 30 64  1  0
 32 65  1  0
 32 66  1  0
 33 67  1  0
 35 68  1  0
 35 69  1  0
 35 70  1  0
 36 71  1  0
 36 72  1  0
 36 73  1  0
 37 74  1  0
 43 75  1  0
 43 76  1  0
 43 77  1  0
 44 78  1  0
 44 79  1  0
 44 80  1  0
M  END
$$$$
