
     RDKit          3D

 58 60  0  0  0  0  0  0  0  0999 V2000
   -1.1107   -1.2871   -2.6115 C   0  0  1  0  0  0  0  0  0  0  0  0
    0.3633   -0.8351   -2.7274 C   0  0  0  0  0  0  0  0  0  0  0  0
    0.9049   -0.3342   -1.4606 N   0  0  0  0  0  0  0  0  0  0  0  0
    2.2525    0.1415   -1.3614 C   0  0  0  0  0  0  0  0  0  0  0  0
    2.9931    0.1520   -2.3826 O   0  0  0  0  0  0  0  0  0  0  0  0
    2.7371    0.6432   -0.1063 N   0  0  0  0  0  0  0  0  0  0  0  0
    4.1161    0.9490    0.1633 C   0  0  0  0  0  0  0  0  0  0  0  0
    5.1591    0.1836   -0.3859 C   0  0  0  0  0  0  0  0  0  0  0  0
    6.4913    0.4865   -0.0891 C   0  0  0  0  0  0  0  0  0  0  0  0
    6.8064    1.5509    0.7724 C   0  0  0  0  0  0  0  0  0  0  0  0
    5.7603    2.3005    1.3386 C   0  0  0  0  0  0  0  0  0  0  0  0
    4.4288    1.9956    1.0417 C   0  0  0  0  0  0  0  0  0  0  0  0
    8.2180    1.8684    1.0829 C   0  0  0  0  0  0  0  0  0  0  0  0
    8.4964    2.8226    1.8611 O   0  0  0  0  0  0  0  0  0  0  0  0
    9.2452    1.1090    0.5119 O   0  0  0  0  0  0  0  0  0  0  0  0
   10.6212    1.3619    0.7689 C   0  0  0  0  0  0  0  0  0  0  0  0
   -1.3297   -2.3905   -1.5643 C   0  0  0  0  0  0  0  0  0  0  0  0
   -2.4367   -1.8715   -0.6693 C   0  0  0  0  0  0  0  0  0  0  0  0
   -3.0852   -0.7669   -1.4877 C   0  0  2  0  0  0  0  0  0  0  0  0
   -2.0231   -0.1735   -2.3076 N   0  0  0  0  0  0  0  0  0  0  0  0
   -3.8015    0.2362   -0.6033 C   0  0  0  0  0  0  0  0  0  0  0  0
   -3.2441    1.3291   -0.3098 O   0  0  0  0  0  0  0  0  0  0  0  0
   -5.0835   -0.0776   -0.0245 N   0  0  0  0  0  0  0  0  0  0  0  0
   -6.0013   -1.0550   -0.5850 C   0  0  0  0  0  0  0  0  0  0  0  0
   -7.3346   -0.8309    0.1155 C   0  0  0  0  0  0  0  0  0  0  0  0
   -7.0447    0.0445    1.3329 C   0  0  0  0  0  0  0  0  0  0  0  0
   -5.6452    0.6359    1.1168 C   0  0  1  0  0  0  0  0  0  0  0  0
   -4.7479    0.5020    2.3664 C   0  0  0  0  0  0  0  0  0  0  0  0
   -4.2797   -0.8719    2.5474 N   0  0  0  0  0  0  0  0  0  0  0  0
   -1.4029   -1.6936   -3.6058 H   0  0  0  0  0  0  0  0  0  0  0  0
    0.9773   -1.6964   -3.0699 H   0  0  0  0  0  0  0  0  0  0  0  0
    0.4336   -0.0361   -3.4972 H   0  0  0  0  0  0  0  0  0  0  0  0
    0.3156   -0.3260   -0.5977 H   0  0  0  0  0  0  0  0  0  0  0  0
    2.0294    0.8797    0.6255 H   0  0  0  0  0  0  0  0  0  0  0  0
    4.9475   -0.6646   -1.0230 H   0  0  0  0  0  0  0  0  0  0  0  0
    7.2734   -0.1200   -0.5284 H   0  0  0  0  0  0  0  0  0  0  0  0
    5.9693    3.1217    2.0127 H   0  0  0  0  0  0  0  0  0  0  0  0
    3.6375    2.5837    1.4896 H   0  0  0  0  0  0  0  0  0  0  0  0
   10.8323    1.2498    1.8535 H   0  0  0  0  0  0  0  0  0  0  0  0
   11.2374    0.6317    0.2054 H   0  0  0  0  0  0  0  0  0  0  0  0
   10.8873    2.3883    0.4384 H   0  0  0  0  0  0  0  0  0  0  0  0
   -1.6592   -3.3274   -2.0658 H   0  0  0  0  0  0  0  0  0  0  0  0
   -0.4186   -2.6180   -0.9690 H   0  0  0  0  0  0  0  0  0  0  0  0
   -3.1635   -2.6721   -0.4119 H   0  0  0  0  0  0  0  0  0  0  0  0
   -1.9938   -1.4570    0.2643 H   0  0  0  0  0  0  0  0  0  0  0  0
   -3.8231   -1.2252   -2.1817 H   0  0  0  0  0  0  0  0  0  0  0  0
   -1.5093    0.5464   -1.7497 H   0  0  0  0  0  0  0  0  0  0  0  0
   -5.6231   -2.0806   -0.3860 H   0  0  0  0  0  0  0  0  0  0  0  0
   -6.1179   -0.8974   -1.6792 H   0  0  0  0  0  0  0  0  0  0  0  0
   -7.7956   -1.7972    0.4154 H   0  0  0  0  0  0  0  0  0  0  0  0
   -8.0309   -0.2969   -0.5683 H   0  0  0  0  0  0  0  0  0  0  0  0
   -7.1000   -0.5775    2.2520 H   0  0  0  0  0  0  0  0  0  0  0  0
   -7.8030    0.8531    1.4221 H   0  0  0  0  0  0  0  0  0  0  0  0
   -5.7460    1.7133    0.8569 H   0  0  0  0  0  0  0  0  0  0  0  0
   -5.2977    0.8433    3.2721 H   0  0  0  0  0  0  0  0  0  0  0  0
   -3.8671    1.1696    2.2479 H   0  0  0  0  0  0  0  0  0  0  0  0
   -3.5472   -0.8632    3.2934 H   0  0  0  0  0  0  0  0  0  0  0  0
   -5.0675   -1.4499    2.9178 H   0  0  0  0  0  0  0  0  0  0  0  0
  1  2  1  0
  2  3  1  0
  3  4  1  0
  4  5  2  0
  4  6  1  0
  6  7  1  0
  7  8  2  0
  8  9  1  0
  9 10  2  0
 10 11  1  0
 11 12  2  0
 10 13  1  0
 13 14  2  0
 13 15  1  0
 15 16  1  0
  1 17  1  0
 17 18  1  0
 18 19  1  0
 19 20  1  0
 19 21  1  0
 21 22  2  0
 21 23  1  0
 23 24  1  0
 24 25  1  0
 25 26  1  0
 26 27  1  0
 27 28  1  0
 28 29  1  0
 20  1  1  0
 27 23  1  0
 12  7  1  0
  1 30  1  6
  2 31  1  0
  2 32  1  0
  3 33  1  0
  6 34  1  0
  8 35  1  0
  9 36  1  0
 11 37  1  0
 12 38  1  0
 16 39  1  0
 16 40  1  0
 16 41  1  0
 17 42  1  0
 17 43  1  0
 18 44  1  0
 18 45  1  0
 19 46  1  6
 20 47  1  0
 24 48  1  0
 24 49  1  0
 25 50  1  0
 25 51  1  0
 26 52  1  0
 26 53  1  0
 27 54  1  6
 28 55  1  0
 28 56  1  0
 29 57  1  0
 29 58  1  0
M  END
$$$$
