
     RDKit          3D

 38 38  0  0  0  0  0  0  0  0999 V2000
    5.8433   -0.5484   -1.2230 O   0  0  0  0  0  0  0  0  0  0  0  0
    4.5507   -0.0405   -1.1406 C   0  0  0  0  0  0  0  0  0  0  0  0
    3.9557    0.3391   -2.1844 O   0  0  0  0  0  0  0  0  0  0  0  0
    3.8623    0.0344    0.1877 C   0  0  0  0  0  0  0  0  0  0  0  0
    3.4588   -1.3567    0.7003 C   0  0  0  0  0  0  0  0  0  0  0  0
    2.3729   -2.0371   -0.1509 C   0  0  0  0  0  0  0  0  0  0  0  0
    1.0551   -1.3080   -0.0775 C   0  0  0  0  0  0  0  0  0  0  0  0
    0.6302   -0.4949   -1.1399 C   0  0  0  0  0  0  0  0  0  0  0  0
   -0.5801    0.1989   -1.0575 C   0  0  0  0  0  0  0  0  0  0  0  0
   -1.3825    0.0929    0.0891 C   0  0  0  0  0  0  0  0  0  0  0  0
   -0.9566   -0.7190    1.1519 C   0  0  0  0  0  0  0  0  0  0  0  0
    0.2531   -1.4138    1.0694 C   0  0  0  0  0  0  0  0  0  0  0  0
   -2.6274    0.8132    0.1761 N   0  0  0  0  0  0  0  0  0  0  0  0
   -2.8529    1.7510    1.2855 C   0  0  0  0  0  0  0  0  0  0  0  0
   -1.9523    2.9750    1.1381 C   0  0  0  0  0  0  0  0  0  0  0  0
   -2.2617    4.1282    2.4599 Cl  0  0  0  0  0  0  0  0  0  0  0  0
   -3.6639    0.6075   -0.8459 C   0  0  0  0  0  0  0  0  0  0  0  0
   -4.2680   -0.7886   -0.7163 C   0  0  0  0  0  0  0  0  0  0  0  0
   -5.5539   -1.0165   -1.9277 Cl  0  0  0  0  0  0  0  0  0  0  0  0
    6.3198   -0.6138   -2.1145 H   0  0  0  0  0  0  0  0  0  0  0  0
    2.9735    0.6986    0.1260 H   0  0  0  0  0  0  0  0  0  0  0  0
    4.5633    0.4927    0.9176 H   0  0  0  0  0  0  0  0  0  0  0  0
    4.3574   -2.0114    0.7262 H   0  0  0  0  0  0  0  0  0  0  0  0
    3.0982   -1.2620    1.7478 H   0  0  0  0  0  0  0  0  0  0  0  0
    2.7155   -2.1286   -1.2044 H   0  0  0  0  0  0  0  0  0  0  0  0
    2.2284   -3.0741    0.2229 H   0  0  0  0  0  0  0  0  0  0  0  0
    1.2381   -0.3922   -2.0297 H   0  0  0  0  0  0  0  0  0  0  0  0
   -0.8801    0.8350   -1.8798 H   0  0  0  0  0  0  0  0  0  0  0  0
   -1.5677   -0.8276    2.0382 H   0  0  0  0  0  0  0  0  0  0  0  0
    0.5655   -2.0353    1.8995 H   0  0  0  0  0  0  0  0  0  0  0  0
   -2.6504    1.2504    2.2557 H   0  0  0  0  0  0  0  0  0  0  0  0
   -3.9129    2.0847    1.3103 H   0  0  0  0  0  0  0  0  0  0  0  0
   -0.8844    2.6719    1.1740 H   0  0  0  0  0  0  0  0  0  0  0  0
   -2.1538    3.4769    0.1680 H   0  0  0  0  0  0  0  0  0  0  0  0
   -4.4741    1.3615   -0.7429 H   0  0  0  0  0  0  0  0  0  0  0  0
   -3.2311    0.7367   -1.8602 H   0  0  0  0  0  0  0  0  0  0  0  0
   -4.7017   -0.9193    0.2978 H   0  0  0  0  0  0  0  0  0  0  0  0
   -3.4866   -1.5610   -0.8781 H   0  0  0  0  0  0  0  0  0  0  0  0
  1  2  1  0
  2  3  2  0
  2  4  1  0
  4  5  1  0
  5  6  1  0
  6  7  1  0
  7  8  2  0
  8  9  1  0
  9 10  2  0
 10 11  1  0
 11 12  2  0
 10 13  1  0
 13 14  1  0
 14 15  1  0
 15 16  1  0
 13 17  1  0
 17 18  1  0
 18 19  1  0
 12  7  1  0
  1 20  1  0
  4 21  1  0
  4 22  1  0
  5 23  1  0
  5 24  1  0
  6 25  1  0
  6 26  1  0
  8 27  1  0
  9 28  1  0
 11 29  1  0
 12 30  1  0
 14 31  1  0
 14 32  1  0
 15 33  1  0
 15 34  1  0
 17 35  1  0
 17 36  1  0
 18 37  1  0
 18 38  1  0
M  END
$$$$
