
     RDKit          3D

 41 42  0  0  0  0  0  0  0  0999 V2000
    6.0720    1.3148    0.5731 C   0  0  0  0  0  0  0  0  0  0  0  0
    5.5561   -0.1115    0.3487 C   0  0  0  0  0  0  0  0  0  0  0  0
    6.3443   -0.8149   -0.7626 C   0  0  0  0  0  0  0  0  0  0  0  0
    4.0685   -0.1138    0.0502 C   0  0  0  0  0  0  0  0  0  0  0  0
    3.5548    0.5307   -1.0911 C   0  0  0  0  0  0  0  0  0  0  0  0
    2.1821    0.5223   -1.3532 C   0  0  0  0  0  0  0  0  0  0  0  0
    1.2994   -0.1385   -0.4864 C   0  0  0  0  0  0  0  0  0  0  0  0
   -0.1812   -0.1166   -0.7467 C   0  0  0  0  0  0  0  0  0  0  0  0
   -0.7957    0.9920   -0.0141 N   0  0  0  0  0  0  0  0  0  0  0  0
   -2.1886    0.9212   -0.1974 N   0  0  0  0  0  0  0  0  0  0  0  0
   -2.9996    0.1320    0.6844 C   0  0  0  0  0  0  0  0  0  0  0  0
   -2.4723   -0.3886    1.7053 O   0  0  0  0  0  0  0  0  0  0  0  0
   -4.4456   -0.0703    0.4258 C   0  0  0  0  0  0  0  0  0  0  0  0
   -5.3079   -0.4172    1.4823 C   0  0  0  0  0  0  0  0  0  0  0  0
   -6.6720   -0.6162    1.2493 C   0  0  0  0  0  0  0  0  0  0  0  0
   -7.1925   -0.4799   -0.0434 C   0  0  0  0  0  0  0  0  0  0  0  0
   -8.5500   -0.6757   -0.2875 O   0  0  0  0  0  0  0  0  0  0  0  0
   -6.3417   -0.1472   -1.1009 C   0  0  0  0  0  0  0  0  0  0  0  0
   -4.9769    0.0537   -0.8719 C   0  0  0  0  0  0  0  0  0  0  0  0
    1.8045   -0.7679    0.6605 C   0  0  0  0  0  0  0  0  0  0  0  0
    3.1772   -0.7605    0.9240 C   0  0  0  0  0  0  0  0  0  0  0  0
    5.4891    1.8077    1.3804 H   0  0  0  0  0  0  0  0  0  0  0  0
    7.1389    1.2888    0.8820 H   0  0  0  0  0  0  0  0  0  0  0  0
    5.9879    1.9221   -0.3531 H   0  0  0  0  0  0  0  0  0  0  0  0
    5.7458   -0.6770    1.2884 H   0  0  0  0  0  0  0  0  0  0  0  0
    6.2690   -0.2595   -1.7214 H   0  0  0  0  0  0  0  0  0  0  0  0
    5.9547   -1.8447   -0.9120 H   0  0  0  0  0  0  0  0  0  0  0  0
    7.4164   -0.8873   -0.4806 H   0  0  0  0  0  0  0  0  0  0  0  0
    4.2147    1.0439   -1.7785 H   0  0  0  0  0  0  0  0  0  0  0  0
    1.8074    1.0326   -2.2320 H   0  0  0  0  0  0  0  0  0  0  0  0
   -0.6230   -1.0835   -0.4174 H   0  0  0  0  0  0  0  0  0  0  0  0
   -0.3808   -0.0137   -1.8378 H   0  0  0  0  0  0  0  0  0  0  0  0
   -0.4672    1.8848   -0.4526 H   0  0  0  0  0  0  0  0  0  0  0  0
   -2.6419    1.5482   -0.9003 H   0  0  0  0  0  0  0  0  0  0  0  0
   -4.9292   -0.5244    2.4913 H   0  0  0  0  0  0  0  0  0  0  0  0
   -7.3230   -0.8762    2.0743 H   0  0  0  0  0  0  0  0  0  0  0  0
   -9.1922   -0.9188    0.4578 H   0  0  0  0  0  0  0  0  0  0  0  0
   -6.7375   -0.0504   -2.1039 H   0  0  0  0  0  0  0  0  0  0  0  0
   -4.3407    0.2817   -1.7165 H   0  0  0  0  0  0  0  0  0  0  0  0
    1.1344   -1.2642    1.3519 H   0  0  0  0  0  0  0  0  0  0  0  0
    3.5422   -1.2580    1.8138 H   0  0  0  0  0  0  0  0  0  0  0  0
  1  2  1  0
  2  3  1  0
  2  4  1  0
  4  5  2  0
  5  6  1  0
  6  7  2  0
  7  8  1  0
  8  9  1  0
  9 10  1  0
 10 11  1  0
 11 12  2  0
 11 13  1  0
 13 14  2  0
 14 15  1  0
 15 16  2  0
 16 17  1  0
 16 18  1  0
 18 19  2  0
  7 20  1  0
 20 21  2  0
 21  4  1  0
 19 13  1  0
  1 22  1  0
  1 23  1  0
  1 24  1  0
  2 25  1  0
  3 26  1  0
  3 27  1  0
  3 28  1  0
  5 29  1  0
  6 30  1  0
  8 31  1  0
  8 32  1  0
  9 33  1  0
 10 34  1  0
 14 35  1  0
 15 36  1  0
 17 37  1  0
 18 38  1  0
 19 39  1  0
 20 40  1  0
 21 41  1  0
M  END
$$$$
