
     RDKit          3D

 58 59  0  0  0  0  0  0  0  0999 V2000
    2.8245   -1.4464   -0.4565 C   0  0  1  0  0  0  0  0  0  0  0  0
    2.4831   -1.8095    0.9953 C   0  0  0  0  0  0  0  0  0  0  0  0
    1.9189   -0.5418    1.6357 C   0  0  2  0  0  0  0  0  0  0  0  0
    1.5340    0.3253    0.5282 N   0  0  0  0  0  0  0  0  0  0  0  0
    0.6228    1.4306    0.7127 C   0  0  0  0  0  0  0  0  0  0  0  0
    0.5088    1.9461    1.8588 O   0  0  0  0  0  0  0  0  0  0  0  0
   -0.2734    1.9359   -0.4021 C   0  0  2  0  0  0  0  0  0  0  0  0
   -0.1422    3.4547   -0.5408 C   0  0  0  0  0  0  0  0  0  0  0  0
   -1.6845    1.5858   -0.1534 N   0  0  0  0  0  0  0  0  0  0  0  0
   -1.9650    0.1407   -0.2939 C   0  0  1  0  0  0  0  0  0  0  0  0
   -2.0933   -0.5502    1.0843 C   0  0  0  0  0  0  0  0  0  0  0  0
   -2.0465   -2.0803    0.9658 C   0  0  0  0  0  0  0  0  0  0  0  0
   -2.1121   -2.7411    2.3392 C   0  0  0  0  0  0  0  0  0  0  0  0
   -3.2366   -0.0210   -1.0746 C   0  0  0  0  0  0  0  0  0  0  0  0
   -3.2549   -0.7549   -2.1008 O   0  0  0  0  0  0  0  0  0  0  0  0
   -4.3965    0.6325   -0.6472 O   0  0  0  0  0  0  0  0  0  0  0  0
   -5.6411    0.5103   -1.3270 C   0  0  0  0  0  0  0  0  0  0  0  0
   -6.6958    1.3368   -0.6092 C   0  0  0  0  0  0  0  0  0  0  0  0
    2.0484   -0.1410   -0.7579 C   0  0  1  0  0  0  0  0  0  0  0  0
    2.9234    0.9427   -1.4266 C   0  0  0  0  0  0  0  0  0  0  0  0
    3.7635    0.3370   -2.5555 C   0  0  0  0  0  0  0  0  0  0  0  0
    4.6857   -0.8016   -2.0688 C   0  0  0  0  0  0  0  0  0  0  0  0
    4.3477   -1.3069   -0.6570 C   0  0  0  0  0  0  0  0  0  0  0  0
    2.9347    0.1285    2.5205 C   0  0  0  0  0  0  0  0  0  0  0  0
    2.9882   -0.1999    3.8712 O   0  0  0  0  0  0  0  0  0  0  0  0
    3.7603    0.9532    2.0437 O   0  0  0  0  0  0  0  0  0  0  0  0
    2.4643   -2.2565   -1.1311 H   0  0  0  0  0  0  0  0  0  0  0  0
    3.3513   -2.2249    1.5551 H   0  0  0  0  0  0  0  0  0  0  0  0
    1.6887   -2.5890    0.9898 H   0  0  0  0  0  0  0  0  0  0  0  0
    1.0243   -0.8040    2.2420 H   0  0  0  0  0  0  0  0  0  0  0  0
    0.0293    1.5175   -1.3822 H   0  0  0  0  0  0  0  0  0  0  0  0
   -0.4789    3.9677    0.3856 H   0  0  0  0  0  0  0  0  0  0  0  0
   -0.7664    3.8106   -1.3881 H   0  0  0  0  0  0  0  0  0  0  0  0
    0.9147    3.7316   -0.7432 H   0  0  0  0  0  0  0  0  0  0  0  0
   -1.9948    1.9485    0.7799 H   0  0  0  0  0  0  0  0  0  0  0  0
   -1.1513   -0.3628   -0.8639 H   0  0  0  0  0  0  0  0  0  0  0  0
   -3.0401   -0.2397    1.5798 H   0  0  0  0  0  0  0  0  0  0  0  0
   -1.2604   -0.2252    1.7397 H   0  0  0  0  0  0  0  0  0  0  0  0
   -1.1015   -2.3890    0.4674 H   0  0  0  0  0  0  0  0  0  0  0  0
   -2.9022   -2.4384    0.3536 H   0  0  0  0  0  0  0  0  0  0  0  0
   -2.0824   -3.8449    2.2223 H   0  0  0  0  0  0  0  0  0  0  0  0
   -3.0552   -2.4633    2.8564 H   0  0  0  0  0  0  0  0  0  0  0  0
   -1.2459   -2.4268    2.9599 H   0  0  0  0  0  0  0  0  0  0  0  0
   -5.9572   -0.5553   -1.3423 H   0  0  0  0  0  0  0  0  0  0  0  0
   -5.5358    0.8756   -2.3716 H   0  0  0  0  0  0  0  0  0  0  0  0
   -6.8146    0.9761    0.4345 H   0  0  0  0  0  0  0  0  0  0  0  0
   -6.3942    2.4056   -0.5937 H   0  0  0  0  0  0  0  0  0  0  0  0
   -7.6684    1.2436   -1.1366 H   0  0  0  0  0  0  0  0  0  0  0  0
    1.2007   -0.3967   -1.4290 H   0  0  0  0  0  0  0  0  0  0  0  0
    3.5973    1.4135   -0.6781 H   0  0  0  0  0  0  0  0  0  0  0  0
    2.2847    1.7459   -1.8479 H   0  0  0  0  0  0  0  0  0  0  0  0
    3.0769   -0.0550   -3.3382 H   0  0  0  0  0  0  0  0  0  0  0  0
    4.3760    1.1372   -3.0246 H   0  0  0  0  0  0  0  0  0  0  0  0
    4.6188   -1.6510   -2.7835 H   0  0  0  0  0  0  0  0  0  0  0  0
    5.7410   -0.4515   -2.0740 H   0  0  0  0  0  0  0  0  0  0  0  0
    4.8383   -2.2917   -0.4968 H   0  0  0  0  0  0  0  0  0  0  0  0
    4.7673   -0.6004    0.0916 H   0  0  0  0  0  0  0  0  0  0  0  0
    3.6734    0.2273    4.4829 H   0  0  0  0  0  0  0  0  0  0  0  0
  1  2  1  0
  2  3  1  0
  3  4  1  0
  4  5  1  0
  5  6  2  0
  5  7  1  0
  7  8  1  0
  7  9  1  0
  9 10  1  0
 10 11  1  0
 11 12  1  0
 12 13  1  0
 10 14  1  0
 14 15  2  0
 14 16  1  0
 16 17  1  0
 17 18  1  0
  4 19  1  0
 19 20  1  0
 20 21  1  0
 21 22  1  0
 22 23  1  0
  3 24  1  0
 24 25  1  0
 24 26  2  0
 19  1  1  0
 23  1  1  0
  1 27  1  6
  2 28  1  0
  2 29  1  0
  3 30  1  1
  7 31  1  6
  8 32  1  0
  8 33  1  0
  8 34  1  0
  9 35  1  0
 10 36  1  6
 11 37  1  0
 11 38  1  0
 12 39  1  0
 12 40  1  0
 13 41  1  0
 13 42  1  0
 13 43  1  0
 17 44  1  0
 17 45  1  0
 18 46  1  0
 18 47  1  0
 18 48  1  0
 19 49  1  6
 20 50  1  0
 20 51  1  0
 21 52  1  0
 21 53  1  0
 22 54  1  0
 22 55  1  0
 23 56  1  0
 23 57  1  0
 25 58  1  0
M  END
$$$$
