
     RDKit          3D

 54 56  0  0  0  0  0  0  0  0999 V2000
   -2.1451   -0.1216   -4.1291 C   0  0  0  0  0  0  0  0  0  0  0  0
   -1.4473   -1.0026   -3.1868 N   0  0  0  0  0  0  0  0  0  0  0  0
   -2.0010   -2.3298   -2.8760 C   0  0  0  0  0  0  0  0  0  0  0  0
   -2.5670   -2.3553   -1.4790 C   0  0  0  0  0  0  0  0  0  0  0  0
   -3.5758   -1.4499   -1.1119 C   0  0  0  0  0  0  0  0  0  0  0  0
   -4.1069   -1.4662    0.1900 C   0  0  0  0  0  0  0  0  0  0  0  0
   -3.6302   -2.4065    1.1289 C   0  0  0  0  0  0  0  0  0  0  0  0
   -4.1426   -2.4239    2.3921 N   0  0  0  0  0  0  0  0  0  0  0  0
   -5.1143   -1.5447    2.7637 C   0  0  0  0  0  0  0  0  0  0  0  0
   -5.6612   -1.5706    4.1554 C   0  0  0  0  0  0  0  0  0  0  0  0
   -5.5822   -0.6314    1.8723 N   0  0  0  0  0  0  0  0  0  0  0  0
   -5.1070   -0.5708    0.6025 C   0  0  0  0  0  0  0  0  0  0  0  0
   -5.5722    0.2925   -0.1892 O   0  0  0  0  0  0  0  0  0  0  0  0
   -2.6333   -3.3181    0.7525 C   0  0  0  0  0  0  0  0  0  0  0  0
   -2.1094   -3.2953   -0.5421 C   0  0  0  0  0  0  0  0  0  0  0  0
   -0.2291   -0.5416   -2.5632 C   0  0  0  0  0  0  0  0  0  0  0  0
    0.6148   -1.2921   -1.7468 C   0  0  0  0  0  0  0  0  0  0  0  0
    1.7175   -0.5690   -1.2755 C   0  0  0  0  0  0  0  0  0  0  0  0
    1.7503    0.7509   -1.7230 C   0  0  0  0  0  0  0  0  0  0  0  0
    0.4019    1.0158   -2.6962 S   0  0  0  0  0  0  0  0  0  0  0  0
    2.7583    1.7762   -1.3952 C   0  0  0  0  0  0  0  0  0  0  0  0
    2.5642    2.9638   -1.7719 O   0  0  0  0  0  0  0  0  0  0  0  0
    3.9497    1.4440   -0.6631 N   0  0  0  0  0  0  0  0  0  0  0  0
    4.8478    2.4776   -0.1302 C   0  0  1  0  0  0  0  0  0  0  0  0
    4.2146    3.1961    1.0796 C   0  0  0  0  0  0  0  0  0  0  0  0
    3.8075    2.2438    2.2146 C   0  0  0  0  0  0  0  0  0  0  0  0
    3.1493    3.0052    3.3211 C   0  0  0  0  0  0  0  0  0  0  0  0
    3.9236    3.5699    4.3297 O   0  0  0  0  0  0  0  0  0  0  0  0
    1.8999    3.1696    3.3188 O   0  0  0  0  0  0  0  0  0  0  0  0
    6.2015    1.9093    0.2127 C   0  0  0  0  0  0  0  0  0  0  0  0
    7.3455    2.6537   -0.0586 O   0  0  0  0  0  0  0  0  0  0  0  0
    6.3073    0.7879    0.7795 O   0  0  0  0  0  0  0  0  0  0  0  0
   -1.4774    0.1165   -4.9837 H   0  0  0  0  0  0  0  0  0  0  0  0
   -3.0675   -0.5927   -4.5285 H   0  0  0  0  0  0  0  0  0  0  0  0
   -2.4371    0.8193   -3.6169 H   0  0  0  0  0  0  0  0  0  0  0  0
   -2.8147   -2.5988   -3.5830 H   0  0  0  0  0  0  0  0  0  0  0  0
   -1.2131   -3.1016   -3.0133 H   0  0  0  0  0  0  0  0  0  0  0  0
   -3.9395   -0.7353   -1.8405 H   0  0  0  0  0  0  0  0  0  0  0  0
   -3.7894   -3.1190    3.0896 H   0  0  0  0  0  0  0  0  0  0  0  0
   -4.8552   -1.3188    4.8757 H   0  0  0  0  0  0  0  0  0  0  0  0
   -6.4860   -0.8350    4.2664 H   0  0  0  0  0  0  0  0  0  0  0  0
   -6.0528   -2.5839    4.3839 H   0  0  0  0  0  0  0  0  0  0  0  0
   -2.2617   -4.0479    1.4612 H   0  0  0  0  0  0  0  0  0  0  0  0
   -1.3432   -4.0114   -0.8116 H   0  0  0  0  0  0  0  0  0  0  0  0
    0.4529   -2.3292   -1.4919 H   0  0  0  0  0  0  0  0  0  0  0  0
    2.4542   -1.0085   -0.6182 H   0  0  0  0  0  0  0  0  0  0  0  0
    4.1732    0.4386   -0.4945 H   0  0  0  0  0  0  0  0  0  0  0  0
    5.0163    3.2377   -0.9250 H   0  0  0  0  0  0  0  0  0  0  0  0
    3.3143    3.7494    0.7328 H   0  0  0  0  0  0  0  0  0  0  0  0
    4.9323    3.9513    1.4708 H   0  0  0  0  0  0  0  0  0  0  0  0
    4.7024    1.7295    2.6229 H   0  0  0  0  0  0  0  0  0  0  0  0
    3.1037    1.4711    1.8363 H   0  0  0  0  0  0  0  0  0  0  0  0
    3.4948    4.1023    5.0773 H   0  0  0  0  0  0  0  0  0  0  0  0
    8.2644    2.2994    0.1785 H   0  0  0  0  0  0  0  0  0  0  0  0
  1  2  1  0
  2  3  1  0
  3  4  1  0
  4  5  2  0
  5  6  1  0
  6  7  2  0
  7  8  1  0
  8  9  1  0
  9 10  1  0
  9 11  2  0
 11 12  1  0
 12 13  2  0
  7 14  1  0
 14 15  2  0
  2 16  1  0
 16 17  2  0
 17 18  1  0
 18 19  2  0
 19 20  1  0
 19 21  1  0
 21 22  2  0
 21 23  1  0
 23 24  1  0
 24 25  1  0
 25 26  1  0
 26 27  1  0
 27 28  1  0
 27 29  2  0
 24 30  1  0
 30 31  1  0
 30 32  2  0
 15  4  1  0
 20 16  1  0
 12  6  1  0
  1 33  1  0
  1 34  1  0
  1 35  1  0
  3 36  1  0
  3 37  1  0
  5 38  1  0
  8 39  1  0
 10 40  1  0
 10 41  1  0
 10 42  1  0
 14 43  1  0
 15 44  1  0
 17 45  1  0
 18 46  1  0
 23 47  1  0
 24 48  1  6
 25 49  1  0
 25 50  1  0
 26 51  1  0
 26 52  1  0
 28 53  1  0
 31 54  1  0
M  END
$$$$
