
     RDKit          3D

 61 66  0  0  0  0  0  0  0  0999 V2000
   -1.5381    1.1806    1.1099 C   0  0  1  0  0  0  0  0  0  0  0  0
   -2.3372    0.6733    2.3262 C   0  0  0  0  0  0  0  0  0  0  0  0
   -2.9527   -0.6706    1.8993 C   0  0  0  0  0  0  0  0  0  0  0  0
   -2.9345   -0.6624    0.4471 N   0  0  0  0  0  0  0  0  0  0  0  0
   -2.1837    0.4504   -0.0033 C   0  0  0  0  0  0  0  0  0  0  0  0
   -2.0198    0.7185   -1.2239 O   0  0  0  0  0  0  0  0  0  0  0  0
   -3.2025   -1.8295   -0.3429 C   0  0  0  0  0  0  0  0  0  0  0  0
   -4.5356   -2.2100   -0.5417 C   0  0  0  0  0  0  0  0  0  0  0  0
   -4.8494   -3.3020   -1.3508 C   0  0  0  0  0  0  0  0  0  0  0  0
   -3.8353   -4.0285   -1.9745 C   0  0  0  0  0  0  0  0  0  0  0  0
   -2.4915   -3.6794   -1.7763 C   0  0  0  0  0  0  0  0  0  0  0  0
   -2.1592   -2.5859   -0.9372 C   0  0  0  0  0  0  0  0  0  0  0  0
   -0.7978   -2.2907   -0.7071 C   0  0  0  0  0  0  0  0  0  0  0  0
    0.2167   -2.9995   -1.3734 C   0  0  0  0  0  0  0  0  0  0  0  0
    1.5889   -2.7080   -1.2556 O   0  0  0  0  0  0  0  0  0  0  0  0
    2.2495   -1.5647   -0.6852 C   0  0  0  0  0  0  0  0  0  0  0  0
    1.7719   -0.2236   -1.2676 C   0  0  0  0  0  0  0  0  0  0  0  0
    2.4884    0.9575   -0.6355 C   0  0  0  0  0  0  0  0  0  0  0  0
    2.5060    2.2504   -1.4273 C   0  0  0  0  0  0  0  0  0  0  0  0
    2.6848    3.4620   -0.6132 N   0  0  0  0  0  0  0  0  0  0  0  0
    3.6105    4.4140   -0.8564 C   0  0  0  0  0  0  0  0  0  0  0  0
    3.4865    5.4886   -0.0508 N   0  0  0  0  0  0  0  0  0  0  0  0
    2.4261    5.2031    0.7280 C   0  0  0  0  0  0  0  0  0  0  0  0
    1.9206    3.9678    0.3831 C   0  0  0  0  0  0  0  0  0  0  0  0
    0.7740    3.2919    1.0848 C   0  0  0  0  0  0  0  0  0  0  0  0
   -0.4814    3.1921    0.2002 C   0  0  0  0  0  0  0  0  0  0  0  0
   -1.6353    2.6423    0.9362 N   0  0  0  0  0  0  0  0  0  0  0  0
    3.1391    0.8403    0.5481 C   0  0  0  0  0  0  0  0  0  0  0  0
    3.2181   -0.4493    1.3382 C   0  0  0  0  0  0  0  0  0  0  0  0
    2.2243   -1.5224    0.8525 C   0  0  2  0  0  0  0  0  0  0  0  0
    2.5796   -2.8328    1.4207 C   0  0  0  0  0  0  0  0  0  0  0  0
    2.8578   -3.8635    1.8671 N   0  0  0  0  0  0  0  0  0  0  0  0
   -0.1375   -4.0654   -2.2068 C   0  0  0  0  0  0  0  0  0  0  0  0
   -1.4745   -4.4121   -2.4009 C   0  0  0  0  0  0  0  0  0  0  0  0
   -0.4909    0.8233    1.2001 H   0  0  0  0  0  0  0  0  0  0  0  0
   -1.6810    0.5521    3.2152 H   0  0  0  0  0  0  0  0  0  0  0  0
   -3.1596    1.3804    2.5751 H   0  0  0  0  0  0  0  0  0  0  0  0
   -2.3271   -1.5098    2.2754 H   0  0  0  0  0  0  0  0  0  0  0  0
   -3.9933   -0.7760    2.2743 H   0  0  0  0  0  0  0  0  0  0  0  0
   -5.3348   -1.6428   -0.0809 H   0  0  0  0  0  0  0  0  0  0  0  0
   -5.8843   -3.5796   -1.5041 H   0  0  0  0  0  0  0  0  0  0  0  0
   -4.1011   -4.8665   -2.6082 H   0  0  0  0  0  0  0  0  0  0  0  0
   -0.5351   -1.5302   -0.0008 H   0  0  0  0  0  0  0  0  0  0  0  0
    3.3173   -1.6697   -0.9860 H   0  0  0  0  0  0  0  0  0  0  0  0
    0.6871   -0.0750   -1.1214 H   0  0  0  0  0  0  0  0  0  0  0  0
    1.9610   -0.2286   -2.3630 H   0  0  0  0  0  0  0  0  0  0  0  0
    3.3359    2.1712   -2.1628 H   0  0  0  0  0  0  0  0  0  0  0  0
    1.5741    2.3484   -2.0216 H   0  0  0  0  0  0  0  0  0  0  0  0
    4.3665    4.3381   -1.6277 H   0  0  0  0  0  0  0  0  0  0  0  0
    2.0504    5.8561    1.5047 H   0  0  0  0  0  0  0  0  0  0  0  0
    1.1031    2.2974    1.4331 H   0  0  0  0  0  0  0  0  0  0  0  0
    0.5224    3.8752    1.9973 H   0  0  0  0  0  0  0  0  0  0  0  0
   -0.7496    4.2107   -0.1542 H   0  0  0  0  0  0  0  0  0  0  0  0
   -0.2740    2.5797   -0.6999 H   0  0  0  0  0  0  0  0  0  0  0  0
   -1.6872    3.1108    1.8715 H   0  0  0  0  0  0  0  0  0  0  0  0
    3.6996    1.6834    0.9398 H   0  0  0  0  0  0  0  0  0  0  0  0
    4.2608   -0.8284    1.2555 H   0  0  0  0  0  0  0  0  0  0  0  0
    3.0227   -0.2245    2.4091 H   0  0  0  0  0  0  0  0  0  0  0  0
    1.2185   -1.2498    1.2265 H   0  0  0  0  0  0  0  0  0  0  0  0
    0.6349   -4.6306   -2.7131 H   0  0  0  0  0  0  0  0  0  0  0  0
   -1.7132   -5.2478   -3.0480 H   0  0  0  0  0  0  0  0  0  0  0  0
  1  2  1  0
  2  3  1  0
  3  4  1  0
  4  5  1  0
  5  6  2  0
  4  7  1  0
  7  8  2  0
  8  9  1  0
  9 10  2  0
 10 11  1  0
 11 12  2  0
 12 13  1  0
 13 14  2  0
 14 15  1  0
 15 16  1  0
 16 17  1  0
 17 18  1  0
 18 19  1  0
 19 20  1  0
 20 21  1  0
 21 22  2  0
 22 23  1  0
 23 24  2  0
 24 25  1  0
 25 26  1  0
 26 27  1  0
 18 28  2  0
 28 29  1  0
 29 30  1  0
 30 31  1  0
 31 32  3  0
 14 33  1  0
 33 34  2  0
  5  1  1  0
 12  7  1  0
 30 16  1  0
 27  1  1  0
 34 11  1  0
 24 20  1  0
  1 35  1  1
  2 36  1  0
  2 37  1  0
  3 38  1  0
  3 39  1  0
  8 40  1  0
  9 41  1  0
 10 42  1  0
 13 43  1  0
 16 44  1  0
 17 45  1  0
 17 46  1  0
 19 47  1  0
 19 48  1  0
 21 49  1  0
 23 50  1  0
 25 51  1  0
 25 52  1  0
 26 53  1  0
 26 54  1  0
 27 55  1  0
 28 56  1  0
 29 57  1  0
 29 58  1  0
 30 59  1  6
 33 60  1  0
 34 61  1  0
M  END
$$$$
