
     RDKit          3D

 38 41  0  0  0  0  0  0  0  0999 V2000
    6.4556   -2.5553   -0.4448 Cl  0  0  0  0  0  0  0  0  0  0  0  0
    5.7348   -0.9814   -0.1494 C   0  0  0  0  0  0  0  0  0  0  0  0
    4.3596   -0.8325    0.0443 C   0  0  0  0  0  0  0  0  0  0  0  0
    3.1601   -2.0086    0.0386 S   0  0  0  0  0  0  0  0  0  0  0  0
    1.8835   -0.9381    0.3422 C   0  0  0  0  0  0  0  0  0  0  0  0
    2.3923    0.3608    0.4439 C   0  0  0  0  0  0  0  0  0  0  0  0
    3.7812    0.4073    0.2773 C   0  0  0  0  0  0  0  0  0  0  0  0
    4.5742    1.5570    0.3233 C   0  0  0  0  0  0  0  0  0  0  0  0
    5.9602    1.4323    0.1322 C   0  0  0  0  0  0  0  0  0  0  0  0
    6.5380    0.1698   -0.1028 C   0  0  0  0  0  0  0  0  0  0  0  0
    0.4694   -1.3434    0.4489 C   0  0  0  0  0  0  0  0  0  0  0  0
    0.1564   -2.5368    0.1886 O   0  0  0  0  0  0  0  0  0  0  0  0
   -0.5468   -0.4089    0.8479 N   0  0  0  0  0  0  0  0  0  0  0  0
   -1.9764   -0.7414    0.7753 C   0  0  1  0  0  0  0  0  0  0  0  0
   -2.8486    0.2676    1.5878 C   0  0  0  0  0  0  0  0  0  0  0  0
   -3.8752    0.9052    0.7275 N   0  0  0  0  0  0  0  0  0  0  0  0
   -4.7561   -0.1409    0.1522 C   0  0  0  0  0  0  0  0  0  0  0  0
   -3.9472   -1.1485   -0.7045 C   0  0  0  0  0  0  0  0  0  0  0  0
   -2.4614   -0.7431   -0.6954 C   0  0  0  0  0  0  0  0  0  0  0  0
   -2.3613    0.6901   -1.2552 C   0  0  0  0  0  0  0  0  0  0  0  0
   -3.2038    1.6433   -0.3701 C   0  0  0  0  0  0  0  0  0  0  0  0
    1.7920    1.2435    0.6168 H   0  0  0  0  0  0  0  0  0  0  0  0
    4.1327    2.5292    0.5029 H   0  0  0  0  0  0  0  0  0  0  0  0
    6.5883    2.3130    0.1653 H   0  0  0  0  0  0  0  0  0  0  0  0
    7.6076    0.0904   -0.2486 H   0  0  0  0  0  0  0  0  0  0  0  0
   -0.2569    0.5272    1.2058 H   0  0  0  0  0  0  0  0  0  0  0  0
   -2.1258   -1.7555    1.2106 H   0  0  0  0  0  0  0  0  0  0  0  0
   -2.2336    1.0580    2.0699 H   0  0  0  0  0  0  0  0  0  0  0  0
   -3.3503   -0.2674    2.4245 H   0  0  0  0  0  0  0  0  0  0  0  0
   -5.5448    0.3357   -0.4709 H   0  0  0  0  0  0  0  0  0  0  0  0
   -5.2828   -0.6792    0.9710 H   0  0  0  0  0  0  0  0  0  0  0  0
   -4.3313   -1.1571   -1.7483 H   0  0  0  0  0  0  0  0  0  0  0  0
   -4.0623   -2.1767   -0.2964 H   0  0  0  0  0  0  0  0  0  0  0  0
   -1.8676   -1.4484   -1.3161 H   0  0  0  0  0  0  0  0  0  0  0  0
   -2.7360    0.7124   -2.3022 H   0  0  0  0  0  0  0  0  0  0  0  0
   -1.3006    1.0224   -1.2760 H   0  0  0  0  0  0  0  0  0  0  0  0
   -3.9660    2.1615   -0.9930 H   0  0  0  0  0  0  0  0  0  0  0  0
   -2.5511    2.4369    0.0562 H   0  0  0  0  0  0  0  0  0  0  0  0
  1  2  1  0
  2  3  2  0
  3  4  1  0
  4  5  1  0
  5  6  2  0
  6  7  1  0
  7  8  2  0
  8  9  1  0
  9 10  2  0
  5 11  1  0
 11 12  2  0
 11 13  1  0
 13 14  1  0
 14 15  1  0
 15 16  1  0
 16 17  1  0
 17 18  1  0
 18 19  1  0
 19 20  1  0
 20 21  1  0
 10  2  1  0
 19 14  1  0
  7  3  1  0
 21 16  1  0
  6 22  1  0
  8 23  1  0
  9 24  1  0
 10 25  1  0
 13 26  1  0
 14 27  1  1
 15 28  1  0
 15 29  1  0
 17 30  1  0
 17 31  1  0
 18 32  1  0
 18 33  1  0
 19 34  1  0
 20 35  1  0
 20 36  1  0
 21 37  1  0
 21 38  1  0
M  END
$$$$
