
     RDKit          3D

 25 26  0  0  0  0  0  0  0  0999 V2000
    4.7181    0.3482   -1.3233 N   0  0  0  0  0  0  0  0  0  0  0  0
    3.4255   -0.1326   -1.6936 C   0  0  0  0  0  0  0  0  0  0  0  0
    3.1287   -0.2396   -2.9134 O   0  0  0  0  0  0  0  0  0  0  0  0
    2.4410   -0.5026   -0.6663 C   0  0  0  0  0  0  0  0  0  0  0  0
    1.1625   -0.9721   -0.8790 C   0  0  0  0  0  0  0  0  0  0  0  0
    0.6353   -1.1726    0.3404 N   0  0  0  0  0  0  0  0  0  0  0  0
   -0.7253   -1.6013    0.6432 C   0  0  0  0  0  0  0  0  0  0  0  0
   -1.6361   -0.4035    0.7168 C   0  0  0  0  0  0  0  0  0  0  0  0
   -2.3098    0.0521   -0.4328 C   0  0  0  0  0  0  0  0  0  0  0  0
   -2.1771   -0.5981   -1.6169 F   0  0  0  0  0  0  0  0  0  0  0  0
   -3.1246    1.1869   -0.3669 C   0  0  0  0  0  0  0  0  0  0  0  0
   -3.2657    1.8814    0.8365 C   0  0  0  0  0  0  0  0  0  0  0  0
   -2.5883    1.4466    1.9778 C   0  0  0  0  0  0  0  0  0  0  0  0
   -1.7712    0.3129    1.9214 C   0  0  0  0  0  0  0  0  0  0  0  0
   -1.1104   -0.0824    3.0392 F   0  0  0  0  0  0  0  0  0  0  0  0
    1.5330   -0.8298    1.2507 N   0  0  0  0  0  0  0  0  0  0  0  0
    2.6496   -0.4219    0.6641 N   0  0  0  0  0  0  0  0  0  0  0  0
    5.4117    0.6090   -2.0589 H   0  0  0  0  0  0  0  0  0  0  0  0
    4.9897    0.4463   -0.3199 H   0  0  0  0  0  0  0  0  0  0  0  0
    0.6598   -1.1410   -1.8228 H   0  0  0  0  0  0  0  0  0  0  0  0
   -0.7353   -2.1545    1.6073 H   0  0  0  0  0  0  0  0  0  0  0  0
   -1.0768   -2.3152   -0.1332 H   0  0  0  0  0  0  0  0  0  0  0  0
   -3.6449    1.5316   -1.2514 H   0  0  0  0  0  0  0  0  0  0  0  0
   -3.8959    2.7601    0.8834 H   0  0  0  0  0  0  0  0  0  0  0  0
   -2.6935    1.9922    2.9067 H   0  0  0  0  0  0  0  0  0  0  0  0
  1  2  1  0
  2  3  2  0
  2  4  1  0
  4  5  2  0
  5  6  1  0
  6  7  1  0
  7  8  1  0
  8  9  2  0
  9 10  1  0
  9 11  1  0
 11 12  2  0
 12 13  1  0
 13 14  2  0
 14 15  1  0
  6 16  1  0
 16 17  2  0
 17  4  1  0
 14  8  1  0
  1 18  1  0
  1 19  1  0
  5 20  1  0
  7 21  1  0
  7 22  1  0
 11 23  1  0
 12 24  1  0
 13 25  1  0
M  END
$$$$
