
     RDKit          3D

 60 62  0  0  0  0  0  0  0  0999 V2000
   -2.3874   -0.5681    0.5482 C   0  0  2  0  0  0  0  0  0  0  0  0
   -3.4961   -0.2541    1.5703 C   0  0  0  0  0  0  0  0  0  0  0  0
   -4.8676   -0.3561    0.9498 C   0  0  0  0  0  0  0  0  0  0  0  0
   -5.5086    0.7900    0.4488 C   0  0  0  0  0  0  0  0  0  0  0  0
   -6.7560    0.6841   -0.1738 C   0  0  0  0  0  0  0  0  0  0  0  0
   -7.3700   -0.5645   -0.3040 C   0  0  0  0  0  0  0  0  0  0  0  0
   -6.7361   -1.7099    0.1854 C   0  0  0  0  0  0  0  0  0  0  0  0
   -5.4873   -1.6087    0.8065 C   0  0  0  0  0  0  0  0  0  0  0  0
   -1.0795   -0.6031    1.2084 N   0  0  0  0  0  0  0  0  0  0  0  0
    0.0668   -1.2140    0.5961 C   0  0  0  0  0  0  0  0  0  0  0  0
   -0.0466   -1.8114   -0.5089 O   0  0  0  0  0  0  0  0  0  0  0  0
    1.4099   -1.1664    1.2762 C   0  0  2  0  0  0  0  0  0  0  0  0
    1.3723   -2.1062    2.4939 C   0  0  0  0  0  0  0  0  0  0  0  0
    3.0326   -2.3739    3.2140 S   0  0  0  0  0  0  0  0  0  0  0  0
    3.7595   -0.7530    2.7851 C   0  0  0  0  0  0  0  0  0  0  0  0
    2.7076    0.3623    2.7691 C   0  0  0  0  0  0  0  0  0  0  0  0
    1.7254    0.2301    1.6670 N   0  0  0  0  0  0  0  0  0  0  0  0
    2.1912    1.2048    0.2834 S   0  0  0  0  0  6  0  0  0  0  0  0
    2.2599    2.6485    0.6982 O   0  0  0  0  0  0  0  0  0  0  0  0
    1.1573    1.0918   -0.8021 O   0  0  0  0  0  0  0  0  0  0  0  0
    3.7560    0.7186   -0.3689 C   0  0  0  0  0  0  0  0  0  0  0  0
    4.9326    1.3269    0.0902 C   0  0  0  0  0  0  0  0  0  0  0  0
    6.1741    0.9290   -0.4141 C   0  0  0  0  0  0  0  0  0  0  0  0
    6.2513   -0.0701   -1.3963 C   0  0  0  0  0  0  0  0  0  0  0  0
    7.5857   -0.5267   -1.9066 C   0  0  0  0  0  0  0  0  0  0  0  0
    5.0736   -0.6858   -1.8467 C   0  0  0  0  0  0  0  0  0  0  0  0
    3.8327   -0.2875   -1.3416 C   0  0  0  0  0  0  0  0  0  0  0  0
   -2.3765    0.4557   -0.5518 C   0  0  0  0  0  0  0  0  0  0  0  0
   -1.8640    1.5920   -0.3543 O   0  0  0  0  0  0  0  0  0  0  0  0
   -2.9996    0.1575   -1.7663 O   0  0  0  0  0  0  0  0  0  0  0  0
   -3.1138    1.1038   -2.8228 C   0  0  0  0  0  0  0  0  0  0  0  0
   -3.8892    0.4863   -3.9749 C   0  0  0  0  0  0  0  0  0  0  0  0
   -2.5936   -1.5714    0.1124 H   0  0  0  0  0  0  0  0  0  0  0  0
   -3.4266   -0.9738    2.4155 H   0  0  0  0  0  0  0  0  0  0  0  0
   -3.3422    0.7610    1.9997 H   0  0  0  0  0  0  0  0  0  0  0  0
   -5.0382    1.7620    0.5312 H   0  0  0  0  0  0  0  0  0  0  0  0
   -7.2445    1.5695   -0.5593 H   0  0  0  0  0  0  0  0  0  0  0  0
   -8.3350   -0.6450   -0.7874 H   0  0  0  0  0  0  0  0  0  0  0  0
   -7.2099   -2.6771    0.0786 H   0  0  0  0  0  0  0  0  0  0  0  0
   -5.0005   -2.5052    1.1701 H   0  0  0  0  0  0  0  0  0  0  0  0
   -0.9598   -0.1321    2.1343 H   0  0  0  0  0  0  0  0  0  0  0  0
    2.1810   -1.5535    0.5741 H   0  0  0  0  0  0  0  0  0  0  0  0
    0.9765   -3.1007    2.1945 H   0  0  0  0  0  0  0  0  0  0  0  0
    0.7024   -1.6937    3.2787 H   0  0  0  0  0  0  0  0  0  0  0  0
    4.5343   -0.5116    3.5426 H   0  0  0  0  0  0  0  0  0  0  0  0
    4.2634   -0.8349    1.8023 H   0  0  0  0  0  0  0  0  0  0  0  0
    2.1596    0.3515    3.7355 H   0  0  0  0  0  0  0  0  0  0  0  0
    3.2251    1.3450    2.7317 H   0  0  0  0  0  0  0  0  0  0  0  0
    4.8916    2.0985    0.8481 H   0  0  0  0  0  0  0  0  0  0  0  0
    7.0745    1.3986   -0.0377 H   0  0  0  0  0  0  0  0  0  0  0  0
    8.3179    0.3085   -1.8908 H   0  0  0  0  0  0  0  0  0  0  0  0
    7.5017   -0.8896   -2.9531 H   0  0  0  0  0  0  0  0  0  0  0  0
    7.9629   -1.3513   -1.2664 H   0  0  0  0  0  0  0  0  0  0  0  0
    5.1160   -1.4741   -2.5882 H   0  0  0  0  0  0  0  0  0  0  0  0
    2.9335   -0.7699   -1.7034 H   0  0  0  0  0  0  0  0  0  0  0  0
   -3.6535    2.0062   -2.4613 H   0  0  0  0  0  0  0  0  0  0  0  0
   -2.1011    1.3985   -3.1738 H   0  0  0  0  0  0  0  0  0  0  0  0
   -3.9832    1.2222   -4.8011 H   0  0  0  0  0  0  0  0  0  0  0  0
   -3.3577   -0.4134   -4.3508 H   0  0  0  0  0  0  0  0  0  0  0  0
   -4.9052    0.1942   -3.6336 H   0  0  0  0  0  0  0  0  0  0  0  0
  1  2  1  0
  2  3  1  0
  3  4  2  0
  4  5  1  0
  5  6  2  0
  6  7  1  0
  7  8  2  0
  1  9  1  0
  9 10  1  0
 10 11  2  0
 10 12  1  0
 12 13  1  0
 13 14  1  0
 14 15  1  0
 15 16  1  0
 16 17  1  0
 17 18  1  0
 18 19  2  0
 18 20  2  0
 18 21  1  0
 21 22  2  0
 22 23  1  0
 23 24  2  0
 24 25  1  0
 24 26  1  0
 26 27  2  0
  1 28  1  0
 28 29  2  0
 28 30  1  0
 30 31  1  0
 31 32  1  0
  8  3  1  0
 17 12  1  0
 27 21  1  0
  1 33  1  6
  2 34  1  0
  2 35  1  0
  4 36  1  0
  5 37  1  0
  6 38  1  0
  7 39  1  0
  8 40  1  0
  9 41  1  0
 12 42  1  6
 13 43  1  0
 13 44  1  0
 15 45  1  0
 15 46  1  0
 16 47  1  0
 16 48  1  0
 22 49  1  0
 23 50  1  0
 25 51  1  0
 25 52  1  0
 25 53  1  0
 26 54  1  0
 27 55  1  0
 31 56  1  0
 31 57  1  0
 32 58  1  0
 32 59  1  0
 32 60  1  0
M  END
$$$$
