
     RDKit          3D

 73 76  0  0  0  0  0  0  0  0999 V2000
    7.2161    3.1746    2.3698 C   0  0  0  0  0  0  0  0  0  0  0  0
    7.1537    1.9568    1.6345 O   0  0  0  0  0  0  0  0  0  0  0  0
    6.0145    1.4931    0.9572 C   0  0  0  0  0  0  0  0  0  0  0  0
    6.0971    0.2755    0.2729 C   0  0  0  0  0  0  0  0  0  0  0  0
    7.3191   -0.4161    0.2873 O   0  0  0  0  0  0  0  0  0  0  0  0
    7.5429   -1.6737   -0.3425 C   0  0  0  0  0  0  0  0  0  0  0  0
    4.9686   -0.2175   -0.4058 C   0  0  0  0  0  0  0  0  0  0  0  0
    3.7384    0.4639   -0.3733 C   0  0  0  0  0  0  0  0  0  0  0  0
    2.5429   -0.1425   -1.1089 C   0  0  0  0  0  0  0  0  0  0  0  0
    1.7219   -1.1435   -0.3264 N   0  0  0  0  0  4  0  0  0  0  0  0
    1.0176   -0.4624    0.8170 C   0  0  0  0  0  0  0  0  0  0  0  0
   -0.1764    0.4557    0.4395 C   0  0  0  0  0  0  0  0  0  0  0  0
   -1.3665   -0.2966    0.2802 O   0  0  0  0  0  0  0  0  0  0  0  0
   -2.1300   -0.3273    1.4727 C   0  0  0  0  0  0  0  0  0  0  0  0
   -3.1253    0.8443    1.5345 C   0  0  0  0  0  0  0  0  0  0  0  0
   -3.9594    1.0361    0.2434 C   0  0  0  0  0  0  0  0  0  0  0  0
   -4.8086    2.3711    0.3233 C   0  0  0  0  0  0  0  0  0  0  0  0
   -6.2922    2.2463   -0.1881 C   0  0  0  0  0  0  0  0  0  0  0  0
   -6.7145    0.7686   -0.4171 C   0  0  0  0  0  0  0  0  0  0  0  0
   -6.1589   -0.0346    0.7667 C   0  0  0  0  0  0  0  0  0  0  0  0
   -4.8739   -0.1976   -0.0626 C   0  0  0  0  0  0  0  0  0  0  0  0
   -5.7096    0.0486   -1.3430 C   0  0  0  0  0  0  0  0  0  0  0  0
   -6.2919   -1.2688   -1.9144 C   0  0  0  0  0  0  0  0  0  0  0  0
   -5.0744    0.8477   -2.5144 C   0  0  0  0  0  0  0  0  0  0  0  0
    2.5590   -2.2398    0.2603 C   0  0  0  0  0  0  0  0  0  0  0  0
    3.1041   -3.2454   -0.7835 C   0  0  0  0  0  0  0  0  0  0  0  0
    2.7130   -2.9259   -2.0988 O   0  0  0  0  0  0  0  0  0  0  0  0
    1.3064   -2.8607   -2.1701 C   0  0  0  0  0  0  0  0  0  0  0  0
    0.7134   -1.7808   -1.2293 C   0  0  0  0  0  0  0  0  0  0  0  0
    3.6873    1.7266    0.2637 C   0  0  0  0  0  0  0  0  0  0  0  0
    2.1643    2.8891    0.1784 Br  0  0  0  0  0  0  0  0  0  0  0  0
    4.8112    2.2181    0.9360 C   0  0  0  0  0  0  0  0  0  0  0  0
    8.2300    3.2827    2.8064 H   0  0  0  0  0  0  0  0  0  0  0  0
    6.4733    3.1609    3.1952 H   0  0  0  0  0  0  0  0  0  0  0  0
    7.0255    4.0372    1.6970 H   0  0  0  0  0  0  0  0  0  0  0  0
    7.3902   -1.5844   -1.4388 H   0  0  0  0  0  0  0  0  0  0  0  0
    8.5888   -1.9918   -0.1550 H   0  0  0  0  0  0  0  0  0  0  0  0
    6.8573   -2.4393    0.0787 H   0  0  0  0  0  0  0  0  0  0  0  0
    5.0427   -1.1348   -0.9677 H   0  0  0  0  0  0  0  0  0  0  0  0
    2.9322   -0.5895   -2.0455 H   0  0  0  0  0  0  0  0  0  0  0  0
    1.9045    0.6726   -1.4989 H   0  0  0  0  0  0  0  0  0  0  0  0
    1.7443    0.1302    1.4127 H   0  0  0  0  0  0  0  0  0  0  0  0
    0.6178   -1.2103    1.5384 H   0  0  0  0  0  0  0  0  0  0  0  0
    0.0071    0.9931   -0.5080 H   0  0  0  0  0  0  0  0  0  0  0  0
   -0.2765    1.2584    1.2070 H   0  0  0  0  0  0  0  0  0  0  0  0
   -2.6896   -1.2841    1.5010 H   0  0  0  0  0  0  0  0  0  0  0  0
   -1.4979   -0.3324    2.3914 H   0  0  0  0  0  0  0  0  0  0  0  0
   -3.7981    0.6910    2.4051 H   0  0  0  0  0  0  0  0  0  0  0  0
   -2.5527    1.7771    1.7283 H   0  0  0  0  0  0  0  0  0  0  0  0
   -3.2326    1.1437   -0.5899 H   0  0  0  0  0  0  0  0  0  0  0  0
   -4.8507    2.7274    1.3765 H   0  0  0  0  0  0  0  0  0  0  0  0
   -4.2894    3.1731   -0.2447 H   0  0  0  0  0  0  0  0  0  0  0  0
   -6.9770    2.6975    0.5627 H   0  0  0  0  0  0  0  0  0  0  0  0
   -6.4316    2.8260   -1.1253 H   0  0  0  0  0  0  0  0  0  0  0  0
   -7.7922    0.6093   -0.6393 H   0  0  0  0  0  0  0  0  0  0  0  0
   -6.6937   -0.9976    0.9168 H   0  0  0  0  0  0  0  0  0  0  0  0
   -6.0688    0.5168    1.7293 H   0  0  0  0  0  0  0  0  0  0  0  0
   -4.3939   -1.1974   -0.0089 H   0  0  0  0  0  0  0  0  0  0  0  0
   -7.0658   -1.0419   -2.6785 H   0  0  0  0  0  0  0  0  0  0  0  0
   -5.4848   -1.8629   -2.3939 H   0  0  0  0  0  0  0  0  0  0  0  0
   -6.7626   -1.9068   -1.1387 H   0  0  0  0  0  0  0  0  0  0  0  0
   -5.8406    1.0319   -3.2971 H   0  0  0  0  0  0  0  0  0  0  0  0
   -4.6543    1.8319   -2.2422 H   0  0  0  0  0  0  0  0  0  0  0  0
   -4.2514    0.2530   -2.9646 H   0  0  0  0  0  0  0  0  0  0  0  0
    1.9504   -2.8488    0.9684 H   0  0  0  0  0  0  0  0  0  0  0  0
    3.3838   -1.8382    0.8850 H   0  0  0  0  0  0  0  0  0  0  0  0
    2.7817   -4.2820   -0.5325 H   0  0  0  0  0  0  0  0  0  0  0  0
    4.2123   -3.2578   -0.7403 H   0  0  0  0  0  0  0  0  0  0  0  0
    1.0257   -2.6201   -3.2175 H   0  0  0  0  0  0  0  0  0  0  0  0
    0.8623   -3.8586   -1.9493 H   0  0  0  0  0  0  0  0  0  0  0  0
   -0.0770   -2.2843   -0.6266 H   0  0  0  0  0  0  0  0  0  0  0  0
    0.1992   -1.0136   -1.8515 H   0  0  0  0  0  0  0  0  0  0  0  0
    4.7428    3.1797    1.4260 H   0  0  0  0  0  0  0  0  0  0  0  0
  1  2  1  0
  2  3  1  0
  3  4  2  0
  4  5  1  0
  5  6  1  0
  4  7  1  0
  7  8  2  0
  8  9  1  0
  9 10  1  0
 10 11  1  0
 11 12  1  0
 12 13  1  0
 13 14  1  0
 14 15  1  0
 15 16  1  0
 16 17  1  0
 17 18  1  0
 18 19  1  0
 19 20  1  0
 20 21  1  0
 21 22  1  0
 22 23  1  0
 22 24  1  0
 10 25  1  0
 25 26  1  0
 26 27  1  0
 27 28  1  0
 28 29  1  0
  8 30  1  0
 30 31  1  0
 30 32  2  0
 32  3  1  0
 29 10  1  0
 21 16  1  0
 22 19  1  0
  1 33  1  0
  1 34  1  0
  1 35  1  0
  6 36  1  0
  6 37  1  0
  6 38  1  0
  7 39  1  0
  9 40  1  0
  9 41  1  0
 11 42  1  0
 11 43  1  0
 12 44  1  0
 12 45  1  0
 14 46  1  0
 14 47  1  0
 15 48  1  0
 15 49  1  0
 16 50  1  0
 17 51  1  0
 17 52  1  0
 18 53  1  0
 18 54  1  0
 19 55  1  0
 20 56  1  0
 20 57  1  0
 21 58  1  0
 23 59  1  0
 23 60  1  0
 23 61  1  0
 24 62  1  0
 24 63  1  0
 24 64  1  0
 25 65  1  0
 25 66  1  0
 26 67  1  0
 26 68  1  0
 28 69  1  0
 28 70  1  0
 29 71  1  0
 29 72  1  0
 32 73  1  0
M  CHG  1  10   1
M  END
$$$$
