
     RDKit          3D

 32 35  0  0  0  0  0  0  0  0999 V2000
   -1.0737    2.8736    0.9680 O   0  0  0  0  0  0  0  0  0  0  0  0
   -0.3946    1.7063    0.7107 N   0  0  0  0  0  0  0  0  0  0  0  0
   -0.9486    0.6924    0.1208 C   0  0  0  0  0  0  0  0  0  0  0  0
   -0.3559   -0.6544    0.0116 C   0  0  0  0  0  0  0  0  0  0  0  0
   -1.4104   -1.5940   -0.2314 N   0  0  0  0  0  0  0  0  0  0  0  0
   -2.6013   -0.8248   -0.3532 C   0  0  0  0  0  0  0  0  0  0  0  0
   -2.3772    0.5229   -0.1598 C   0  0  0  0  0  0  0  0  0  0  0  0
   -3.4198    1.4503   -0.2577 C   0  0  0  0  0  0  0  0  0  0  0  0
   -4.7087    0.9742   -0.5527 C   0  0  0  0  0  0  0  0  0  0  0  0
   -4.9340   -0.4032   -0.7474 C   0  0  0  0  0  0  0  0  0  0  0  0
   -3.8716   -1.3166   -0.6511 C   0  0  0  0  0  0  0  0  0  0  0  0
    0.9411   -1.0031    0.1356 C   0  0  0  0  0  0  0  0  0  0  0  0
    1.4624   -2.3489    0.4300 C   0  0  0  0  0  0  0  0  0  0  0  0
    0.7796   -3.4029    0.5168 O   0  0  0  0  0  0  0  0  0  0  0  0
    2.8621   -2.3145    0.6797 N   0  0  0  0  0  0  0  0  0  0  0  0
    3.2336   -0.9575    0.4856 C   0  0  0  0  0  0  0  0  0  0  0  0
    2.1525   -0.1580    0.1442 C   0  0  0  0  0  0  0  0  0  0  0  0
    2.3633    1.1460   -0.3237 C   0  0  0  0  0  0  0  0  0  0  0  0
    3.6677    1.6667   -0.3070 C   0  0  0  0  0  0  0  0  0  0  0  0
    4.7486    0.8696    0.1129 C   0  0  0  0  0  0  0  0  0  0  0  0
    4.5380   -0.4648    0.4901 C   0  0  0  0  0  0  0  0  0  0  0  0
   -0.6030    3.6413    1.4296 H   0  0  0  0  0  0  0  0  0  0  0  0
   -1.3248   -2.6096   -0.4541 H   0  0  0  0  0  0  0  0  0  0  0  0
   -3.2537    2.5100   -0.1292 H   0  0  0  0  0  0  0  0  0  0  0  0
   -5.5329    1.6706   -0.6360 H   0  0  0  0  0  0  0  0  0  0  0  0
   -5.9301   -0.7587   -0.9768 H   0  0  0  0  0  0  0  0  0  0  0  0
   -4.0355   -2.3752   -0.8049 H   0  0  0  0  0  0  0  0  0  0  0  0
    3.4891   -3.1223    0.8910 H   0  0  0  0  0  0  0  0  0  0  0  0
    1.5666    1.7358   -0.7487 H   0  0  0  0  0  0  0  0  0  0  0  0
    3.8475    2.6771   -0.6506 H   0  0  0  0  0  0  0  0  0  0  0  0
    5.7521    1.2749    0.1050 H   0  0  0  0  0  0  0  0  0  0  0  0
    5.3715   -1.1032    0.7525 H   0  0  0  0  0  0  0  0  0  0  0  0
  1  2  1  0
  2  3  2  0
  3  4  1  0
  4  5  1  0
  5  6  1  0
  6  7  2  0
  7  8  1  0
  8  9  2  0
  9 10  1  0
 10 11  2  0
  4 12  2  0
 12 13  1  0
 13 14  2  0
 13 15  1  0
 15 16  1  0
 16 17  2  0
 17 18  1  0
 18 19  2  0
 19 20  1  0
 20 21  2  0
  7  3  1  0
 17 12  1  0
 11  6  1  0
 21 16  1  0
  1 22  1  0
  5 23  1  0
  8 24  1  0
  9 25  1  0
 10 26  1  0
 11 27  1  0
 15 28  1  0
 18 29  1  0
 19 30  1  0
 20 31  1  0
 21 32  1  0
M  END
$$$$
