
     RDKit          3D

 48 50  0  0  0  0  0  0  0  0999 V2000
   -1.2515    1.6120    0.0702 C   0  0  1  0  0  0  0  0  0  0  0  0
    0.1363    2.2894    0.0176 C   0  0  0  0  0  0  0  0  0  0  0  0
    1.2149    1.2938   -0.3350 C   0  0  0  0  0  0  0  0  0  0  0  0
    1.9810    0.6924    0.6722 C   0  0  0  0  0  0  0  0  0  0  0  0
    2.9099   -0.3102    0.3684 C   0  0  0  0  0  0  0  0  0  0  0  0
    3.8365   -1.0930    1.8573 Br  0  0  0  0  0  0  0  0  0  0  0  0
    3.1007   -0.7146   -0.9785 C   0  0  0  0  0  0  0  0  0  0  0  0
    2.3110   -0.1117   -1.9780 C   0  0  0  0  0  0  0  0  0  0  0  0
    1.3842    0.8813   -1.6609 C   0  0  0  0  0  0  0  0  0  0  0  0
    4.0533   -1.8279   -1.3795 C   0  0  0  0  0  0  0  0  0  0  0  0
    4.4887   -1.6392   -2.6807 F   0  0  0  0  0  0  0  0  0  0  0  0
    5.1772   -1.8488   -0.5755 F   0  0  0  0  0  0  0  0  0  0  0  0
    3.2092   -3.4404   -1.2874 P   0  0  0  0  0  5  0  0  0  0  0  0
    1.7834   -3.3789   -2.1967 O   0  0  0  0  0  0  0  0  0  0  0  0
    2.8325   -3.8188    0.3183 O   0  0  0  0  0  0  0  0  0  0  0  0
    4.1149   -4.5104   -1.8545 O   0  0  0  0  0  0  0  0  0  0  0  0
   -1.3151    0.5927    1.1929 C   0  0  0  0  0  0  0  0  0  0  0  0
   -1.4816    0.9927    2.3781 O   0  0  0  0  0  0  0  0  0  0  0  0
   -1.0458   -0.8473    0.9571 C   0  0  0  0  0  0  0  0  0  0  0  0
   -1.4893   -1.5002   -0.2091 C   0  0  0  0  0  0  0  0  0  0  0  0
   -1.1883   -2.8491   -0.4216 C   0  0  0  0  0  0  0  0  0  0  0  0
   -0.4532   -3.5620    0.5274 C   0  0  0  0  0  0  0  0  0  0  0  0
   -0.0224   -2.9296    1.6951 C   0  0  0  0  0  0  0  0  0  0  0  0
   -0.3207   -1.5818    1.9131 C   0  0  0  0  0  0  0  0  0  0  0  0
   -2.3778    2.6260    0.1912 C   0  0  0  0  0  0  0  0  0  0  0  0
   -3.4862    2.5440   -0.6730 C   0  0  0  0  0  0  0  0  0  0  0  0
   -4.5408    3.4552   -0.5638 C   0  0  0  0  0  0  0  0  0  0  0  0
   -4.5075    4.4521    0.4133 C   0  0  0  0  0  0  0  0  0  0  0  0
   -3.4215    4.5369    1.2869 C   0  0  0  0  0  0  0  0  0  0  0  0
   -2.3638    3.6287    1.1825 C   0  0  0  0  0  0  0  0  0  0  0  0
   -1.3728    1.0983   -0.9053 H   0  0  0  0  0  0  0  0  0  0  0  0
    0.3752    2.7718    0.9899 H   0  0  0  0  0  0  0  0  0  0  0  0
    0.1252    3.0948   -0.7497 H   0  0  0  0  0  0  0  0  0  0  0  0
    1.8311    0.9814    1.7054 H   0  0  0  0  0  0  0  0  0  0  0  0
    2.3967   -0.4217   -3.0118 H   0  0  0  0  0  0  0  0  0  0  0  0
    0.7798    1.3137   -2.4489 H   0  0  0  0  0  0  0  0  0  0  0  0
    1.3360   -4.2454   -2.0243 H   0  0  0  0  0  0  0  0  0  0  0  0
    3.7023   -4.0322    0.7411 H   0  0  0  0  0  0  0  0  0  0  0  0
   -2.0883   -0.9850   -0.9471 H   0  0  0  0  0  0  0  0  0  0  0  0
   -1.5297   -3.3436   -1.3218 H   0  0  0  0  0  0  0  0  0  0  0  0
   -0.2185   -4.6050    0.3585 H   0  0  0  0  0  0  0  0  0  0  0  0
    0.5490   -3.4824    2.4295 H   0  0  0  0  0  0  0  0  0  0  0  0
    0.0374   -1.1056    2.8176 H   0  0  0  0  0  0  0  0  0  0  0  0
   -3.5366    1.7740   -1.4329 H   0  0  0  0  0  0  0  0  0  0  0  0
   -5.3863    3.3862   -1.2360 H   0  0  0  0  0  0  0  0  0  0  0  0
   -5.3257    5.1556    0.4970 H   0  0  0  0  0  0  0  0  0  0  0  0
   -3.4009    5.3049    2.0493 H   0  0  0  0  0  0  0  0  0  0  0  0
   -1.5419    3.7069    1.8812 H   0  0  0  0  0  0  0  0  0  0  0  0
  1  2  1  0
  2  3  1  0
  3  4  2  0
  4  5  1  0
  5  6  1  0
  5  7  2  0
  7  8  1  0
  8  9  2  0
  7 10  1  0
 10 11  1  0
 10 12  1  0
 10 13  1  0
 13 14  1  0
 13 15  1  0
 13 16  2  0
  1 17  1  0
 17 18  2  0
 17 19  1  0
 19 20  2  0
 20 21  1  0
 21 22  2  0
 22 23  1  0
 23 24  2  0
  1 25  1  0
 25 26  2  0
 26 27  1  0
 27 28  2  0
 28 29  1  0
 29 30  2  0
  9  3  1  0
 24 19  1  0
 30 25  1  0
  1 31  1  6
  2 32  1  0
  2 33  1  0
  4 34  1  0
  8 35  1  0
  9 36  1  0
 14 37  1  0
 15 38  1  0
 20 39  1  0
 21 40  1  0
 22 41  1  0
 23 42  1  0
 24 43  1  0
 26 44  1  0
 27 45  1  0
 28 46  1  0
 29 47  1  0
 30 48  1  0
M  END
$$$$
