
     RDKit          3D

 65 67  0  0  0  0  0  0  0  0999 V2000
    0.4612   -0.3279   -1.1365 N   0  0  0  0  0  0  0  0  0  0  0  0
    1.9205   -0.4097   -1.1372 C   0  0  0  0  0  0  0  0  0  0  0  0
    2.4061   -1.3577   -0.0317 C   0  0  1  0  0  0  0  0  0  0  0  0
    1.9596   -2.6616   -0.3038 O   0  0  0  0  0  0  0  0  0  0  0  0
    3.9398   -1.3419    0.0523 C   0  0  0  0  0  0  0  0  0  0  0  0
    4.3954   -2.1943    1.1536 N   0  0  0  0  0  0  0  0  0  0  0  0
    6.1288   -2.3157    1.1313 S   0  0  0  0  0  6  0  0  0  0  0  0
    6.5800   -2.9622   -0.1491 O   0  0  0  0  0  0  0  0  0  0  0  0
    6.5756   -3.1747    2.2805 O   0  0  0  0  0  0  0  0  0  0  0  0
    6.8642   -0.7265    1.2920 C   0  0  0  0  0  0  0  0  0  0  0  0
    7.2132    0.0178    0.1576 C   0  0  0  0  0  0  0  0  0  0  0  0
    7.7819    1.2829    0.3190 C   0  0  0  0  0  0  0  0  0  0  0  0
    7.9949    1.7904    1.6020 C   0  0  0  0  0  0  0  0  0  0  0  0
    7.6322    1.0205    2.7096 C   0  0  0  0  0  0  0  0  0  0  0  0
    7.0785   -0.2091    2.5324 N   0  0  0  0  0  0  0  0  0  0  0  0
   -0.3700   -1.2825   -1.8198 C   0  0  0  0  0  0  0  0  0  0  0  0
    0.1569   -2.1391   -2.5813 O   0  0  0  0  0  0  0  0  0  0  0  0
   -1.8788   -1.2712   -1.6727 C   0  0  2  0  0  0  0  0  0  0  0  0
   -2.5644   -0.6278   -2.9199 C   0  0  0  0  0  0  0  0  0  0  0  0
   -2.1923    0.8208   -3.3564 C   0  0  0  0  0  0  0  0  0  0  0  0
   -2.3919    1.8830   -2.2714 C   0  0  0  0  0  0  0  0  0  0  0  0
   -0.7998    0.9363   -3.9967 C   0  0  0  0  0  0  0  0  0  0  0  0
   -2.3632   -0.8385   -0.2802 C   0  0  0  0  0  0  0  0  0  0  0  0
   -1.6475   -1.2692    0.8582 C   0  0  0  0  0  0  0  0  0  0  0  0
   -2.0885   -0.9639    2.1452 C   0  0  0  0  0  0  0  0  0  0  0  0
   -3.2783   -0.2653    2.3313 C   0  0  0  0  0  0  0  0  0  0  0  0
   -4.0546    0.1172    1.2274 C   0  0  0  0  0  0  0  0  0  0  0  0
   -3.6015   -0.1901   -0.0700 C   0  0  0  0  0  0  0  0  0  0  0  0
   -5.3494    0.8163    1.4292 C   0  0  0  0  0  0  0  0  0  0  0  0
   -6.2339    0.4044    2.4441 C   0  0  0  0  0  0  0  0  0  0  0  0
   -7.4530    1.0630    2.6312 C   0  0  0  0  0  0  0  0  0  0  0  0
   -7.8020    2.1381    1.8108 C   0  0  0  0  0  0  0  0  0  0  0  0
   -6.9322    2.5571    0.8016 C   0  0  0  0  0  0  0  0  0  0  0  0
   -5.7123    1.9015    0.6097 C   0  0  0  0  0  0  0  0  0  0  0  0
    0.0219    0.4551   -0.6048 H   0  0  0  0  0  0  0  0  0  0  0  0
    2.2884   -0.7417   -2.1328 H   0  0  0  0  0  0  0  0  0  0  0  0
    2.3308    0.6075   -0.9534 H   0  0  0  0  0  0  0  0  0  0  0  0
    1.9856   -0.9973    0.9377 H   0  0  0  0  0  0  0  0  0  0  0  0
    1.8974   -3.1347    0.5668 H   0  0  0  0  0  0  0  0  0  0  0  0
    4.2878   -0.2970    0.2140 H   0  0  0  0  0  0  0  0  0  0  0  0
    4.3546   -1.7107   -0.9122 H   0  0  0  0  0  0  0  0  0  0  0  0
    4.1362   -1.7298    2.0546 H   0  0  0  0  0  0  0  0  0  0  0  0
    7.0412   -0.3730   -0.8371 H   0  0  0  0  0  0  0  0  0  0  0  0
    8.0552    1.8694   -0.5486 H   0  0  0  0  0  0  0  0  0  0  0  0
    8.4348    2.7700    1.7369 H   0  0  0  0  0  0  0  0  0  0  0  0
    7.7894    1.4007    3.7101 H   0  0  0  0  0  0  0  0  0  0  0  0
   -2.1822   -2.3415   -1.7192 H   0  0  0  0  0  0  0  0  0  0  0  0
   -2.3463   -1.2909   -3.7868 H   0  0  0  0  0  0  0  0  0  0  0  0
   -3.6661   -0.7034   -2.8242 H   0  0  0  0  0  0  0  0  0  0  0  0
   -2.9106    1.0759   -4.1681 H   0  0  0  0  0  0  0  0  0  0  0  0
   -1.7751    1.6719   -1.3774 H   0  0  0  0  0  0  0  0  0  0  0  0
   -2.1057    2.8832   -2.6613 H   0  0  0  0  0  0  0  0  0  0  0  0
   -3.4607    1.9380   -1.9854 H   0  0  0  0  0  0  0  0  0  0  0  0
   -0.7514    1.8564   -4.6178 H   0  0  0  0  0  0  0  0  0  0  0  0
   -0.0024    1.0162   -3.2344 H   0  0  0  0  0  0  0  0  0  0  0  0
   -0.5929    0.0690   -4.6587 H   0  0  0  0  0  0  0  0  0  0  0  0
   -0.7418   -1.8528    0.7558 H   0  0  0  0  0  0  0  0  0  0  0  0
   -1.5098   -1.2816    3.0031 H   0  0  0  0  0  0  0  0  0  0  0  0
   -3.5961   -0.0302    3.3395 H   0  0  0  0  0  0  0  0  0  0  0  0
   -4.2445    0.0562   -0.8981 H   0  0  0  0  0  0  0  0  0  0  0  0
   -5.9902   -0.4368    3.0809 H   0  0  0  0  0  0  0  0  0  0  0  0
   -8.1292    0.7372    3.4110 H   0  0  0  0  0  0  0  0  0  0  0  0
   -8.7460    2.6469    1.9575 H   0  0  0  0  0  0  0  0  0  0  0  0
   -7.2016    3.3932    0.1693 H   0  0  0  0  0  0  0  0  0  0  0  0
   -5.0458    2.2543   -0.1658 H   0  0  0  0  0  0  0  0  0  0  0  0
  1  2  1  0
  2  3  1  0
  3  4  1  0
  3  5  1  0
  5  6  1  0
  6  7  1  0
  7  8  2  0
  7  9  2  0
  7 10  1  0
 10 11  2  0
 11 12  1  0
 12 13  2  0
 13 14  1  0
 14 15  2  0
  1 16  1  0
 16 17  2  0
 16 18  1  0
 18 19  1  0
 19 20  1  0
 20 21  1  0
 20 22  1  0
 18 23  1  0
 23 24  2  0
 24 25  1  0
 25 26  2  0
 26 27  1  0
 27 28  2  0
 27 29  1  0
 29 30  2  0
 30 31  1  0
 31 32  2  0
 32 33  1  0
 33 34  2  0
 15 10  1  0
 28 23  1  0
 34 29  1  0
  1 35  1  0
  2 36  1  0
  2 37  1  0
  3 38  1  1
  4 39  1  0
  5 40  1  0
  5 41  1  0
  6 42  1  0
 11 43  1  0
 12 44  1  0
 13 45  1  0
 14 46  1  0
 18 47  1  6
 19 48  1  0
 19 49  1  0
 20 50  1  0
 21 51  1  0
 21 52  1  0
 21 53  1  0
 22 54  1  0
 22 55  1  0
 22 56  1  0
 24 57  1  0
 25 58  1  0
 26 59  1  0
 28 60  1  0
 30 61  1  0
 31 62  1  0
 32 63  1  0
 33 64  1  0
 34 65  1  0
M  END
$$$$
