
     RDKit          3D

 51 54  0  0  0  0  0  0  0  0999 V2000
   -3.5358   -0.9892    0.8015 C   0  0  1  0  0  0  0  0  0  0  0  0
   -4.6701   -0.1646    0.7138 O   0  0  0  0  0  0  0  0  0  0  0  0
   -3.6281   -2.1962   -0.1648 C   0  0  0  0  0  0  0  0  0  0  0  0
   -2.2225   -2.3858   -0.7678 C   0  0  0  0  0  0  0  0  0  0  0  0
   -1.3485   -1.4665    0.0726 C   0  0  1  0  0  0  0  0  0  0  0  0
    0.0527   -1.0539   -0.4200 C   0  0  2  0  0  0  0  0  0  0  0  0
    0.9027   -2.2616   -0.8296 C   0  0  0  0  0  0  0  0  0  0  0  0
    2.2240   -1.7747   -1.4269 C   0  0  0  0  0  0  0  0  0  0  0  0
    2.9237   -0.7619   -0.5504 C   0  0  0  0  0  0  0  0  0  0  0  0
    4.2901   -0.5269   -0.7747 C   0  0  0  0  0  0  0  0  0  0  0  0
    4.9988    0.3763    0.0229 C   0  0  0  0  0  0  0  0  0  0  0  0
    6.3554    0.6061   -0.1958 O   0  0  0  0  0  0  0  0  0  0  0  0
    4.3455    1.0456    1.0559 C   0  0  0  0  0  0  0  0  0  0  0  0
    2.9844    0.8357    1.2811 C   0  0  0  0  0  0  0  0  0  0  0  0
    2.2341   -0.0193    0.4465 C   0  0  0  0  0  0  0  0  0  0  0  0
    0.7582   -0.2943    0.7475 C   0  0  1  0  0  0  0  0  0  0  0  0
   -0.0795    0.9536    1.2105 C   0  0  1  0  0  0  0  0  0  0  0  0
    0.1160    2.1827    0.2835 C   0  0  0  0  0  0  0  0  0  0  0  0
   -0.9009    3.1411    0.4953 O   0  0  0  0  0  0  0  0  0  0  0  0
   -0.7683    4.1858   -0.4418 C   0  0  0  0  0  0  0  0  0  0  0  0
   -1.5751    0.5747    1.4997 C   0  0  0  0  0  0  0  0  0  0  0  0
   -2.2438   -0.2582    0.3758 C   0  0  2  0  0  0  0  0  0  0  0  0
   -2.5655    0.6394   -0.8640 C   0  0  0  0  0  0  0  0  0  0  0  0
   -3.4298   -1.3676    1.8465 H   0  0  0  0  0  0  0  0  0  0  0  0
   -5.4191   -0.6732    1.1207 H   0  0  0  0  0  0  0  0  0  0  0  0
   -3.9402   -3.1064    0.3922 H   0  0  0  0  0  0  0  0  0  0  0  0
   -4.3644   -2.0057   -0.9762 H   0  0  0  0  0  0  0  0  0  0  0  0
   -2.2044   -2.0754   -1.8353 H   0  0  0  0  0  0  0  0  0  0  0  0
   -1.8922   -3.4443   -0.6858 H   0  0  0  0  0  0  0  0  0  0  0  0
   -1.1828   -2.0310    1.0249 H   0  0  0  0  0  0  0  0  0  0  0  0
   -0.0309   -0.4033   -1.3124 H   0  0  0  0  0  0  0  0  0  0  0  0
    1.1007   -2.9149    0.0491 H   0  0  0  0  0  0  0  0  0  0  0  0
    0.3737   -2.8645   -1.5984 H   0  0  0  0  0  0  0  0  0  0  0  0
    2.0313   -1.3110   -2.4189 H   0  0  0  0  0  0  0  0  0  0  0  0
    2.8826   -2.6564   -1.5861 H   0  0  0  0  0  0  0  0  0  0  0  0
    4.8087   -1.0595   -1.5630 H   0  0  0  0  0  0  0  0  0  0  0  0
    6.8604    0.1328   -0.9360 H   0  0  0  0  0  0  0  0  0  0  0  0
    4.8967    1.7248    1.6940 H   0  0  0  0  0  0  0  0  0  0  0  0
    2.5274    1.3462    2.1160 H   0  0  0  0  0  0  0  0  0  0  0  0
    0.7816   -0.9843    1.6221 H   0  0  0  0  0  0  0  0  0  0  0  0
    0.3106    1.2674    2.2031 H   0  0  0  0  0  0  0  0  0  0  0  0
    0.1690    1.8647   -0.7783 H   0  0  0  0  0  0  0  0  0  0  0  0
    1.1002    2.6443    0.5197 H   0  0  0  0  0  0  0  0  0  0  0  0
   -0.9363    3.8162   -1.4777 H   0  0  0  0  0  0  0  0  0  0  0  0
    0.2253    4.6807   -0.3607 H   0  0  0  0  0  0  0  0  0  0  0  0
   -1.5429    4.9509   -0.2296 H   0  0  0  0  0  0  0  0  0  0  0  0
   -1.5837   -0.0272    2.4359 H   0  0  0  0  0  0  0  0  0  0  0  0
   -2.1856    1.4739    1.7277 H   0  0  0  0  0  0  0  0  0  0  0  0
   -1.6801    0.9729   -1.4210 H   0  0  0  0  0  0  0  0  0  0  0  0
   -3.1159    1.5494   -0.5431 H   0  0  0  0  0  0  0  0  0  0  0  0
   -3.2076    0.1128   -1.6003 H   0  0  0  0  0  0  0  0  0  0  0  0
  1  2  1  0
  1  3  1  0
  3  4  1  0
  4  5  1  0
  5  6  1  0
  6  7  1  0
  7  8  1  0
  8  9  1  0
  9 10  2  0
 10 11  1  0
 11 12  1  0
 11 13  2  0
 13 14  1  0
 14 15  2  0
 15 16  1  0
 16 17  1  0
 17 18  1  0
 18 19  1  0
 19 20  1  0
 17 21  1  0
 21 22  1  0
 22 23  1  6
 22  1  1  0
 22  5  1  0
 16  6  1  0
 15  9  1  0
  1 24  1  1
  2 25  1  0
  3 26  1  0
  3 27  1  0
  4 28  1  0
  4 29  1  0
  5 30  1  1
  6 31  1  6
  7 32  1  0
  7 33  1  0
  8 34  1  0
  8 35  1  0
 10 36  1  0
 12 37  1  0
 13 38  1  0
 14 39  1  0
 16 40  1  1
 17 41  1  1
 18 42  1  0
 18 43  1  0
 20 44  1  0
 20 45  1  0
 20 46  1  0
 21 47  1  0
 21 48  1  0
 23 49  1  0
 23 50  1  0
 23 51  1  0
M  END
$$$$
