
     RDKit          3D

 28 27  0  0  0  0  0  0  0  0999 V2000
   -3.9766   -0.3517    0.1754 N   0  0  0  0  0  0  0  0  0  0  0  0
   -5.1855   -0.4475   -0.4279 O   0  0  0  0  0  0  0  0  0  0  0  0
   -2.7866   -0.7463   -0.5127 C   0  0  0  0  0  0  0  0  0  0  0  0
   -2.8579   -1.1510   -1.7049 O   0  0  0  0  0  0  0  0  0  0  0  0
   -1.4455   -0.6259    0.1644 C   0  0  1  0  0  0  0  0  0  0  0  0
   -0.5677   -1.5996   -0.3425 O   0  0  0  0  0  0  0  0  0  0  0  0
   -0.8581    0.7894   -0.0550 C   0  0  2  0  0  0  0  0  0  0  0  0
   -0.3544    0.9161   -1.3623 O   0  0  0  0  0  0  0  0  0  0  0  0
    0.2371    1.1562    0.9842 C   0  0  2  0  0  0  0  0  0  0  0  0
    0.6288    2.4985    0.8312 O   0  0  0  0  0  0  0  0  0  0  0  0
    1.4711    0.2313    0.9862 C   0  0  0  0  0  0  0  0  0  0  0  0
    2.0585    0.1904   -0.2939 O   0  0  0  0  0  0  0  0  0  0  0  0
    3.3506   -0.9223   -0.2616 P   0  0  0  0  0  5  0  0  0  0  0  0
    4.1578   -0.8709   -1.7473 O   0  0  0  0  0  0  0  0  0  0  0  0
    4.4388   -0.5302    0.9749 O   0  0  0  0  0  0  0  0  0  0  0  0
    2.8204   -2.3211   -0.0403 O   0  0  0  0  0  0  0  0  0  0  0  0
   -3.9233   -0.0001    1.1576 H   0  0  0  0  0  0  0  0  0  0  0  0
   -5.3240    0.4338   -0.8601 H   0  0  0  0  0  0  0  0  0  0  0  0
   -1.5916   -0.7886    1.2579 H   0  0  0  0  0  0  0  0  0  0  0  0
   -0.8335   -2.4660    0.0637 H   0  0  0  0  0  0  0  0  0  0  0  0
   -1.6767    1.5343    0.0970 H   0  0  0  0  0  0  0  0  0  0  0  0
   -1.1300    1.0840   -1.9586 H   0  0  0  0  0  0  0  0  0  0  0  0
   -0.2246    1.0744    1.9928 H   0  0  0  0  0  0  0  0  0  0  0  0
    1.0780    2.5857   -0.0496 H   0  0  0  0  0  0  0  0  0  0  0  0
    2.1959    0.6345    1.7291 H   0  0  0  0  0  0  0  0  0  0  0  0
    1.1580   -0.7814    1.3251 H   0  0  0  0  0  0  0  0  0  0  0  0
    4.4136    0.0790   -1.8620 H   0  0  0  0  0  0  0  0  0  0  0  0
    4.7275    0.3953    0.7724 H   0  0  0  0  0  0  0  0  0  0  0  0
  1  2  1  0
  1  3  1  0
  3  4  2  0
  3  5  1  0
  5  6  1  0
  5  7  1  0
  7  8  1  0
  7  9  1  0
  9 10  1  0
  9 11  1  0
 11 12  1  0
 12 13  1  0
 13 14  1  0
 13 15  1  0
 13 16  2  0
  1 17  1  0
  2 18  1  0
  5 19  1  1
  6 20  1  0
  7 21  1  6
  8 22  1  0
  9 23  1  1
 10 24  1  0
 11 25  1  0
 11 26  1  0
 14 27  1  0
 15 28  1  0
M  END
$$$$
