
     RDKit          3D

 39 39  0  0  0  0  0  0  0  0999 V2000
    2.6895   -1.3513    0.0370 C   0  0  2  0  0  0  0  0  0  0  0  0
    2.0034   -2.6833    0.3486 C   0  0  0  0  0  0  0  0  0  0  0  0
    1.6888   -0.3245   -0.2690 N   0  0  0  0  0  0  0  0  0  0  0  0
    0.9570    0.3598    0.7611 C   0  0  0  0  0  0  0  0  0  0  0  0
    1.2089    0.1279    1.9751 O   0  0  0  0  0  0  0  0  0  0  0  0
   -0.1190    1.3624    0.4126 C   0  0  1  0  0  0  0  0  0  0  0  0
    0.5067    2.5617   -0.3283 C   0  0  0  0  0  0  0  0  0  0  0  0
   -0.4589    3.7050   -0.4554 C   0  0  0  0  0  0  0  0  0  0  0  0
   -0.6502    4.4711    0.5269 O   0  0  0  0  0  0  0  0  0  0  0  0
   -1.1845    3.9093   -1.6708 N   0  0  0  0  0  0  0  0  0  0  0  0
   -2.0757    4.9235   -1.7787 O   0  0  0  0  0  0  0  0  0  0  0  0
   -1.2550    0.7093   -0.4092 C   0  0  0  0  0  0  0  0  0  0  0  0
   -1.8589   -0.4748    0.3044 C   0  0  0  0  0  0  0  0  0  0  0  0
   -1.5286   -1.7838   -0.0851 C   0  0  0  0  0  0  0  0  0  0  0  0
   -2.0575   -2.8788    0.6046 C   0  0  0  0  0  0  0  0  0  0  0  0
   -2.9190   -2.6756    1.6860 C   0  0  0  0  0  0  0  0  0  0  0  0
   -3.2520   -1.3766    2.0802 C   0  0  0  0  0  0  0  0  0  0  0  0
   -2.7231   -0.2787    1.3946 C   0  0  0  0  0  0  0  0  0  0  0  0
    3.6475   -1.5057   -1.1111 C   0  0  0  0  0  0  0  0  0  0  0  0
    4.9985   -1.2290   -0.9261 O   0  0  0  0  0  0  0  0  0  0  0  0
    3.2334   -1.8806   -2.2416 O   0  0  0  0  0  0  0  0  0  0  0  0
    3.2751   -1.0386    0.9296 H   0  0  0  0  0  0  0  0  0  0  0  0
    2.7627   -3.4555    0.5965 H   0  0  0  0  0  0  0  0  0  0  0  0
    1.4073   -3.0300   -0.5224 H   0  0  0  0  0  0  0  0  0  0  0  0
    1.3247   -2.5692    1.2202 H   0  0  0  0  0  0  0  0  0  0  0  0
    1.4555   -0.1226   -1.2675 H   0  0  0  0  0  0  0  0  0  0  0  0
   -0.5573    1.7413    1.3644 H   0  0  0  0  0  0  0  0  0  0  0  0
    0.8583    2.2542   -1.3370 H   0  0  0  0  0  0  0  0  0  0  0  0
    1.3966    2.9217    0.2338 H   0  0  0  0  0  0  0  0  0  0  0  0
   -1.0539    3.2579   -2.4770 H   0  0  0  0  0  0  0  0  0  0  0  0
   -1.5541    5.6816   -2.1469 H   0  0  0  0  0  0  0  0  0  0  0  0
   -0.8801    0.4067   -1.4113 H   0  0  0  0  0  0  0  0  0  0  0  0
   -2.0607    1.4539   -0.5863 H   0  0  0  0  0  0  0  0  0  0  0  0
   -0.8595   -1.9559   -0.9186 H   0  0  0  0  0  0  0  0  0  0  0  0
   -1.7973   -3.8848    0.3020 H   0  0  0  0  0  0  0  0  0  0  0  0
   -3.3272   -3.5243    2.2194 H   0  0  0  0  0  0  0  0  0  0  0  0
   -3.9172   -1.2204    2.9196 H   0  0  0  0  0  0  0  0  0  0  0  0
   -2.9819    0.7231    1.7145 H   0  0  0  0  0  0  0  0  0  0  0  0
    5.6579   -1.3261   -1.6890 H   0  0  0  0  0  0  0  0  0  0  0  0
  1  2  1  0
  1  3  1  0
  3  4  1  0
  4  5  2  0
  4  6  1  0
  6  7  1  0
  7  8  1  0
  8  9  2  0
  8 10  1  0
 10 11  1  0
  6 12  1  0
 12 13  1  0
 13 14  2  0
 14 15  1  0
 15 16  2  0
 16 17  1  0
 17 18  2  0
  1 19  1  0
 19 20  1  0
 19 21  2  0
 18 13  1  0
  1 22  1  1
  2 23  1  0
  2 24  1  0
  2 25  1  0
  3 26  1  0
  6 27  1  1
  7 28  1  0
  7 29  1  0
 10 30  1  0
 11 31  1  0
 12 32  1  0
 12 33  1  0
 14 34  1  0
 15 35  1  0
 16 36  1  0
 17 37  1  0
 18 38  1  0
 20 39  1  0
M  END
$$$$
