
     RDKit          3D

 21 23  0  0  0  0  0  0  0  0999 V2000
   -2.3936    0.1037   -0.7785 C   0  0  0  0  0  0  0  0  0  0  0  0
   -2.3837    0.9975    0.4877 C   0  0  0  0  0  0  0  0  0  0  0  0
   -0.9423    1.2325    0.6982 C   0  0  0  0  0  0  0  0  0  0  0  0
   -0.1627    0.5308   -0.1348 C   0  0  0  0  0  0  0  0  0  0  0  0
   -0.9308   -0.3224   -1.0640 C   0  0  0  0  0  0  0  0  0  0  0  0
    1.0265    0.3524    0.5443 C   0  0  0  0  0  0  0  0  0  0  0  0
    0.9323    0.9625    1.7492 N   0  0  0  0  0  0  0  0  0  0  0  0
   -0.2844    1.4859    1.8414 N   0  0  0  0  0  0  0  0  0  0  0  0
    2.1523   -0.4958    0.1390 C   0  0  0  0  0  0  0  0  0  0  0  0
    2.2273   -1.1531   -1.0337 N   0  0  0  0  0  0  0  0  0  0  0  0
    3.3925   -1.7737   -0.9749 N   0  0  0  0  0  0  0  0  0  0  0  0
    4.0055   -1.5152    0.1674 N   0  0  0  0  0  0  0  0  0  0  0  0
    3.2477   -0.7096    0.8937 N   0  0  0  0  0  0  0  0  0  0  0  0
   -2.7874    0.6845   -1.6413 H   0  0  0  0  0  0  0  0  0  0  0  0
   -3.0395   -0.7879   -0.6249 H   0  0  0  0  0  0  0  0  0  0  0  0
   -2.9192    1.9562    0.3209 H   0  0  0  0  0  0  0  0  0  0  0  0
   -2.8123    0.4512    1.3555 H   0  0  0  0  0  0  0  0  0  0  0  0
   -0.6395   -0.1205   -2.1166 H   0  0  0  0  0  0  0  0  0  0  0  0
   -0.7816   -1.3947   -0.8122 H   0  0  0  0  0  0  0  0  0  0  0  0
   -0.6839    1.9004    2.7121 H   0  0  0  0  0  0  0  0  0  0  0  0
    3.7770   -2.3846   -1.7286 H   0  0  0  0  0  0  0  0  0  0  0  0
  1  2  1  0
  2  3  1  0
  3  4  2  0
  4  5  1  0
  4  6  1  0
  6  7  2  0
  7  8  1  0
  6  9  1  0
  9 10  2  0
 10 11  1  0
 11 12  1  0
 12 13  2  0
  5  1  1  0
 13  9  1  0
  8  3  1  0
  1 14  1  0
  1 15  1  0
  2 16  1  0
  2 17  1  0
  5 18  1  0
  5 19  1  0
  8 20  1  0
 11 21  1  0
M  END
$$$$
