
     RDKit          3D

 29 31  0  0  0  0  0  0  0  0999 V2000
    5.6028    2.7329    0.1148 Cl  0  0  0  0  0  0  0  0  0  0  0  0
    4.1631    1.7379    0.0024 C   0  0  0  0  0  0  0  0  0  0  0  0
    3.5837    1.4765   -1.2629 C   0  0  0  0  0  0  0  0  0  0  0  0
    2.4278    0.6796   -1.3668 C   0  0  0  0  0  0  0  0  0  0  0  0
    1.8916    0.1702   -0.1884 C   0  0  0  0  0  0  0  0  0  0  0  0
    0.8391   -0.5828   -0.0260 O   0  0  0  0  0  0  0  0  0  0  0  0
    0.7517   -0.7883    1.2781 C   0  0  0  0  0  0  0  0  0  0  0  0
   -0.2822   -1.5660    1.8821 N   0  0  0  0  0  0  0  0  0  0  0  0
   -1.5456   -2.2688    0.9303 S   0  0  0  0  0  6  0  0  0  0  0  0
   -0.9786   -3.4100    0.1330 O   0  0  0  0  0  0  0  0  0  0  0  0
   -2.6218   -2.7999    1.8347 O   0  0  0  0  0  0  0  0  0  0  0  0
   -2.2407   -1.0419   -0.1362 C   0  0  0  0  0  0  0  0  0  0  0  0
   -2.1787   -1.2196   -1.5278 C   0  0  0  0  0  0  0  0  0  0  0  0
   -2.6971   -0.2484   -2.3899 C   0  0  0  0  0  0  0  0  0  0  0  0
   -2.6083   -0.4791   -4.1265 Cl  0  0  0  0  0  0  0  0  0  0  0  0
   -3.2820    0.9078   -1.8682 C   0  0  0  0  0  0  0  0  0  0  0  0
   -3.3479    1.0953   -0.4860 C   0  0  0  0  0  0  0  0  0  0  0  0
   -2.8298    0.1294    0.3851 C   0  0  0  0  0  0  0  0  0  0  0  0
   -2.9313    0.4285    2.1168 Cl  0  0  0  0  0  0  0  0  0  0  0  0
    1.7337   -0.1853    1.9982 N   0  0  0  0  0  0  0  0  0  0  0  0
    2.4455    0.4193    1.0314 C   0  0  0  0  0  0  0  0  0  0  0  0
    3.5882    1.2027    1.1729 C   0  0  0  0  0  0  0  0  0  0  0  0
    4.0288    1.8902   -2.1587 H   0  0  0  0  0  0  0  0  0  0  0  0
    1.9726    0.4715   -2.3262 H   0  0  0  0  0  0  0  0  0  0  0  0
   -0.2935   -1.6959    2.9179 H   0  0  0  0  0  0  0  0  0  0  0  0
   -1.7231   -2.1073   -1.9469 H   0  0  0  0  0  0  0  0  0  0  0  0
   -3.6839    1.6625   -2.5322 H   0  0  0  0  0  0  0  0  0  0  0  0
   -3.8007    1.9962   -0.0916 H   0  0  0  0  0  0  0  0  0  0  0  0
    4.0169    1.3927    2.1486 H   0  0  0  0  0  0  0  0  0  0  0  0
  1  2  1  0
  2  3  2  0
  3  4  1  0
  4  5  2  0
  5  6  1  0
  6  7  1  0
  7  8  1  0
  8  9  1  0
  9 10  2  0
  9 11  2  0
  9 12  1  0
 12 13  2  0
 13 14  1  0
 14 15  1  0
 14 16  2  0
 16 17  1  0
 17 18  2  0
 18 19  1  0
  7 20  2  0
 20 21  1  0
 21 22  2  0
 22  2  1  0
 21  5  1  0
 18 12  1  0
  3 23  1  0
  4 24  1  0
  8 25  1  0
 13 26  1  0
 16 27  1  0
 17 28  1  0
 22 29  1  0
M  END
$$$$
