
     RDKit          3D

 27 26  0  0  0  0  0  0  0  0999 V2000
    3.7764    0.5821    0.0492 C   0  0  0  0  0  0  0  0  0  0  0  0
    3.0875   -0.7501    0.3421 C   0  0  0  0  0  0  0  0  0  0  0  0
    1.8600   -1.0022   -0.5513 C   0  0  0  0  0  0  0  0  0  0  0  0
    0.7219    0.0214   -0.3881 C   0  0  0  0  0  0  0  0  0  0  0  0
    0.1181    0.0244    1.0234 C   0  0  0  0  0  0  0  0  0  0  0  0
   -1.1054    0.9020    1.0777 C   0  0  0  0  0  0  0  0  0  0  0  0
   -0.9881    2.1048    0.8941 O   0  0  0  0  0  0  0  0  0  0  0  0
   -2.4624    0.3326    1.3880 C   0  0  0  0  0  0  0  0  0  0  0  0
   -3.5437    0.4318   -0.0718 P   0  0  0  0  0  5  0  0  0  0  0  0
   -2.8539   -0.4401   -1.3476 O   0  0  0  0  0  0  0  0  0  0  0  0
   -5.0563   -0.2247    0.3070 O   0  0  0  0  0  0  0  0  0  0  0  0
   -3.7165    1.8766   -0.4825 O   0  0  0  0  0  0  0  0  0  0  0  0
    3.1424    1.4314    0.3783 H   0  0  0  0  0  0  0  0  0  0  0  0
    4.7347    0.6325    0.6078 H   0  0  0  0  0  0  0  0  0  0  0  0
    3.9938    0.6780   -1.0359 H   0  0  0  0  0  0  0  0  0  0  0  0
    3.8196   -1.5663    0.1594 H   0  0  0  0  0  0  0  0  0  0  0  0
    2.8081   -0.8002    1.4153 H   0  0  0  0  0  0  0  0  0  0  0  0
    1.4649   -2.0182   -0.3325 H   0  0  0  0  0  0  0  0  0  0  0  0
    2.1842   -1.0043   -1.6149 H   0  0  0  0  0  0  0  0  0  0  0  0
    1.0796    1.0390   -0.6531 H   0  0  0  0  0  0  0  0  0  0  0  0
   -0.0747   -0.2434   -1.1172 H   0  0  0  0  0  0  0  0  0  0  0  0
    0.8572    0.4153    1.7539 H   0  0  0  0  0  0  0  0  0  0  0  0
   -0.1382   -1.0164    1.3166 H   0  0  0  0  0  0  0  0  0  0  0  0
   -2.3870   -0.7308    1.6970 H   0  0  0  0  0  0  0  0  0  0  0  0
   -2.9214    0.9017    2.2235 H   0  0  0  0  0  0  0  0  0  0  0  0
   -3.5250   -0.3975   -2.0747 H   0  0  0  0  0  0  0  0  0  0  0  0
   -4.8757   -1.1793    0.4992 H   0  0  0  0  0  0  0  0  0  0  0  0
  1  2  1  0
  2  3  1  0
  3  4  1  0
  4  5  1  0
  5  6  1  0
  6  7  2  0
  6  8  1  0
  8  9  1  0
  9 10  1  0
  9 11  1  0
  9 12  2  0
  1 13  1  0
  1 14  1  0
  1 15  1  0
  2 16  1  0
  2 17  1  0
  3 18  1  0
  3 19  1  0
  4 20  1  0
  4 21  1  0
  5 22  1  0
  5 23  1  0
  8 24  1  0
  8 25  1  0
 10 26  1  0
 11 27  1  0
M  END
$$$$
