
     RDKit          3D

 45 46  0  0  0  0  0  0  0  0999 V2000
    3.0573    1.0770   -2.1735 C   0  0  0  0  0  0  0  0  0  0  0  0
    2.6910    0.3681   -0.8732 C   0  0  0  0  0  0  0  0  0  0  0  0
    2.7381    1.3374    0.3150 C   0  0  0  0  0  0  0  0  0  0  0  0
    2.4648    0.6479    1.6589 C   0  0  0  0  0  0  0  0  0  0  0  0
    1.0356    0.3808    1.8470 N   0  0  0  0  0  0  0  0  0  0  0  0
    0.3073   -0.7224    1.2688 C   0  0  0  0  0  0  0  0  0  0  0  0
   -1.0859   -0.6101    1.0663 C   0  0  0  0  0  0  0  0  0  0  0  0
   -1.7535    0.5897    1.3468 O   0  0  0  0  0  0  0  0  0  0  0  0
   -1.4984    1.8002    0.6859 C   0  0  0  0  0  0  0  0  0  0  0  0
   -1.9213    2.9948    1.2815 C   0  0  0  0  0  0  0  0  0  0  0  0
   -1.6778    4.2214    0.6555 C   0  0  0  0  0  0  0  0  0  0  0  0
   -1.0178    4.2604   -0.5759 C   0  0  0  0  0  0  0  0  0  0  0  0
   -0.6075    3.0723   -1.1863 C   0  0  0  0  0  0  0  0  0  0  0  0
   -0.8499    1.8447   -0.5629 C   0  0  0  0  0  0  0  0  0  0  0  0
   -1.8215   -1.7072    0.5877 C   0  0  0  0  0  0  0  0  0  0  0  0
   -1.1658   -2.9072    0.2866 C   0  0  0  0  0  0  0  0  0  0  0  0
    0.2200   -3.0302    0.4622 C   0  0  0  0  0  0  0  0  0  0  0  0
    0.9474   -1.9372    0.9610 C   0  0  0  0  0  0  0  0  0  0  0  0
    0.9017   -4.3038    0.1354 C   0  0  0  0  0  0  0  0  0  0  0  0
    0.1720   -5.3875   -0.3469 O   0  0  0  0  0  0  0  0  0  0  0  0
    2.1479   -4.4197    0.2884 O   0  0  0  0  0  0  0  0  0  0  0  0
   -3.5655   -1.5649    0.3460 S   0  0  0  0  0  6  0  0  0  0  0  0
   -4.2040   -2.9912   -0.3966 N   0  0  0  0  0  0  0  0  0  0  0  0
   -3.8525   -0.3859   -0.5413 O   0  0  0  0  0  0  0  0  0  0  0  0
   -4.2336   -1.3657    1.6771 O   0  0  0  0  0  0  0  0  0  0  0  0
    2.3458    1.9065   -2.3735 H   0  0  0  0  0  0  0  0  0  0  0  0
    3.0077    0.3560   -3.0166 H   0  0  0  0  0  0  0  0  0  0  0  0
    4.0892    1.4840   -2.1147 H   0  0  0  0  0  0  0  0  0  0  0  0
    3.4035   -0.4686   -0.7055 H   0  0  0  0  0  0  0  0  0  0  0  0
    1.6722   -0.0530   -0.9854 H   0  0  0  0  0  0  0  0  0  0  0  0
    3.7520    1.7922    0.3617 H   0  0  0  0  0  0  0  0  0  0  0  0
    2.0066    2.1610    0.1651 H   0  0  0  0  0  0  0  0  0  0  0  0
    3.0768   -0.2675    1.7818 H   0  0  0  0  0  0  0  0  0  0  0  0
    2.7943    1.3425    2.4622 H   0  0  0  0  0  0  0  0  0  0  0  0
    0.5108    1.0627    2.4400 H   0  0  0  0  0  0  0  0  0  0  0  0
   -2.4306    2.9722    2.2365 H   0  0  0  0  0  0  0  0  0  0  0  0
   -2.0003    5.1416    1.1253 H   0  0  0  0  0  0  0  0  0  0  0  0
   -0.8295    5.2102   -1.0594 H   0  0  0  0  0  0  0  0  0  0  0  0
   -0.1047    3.1020   -2.1443 H   0  0  0  0  0  0  0  0  0  0  0  0
   -0.5438    0.9344   -1.0595 H   0  0  0  0  0  0  0  0  0  0  0  0
   -1.7357   -3.7481   -0.0849 H   0  0  0  0  0  0  0  0  0  0  0  0
    2.0083   -2.0485    1.1244 H   0  0  0  0  0  0  0  0  0  0  0  0
    0.6287   -6.2627   -0.5741 H   0  0  0  0  0  0  0  0  0  0  0  0
   -3.8411   -3.0153   -1.3760 H   0  0  0  0  0  0  0  0  0  0  0  0
   -5.2386   -2.8634   -0.4641 H   0  0  0  0  0  0  0  0  0  0  0  0
  1  2  1  0
  2  3  1  0
  3  4  1  0
  4  5  1  0
  5  6  1  0
  6  7  2  0
  7  8  1  0
  8  9  1  0
  9 10  2  0
 10 11  1  0
 11 12  2  0
 12 13  1  0
 13 14  2  0
  7 15  1  0
 15 16  2  0
 16 17  1  0
 17 18  2  0
 17 19  1  0
 19 20  1  0
 19 21  2  0
 15 22  1  0
 22 23  1  0
 22 24  2  0
 22 25  2  0
 18  6  1  0
 14  9  1  0
  1 26  1  0
  1 27  1  0
  1 28  1  0
  2 29  1  0
  2 30  1  0
  3 31  1  0
  3 32  1  0
  4 33  1  0
  4 34  1  0
  5 35  1  0
 10 36  1  0
 11 37  1  0
 12 38  1  0
 13 39  1  0
 14 40  1  0
 16 41  1  0
 18 42  1  0
 20 43  1  0
 23 44  1  0
 23 45  1  0
M  END
$$$$
