
     RDKit          3D

 52 53  0  0  0  0  0  0  0  0999 V2000
    7.1895    1.3430    0.7747 C   0  0  0  0  0  0  0  0  0  0  0  0
    5.8576    0.8819    0.9796 O   0  0  0  0  0  0  0  0  0  0  0  0
    5.0997    0.1630    0.0417 C   0  0  0  0  0  0  0  0  0  0  0  0
    3.7750   -0.2446    0.3588 C   0  0  0  0  0  0  0  0  0  0  0  0
    3.1523    0.0439    1.5899 O   0  0  0  0  0  0  0  0  0  0  0  0
    3.6968    0.7989    2.6662 C   0  0  0  0  0  0  0  0  0  0  0  0
    3.0283   -0.9741   -0.5962 C   0  0  0  0  0  0  0  0  0  0  0  0
    1.6110   -1.4237   -0.3199 C   0  0  0  0  0  0  0  0  0  0  0  0
    0.6616   -0.7097   -1.1986 N   0  0  0  0  0  0  0  0  0  0  0  0
    0.4404    0.6963   -0.7627 C   0  0  0  0  0  0  0  0  0  0  0  0
   -0.8512    0.8692    0.0482 C   0  0  0  0  0  0  0  0  0  0  0  0
   -2.0930    0.4563   -0.7747 C   0  0  0  0  0  0  0  0  0  0  0  0
   -1.7524   -0.6200   -1.8326 C   0  0  0  0  0  0  0  0  0  0  0  0
   -0.5858   -1.4964   -1.3649 C   0  0  0  0  0  0  0  0  0  0  0  0
   -3.1483   -0.0181    0.1280 N   0  0  0  0  0  0  0  0  0  0  0  0
   -3.8990    0.8753    0.9629 C   0  0  0  0  0  0  0  0  0  0  0  0
   -3.7006    2.1193    0.9069 O   0  0  0  0  0  0  0  0  0  0  0  0
   -4.9609    0.3380    1.8740 C   0  0  0  0  0  0  0  0  0  0  0  0
   -6.2648    0.1149    1.1030 C   0  0  0  0  0  0  0  0  0  0  0  0
   -7.3572   -0.4356    2.0204 C   0  0  0  0  0  0  0  0  0  0  0  0
   -8.8911   -0.7165    1.0824 S   0  0  0  0  0  0  0  0  0  0  0  0
    3.5926   -1.2815   -1.8418 C   0  0  0  0  0  0  0  0  0  0  0  0
    4.8884   -0.8790   -2.1505 C   0  0  0  0  0  0  0  0  0  0  0  0
    5.6388   -1.3072   -3.8544 Br  0  0  0  0  0  0  0  0  0  0  0  0
    5.6379   -0.1638   -1.2190 C   0  0  0  0  0  0  0  0  0  0  0  0
    7.8683    0.4829    0.5943 H   0  0  0  0  0  0  0  0  0  0  0  0
    7.5304    1.8783    1.6843 H   0  0  0  0  0  0  0  0  0  0  0  0
    7.2227    2.0464   -0.0839 H   0  0  0  0  0  0  0  0  0  0  0  0
    3.9347    1.8304    2.3312 H   0  0  0  0  0  0  0  0  0  0  0  0
    4.5965    0.2931    3.0750 H   0  0  0  0  0  0  0  0  0  0  0  0
    2.9408    0.8642    3.4751 H   0  0  0  0  0  0  0  0  0  0  0  0
    1.5735   -2.5191   -0.5194 H   0  0  0  0  0  0  0  0  0  0  0  0
    1.3233   -1.2963    0.7467 H   0  0  0  0  0  0  0  0  0  0  0  0
    1.2934    1.0857   -0.1661 H   0  0  0  0  0  0  0  0  0  0  0  0
    0.3831    1.3397   -1.6671 H   0  0  0  0  0  0  0  0  0  0  0  0
   -0.7738    0.2482    0.9681 H   0  0  0  0  0  0  0  0  0  0  0  0
   -0.9491    1.9298    0.3657 H   0  0  0  0  0  0  0  0  0  0  0  0
   -2.4714    1.3458   -1.3269 H   0  0  0  0  0  0  0  0  0  0  0  0
   -2.6388   -1.2531   -2.0556 H   0  0  0  0  0  0  0  0  0  0  0  0
   -1.4613   -0.1243   -2.7851 H   0  0  0  0  0  0  0  0  0  0  0  0
   -0.4107   -2.2901   -2.1228 H   0  0  0  0  0  0  0  0  0  0  0  0
   -0.8778   -1.9945   -0.4113 H   0  0  0  0  0  0  0  0  0  0  0  0
   -3.3688   -1.0392    0.1743 H   0  0  0  0  0  0  0  0  0  0  0  0
   -5.1334    1.0557    2.7060 H   0  0  0  0  0  0  0  0  0  0  0  0
   -4.6126   -0.6213    2.3150 H   0  0  0  0  0  0  0  0  0  0  0  0
   -6.6039    1.0798    0.6656 H   0  0  0  0  0  0  0  0  0  0  0  0
   -6.0871   -0.6062    0.2747 H   0  0  0  0  0  0  0  0  0  0  0  0
   -7.5641    0.2803    2.8447 H   0  0  0  0  0  0  0  0  0  0  0  0
   -7.0312   -1.4029    2.4586 H   0  0  0  0  0  0  0  0  0  0  0  0
   -9.1094    0.6589    0.8733 H   0  0  0  0  0  0  0  0  0  0  0  0
    3.0193   -1.8352   -2.5758 H   0  0  0  0  0  0  0  0  0  0  0  0
    6.6416    0.1334   -1.4888 H   0  0  0  0  0  0  0  0  0  0  0  0
  1  2  1  0
  2  3  1  0
  3  4  2  0
  4  5  1  0
  5  6  1  0
  4  7  1  0
  7  8  1  0
  8  9  1  0
  9 10  1  0
 10 11  1  0
 11 12  1  0
 12 13  1  0
 13 14  1  0
 12 15  1  0
 15 16  1  0
 16 17  2  0
 16 18  1  0
 18 19  1  0
 19 20  1  0
 20 21  1  0
  7 22  2  0
 22 23  1  0
 23 24  1  0
 23 25  2  0
 25  3  1  0
 14  9  1  0
  1 26  1  0
  1 27  1  0
  1 28  1  0
  6 29  1  0
  6 30  1  0
  6 31  1  0
  8 32  1  0
  8 33  1  0
 10 34  1  0
 10 35  1  0
 11 36  1  0
 11 37  1  0
 12 38  1  0
 13 39  1  0
 13 40  1  0
 14 41  1  0
 14 42  1  0
 15 43  1  0
 18 44  1  0
 18 45  1  0
 19 46  1  0
 19 47  1  0
 20 48  1  0
 20 49  1  0
 21 50  1  0
 22 51  1  0
 25 52  1  0
M  END
$$$$
