
     RDKit          3D

 54 54  0  0  0  0  0  0  0  0999 V2000
   -5.9843   -2.3831   -0.9471 N   0  0  0  0  0  0  0  0  0  0  0  0
   -4.9305   -3.0668   -0.1914 C   0  0  1  0  0  0  0  0  0  0  0  0
   -3.6969   -2.1657    0.0379 C   0  0  0  0  0  0  0  0  0  0  0  0
   -2.9821   -1.8067   -1.2711 C   0  0  0  0  0  0  0  0  0  0  0  0
   -1.7282   -1.0362   -0.9866 C   0  0  0  0  0  0  0  0  0  0  0  0
   -0.6209   -1.6394   -0.9632 O   0  0  0  0  0  0  0  0  0  0  0  0
   -1.7971    0.3683   -0.6992 N   0  0  0  0  0  0  0  0  0  0  0  0
   -0.6005    1.1686   -0.4204 C   0  0  1  0  0  0  0  0  0  0  0  0
    0.0974    1.5416   -1.7384 C   0  0  0  0  0  0  0  0  0  0  0  0
    1.6921    2.3925   -1.4362 S   0  0  0  0  0  0  0  0  0  0  0  0
    2.7287    0.8757   -1.3455 C   0  0  1  0  0  0  0  0  0  0  0  0
    2.8572    0.3112   -2.6231 O   0  0  0  0  0  0  0  0  0  0  0  0
    4.0610    1.1634   -0.7868 N   0  0  0  0  0  0  0  0  0  0  0  0
    4.4525    2.4567   -0.6497 O   0  0  0  0  0  0  0  0  0  0  0  0
    4.9580    0.1110   -0.3539 C   0  0  0  0  0  0  0  0  0  0  0  0
    4.6591   -1.2530   -0.5639 C   0  0  0  0  0  0  0  0  0  0  0  0
    5.5422   -2.2490   -0.1363 C   0  0  0  0  0  0  0  0  0  0  0  0
    6.7337   -1.9045    0.5047 C   0  0  0  0  0  0  0  0  0  0  0  0
    8.0619   -3.4114    1.1475 I   0  0  0  0  0  0  0  0  0  0  0  0
    7.0443   -0.5603    0.7187 C   0  0  0  0  0  0  0  0  0  0  0  0
    6.1656    0.4402    0.2935 C   0  0  0  0  0  0  0  0  0  0  0  0
   -0.9728    2.4048    0.3612 C   0  0  0  0  0  0  0  0  0  0  0  0
   -1.8313    3.2038   -0.1047 O   0  0  0  0  0  0  0  0  0  0  0  0
   -0.3355    2.6858    1.6164 N   0  0  0  0  0  0  0  0  0  0  0  0
   -0.6753    3.8560    2.4212 C   0  0  0  0  0  0  0  0  0  0  0  0
   -2.0169    3.6743    3.0552 C   0  0  0  0  0  0  0  0  0  0  0  0
   -3.1246    4.3406    2.5409 O   0  0  0  0  0  0  0  0  0  0  0  0
   -2.1495    2.8952    4.0366 O   0  0  0  0  0  0  0  0  0  0  0  0
   -5.4836   -3.5265    1.1263 C   0  0  0  0  0  0  0  0  0  0  0  0
   -5.3494   -4.8583    1.5066 O   0  0  0  0  0  0  0  0  0  0  0  0
   -6.0501   -2.7073    1.8995 O   0  0  0  0  0  0  0  0  0  0  0  0
   -5.6966   -2.3125   -1.9496 H   0  0  0  0  0  0  0  0  0  0  0  0
   -6.1121   -1.4110   -0.5813 H   0  0  0  0  0  0  0  0  0  0  0  0
   -4.6128   -3.9700   -0.7597 H   0  0  0  0  0  0  0  0  0  0  0  0
   -2.9792   -2.7067    0.6952 H   0  0  0  0  0  0  0  0  0  0  0  0
   -4.0005   -1.2329    0.5636 H   0  0  0  0  0  0  0  0  0  0  0  0
   -2.7284   -2.7338   -1.8304 H   0  0  0  0  0  0  0  0  0  0  0  0
   -3.6429   -1.1860   -1.9123 H   0  0  0  0  0  0  0  0  0  0  0  0
   -2.7330    0.8333   -0.7363 H   0  0  0  0  0  0  0  0  0  0  0  0
    0.0925    0.5600    0.1987 H   0  0  0  0  0  0  0  0  0  0  0  0
   -0.5551    2.2215   -2.3270 H   0  0  0  0  0  0  0  0  0  0  0  0
    0.2606    0.6337   -2.3567 H   0  0  0  0  0  0  0  0  0  0  0  0
    2.2141    0.1524   -0.6802 H   0  0  0  0  0  0  0  0  0  0  0  0
    3.3289    0.9801   -3.1845 H   0  0  0  0  0  0  0  0  0  0  0  0
    4.9068    2.6783   -1.5029 H   0  0  0  0  0  0  0  0  0  0  0  0
    3.7506   -1.5623   -1.0601 H   0  0  0  0  0  0  0  0  0  0  0  0
    5.2991   -3.2902   -0.3052 H   0  0  0  0  0  0  0  0  0  0  0  0
    7.9669   -0.2891    1.2154 H   0  0  0  0  0  0  0  0  0  0  0  0
    6.4323    1.4729    0.4761 H   0  0  0  0  0  0  0  0  0  0  0  0
    0.4163    2.0483    1.9635 H   0  0  0  0  0  0  0  0  0  0  0  0
    0.0859    3.9899    3.2199 H   0  0  0  0  0  0  0  0  0  0  0  0
   -0.6662    4.7688    1.7874 H   0  0  0  0  0  0  0  0  0  0  0  0
   -4.0422    4.2167    2.9517 H   0  0  0  0  0  0  0  0  0  0  0  0
   -5.7090   -5.1833    2.3961 H   0  0  0  0  0  0  0  0  0  0  0  0
  1  2  1  0
  2  3  1  0
  3  4  1  0
  4  5  1  0
  5  6  2  0
  5  7  1  0
  7  8  1  0
  8  9  1  0
  9 10  1  0
 10 11  1  0
 11 12  1  0
 11 13  1  0
 13 14  1  0
 13 15  1  0
 15 16  2  0
 16 17  1  0
 17 18  2  0
 18 19  1  0
 18 20  1  0
 20 21  2  0
  8 22  1  0
 22 23  2  0
 22 24  1  0
 24 25  1  0
 25 26  1  0
 26 27  1  0
 26 28  2  0
  2 29  1  0
 29 30  1  0
 29 31  2  0
 21 15  1  0
  1 32  1  0
  1 33  1  0
  2 34  1  6
  3 35  1  0
  3 36  1  0
  4 37  1  0
  4 38  1  0
  7 39  1  0
  8 40  1  1
  9 41  1  0
  9 42  1  0
 11 43  1  1
 12 44  1  0
 14 45  1  0
 16 46  1  0
 17 47  1  0
 20 48  1  0
 21 49  1  0
 24 50  1  0
 25 51  1  0
 25 52  1  0
 27 53  1  0
 30 54  1  0
M  END
$$$$
