
     RDKit          3D

 36 38  0  0  0  0  0  0  0  0999 V2000
    6.0759   -1.6523    1.3106 C   0  0  0  0  0  0  0  0  0  0  0  0
    4.8160   -1.4023    1.9251 O   0  0  0  0  0  0  0  0  0  0  0  0
    3.6566   -1.0206    1.2321 C   0  0  0  0  0  0  0  0  0  0  0  0
    2.4799   -0.8054    1.9635 C   0  0  0  0  0  0  0  0  0  0  0  0
    2.4905   -0.9699    3.3477 O   0  0  0  0  0  0  0  0  0  0  0  0
    1.3011   -0.4250    1.3071 C   0  0  0  0  0  0  0  0  0  0  0  0
    1.2814   -0.2648   -0.0883 C   0  0  0  0  0  0  0  0  0  0  0  0
    2.4640   -0.4660   -0.8160 C   0  0  0  0  0  0  0  0  0  0  0  0
    3.6404   -0.8458   -0.1647 C   0  0  0  0  0  0  0  0  0  0  0  0
    0.0217    0.1767   -0.7927 C   0  0  2  0  0  0  0  0  0  0  0  0
   -0.1870    1.6895   -0.6348 C   0  0  0  0  0  0  0  0  0  0  0  0
   -1.5220    2.0636   -1.2065 C   0  0  0  0  0  0  0  0  0  0  0  0
   -1.6092    3.0611   -1.9702 O   0  0  0  0  0  0  0  0  0  0  0  0
   -2.6942    1.2053   -0.9051 C   0  0  0  0  0  0  0  0  0  0  0  0
   -4.0442    1.6236   -1.0421 C   0  0  0  0  0  0  0  0  0  0  0  0
   -4.4082    2.9285   -1.3820 O   0  0  0  0  0  0  0  0  0  0  0  0
   -5.0769    0.7106   -0.7955 C   0  0  0  0  0  0  0  0  0  0  0  0
   -4.7957   -0.5893   -0.3610 C   0  0  0  0  0  0  0  0  0  0  0  0
   -5.8263   -1.4894   -0.0993 O   0  0  0  0  0  0  0  0  0  0  0  0
   -3.4714   -0.9883   -0.1803 C   0  0  0  0  0  0  0  0  0  0  0  0
   -2.4243   -0.1068   -0.4586 C   0  0  0  0  0  0  0  0  0  0  0  0
   -1.1040   -0.5427   -0.2808 O   0  0  0  0  0  0  0  0  0  0  0  0
    5.9876   -2.4878    0.5845 H   0  0  0  0  0  0  0  0  0  0  0  0
    6.4391   -0.7365    0.7980 H   0  0  0  0  0  0  0  0  0  0  0  0
    6.8101   -1.9368    2.0918 H   0  0  0  0  0  0  0  0  0  0  0  0
    1.6580   -0.8218    3.9062 H   0  0  0  0  0  0  0  0  0  0  0  0
    0.4015   -0.2519    1.8851 H   0  0  0  0  0  0  0  0  0  0  0  0
    2.4773   -0.3283   -1.8902 H   0  0  0  0  0  0  0  0  0  0  0  0
    4.5326   -0.9977   -0.7566 H   0  0  0  0  0  0  0  0  0  0  0  0
    0.1016   -0.0520   -1.8796 H   0  0  0  0  0  0  0  0  0  0  0  0
    0.6263    2.2382   -1.1590 H   0  0  0  0  0  0  0  0  0  0  0  0
   -0.1713    1.9720    0.4402 H   0  0  0  0  0  0  0  0  0  0  0  0
   -3.7690    3.7097   -1.3872 H   0  0  0  0  0  0  0  0  0  0  0  0
   -6.1064    1.0253   -0.9140 H   0  0  0  0  0  0  0  0  0  0  0  0
   -6.7988   -1.2307   -0.2184 H   0  0  0  0  0  0  0  0  0  0  0  0
   -3.2532   -1.9918    0.1632 H   0  0  0  0  0  0  0  0  0  0  0  0
  1  2  1  0
  2  3  1  0
  3  4  2  0
  4  5  1  0
  4  6  1  0
  6  7  2  0
  7  8  1  0
  8  9  2  0
  7 10  1  0
 10 11  1  0
 11 12  1  0
 12 13  2  0
 12 14  1  0
 14 15  2  0
 15 16  1  0
 15 17  1  0
 17 18  2  0
 18 19  1  0
 18 20  1  0
 20 21  2  0
 21 22  1  0
  9  3  1  0
 22 10  1  0
 21 14  1  0
  1 23  1  0
  1 24  1  0
  1 25  1  0
  5 26  1  0
  6 27  1  0
  8 28  1  0
  9 29  1  0
 10 30  1  6
 11 31  1  0
 11 32  1  0
 16 33  1  0
 17 34  1  0
 19 35  1  0
 20 36  1  0
M  END
$$$$
