
     RDKit          3D

 30 31  0  0  0  0  0  0  0  0999 V2000
    1.1966   -2.8871    0.0037 C   0  0  0  0  0  0  0  0  0  0  0  0
   -0.0375   -2.0315    0.3088 C   0  0  0  0  0  0  0  0  0  0  0  0
    0.1182   -0.5411   -0.0930 C   0  0  0  0  0  0  0  0  0  0  0  0
    0.5600   -0.4462   -1.4901 N   0  0  0  0  0  0  0  0  0  0  0  0
    1.8112    0.2246   -1.5220 C   0  0  0  0  0  0  0  0  0  0  0  0
    2.4191    0.5021   -2.5894 O   0  0  0  0  0  0  0  0  0  0  0  0
    2.2955    0.5568   -0.2338 N   0  0  0  0  0  0  0  0  0  0  0  0
    3.2991    1.5702    0.0653 C   0  0  0  0  0  0  0  0  0  0  0  0
    1.2595    0.1268    0.6426 C   0  0  0  0  0  0  0  0  0  0  0  0
    1.3080    0.2906    1.8916 O   0  0  0  0  0  0  0  0  0  0  0  0
   -1.1824    0.2354    0.1387 C   0  0  0  0  0  0  0  0  0  0  0  0
   -1.8213    0.9520   -0.8990 C   0  0  0  0  0  0  0  0  0  0  0  0
   -3.0029    1.6588   -0.6557 C   0  0  0  0  0  0  0  0  0  0  0  0
   -3.5644    1.6705    0.6211 C   0  0  0  0  0  0  0  0  0  0  0  0
   -2.9436    0.9785    1.6607 C   0  0  0  0  0  0  0  0  0  0  0  0
   -1.7624    0.2696    1.4255 C   0  0  0  0  0  0  0  0  0  0  0  0
    1.0135   -3.9298    0.3385 H   0  0  0  0  0  0  0  0  0  0  0  0
    1.4041   -2.9051   -1.0867 H   0  0  0  0  0  0  0  0  0  0  0  0
    2.0866   -2.4992    0.5423 H   0  0  0  0  0  0  0  0  0  0  0  0
   -0.2485   -2.1164    1.3959 H   0  0  0  0  0  0  0  0  0  0  0  0
   -0.9052   -2.4648   -0.2353 H   0  0  0  0  0  0  0  0  0  0  0  0
    0.0717   -0.8532   -2.3194 H   0  0  0  0  0  0  0  0  0  0  0  0
    2.8417    2.5794   -0.0027 H   0  0  0  0  0  0  0  0  0  0  0  0
    4.1385    1.4972   -0.6576 H   0  0  0  0  0  0  0  0  0  0  0  0
    3.6992    1.4162    1.0894 H   0  0  0  0  0  0  0  0  0  0  0  0
   -1.4168    0.9784   -1.9009 H   0  0  0  0  0  0  0  0  0  0  0  0
   -3.4827    2.2015   -1.4600 H   0  0  0  0  0  0  0  0  0  0  0  0
   -4.4786    2.2197    0.8058 H   0  0  0  0  0  0  0  0  0  0  0  0
   -3.3764    0.9934    2.6527 H   0  0  0  0  0  0  0  0  0  0  0  0
   -1.2997   -0.2471    2.2555 H   0  0  0  0  0  0  0  0  0  0  0  0
  1  2  1  0
  2  3  1  0
  3  4  1  0
  4  5  1  0
  5  6  2  0
  5  7  1  0
  7  8  1  0
  7  9  1  0
  9 10  2  0
  3 11  1  0
 11 12  2  0
 12 13  1  0
 13 14  2  0
 14 15  1  0
 15 16  2  0
  9  3  1  0
 16 11  1  0
  1 17  1  0
  1 18  1  0
  1 19  1  0
  2 20  1  0
  2 21  1  0
  4 22  1  0
  8 23  1  0
  8 24  1  0
  8 25  1  0
 12 26  1  0
 13 27  1  0
 14 28  1  0
 15 29  1  0
 16 30  1  0
M  END
$$$$
