
     RDKit          3D

138140  0  0  0  0  0  0  0  0999 V2000
    6.7489   -1.4568    0.0961 C   0  0  1  0  0  0  0  0  0  0  0  0
    7.5609   -1.2778    1.4086 C   0  0  0  0  0  0  0  0  0  0  0  0
    7.3309    0.0844    2.1037 C   0  0  1  0  0  0  0  0  0  0  0  0
    8.0322    1.0724    1.3674 O   0  0  0  0  0  0  0  0  0  0  0  0
    8.2507    2.2637    2.1172 C   0  0  2  0  0  0  0  0  0  0  0  0
    7.5127    3.3374    1.5546 O   0  0  0  0  0  0  0  0  0  0  0  0
    7.8415    3.6206    0.1951 C   0  0  2  0  0  0  0  0  0  0  0  0
    6.8285    2.9703   -0.7524 C   0  0  0  0  0  0  0  0  0  0  0  0
    9.3075    3.2858   -0.2049 C   0  0  1  0  0  0  0  0  0  0  0  0
    9.7134    4.0668   -1.3033 O   0  0  0  0  0  0  0  0  0  0  0  0
   10.2263    3.4950    1.0125 C   0  0  2  0  0  0  0  0  0  0  0  0
   11.6258    3.2345    0.6602 N   0  0  0  0  0  0  0  0  0  0  0  0
    9.7678    2.5881    2.1846 C   0  0  2  0  0  0  0  0  0  0  0  0
   10.5102    1.3931    2.2042 O   0  0  0  0  0  0  0  0  0  0  0  0
    5.8637    0.4434    2.1821 C   0  0  0  0  0  0  0  0  0  0  0  0
    4.9837   -0.2902    2.8738 C   0  0  0  0  0  0  0  0  0  0  0  0
    3.5283   -0.0868    2.7456 C   0  0  0  0  0  0  0  0  0  0  0  0
    2.9698    1.1113    2.5305 C   0  0  0  0  0  0  0  0  0  0  0  0
    1.5599    1.2489    2.1277 C   0  0  0  0  0  0  0  0  0  0  0  0
    1.0531    0.4930    1.1449 C   0  0  0  0  0  0  0  0  0  0  0  0
   -0.2814    0.7073    0.5620 C   0  0  0  0  0  0  0  0  0  0  0  0
   -1.3408    1.1048    1.2766 C   0  0  0  0  0  0  0  0  0  0  0  0
   -2.6652    1.3082    0.6612 C   0  0  0  0  0  0  0  0  0  0  0  0
   -2.8107    1.8554   -0.5543 C   0  0  0  0  0  0  0  0  0  0  0  0
   -4.1257    2.0898   -1.1776 C   0  0  0  0  0  0  0  0  0  0  0  0
   -5.1546    1.2478   -1.0247 C   0  0  0  0  0  0  0  0  0  0  0  0
   -6.4474    1.4375   -1.7050 C   0  0  0  0  0  0  0  0  0  0  0  0
   -7.0162    2.6399   -1.8468 C   0  0  0  0  0  0  0  0  0  0  0  0
   -8.3643    2.8267   -2.5125 C   0  0  2  0  0  0  0  0  0  0  0  0
   -8.5990    4.3151   -2.8204 C   0  0  0  0  0  0  0  0  0  0  0  0
   -9.5862    2.1991   -1.7432 C   0  0  1  0  0  0  0  0  0  0  0  0
   -9.9429    0.9902   -2.3657 O   0  0  0  0  0  0  0  0  0  0  0  0
   -9.4366    2.0116   -0.1894 C   0  0  1  0  0  0  0  0  0  0  0  0
   -9.1774    3.3698    0.4992 C   0  0  0  0  0  0  0  0  0  0  0  0
  -10.7131    1.3446    0.4289 C   0  0  2  0  0  0  0  0  0  0  0  0
  -10.7180    1.2366    1.9665 C   0  0  0  0  0  0  0  0  0  0  0  0
  -11.0467    0.0851   -0.1744 O   0  0  0  0  0  0  0  0  0  0  0  0
  -10.4429   -1.1761   -0.0103 C   0  0  0  0  0  0  0  0  0  0  0  0
  -11.0444   -2.1719   -0.4925 O   0  0  0  0  0  0  0  0  0  0  0  0
   -9.1385   -1.4196    0.7112 C   0  0  0  0  0  0  0  0  0  0  0  0
   -8.0846   -2.0650   -0.2158 C   0  0  2  0  0  0  0  0  0  0  0  0
   -8.5205   -3.3231   -0.6705 O   0  0  0  0  0  0  0  0  0  0  0  0
   -6.7179   -2.1842    0.4947 C   0  0  0  0  0  0  0  0  0  0  0  0
   -5.5806   -2.5978   -0.4671 C   0  0  2  0  0  0  0  0  0  0  0  0
   -5.8335   -3.8584   -1.0381 O   0  0  0  0  0  0  0  0  0  0  0  0
   -4.2216   -2.5994    0.2634 C   0  0  0  0  0  0  0  0  0  0  0  0
   -3.0464   -2.7929   -0.7098 C   0  0  0  0  0  0  0  0  0  0  0  0
   -1.7201   -2.9843    0.0476 C   0  0  1  0  0  0  0  0  0  0  0  0
   -1.7617   -4.2048    0.7464 O   0  0  0  0  0  0  0  0  0  0  0  0
   -0.5053   -2.9585   -0.9166 C   0  0  2  0  0  0  0  0  0  0  0  0
   -0.6435   -3.9210   -1.9339 O   0  0  0  0  0  0  0  0  0  0  0  0
    0.8233   -3.1513   -0.1489 C   0  0  0  0  0  0  0  0  0  0  0  0
    2.0713   -2.7770   -0.9774 C   0  0  2  0  0  0  0  0  0  0  0  0
    2.2132   -3.6762   -2.0472 O   0  0  0  0  0  0  0  0  0  0  0  0
    3.3262   -2.8471   -0.0769 C   0  0  0  0  0  0  0  0  0  0  0  0
    4.6086   -2.1792   -0.6432 C   0  0  2  0  0  0  0  0  0  0  0  0
    4.2967   -0.8996   -1.1474 O   0  0  0  0  0  0  0  0  0  0  0  0
    5.2191   -3.0493   -1.7667 C   0  0  0  0  0  0  0  0  0  0  0  0
    6.6013   -2.5246   -2.1836 C   0  0  2  0  0  0  0  0  0  0  0  0
    7.2006   -3.3966   -3.1106 O   0  0  0  0  0  0  0  0  0  0  0  0
    7.5042   -2.3136   -0.9493 C   0  0  1  0  0  0  0  0  0  0  0  0
    8.8000   -1.6673   -1.3713 C   0  0  0  0  0  0  0  0  0  0  0  0
    9.9863   -2.3906   -1.2991 O   0  0  0  0  0  0  0  0  0  0  0  0
    8.8140   -0.4817   -1.8011 O   0  0  0  0  0  0  0  0  0  0  0  0
    5.5225   -2.0829    0.4434 O   0  0  0  0  0  0  0  0  0  0  0  0
    6.5640   -0.4513   -0.3433 H   0  0  0  0  0  0  0  0  0  0  0  0
    8.6520   -1.3761    1.2231 H   0  0  0  0  0  0  0  0  0  0  0  0
    7.3057   -2.0988    2.1149 H   0  0  0  0  0  0  0  0  0  0  0  0
    7.7468   -0.0126    3.1343 H   0  0  0  0  0  0  0  0  0  0  0  0
    7.9089    2.1744    3.1758 H   0  0  0  0  0  0  0  0  0  0  0  0
    7.7095    4.7188    0.0802 H   0  0  0  0  0  0  0  0  0  0  0  0
    5.7954    3.2190   -0.4294 H   0  0  0  0  0  0  0  0  0  0  0  0
    6.9758    3.3516   -1.7852 H   0  0  0  0  0  0  0  0  0  0  0  0
    6.9411    1.8686   -0.7672 H   0  0  0  0  0  0  0  0  0  0  0  0
    9.3794    2.2186   -0.5118 H   0  0  0  0  0  0  0  0  0  0  0  0
    9.7342    5.0156   -1.0111 H   0  0  0  0  0  0  0  0  0  0  0  0
   10.1327    4.5578    1.3389 H   0  0  0  0  0  0  0  0  0  0  0  0
   11.9338    3.9494   -0.0380 H   0  0  0  0  0  0  0  0  0  0  0  0
   12.2122    3.4022    1.5104 H   0  0  0  0  0  0  0  0  0  0  0  0
    9.9697    3.1513    3.1268 H   0  0  0  0  0  0  0  0  0  0  0  0
   10.3697    0.9830    3.0976 H   0  0  0  0  0  0  0  0  0  0  0  0
    5.5182    1.2779    1.5844 H   0  0  0  0  0  0  0  0  0  0  0  0
    5.3260   -1.1715    3.4017 H   0  0  0  0  0  0  0  0  0  0  0  0
    2.8980   -0.9659    2.7939 H   0  0  0  0  0  0  0  0  0  0  0  0
    3.5588    2.0152    2.6212 H   0  0  0  0  0  0  0  0  0  0  0  0
    0.9948    2.0858    2.5181 H   0  0  0  0  0  0  0  0  0  0  0  0
    1.6924   -0.2238    0.6485 H   0  0  0  0  0  0  0  0  0  0  0  0
   -0.4037    0.4604   -0.4855 H   0  0  0  0  0  0  0  0  0  0  0  0
   -1.2609    1.2097    2.3514 H   0  0  0  0  0  0  0  0  0  0  0  0
   -3.5375    1.0806    1.2611 H   0  0  0  0  0  0  0  0  0  0  0  0
   -1.9407    2.2188   -1.0875 H   0  0  0  0  0  0  0  0  0  0  0  0
   -4.2098    2.9234   -1.8637 H   0  0  0  0  0  0  0  0  0  0  0  0
   -5.0214    0.3398   -0.4556 H   0  0  0  0  0  0  0  0  0  0  0  0
   -6.9723    0.5521   -2.0275 H   0  0  0  0  0  0  0  0  0  0  0  0
   -6.4915    3.5174   -1.4857 H   0  0  0  0  0  0  0  0  0  0  0  0
   -8.2948    2.3356   -3.5098 H   0  0  0  0  0  0  0  0  0  0  0  0
   -9.5187    4.4389   -3.4313 H   0  0  0  0  0  0  0  0  0  0  0  0
   -8.7093    4.9094   -1.8909 H   0  0  0  0  0  0  0  0  0  0  0  0
   -7.7475    4.7252   -3.4053 H   0  0  0  0  0  0  0  0  0  0  0  0
  -10.4618    2.8704   -1.8881 H   0  0  0  0  0  0  0  0  0  0  0  0
   -9.2086    0.3452   -2.2084 H   0  0  0  0  0  0  0  0  0  0  0  0
   -8.5614    1.3665    0.0072 H   0  0  0  0  0  0  0  0  0  0  0  0
   -9.0231    3.2406    1.5896 H   0  0  0  0  0  0  0  0  0  0  0  0
  -10.0318    4.0608    0.3354 H   0  0  0  0  0  0  0  0  0  0  0  0
   -8.2543    3.8499    0.1278 H   0  0  0  0  0  0  0  0  0  0  0  0
  -11.5622    2.0194    0.1805 H   0  0  0  0  0  0  0  0  0  0  0  0
  -11.0258    2.2055    2.4146 H   0  0  0  0  0  0  0  0  0  0  0  0
   -9.7206    0.9810    2.3736 H   0  0  0  0  0  0  0  0  0  0  0  0
  -11.4510    0.4699    2.2956 H   0  0  0  0  0  0  0  0  0  0  0  0
   -9.3337   -2.0871    1.5782 H   0  0  0  0  0  0  0  0  0  0  0  0
   -8.7209   -0.4883    1.1182 H   0  0  0  0  0  0  0  0  0  0  0  0
   -7.9579   -1.4063   -1.0996 H   0  0  0  0  0  0  0  0  0  0  0  0
   -8.6372   -3.9061    0.1249 H   0  0  0  0  0  0  0  0  0  0  0  0
   -6.7903   -2.9127    1.3323 H   0  0  0  0  0  0  0  0  0  0  0  0
   -6.4598   -1.1964    0.9363 H   0  0  0  0  0  0  0  0  0  0  0  0
   -5.5348   -1.8527   -1.2907 H   0  0  0  0  0  0  0  0  0  0  0  0
   -5.8871   -4.5185   -0.2980 H   0  0  0  0  0  0  0  0  0  0  0  0
   -4.0816   -1.6325    0.7949 H   0  0  0  0  0  0  0  0  0  0  0  0
   -4.2215   -3.4068    1.0282 H   0  0  0  0  0  0  0  0  0  0  0  0
   -3.2316   -3.6812   -1.3525 H   0  0  0  0  0  0  0  0  0  0  0  0
   -2.9762   -1.8969   -1.3657 H   0  0  0  0  0  0  0  0  0  0  0  0
   -1.6135   -2.1316    0.7617 H   0  0  0  0  0  0  0  0  0  0  0  0
   -1.2455   -4.0806    1.5853 H   0  0  0  0  0  0  0  0  0  0  0  0
   -0.4834   -1.9559   -1.3973 H   0  0  0  0  0  0  0  0  0  0  0  0
   -0.6490   -4.8162   -1.5049 H   0  0  0  0  0  0  0  0  0  0  0  0
    0.9125   -4.2050    0.1967 H   0  0  0  0  0  0  0  0  0  0  0  0
    0.7937   -2.5102    0.7591 H   0  0  0  0  0  0  0  0  0  0  0  0
    1.9478   -1.7318   -1.3466 H   0  0  0  0  0  0  0  0  0  0  0  0
    1.8075   -3.2484   -2.8458 H   0  0  0  0  0  0  0  0  0  0  0  0
    3.0944   -2.3398    0.8826 H   0  0  0  0  0  0  0  0  0  0  0  0
    3.5363   -3.9084    0.1835 H   0  0  0  0  0  0  0  0  0  0  0  0
    4.0293   -0.3361   -0.3746 H   0  0  0  0  0  0  0  0  0  0  0  0
    4.5594   -3.0454   -2.6597 H   0  0  0  0  0  0  0  0  0  0  0  0
    5.3193   -4.0988   -1.4111 H   0  0  0  0  0  0  0  0  0  0  0  0
    6.4516   -1.5451   -2.6912 H   0  0  0  0  0  0  0  0  0  0  0  0
    7.3511   -4.2659   -2.6547 H   0  0  0  0  0  0  0  0  0  0  0  0
    7.7293   -3.3032   -0.4912 H   0  0  0  0  0  0  0  0  0  0  0  0
   10.8659   -1.9746   -1.5807 H   0  0  0  0  0  0  0  0  0  0  0  0
  1  2  1  0
  2  3  1  0
  3  4  1  0
  4  5  1  0
  5  6  1  0
  6  7  1  0
  7  8  1  0
  7  9  1  0
  9 10  1  0
  9 11  1  0
 11 12  1  0
 11 13  1  0
 13 14  1  0
  3 15  1  0
 15 16  2  0
 16 17  1  0
 17 18  2  0
 18 19  1  0
 19 20  2  0
 20 21  1  0
 21 22  2  0
 22 23  1  0
 23 24  2  0
 24 25  1  0
 25 26  2  0
 26 27  1  0
 27 28  2  0
 28 29  1  0
 29 30  1  0
 29 31  1  0
 31 32  1  0
 31 33  1  0
 33 34  1  0
 33 35  1  0
 35 36  1  0
 35 37  1  0
 37 38  1  0
 38 39  2  0
 38 40  1  0
 40 41  1  0
 41 42  1  0
 41 43  1  0
 43 44  1  0
 44 45  1  0
 44 46  1  0
 46 47  1  0
 47 48  1  0
 48 49  1  0
 48 50  1  0
 50 51  1  0
 50 52  1  0
 52 53  1  0
 53 54  1  0
 53 55  1  0
 55 56  1  0
 56 57  1  6
 56 58  1  0
 58 59  1  0
 59 60  1  0
 59 61  1  0
 61 62  1  0
 62 63  1  0
 62 64  2  0
 56 65  1  0
 61  1  1  0
 65  1  1  0
 13  5  1  0
  1 66  1  6
  2 67  1  0
  2 68  1  0
  3 69  1  1
  5 70  1  1
  7 71  1  1
  8 72  1  0
  8 73  1  0
  8 74  1  0
  9 75  1  6
 10 76  1  0
 11 77  1  1
 12 78  1  0
 12 79  1  0
 13 80  1  1
 14 81  1  0
 15 82  1  0
 16 83  1  0
 17 84  1  0
 18 85  1  0
 19 86  1  0
 20 87  1  0
 21 88  1  0
 22 89  1  0
 23 90  1  0
 24 91  1  0
 25 92  1  0
 26 93  1  0
 27 94  1  0
 28 95  1  0
 29 96  1  6
 30 97  1  0
 30 98  1  0
 30 99  1  0
 31100  1  1
 32101  1  0
 33102  1  6
 34103  1  0
 34104  1  0
 34105  1  0
 35106  1  1
 36107  1  0
 36108  1  0
 36109  1  0
 40110  1  0
 40111  1  0
 41112  1  6
 42113  1  0
 43114  1  0
 43115  1  0
 44116  1  6
 45117  1  0
 46118  1  0
 46119  1  0
 47120  1  0
 47121  1  0
 48122  1  1
 49123  1  0
 50124  1  6
 51125  1  0
 52126  1  0
 52127  1  0
 53128  1  6
 54129  1  0
 55130  1  0
 55131  1  0
 57132  1  0
 58133  1  0
 58134  1  0
 59135  1  6
 60136  1  0
 61137  1  1
 63138  1  0
M  END
$$$$
