
     RDKit          3D

 81 85  0  0  0  0  0  0  0  0999 V2000
   -9.8218    2.7225   -2.8448 O   0  0  0  0  0  0  0  0  0  0  0  0
   -9.3032    1.8546   -2.0929 C   0  0  0  0  0  0  0  0  0  0  0  0
   -9.4981    1.9142   -0.7471 N   0  0  0  0  0  0  0  0  0  0  0  0
   -8.9442    0.9998    0.1033 C   0  0  0  0  0  0  0  0  0  0  0  0
   -8.1521   -0.0525   -0.4138 C   0  0  0  0  0  0  0  0  0  0  0  0
   -7.9743   -0.1304   -1.8047 C   0  0  0  0  0  0  0  0  0  0  0  0
   -8.5391    0.8270   -2.6436 C   0  0  0  0  0  0  0  0  0  0  0  0
   -7.5105   -1.1044    0.4888 C   0  0  2  0  0  0  0  0  0  0  0  0
   -7.9071   -0.9937    1.9829 C   0  0  0  0  0  0  0  0  0  0  0  0
   -8.1960    0.4426    2.4312 C   0  0  0  0  0  0  0  0  0  0  0  0
   -9.2875    1.0646    1.5678 C   0  0  0  0  0  0  0  0  0  0  0  0
   -6.0421   -1.1926    0.3205 N   0  0  0  0  0  0  0  0  0  0  0  0
   -5.3158    0.0480    0.6398 C   0  0  0  0  0  0  0  0  0  0  0  0
   -3.8482   -0.0416    0.1986 C   0  0  0  0  0  0  0  0  0  0  0  0
   -3.0959   -1.1633    0.9342 C   0  0  0  0  0  0  0  0  0  0  0  0
   -1.5907   -1.1646    0.6251 C   0  0  0  0  0  0  0  0  0  0  0  0
   -1.2863   -1.5847   -0.8239 C   0  0  0  0  0  0  0  0  0  0  0  0
    0.2089   -1.8507   -1.0603 C   0  0  0  0  0  0  0  0  0  0  0  0
    1.0518   -0.5672   -1.0152 C   0  0  0  0  0  0  0  0  0  0  0  0
    2.5172   -0.8615   -1.3700 C   0  0  0  0  0  0  0  0  0  0  0  0
    3.3775    0.4131   -1.4410 C   0  0  0  0  0  0  0  0  0  0  0  0
    3.7062    1.0224   -0.0700 C   0  0  0  0  0  0  0  0  0  0  0  0
    4.6447    0.1820    0.6762 N   0  0  0  0  0  0  0  0  0  0  0  0
    6.0600    0.4270    0.6386 C   0  0  0  0  0  0  0  0  0  0  0  0
    6.9210   -0.4789   -0.0190 C   0  0  0  0  0  0  0  0  0  0  0  0
    6.4438   -1.7602   -0.6606 C   0  0  0  0  0  0  0  0  0  0  0  0
    7.0919   -1.9465   -2.0429 C   0  0  0  0  0  0  0  0  0  0  0  0
    8.6188   -1.6716   -2.0775 C   0  0  0  0  0  0  0  0  0  0  0  0
    9.2127   -1.1851   -0.7434 C   0  0  0  0  0  0  0  0  0  0  0  0
    8.2955   -0.2057   -0.0717 C   0  0  0  0  0  0  0  0  0  0  0  0
    8.7991    0.9091    0.5162 N   0  0  0  0  0  0  0  0  0  0  0  0
    8.0068    1.7956    1.1709 C   0  0  0  0  0  0  0  0  0  0  0  0
    8.5805    2.9221    1.7716 C   0  0  0  0  0  0  0  0  0  0  0  0
    7.7824    3.8229    2.4792 C   0  0  0  0  0  0  0  0  0  0  0  0
    6.4097    3.5978    2.5990 C   0  0  0  0  0  0  0  0  0  0  0  0
    5.8246    2.4774    2.0019 C   0  0  0  0  0  0  0  0  0  0  0  0
    6.6115    1.5710    1.2627 C   0  0  0  0  0  0  0  0  0  0  0  0
  -10.0979    2.6788   -0.3606 H   0  0  0  0  0  0  0  0  0  0  0  0
   -7.4024   -0.9362   -2.2456 H   0  0  0  0  0  0  0  0  0  0  0  0
   -8.3899    0.7642   -3.7146 H   0  0  0  0  0  0  0  0  0  0  0  0
   -7.9212   -2.0821    0.1489 H   0  0  0  0  0  0  0  0  0  0  0  0
   -8.8241   -1.5997    2.1590 H   0  0  0  0  0  0  0  0  0  0  0  0
   -7.1109   -1.4281    2.6257 H   0  0  0  0  0  0  0  0  0  0  0  0
   -8.5333    0.4314    3.4901 H   0  0  0  0  0  0  0  0  0  0  0  0
   -7.2855    1.0719    2.3804 H   0  0  0  0  0  0  0  0  0  0  0  0
  -10.2474    0.5298    1.7347 H   0  0  0  0  0  0  0  0  0  0  0  0
   -9.4247    2.1230    1.8785 H   0  0  0  0  0  0  0  0  0  0  0  0
   -5.8312   -1.4744   -0.6649 H   0  0  0  0  0  0  0  0  0  0  0  0
   -5.3317    0.2191    1.7355 H   0  0  0  0  0  0  0  0  0  0  0  0
   -5.7770    0.9225    0.1318 H   0  0  0  0  0  0  0  0  0  0  0  0
   -3.8098   -0.2077   -0.8990 H   0  0  0  0  0  0  0  0  0  0  0  0
   -3.3579    0.9329    0.4141 H   0  0  0  0  0  0  0  0  0  0  0  0
   -3.5317   -2.1519    0.6721 H   0  0  0  0  0  0  0  0  0  0  0  0
   -3.2207   -1.0214    2.0302 H   0  0  0  0  0  0  0  0  0  0  0  0
   -1.0997   -1.8795    1.3209 H   0  0  0  0  0  0  0  0  0  0  0  0
   -1.1748   -0.1546    0.8280 H   0  0  0  0  0  0  0  0  0  0  0  0
   -1.6357   -0.8029   -1.5317 H   0  0  0  0  0  0  0  0  0  0  0  0
   -1.8400   -2.5213   -1.0535 H   0  0  0  0  0  0  0  0  0  0  0  0
    0.3183   -2.3182   -2.0635 H   0  0  0  0  0  0  0  0  0  0  0  0
    0.5860   -2.5780   -0.3080 H   0  0  0  0  0  0  0  0  0  0  0  0
    1.0010   -0.1349    0.0044 H   0  0  0  0  0  0  0  0  0  0  0  0
    0.6380    0.1706   -1.7371 H   0  0  0  0  0  0  0  0  0  0  0  0
    2.5505   -1.3478   -2.3696 H   0  0  0  0  0  0  0  0  0  0  0  0
    2.9421   -1.5807   -0.6393 H   0  0  0  0  0  0  0  0  0  0  0  0
    4.3299    0.1781   -1.9638 H   0  0  0  0  0  0  0  0  0  0  0  0
    2.8541    1.1747   -2.0592 H   0  0  0  0  0  0  0  0  0  0  0  0
    2.7871    1.1729    0.5315 H   0  0  0  0  0  0  0  0  0  0  0  0
    4.1499    2.0275   -0.2391 H   0  0  0  0  0  0  0  0  0  0  0  0
    4.3070   -0.7299    1.0572 H   0  0  0  0  0  0  0  0  0  0  0  0
    5.3444   -1.7836   -0.7856 H   0  0  0  0  0  0  0  0  0  0  0  0
    6.7241   -2.6122   -0.0042 H   0  0  0  0  0  0  0  0  0  0  0  0
    6.5883   -1.2592   -2.7583 H   0  0  0  0  0  0  0  0  0  0  0  0
    6.8924   -2.9818   -2.3953 H   0  0  0  0  0  0  0  0  0  0  0  0
    8.8242   -0.9023   -2.8543 H   0  0  0  0  0  0  0  0  0  0  0  0
    9.1551   -2.5942   -2.3891 H   0  0  0  0  0  0  0  0  0  0  0  0
    9.3606   -2.0538   -0.0660 H   0  0  0  0  0  0  0  0  0  0  0  0
   10.2060   -0.7212   -0.9282 H   0  0  0  0  0  0  0  0  0  0  0  0
    9.6469    3.0968    1.6975 H   0  0  0  0  0  0  0  0  0  0  0  0
    8.2301    4.6913    2.9449 H   0  0  0  0  0  0  0  0  0  0  0  0
    5.7973    4.2910    3.1612 H   0  0  0  0  0  0  0  0  0  0  0  0
    4.7623    2.3223    2.1352 H   0  0  0  0  0  0  0  0  0  0  0  0
  1  2  2  0
  2  3  1  0
  3  4  1  0
  4  5  2  0
  5  6  1  0
  6  7  2  0
  5  8  1  0
  8  9  1  0
  9 10  1  0
 10 11  1  0
  8 12  1  0
 12 13  1  0
 13 14  1  0
 14 15  1  0
 15 16  1  0
 16 17  1  0
 17 18  1  0
 18 19  1  0
 19 20  1  0
 20 21  1  0
 21 22  1  0
 22 23  1  0
 23 24  1  0
 24 25  2  0
 25 26  1  0
 26 27  1  0
 27 28  1  0
 28 29  1  0
 29 30  1  0
 30 31  2  0
 31 32  1  0
 32 33  2  0
 33 34  1  0
 34 35  2  0
 35 36  1  0
 36 37  2  0
  7  2  1  0
 37 24  1  0
 11  4  1  0
 30 25  1  0
 37 32  1  0
  3 38  1  0
  6 39  1  0
  7 40  1  0
  8 41  1  6
  9 42  1  0
  9 43  1  0
 10 44  1  0
 10 45  1  0
 11 46  1  0
 11 47  1  0
 12 48  1  0
 13 49  1  0
 13 50  1  0
 14 51  1  0
 14 52  1  0
 15 53  1  0
 15 54  1  0
 16 55  1  0
 16 56  1  0
 17 57  1  0
 17 58  1  0
 18 59  1  0
 18 60  1  0
 19 61  1  0
 19 62  1  0
 20 63  1  0
 20 64  1  0
 21 65  1  0
 21 66  1  0
 22 67  1  0
 22 68  1  0
 23 69  1  0
 26 70  1  0
 26 71  1  0
 27 72  1  0
 27 73  1  0
 28 74  1  0
 28 75  1  0
 29 76  1  0
 29 77  1  0
 33 78  1  0
 34 79  1  0
 35 80  1  0
 36 81  1  0
M  END
$$$$
