
     RDKit          3D

 60 63  0  0  0  0  0  0  0  0999 V2000
   -4.0541   -0.9513   -0.0016 C   0  0  2  0  0  0  0  0  0  0  0  0
   -4.9480   -1.7734   -0.9207 C   0  0  0  0  0  0  0  0  0  0  0  0
   -6.3550   -1.1937   -0.6862 C   0  0  0  0  0  0  0  0  0  0  0  0
   -6.1734    0.0732    0.1809 C   0  0  2  0  0  0  0  0  0  0  0  0
   -7.0360    1.1059   -0.2225 O   0  0  0  0  0  0  0  0  0  0  0  0
   -4.6881    0.4462    0.0060 C   0  0  2  0  0  0  0  0  0  0  0  0
   -4.5006    1.2414   -1.3274 C   0  0  0  0  0  0  0  0  0  0  0  0
   -4.0762    1.2384    1.1811 C   0  0  0  0  0  0  0  0  0  0  0  0
   -2.5299    1.3009    1.0804 C   0  0  0  0  0  0  0  0  0  0  0  0
   -1.8666   -0.0994    0.8916 C   0  0  2  0  0  0  0  0  0  0  0  0
   -0.3494   -0.0544    0.7006 C   0  0  0  0  0  0  0  0  0  0  0  0
    0.4386    0.9126    1.3599 C   0  0  0  0  0  0  0  0  0  0  0  0
    1.8296    0.9045    1.2482 C   0  0  0  0  0  0  0  0  0  0  0  0
    2.4748   -0.0807    0.4886 C   0  0  0  0  0  0  0  0  0  0  0  0
    3.8698   -0.1295    0.3525 O   0  0  0  0  0  0  0  0  0  0  0  0
    4.7299    0.9782    0.3731 C   0  0  0  0  0  0  0  0  0  0  0  0
    4.2682    2.1431    0.2239 O   0  0  0  0  0  0  0  0  0  0  0  0
    6.1509    0.7793    0.5284 N   0  0  0  0  0  0  0  0  0  0  0  0
    6.6748   -0.5839    0.7118 C   0  0  0  0  0  0  0  0  0  0  0  0
    6.6334   -1.3708   -0.5990 C   0  0  0  0  0  0  0  0  0  0  0  0
    7.2742   -3.0134   -0.3453 Cl  0  0  0  0  0  0  0  0  0  0  0  0
    7.0344    1.9428    0.7187 C   0  0  0  0  0  0  0  0  0  0  0  0
    7.3078    2.6625   -0.6040 C   0  0  0  0  0  0  0  0  0  0  0  0
    8.4167    1.7192   -1.6311 Cl  0  0  0  0  0  0  0  0  0  0  0  0
    1.7130   -1.0801   -0.1181 C   0  0  0  0  0  0  0  0  0  0  0  0
    0.3134   -1.0933   -0.0084 C   0  0  0  0  0  0  0  0  0  0  0  0
   -0.4389   -2.1861   -0.7376 C   0  0  0  0  0  0  0  0  0  0  0  0
   -1.9103   -2.2953   -0.3290 C   0  0  0  0  0  0  0  0  0  0  0  0
   -2.5378   -0.8976   -0.2660 C   0  0  1  0  0  0  0  0  0  0  0  0
   -4.1798   -1.4051    1.0134 H   0  0  0  0  0  0  0  0  0  0  0  0
   -4.6421   -1.6479   -1.9823 H   0  0  0  0  0  0  0  0  0  0  0  0
   -4.9126   -2.8526   -0.6554 H   0  0  0  0  0  0  0  0  0  0  0  0
   -6.9993   -1.9294   -0.1573 H   0  0  0  0  0  0  0  0  0  0  0  0
   -6.8259   -0.9440   -1.6625 H   0  0  0  0  0  0  0  0  0  0  0  0
   -6.3718   -0.1846    1.2490 H   0  0  0  0  0  0  0  0  0  0  0  0
   -7.9505    0.8293    0.0469 H   0  0  0  0  0  0  0  0  0  0  0  0
   -5.0089    2.2266   -1.2580 H   0  0  0  0  0  0  0  0  0  0  0  0
   -3.4416    1.4555   -1.5625 H   0  0  0  0  0  0  0  0  0  0  0  0
   -4.9332    0.7020   -2.1949 H   0  0  0  0  0  0  0  0  0  0  0  0
   -4.3483    0.7576    2.1470 H   0  0  0  0  0  0  0  0  0  0  0  0
   -4.4884    2.2707    1.2012 H   0  0  0  0  0  0  0  0  0  0  0  0
   -2.2227    1.9802    0.2578 H   0  0  0  0  0  0  0  0  0  0  0  0
   -2.1797    1.7569    2.0290 H   0  0  0  0  0  0  0  0  0  0  0  0
   -2.0387   -0.6566    1.8406 H   0  0  0  0  0  0  0  0  0  0  0  0
   -0.0043    1.6755    1.9810 H   0  0  0  0  0  0  0  0  0  0  0  0
    2.3988    1.6482    1.7891 H   0  0  0  0  0  0  0  0  0  0  0  0
    6.0765   -1.1113    1.4866 H   0  0  0  0  0  0  0  0  0  0  0  0
    7.7258   -0.5601    1.0723 H   0  0  0  0  0  0  0  0  0  0  0  0
    5.5944   -1.4558   -0.9773 H   0  0  0  0  0  0  0  0  0  0  0  0
    7.2514   -0.8664   -1.3685 H   0  0  0  0  0  0  0  0  0  0  0  0
    8.0038    1.6456    1.1738 H   0  0  0  0  0  0  0  0  0  0  0  0
    6.5612    2.6527    1.4318 H   0  0  0  0  0  0  0  0  0  0  0  0
    6.3653    2.8492   -1.1588 H   0  0  0  0  0  0  0  0  0  0  0  0
    7.7856    3.6424   -0.3928 H   0  0  0  0  0  0  0  0  0  0  0  0
    2.2180   -1.8517   -0.6875 H   0  0  0  0  0  0  0  0  0  0  0  0
    0.0523   -3.1668   -0.5552 H   0  0  0  0  0  0  0  0  0  0  0  0
   -0.3832   -1.9778   -1.8285 H   0  0  0  0  0  0  0  0  0  0  0  0
   -2.4356   -2.9234   -1.0800 H   0  0  0  0  0  0  0  0  0  0  0  0
   -1.9910   -2.8018    0.6585 H   0  0  0  0  0  0  0  0  0  0  0  0
   -2.3407   -0.4022   -1.2400 H   0  0  0  0  0  0  0  0  0  0  0  0
  1  2  1  0
  2  3  1  0
  3  4  1  0
  4  5  1  0
  4  6  1  0
  6  7  1  6
  6  8  1  0
  8  9  1  0
  9 10  1  0
 10 11  1  0
 11 12  2  0
 12 13  1  0
 13 14  2  0
 14 15  1  0
 15 16  1  0
 16 17  2  0
 16 18  1  0
 18 19  1  0
 19 20  1  0
 20 21  1  0
 18 22  1  0
 22 23  1  0
 23 24  1  0
 14 25  1  0
 25 26  2  0
 26 27  1  0
 27 28  1  0
 28 29  1  0
  6  1  1  0
 29 10  1  0
 29  1  1  0
 26 11  1  0
  1 30  1  1
  2 31  1  0
  2 32  1  0
  3 33  1  0
  3 34  1  0
  4 35  1  1
  5 36  1  0
  7 37  1  0
  7 38  1  0
  7 39  1  0
  8 40  1  0
  8 41  1  0
  9 42  1  0
  9 43  1  0
 10 44  1  1
 12 45  1  0
 13 46  1  0
 19 47  1  0
 19 48  1  0
 20 49  1  0
 20 50  1  0
 22 51  1  0
 22 52  1  0
 23 53  1  0
 23 54  1  0
 25 55  1  0
 27 56  1  0
 27 57  1  0
 28 58  1  0
 28 59  1  0
 29 60  1  6
M  END
$$$$
