
     RDKit          3D

 46 47  0  0  0  0  0  0  0  0999 V2000
    3.3086    3.4676    0.9293 O   0  0  0  0  0  0  0  0  0  0  0  0
    2.6554    2.2349    0.7657 C   0  0  1  0  0  0  0  0  0  0  0  0
    1.5140    2.3868   -0.2692 C   0  0  0  0  0  0  0  0  0  0  0  0
    0.7670    1.1415   -0.5187 N   0  0  0  0  0  0  0  0  0  0  0  0
   -0.0281    0.7172    0.6406 C   0  0  0  0  0  0  0  0  0  0  0  0
   -1.0389   -0.3470    0.2085 C   0  0  0  0  0  0  0  0  0  0  0  0
   -1.9018   -0.8048    1.3936 C   0  0  0  0  0  0  0  0  0  0  0  0
   -2.8638   -1.9386    1.0107 C   0  0  0  0  0  0  0  0  0  0  0  0
   -3.9292   -1.4755    0.0497 C   0  0  0  0  0  0  0  0  0  0  0  0
   -3.8140   -1.7433   -1.3245 C   0  0  0  0  0  0  0  0  0  0  0  0
   -4.7915   -1.2900   -2.2154 C   0  0  0  0  0  0  0  0  0  0  0  0
   -5.8896   -0.5626   -1.7452 C   0  0  0  0  0  0  0  0  0  0  0  0
   -6.8557   -0.1171   -2.6444 O   0  0  0  0  0  0  0  0  0  0  0  0
   -6.0068   -0.2877   -0.3760 C   0  0  0  0  0  0  0  0  0  0  0  0
   -5.0304   -0.7395    0.5170 C   0  0  0  0  0  0  0  0  0  0  0  0
    3.6688    1.1996    0.3296 C   0  0  0  0  0  0  0  0  0  0  0  0
    3.7540   -0.0356    0.9955 C   0  0  0  0  0  0  0  0  0  0  0  0
    4.6738   -1.0077    0.5769 C   0  0  0  0  0  0  0  0  0  0  0  0
    4.7560   -2.2318    1.2383 O   0  0  0  0  0  0  0  0  0  0  0  0
    5.5149   -0.7503   -0.5128 C   0  0  0  0  0  0  0  0  0  0  0  0
    6.4281   -1.7189   -0.9255 O   0  0  0  0  0  0  0  0  0  0  0  0
    5.4325    0.4779   -1.1817 C   0  0  0  0  0  0  0  0  0  0  0  0
    4.5149    1.4458   -0.7657 C   0  0  0  0  0  0  0  0  0  0  0  0
    2.6988    4.0521    1.4518 H   0  0  0  0  0  0  0  0  0  0  0  0
    2.2202    1.9385    1.7476 H   0  0  0  0  0  0  0  0  0  0  0  0
    1.9410    2.7375   -1.2335 H   0  0  0  0  0  0  0  0  0  0  0  0
    0.8132    3.1831    0.0655 H   0  0  0  0  0  0  0  0  0  0  0  0
    1.4257    0.3747   -0.7890 H   0  0  0  0  0  0  0  0  0  0  0  0
   -0.5825    1.5827    1.0679 H   0  0  0  0  0  0  0  0  0  0  0  0
    0.6339    0.2892    1.4246 H   0  0  0  0  0  0  0  0  0  0  0  0
   -0.4931   -1.2201   -0.2119 H   0  0  0  0  0  0  0  0  0  0  0  0
   -1.6888    0.0797   -0.5859 H   0  0  0  0  0  0  0  0  0  0  0  0
   -2.4787    0.0567    1.7962 H   0  0  0  0  0  0  0  0  0  0  0  0
   -1.2366   -1.1751    2.2043 H   0  0  0  0  0  0  0  0  0  0  0  0
   -3.3521   -2.3191    1.9342 H   0  0  0  0  0  0  0  0  0  0  0  0
   -2.2903   -2.7893    0.5811 H   0  0  0  0  0  0  0  0  0  0  0  0
   -2.9656   -2.2978   -1.7061 H   0  0  0  0  0  0  0  0  0  0  0  0
   -4.6942   -1.5018   -3.2726 H   0  0  0  0  0  0  0  0  0  0  0  0
   -7.6625    0.4126   -2.3353 H   0  0  0  0  0  0  0  0  0  0  0  0
   -6.8518    0.2772   -0.0035 H   0  0  0  0  0  0  0  0  0  0  0  0
   -5.1304   -0.5149    1.5717 H   0  0  0  0  0  0  0  0  0  0  0  0
    3.1054   -0.2466    1.8366 H   0  0  0  0  0  0  0  0  0  0  0  0
    4.1603   -2.4484    2.0290 H   0  0  0  0  0  0  0  0  0  0  0  0
    7.0491   -1.5615   -1.7106 H   0  0  0  0  0  0  0  0  0  0  0  0
    6.0782    0.6826   -2.0262 H   0  0  0  0  0  0  0  0  0  0  0  0
    4.4627    2.3871   -1.2984 H   0  0  0  0  0  0  0  0  0  0  0  0
  1  2  1  0
  2  3  1  0
  3  4  1  0
  4  5  1  0
  5  6  1  0
  6  7  1  0
  7  8  1  0
  8  9  1  0
  9 10  2  0
 10 11  1  0
 11 12  2  0
 12 13  1  0
 12 14  1  0
 14 15  2  0
  2 16  1  0
 16 17  2  0
 17 18  1  0
 18 19  1  0
 18 20  2  0
 20 21  1  0
 20 22  1  0
 22 23  2  0
 15  9  1  0
 23 16  1  0
  1 24  1  0
  2 25  1  1
  3 26  1  0
  3 27  1  0
  4 28  1  0
  5 29  1  0
  5 30  1  0
  6 31  1  0
  6 32  1  0
  7 33  1  0
  7 34  1  0
  8 35  1  0
  8 36  1  0
 10 37  1  0
 11 38  1  0
 13 39  1  0
 14 40  1  0
 15 41  1  0
 17 42  1  0
 19 43  1  0
 21 44  1  0
 22 45  1  0
 23 46  1  0
M  END
$$$$
