
     RDKit          3D

 50 53  0  0  0  0  0  0  0  0999 V2000
   -0.1651   -1.6390    0.2719 O   0  0  0  0  0  0  0  0  0  0  0  0
   -0.0489   -1.4251   -1.1124 C   0  0  0  0  0  0  0  0  0  0  0  0
    1.2078   -2.1222   -1.6666 C   0  0  0  0  0  0  0  0  0  0  0  0
    2.3734   -1.7119   -0.9501 O   0  0  0  0  0  0  0  0  0  0  0  0
    3.0145   -0.4634   -1.0564 C   0  0  0  0  0  0  0  0  0  0  0  0
    2.6508    0.4702   -2.0492 C   0  0  0  0  0  0  0  0  0  0  0  0
    3.2988    1.7022   -2.1411 C   0  0  0  0  0  0  0  0  0  0  0  0
    4.3206    2.0270   -1.2523 C   0  0  0  0  0  0  0  0  0  0  0  0
    4.7056    1.1210   -0.2623 C   0  0  0  0  0  0  0  0  0  0  0  0
    4.0580   -0.1352   -0.1533 C   0  0  0  0  0  0  0  0  0  0  0  0
    4.4932   -1.0042    0.8709 C   0  0  0  0  0  0  0  0  0  0  0  0
    3.9696   -2.1385    1.0394 O   0  0  0  0  0  0  0  0  0  0  0  0
    5.5255   -0.6057    1.7209 C   0  0  0  0  0  0  0  0  0  0  0  0
    6.1137    0.6538    1.5442 C   0  0  0  0  0  0  0  0  0  0  0  0
    5.6849    1.4539    0.5733 O   0  0  0  0  0  0  0  0  0  0  0  0
    7.2054    1.1170    2.4164 C   0  0  0  0  0  0  0  0  0  0  0  0
    7.7632    2.3747    2.2088 O   0  0  0  0  0  0  0  0  0  0  0  0
    7.6403    0.3879    3.3486 O   0  0  0  0  0  0  0  0  0  0  0  0
   -1.3136   -1.8932   -1.8530 C   0  0  0  0  0  0  0  0  0  0  0  0
   -2.4391   -1.0882   -1.4950 O   0  0  0  0  0  0  0  0  0  0  0  0
   -3.2111   -1.1992   -0.3236 C   0  0  0  0  0  0  0  0  0  0  0  0
   -3.1652   -2.3529    0.4860 C   0  0  0  0  0  0  0  0  0  0  0  0
   -3.9414   -2.4448    1.6417 C   0  0  0  0  0  0  0  0  0  0  0  0
   -4.7813   -1.3968    2.0096 C   0  0  0  0  0  0  0  0  0  0  0  0
   -4.8557   -0.2464    1.2225 C   0  0  0  0  0  0  0  0  0  0  0  0
   -4.0736   -0.1348    0.0455 C   0  0  0  0  0  0  0  0  0  0  0  0
   -4.1935    1.0559   -0.7039 C   0  0  0  0  0  0  0  0  0  0  0  0
   -3.5316    1.2387   -1.7612 O   0  0  0  0  0  0  0  0  0  0  0  0
   -5.0616    2.0589   -0.2710 C   0  0  0  0  0  0  0  0  0  0  0  0
   -5.7999    1.8682    0.9034 C   0  0  0  0  0  0  0  0  0  0  0  0
   -5.6682    0.7389    1.5927 O   0  0  0  0  0  0  0  0  0  0  0  0
   -6.7256    2.9026    1.3927 C   0  0  0  0  0  0  0  0  0  0  0  0
   -6.8872    4.0968    0.6952 O   0  0  0  0  0  0  0  0  0  0  0  0
   -7.3785    2.7070    2.4525 O   0  0  0  0  0  0  0  0  0  0  0  0
   -0.1785   -2.6201    0.4243 H   0  0  0  0  0  0  0  0  0  0  0  0
    0.0519   -0.3320   -1.2783 H   0  0  0  0  0  0  0  0  0  0  0  0
    1.3312   -1.9326   -2.7540 H   0  0  0  0  0  0  0  0  0  0  0  0
    1.0977   -3.2208   -1.5430 H   0  0  0  0  0  0  0  0  0  0  0  0
    1.8693    0.2565   -2.7635 H   0  0  0  0  0  0  0  0  0  0  0  0
    3.0078    2.4086   -2.9080 H   0  0  0  0  0  0  0  0  0  0  0  0
    4.8167    2.9861   -1.3338 H   0  0  0  0  0  0  0  0  0  0  0  0
    5.8623   -1.2704    2.5079 H   0  0  0  0  0  0  0  0  0  0  0  0
    8.5152    2.7135    2.7970 H   0  0  0  0  0  0  0  0  0  0  0  0
   -1.1487   -1.7615   -2.9437 H   0  0  0  0  0  0  0  0  0  0  0  0
   -1.5124   -2.9728   -1.6938 H   0  0  0  0  0  0  0  0  0  0  0  0
   -2.5428   -3.1966    0.2314 H   0  0  0  0  0  0  0  0  0  0  0  0
   -3.8943   -3.3367    2.2533 H   0  0  0  0  0  0  0  0  0  0  0  0
   -5.3797   -1.4801    2.9083 H   0  0  0  0  0  0  0  0  0  0  0  0
   -5.1563    2.9737   -0.8442 H   0  0  0  0  0  0  0  0  0  0  0  0
   -7.5231    4.8116    1.0283 H   0  0  0  0  0  0  0  0  0  0  0  0
  1  2  1  0
  2  3  1  0
  3  4  1  0
  4  5  1  0
  5  6  2  0
  6  7  1  0
  7  8  2  0
  8  9  1  0
  9 10  2  0
 10 11  1  0
 11 12  2  0
 11 13  1  0
 13 14  2  0
 14 15  1  0
 14 16  1  0
 16 17  1  0
 16 18  2  0
  2 19  1  0
 19 20  1  0
 20 21  1  0
 21 22  2  0
 22 23  1  0
 23 24  2  0
 24 25  1  0
 25 26  2  0
 26 27  1  0
 27 28  2  0
 27 29  1  0
 29 30  2  0
 30 31  1  0
 30 32  1  0
 32 33  1  0
 32 34  2  0
 10  5  1  0
 26 21  1  0
 15  9  1  0
 31 25  1  0
  1 35  1  0
  2 36  1  0
  3 37  1  0
  3 38  1  0
  6 39  1  0
  7 40  1  0
  8 41  1  0
 13 42  1  0
 17 43  1  0
 19 44  1  0
 19 45  1  0
 22 46  1  0
 23 47  1  0
 24 48  1  0
 29 49  1  0
 33 50  1  0
M  END
$$$$
