
     RDKit          3D

 53 54  0  0  0  0  0  0  0  0999 V2000
    5.5091    3.0578    0.6380 C   0  0  0  0  0  0  0  0  0  0  0  0
    6.0526    1.6553    0.3678 C   0  0  0  0  0  0  0  0  0  0  0  0
    5.3626    0.5685    1.2114 C   0  0  0  0  0  0  0  0  0  0  0  0
    3.8494    0.4255    0.9690 C   0  0  0  0  0  0  0  0  0  0  0  0
    3.5108   -0.0012   -0.4660 C   0  0  0  0  0  0  0  0  0  0  0  0
    2.0370   -0.2801   -0.5974 C   0  0  0  0  0  0  0  0  0  0  0  0
    1.5382   -1.5673   -0.3659 C   0  0  0  0  0  0  0  0  0  0  0  0
    0.1637   -1.8264   -0.4455 C   0  0  0  0  0  0  0  0  0  0  0  0
   -0.3035   -3.1183   -0.2014 O   0  0  0  0  0  0  0  0  0  0  0  0
   -0.7391   -0.7860   -0.7624 C   0  0  0  0  0  0  0  0  0  0  0  0
   -2.2396   -1.0592   -0.8026 C   0  0  2  0  0  0  0  0  0  0  0  0
   -2.8459   -0.5557   -2.0980 C   0  0  0  0  0  0  0  0  0  0  0  0
   -4.0807   -0.0150   -2.1746 C   0  0  0  0  0  0  0  0  0  0  0  0
   -4.6058    0.4163   -3.5164 C   0  0  0  0  0  0  0  0  0  0  0  0
   -4.9002    0.2861   -0.9360 C   0  0  0  0  0  0  0  0  0  0  0  0
   -4.4683   -0.5448    0.2765 C   0  0  0  0  0  0  0  0  0  0  0  0
   -2.9428   -0.4731    0.4490 C   0  0  1  0  0  0  0  0  0  0  0  0
   -2.4912   -1.1677    1.7299 C   0  0  0  0  0  0  0  0  0  0  0  0
   -1.7071   -0.4034    2.7650 C   0  0  0  0  0  0  0  0  0  0  0  0
   -2.7566   -2.4662    1.9538 C   0  0  0  0  0  0  0  0  0  0  0  0
   -0.2312    0.5188   -0.9696 C   0  0  0  0  0  0  0  0  0  0  0  0
   -1.0949    1.5772   -1.2540 O   0  0  0  0  0  0  0  0  0  0  0  0
    1.1460    0.7601   -0.8861 C   0  0  0  0  0  0  0  0  0  0  0  0
    6.1503    3.8066    0.1271 H   0  0  0  0  0  0  0  0  0  0  0  0
    4.4780    3.1611    0.2406 H   0  0  0  0  0  0  0  0  0  0  0  0
    5.5121    3.2736    1.7275 H   0  0  0  0  0  0  0  0  0  0  0  0
    7.1356    1.6490    0.6181 H   0  0  0  0  0  0  0  0  0  0  0  0
    5.9699    1.4229   -0.7145 H   0  0  0  0  0  0  0  0  0  0  0  0
    5.8546   -0.4068    1.0044 H   0  0  0  0  0  0  0  0  0  0  0  0
    5.5281    0.7918    2.2880 H   0  0  0  0  0  0  0  0  0  0  0  0
    3.4677   -0.3480    1.6715 H   0  0  0  0  0  0  0  0  0  0  0  0
    3.3280    1.3745    1.2172 H   0  0  0  0  0  0  0  0  0  0  0  0
    4.0929   -0.9094   -0.7370 H   0  0  0  0  0  0  0  0  0  0  0  0
    3.7938    0.8014   -1.1798 H   0  0  0  0  0  0  0  0  0  0  0  0
    2.2193   -2.3715   -0.1153 H   0  0  0  0  0  0  0  0  0  0  0  0
    0.3251   -3.8774    0.0338 H   0  0  0  0  0  0  0  0  0  0  0  0
   -2.4240   -2.1540   -0.8207 H   0  0  0  0  0  0  0  0  0  0  0  0
   -2.2912   -0.7351   -3.0163 H   0  0  0  0  0  0  0  0  0  0  0  0
   -4.7089   -0.4678   -4.1803 H   0  0  0  0  0  0  0  0  0  0  0  0
   -5.5996    0.9023   -3.4189 H   0  0  0  0  0  0  0  0  0  0  0  0
   -3.9054    1.1427   -3.9807 H   0  0  0  0  0  0  0  0  0  0  0  0
   -5.9740    0.0843   -1.1395 H   0  0  0  0  0  0  0  0  0  0  0  0
   -4.7951    1.3667   -0.6980 H   0  0  0  0  0  0  0  0  0  0  0  0
   -4.7962   -1.5968    0.1281 H   0  0  0  0  0  0  0  0  0  0  0  0
   -4.9721   -0.1491    1.1855 H   0  0  0  0  0  0  0  0  0  0  0  0
   -2.6844    0.6059    0.5233 H   0  0  0  0  0  0  0  0  0  0  0  0
   -0.7177   -0.8854    2.9156 H   0  0  0  0  0  0  0  0  0  0  0  0
   -1.5333    0.6483    2.4564 H   0  0  0  0  0  0  0  0  0  0  0  0
   -2.2608   -0.3985    3.7276 H   0  0  0  0  0  0  0  0  0  0  0  0
   -3.3036   -3.0646    1.2333 H   0  0  0  0  0  0  0  0  0  0  0  0
   -2.4209   -2.9516    2.8654 H   0  0  0  0  0  0  0  0  0  0  0  0
   -0.7533    2.5193   -1.4035 H   0  0  0  0  0  0  0  0  0  0  0  0
    1.5227    1.7642   -1.0402 H   0  0  0  0  0  0  0  0  0  0  0  0
  1  2  1  0
  2  3  1  0
  3  4  1  0
  4  5  1  0
  5  6  1  0
  6  7  2  0
  7  8  1  0
  8  9  1  0
  8 10  2  0
 10 11  1  0
 11 12  1  0
 12 13  2  0
 13 14  1  0
 13 15  1  0
 15 16  1  0
 16 17  1  0
 17 18  1  0
 18 19  1  0
 18 20  2  3
 10 21  1  0
 21 22  1  0
 21 23  2  0
 23  6  1  0
 17 11  1  0
  1 24  1  0
  1 25  1  0
  1 26  1  0
  2 27  1  0
  2 28  1  0
  3 29  1  0
  3 30  1  0
  4 31  1  0
  4 32  1  0
  5 33  1  0
  5 34  1  0
  7 35  1  0
  9 36  1  0
 11 37  1  1
 12 38  1  0
 14 39  1  0
 14 40  1  0
 14 41  1  0
 15 42  1  0
 15 43  1  0
 16 44  1  0
 16 45  1  0
 17 46  1  1
 19 47  1  0
 19 48  1  0
 19 49  1  0
 20 50  1  0
 20 51  1  0
 22 52  1  0
 23 53  1  0
M  END
$$$$
