
     RDKit          3D

 89 88  0  0  0  0  0  0  0  0999 V2000
   12.5191   -2.6447   -0.6732 C   0  0  0  0  0  0  0  0  0  0  0  0
   12.4278   -1.4786    0.3106 C   0  0  0  0  0  0  0  0  0  0  0  0
   11.0979   -1.4520    1.0794 C   0  0  0  0  0  0  0  0  0  0  0  0
    9.9094   -1.0595    0.1892 C   0  0  0  0  0  0  0  0  0  0  0  0
    8.6248   -0.9254    1.0160 C   0  0  0  0  0  0  0  0  0  0  0  0
    7.4374   -0.5265    0.1274 C   0  0  0  0  0  0  0  0  0  0  0  0
    6.0943   -0.5399    0.8787 C   0  0  0  0  0  0  0  0  0  0  0  0
    6.0043    0.4227    2.0818 C   0  0  0  0  0  0  0  0  0  0  0  0
    6.2861    1.9021    1.7583 C   0  0  0  0  0  0  0  0  0  0  0  0
    5.2885    2.5452    0.7768 C   0  0  0  0  0  0  0  0  0  0  0  0
    3.8734    2.7365    1.3705 C   0  0  0  0  0  0  0  0  0  0  0  0
    2.8522    1.6962    0.8786 C   0  0  0  0  0  0  0  0  0  0  0  0
    2.3610    1.9918   -0.5497 C   0  0  0  0  0  0  0  0  0  0  0  0
    1.4845    0.8645   -1.1176 C   0  0  0  0  0  0  0  0  0  0  0  0
    0.1206    0.7648   -0.4185 C   0  0  0  0  0  0  0  0  0  0  0  0
   -0.7740   -0.2748   -1.1013 C   0  0  0  0  0  0  0  0  0  0  0  0
   -1.9953   -0.4069   -0.3972 O   0  0  0  0  0  0  0  0  0  0  0  0
   -2.9982    0.4361   -0.9357 C   0  0  0  0  0  0  0  0  0  0  0  0
   -3.8328   -0.3239   -1.9777 C   0  0  2  0  0  0  0  0  0  0  0  0
   -4.9358    0.5737   -2.5585 C   0  0  0  0  0  0  0  0  0  0  0  0
   -5.8887    0.8547   -1.5600 O   0  0  0  0  0  0  0  0  0  0  0  0
   -7.1080    1.8418   -2.2314 P   0  0  1  0  0  5  0  0  0  0  0  0
   -6.4402    3.3204   -2.7107 O   0  0  0  0  0  1  0  0  0  0  0  0
   -7.7336    1.1671   -3.4331 O   0  0  0  0  0  0  0  0  0  0  0  0
   -8.3106    2.1426   -1.0597 O   0  0  0  0  0  0  0  0  0  0  0  0
   -8.7543    0.9063   -0.5495 C   0  0  0  0  0  0  0  0  0  0  0  0
   -9.8682    1.1715    0.4818 C   0  0  0  0  0  0  0  0  0  0  0  0
  -10.4467   -0.0470    1.1286 N   0  0  0  0  0  4  0  0  0  0  0  0
  -11.4920    0.3974    2.0830 C   0  0  0  0  0  0  0  0  0  0  0  0
   -9.4160   -0.7987    1.8852 C   0  0  0  0  0  0  0  0  0  0  0  0
  -11.0801   -0.9404    0.1287 C   0  0  0  0  0  0  0  0  0  0  0  0
   -4.4077   -1.4786   -1.3620 O   0  0  0  0  0  0  0  0  0  0  0  0
   -4.9637   -2.5435   -2.0792 C   0  0  0  0  0  0  0  0  0  0  0  0
   -5.6047   -3.6678   -1.3398 C   0  0  0  0  0  0  0  0  0  0  0  0
   -4.8858   -2.5871   -3.3370 O   0  0  0  0  0  0  0  0  0  0  0  0
   12.3213   -3.6072   -0.1553 H   0  0  0  0  0  0  0  0  0  0  0  0
   11.7957   -2.5158   -1.5046 H   0  0  0  0  0  0  0  0  0  0  0  0
   13.5404   -2.6813   -1.1075 H   0  0  0  0  0  0  0  0  0  0  0  0
   12.5755   -0.5200   -0.2327 H   0  0  0  0  0  0  0  0  0  0  0  0
   13.2557   -1.5785    1.0457 H   0  0  0  0  0  0  0  0  0  0  0  0
   11.1927   -0.7083    1.9010 H   0  0  0  0  0  0  0  0  0  0  0  0
   10.9117   -2.4452    1.5441 H   0  0  0  0  0  0  0  0  0  0  0  0
    9.7558   -1.8353   -0.5909 H   0  0  0  0  0  0  0  0  0  0  0  0
   10.1257   -0.0897   -0.3109 H   0  0  0  0  0  0  0  0  0  0  0  0
    8.7814   -0.1506    1.7968 H   0  0  0  0  0  0  0  0  0  0  0  0
    8.4052   -1.8953    1.5141 H   0  0  0  0  0  0  0  0  0  0  0  0
    7.3586   -1.2515   -0.7123 H   0  0  0  0  0  0  0  0  0  0  0  0
    7.6158    0.4718   -0.3252 H   0  0  0  0  0  0  0  0  0  0  0  0
    5.9023   -1.5720    1.2449 H   0  0  0  0  0  0  0  0  0  0  0  0
    5.2852   -0.3124    0.1547 H   0  0  0  0  0  0  0  0  0  0  0  0
    4.9959    0.3332    2.5374 H   0  0  0  0  0  0  0  0  0  0  0  0
    6.7178    0.0912    2.8656 H   0  0  0  0  0  0  0  0  0  0  0  0
    6.2783    2.4784    2.7091 H   0  0  0  0  0  0  0  0  0  0  0  0
    7.3136    2.0060    1.3517 H   0  0  0  0  0  0  0  0  0  0  0  0
    5.2686    1.9795   -0.1766 H   0  0  0  0  0  0  0  0  0  0  0  0
    5.6872    3.5515    0.5222 H   0  0  0  0  0  0  0  0  0  0  0  0
    3.5017    3.7528    1.1124 H   0  0  0  0  0  0  0  0  0  0  0  0
    3.9146    2.6992    2.4810 H   0  0  0  0  0  0  0  0  0  0  0  0
    3.2837    0.6765    0.9324 H   0  0  0  0  0  0  0  0  0  0  0  0
    1.9822    1.7257    1.5685 H   0  0  0  0  0  0  0  0  0  0  0  0
    3.2322    2.1137   -1.2269 H   0  0  0  0  0  0  0  0  0  0  0  0
    1.7955    2.9494   -0.5621 H   0  0  0  0  0  0  0  0  0  0  0  0
    2.0227   -0.1056   -1.0383 H   0  0  0  0  0  0  0  0  0  0  0  0
    1.3198    1.0706   -2.1980 H   0  0  0  0  0  0  0  0  0  0  0  0
    0.2606    0.4660    0.6420 H   0  0  0  0  0  0  0  0  0  0  0  0
   -0.3818    1.7558   -0.4422 H   0  0  0  0  0  0  0  0  0  0  0  0
   -0.9129   -0.0265   -2.1801 H   0  0  0  0  0  0  0  0  0  0  0  0
   -0.2597   -1.2591   -1.0706 H   0  0  0  0  0  0  0  0  0  0  0  0
   -3.6619    0.7446   -0.0999 H   0  0  0  0  0  0  0  0  0  0  0  0
   -2.5892    1.3787   -1.3706 H   0  0  0  0  0  0  0  0  0  0  0  0
   -3.1579   -0.6395   -2.8038 H   0  0  0  0  0  0  0  0  0  0  0  0
   -4.4728    1.5104   -2.9447 H   0  0  0  0  0  0  0  0  0  0  0  0
   -5.4076    0.0340   -3.4097 H   0  0  0  0  0  0  0  0  0  0  0  0
   -9.1587    0.2804   -1.3740 H   0  0  0  0  0  0  0  0  0  0  0  0
   -7.9108    0.3845   -0.0497 H   0  0  0  0  0  0  0  0  0  0  0  0
   -9.4491    1.8505    1.2600 H   0  0  0  0  0  0  0  0  0  0  0  0
  -10.6727    1.7449   -0.0343 H   0  0  0  0  0  0  0  0  0  0  0  0
  -11.9649   -0.4680    2.6002 H   0  0  0  0  0  0  0  0  0  0  0  0
  -12.2994    0.9584    1.5604 H   0  0  0  0  0  0  0  0  0  0  0  0
  -11.0630    1.0630    2.8658 H   0  0  0  0  0  0  0  0  0  0  0  0
   -8.6877   -1.2929    1.2070 H   0  0  0  0  0  0  0  0  0  0  0  0
   -9.8780   -1.6077    2.4948 H   0  0  0  0  0  0  0  0  0  0  0  0
   -8.8563   -0.1271    2.5736 H   0  0  0  0  0  0  0  0  0  0  0  0
  -11.7894   -0.3773   -0.5181 H   0  0  0  0  0  0  0  0  0  0  0  0
  -11.6458   -1.7602    0.6262 H   0  0  0  0  0  0  0  0  0  0  0  0
  -10.3239   -1.4296   -0.5219 H   0  0  0  0  0  0  0  0  0  0  0  0
   -4.8542   -4.4640   -1.1545 H   0  0  0  0  0  0  0  0  0  0  0  0
   -6.4453   -4.0858   -1.9330 H   0  0  0  0  0  0  0  0  0  0  0  0
   -5.9991   -3.3042   -0.3678 H   0  0  0  0  0  0  0  0  0  0  0  0
  1  2  1  0
  2  3  1  0
  3  4  1  0
  4  5  1  0
  5  6  1  0
  6  7  1  0
  7  8  1  0
  8  9  1  0
  9 10  1  0
 10 11  1  0
 11 12  1  0
 12 13  1  0
 13 14  1  0
 14 15  1  0
 15 16  1  0
 16 17  1  0
 17 18  1  0
 18 19  1  0
 19 20  1  0
 20 21  1  0
 21 22  1  0
 22 23  1  6
 22 24  2  0
 22 25  1  0
 25 26  1  0
 26 27  1  0
 27 28  1  0
 28 29  1  0
 28 30  1  0
 28 31  1  0
 19 32  1  0
 32 33  1  0
 33 34  1  0
 33 35  2  0
  1 36  1  0
  1 37  1  0
  1 38  1  0
  2 39  1  0
  2 40  1  0
  3 41  1  0
  3 42  1  0
  4 43  1  0
  4 44  1  0
  5 45  1  0
  5 46  1  0
  6 47  1  0
  6 48  1  0
  7 49  1  0
  7 50  1  0
  8 51  1  0
  8 52  1  0
  9 53  1  0
  9 54  1  0
 10 55  1  0
 10 56  1  0
 11 57  1  0
 11 58  1  0
 12 59  1  0
 12 60  1  0
 13 61  1  0
 13 62  1  0
 14 63  1  0
 14 64  1  0
 15 65  1  0
 15 66  1  0
 16 67  1  0
 16 68  1  0
 18 69  1  0
 18 70  1  0
 19 71  1  6
 20 72  1  0
 20 73  1  0
 26 74  1  0
 26 75  1  0
 27 76  1  0
 27 77  1  0
 29 78  1  0
 29 79  1  0
 29 80  1  0
 30 81  1  0
 30 82  1  0
 30 83  1  0
 31 84  1  0
 31 85  1  0
 31 86  1  0
 34 87  1  0
 34 88  1  0
 34 89  1  0
M  CHG  2  23  -1  28   1
M  END
$$$$
