
     RDKit          3D

123128  0  0  0  0  0  0  0  0999 V2000
   -4.8197   -6.2393   -2.0287 C   0  0  0  0  0  0  0  0  0  0  0  0
   -4.3913   -4.9096   -2.2300 O   0  0  0  0  0  0  0  0  0  0  0  0
   -4.5396   -4.1395   -1.0418 C   0  0  1  0  0  0  0  0  0  0  0  0
   -3.1908   -3.9734   -0.3681 C   0  0  0  0  0  0  0  0  0  0  0  0
   -2.0450   -4.5205   -0.8204 C   0  0  0  0  0  0  0  0  0  0  0  0
   -0.7745   -4.0616   -0.4187 O   0  0  0  0  0  0  0  0  0  0  0  0
   -0.4948   -2.6827   -0.1475 C   0  0  1  0  0  0  0  0  0  0  0  0
   -0.9193   -1.7900   -1.3288 C   0  0  0  0  0  0  0  0  0  0  0  0
   -1.0937   -2.2909    1.0940 O   0  0  0  0  0  0  0  0  0  0  0  0
   -0.1556   -1.6970    1.9309 C   0  0  0  0  0  0  0  0  0  0  0  0
    1.0767   -1.6443    1.3401 C   0  0  0  0  0  0  0  0  0  0  0  0
    0.9577   -2.4215    0.1113 C   0  0  0  0  0  0  0  0  0  0  0  0
    1.9086   -2.8324   -0.6049 O   0  0  0  0  0  0  0  0  0  0  0  0
    2.0506   -0.7491    1.8045 C   0  0  0  0  0  0  0  0  0  0  0  0
    1.8012   -0.0601    3.0266 C   0  0  0  0  0  0  0  0  0  0  0  0
    0.6021   -0.3035    3.7479 C   0  0  0  0  0  0  0  0  0  0  0  0
    0.3925    0.3477    4.9676 O   0  0  0  0  0  0  0  0  0  0  0  0
   -0.3904   -1.1514    3.1978 C   0  0  0  0  0  0  0  0  0  0  0  0
   -1.6604   -1.4578    3.9385 C   0  0  0  0  0  0  0  0  0  0  0  0
    2.7361    1.0321    3.4371 C   0  0  0  0  0  0  0  0  0  0  0  0
    2.7522    1.4638    4.6210 O   0  0  0  0  0  0  0  0  0  0  0  0
    3.6519    1.6212    2.4316 C   0  0  0  0  0  0  0  0  0  0  0  0
    4.1332    2.9645    2.5605 N   0  0  0  0  0  0  0  0  0  0  0  0
    3.2276    4.0796    2.5659 C   0  0  0  0  0  0  0  0  0  0  0  0
    3.5053    5.0997    1.8813 O   0  0  0  0  0  0  0  0  0  0  0  0
    2.0383    4.1198    3.4428 C   0  0  0  0  0  0  0  0  0  0  0  0
    2.1866    4.7903    4.7776 C   0  0  0  0  0  0  0  0  0  0  0  0
    0.8128    3.7339    3.0388 C   0  0  0  0  0  0  0  0  0  0  0  0
    0.5342    3.0422    1.7634 C   0  0  0  0  0  0  0  0  0  0  0  0
   -0.7272    2.8015    1.3763 C   0  0  0  0  0  0  0  0  0  0  0  0
   -1.0491    1.9614    0.1551 C   0  0  2  0  0  0  0  0  0  0  0  0
   -0.4116    2.5592   -1.1117 C   0  0  0  0  0  0  0  0  0  0  0  0
   -2.5851    1.7366   -0.0697 C   0  0  2  0  0  0  0  0  0  0  0  0
   -3.2397    2.9330   -0.4271 O   0  0  0  0  0  0  0  0  0  0  0  0
   -3.3047    0.9854    1.1132 C   0  0  1  0  0  0  0  0  0  0  0  0
   -4.3319    1.8549    1.8706 C   0  0  0  0  0  0  0  0  0  0  0  0
   -3.8734   -0.4296    0.7170 C   0  0  1  0  0  0  0  0  0  0  0  0
   -3.8231   -1.2636    1.8444 O   0  0  0  0  0  0  0  0  0  0  0  0
   -5.3012   -0.4900    0.0707 C   0  0  1  0  0  0  0  0  0  0  0  0
   -5.4190    0.3763   -1.1970 C   0  0  0  0  0  0  0  0  0  0  0  0
   -5.8204   -1.9553   -0.2002 C   0  0  2  0  0  0  0  0  0  0  0  0
   -5.7842   -2.7359    0.9987 O   0  0  0  0  0  0  0  0  0  0  0  0
   -6.6928   -2.5968    2.0548 C   0  0  0  0  0  0  0  0  0  0  0  0
   -6.5243   -3.4335    3.2762 C   0  0  0  0  0  0  0  0  0  0  0  0
   -7.6705   -1.8050    1.9699 O   0  0  0  0  0  0  0  0  0  0  0  0
   -5.1185   -2.7182   -1.3984 C   0  0  2  0  0  0  0  0  0  0  0  0
   -6.0961   -2.8151   -2.5901 C   0  0  0  0  0  0  0  0  0  0  0  0
    3.8946    0.9166    1.3215 C   0  0  0  0  0  0  0  0  0  0  0  0
    4.6570    1.3153    0.1990 N   0  0  0  0  0  0  0  0  0  0  0  0
    4.3989    0.3111   -0.8412 C   0  0  0  0  0  0  0  0  0  0  0  0
    3.7912    0.9813   -2.0976 C   0  0  0  0  0  0  0  0  0  0  0  0
    4.8447    1.3128   -3.1694 C   0  0  0  0  0  0  0  0  0  0  0  0
    6.1426    1.6194   -2.5420 N   0  0  0  0  0  0  0  0  0  0  0  0
    6.7477    0.4868   -1.8042 C   0  0  0  0  0  0  0  0  0  0  0  0
    5.6918   -0.4479   -1.1810 C   0  0  0  0  0  0  0  0  0  0  0  0
    7.1010    2.3685   -3.3898 C   0  0  0  0  0  0  0  0  0  0  0  0
    7.2034    1.9171   -4.8769 C   0  0  0  0  0  0  0  0  0  0  0  0
    7.7721    0.5004   -5.0357 C   0  0  0  0  0  0  0  0  0  0  0  0
    8.0835    2.9090   -5.6509 C   0  0  0  0  0  0  0  0  0  0  0  0
    3.4168   -0.6117   -0.2480 N   0  0  0  0  0  0  0  0  0  0  0  0
    3.1770   -0.2742    0.9756 C   0  0  0  0  0  0  0  0  0  0  0  0
   -4.5993   -6.8256   -2.9440 H   0  0  0  0  0  0  0  0  0  0  0  0
   -4.2778   -6.7148   -1.1809 H   0  0  0  0  0  0  0  0  0  0  0  0
   -5.9181   -6.2751   -1.8573 H   0  0  0  0  0  0  0  0  0  0  0  0
   -5.2327   -4.6260   -0.3151 H   0  0  0  0  0  0  0  0  0  0  0  0
   -3.1567   -3.2944    0.4638 H   0  0  0  0  0  0  0  0  0  0  0  0
   -2.0723   -5.3114   -1.5568 H   0  0  0  0  0  0  0  0  0  0  0  0
   -1.9855   -1.9118   -1.5811 H   0  0  0  0  0  0  0  0  0  0  0  0
   -0.7300   -0.7231   -1.1112 H   0  0  0  0  0  0  0  0  0  0  0  0
   -0.3378   -2.0652   -2.2348 H   0  0  0  0  0  0  0  0  0  0  0  0
   -0.4649    0.2729    5.4994 H   0  0  0  0  0  0  0  0  0  0  0  0
   -2.2057   -2.3024    3.4690 H   0  0  0  0  0  0  0  0  0  0  0  0
   -1.4258   -1.7726    4.9768 H   0  0  0  0  0  0  0  0  0  0  0  0
   -2.3098   -0.5586    3.9663 H   0  0  0  0  0  0  0  0  0  0  0  0
    5.1093    3.1573    2.2411 H   0  0  0  0  0  0  0  0  0  0  0  0
    1.5850    4.2620    5.5482 H   0  0  0  0  0  0  0  0  0  0  0  0
    1.8447    5.8441    4.7050 H   0  0  0  0  0  0  0  0  0  0  0  0
    3.2480    4.7786    5.1056 H   0  0  0  0  0  0  0  0  0  0  0  0
   -0.0250    3.9025    3.7073 H   0  0  0  0  0  0  0  0  0  0  0  0
    1.3584    2.6816    1.1631 H   0  0  0  0  0  0  0  0  0  0  0  0
   -1.5378    3.1662    1.9930 H   0  0  0  0  0  0  0  0  0  0  0  0
   -0.5836    0.9688    0.3282 H   0  0  0  0  0  0  0  0  0  0  0  0
   -0.6849    1.9564   -2.0038 H   0  0  0  0  0  0  0  0  0  0  0  0
    0.6958    2.5517   -1.0398 H   0  0  0  0  0  0  0  0  0  0  0  0
   -0.7539    3.6046   -1.2666 H   0  0  0  0  0  0  0  0  0  0  0  0
   -2.6516    1.0859   -0.9665 H   0  0  0  0  0  0  0  0  0  0  0  0
   -3.0158    3.6259    0.2446 H   0  0  0  0  0  0  0  0  0  0  0  0
   -2.5145    0.7720    1.8664 H   0  0  0  0  0  0  0  0  0  0  0  0
   -5.1532    2.1917    1.2077 H   0  0  0  0  0  0  0  0  0  0  0  0
   -3.8392    2.7527    2.2963 H   0  0  0  0  0  0  0  0  0  0  0  0
   -4.7742    1.2995    2.7221 H   0  0  0  0  0  0  0  0  0  0  0  0
   -3.1745   -0.8697   -0.0107 H   0  0  0  0  0  0  0  0  0  0  0  0
   -4.4696   -0.9173    2.5112 H   0  0  0  0  0  0  0  0  0  0  0  0
   -6.0080   -0.0490    0.8061 H   0  0  0  0  0  0  0  0  0  0  0  0
   -5.3042    1.4494   -0.9562 H   0  0  0  0  0  0  0  0  0  0  0  0
   -4.6534    0.1052   -1.9516 H   0  0  0  0  0  0  0  0  0  0  0  0
   -6.4268    0.2618   -1.6479 H   0  0  0  0  0  0  0  0  0  0  0  0
   -6.8981   -1.8460   -0.4629 H   0  0  0  0  0  0  0  0  0  0  0  0
   -5.4586   -3.7236    3.3904 H   0  0  0  0  0  0  0  0  0  0  0  0
   -6.8382   -2.8634    4.1759 H   0  0  0  0  0  0  0  0  0  0  0  0
   -7.1442   -4.3493    3.1856 H   0  0  0  0  0  0  0  0  0  0  0  0
   -4.2716   -2.1082   -1.7699 H   0  0  0  0  0  0  0  0  0  0  0  0
   -6.5290   -1.8216   -2.8283 H   0  0  0  0  0  0  0  0  0  0  0  0
   -6.9236   -3.5184   -2.3546 H   0  0  0  0  0  0  0  0  0  0  0  0
   -5.5725   -3.1625   -3.5059 H   0  0  0  0  0  0  0  0  0  0  0  0
    5.2286    2.1837    0.1004 H   0  0  0  0  0  0  0  0  0  0  0  0
    3.0323    0.3099   -2.5570 H   0  0  0  0  0  0  0  0  0  0  0  0
    3.2567    1.9115   -1.8023 H   0  0  0  0  0  0  0  0  0  0  0  0
    4.4812    2.1860   -3.7548 H   0  0  0  0  0  0  0  0  0  0  0  0
    4.9473    0.4469   -3.8593 H   0  0  0  0  0  0  0  0  0  0  0  0
    7.3703    0.9037   -0.9830 H   0  0  0  0  0  0  0  0  0  0  0  0
    7.4223   -0.1127   -2.4454 H   0  0  0  0  0  0  0  0  0  0  0  0
    5.4535   -1.2601   -1.9033 H   0  0  0  0  0  0  0  0  0  0  0  0
    6.1085   -0.9255   -0.2670 H   0  0  0  0  0  0  0  0  0  0  0  0
    6.7837    3.4338   -3.3735 H   0  0  0  0  0  0  0  0  0  0  0  0
    8.1139    2.3530   -2.9276 H   0  0  0  0  0  0  0  0  0  0  0  0
    6.2010    1.9467   -5.3538 H   0  0  0  0  0  0  0  0  0  0  0  0
    7.0484   -0.2562   -4.6727 H   0  0  0  0  0  0  0  0  0  0  0  0
    7.9565    0.2764   -6.1083 H   0  0  0  0  0  0  0  0  0  0  0  0
    8.7311    0.3972   -4.4842 H   0  0  0  0  0  0  0  0  0  0  0  0
    8.1293    2.6295   -6.7254 H   0  0  0  0  0  0  0  0  0  0  0  0
    9.1159    2.9213   -5.2394 H   0  0  0  0  0  0  0  0  0  0  0  0
    7.6592    3.9337   -5.5854 H   0  0  0  0  0  0  0  0  0  0  0  0
  1  2  1  0
  2  3  1  0
  3  4  1  0
  4  5  2  0
  5  6  1  0
  6  7  1  0
  7  8  1  6
  7  9  1  0
  9 10  1  0
 10 11  2  0
 11 12  1  0
 12 13  2  0
 11 14  1  0
 14 15  2  0
 15 16  1  0
 16 17  1  0
 16 18  2  0
 18 19  1  0
 15 20  1  0
 20 21  2  0
 20 22  1  0
 22 23  1  0
 23 24  1  0
 24 25  2  0
 24 26  1  0
 26 27  1  0
 26 28  2  0
 28 29  1  0
 29 30  2  0
 30 31  1  0
 31 32  1  0
 31 33  1  0
 33 34  1  0
 33 35  1  0
 35 36  1  0
 35 37  1  0
 37 38  1  0
 37 39  1  0
 39 40  1  0
 39 41  1  0
 41 42  1  0
 42 43  1  0
 43 44  1  0
 43 45  2  0
 41 46  1  0
 46 47  1  0
 22 48  2  0
 48 49  1  0
 49 50  1  0
 50 51  1  0
 51 52  1  0
 52 53  1  0
 53 54  1  0
 54 55  1  0
 53 56  1  0
 56 57  1  0
 57 58  1  0
 57 59  1  0
 50 60  1  0
 60 61  2  0
 46  3  1  0
 61 48  1  0
 12  7  1  0
 61 14  1  0
 18 10  1  0
 55 50  1  0
  1 62  1  0
  1 63  1  0
  1 64  1  0
  3 65  1  1
  4 66  1  0
  5 67  1  0
  8 68  1  0
  8 69  1  0
  8 70  1  0
 17 71  1  0
 19 72  1  0
 19 73  1  0
 19 74  1  0
 23 75  1  0
 27 76  1  0
 27 77  1  0
 27 78  1  0
 28 79  1  0
 29 80  1  0
 30 81  1  0
 31 82  1  1
 32 83  1  0
 32 84  1  0
 32 85  1  0
 33 86  1  6
 34 87  1  0
 35 88  1  1
 36 89  1  0
 36 90  1  0
 36 91  1  0
 37 92  1  6
 38 93  1  0
 39 94  1  1
 40 95  1  0
 40 96  1  0
 40 97  1  0
 41 98  1  6
 44 99  1  0
 44100  1  0
 44101  1  0
 46102  1  6
 47103  1  0
 47104  1  0
 47105  1  0
 49106  1  0
 51107  1  0
 51108  1  0
 52109  1  0
 52110  1  0
 54111  1  0
 54112  1  0
 55113  1  0
 55114  1  0
 56115  1  0
 56116  1  0
 57117  1  0
 58118  1  0
 58119  1  0
 58120  1  0
 59121  1  0
 59122  1  0
 59123  1  0
M  END
$$$$
