
     RDKit          2D

119118  0  0  0  0  0  0  0  0999 V2000
    0.0000    8.2698    0.0000 O   0  0  0  0  0  0  0  0  0  0  0  0
    0.0000   10.0198    0.0000 O   0  0  0  0  0  0  0  0  0  0  0  0
    1.2990   10.7698    0.0000 Al  0  0  0  0  0  3  0  0  0  0  0  0
    2.5981   10.0198    0.0000 O   0  0  0  0  0  0  0  0  0  0  0  0
    1.2990   12.2698    0.0000 O   0  0  0  0  0  0  0  0  0  0  0  0
   -2.6845   -9.6599    0.0000 O   0  0  0  0  0  0  0  0  0  0  0  0
   -1.1882   -9.5552    0.0000 Al  0  0  0  0  0  3  0  0  0  0  0  0
   -0.3494  -10.7988    0.0000 O   0  0  0  0  0  0  0  0  0  0  0  0
   -0.5306   -8.2070    0.0000 O   0  0  0  0  0  0  0  0  0  0  0  0
    0.9657   -8.1024    0.0000 S   0  0  0  0  0  6  0  0  0  0  0  0
    1.0704   -9.5988    0.0000 O   0  0  0  0  0  0  0  0  0  0  0  0
    0.8611   -6.6061    0.0000 O   0  0  0  0  0  0  0  0  0  0  0  0
    2.4621   -7.9978    0.0000 O   0  0  0  0  0  0  0  0  0  0  0  0
    3.1196   -6.6496    0.0000 C   0  0  0  0  0  0  0  0  0  0  0  0
    3.7772   -5.3014    0.0000 C   0  0  0  0  0  0  0  0  0  0  0  0
    2.3677   -4.7884    0.0000 O   0  0  0  0  0  0  0  0  0  0  0  0
    2.4200   -3.2893    0.0000 C   0  0  0  0  0  0  0  0  0  0  0  0
    0.9237   -3.3939    0.0000 C   0  0  0  0  0  0  0  0  0  0  0  0
   -0.5727   -3.4985    0.0000 O   0  0  0  0  0  0  0  0  0  0  0  0
   -1.2302   -4.8467    0.0000 S   0  0  0  0  0  6  0  0  0  0  0  0
    0.1180   -5.5043    0.0000 O   0  0  0  0  0  0  0  0  0  0  0  0
   -2.6975   -4.5350    0.0000 O   0  0  0  0  0  0  0  0  0  0  0  0
   -1.8878   -6.1949    0.0000 O   0  0  0  0  0  0  0  0  0  0  0  0
   -3.3841   -6.2996    0.0000 Al  0  0  0  0  0  3  0  0  0  0  0  0
   -4.0417   -7.6478    0.0000 O   0  0  0  0  0  0  0  0  0  0  0  0
   -4.2229   -5.0560    0.0000 O   0  0  0  0  0  0  0  0  0  0  0  0
    2.1595   -1.8121    0.0000 O   0  0  0  0  0  0  0  0  0  0  0  0
    0.7500   -1.2990    0.0000 C   0  0  0  0  0  0  0  0  0  0  0  0
    1.5000    0.0000    0.0000 O   0  0  0  0  0  0  0  0  0  0  0  0
    0.7500    1.2990    0.0000 C   0  0  0  0  0  0  0  0  0  0  0  0
    0.4895    2.7762    0.0000 C   0  0  0  0  0  0  0  0  0  0  0  0
    0.2291    4.2535    0.0000 O   0  0  0  0  0  0  0  0  0  0  0  0
    1.3781    5.2176    0.0000 S   0  0  0  0  0  6  0  0  0  0  0  0
    2.3423    4.0686    0.0000 O   0  0  0  0  0  0  0  0  0  0  0  0
    0.4139    6.3667    0.0000 O   0  0  0  0  0  0  0  0  0  0  0  0
    2.5272    6.1818    0.0000 O   0  0  0  0  0  0  0  0  0  0  0  0
    3.9367    5.6688    0.0000 Al  0  0  0  0  0  3  0  0  0  0  0  0
    5.0858    6.6330    0.0000 O   0  0  0  0  0  0  0  0  0  0  0  0
    4.1972    4.1916    0.0000 O   0  0  0  0  0  0  0  0  0  0  0  0
   -0.7500    1.2990    0.0000 C   0  0  0  0  0  0  0  0  0  0  0  0
   -2.1595    1.8121    0.0000 O   0  0  0  0  0  0  0  0  0  0  0  0
   -2.4200    3.2893    0.0000 S   0  0  0  0  0  6  0  0  0  0  0  0
   -0.9856    3.7279    0.0000 O   0  0  0  0  0  0  0  0  0  0  0  0
   -3.8972    3.0288    0.0000 O   0  0  0  0  0  0  0  0  0  0  0  0
   -2.6805    4.7665    0.0000 O   0  0  0  0  0  0  0  0  0  0  0  0
   -4.0900    5.2795    0.0000 Al  0  0  0  0  0  3  0  0  0  0  0  0
   -4.3505    6.7567    0.0000 O   0  0  0  0  0  0  0  0  0  0  0  0
   -5.2391    4.3153    0.0000 O   0  0  0  0  0  0  0  0  0  0  0  0
   -1.5000   -0.0000    0.0000 C   0  0  0  0  0  0  0  0  0  0  0  0
   -2.6491   -0.9642    0.0000 O   0  0  0  0  0  0  0  0  0  0  0  0
   -4.0586   -0.4512    0.0000 S   0  0  0  0  0  6  0  0  0  0  0  0
   -3.7212    1.0104    0.0000 O   0  0  0  0  0  0  0  0  0  0  0  0
   -4.5716   -1.8607    0.0000 O   0  0  0  0  0  0  0  0  0  0  0  0
   -5.4681    0.0619    0.0000 O   0  0  0  0  0  0  0  0  0  0  0  0
   -6.6172   -0.9023    0.0000 Al  0  0  0  0  0  3  0  0  0  0  0  0
   -8.0268   -0.3893    0.0000 O   0  0  0  0  0  0  0  0  0  0  0  0
   -6.3567   -2.3795    0.0000 O   0  0  0  0  0  0  0  0  0  0  0  0
   -0.7500   -1.2990    0.0000 C   0  0  0  0  0  0  0  0  0  0  0  0
   -0.4895   -2.7762    0.0000 O   0  0  0  0  0  0  0  0  0  0  0  0
   -1.6386   -3.7404    0.0000 S   0  0  0  0  0  6  0  0  0  0  0  0
   -2.7357   -2.7175    0.0000 O   0  0  0  0  0  0  0  0  0  0  0  0
   -0.9811   -5.0887    0.0000 O   0  0  0  0  0  0  0  0  0  0  0  0
   -2.7877   -4.7046    0.0000 O   0  0  0  0  0  0  0  0  0  0  0  0
   -2.5272   -6.1818    0.0000 Al  0  0  0  0  0  3  0  0  0  0  0  0
   -3.6763   -7.1460    0.0000 O   0  0  0  0  0  0  0  0  0  0  0  0
   -1.1176   -6.6949    0.0000 O   0  0  0  0  0  0  0  0  0  0  0  0
    3.8619   -2.8758    0.0000 C   0  0  0  0  0  0  0  0  0  0  0  0
    5.1863   -2.1716    0.0000 O   0  0  0  0  0  0  0  0  0  0  0  0
    5.2387   -0.6725    0.0000 S   0  0  0  0  0  6  0  0  0  0  0  0
    3.7396   -0.6202    0.0000 O   0  0  0  0  0  0  0  0  0  0  0  0
    6.7378   -0.7249    0.0000 O   0  0  0  0  0  0  0  0  0  0  0  0
    5.2910    0.8266    0.0000 O   0  0  0  0  0  0  0  0  0  0  0  0
    6.6154    1.5308    0.0000 Al  0  0  0  0  0  3  0  0  0  0  0  0
    6.6678    3.0298    0.0000 O   0  0  0  0  0  0  0  0  0  0  0  0
    7.8875    0.7359    0.0000 O   0  0  0  0  0  0  0  0  0  0  0  0
    4.7007   -4.1194    0.0000 C   0  0  0  0  0  0  0  0  0  0  0  0
    5.7797   -5.1614    0.0000 O   0  0  0  0  0  0  0  0  0  0  0  0
    7.2216   -4.7479    0.0000 S   0  0  0  0  0  6  0  0  0  0  0  0
    6.8081   -3.3060    0.0000 O   0  0  0  0  0  0  0  0  0  0  0  0
    7.6351   -6.1898    0.0000 O   0  0  0  0  0  0  0  0  0  0  0  0
    8.6635   -4.3345    0.0000 O   0  0  0  0  0  0  0  0  0  0  0  0
    9.7425   -5.3764    0.0000 Al  0  0  0  0  0  3  0  0  0  0  0  0
   11.1844   -4.9630    0.0000 O   0  0  0  0  0  0  0  0  0  0  0  0
    9.3796   -6.8319    0.0000 O   0  0  0  0  0  0  0  0  0  0  0  0
    1.2990    9.0198    0.0000 H   0  0  0  0  0  0  0  0  0  0  0  0
   -1.2990    9.0198    0.0000 H   0  0  0  0  0  0  0  0  0  0  0  0
   -1.2990   10.7698    0.0000 H   0  0  0  0  0  0  0  0  0  0  0  0
    3.8971   10.7698    0.0000 H   0  0  0  0  0  0  0  0  0  0  0  0
    2.5981   13.0198    0.0000 H   0  0  0  0  0  0  0  0  0  0  0  0
   -3.3421  -11.0081    0.0000 H   0  0  0  0  0  0  0  0  0  0  0  0
   -1.0069  -12.1470    0.0000 H   0  0  0  0  0  0  0  0  0  0  0  0
    4.4678   -7.3071    0.0000 H   0  0  0  0  0  0  0  0  0  0  0  0
    1.7715   -5.9920    0.0000 H   0  0  0  0  0  0  0  0  0  0  0  0
    5.0493   -6.0963    0.0000 H   0  0  0  0  0  0  0  0  0  0  0  0
    1.0283   -4.8903    0.0000 H   0  0  0  0  0  0  0  0  0  0  0  0
    0.4601   -1.9674    0.0000 H   0  0  0  0  0  0  0  0  0  0  0  0
   -5.5380   -7.7524    0.0000 H   0  0  0  0  0  0  0  0  0  0  0  0
   -5.7193   -5.1606    0.0000 H   0  0  0  0  0  0  0  0  0  0  0  0
    0.1398   -2.6693    0.0000 H   0  0  0  0  0  0  0  0  0  0  0  0
    2.1595    1.8121    0.0000 H   0  0  0  0  0  0  0  0  0  0  0  0
    1.9667    3.0367    0.0000 H   0  0  0  0  0  0  0  0  0  0  0  0
   -1.0084    2.6978    0.0000 H   0  0  0  0  0  0  0  0  0  0  0  0
    6.4953    6.1199    0.0000 H   0  0  0  0  0  0  0  0  0  0  0  0
    5.6067    3.6786    0.0000 H   0  0  0  0  0  0  0  0  0  0  0  0
   -0.4895    2.7762    0.0000 H   0  0  0  0  0  0  0  0  0  0  0  0
   -5.7600    7.2698    0.0000 H   0  0  0  0  0  0  0  0  0  0  0  0
   -6.6486    4.8284    0.0000 H   0  0  0  0  0  0  0  0  0  0  0  0
   -2.5230    1.0971    0.0000 H   0  0  0  0  0  0  0  0  0  0  0  0
   -9.1758   -1.3535    0.0000 H   0  0  0  0  0  0  0  0  0  0  0  0
   -7.5058   -3.3437    0.0000 H   0  0  0  0  0  0  0  0  0  0  0  0
   -2.2116   -1.6364    0.0000 H   0  0  0  0  0  0  0  0  0  0  0  0
   -3.4158   -8.6232    0.0000 H   0  0  0  0  0  0  0  0  0  0  0  0
   -1.2224   -8.1912    0.0000 H   0  0  0  0  0  0  0  0  0  0  0  0
    3.3000   -1.4850    0.0000 H   0  0  0  0  0  0  0  0  0  0  0  0
    7.9922    3.7341    0.0000 H   0  0  0  0  0  0  0  0  0  0  0  0
    9.2119    1.4401    0.0000 H   0  0  0  0  0  0  0  0  0  0  0  0
    5.8498   -3.1552    0.0000 H   0  0  0  0  0  0  0  0  0  0  0  0
   12.2634   -6.0050    0.0000 H   0  0  0  0  0  0  0  0  0  0  0  0
   10.4586   -7.8739    0.0000 H   0  0  0  0  0  0  0  0  0  0  0  0
  2  3  1  0
  3  4  1  0
  3  5  1  0
  6  7  1  0
  7  8  1  0
  7  9  1  0
  9 10  1  0
 10 11  2  0
 10 12  2  0
 10 13  1  0
 13 14  1  0
 14 15  1  0
 15 16  1  0
 16 17  1  0
 17 18  1  0
 18 19  1  0
 19 20  1  0
 20 21  2  0
 20 22  2  0
 20 23  1  0
 23 24  1  0
 24 25  1  0
 24 26  1  0
 17 27  1  1
 27 28  1  0
 28 29  1  0
 29 30  1  0
 30 31  1  0
 31 32  1  0
 32 33  1  0
 33 34  2  0
 33 35  2  0
 33 36  1  0
 36 37  1  0
 37 38  1  0
 37 39  1  0
 30 40  1  0
 40 41  1  0
 41 42  1  0
 42 43  2  0
 42 44  2  0
 42 45  1  0
 45 46  1  0
 46 47  1  0
 46 48  1  0
 40 49  1  0
 49 50  1  0
 50 51  1  0
 51 52  2  0
 51 53  2  0
 51 54  1  0
 54 55  1  0
 55 56  1  0
 55 57  1  0
 49 58  1  0
 58 59  1  0
 59 60  1  0
 60 61  2  0
 60 62  2  0
 60 63  1  0
 63 64  1  0
 64 65  1  0
 64 66  1  0
 17 67  1  0
 67 68  1  0
 68 69  1  0
 69 70  2  0
 69 71  2  0
 69 72  1  0
 72 73  1  0
 73 74  1  0
 73 75  1  0
 67 76  1  0
 76 77  1  0
 77 78  1  0
 78 79  2  0
 78 80  2  0
 78 81  1  0
 81 82  1  0
 82 83  1  0
 82 84  1  0
 76 15  1  0
 58 28  1  0
  1 85  1  0
  1 86  1  0
  2 87  1  0
  4 88  1  0
  5 89  1  0
  6 90  1  0
  8 91  1  0
 14 92  1  0
 14 93  1  0
 15 94  1  6
 18 95  1  0
 18 96  1  0
 25 97  1  0
 26 98  1  0
 28 99  1  1
 30100  1  6
 31101  1  0
 31102  1  0
 38103  1  0
 39104  1  0
 40105  1  1
 47106  1  0
 48107  1  0
 49108  1  6
 56109  1  0
 57110  1  0
 58111  1  1
 65112  1  0
 66113  1  0
 67114  1  6
 74115  1  0
 75116  1  0
 76117  1  1
 83118  1  0
 84119  1  0
M  END
$$$$
