
     RDKit          3D

 37 39  0  0  0  0  0  0  0  0999 V2000
    5.4758    0.7450    1.1030 C   0  0  0  0  0  0  0  0  0  0  0  0
    4.6851    0.4738   -0.1040 N   0  0  0  0  0  0  0  0  0  0  0  0
    5.3754    0.3726   -1.3959 C   0  0  0  0  0  0  0  0  0  0  0  0
    3.2447    0.3099   -0.0221 C   0  0  0  0  0  0  0  0  0  0  0  0
    2.5202    0.8076    1.0812 C   0  0  0  0  0  0  0  0  0  0  0  0
    1.1337    0.6500    1.1573 C   0  0  0  0  0  0  0  0  0  0  0  0
    0.4345    0.0045    0.1297 C   0  0  0  0  0  0  0  0  0  0  0  0
    1.1462   -0.5124   -0.9613 C   0  0  0  0  0  0  0  0  0  0  0  0
    2.5326   -0.3567   -1.0409 C   0  0  0  0  0  0  0  0  0  0  0  0
   -1.0281   -0.1807    0.2340 C   0  0  0  0  0  0  0  0  0  0  0  0
   -1.9361    0.0754   -0.7557 N   0  0  0  0  0  4  0  0  0  0  0  0
   -1.6111    0.6743   -2.0557 C   0  0  0  0  0  0  0  0  0  0  0  0
   -3.2023   -0.2770   -0.3727 C   0  0  0  0  0  0  0  0  0  0  0  0
   -4.3576   -0.1849   -1.1659 C   0  0  0  0  0  0  0  0  0  0  0  0
   -5.5908   -0.5836   -0.6235 C   0  0  0  0  0  0  0  0  0  0  0  0
   -5.6700   -1.0735    0.6975 C   0  0  0  0  0  0  0  0  0  0  0  0
   -6.8934   -1.4678    1.2340 O   0  0  0  0  0  0  0  0  0  0  0  0
   -4.5101   -1.1693    1.4810 C   0  0  0  0  0  0  0  0  0  0  0  0
   -3.2999   -0.7684    0.9219 C   0  0  0  0  0  0  0  0  0  0  0  0
   -1.7783   -0.7970    1.6215 S   0  0  0  0  0  0  0  0  0  0  0  0
    5.2030    0.0244    1.9031 H   0  0  0  0  0  0  0  0  0  0  0  0
    5.2879    1.7818    1.4521 H   0  0  0  0  0  0  0  0  0  0  0  0
    6.5644    0.6350    0.9127 H   0  0  0  0  0  0  0  0  0  0  0  0
    5.3902   -0.6846   -1.7340 H   0  0  0  0  0  0  0  0  0  0  0  0
    4.8573    1.0008   -2.1513 H   0  0  0  0  0  0  0  0  0  0  0  0
    6.4247    0.7298   -1.3286 H   0  0  0  0  0  0  0  0  0  0  0  0
    3.0169    1.3298    1.8868 H   0  0  0  0  0  0  0  0  0  0  0  0
    0.6036    1.0457    2.0151 H   0  0  0  0  0  0  0  0  0  0  0  0
    0.6311   -1.0523   -1.7460 H   0  0  0  0  0  0  0  0  0  0  0  0
    3.0426   -0.7764   -1.8967 H   0  0  0  0  0  0  0  0  0  0  0  0
   -1.5562   -0.1188   -2.8303 H   0  0  0  0  0  0  0  0  0  0  0  0
   -0.6481    1.2236   -2.0172 H   0  0  0  0  0  0  0  0  0  0  0  0
   -2.3815    1.4200   -2.3422 H   0  0  0  0  0  0  0  0  0  0  0  0
   -4.3184    0.1750   -2.1848 H   0  0  0  0  0  0  0  0  0  0  0  0
   -6.4848   -0.5148   -1.2300 H   0  0  0  0  0  0  0  0  0  0  0  0
   -7.7499   -1.4124    0.6953 H   0  0  0  0  0  0  0  0  0  0  0  0
   -4.5535   -1.5486    2.4939 H   0  0  0  0  0  0  0  0  0  0  0  0
  1  2  1  0
  2  3  1  0
  2  4  1  0
  4  5  2  0
  5  6  1  0
  6  7  2  0
  7  8  1  0
  8  9  2  0
  7 10  1  0
 10 11  2  0
 11 12  1  0
 11 13  1  0
 13 14  2  0
 14 15  1  0
 15 16  2  0
 16 17  1  0
 16 18  1  0
 18 19  2  0
 19 20  1  0
  9  4  1  0
 20 10  1  0
 19 13  1  0
  1 21  1  0
  1 22  1  0
  1 23  1  0
  3 24  1  0
  3 25  1  0
  3 26  1  0
  5 27  1  0
  6 28  1  0
  8 29  1  0
  9 30  1  0
 12 31  1  0
 12 32  1  0
 12 33  1  0
 14 34  1  0
 15 35  1  0
 17 36  1  0
 18 37  1  0
M  CHG  1  11   1
M  END
$$$$
