
     RDKit          3D

 66 69  0  0  0  0  0  0  0  0999 V2000
    6.7253    0.6201   -1.4811 C   0  0  0  0  0  0  0  0  0  0  0  0
    5.5633    1.2163   -0.9135 O   0  0  0  0  0  0  0  0  0  0  0  0
    4.5380    0.5077   -0.2659 C   0  0  0  0  0  0  0  0  0  0  0  0
    4.5756   -0.8918   -0.1301 C   0  0  0  0  0  0  0  0  0  0  0  0
    3.5314   -1.5728    0.4984 C   0  0  0  0  0  0  0  0  0  0  0  0
    3.5486   -3.0104    0.5535 N   0  0  0  0  0  0  0  0  0  0  0  0
    2.3781   -3.8058    0.3142 C   0  0  0  0  0  0  0  0  0  0  0  0
    2.4304   -5.1578    0.4451 N   0  0  0  0  0  0  0  0  0  0  0  0
    1.3326   -5.9237    0.2052 C   0  0  0  0  0  0  0  0  0  0  0  0
    0.1319   -5.3251   -0.1855 C   0  0  0  0  0  0  0  0  0  0  0  0
   -0.9667   -6.0859   -0.4191 F   0  0  0  0  0  0  0  0  0  0  0  0
    0.0957   -3.9334   -0.3334 C   0  0  0  0  0  0  0  0  0  0  0  0
   -1.1204   -3.2573   -0.6941 N   0  0  0  0  0  0  0  0  0  0  0  0
   -1.1777   -1.8498   -0.9776 C   0  0  0  0  0  0  0  0  0  0  0  0
   -2.2355   -1.1226   -0.5263 N   0  0  0  0  0  0  0  0  0  0  0  0
   -2.3526    0.2161   -0.7587 C   0  0  0  0  0  0  0  0  0  0  0  0
   -1.3654    0.8773   -1.4962 C   0  0  0  0  0  0  0  0  0  0  0  0
   -1.4741    2.2440   -1.7607 O   0  0  0  0  0  0  0  0  0  0  0  0
   -2.3661    3.1259   -1.0683 C   0  0  0  0  0  0  0  0  0  0  0  0
   -2.8643    4.1722   -2.0759 C   0  0  0  0  0  0  0  0  0  0  0  0
   -1.5860    3.8197    0.0555 C   0  0  0  0  0  0  0  0  0  0  0  0
   -3.5440    2.3775   -0.4654 C   0  0  0  0  0  0  0  0  0  0  0  0
   -4.5454    3.0309   -0.0598 O   0  0  0  0  0  0  0  0  0  0  0  0
   -3.4940    0.9479   -0.2797 N   0  0  0  0  0  0  0  0  0  0  0  0
   -4.5139    0.2631    0.5239 C   0  0  0  0  0  0  0  0  0  0  0  0
   -4.0542    0.1645    1.8512 O   0  0  0  0  0  0  0  0  0  0  0  0
   -5.1682   -0.7670    2.7457 P   0  0  0  0  0  5  0  0  0  0  0  0
   -5.2962   -2.3205    2.0847 O   0  0  0  0  0  0  0  0  0  0  0  0
   -4.6244   -0.8889    4.3428 O   0  0  0  0  0  0  0  0  0  0  0  0
   -6.5268   -0.1026    2.7391 O   0  0  0  0  0  0  0  0  0  0  0  0
   -0.2805    0.1539   -1.9925 C   0  0  0  0  0  0  0  0  0  0  0  0
   -0.1831   -1.2149   -1.7403 C   0  0  0  0  0  0  0  0  0  0  0  0
    1.2191   -3.2168   -0.0779 N   0  0  0  0  0  0  0  0  0  0  0  0
    2.4772   -0.8422    1.0630 C   0  0  0  0  0  0  0  0  0  0  0  0
    2.4089    0.5564    0.9300 C   0  0  0  0  0  0  0  0  0  0  0  0
    1.3344    1.2776    1.4761 O   0  0  0  0  0  0  0  0  0  0  0  0
    0.2323    0.6994    2.1702 C   0  0  0  0  0  0  0  0  0  0  0  0
    3.4462    1.2348    0.2400 C   0  0  0  0  0  0  0  0  0  0  0  0
    3.4548    2.6255    0.0214 O   0  0  0  0  0  0  0  0  0  0  0  0
    2.3800    3.5242    0.2714 C   0  0  0  0  0  0  0  0  0  0  0  0
    7.3629    1.4149   -1.9193 H   0  0  0  0  0  0  0  0  0  0  0  0
    7.3058    0.0915   -0.6957 H   0  0  0  0  0  0  0  0  0  0  0  0
    6.4367   -0.0878   -2.2865 H   0  0  0  0  0  0  0  0  0  0  0  0
    5.3969   -1.4641   -0.5398 H   0  0  0  0  0  0  0  0  0  0  0  0
    4.4703   -3.4991    0.6174 H   0  0  0  0  0  0  0  0  0  0  0  0
    1.3921   -6.9978    0.3197 H   0  0  0  0  0  0  0  0  0  0  0  0
   -2.0264   -3.7677   -0.5910 H   0  0  0  0  0  0  0  0  0  0  0  0
   -2.0029    4.6924   -2.5476 H   0  0  0  0  0  0  0  0  0  0  0  0
   -3.4528    3.6783   -2.8788 H   0  0  0  0  0  0  0  0  0  0  0  0
   -3.5048    4.9334   -1.5802 H   0  0  0  0  0  0  0  0  0  0  0  0
   -2.2387    4.5242    0.6152 H   0  0  0  0  0  0  0  0  0  0  0  0
   -1.1865    3.0658    0.7650 H   0  0  0  0  0  0  0  0  0  0  0  0
   -0.7302    4.3903   -0.3641 H   0  0  0  0  0  0  0  0  0  0  0  0
   -4.7064   -0.7416    0.0829 H   0  0  0  0  0  0  0  0  0  0  0  0
   -5.4739    0.8244    0.4842 H   0  0  0  0  0  0  0  0  0  0  0  0
   -4.3643   -2.6532    2.0414 H   0  0  0  0  0  0  0  0  0  0  0  0
   -3.7132   -1.2699    4.2697 H   0  0  0  0  0  0  0  0  0  0  0  0
    0.4835    0.6512   -2.5762 H   0  0  0  0  0  0  0  0  0  0  0  0
    0.6472   -1.7726   -2.1528 H   0  0  0  0  0  0  0  0  0  0  0  0
    1.7110   -1.3726    1.6094 H   0  0  0  0  0  0  0  0  0  0  0  0
   -0.4599    1.5040    2.4900 H   0  0  0  0  0  0  0  0  0  0  0  0
   -0.3164    0.0022    1.5030 H   0  0  0  0  0  0  0  0  0  0  0  0
    0.5884    0.1644    3.0756 H   0  0  0  0  0  0  0  0  0  0  0  0
    2.6529    4.5269   -0.1162 H   0  0  0  0  0  0  0  0  0  0  0  0
    1.4660    3.1824   -0.2580 H   0  0  0  0  0  0  0  0  0  0  0  0
    2.1985    3.6146    1.3626 H   0  0  0  0  0  0  0  0  0  0  0  0
  1  2  1  0
  2  3  1  0
  3  4  2  0
  4  5  1  0
  5  6  1  0
  6  7  1  0
  7  8  2  0
  8  9  1  0
  9 10  2  0
 10 11  1  0
 10 12  1  0
 12 13  1  0
 13 14  1  0
 14 15  2  0
 15 16  1  0
 16 17  2  0
 17 18  1  0
 18 19  1  0
 19 20  1  0
 19 21  1  0
 19 22  1  0
 22 23  2  0
 22 24  1  0
 24 25  1  0
 25 26  1  0
 26 27  1  0
 27 28  1  0
 27 29  1  0
 27 30  2  0
 17 31  1  0
 31 32  2  0
 12 33  2  0
  5 34  2  0
 34 35  1  0
 35 36  1  0
 36 37  1  0
 35 38  2  0
 38 39  1  0
 39 40  1  0
 38  3  1  0
 33  7  1  0
 32 14  1  0
 24 16  1  0
  1 41  1  0
  1 42  1  0
  1 43  1  0
  4 44  1  0
  6 45  1  0
  9 46  1  0
 13 47  1  0
 20 48  1  0
 20 49  1  0
 20 50  1  0
 21 51  1  0
 21 52  1  0
 21 53  1  0
 25 54  1  0
 25 55  1  0
 28 56  1  0
 29 57  1  0
 31 58  1  0
 32 59  1  0
 34 60  1  0
 37 61  1  0
 37 62  1  0
 37 63  1  0
 40 64  1  0
 40 65  1  0
 40 66  1  0
M  END
$$$$
