
     RDKit          3D

 33 36  0  0  0  0  0  0  0  0999 V2000
    4.2157   -0.0653    2.4273 N   0  0  0  0  0  0  0  0  0  0  0  0
    3.6037    0.0382    1.1441 C   0  0  0  0  0  0  0  0  0  0  0  0
    4.3710    0.2165    0.0361 N   0  0  0  0  0  0  0  0  0  0  0  0
    3.8059    0.3182   -1.1948 C   0  0  0  0  0  0  0  0  0  0  0  0
    2.4211    0.2387   -1.3342 C   0  0  0  0  0  0  0  0  0  0  0  0
    1.6440    0.0496   -0.1865 C   0  0  0  0  0  0  0  0  0  0  0  0
    2.2515   -0.0408    1.0271 N   0  0  0  0  0  0  0  0  0  0  0  0
    0.1762   -0.0223   -0.2744 C   0  0  0  0  0  0  0  0  0  0  0  0
   -0.6688    0.9723   -0.7711 C   0  0  0  0  0  0  0  0  0  0  0  0
   -0.3148    2.1866   -1.3595 C   0  0  0  0  0  0  0  0  0  0  0  0
   -1.3534    3.0446   -1.7347 C   0  0  0  0  0  0  0  0  0  0  0  0
   -2.6524    2.6905   -1.5182 N   0  0  0  0  0  0  0  0  0  0  0  0
   -2.9798    1.5050   -0.9309 C   0  0  0  0  0  0  0  0  0  0  0  0
   -4.3608    1.1808   -0.7423 N   0  0  0  0  0  0  0  0  0  0  0  0
   -1.9683    0.6643   -0.5554 N   0  0  0  0  0  0  0  0  0  0  0  0
   -1.9613   -0.5193    0.0931 C   0  0  0  0  0  0  0  0  0  0  0  0
   -3.0388   -1.1846    0.5797 N   0  0  0  0  0  0  0  0  0  0  0  0
   -2.8604   -2.3594    1.2491 C   0  0  0  0  0  0  0  0  0  0  0  0
   -1.5684   -2.8910    1.4284 C   0  0  0  0  0  0  0  0  0  0  0  0
   -0.4496   -2.2112    0.9179 C   0  0  0  0  0  0  0  0  0  0  0  0
    0.8103   -2.7966    1.0334 O   0  0  0  0  0  0  0  0  0  0  0  0
   -0.6742   -0.9815    0.2753 C   0  0  0  0  0  0  0  0  0  0  0  0
    3.6316   -0.2035    3.2817 H   0  0  0  0  0  0  0  0  0  0  0  0
    5.2536   -0.0052    2.5245 H   0  0  0  0  0  0  0  0  0  0  0  0
    4.4325    0.4603   -2.0651 H   0  0  0  0  0  0  0  0  0  0  0  0
    1.9656    0.3149   -2.3138 H   0  0  0  0  0  0  0  0  0  0  0  0
    0.7176    2.4695   -1.5150 H   0  0  0  0  0  0  0  0  0  0  0  0
   -1.1270    3.9961   -2.1969 H   0  0  0  0  0  0  0  0  0  0  0  0
   -4.6870    0.2415   -0.4366 H   0  0  0  0  0  0  0  0  0  0  0  0
   -5.0915    1.8835   -0.9925 H   0  0  0  0  0  0  0  0  0  0  0  0
   -3.7198   -2.8904    1.6361 H   0  0  0  0  0  0  0  0  0  0  0  0
   -1.4424   -3.8366    1.9400 H   0  0  0  0  0  0  0  0  0  0  0  0
    1.6184   -2.4634    0.5281 H   0  0  0  0  0  0  0  0  0  0  0  0
  1  2  1  0
  2  3  2  0
  3  4  1  0
  4  5  2  0
  5  6  1  0
  6  7  2  0
  6  8  1  0
  8  9  2  0
  9 10  1  0
 10 11  2  0
 11 12  1  0
 12 13  2  0
 13 14  1  0
 13 15  1  0
 15 16  1  0
 16 17  2  0
 17 18  1  0
 18 19  2  0
 19 20  1  0
 20 21  1  0
 20 22  2  0
  7  2  1  0
 22  8  1  0
 15  9  1  0
 22 16  1  0
  1 23  1  0
  1 24  1  0
  4 25  1  0
  5 26  1  0
 10 27  1  0
 11 28  1  0
 14 29  1  0
 14 30  1  0
 18 31  1  0
 19 32  1  0
 21 33  1  0
M  END
$$$$
