
     RDKit          3D

119127  0  0  0  0  0  0  0  0999 V2000
   -9.3210    8.7710    1.1841 C   0  0  0  0  0  0  0  0  0  0  0  0
   -8.8619    7.6949    1.9722 O   0  0  0  0  0  0  0  0  0  0  0  0
   -7.5606    7.3062    1.5704 C   0  0  0  0  0  0  0  0  0  0  0  0
   -7.6296    6.1255    0.5855 C   0  0  1  0  0  0  0  0  0  0  0  0
   -6.2438    5.6425    0.1453 C   0  0  0  0  0  0  0  0  0  0  0  0
   -6.3859    4.1311   -0.0687 C   0  0  2  0  0  0  0  0  0  0  0  0
   -7.6241    3.7530    0.6053 N   0  0  0  0  0  0  0  0  0  0  0  0
   -8.3156    4.8950    1.1785 C   0  0  0  0  0  0  0  0  0  0  0  0
   -8.1857    2.4259    0.6488 C   0  0  0  0  0  0  0  0  0  0  0  0
   -9.0547    2.1570    1.5235 O   0  0  0  0  0  0  0  0  0  0  0  0
   -7.7849    1.3522   -0.3425 C   0  0  2  0  0  0  0  0  0  0  0  0
   -8.9361    0.4984   -0.6515 N   0  0  0  0  0  0  0  0  0  0  0  0
   -9.9848    0.9158   -1.5333 C   0  0  0  0  0  0  0  0  0  0  0  0
   -9.9199    2.0331   -2.1170 O   0  0  0  0  0  0  0  0  0  0  0  0
  -11.0814    0.0738   -1.7371 O   0  0  0  0  0  0  0  0  0  0  0  0
  -12.1636    0.4186   -2.5935 C   0  0  0  0  0  0  0  0  0  0  0  0
   -6.6342    0.4957    0.1520 C   0  0  0  0  0  0  0  0  0  0  0  0
   -5.6653    0.0450   -0.7641 C   0  0  0  0  0  0  0  0  0  0  0  0
   -4.6241   -0.7883   -0.3447 C   0  0  0  0  0  0  0  0  0  0  0  0
   -4.5454   -1.1933    0.9890 C   0  0  0  0  0  0  0  0  0  0  0  0
   -5.5141   -0.7748    1.9035 C   0  0  0  0  0  0  0  0  0  0  0  0
   -6.5615    0.0532    1.4881 C   0  0  0  0  0  0  0  0  0  0  0  0
   -5.2116    3.3958    0.5148 C   0  0  0  0  0  0  0  0  0  0  0  0
   -5.0328    3.2150    1.8411 N   0  0  0  0  0  0  0  0  0  0  0  0
   -3.8802    2.5233    1.9270 C   0  0  0  0  0  0  0  0  0  0  0  0
   -3.3787    2.3066    0.6570 C   0  0  0  0  0  0  0  0  0  0  0  0
   -4.2199    2.8708   -0.2286 N   0  0  0  0  0  0  0  0  0  0  0  0
   -2.1678    1.5280    0.2987 C   0  0  0  0  0  0  0  0  0  0  0  0
   -1.5784    1.6689   -0.9664 C   0  0  0  0  0  0  0  0  0  0  0  0
   -0.4682    0.9019   -1.3260 C   0  0  0  0  0  0  0  0  0  0  0  0
    0.0774   -0.0385   -0.4302 C   0  0  0  0  0  0  0  0  0  0  0  0
   -0.4886   -0.1519    0.8586 C   0  0  0  0  0  0  0  0  0  0  0  0
    0.0392   -1.1744    1.8315 C   0  0  0  0  0  0  0  0  0  0  0  0
    1.4083   -1.4825    1.5754 O   0  0  0  0  0  0  0  0  0  0  0  0
    1.9274   -1.5399    0.2798 C   0  0  0  0  0  0  0  0  0  0  0  0
    3.1047   -2.2551    0.0475 C   0  0  0  0  0  0  0  0  0  0  0  0
    3.6217   -2.3523   -1.2501 C   0  0  0  0  0  0  0  0  0  0  0  0
    2.9456   -1.7227   -2.3307 C   0  0  0  0  0  0  0  0  0  0  0  0
    3.4707   -1.8140   -3.6452 C   0  0  0  0  0  0  0  0  0  0  0  0
    4.6684   -2.5082   -3.8903 C   0  0  0  0  0  0  0  0  0  0  0  0
    5.3080   -3.1068   -2.8097 C   0  0  0  0  0  0  0  0  0  0  0  0
    4.8032   -3.0450   -1.5437 C   0  0  0  0  0  0  0  0  0  0  0  0
    5.6309   -3.6964   -0.7136 N   0  0  0  0  0  0  0  0  0  0  0  0
    6.6377   -4.1201   -1.5182 C   0  0  0  0  0  0  0  0  0  0  0  0
    6.4679   -3.7865   -2.8239 N   0  0  0  0  0  0  0  0  0  0  0  0
    7.8092   -4.9355   -1.0398 C   0  0  2  0  0  0  0  0  0  0  0  0
    7.5161   -6.4320   -1.1676 C   0  0  0  0  0  0  0  0  0  0  0  0
    8.0952   -7.0663    0.0898 C   0  0  0  0  0  0  0  0  0  0  0  0
    8.1109   -5.9520    1.1364 C   0  0  2  0  0  0  0  0  0  0  0  0
    6.8877   -6.0294    2.0576 C   0  0  0  0  0  0  0  0  0  0  0  0
    8.0970   -4.7059    0.3757 N   0  0  0  0  0  0  0  0  0  0  0  0
    8.5457   -3.4551    0.9497 C   0  0  0  0  0  0  0  0  0  0  0  0
    8.7791   -3.4046    2.1877 O   0  0  0  0  0  0  0  0  0  0  0  0
    8.6909   -2.1871    0.1253 C   0  0  1  0  0  0  0  0  0  0  0  0
    7.5033   -1.3451    0.3145 N   0  0  0  0  0  0  0  0  0  0  0  0
    6.9209   -0.5574   -0.7308 C   0  0  0  0  0  0  0  0  0  0  0  0
    7.4021   -0.5843   -1.8970 O   0  0  0  0  0  0  0  0  0  0  0  0
    5.8004    0.2279   -0.4470 O   0  0  0  0  0  0  0  0  0  0  0  0
    5.1820    1.0620   -1.4190 C   0  0  0  0  0  0  0  0  0  0  0  0
   10.0031   -1.4124    0.4662 C   0  0  0  0  0  0  0  0  0  0  0  0
   10.4658   -0.5494   -0.7175 C   0  0  0  0  0  0  0  0  0  0  0  0
    9.8918   -0.5321    1.7257 C   0  0  0  0  0  0  0  0  0  0  0  0
    1.7737   -0.9931   -2.0820 C   0  0  0  0  0  0  0  0  0  0  0  0
    1.2697   -0.8711   -0.7705 C   0  0  0  0  0  0  0  0  0  0  0  0
   -1.6100    0.6143    1.2072 C   0  0  0  0  0  0  0  0  0  0  0  0
   -9.3046    8.5215    0.1003 H   0  0  0  0  0  0  0  0  0  0  0  0
   -8.7218    9.6872    1.3805 H   0  0  0  0  0  0  0  0  0  0  0  0
  -10.3722    8.9901    1.4624 H   0  0  0  0  0  0  0  0  0  0  0  0
   -7.0052    6.9899    2.4797 H   0  0  0  0  0  0  0  0  0  0  0  0
   -6.9671    8.1396    1.1231 H   0  0  0  0  0  0  0  0  0  0  0  0
   -8.1895    6.4376   -0.3244 H   0  0  0  0  0  0  0  0  0  0  0  0
   -5.9271    6.1492   -0.7926 H   0  0  0  0  0  0  0  0  0  0  0  0
   -5.4901    5.8673    0.9343 H   0  0  0  0  0  0  0  0  0  0  0  0
   -6.4748    3.9214   -1.1565 H   0  0  0  0  0  0  0  0  0  0  0  0
   -9.3909    4.8829    0.8947 H   0  0  0  0  0  0  0  0  0  0  0  0
   -8.2209    4.8583    2.2860 H   0  0  0  0  0  0  0  0  0  0  0  0
   -7.4678    1.8523   -1.2824 H   0  0  0  0  0  0  0  0  0  0  0  0
   -9.0585   -0.4064   -0.1419 H   0  0  0  0  0  0  0  0  0  0  0  0
  -12.9073   -0.4045   -2.5908 H   0  0  0  0  0  0  0  0  0  0  0  0
  -11.7953    0.5676   -3.6306 H   0  0  0  0  0  0  0  0  0  0  0  0
  -12.6535    1.3475   -2.2319 H   0  0  0  0  0  0  0  0  0  0  0  0
   -5.7114    0.3441   -1.8039 H   0  0  0  0  0  0  0  0  0  0  0  0
   -3.8743   -1.1155   -1.0534 H   0  0  0  0  0  0  0  0  0  0  0  0
   -3.7346   -1.8329    1.3132 H   0  0  0  0  0  0  0  0  0  0  0  0
   -5.4572   -1.0977    2.9349 H   0  0  0  0  0  0  0  0  0  0  0  0
   -7.3110    0.3446    2.2110 H   0  0  0  0  0  0  0  0  0  0  0  0
   -3.4428    2.2018    2.8620 H   0  0  0  0  0  0  0  0  0  0  0  0
   -4.1585    2.8665   -1.2707 H   0  0  0  0  0  0  0  0  0  0  0  0
   -1.9632    2.3840   -1.6810 H   0  0  0  0  0  0  0  0  0  0  0  0
   -0.0384    1.0737   -2.3009 H   0  0  0  0  0  0  0  0  0  0  0  0
   -0.5638   -2.1018    1.7327 H   0  0  0  0  0  0  0  0  0  0  0  0
   -0.0524   -0.8050    2.8750 H   0  0  0  0  0  0  0  0  0  0  0  0
    3.5976   -2.7367    0.8816 H   0  0  0  0  0  0  0  0  0  0  0  0
    2.9637   -1.3347   -4.4739 H   0  0  0  0  0  0  0  0  0  0  0  0
    5.0838   -2.5672   -4.8879 H   0  0  0  0  0  0  0  0  0  0  0  0
    5.5388   -3.8308    0.3169 H   0  0  0  0  0  0  0  0  0  0  0  0
    8.7123   -4.6910   -1.6414 H   0  0  0  0  0  0  0  0  0  0  0  0
    6.4204   -6.6299   -1.1936 H   0  0  0  0  0  0  0  0  0  0  0  0
    7.9799   -6.8588   -2.0835 H   0  0  0  0  0  0  0  0  0  0  0  0
    9.1395   -7.3900   -0.1159 H   0  0  0  0  0  0  0  0  0  0  0  0
    7.5060   -7.9551    0.4069 H   0  0  0  0  0  0  0  0  0  0  0  0
    9.0410   -6.0264    1.7432 H   0  0  0  0  0  0  0  0  0  0  0  0
    6.8870   -5.1797    2.7713 H   0  0  0  0  0  0  0  0  0  0  0  0
    6.9131   -6.9736    2.6419 H   0  0  0  0  0  0  0  0  0  0  0  0
    5.9486   -5.9993    1.4651 H   0  0  0  0  0  0  0  0  0  0  0  0
    8.7562   -2.4880   -0.9388 H   0  0  0  0  0  0  0  0  0  0  0  0
    7.0896   -1.2622    1.2710 H   0  0  0  0  0  0  0  0  0  0  0  0
    4.2796    1.5310   -0.9759 H   0  0  0  0  0  0  0  0  0  0  0  0
    5.8868    1.8590   -1.7365 H   0  0  0  0  0  0  0  0  0  0  0  0
    4.8780    0.4618   -2.3014 H   0  0  0  0  0  0  0  0  0  0  0  0
   10.8094   -2.1588    0.6464 H   0  0  0  0  0  0  0  0  0  0  0  0
    9.7380    0.2633   -0.9231 H   0  0  0  0  0  0  0  0  0  0  0  0
   11.4513   -0.0887   -0.4916 H   0  0  0  0  0  0  0  0  0  0  0  0
   10.5840   -1.1709   -1.6305 H   0  0  0  0  0  0  0  0  0  0  0  0
    9.1665    0.2947    1.5694 H   0  0  0  0  0  0  0  0  0  0  0  0
    9.5739   -1.1218    2.6075 H   0  0  0  0  0  0  0  0  0  0  0  0
   10.8810   -0.0852    1.9621 H   0  0  0  0  0  0  0  0  0  0  0  0
    1.2668   -0.5325   -2.9172 H   0  0  0  0  0  0  0  0  0  0  0  0
   -2.0605    0.4690    2.1806 H   0  0  0  0  0  0  0  0  0  0  0  0
  1  2  1  0
  2  3  1  0
  3  4  1  0
  4  5  1  0
  5  6  1  0
  6  7  1  0
  7  8  1  0
  7  9  1  0
  9 10  2  0
  9 11  1  0
 11 12  1  0
 12 13  1  0
 13 14  2  0
 13 15  1  0
 15 16  1  0
 11 17  1  0
 17 18  2  0
 18 19  1  0
 19 20  2  0
 20 21  1  0
 21 22  2  0
  6 23  1  0
 23 24  2  0
 24 25  1  0
 25 26  2  0
 26 27  1  0
 26 28  1  0
 28 29  2  0
 29 30  1  0
 30 31  2  0
 31 32  1  0
 32 33  1  0
 33 34  1  0
 34 35  1  0
 35 36  2  0
 36 37  1  0
 37 38  2  0
 38 39  1  0
 39 40  2  0
 40 41  1  0
 41 42  2  0
 42 43  1  0
 43 44  1  0
 44 45  2  0
 44 46  1  0
 46 47  1  0
 47 48  1  0
 48 49  1  0
 49 50  1  0
 49 51  1  0
 51 52  1  0
 52 53  2  0
 52 54  1  0
 54 55  1  0
 55 56  1  0
 56 57  2  0
 56 58  1  0
 58 59  1  0
 54 60  1  0
 60 61  1  0
 60 62  1  0
 38 63  1  0
 63 64  2  0
 32 65  2  0
  8  4  1  0
 22 17  1  0
 27 23  1  0
 65 28  1  0
 64 31  1  0
 64 35  1  0
 42 37  1  0
 51 46  1  0
 45 41  1  0
  1 66  1  0
  1 67  1  0
  1 68  1  0
  3 69  1  0
  3 70  1  0
  4 71  1  6
  5 72  1  0
  5 73  1  0
  6 74  1  6
  8 75  1  0
  8 76  1  0
 11 77  1  6
 12 78  1  0
 16 79  1  0
 16 80  1  0
 16 81  1  0
 18 82  1  0
 19 83  1  0
 20 84  1  0
 21 85  1  0
 22 86  1  0
 25 87  1  0
 27 88  1  0
 29 89  1  0
 30 90  1  0
 33 91  1  0
 33 92  1  0
 36 93  1  0
 39 94  1  0
 40 95  1  0
 43 96  1  0
 46 97  1  6
 47 98  1  0
 47 99  1  0
 48100  1  0
 48101  1  0
 49102  1  1
 50103  1  0
 50104  1  0
 50105  1  0
 54106  1  6
 55107  1  0
 59108  1  0
 59109  1  0
 59110  1  0
 60111  1  0
 61112  1  0
 61113  1  0
 61114  1  0
 62115  1  0
 62116  1  0
 62117  1  0
 63118  1  0
 65119  1  0
M  END
$$$$
