
     RDKit          3D

 35 37  0  0  0  0  0  0  0  0999 V2000
    6.0050    1.3149   -1.8303 C   0  0  0  0  0  0  0  0  0  0  0  0
    4.9109    0.7688   -0.9783 C   0  0  0  0  0  0  0  0  0  0  0  0
    5.1244    0.1285    0.1909 N   0  0  0  0  0  0  0  0  0  0  0  0
    3.9684   -0.3254    0.7491 C   0  0  0  0  0  0  0  0  0  0  0  0
    3.9862   -1.0121    2.0791 C   0  0  0  0  0  0  0  0  0  0  0  0
    2.8148   -0.0740   -0.0114 C   0  0  0  0  0  0  0  0  0  0  0  0
    3.2830    0.7754   -1.3886 S   0  0  0  0  0  0  0  0  0  0  0  0
    1.4126   -0.4184    0.2963 C   0  0  0  0  0  0  0  0  0  0  0  0
    0.4282    0.4479   -0.0661 N   0  0  0  0  0  0  0  0  0  0  0  0
   -0.8834    0.1736    0.1648 C   0  0  0  0  0  0  0  0  0  0  0  0
   -1.8817    1.1377   -0.1990 N   0  0  0  0  0  0  0  0  0  0  0  0
   -3.2944    0.8719   -0.2152 C   0  0  0  0  0  0  0  0  0  0  0  0
   -4.1907    1.8939    0.1325 C   0  0  0  0  0  0  0  0  0  0  0  0
   -5.5694    1.6661    0.1031 C   0  0  0  0  0  0  0  0  0  0  0  0
   -6.0657    0.4207   -0.2896 C   0  0  0  0  0  0  0  0  0  0  0  0
   -5.1855   -0.5991   -0.6642 C   0  0  0  0  0  0  0  0  0  0  0  0
   -5.6943   -1.8307   -1.0703 O   0  0  0  0  0  0  0  0  0  0  0  0
   -3.8017   -0.3724   -0.6335 C   0  0  0  0  0  0  0  0  0  0  0  0
   -1.2275   -0.9890    0.7820 N   0  0  0  0  0  0  0  0  0  0  0  0
   -0.2839   -1.8939    1.1459 C   0  0  0  0  0  0  0  0  0  0  0  0
    1.0632   -1.6329    0.9012 C   0  0  0  0  0  0  0  0  0  0  0  0
    5.6495    2.2167   -2.3711 H   0  0  0  0  0  0  0  0  0  0  0  0
    6.3185    0.5459   -2.5662 H   0  0  0  0  0  0  0  0  0  0  0  0
    6.8746    1.5939   -1.1991 H   0  0  0  0  0  0  0  0  0  0  0  0
    4.8858   -0.7027    2.6519 H   0  0  0  0  0  0  0  0  0  0  0  0
    4.0235   -2.1112    1.9332 H   0  0  0  0  0  0  0  0  0  0  0  0
    3.0900   -0.7367    2.6734 H   0  0  0  0  0  0  0  0  0  0  0  0
   -1.5623    2.1155   -0.3854 H   0  0  0  0  0  0  0  0  0  0  0  0
   -3.8186    2.8642    0.4370 H   0  0  0  0  0  0  0  0  0  0  0  0
   -6.2538    2.4564    0.3833 H   0  0  0  0  0  0  0  0  0  0  0  0
   -7.1346    0.2504   -0.3116 H   0  0  0  0  0  0  0  0  0  0  0  0
   -5.0840   -2.5902   -1.3489 H   0  0  0  0  0  0  0  0  0  0  0  0
   -3.1309   -1.1561   -0.9597 H   0  0  0  0  0  0  0  0  0  0  0  0
   -0.5809   -2.8207    1.6182 H   0  0  0  0  0  0  0  0  0  0  0  0
    1.8046   -2.3769    1.1546 H   0  0  0  0  0  0  0  0  0  0  0  0
  1  2  1  0
  2  3  2  0
  3  4  1  0
  4  5  1  0
  4  6  2  0
  6  7  1  0
  6  8  1  0
  8  9  2  0
  9 10  1  0
 10 11  1  0
 11 12  1  0
 12 13  2  0
 13 14  1  0
 14 15  2  0
 15 16  1  0
 16 17  1  0
 16 18  2  0
 10 19  2  0
 19 20  1  0
 20 21  2  0
  7  2  1  0
 21  8  1  0
 18 12  1  0
  1 22  1  0
  1 23  1  0
  1 24  1  0
  5 25  1  0
  5 26  1  0
  5 27  1  0
 11 28  1  0
 13 29  1  0
 14 30  1  0
 15 31  1  0
 17 32  1  0
 18 33  1  0
 20 34  1  0
 21 35  1  0
M  END
$$$$
