
     RDKit          3D

105107  0  0  0  0  0  0  0  0999 V2000
    0.0916   -1.5358   -0.6662 C   0  0  1  0  0  0  0  0  0  0  0  0
   -1.2215   -2.0297   -0.5510 O   0  0  0  0  0  0  0  0  0  0  0  0
    0.3610   -1.2850   -2.1406 C   0  0  0  0  0  0  0  0  0  0  0  0
   -0.6039   -0.6059   -2.8810 O   0  0  0  0  0  0  0  0  0  0  0  0
    1.4413   -1.6869   -2.7506 N   0  0  0  0  0  0  0  0  0  0  0  0
    2.5443   -2.4514   -2.1708 C   0  0  0  0  0  0  0  0  0  0  0  0
    3.6595   -2.6269   -3.2018 C   0  0  0  0  0  0  0  0  0  0  0  0
    4.2687   -1.2983   -3.5772 C   0  0  0  0  0  0  0  0  0  0  0  0
    3.7022   -0.5971   -4.6381 O   0  0  0  0  0  0  0  0  0  0  0  0
    5.2659   -0.7625   -2.9293 N   0  0  0  0  0  0  0  0  0  0  0  0
    6.0029   -1.3428   -1.8056 C   0  0  0  0  0  0  0  0  0  0  0  0
    7.1377   -2.2432   -2.3018 C   0  0  0  0  0  0  0  0  0  0  0  0
    8.3504   -1.3086   -3.3032 S   0  0  0  0  0  0  0  0  0  0  0  0
    9.2310   -0.6246   -1.8934 C   0  0  0  0  0  0  0  0  0  0  0  0
    8.9165    0.4731   -1.4612 O   0  0  0  0  0  0  0  0  0  0  0  0
   10.3467   -1.3908   -1.2535 C   0  0  0  0  0  0  0  0  0  0  0  0
   11.9160   -0.4882   -1.4689 S   0  0  0  0  0  0  0  0  0  0  0  0
   12.9242   -1.7251   -0.5778 C   0  0  0  0  0  0  0  0  0  0  0  0
   14.3972   -1.3017   -0.5145 C   0  0  0  0  0  0  0  0  0  0  0  0
   14.6517   -0.0351    0.3228 C   0  0  0  0  0  0  0  0  0  0  0  0
   14.4243   -0.2595    1.8250 C   0  0  0  0  0  0  0  0  0  0  0  0
   14.8421    0.9661    2.6327 C   0  0  0  0  0  0  0  0  0  0  0  0
    0.2828   -0.2529    0.2239 C   0  0  0  0  0  0  0  0  0  0  0  0
    1.7627    0.1921    0.1949 C   0  0  0  0  0  0  0  0  0  0  0  0
   -0.0752   -0.5885    1.6913 C   0  0  0  0  0  0  0  0  0  0  0  0
   -0.5947    0.9405   -0.2441 C   0  0  0  0  0  0  0  0  0  0  0  0
   -1.9513    0.5633   -0.2928 O   0  0  0  0  0  0  0  0  0  0  0  0
   -2.8781    1.9046   -0.7990 P   0  0  0  0  0  5  0  0  0  0  0  0
   -2.3487    2.4156   -2.3232 O   0  0  0  0  0  0  0  0  0  0  0  0
   -2.7239    3.0477    0.1804 O   0  0  0  0  0  0  0  0  0  0  0  0
   -4.5227    1.4832   -0.9210 O   0  0  0  0  0  0  0  0  0  0  0  0
   -4.9403    0.6044    0.4784 P   0  0  0  0  0  5  0  0  0  0  0  0
   -4.4120    1.4085    1.8718 O   0  0  0  0  0  0  0  0  0  0  0  0
   -4.3148   -0.7730    0.4345 O   0  0  0  0  0  0  0  0  0  0  0  0
   -6.6359    0.4538    0.5635 O   0  0  0  0  0  0  0  0  0  0  0  0
   -7.0867   -0.2019   -0.5993 C   0  0  0  0  0  0  0  0  0  0  0  0
   -8.6183   -0.2658   -0.6034 C   0  0  1  0  0  0  0  0  0  0  0  0
   -9.0891   -0.8770    0.5725 O   0  0  0  0  0  0  0  0  0  0  0  0
  -10.3930   -0.3806    0.7922 C   0  0  1  0  0  0  0  0  0  0  0  0
  -10.5673   -0.0612    2.2111 N   0  0  0  0  0  0  0  0  0  0  0  0
  -11.6461   -0.3366    2.9889 C   0  0  0  0  0  0  0  0  0  0  0  0
  -11.5413    0.1571    4.2539 N   0  0  0  0  0  0  0  0  0  0  0  0
  -10.3418    0.7683    4.2356 C   0  0  0  0  0  0  0  0  0  0  0  0
   -9.6954    1.4781    5.2413 C   0  0  0  0  0  0  0  0  0  0  0  0
  -10.2698    1.6373    6.5385 N   0  0  0  0  0  0  0  0  0  0  0  0
   -8.4807    2.0307    4.9458 N   0  0  0  0  0  0  0  0  0  0  0  0
   -7.9174    1.8948    3.7021 C   0  0  0  0  0  0  0  0  0  0  0  0
   -8.5639    1.1964    2.7208 N   0  0  0  0  0  0  0  0  0  0  0  0
   -9.7643    0.6441    3.0191 C   0  0  0  0  0  0  0  0  0  0  0  0
  -10.6222    0.8636   -0.0784 C   0  0  2  0  0  0  0  0  0  0  0  0
  -11.5880    0.5805   -1.0608 O   0  0  0  0  0  0  0  0  0  0  0  0
   -9.2605    1.1105   -0.6983 C   0  0  2  0  0  0  0  0  0  0  0  0
   -9.3462    1.5118   -2.0528 O   0  0  0  0  0  0  0  0  0  0  0  0
   -9.2503    3.2135   -2.1572 P   0  0  0  0  0  5  0  0  0  0  0  0
   -9.5723    3.6802   -3.7503 O   0  0  0  0  0  0  0  0  0  0  0  0
  -10.3881    3.9408   -1.1333 O   0  0  0  0  0  0  0  0  0  0  0  0
   -7.8568    3.6705   -1.7851 O   0  0  0  0  0  0  0  0  0  0  0  0
    0.7946   -2.3154   -0.2925 H   0  0  0  0  0  0  0  0  0  0  0  0
   -1.2313   -2.6954    0.1858 H   0  0  0  0  0  0  0  0  0  0  0  0
   -0.4707   -0.4139   -3.8668 H   0  0  0  0  0  0  0  0  0  0  0  0
    2.1769   -3.4557   -1.8679 H   0  0  0  0  0  0  0  0  0  0  0  0
    2.9469   -1.9327   -1.2784 H   0  0  0  0  0  0  0  0  0  0  0  0
    4.4232   -3.3250   -2.8046 H   0  0  0  0  0  0  0  0  0  0  0  0
    3.2398   -3.1030   -4.1143 H   0  0  0  0  0  0  0  0  0  0  0  0
    4.0616    0.3075   -4.9198 H   0  0  0  0  0  0  0  0  0  0  0  0
    6.4310   -0.5170   -1.2014 H   0  0  0  0  0  0  0  0  0  0  0  0
    5.3266   -1.9103   -1.1333 H   0  0  0  0  0  0  0  0  0  0  0  0
    6.7255   -3.0553   -2.9345 H   0  0  0  0  0  0  0  0  0  0  0  0
    7.6421   -2.7218   -1.4352 H   0  0  0  0  0  0  0  0  0  0  0  0
   10.4321   -2.3942   -1.7218 H   0  0  0  0  0  0  0  0  0  0  0  0
   10.1271   -1.5181   -0.1723 H   0  0  0  0  0  0  0  0  0  0  0  0
   12.8613   -2.6901   -1.1248 H   0  0  0  0  0  0  0  0  0  0  0  0
   12.5199   -1.8885    0.4420 H   0  0  0  0  0  0  0  0  0  0  0  0
   14.9968   -2.1415   -0.1006 H   0  0  0  0  0  0  0  0  0  0  0  0
   14.7597   -1.1232   -1.5502 H   0  0  0  0  0  0  0  0  0  0  0  0
   14.0120    0.7999   -0.0351 H   0  0  0  0  0  0  0  0  0  0  0  0
   15.7099    0.2677    0.1632 H   0  0  0  0  0  0  0  0  0  0  0  0
   15.0160   -1.1349    2.1705 H   0  0  0  0  0  0  0  0  0  0  0  0
   13.3500   -0.4568    2.0234 H   0  0  0  0  0  0  0  0  0  0  0  0
   14.6563    0.7814    3.7118 H   0  0  0  0  0  0  0  0  0  0  0  0
   14.2537    1.8543    2.3177 H   0  0  0  0  0  0  0  0  0  0  0  0
   15.9241    1.1729    2.4898 H   0  0  0  0  0  0  0  0  0  0  0  0
    1.9140    1.0973    0.8223 H   0  0  0  0  0  0  0  0  0  0  0  0
    2.4222   -0.6081    0.5932 H   0  0  0  0  0  0  0  0  0  0  0  0
    2.0859    0.4399   -0.8386 H   0  0  0  0  0  0  0  0  0  0  0  0
    0.5252   -1.4507    2.0541 H   0  0  0  0  0  0  0  0  0  0  0  0
   -1.1509   -0.8453    1.7945 H   0  0  0  0  0  0  0  0  0  0  0  0
    0.1286    0.2787    2.3563 H   0  0  0  0  0  0  0  0  0  0  0  0
   -0.4558    1.7840    0.4715 H   0  0  0  0  0  0  0  0  0  0  0  0
   -0.2449    1.2867   -1.2420 H   0  0  0  0  0  0  0  0  0  0  0  0
   -2.5044    1.6379   -2.9162 H   0  0  0  0  0  0  0  0  0  0  0  0
   -4.9161    2.2609    1.8754 H   0  0  0  0  0  0  0  0  0  0  0  0
   -6.6991   -1.2452   -0.6281 H   0  0  0  0  0  0  0  0  0  0  0  0
   -6.7614    0.3336   -1.5205 H   0  0  0  0  0  0  0  0  0  0  0  0
   -8.9364   -0.8870   -1.4732 H   0  0  0  0  0  0  0  0  0  0  0  0
  -11.1150   -1.1819    0.5141 H   0  0  0  0  0  0  0  0  0  0  0  0
  -12.5115   -0.8845    2.6391 H   0  0  0  0  0  0  0  0  0  0  0  0
   -9.7626    2.1778    7.2738 H   0  0  0  0  0  0  0  0  0  0  0  0
  -11.1980    1.2190    6.7708 H   0  0  0  0  0  0  0  0  0  0  0  0
   -6.9567    2.3453    3.4958 H   0  0  0  0  0  0  0  0  0  0  0  0
  -10.9389    1.7392    0.5371 H   0  0  0  0  0  0  0  0  0  0  0  0
  -11.9383    1.4533   -1.3789 H   0  0  0  0  0  0  0  0  0  0  0  0
   -8.6872    1.8175   -0.0509 H   0  0  0  0  0  0  0  0  0  0  0  0
  -10.4823    3.3350   -3.9334 H   0  0  0  0  0  0  0  0  0  0  0  0
   -9.9397    4.0107   -0.2530 H   0  0  0  0  0  0  0  0  0  0  0  0
  1  2  1  0
  1  3  1  0
  3  4  1  0
  3  5  2  3
  5  6  1  0
  6  7  1  0
  7  8  1  0
  8  9  1  0
  8 10  2  3
 10 11  1  0
 11 12  1  0
 12 13  1  0
 13 14  1  0
 14 15  2  0
 14 16  1  0
 16 17  1  0
 17 18  1  0
 18 19  1  0
 19 20  1  0
 20 21  1  0
 21 22  1  0
  1 23  1  0
 23 24  1  0
 23 25  1  0
 23 26  1  0
 26 27  1  0
 27 28  1  0
 28 29  1  0
 28 30  2  0
 28 31  1  0
 31 32  1  0
 32 33  1  0
 32 34  2  0
 32 35  1  0
 35 36  1  0
 36 37  1  0
 37 38  1  0
 38 39  1  0
 39 40  1  0
 40 41  1  0
 41 42  2  0
 42 43  1  0
 43 44  2  0
 44 45  1  0
 44 46  1  0
 46 47  2  0
 47 48  1  0
 48 49  2  0
 39 50  1  0
 50 51  1  0
 50 52  1  0
 52 53  1  0
 53 54  1  0
 54 55  1  0
 54 56  1  0
 54 57  2  0
 52 37  1  0
 49 40  1  0
 49 43  1  0
  1 58  1  1
  2 59  1  0
  4 60  1  0
  6 61  1  0
  6 62  1  0
  7 63  1  0
  7 64  1  0
  9 65  1  0
 11 66  1  0
 11 67  1  0
 12 68  1  0
 12 69  1  0
 16 70  1  0
 16 71  1  0
 18 72  1  0
 18 73  1  0
 19 74  1  0
 19 75  1  0
 20 76  1  0
 20 77  1  0
 21 78  1  0
 21 79  1  0
 22 80  1  0
 22 81  1  0
 22 82  1  0
 24 83  1  0
 24 84  1  0
 24 85  1  0
 25 86  1  0
 25 87  1  0
 25 88  1  0
 26 89  1  0
 26 90  1  0
 29 91  1  0
 33 92  1  0
 36 93  1  0
 36 94  1  0
 37 95  1  6
 39 96  1  6
 41 97  1  0
 45 98  1  0
 45 99  1  0
 47100  1  0
 50101  1  1
 51102  1  0
 52103  1  1
 55104  1  0
 56105  1  0
M  END
$$$$
