
     RDKit          3D

 39 41  0  0  0  0  0  0  0  0999 V2000
    4.8799    0.5109    1.5782 C   0  0  0  0  0  0  0  0  0  0  0  0
    4.6702   -0.2873    0.3573 N   0  0  0  0  0  0  0  0  0  0  0  0
    5.9222   -0.9716   -0.0028 C   0  0  0  0  0  0  0  0  0  0  0  0
    3.5926   -1.2777    0.5552 C   0  0  0  0  0  0  0  0  0  0  0  0
    2.2507   -0.6080    0.5282 C   0  0  0  0  0  0  0  0  0  0  0  0
    1.5896   -0.5030    1.5967 O   0  0  0  0  0  0  0  0  0  0  0  0
    1.7615   -0.0376   -0.6958 N   0  0  0  0  0  0  0  0  0  0  0  0
    0.4340    0.4890   -0.8635 C   0  0  0  0  0  0  0  0  0  0  0  0
   -0.6787   -0.1300   -0.2677 C   0  0  0  0  0  0  0  0  0  0  0  0
   -1.9867    0.3851   -0.4466 C   0  0  0  0  0  0  0  0  0  0  0  0
   -2.1495    1.5284   -1.2727 C   0  0  0  0  0  0  0  0  0  0  0  0
   -3.3867    2.0549   -1.4882 N   0  0  0  0  0  0  0  0  0  0  0  0
   -4.5057    1.5216   -0.9353 C   0  0  0  0  0  0  0  0  0  0  0  0
   -5.6242    2.0547   -1.1767 O   0  0  0  0  0  0  0  0  0  0  0  0
   -4.4169    0.3911   -0.1043 C   0  0  0  0  0  0  0  0  0  0  0  0
   -5.5759   -0.1637    0.4745 C   0  0  0  0  0  0  0  0  0  0  0  0
   -5.4889   -1.2784    1.3043 C   0  0  0  0  0  0  0  0  0  0  0  0
   -4.2509   -1.8529    1.5713 C   0  0  0  0  0  0  0  0  0  0  0  0
   -3.0893   -1.3211    1.0086 C   0  0  0  0  0  0  0  0  0  0  0  0
   -3.1446   -0.1915    0.1538 C   0  0  0  0  0  0  0  0  0  0  0  0
   -1.0340    2.1208   -1.8835 C   0  0  0  0  0  0  0  0  0  0  0  0
    0.2422    1.6024   -1.6846 C   0  0  0  0  0  0  0  0  0  0  0  0
    5.1695   -0.1324    2.4391 H   0  0  0  0  0  0  0  0  0  0  0  0
    5.6771    1.2666    1.4091 H   0  0  0  0  0  0  0  0  0  0  0  0
    3.9563    1.0700    1.8385 H   0  0  0  0  0  0  0  0  0  0  0  0
    5.7974   -1.5158   -0.9636 H   0  0  0  0  0  0  0  0  0  0  0  0
    6.7369   -0.2306   -0.1538 H   0  0  0  0  0  0  0  0  0  0  0  0
    6.2291   -1.6936    0.7869 H   0  0  0  0  0  0  0  0  0  0  0  0
    3.7296   -1.8373    1.5090 H   0  0  0  0  0  0  0  0  0  0  0  0
    3.5976   -2.0261   -0.2684 H   0  0  0  0  0  0  0  0  0  0  0  0
    2.4433    0.0898   -1.4779 H   0  0  0  0  0  0  0  0  0  0  0  0
   -0.4978   -1.0265    0.2980 H   0  0  0  0  0  0  0  0  0  0  0  0
   -3.4901    2.8968   -2.1012 H   0  0  0  0  0  0  0  0  0  0  0  0
   -6.5537    0.2639    0.2885 H   0  0  0  0  0  0  0  0  0  0  0  0
   -6.3850   -1.6966    1.7447 H   0  0  0  0  0  0  0  0  0  0  0  0
   -4.1889   -2.7165    2.2213 H   0  0  0  0  0  0  0  0  0  0  0  0
   -2.1673   -1.8133    1.2680 H   0  0  0  0  0  0  0  0  0  0  0  0
   -1.1537    2.9895   -2.5195 H   0  0  0  0  0  0  0  0  0  0  0  0
    1.0889    2.0760   -2.1659 H   0  0  0  0  0  0  0  0  0  0  0  0
  1  2  1  0
  2  3  1  0
  2  4  1  0
  4  5  1  0
  5  6  2  0
  5  7  1  0
  7  8  1  0
  8  9  2  0
  9 10  1  0
 10 11  2  0
 11 12  1  0
 12 13  1  0
 13 14  2  0
 13 15  1  0
 15 16  2  0
 16 17  1  0
 17 18  2  0
 18 19  1  0
 19 20  2  0
 11 21  1  0
 21 22  2  0
 22  8  1  0
 20 10  1  0
 20 15  1  0
  1 23  1  0
  1 24  1  0
  1 25  1  0
  3 26  1  0
  3 27  1  0
  3 28  1  0
  4 29  1  0
  4 30  1  0
  7 31  1  0
  9 32  1  0
 12 33  1  0
 16 34  1  0
 17 35  1  0
 18 36  1  0
 19 37  1  0
 21 38  1  0
 22 39  1  0
M  END
$$$$
