
     RDKit          3D

 53 56  0  0  0  0  0  0  0  0999 V2000
    0.8440    1.0023    0.7579 C   0  0  0  0  0  0  0  0  0  0  0  0
    1.5906    1.9669   -0.1206 C   0  0  0  0  0  0  0  0  0  0  0  0
    3.0262    1.6981   -0.0822 N   0  0  0  0  0  0  0  0  0  0  0  0
    3.6271    0.6733   -0.6198 C   0  0  0  0  0  0  0  0  0  0  0  0
    2.9174   -0.3163   -1.3078 O   0  0  0  0  0  0  0  0  0  0  0  0
    5.0910    0.5342   -0.4658 C   0  0  0  0  0  0  0  0  0  0  0  0
    5.9153    0.0754   -1.5204 C   0  0  0  0  0  0  0  0  0  0  0  0
    5.4191   -0.1542   -2.8064 O   0  0  0  0  0  0  0  0  0  0  0  0
    7.2832   -0.1282   -1.2959 C   0  0  0  0  0  0  0  0  0  0  0  0
    8.0866   -0.6003   -2.3330 O   0  0  0  0  0  0  0  0  0  0  0  0
    7.8435    0.1517   -0.0441 C   0  0  0  0  0  0  0  0  0  0  0  0
    7.0479    0.6428    1.0014 C   0  0  0  0  0  0  0  0  0  0  0  0
    5.6728    0.8302    0.7802 C   0  0  0  0  0  0  0  0  0  0  0  0
    7.6330    0.9377    2.2837 N   0  0  0  0  0  4  0  0  0  0  0  0
    8.9784    0.7448    2.4998 O   0  0  0  0  0  1  0  0  0  0  0  0
    6.9315    1.3760    3.2191 O   0  0  0  0  0  0  0  0  0  0  0  0
   -0.4942    1.0287    0.8245 C   0  0  0  0  0  0  0  0  0  0  0  0
   -1.2569    0.0636    1.6987 C   0  0  1  0  0  0  0  0  0  0  0  0
   -2.6078    0.4750    1.7670 O   0  0  0  0  0  0  0  0  0  0  0  0
   -3.4041   -0.5534    1.2206 C   0  0  1  0  0  0  0  0  0  0  0  0
   -4.4434    0.0168    0.3621 N   0  0  0  0  0  0  0  0  0  0  0  0
   -4.3320    1.0506   -0.5131 C   0  0  0  0  0  0  0  0  0  0  0  0
   -5.4660    1.2725   -1.2341 N   0  0  0  0  0  0  0  0  0  0  0  0
   -6.2993    0.3186   -0.7772 C   0  0  0  0  0  0  0  0  0  0  0  0
   -7.6044    0.0278   -1.1578 C   0  0  0  0  0  0  0  0  0  0  0  0
   -8.2861    0.7916   -2.1528 N   0  0  0  0  0  0  0  0  0  0  0  0
   -8.2216   -1.0278   -0.5469 N   0  0  0  0  0  0  0  0  0  0  0  0
   -7.5792   -1.7780    0.4057 C   0  0  0  0  0  0  0  0  0  0  0  0
   -6.2946   -1.4841    0.7704 N   0  0  0  0  0  0  0  0  0  0  0  0
   -5.6885   -0.4332    0.1666 C   0  0  0  0  0  0  0  0  0  0  0  0
   -2.5086   -1.4956    0.4302 C   0  0  2  0  0  0  0  0  0  0  0  0
   -2.9916   -2.8139    0.4525 O   0  0  0  0  0  0  0  0  0  0  0  0
   -1.1921   -1.3663    1.1512 C   0  0  2  0  0  0  0  0  0  0  0  0
   -1.1139   -2.2718    2.2250 O   0  0  0  0  0  0  0  0  0  0  0  0
    1.3977    0.2673    1.3372 H   0  0  0  0  0  0  0  0  0  0  0  0
    1.2198    1.9159   -1.1675 H   0  0  0  0  0  0  0  0  0  0  0  0
    1.4153    2.9975    0.2534 H   0  0  0  0  0  0  0  0  0  0  0  0
    1.9157   -0.2898   -1.4461 H   0  0  0  0  0  0  0  0  0  0  0  0
    4.4884    0.1115   -3.0985 H   0  0  0  0  0  0  0  0  0  0  0  0
    9.0802   -0.7551   -2.2073 H   0  0  0  0  0  0  0  0  0  0  0  0
    8.9035   -0.0078    0.1057 H   0  0  0  0  0  0  0  0  0  0  0  0
    5.0449    1.1829    1.5896 H   0  0  0  0  0  0  0  0  0  0  0  0
   -1.0441    1.7737    0.2552 H   0  0  0  0  0  0  0  0  0  0  0  0
   -0.8252    0.1065    2.7236 H   0  0  0  0  0  0  0  0  0  0  0  0
   -3.8792   -1.1025    2.0652 H   0  0  0  0  0  0  0  0  0  0  0  0
   -3.4291    1.6329   -0.6406 H   0  0  0  0  0  0  0  0  0  0  0  0
   -9.2657    0.5488   -2.4204 H   0  0  0  0  0  0  0  0  0  0  0  0
   -7.8202    1.5985   -2.6243 H   0  0  0  0  0  0  0  0  0  0  0  0
   -8.0920   -2.6088    0.8703 H   0  0  0  0  0  0  0  0  0  0  0  0
   -2.3824   -1.1398   -0.6204 H   0  0  0  0  0  0  0  0  0  0  0  0
   -3.7527   -2.8439   -0.1838 H   0  0  0  0  0  0  0  0  0  0  0  0
   -0.3359   -1.5188    0.4508 H   0  0  0  0  0  0  0  0  0  0  0  0
   -0.7623   -3.1243    1.8570 H   0  0  0  0  0  0  0  0  0  0  0  0
  1  2  1  0
  2  3  1  0
  3  4  2  3
  4  5  1  0
  4  6  1  0
  6  7  2  0
  7  8  1  0
  7  9  1  0
  9 10  1  0
  9 11  2  0
 11 12  1  0
 12 13  2  0
 12 14  1  0
 14 15  1  0
 14 16  2  0
  1 17  2  0
 17 18  1  0
 18 19  1  0
 19 20  1  0
 20 21  1  0
 21 22  1  0
 22 23  2  0
 23 24  1  0
 24 25  2  0
 25 26  1  0
 25 27  1  0
 27 28  2  0
 28 29  1  0
 29 30  2  0
 20 31  1  0
 31 32  1  0
 31 33  1  0
 33 34  1  0
 13  6  1  0
 33 18  1  0
 30 21  1  0
 30 24  1  0
  1 35  1  0
  2 36  1  0
  2 37  1  0
  5 38  1  0
  8 39  1  0
 10 40  1  0
 11 41  1  0
 13 42  1  0
 17 43  1  0
 18 44  1  1
 20 45  1  1
 22 46  1  0
 26 47  1  0
 26 48  1  0
 28 49  1  0
 31 50  1  6
 32 51  1  0
 33 52  1  6
 34 53  1  0
M  CHG  2  14   1  15  -1
M  END
$$$$
