
     RDKit          3D

 41 43  0  0  0  0  0  0  0  0999 V2000
    6.2613   -0.6210   -1.8954 O   0  0  0  0  0  0  0  0  0  0  0  0
    5.1337   -0.9629   -1.1376 C   0  0  0  0  0  0  0  0  0  0  0  0
    5.2923   -0.6116    0.3304 C   0  0  0  0  0  0  0  0  0  0  0  0
    4.2736    0.4495    0.2708 N   0  0  0  0  0  0  0  0  0  0  0  0
    3.0949    0.1115    1.0982 C   0  0  0  0  0  0  0  0  0  0  0  0
    2.1793    1.3323    1.2789 C   0  0  0  0  0  0  0  0  0  0  0  0
    1.4259    1.7388    0.0047 C   0  0  0  0  0  0  0  0  0  0  0  0
    0.6989    0.6473   -0.5296 O   0  0  0  0  0  0  0  0  0  0  0  0
   -0.6327    0.6568   -0.0594 C   0  0  0  0  0  0  0  0  0  0  0  0
   -1.3315   -0.6189   -0.5236 C   0  0  0  0  0  0  0  0  0  0  0  0
   -2.7567   -0.6521   -0.0412 C   0  0  0  0  0  0  0  0  0  0  0  0
   -3.7812   -0.0752   -0.8220 C   0  0  0  0  0  0  0  0  0  0  0  0
   -5.0912   -0.0882   -0.3370 C   0  0  0  0  0  0  0  0  0  0  0  0
   -5.3743   -0.6519    0.8959 C   0  0  0  0  0  0  0  0  0  0  0  0
   -7.0170   -0.5160    1.2083 S   0  0  0  0  0  0  0  0  0  0  0  0
   -7.3861    0.2715   -0.2426 C   0  0  0  0  0  0  0  0  0  0  0  0
   -6.2167    0.4338   -0.9836 C   0  0  0  0  0  0  0  0  0  0  0  0
   -4.3859   -1.2176    1.6953 C   0  0  0  0  0  0  0  0  0  0  0  0
   -3.0654   -1.2115    1.2212 C   0  0  0  0  0  0  0  0  0  0  0  0
    4.0856    0.1321   -1.1557 C   0  0  0  0  0  0  0  0  0  0  0  0
    6.8992   -1.3721   -1.7819 H   0  0  0  0  0  0  0  0  0  0  0  0
    4.7317   -1.9821   -1.3368 H   0  0  0  0  0  0  0  0  0  0  0  0
    6.2907   -0.1836    0.5699 H   0  0  0  0  0  0  0  0  0  0  0  0
    5.0302   -1.4715    0.9900 H   0  0  0  0  0  0  0  0  0  0  0  0
    2.5265   -0.7617    0.7037 H   0  0  0  0  0  0  0  0  0  0  0  0
    3.4395   -0.1717    2.1182 H   0  0  0  0  0  0  0  0  0  0  0  0
    1.4405    1.1060    2.0772 H   0  0  0  0  0  0  0  0  0  0  0  0
    2.7861    2.1949    1.6306 H   0  0  0  0  0  0  0  0  0  0  0  0
    2.1587    2.0761   -0.7567 H   0  0  0  0  0  0  0  0  0  0  0  0
    0.7888    2.6300    0.2176 H   0  0  0  0  0  0  0  0  0  0  0  0
   -0.6642    0.6935    1.0537 H   0  0  0  0  0  0  0  0  0  0  0  0
   -1.1767    1.5356   -0.4751 H   0  0  0  0  0  0  0  0  0  0  0  0
   -0.7794   -1.5037   -0.1372 H   0  0  0  0  0  0  0  0  0  0  0  0
   -1.3051   -0.6724   -1.6342 H   0  0  0  0  0  0  0  0  0  0  0  0
   -3.5590    0.3742   -1.7825 H   0  0  0  0  0  0  0  0  0  0  0  0
   -8.3707    0.5985   -0.5482 H   0  0  0  0  0  0  0  0  0  0  0  0
   -6.1878    0.9129   -1.9537 H   0  0  0  0  0  0  0  0  0  0  0  0
   -4.6272   -1.6471    2.6589 H   0  0  0  0  0  0  0  0  0  0  0  0
   -2.2822   -1.6388    1.8349 H   0  0  0  0  0  0  0  0  0  0  0  0
    3.0786   -0.2624   -1.4193 H   0  0  0  0  0  0  0  0  0  0  0  0
    4.3748    0.9987   -1.7903 H   0  0  0  0  0  0  0  0  0  0  0  0
  1  2  1  0
  2  3  1  0
  3  4  1  0
  4  5  1  0
  5  6  1  0
  6  7  1  0
  7  8  1  0
  8  9  1  0
  9 10  1  0
 10 11  1  0
 11 12  2  0
 12 13  1  0
 13 14  2  0
 14 15  1  0
 15 16  1  0
 16 17  2  0
 14 18  1  0
 18 19  2  0
  4 20  1  0
 20  2  1  0
 19 11  1  0
 17 13  1  0
  1 21  1  0
  2 22  1  0
  3 23  1  0
  3 24  1  0
  5 25  1  0
  5 26  1  0
  6 27  1  0
  6 28  1  0
  7 29  1  0
  7 30  1  0
  9 31  1  0
  9 32  1  0
 10 33  1  0
 10 34  1  0
 12 35  1  0
 16 36  1  0
 17 37  1  0
 18 38  1  0
 19 39  1  0
 20 40  1  0
 20 41  1  0
M  END
$$$$
