
     RDKit          3D

 28 29  0  0  0  0  0  0  0  0999 V2000
    4.7861   -0.6866    2.5220 O   0  0  0  0  0  0  0  0  0  0  0  0
    4.1801   -0.4900    1.2847 C   0  0  0  0  0  0  0  0  0  0  0  0
    4.8742   -0.5380    0.2341 O   0  0  0  0  0  0  0  0  0  0  0  0
    2.7350   -0.2305    1.2114 C   0  0  0  0  0  0  0  0  0  0  0  0
    2.0647   -0.1883    2.2785 O   0  0  0  0  0  0  0  0  0  0  0  0
    2.0949   -0.0016   -0.0547 N   0  0  0  0  0  0  0  0  0  0  0  0
    0.6691    0.1091   -0.2013 C   0  0  0  0  0  0  0  0  0  0  0  0
   -0.1590   -0.8652    0.3819 C   0  0  0  0  0  0  0  0  0  0  0  0
   -1.5446   -0.8412    0.1834 C   0  0  0  0  0  0  0  0  0  0  0  0
   -2.1180    0.1667   -0.6230 C   0  0  0  0  0  0  0  0  0  0  0  0
   -3.5075    0.1873   -0.8260 C   0  0  0  0  0  0  0  0  0  0  0  0
   -4.3178   -0.7863   -0.2351 C   0  0  0  0  0  0  0  0  0  0  0  0
   -3.7500   -1.7850    0.5599 C   0  0  0  0  0  0  0  0  0  0  0  0
   -2.3684   -1.8156    0.7695 C   0  0  0  0  0  0  0  0  0  0  0  0
   -1.2961    1.1368   -1.2113 C   0  0  0  0  0  0  0  0  0  0  0  0
    0.0960    1.1269   -1.0041 C   0  0  0  0  0  0  0  0  0  0  0  0
    0.9153    2.2113   -1.5997 C   0  0  0  0  0  0  0  0  0  0  0  0
    2.1329    2.5770   -1.0322 O   0  0  0  0  0  0  0  0  0  0  0  0
    0.4969    2.8377   -2.6110 O   0  0  0  0  0  0  0  0  0  0  0  0
    5.7805   -0.8673    2.5909 H   0  0  0  0  0  0  0  0  0  0  0  0
    2.6884    0.1134   -0.9068 H   0  0  0  0  0  0  0  0  0  0  0  0
    0.2842   -1.6616    0.9683 H   0  0  0  0  0  0  0  0  0  0  0  0
   -3.9653    0.9535   -1.4403 H   0  0  0  0  0  0  0  0  0  0  0  0
   -5.3883   -0.7670   -0.3944 H   0  0  0  0  0  0  0  0  0  0  0  0
   -4.3817   -2.5372    1.0144 H   0  0  0  0  0  0  0  0  0  0  0  0
   -1.9453   -2.5978    1.3885 H   0  0  0  0  0  0  0  0  0  0  0  0
   -1.7458    1.9154   -1.8175 H   0  0  0  0  0  0  0  0  0  0  0  0
    2.6895    3.3241   -1.4300 H   0  0  0  0  0  0  0  0  0  0  0  0
  1  2  1  0
  2  3  2  0
  2  4  1  0
  4  5  2  0
  4  6  1  0
  6  7  1  0
  7  8  2  0
  8  9  1  0
  9 10  2  0
 10 11  1  0
 11 12  2  0
 12 13  1  0
 13 14  2  0
 10 15  1  0
 15 16  2  0
 16 17  1  0
 17 18  1  0
 17 19  2  0
 16  7  1  0
 14  9  1  0
  1 20  1  0
  6 21  1  0
  8 22  1  0
 11 23  1  0
 12 24  1  0
 13 25  1  0
 14 26  1  0
 15 27  1  0
 18 28  1  0
M  END
$$$$
