
     RDKit          3D

 50 51  0  0  0  0  0  0  0  0999 V2000
    3.3593   -1.5404    2.1615 C   0  0  0  0  0  0  0  0  0  0  0  0
    3.8758   -0.8279    0.8910 C   0  0  0  0  0  0  0  0  0  0  0  0
    5.1255   -0.0128    1.2862 C   0  0  0  0  0  0  0  0  0  0  0  0
    4.2901   -1.8654   -0.1761 C   0  0  0  0  0  0  0  0  0  0  0  0
    2.8571    0.1183    0.3706 N   0  0  0  0  0  0  0  0  0  0  0  0
    1.5995   -0.4797   -0.1308 C   0  0  0  0  0  0  0  0  0  0  0  0
    1.4807   -0.3946   -1.6672 C   0  0  2  0  0  0  0  0  0  0  0  0
    1.3637    0.9502   -2.0527 O   0  0  0  0  0  0  0  0  0  0  0  0
    0.2748   -1.2058   -2.1779 C   0  0  0  0  0  0  0  0  0  0  0  0
   -0.9294   -0.8472   -1.4960 O   0  0  0  0  0  0  0  0  0  0  0  0
   -1.6751    0.3286   -1.6898 C   0  0  0  0  0  0  0  0  0  0  0  0
   -1.5600    1.0935   -2.8683 C   0  0  0  0  0  0  0  0  0  0  0  0
   -2.3050    2.2621   -3.0312 C   0  0  0  0  0  0  0  0  0  0  0  0
   -3.1735    2.6840   -2.0272 C   0  0  0  0  0  0  0  0  0  0  0  0
   -3.3068    1.9345   -0.8585 C   0  0  0  0  0  0  0  0  0  0  0  0
   -2.5740    0.7440   -0.6790 C   0  0  0  0  0  0  0  0  0  0  0  0
   -2.7121   -0.0435    0.6187 C   0  0  0  0  0  0  0  0  0  0  0  0
   -2.1512    0.7284    1.8202 C   0  0  0  0  0  0  0  0  0  0  0  0
   -3.1209    0.4790    2.9616 C   0  0  0  0  0  0  0  0  0  0  0  0
   -4.4698    0.2649    2.3011 C   0  0  0  0  0  0  0  0  0  0  0  0
   -4.1721   -0.3898    0.9597 C   0  0  0  0  0  0  0  0  0  0  0  0
    2.5640   -2.2784    1.9345 H   0  0  0  0  0  0  0  0  0  0  0  0
    4.1817   -2.0985    2.6595 H   0  0  0  0  0  0  0  0  0  0  0  0
    2.9546   -0.7968    2.8813 H   0  0  0  0  0  0  0  0  0  0  0  0
    4.8611    0.7575    2.0427 H   0  0  0  0  0  0  0  0  0  0  0  0
    5.5532    0.5048    0.4004 H   0  0  0  0  0  0  0  0  0  0  0  0
    5.9136   -0.6699    1.7141 H   0  0  0  0  0  0  0  0  0  0  0  0
    5.1201   -2.5008    0.2015 H   0  0  0  0  0  0  0  0  0  0  0  0
    3.4494   -2.5395   -0.4399 H   0  0  0  0  0  0  0  0  0  0  0  0
    4.6357   -1.3535   -1.0996 H   0  0  0  0  0  0  0  0  0  0  0  0
    3.2852    0.7400   -0.3561 H   0  0  0  0  0  0  0  0  0  0  0  0
    0.7544    0.0794    0.3241 H   0  0  0  0  0  0  0  0  0  0  0  0
    1.4771   -1.5338    0.1865 H   0  0  0  0  0  0  0  0  0  0  0  0
    2.4012   -0.8337   -2.1162 H   0  0  0  0  0  0  0  0  0  0  0  0
    1.6091    0.9959   -3.0137 H   0  0  0  0  0  0  0  0  0  0  0  0
    0.4700   -2.2813   -1.9800 H   0  0  0  0  0  0  0  0  0  0  0  0
    0.1617   -1.1093   -3.2772 H   0  0  0  0  0  0  0  0  0  0  0  0
   -0.9037    0.7940   -3.6714 H   0  0  0  0  0  0  0  0  0  0  0  0
   -2.2073    2.8432   -3.9393 H   0  0  0  0  0  0  0  0  0  0  0  0
   -3.7449    3.5944   -2.1540 H   0  0  0  0  0  0  0  0  0  0  0  0
   -3.9810    2.2859   -0.0876 H   0  0  0  0  0  0  0  0  0  0  0  0
   -2.1574   -1.0052    0.5521 H   0  0  0  0  0  0  0  0  0  0  0  0
   -2.1040    1.8220    1.6211 H   0  0  0  0  0  0  0  0  0  0  0  0
   -1.1305    0.3759    2.0851 H   0  0  0  0  0  0  0  0  0  0  0  0
   -2.8241   -0.4429    3.5094 H   0  0  0  0  0  0  0  0  0  0  0  0
   -3.1471    1.3356    3.6695 H   0  0  0  0  0  0  0  0  0  0  0  0
   -5.1299   -0.3724    2.9285 H   0  0  0  0  0  0  0  0  0  0  0  0
   -4.9616    1.2490    2.1354 H   0  0  0  0  0  0  0  0  0  0  0  0
   -4.2804   -1.4929    1.0600 H   0  0  0  0  0  0  0  0  0  0  0  0
   -4.8969   -0.0494    0.1881 H   0  0  0  0  0  0  0  0  0  0  0  0
  1  2  1  0
  2  3  1  0
  2  4  1  0
  2  5  1  0
  5  6  1  0
  6  7  1  0
  7  8  1  0
  7  9  1  0
  9 10  1  0
 10 11  1  0
 11 12  2  0
 12 13  1  0
 13 14  2  0
 14 15  1  0
 15 16  2  0
 16 17  1  0
 17 18  1  0
 18 19  1  0
 19 20  1  0
 20 21  1  0
 16 11  1  0
 21 17  1  0
  1 22  1  0
  1 23  1  0
  1 24  1  0
  3 25  1  0
  3 26  1  0
  3 27  1  0
  4 28  1  0
  4 29  1  0
  4 30  1  0
  5 31  1  0
  6 32  1  0
  6 33  1  0
  7 34  1  6
  8 35  1  0
  9 36  1  0
  9 37  1  0
 12 38  1  0
 13 39  1  0
 14 40  1  0
 15 41  1  0
 17 42  1  0
 18 43  1  0
 18 44  1  0
 19 45  1  0
 19 46  1  0
 20 47  1  0
 20 48  1  0
 21 49  1  0
 21 50  1  0
M  END
$$$$
