
     RDKit          3D

 40 39  0  0  0  0  0  0  0  0999 V2000
   -3.9365   -2.1040    3.7851 C   0  0  0  0  0  0  0  0  0  0  0  0
   -3.6906   -1.8654    1.9973 S   0  0  0  0  0  0  0  0  0  0  0  0
   -1.8727   -1.7095    2.1165 C   0  0  0  0  0  0  0  0  0  0  0  0
   -1.2518   -1.4759    0.7298 C   0  0  2  0  0  0  0  0  0  0  0  0
    0.2111   -1.4972    0.8154 N   0  0  0  0  0  0  0  0  0  0  0  0
    1.0368   -1.5872   -0.3559 C   0  0  0  0  0  0  0  0  0  0  0  0
    0.5184   -1.8381   -1.4781 O   0  0  0  0  0  0  0  0  0  0  0  0
    2.5252   -1.4023   -0.2580 C   0  0  0  0  0  0  0  0  0  0  0  0
    3.0188   -0.2060   -1.0942 C   0  0  0  0  0  0  0  0  0  0  0  0
    2.9614    1.1436   -0.3487 C   0  0  2  0  0  0  0  0  0  0  0  0
    1.5792    1.5150   -0.0383 N   0  0  0  0  0  0  0  0  0  0  0  0
    3.5915    2.2054   -1.2079 C   0  0  0  0  0  0  0  0  0  0  0  0
    2.9230    2.6770   -2.3344 O   0  0  0  0  0  0  0  0  0  0  0  0
    4.7362    2.6500   -0.9250 O   0  0  0  0  0  0  0  0  0  0  0  0
   -1.6942   -0.1587    0.1435 C   0  0  0  0  0  0  0  0  0  0  0  0
   -1.5861    0.8980    0.8245 O   0  0  0  0  0  0  0  0  0  0  0  0
   -2.1770   -0.0978   -1.2062 N   0  0  0  0  0  0  0  0  0  0  0  0
   -2.4244    1.1684   -1.8903 C   0  0  0  0  0  0  0  0  0  0  0  0
   -1.1304    1.8560   -2.1903 C   0  0  0  0  0  0  0  0  0  0  0  0
   -0.8396    3.0797   -1.5959 O   0  0  0  0  0  0  0  0  0  0  0  0
   -0.3003    1.3234   -2.9747 O   0  0  0  0  0  0  0  0  0  0  0  0
   -3.3959   -3.0110    4.1273 H   0  0  0  0  0  0  0  0  0  0  0  0
   -5.0193   -2.2340    3.9873 H   0  0  0  0  0  0  0  0  0  0  0  0
   -3.5714   -1.2163    4.3423 H   0  0  0  0  0  0  0  0  0  0  0  0
   -1.6102   -0.8744    2.8020 H   0  0  0  0  0  0  0  0  0  0  0  0
   -1.4636   -2.6519    2.5408 H   0  0  0  0  0  0  0  0  0  0  0  0
   -1.5821   -2.3122    0.0746 H   0  0  0  0  0  0  0  0  0  0  0  0
    0.6730   -1.3779    1.7459 H   0  0  0  0  0  0  0  0  0  0  0  0
    2.8423   -1.2908    0.8012 H   0  0  0  0  0  0  0  0  0  0  0  0
    3.0046   -2.3282   -0.6430 H   0  0  0  0  0  0  0  0  0  0  0  0
    4.0807   -0.4042   -1.3620 H   0  0  0  0  0  0  0  0  0  0  0  0
    2.4546   -0.1399   -2.0514 H   0  0  0  0  0  0  0  0  0  0  0  0
    3.5426    1.0617    0.5991 H   0  0  0  0  0  0  0  0  0  0  0  0
    1.2690    0.9520    0.7845 H   0  0  0  0  0  0  0  0  0  0  0  0
    1.5633    2.5063    0.2970 H   0  0  0  0  0  0  0  0  0  0  0  0
    3.3391    3.3849   -2.9273 H   0  0  0  0  0  0  0  0  0  0  0  0
   -2.3292   -0.9855   -1.7359 H   0  0  0  0  0  0  0  0  0  0  0  0
   -2.9562    0.9751   -2.8466 H   0  0  0  0  0  0  0  0  0  0  0  0
   -3.0737    1.8167   -1.2633 H   0  0  0  0  0  0  0  0  0  0  0  0
    0.0344    3.5550   -1.7867 H   0  0  0  0  0  0  0  0  0  0  0  0
  1  2  1  0
  2  3  1  0
  3  4  1  0
  4  5  1  0
  5  6  1  0
  6  7  2  0
  6  8  1  0
  8  9  1  0
  9 10  1  0
 10 11  1  0
 10 12  1  0
 12 13  1  0
 12 14  2  0
  4 15  1  0
 15 16  2  0
 15 17  1  0
 17 18  1  0
 18 19  1  0
 19 20  1  0
 19 21  2  0
  1 22  1  0
  1 23  1  0
  1 24  1  0
  3 25  1  0
  3 26  1  0
  4 27  1  6
  5 28  1  0
  8 29  1  0
  8 30  1  0
  9 31  1  0
  9 32  1  0
 10 33  1  1
 11 34  1  0
 11 35  1  0
 13 36  1  0
 17 37  1  0
 18 38  1  0
 18 39  1  0
 20 40  1  0
M  END
$$$$
