
     RDKit          3D

 34 36  0  0  0  0  0  0  0  0999 V2000
   -1.2465   -0.9332    2.5401 C   0  0  0  0  0  0  0  0  0  0  0  0
   -1.6363   -0.3977    1.1537 C   0  0  2  0  0  0  0  0  0  0  0  0
   -2.1203    1.0506    1.2377 C   0  0  0  0  0  0  0  0  0  0  0  0
   -3.1222    1.1711    0.1087 C   0  0  0  0  0  0  0  0  0  0  0  0
   -3.5926   -0.2545   -0.1610 C   0  0  0  0  0  0  0  0  0  0  0  0
   -2.7879   -1.1635    0.6583 N   0  0  0  0  0  0  0  0  0  0  0  0
   -0.4456   -0.4846    0.2044 C   0  0  0  0  0  0  0  0  0  0  0  0
   -0.5199   -1.0080   -1.0491 N   0  0  0  0  0  0  0  0  0  0  0  0
    0.7228   -0.8283   -1.5279 C   0  0  0  0  0  0  0  0  0  0  0  0
    1.2162   -1.2323   -2.7644 C   0  0  0  0  0  0  0  0  0  0  0  0
    2.5713   -0.9834   -3.0412 C   0  0  0  0  0  0  0  0  0  0  0  0
    3.3896   -0.3347   -2.0901 C   0  0  0  0  0  0  0  0  0  0  0  0
    2.8601    0.0877   -0.8492 C   0  0  0  0  0  0  0  0  0  0  0  0
    3.7167    0.7944    0.1244 C   0  0  0  0  0  0  0  0  0  0  0  0
    3.2224    1.9091    0.8683 N   0  0  0  0  0  0  0  0  0  0  0  0
    4.9171    0.4397    0.2696 O   0  0  0  0  0  0  0  0  0  0  0  0
    1.5072   -0.1990   -0.6049 C   0  0  0  0  0  0  0  0  0  0  0  0
    0.7801    0.0187    0.5016 N   0  0  0  0  0  0  0  0  0  0  0  0
   -0.4803   -0.2862    3.0171 H   0  0  0  0  0  0  0  0  0  0  0  0
   -0.8422   -1.9648    2.4535 H   0  0  0  0  0  0  0  0  0  0  0  0
   -2.1354   -0.9646    3.2065 H   0  0  0  0  0  0  0  0  0  0  0  0
   -1.2984    1.7939    1.1374 H   0  0  0  0  0  0  0  0  0  0  0  0
   -2.6468    1.2339    2.2014 H   0  0  0  0  0  0  0  0  0  0  0  0
   -3.9693    1.8333    0.3919 H   0  0  0  0  0  0  0  0  0  0  0  0
   -2.6218    1.5824   -0.7958 H   0  0  0  0  0  0  0  0  0  0  0  0
   -3.4809   -0.4980   -1.2417 H   0  0  0  0  0  0  0  0  0  0  0  0
   -4.6616   -0.3651    0.1198 H   0  0  0  0  0  0  0  0  0  0  0  0
   -2.5031   -2.0084    0.1094 H   0  0  0  0  0  0  0  0  0  0  0  0
    0.5824   -1.7349   -3.4836 H   0  0  0  0  0  0  0  0  0  0  0  0
    2.9906   -1.2914   -3.9902 H   0  0  0  0  0  0  0  0  0  0  0  0
    4.4285   -0.1472   -2.3322 H   0  0  0  0  0  0  0  0  0  0  0  0
    3.8248    2.3683    1.5869 H   0  0  0  0  0  0  0  0  0  0  0  0
    2.2973    2.3376    0.6439 H   0  0  0  0  0  0  0  0  0  0  0  0
    1.0840    0.4593    1.3969 H   0  0  0  0  0  0  0  0  0  0  0  0
  2  1  1  1
  2  3  1  0
  3  4  1  0
  4  5  1  0
  5  6  1  0
  2  7  1  0
  7  8  2  0
  8  9  1  0
  9 10  2  0
 10 11  1  0
 11 12  2  0
 12 13  1  0
 13 14  1  0
 14 15  1  0
 14 16  2  0
 13 17  2  0
 17 18  1  0
  6  2  1  0
 18  7  1  0
 17  9  1  0
  1 19  1  0
  1 20  1  0
  1 21  1  0
  3 22  1  0
  3 23  1  0
  4 24  1  0
  4 25  1  0
  5 26  1  0
  5 27  1  0
  6 28  1  0
 10 29  1  0
 11 30  1  0
 12 31  1  0
 15 32  1  0
 15 33  1  0
 18 34  1  0
M  END
$$$$
