
     RDKit          3D

 45 46  0  0  0  0  0  0  0  0999 V2000
    2.1734   -1.4501    0.6016 C   0  0  1  0  0  0  0  0  0  0  0  0
    2.0379   -2.9200    0.1936 C   0  0  0  0  0  0  0  0  0  0  0  0
    3.5115   -1.2470    1.0247 O   0  0  0  0  0  0  0  0  0  0  0  0
    3.7346    0.0750    1.4880 C   0  0  2  0  0  0  0  0  0  0  0  0
    3.0595    0.3184    2.7018 O   0  0  0  0  0  0  0  0  0  0  0  0
    3.4609    1.1366    0.3918 C   0  0  2  0  0  0  0  0  0  0  0  0
    3.5847    2.4295    0.9262 O   0  0  0  0  0  0  0  0  0  0  0  0
    2.0633    0.9665   -0.2287 C   0  0  1  0  0  0  0  0  0  0  0  0
    1.9692    1.7452   -1.3946 O   0  0  0  0  0  0  0  0  0  0  0  0
    1.8248   -0.5165   -0.5896 C   0  0  2  0  0  0  0  0  0  0  0  0
    0.4671   -0.7724   -1.1247 N   0  0  0  0  0  0  0  0  0  0  0  0
   -0.6710   -0.3931   -0.2554 C   0  0  1  0  0  0  0  0  0  0  0  0
   -1.3172    0.8986   -0.7243 C   0  0  0  0  0  0  0  0  0  0  0  0
   -2.6390    1.1518   -0.6093 C   0  0  0  0  0  0  0  0  0  0  0  0
   -3.1633    2.5011   -1.0307 C   0  0  0  0  0  0  0  0  0  0  0  0
   -2.6766    3.4852   -0.1614 O   0  0  0  0  0  0  0  0  0  0  0  0
   -3.6332    0.0821   -0.1958 C   0  0  1  0  0  0  0  0  0  0  0  0
   -4.3105   -0.3632   -1.3430 O   0  0  0  0  0  0  0  0  0  0  0  0
   -2.9692   -1.1104    0.5263 C   0  0  2  0  0  0  0  0  0  0  0  0
   -2.6757   -0.7437    1.8514 O   0  0  0  0  0  0  0  0  0  0  0  0
   -1.6862   -1.5539   -0.2022 C   0  0  1  0  0  0  0  0  0  0  0  0
   -2.0094   -1.9922   -1.4994 O   0  0  0  0  0  0  0  0  0  0  0  0
    1.4792   -1.2930    1.4538 H   0  0  0  0  0  0  0  0  0  0  0  0
    0.9959   -3.1572   -0.1031 H   0  0  0  0  0  0  0  0  0  0  0  0
    2.7162   -3.1517   -0.6553 H   0  0  0  0  0  0  0  0  0  0  0  0
    2.3089   -3.5728    1.0504 H   0  0  0  0  0  0  0  0  0  0  0  0
    4.8188    0.1448    1.7192 H   0  0  0  0  0  0  0  0  0  0  0  0
    2.1366    0.6162    2.5030 H   0  0  0  0  0  0  0  0  0  0  0  0
    4.2138    0.9963   -0.4203 H   0  0  0  0  0  0  0  0  0  0  0  0
    4.5547    2.5910    1.0634 H   0  0  0  0  0  0  0  0  0  0  0  0
    1.3029    1.3067    0.5082 H   0  0  0  0  0  0  0  0  0  0  0  0
    1.8253    2.6841   -1.1053 H   0  0  0  0  0  0  0  0  0  0  0  0
    2.5473   -0.7650   -1.4016 H   0  0  0  0  0  0  0  0  0  0  0  0
    0.3772   -0.3466   -2.0778 H   0  0  0  0  0  0  0  0  0  0  0  0
   -0.3368   -0.2168    0.7874 H   0  0  0  0  0  0  0  0  0  0  0  0
   -0.6638    1.6977   -1.0603 H   0  0  0  0  0  0  0  0  0  0  0  0
   -2.8351    2.7162   -2.0725 H   0  0  0  0  0  0  0  0  0  0  0  0
   -4.2761    2.5075   -1.0107 H   0  0  0  0  0  0  0  0  0  0  0  0
   -3.0309    4.3491   -0.4976 H   0  0  0  0  0  0  0  0  0  0  0  0
   -4.3660    0.5490    0.5042 H   0  0  0  0  0  0  0  0  0  0  0  0
   -5.1537   -0.7876   -1.0348 H   0  0  0  0  0  0  0  0  0  0  0  0
   -3.6898   -1.9620    0.5390 H   0  0  0  0  0  0  0  0  0  0  0  0
   -2.5014   -1.5839    2.3510 H   0  0  0  0  0  0  0  0  0  0  0  0
   -1.2407   -2.3959    0.3782 H   0  0  0  0  0  0  0  0  0  0  0  0
   -1.3184   -2.6538   -1.7651 H   0  0  0  0  0  0  0  0  0  0  0  0
  1  2  1  0
  1  3  1  0
  3  4  1  0
  4  5  1  0
  4  6  1  0
  6  7  1  0
  6  8  1  0
  8  9  1  0
  8 10  1  0
 10 11  1  0
 11 12  1  0
 12 13  1  0
 13 14  2  0
 14 15  1  0
 15 16  1  0
 14 17  1  0
 17 18  1  0
 17 19  1  0
 19 20  1  0
 19 21  1  0
 21 22  1  0
 10  1  1  0
 21 12  1  0
  1 23  1  1
  2 24  1  0
  2 25  1  0
  2 26  1  0
  4 27  1  1
  5 28  1  0
  6 29  1  6
  7 30  1  0
  8 31  1  1
  9 32  1  0
 10 33  1  6
 11 34  1  0
 12 35  1  1
 13 36  1  0
 15 37  1  0
 15 38  1  0
 16 39  1  0
 17 40  1  1
 18 41  1  0
 19 42  1  1
 20 43  1  0
 21 44  1  1
 22 45  1  0
M  END
$$$$
