
     RDKit          3D

 43 47  0  0  0  0  0  0  0  0999 V2000
   -2.9245   -3.6525   -0.7629 C   0  0  0  0  0  0  0  0  0  0  0  0
   -3.3309   -2.2161   -0.6771 C   0  0  0  0  0  0  0  0  0  0  0  0
   -4.6827   -1.8569   -0.7366 C   0  0  0  0  0  0  0  0  0  0  0  0
   -5.0353   -0.5091   -0.6595 C   0  0  0  0  0  0  0  0  0  0  0  0
   -4.0440    0.4648   -0.5265 C   0  0  0  0  0  0  0  0  0  0  0  0
   -2.6955    0.0744   -0.4731 C   0  0  0  0  0  0  0  0  0  0  0  0
   -2.3812   -1.2493   -0.5506 N   0  0  0  0  0  0  0  0  0  0  0  0
   -1.6118    1.0654   -0.3314 C   0  0  0  0  0  0  0  0  0  0  0  0
   -0.3193    0.6482   -0.3033 N   0  0  0  0  0  0  0  0  0  0  0  0
    0.7193    1.5158   -0.1619 C   0  0  0  0  0  0  0  0  0  0  0  0
    2.0655    1.0095   -0.1913 N   0  0  0  0  0  0  0  0  0  0  0  0
    2.4164   -0.3202    0.2294 C   0  0  0  0  0  0  0  0  0  0  0  0
    1.6927   -0.9815    1.2626 C   0  0  0  0  0  0  0  0  0  0  0  0
    2.0510   -2.2786    1.6763 C   0  0  0  0  0  0  0  0  0  0  0  0
    3.1393   -2.8766    1.0496 C   0  0  0  0  0  0  0  0  0  0  0  0
    3.6692   -4.0890    1.2714 N   0  0  0  0  0  0  0  0  0  0  0  0
    4.7058   -4.2485    0.4552 N   0  0  0  0  0  0  0  0  0  0  0  0
    4.8391   -3.1266   -0.2942 C   0  0  0  0  0  0  0  0  0  0  0  0
    3.8480   -2.2432    0.0735 C   0  0  0  0  0  0  0  0  0  0  0  0
    3.5270   -0.9622   -0.3641 C   0  0  0  0  0  0  0  0  0  0  0  0
    0.4490    2.8963   -0.0463 C   0  0  0  0  0  0  0  0  0  0  0  0
    1.4567    3.8643    0.1359 C   0  0  0  0  0  0  0  0  0  0  0  0
    1.1201    5.2172    0.2452 C   0  0  0  0  0  0  0  0  0  0  0  0
   -0.2165    5.6183    0.1829 C   0  0  0  0  0  0  0  0  0  0  0  0
   -1.2265    4.6677    0.0192 C   0  0  0  0  0  0  0  0  0  0  0  0
   -0.9023    3.3107   -0.0901 C   0  0  0  0  0  0  0  0  0  0  0  0
   -1.8910    2.3913   -0.2293 N   0  0  0  0  0  0  0  0  0  0  0  0
   -1.8252   -3.7549   -0.6402 H   0  0  0  0  0  0  0  0  0  0  0  0
   -3.2139   -4.0645   -1.7524 H   0  0  0  0  0  0  0  0  0  0  0  0
   -3.4273   -4.2345    0.0379 H   0  0  0  0  0  0  0  0  0  0  0  0
   -5.4520   -2.6120   -0.8408 H   0  0  0  0  0  0  0  0  0  0  0  0
   -6.0772   -0.2190   -0.7030 H   0  0  0  0  0  0  0  0  0  0  0  0
   -4.3295    1.5075   -0.4673 H   0  0  0  0  0  0  0  0  0  0  0  0
    2.7989    1.5738   -0.6757 H   0  0  0  0  0  0  0  0  0  0  0  0
    0.8671   -0.4886    1.7585 H   0  0  0  0  0  0  0  0  0  0  0  0
    1.5043   -2.7875    2.4596 H   0  0  0  0  0  0  0  0  0  0  0  0
    3.3419   -4.8006    1.9618 H   0  0  0  0  0  0  0  0  0  0  0  0
    5.6017   -2.9733   -1.0461 H   0  0  0  0  0  0  0  0  0  0  0  0
    4.1073   -0.4814   -1.1415 H   0  0  0  0  0  0  0  0  0  0  0  0
    2.4998    3.5910    0.2112 H   0  0  0  0  0  0  0  0  0  0  0  0
    1.8980    5.9570    0.3838 H   0  0  0  0  0  0  0  0  0  0  0  0
   -0.4704    6.6669    0.2693 H   0  0  0  0  0  0  0  0  0  0  0  0
   -2.2609    4.9869   -0.0179 H   0  0  0  0  0  0  0  0  0  0  0  0
  1  2  1  0
  2  3  2  0
  3  4  1  0
  4  5  2  0
  5  6  1  0
  6  7  2  0
  6  8  1  0
  8  9  2  0
  9 10  1  0
 10 11  1  0
 11 12  1  0
 12 13  2  0
 13 14  1  0
 14 15  2  0
 15 16  1  0
 16 17  1  0
 17 18  2  0
 18 19  1  0
 19 20  2  0
 10 21  2  0
 21 22  1  0
 22 23  2  0
 23 24  1  0
 24 25  2  0
 25 26  1  0
 26 27  2  0
  7  2  1  0
 27  8  1  0
 20 12  1  0
 26 21  1  0
 19 15  1  0
  1 28  1  0
  1 29  1  0
  1 30  1  0
  3 31  1  0
  4 32  1  0
  5 33  1  0
 11 34  1  0
 13 35  1  0
 14 36  1  0
 16 37  1  0
 18 38  1  0
 20 39  1  0
 22 40  1  0
 23 41  1  0
 24 42  1  0
 25 43  1  0
M  END
$$$$
