
     RDKit          3D

 51 51  0  0  0  0  0  0  0  0999 V2000
    6.0180   -0.6332   -0.3771 C   0  0  0  0  0  0  0  0  0  0  0  0
    5.3438    0.1447   -1.4857 C   0  0  0  0  0  0  0  0  0  0  0  0
    6.0529    0.8001   -2.4270 C   0  0  0  0  0  0  0  0  0  0  0  0
    7.5532    0.8332   -2.4948 C   0  0  0  0  0  0  0  0  0  0  0  0
    8.0704    1.4386   -1.3427 O   0  0  0  0  0  0  0  0  0  0  0  0
    3.8620    0.2563   -1.5285 C   0  0  0  0  0  0  0  0  0  0  0  0
    3.0728    0.0022   -0.4770 C   0  0  0  0  0  0  0  0  0  0  0  0
    1.6031    0.1307   -0.5901 C   0  0  0  0  0  0  0  0  0  0  0  0
    0.7485   -0.0272    0.4393 C   0  0  0  0  0  0  0  0  0  0  0  0
    1.2391   -0.2897    1.8447 C   0  0  0  0  0  0  0  0  0  0  0  0
   -0.7050    0.0543    0.1542 C   0  0  0  0  0  0  0  0  0  0  0  0
   -1.6291   -0.5872    0.8786 C   0  0  0  0  0  0  0  0  0  0  0  0
   -3.0723   -0.4697    0.5586 C   0  0  0  0  0  0  0  0  0  0  0  0
   -3.5784   -1.1014   -0.5369 C   0  0  0  0  0  0  0  0  0  0  0  0
   -2.7215   -2.0291   -1.3658 C   0  0  0  0  0  0  0  0  0  0  0  0
   -5.0456   -1.0326   -0.8982 C   0  0  0  0  0  0  0  0  0  0  0  0
   -5.7508    0.1829   -0.3077 C   0  0  0  0  0  0  0  0  0  0  0  0
   -5.4407    0.2807    1.1813 C   0  0  0  0  0  0  0  0  0  0  0  0
   -3.9204    0.4593    1.4419 C   0  0  0  0  0  0  0  0  0  0  0  0
   -3.5105    1.9230    1.1614 C   0  0  0  0  0  0  0  0  0  0  0  0
   -3.6623    0.1563    2.9357 C   0  0  0  0  0  0  0  0  0  0  0  0
    6.1474    0.0214    0.5100 H   0  0  0  0  0  0  0  0  0  0  0  0
    5.4053   -1.5148   -0.0953 H   0  0  0  0  0  0  0  0  0  0  0  0
    7.0066   -1.0314   -0.6809 H   0  0  0  0  0  0  0  0  0  0  0  0
    5.5252    1.3573   -3.1935 H   0  0  0  0  0  0  0  0  0  0  0  0
    7.9524   -0.1987   -2.6097 H   0  0  0  0  0  0  0  0  0  0  0  0
    7.8594    1.4212   -3.3882 H   0  0  0  0  0  0  0  0  0  0  0  0
    9.0579    1.4065   -1.4352 H   0  0  0  0  0  0  0  0  0  0  0  0
    3.4030    0.5944   -2.4518 H   0  0  0  0  0  0  0  0  0  0  0  0
    3.5124   -0.2972    0.4634 H   0  0  0  0  0  0  0  0  0  0  0  0
    1.1963    0.3372   -1.5751 H   0  0  0  0  0  0  0  0  0  0  0  0
    1.5752   -1.3438    1.9352 H   0  0  0  0  0  0  0  0  0  0  0  0
    0.4460   -0.0944    2.5953 H   0  0  0  0  0  0  0  0  0  0  0  0
    2.0748    0.3945    2.1013 H   0  0  0  0  0  0  0  0  0  0  0  0
   -1.0289    0.6252   -0.7098 H   0  0  0  0  0  0  0  0  0  0  0  0
   -1.3479   -1.1973    1.7264 H   0  0  0  0  0  0  0  0  0  0  0  0
   -1.9368   -1.4513   -1.8965 H   0  0  0  0  0  0  0  0  0  0  0  0
   -2.2451   -2.7936   -0.7160 H   0  0  0  0  0  0  0  0  0  0  0  0
   -3.3265   -2.5632   -2.1289 H   0  0  0  0  0  0  0  0  0  0  0  0
   -5.5419   -1.9587   -0.5347 H   0  0  0  0  0  0  0  0  0  0  0  0
   -5.1588   -0.9977   -2.0035 H   0  0  0  0  0  0  0  0  0  0  0  0
   -5.4328    1.1048   -0.8387 H   0  0  0  0  0  0  0  0  0  0  0  0
   -6.8479    0.0738   -0.4495 H   0  0  0  0  0  0  0  0  0  0  0  0
   -6.0161    1.1253    1.6205 H   0  0  0  0  0  0  0  0  0  0  0  0
   -5.8076   -0.6489    1.6731 H   0  0  0  0  0  0  0  0  0  0  0  0
   -4.1442    2.6294    1.7397 H   0  0  0  0  0  0  0  0  0  0  0  0
   -3.6046    2.1660    0.0824 H   0  0  0  0  0  0  0  0  0  0  0  0
   -2.4530    2.1000    1.4536 H   0  0  0  0  0  0  0  0  0  0  0  0
   -2.6137    0.3875    3.2219 H   0  0  0  0  0  0  0  0  0  0  0  0
   -3.8548   -0.9165    3.1539 H   0  0  0  0  0  0  0  0  0  0  0  0
   -4.3286    0.7703    3.5799 H   0  0  0  0  0  0  0  0  0  0  0  0
  1  2  1  0
  2  3  2  0
  3  4  1  0
  4  5  1  0
  2  6  1  0
  6  7  2  0
  7  8  1  0
  8  9  2  0
  9 10  1  0
  9 11  1  0
 11 12  2  0
 12 13  1  0
 13 14  2  0
 14 15  1  0
 14 16  1  0
 16 17  1  0
 17 18  1  0
 18 19  1  0
 19 20  1  0
 19 21  1  0
 19 13  1  0
  1 22  1  0
  1 23  1  0
  1 24  1  0
  3 25  1  0
  4 26  1  0
  4 27  1  0
  5 28  1  0
  6 29  1  0
  7 30  1  0
  8 31  1  0
 10 32  1  0
 10 33  1  0
 10 34  1  0
 11 35  1  0
 12 36  1  0
 15 37  1  0
 15 38  1  0
 15 39  1  0
 16 40  1  0
 16 41  1  0
 17 42  1  0
 17 43  1  0
 18 44  1  0
 18 45  1  0
 20 46  1  0
 20 47  1  0
 20 48  1  0
 21 49  1  0
 21 50  1  0
 21 51  1  0
M  END
$$$$
