
     RDKit          3D

 42 45  0  0  0  0  0  0  0  0999 V2000
   -6.3158    0.3298    0.5956 O   0  0  0  0  0  0  0  0  0  0  0  0
   -5.0156    0.4592    0.0888 C   0  0  0  0  0  0  0  0  0  0  0  0
   -4.0360   -0.3598    0.9289 C   0  0  0  0  0  0  0  0  0  0  0  0
   -2.6738   -0.1851    0.4316 N   0  0  0  0  0  0  0  0  0  0  0  0
   -2.1206   -1.0201   -0.5970 C   0  0  0  0  0  0  0  0  0  0  0  0
   -2.9395   -1.8106   -1.3548 N   0  0  0  0  0  0  0  0  0  0  0  0
   -2.4618   -2.5523   -2.4006 C   0  0  0  0  0  0  0  0  0  0  0  0
   -1.1391   -2.5092   -2.7303 N   0  0  0  0  0  0  0  0  0  0  0  0
   -0.3122   -1.7400   -1.9838 C   0  0  0  0  0  0  0  0  0  0  0  0
   -0.7552   -1.0148   -0.9137 C   0  0  0  0  0  0  0  0  0  0  0  0
    0.3673   -0.3878   -0.3909 C   0  0  0  0  0  0  0  0  0  0  0  0
    1.4233   -0.7846   -1.2258 C   0  0  0  0  0  0  0  0  0  0  0  0
    0.9739   -1.5901   -2.1711 O   0  0  0  0  0  0  0  0  0  0  0  0
    2.8491   -0.4072   -1.1177 C   0  0  0  0  0  0  0  0  0  0  0  0
    3.6080   -0.2420   -2.2882 C   0  0  0  0  0  0  0  0  0  0  0  0
    4.9604    0.1051   -2.2112 C   0  0  0  0  0  0  0  0  0  0  0  0
    5.5697    0.2763   -0.9659 C   0  0  0  0  0  0  0  0  0  0  0  0
    4.8297    0.0918    0.2045 C   0  0  0  0  0  0  0  0  0  0  0  0
    3.4772   -0.2556    0.1320 C   0  0  0  0  0  0  0  0  0  0  0  0
    0.4450    0.5021    0.7816 C   0  0  0  0  0  0  0  0  0  0  0  0
    0.0559    0.0379    2.0483 C   0  0  0  0  0  0  0  0  0  0  0  0
    0.1528    0.8757    3.1633 C   0  0  0  0  0  0  0  0  0  0  0  0
    0.6462    2.1759    3.0216 C   0  0  0  0  0  0  0  0  0  0  0  0
    1.0447    2.6399    1.7645 C   0  0  0  0  0  0  0  0  0  0  0  0
    0.9472    1.8058    0.6466 C   0  0  0  0  0  0  0  0  0  0  0  0
   -6.6439   -0.5628    0.3103 H   0  0  0  0  0  0  0  0  0  0  0  0
   -4.9809    0.1326   -0.9754 H   0  0  0  0  0  0  0  0  0  0  0  0
   -4.7254    1.5307    0.1280 H   0  0  0  0  0  0  0  0  0  0  0  0
   -4.0821   -0.0167    1.9851 H   0  0  0  0  0  0  0  0  0  0  0  0
   -4.3186   -1.4350    0.9090 H   0  0  0  0  0  0  0  0  0  0  0  0
   -2.1773    0.6905    0.7041 H   0  0  0  0  0  0  0  0  0  0  0  0
   -3.1401   -3.1639   -2.9792 H   0  0  0  0  0  0  0  0  0  0  0  0
    3.1504   -0.3687   -3.2618 H   0  0  0  0  0  0  0  0  0  0  0  0
    5.5362    0.2407   -3.1176 H   0  0  0  0  0  0  0  0  0  0  0  0
    6.6169    0.5437   -0.9077 H   0  0  0  0  0  0  0  0  0  0  0  0
    5.3064    0.2092    1.1690 H   0  0  0  0  0  0  0  0  0  0  0  0
    2.9355   -0.4292    1.0517 H   0  0  0  0  0  0  0  0  0  0  0  0
   -0.3199   -0.9706    2.1704 H   0  0  0  0  0  0  0  0  0  0  0  0
   -0.1515    0.5161    4.1377 H   0  0  0  0  0  0  0  0  0  0  0  0
    0.7223    2.8228    3.8859 H   0  0  0  0  0  0  0  0  0  0  0  0
    1.4303    3.6454    1.6566 H   0  0  0  0  0  0  0  0  0  0  0  0
    1.2610    2.1746   -0.3223 H   0  0  0  0  0  0  0  0  0  0  0  0
  1  2  1  0
  2  3  1  0
  3  4  1  0
  4  5  1  0
  5  6  2  0
  6  7  1  0
  7  8  2  0
  8  9  1  0
  9 10  2  0
 10 11  1  0
 11 12  2  0
 12 13  1  0
 12 14  1  0
 14 15  2  0
 15 16  1  0
 16 17  2  0
 17 18  1  0
 18 19  2  0
 11 20  1  0
 20 21  2  0
 21 22  1  0
 22 23  2  0
 23 24  1  0
 24 25  2  0
 10  5  1  0
 19 14  1  0
 25 20  1  0
 13  9  1  0
  1 26  1  0
  2 27  1  0
  2 28  1  0
  3 29  1  0
  3 30  1  0
  4 31  1  0
  7 32  1  0
 15 33  1  0
 16 34  1  0
 17 35  1  0
 18 36  1  0
 19 37  1  0
 21 38  1  0
 22 39  1  0
 23 40  1  0
 24 41  1  0
 25 42  1  0
M  END
$$$$
