
     RDKit          3D

 54 57  0  0  0  0  0  0  0  0999 V2000
   -1.1848    0.3118    0.8684 C   0  0  2  0  0  0  0  0  0  0  0  0
   -2.0991   -0.1066    2.0127 C   0  0  0  0  0  0  0  0  0  0  0  0
   -3.5219   -0.0116    1.4320 C   0  0  0  0  0  0  0  0  0  0  0  0
   -3.3805    0.3653   -0.0735 C   0  0  2  0  0  0  0  0  0  0  0  0
   -3.4666    1.7737   -0.1552 O   0  0  0  0  0  0  0  0  0  0  0  0
   -4.4636   -0.2496   -0.9723 C   0  0  0  0  0  0  0  0  0  0  0  0
   -5.6714   -0.9621   -0.4299 C   0  0  0  0  0  0  0  0  0  0  0  0
   -4.3503   -0.1503   -2.1854 O   0  0  0  0  0  0  0  0  0  0  0  0
   -1.9291   -0.1196   -0.4055 C   0  0  2  0  0  0  0  0  0  0  0  0
   -1.9282   -1.6728   -0.6220 C   0  0  0  0  0  0  0  0  0  0  0  0
   -1.2317    0.5709   -1.6055 C   0  0  0  0  0  0  0  0  0  0  0  0
    0.2690    0.2034   -1.6768 C   0  0  0  0  0  0  0  0  0  0  0  0
    1.0307    0.4700   -0.3384 C   0  0  1  0  0  0  0  0  0  0  0  0
    0.2905   -0.1476    0.8960 C   0  0  1  0  0  0  0  0  0  0  0  0
    0.9790    0.3109    2.1930 C   0  0  0  0  0  0  0  0  0  0  0  0
    2.4346   -0.1454    2.2265 C   0  0  0  0  0  0  0  0  0  0  0  0
    3.1810    0.3233    0.9994 C   0  0  0  0  0  0  0  0  0  0  0  0
    4.4481    0.7533    1.1464 C   0  0  0  0  0  0  0  0  0  0  0  0
    5.2925    1.1022   -0.0032 C   0  0  0  0  0  0  0  0  0  0  0  0
    6.4615    1.5296    0.1896 O   0  0  0  0  0  0  0  0  0  0  0  0
    4.8015    0.8911   -1.3983 C   0  0  0  0  0  0  0  0  0  0  0  0
    3.2741    0.9857   -1.4505 C   0  0  0  0  0  0  0  0  0  0  0  0
    2.5620    0.0864   -0.3874 C   0  0  2  0  0  0  0  0  0  0  0  0
    2.7688   -1.4048   -0.7582 C   0  0  0  0  0  0  0  0  0  0  0  0
   -1.1609    1.4290    0.9003 H   0  0  0  0  0  0  0  0  0  0  0  0
   -1.8747   -1.1491    2.3292 H   0  0  0  0  0  0  0  0  0  0  0  0
   -1.9804    0.5714    2.8860 H   0  0  0  0  0  0  0  0  0  0  0  0
   -4.1196    0.7500    1.9798 H   0  0  0  0  0  0  0  0  0  0  0  0
   -4.0123   -0.9960    1.5793 H   0  0  0  0  0  0  0  0  0  0  0  0
   -3.5198    2.0382   -1.1106 H   0  0  0  0  0  0  0  0  0  0  0  0
   -6.1261   -0.3725    0.3933 H   0  0  0  0  0  0  0  0  0  0  0  0
   -5.3806   -1.9675   -0.0610 H   0  0  0  0  0  0  0  0  0  0  0  0
   -6.4362   -1.0902   -1.2255 H   0  0  0  0  0  0  0  0  0  0  0  0
   -0.9150   -2.1083   -0.6902 H   0  0  0  0  0  0  0  0  0  0  0  0
   -2.4384   -1.9302   -1.5735 H   0  0  0  0  0  0  0  0  0  0  0  0
   -2.4541   -2.2073    0.1950 H   0  0  0  0  0  0  0  0  0  0  0  0
   -1.7260    0.2796   -2.5569 H   0  0  0  0  0  0  0  0  0  0  0  0
   -1.3017    1.6765   -1.5196 H   0  0  0  0  0  0  0  0  0  0  0  0
    0.7111    0.8185   -2.4871 H   0  0  0  0  0  0  0  0  0  0  0  0
    0.3732   -0.8532   -1.9900 H   0  0  0  0  0  0  0  0  0  0  0  0
    0.9899    1.5752   -0.1947 H   0  0  0  0  0  0  0  0  0  0  0  0
    0.3315   -1.2536    0.8750 H   0  0  0  0  0  0  0  0  0  0  0  0
    0.4593   -0.1245    3.0734 H   0  0  0  0  0  0  0  0  0  0  0  0
    0.9363    1.4193    2.2835 H   0  0  0  0  0  0  0  0  0  0  0  0
    2.4777   -1.2549    2.2742 H   0  0  0  0  0  0  0  0  0  0  0  0
    2.8973    0.2474    3.1589 H   0  0  0  0  0  0  0  0  0  0  0  0
    4.8794    0.8492    2.1361 H   0  0  0  0  0  0  0  0  0  0  0  0
    5.2363    1.6641   -2.0685 H   0  0  0  0  0  0  0  0  0  0  0  0
    5.1400   -0.1026   -1.7597 H   0  0  0  0  0  0  0  0  0  0  0  0
    2.9560    0.7099   -2.4781 H   0  0  0  0  0  0  0  0  0  0  0  0
    2.9924    2.0507   -1.2912 H   0  0  0  0  0  0  0  0  0  0  0  0
    2.1533   -2.0759   -0.1275 H   0  0  0  0  0  0  0  0  0  0  0  0
    2.5184   -1.5965   -1.8222 H   0  0  0  0  0  0  0  0  0  0  0  0
    3.8281   -1.7039   -0.6096 H   0  0  0  0  0  0  0  0  0  0  0  0
  1  2  1  0
  2  3  1  0
  3  4  1  0
  4  5  1  1
  4  6  1  0
  6  7  1  0
  6  8  2  0
  4  9  1  0
  9 10  1  6
  9 11  1  0
 11 12  1  0
 12 13  1  0
 13 14  1  0
 14 15  1  0
 15 16  1  0
 16 17  1  0
 17 18  2  0
 18 19  1  0
 19 20  2  0
 19 21  1  0
 21 22  1  0
 22 23  1  0
 23 24  1  6
  9  1  1  0
 23 13  1  0
 14  1  1  0
 23 17  1  0
  1 25  1  6
  2 26  1  0
  2 27  1  0
  3 28  1  0
  3 29  1  0
  5 30  1  0
  7 31  1  0
  7 32  1  0
  7 33  1  0
 10 34  1  0
 10 35  1  0
 10 36  1  0
 11 37  1  0
 11 38  1  0
 12 39  1  0
 12 40  1  0
 13 41  1  1
 14 42  1  6
 15 43  1  0
 15 44  1  0
 16 45  1  0
 16 46  1  0
 18 47  1  0
 21 48  1  0
 21 49  1  0
 22 50  1  0
 22 51  1  0
 24 52  1  0
 24 53  1  0
 24 54  1  0
M  END
$$$$
