
     RDKit          3D

 27 27  0  0  0  0  0  0  0  0999 V2000
   -0.8394    0.5911    0.0957 C   0  0  2  0  0  0  0  0  0  0  0  0
   -1.0699    1.4231    1.3726 C   0  0  0  0  0  0  0  0  0  0  0  0
   -1.7299   -0.6032    0.0288 N   0  0  0  0  0  0  0  0  0  0  0  0
   -1.5477   -1.3170   -1.2518 C   0  0  0  0  0  0  0  0  0  0  0  0
   -3.1540   -0.2356    0.1591 C   0  0  0  0  0  0  0  0  0  0  0  0
    0.6219    0.1751    0.0673 C   0  0  0  0  0  0  0  0  0  0  0  0
    1.5125    0.7721   -0.8424 C   0  0  0  0  0  0  0  0  0  0  0  0
    2.8637    0.3972   -0.8625 C   0  0  0  0  0  0  0  0  0  0  0  0
    3.7494    0.9823   -1.7646 O   0  0  0  0  0  0  0  0  0  0  0  0
    3.3301   -0.5722    0.0307 C   0  0  0  0  0  0  0  0  0  0  0  0
    2.4541   -1.1650    0.9431 C   0  0  0  0  0  0  0  0  0  0  0  0
    1.1073   -0.7932    0.9654 C   0  0  0  0  0  0  0  0  0  0  0  0
   -1.0519    1.2587   -0.7720 H   0  0  0  0  0  0  0  0  0  0  0  0
   -1.0710    0.7701    2.2714 H   0  0  0  0  0  0  0  0  0  0  0  0
   -0.2713    2.1882    1.4868 H   0  0  0  0  0  0  0  0  0  0  0  0
   -2.0337    1.9709    1.3166 H   0  0  0  0  0  0  0  0  0  0  0  0
   -2.2075   -2.2105   -1.2963 H   0  0  0  0  0  0  0  0  0  0  0  0
   -1.7749   -0.6558   -2.1177 H   0  0  0  0  0  0  0  0  0  0  0  0
   -0.5096   -1.6976   -1.3487 H   0  0  0  0  0  0  0  0  0  0  0  0
   -3.8102   -1.1115   -0.0381 H   0  0  0  0  0  0  0  0  0  0  0  0
   -3.4268    0.5820   -0.5448 H   0  0  0  0  0  0  0  0  0  0  0  0
   -3.3774    0.0762    1.2002 H   0  0  0  0  0  0  0  0  0  0  0  0
    1.1594    1.5259   -1.5352 H   0  0  0  0  0  0  0  0  0  0  0  0
    3.4439    1.6877   -2.4249 H   0  0  0  0  0  0  0  0  0  0  0  0
    4.3724   -0.8645    0.0186 H   0  0  0  0  0  0  0  0  0  0  0  0
    2.8194   -1.9132    1.6346 H   0  0  0  0  0  0  0  0  0  0  0  0
    0.4411   -1.2612    1.6794 H   0  0  0  0  0  0  0  0  0  0  0  0
  1  2  1  0
  1  3  1  0
  3  4  1  0
  3  5  1  0
  1  6  1  0
  6  7  2  0
  7  8  1  0
  8  9  1  0
  8 10  2  0
 10 11  1  0
 11 12  2  0
 12  6  1  0
  1 13  1  6
  2 14  1  0
  2 15  1  0
  2 16  1  0
  4 17  1  0
  4 18  1  0
  4 19  1  0
  5 20  1  0
  5 21  1  0
  5 22  1  0
  7 23  1  0
  9 24  1  0
 10 25  1  0
 11 26  1  0
 12 27  1  0
M  END
$$$$
