
     RDKit          3D

 55 58  0  0  0  0  0  0  0  0999 V2000
    1.0414   -2.6211   -2.1426 C   0  0  2  0  0  0  0  0  0  0  0  0
    1.2094   -4.3993   -2.0612 Cl  0  0  0  0  0  0  0  0  0  0  0  0
    1.3258   -2.0026   -0.7737 C   0  0  0  0  0  0  0  0  0  0  0  0
    0.1849   -2.1150    0.1260 N   0  0  0  0  0  0  0  0  0  0  0  0
   -1.0516   -2.2660   -0.2461 C   0  0  0  0  0  0  0  0  0  0  0  0
   -2.0906   -2.3077    0.7455 N   0  0  0  0  0  0  0  0  0  0  0  0
   -1.8298   -2.2992    2.1866 C   0  0  0  0  0  0  0  0  0  0  0  0
   -1.3884   -0.9149    2.6750 C   0  0  0  0  0  0  0  0  0  0  0  0
   -2.4057    0.1379    2.3409 C   0  0  0  0  0  0  0  0  0  0  0  0
   -3.5343    0.2505    3.0951 N   0  0  0  0  0  0  0  0  0  0  0  0
   -4.4965    1.1694    2.8123 C   0  0  0  0  0  0  0  0  0  0  0  0
   -4.3466    2.0259    1.7189 C   0  0  0  0  0  0  0  0  0  0  0  0
   -3.2028    1.9254    0.9249 C   0  0  0  0  0  0  0  0  0  0  0  0
   -2.2263    0.9769    1.2323 C   0  0  0  0  0  0  0  0  0  0  0  0
   -1.4220   -2.5141   -1.6956 C   0  0  2  0  0  0  0  0  0  0  0  0
   -1.8336   -3.8487   -1.8404 O   0  0  0  0  0  0  0  0  0  0  0  0
   -0.3051   -2.2663   -2.6366 N   0  0  0  0  0  0  0  0  0  0  0  0
   -0.3920   -1.0105   -3.4156 C   0  0  0  0  0  0  0  0  0  0  0  0
   -0.4066    0.2318   -2.5647 C   0  0  0  0  0  0  0  0  0  0  0  0
   -1.4903    0.6156   -2.0476 O   0  0  0  0  0  0  0  0  0  0  0  0
    0.7912    0.9967   -2.3763 N   0  0  0  0  0  0  0  0  0  0  0  0
    0.7854    2.2801   -1.6756 C   0  0  0  0  0  0  0  0  0  0  0  0
    2.1751    2.6375   -1.2299 C   0  0  0  0  0  0  0  0  0  0  0  0
    3.0086    3.4783   -1.9715 C   0  0  0  0  0  0  0  0  0  0  0  0
    4.5137    3.5774   -1.2110 S   0  0  0  0  0  0  0  0  0  0  0  0
    4.1206    2.5485    0.0534 C   0  0  0  0  0  0  0  0  0  0  0  0
    4.9321    2.1363    1.1069 C   0  0  0  0  0  0  0  0  0  0  0  0
    4.3969    1.2442    2.0470 C   0  0  0  0  0  0  0  0  0  0  0  0
    3.0711    0.7861    1.9190 C   0  0  0  0  0  0  0  0  0  0  0  0
    2.4217   -0.3393    3.0966 Cl  0  0  0  0  0  0  0  0  0  0  0  0
    2.2687    1.2215    0.8495 C   0  0  0  0  0  0  0  0  0  0  0  0
    2.8120    2.1091   -0.0903 C   0  0  0  0  0  0  0  0  0  0  0  0
    1.8212   -2.2744   -2.8555 H   0  0  0  0  0  0  0  0  0  0  0  0
    1.5765   -0.9343   -0.8971 H   0  0  0  0  0  0  0  0  0  0  0  0
    2.2095   -2.4852   -0.3053 H   0  0  0  0  0  0  0  0  0  0  0  0
   -3.0803   -2.4238    0.4311 H   0  0  0  0  0  0  0  0  0  0  0  0
   -1.0474   -3.0501    2.4300 H   0  0  0  0  0  0  0  0  0  0  0  0
   -2.7551   -2.5954    2.7278 H   0  0  0  0  0  0  0  0  0  0  0  0
   -0.4028   -0.6532    2.2372 H   0  0  0  0  0  0  0  0  0  0  0  0
   -1.2530   -0.9493    3.7774 H   0  0  0  0  0  0  0  0  0  0  0  0
   -5.3791    1.2329    3.4344 H   0  0  0  0  0  0  0  0  0  0  0  0
   -5.1099    2.7576    1.4884 H   0  0  0  0  0  0  0  0  0  0  0  0
   -3.0740    2.5792    0.0719 H   0  0  0  0  0  0  0  0  0  0  0  0
   -1.3421    0.8930    0.6160 H   0  0  0  0  0  0  0  0  0  0  0  0
   -2.2828   -1.8503   -1.9471 H   0  0  0  0  0  0  0  0  0  0  0  0
   -2.7703   -3.9082   -1.5159 H   0  0  0  0  0  0  0  0  0  0  0  0
    0.4424   -0.9553   -4.1476 H   0  0  0  0  0  0  0  0  0  0  0  0
   -1.3196   -1.0317   -4.0279 H   0  0  0  0  0  0  0  0  0  0  0  0
    1.6728    0.6667   -2.8321 H   0  0  0  0  0  0  0  0  0  0  0  0
    0.1193    2.2347   -0.7894 H   0  0  0  0  0  0  0  0  0  0  0  0
    0.3846    3.0638   -2.3537 H   0  0  0  0  0  0  0  0  0  0  0  0
    2.7403    3.9776   -2.8930 H   0  0  0  0  0  0  0  0  0  0  0  0
    5.9513    2.4892    1.1957 H   0  0  0  0  0  0  0  0  0  0  0  0
    5.0106    0.9060    2.8721 H   0  0  0  0  0  0  0  0  0  0  0  0
    1.2510    0.8663    0.7602 H   0  0  0  0  0  0  0  0  0  0  0  0
  1  2  1  0
  1  3  1  0
  3  4  1  0
  4  5  2  0
  5  6  1  0
  6  7  1  0
  7  8  1  0
  8  9  1  0
  9 10  2  0
 10 11  1  0
 11 12  2  0
 12 13  1  0
 13 14  2  0
  5 15  1  0
 15 16  1  0
 15 17  1  0
 17 18  1  0
 18 19  1  0
 19 20  2  0
 19 21  1  0
 21 22  1  0
 22 23  1  0
 23 24  2  0
 24 25  1  0
 25 26  1  0
 26 27  2  0
 27 28  1  0
 28 29  2  0
 29 30  1  0
 29 31  1  0
 31 32  2  0
 17  1  1  0
 32 23  1  0
 14  9  1  0
 32 26  1  0
  1 33  1  6
  3 34  1  0
  3 35  1  0
  6 36  1  0
  7 37  1  0
  7 38  1  0
  8 39  1  0
  8 40  1  0
 11 41  1  0
 12 42  1  0
 13 43  1  0
 14 44  1  0
 15 45  1  6
 16 46  1  0
 18 47  1  0
 18 48  1  0
 21 49  1  0
 22 50  1  0
 22 51  1  0
 24 52  1  0
 27 53  1  0
 28 54  1  0
 31 55  1  0
M  END
$$$$
