
     RDKit          3D

 60 62  0  0  0  0  0  0  0  0999 V2000
    4.1545    0.2238    0.3238 C   0  0  2  0  0  0  0  0  0  0  0  0
    3.4564    0.0889    1.7009 C   0  0  0  0  0  0  0  0  0  0  0  0
    4.3395    1.1183    2.9280 S   0  0  0  0  0  0  0  0  0  0  0  0
    4.9147    2.1139    1.5800 C   0  0  0  0  0  0  0  0  0  0  0  0
    5.3665    3.2772    1.7422 O   0  0  0  0  0  0  0  0  0  0  0  0
    4.7889    1.5327    0.2987 N   0  0  0  0  0  0  0  0  0  0  0  0
    3.1804    0.0618   -0.8797 C   0  0  1  0  0  0  0  0  0  0  0  0
    3.9005    0.2618   -2.0773 O   0  0  0  0  0  0  0  0  0  0  0  0
    2.5459   -1.3749   -0.8798 C   0  0  0  0  0  0  0  0  0  0  0  0
    1.0285   -1.2943   -0.7266 C   0  0  1  0  0  0  0  0  0  0  0  0
    0.4811   -0.3677   -1.8058 C   0  0  0  0  0  0  0  0  0  0  0  0
    1.1976    1.0063   -1.7775 C   0  0  1  0  0  0  0  0  0  0  0  0
    0.1773    2.1454   -1.5809 C   0  0  0  0  0  0  0  0  0  0  0  0
   -0.3898    2.2141   -0.1434 C   0  0  0  0  0  0  0  0  0  0  0  0
   -1.8117    2.8196   -0.0746 C   0  0  2  0  0  0  0  0  0  0  0  0
   -1.8643    4.2122   -0.7261 C   0  0  0  0  0  0  0  0  0  0  0  0
   -2.2632    2.9315    1.3679 C   0  0  0  0  0  0  0  0  0  0  0  0
   -2.5900    1.9046    2.1675 C   0  0  0  0  0  0  0  0  0  0  0  0
   -2.6338    0.4856    1.7749 C   0  0  0  0  0  0  0  0  0  0  0  0
   -3.4769    0.0189    0.8471 C   0  0  0  0  0  0  0  0  0  0  0  0
   -3.6479   -1.4632    0.6328 C   0  0  0  0  0  0  0  0  0  0  0  0
   -2.4383   -2.0774   -0.0945 C   0  0  0  0  0  0  0  0  0  0  0  0
   -2.2813   -3.5749    0.1436 C   0  0  0  0  0  0  0  0  0  0  0  0
   -3.4894   -4.4745    0.1209 C   0  0  0  0  0  0  0  0  0  0  0  0
   -1.0746   -4.1499    0.3397 C   0  0  0  0  0  0  0  0  0  0  0  0
    0.2061   -3.4362    0.2099 C   0  0  0  0  0  0  0  0  0  0  0  0
    1.1192   -3.6273    1.0563 O   0  0  0  0  0  0  0  0  0  0  0  0
    0.4059   -2.5680   -0.8657 O   0  0  0  0  0  0  0  0  0  0  0  0
    2.1892    1.0826   -0.7610 O   0  0  0  0  0  0  0  0  0  0  0  0
    4.9552   -0.5467    0.2596 H   0  0  0  0  0  0  0  0  0  0  0  0
    2.4067    0.4482    1.6591 H   0  0  0  0  0  0  0  0  0  0  0  0
    3.4547   -0.9684    2.0398 H   0  0  0  0  0  0  0  0  0  0  0  0
    5.2374    1.9430   -0.5509 H   0  0  0  0  0  0  0  0  0  0  0  0
    4.6202   -0.4217   -2.1194 H   0  0  0  0  0  0  0  0  0  0  0  0
    2.9623   -2.0140   -0.0730 H   0  0  0  0  0  0  0  0  0  0  0  0
    2.7754   -1.8972   -1.8353 H   0  0  0  0  0  0  0  0  0  0  0  0
    0.7815   -0.8713    0.2732 H   0  0  0  0  0  0  0  0  0  0  0  0
    0.6342   -0.8376   -2.8030 H   0  0  0  0  0  0  0  0  0  0  0  0
   -0.6177   -0.2682   -1.6711 H   0  0  0  0  0  0  0  0  0  0  0  0
    1.6722    1.1779   -2.7707 H   0  0  0  0  0  0  0  0  0  0  0  0
    0.6725    3.1134   -1.8142 H   0  0  0  0  0  0  0  0  0  0  0  0
   -0.6451    2.0151   -2.3191 H   0  0  0  0  0  0  0  0  0  0  0  0
    0.3058    2.8103    0.4883 H   0  0  0  0  0  0  0  0  0  0  0  0
   -0.4287    1.1960    0.2940 H   0  0  0  0  0  0  0  0  0  0  0  0
   -2.5149    2.1662   -0.6324 H   0  0  0  0  0  0  0  0  0  0  0  0
   -2.8727    4.6596   -0.5914 H   0  0  0  0  0  0  0  0  0  0  0  0
   -1.6762    4.1469   -1.8178 H   0  0  0  0  0  0  0  0  0  0  0  0
   -1.1088    4.8878   -0.2700 H   0  0  0  0  0  0  0  0  0  0  0  0
   -2.2778    3.9185    1.8176 H   0  0  0  0  0  0  0  0  0  0  0  0
   -2.7764    2.1211    3.2120 H   0  0  0  0  0  0  0  0  0  0  0  0
   -2.0851   -0.2168    2.3908 H   0  0  0  0  0  0  0  0  0  0  0  0
   -4.1231    0.7007    0.3075 H   0  0  0  0  0  0  0  0  0  0  0  0
   -4.5639   -1.6273    0.0262 H   0  0  0  0  0  0  0  0  0  0  0  0
   -3.7985   -1.9538    1.6200 H   0  0  0  0  0  0  0  0  0  0  0  0
   -1.5415   -1.5483    0.2777 H   0  0  0  0  0  0  0  0  0  0  0  0
   -2.5225   -1.8874   -1.1858 H   0  0  0  0  0  0  0  0  0  0  0  0
   -3.3240   -5.3125   -0.5896 H   0  0  0  0  0  0  0  0  0  0  0  0
   -4.4002   -3.9362   -0.2092 H   0  0  0  0  0  0  0  0  0  0  0  0
   -3.6664   -4.8890    1.1357 H   0  0  0  0  0  0  0  0  0  0  0  0
   -1.0256   -5.1988    0.6096 H   0  0  0  0  0  0  0  0  0  0  0  0
  1  2  1  0
  2  3  1  0
  3  4  1  0
  4  5  2  0
  4  6  1  0
  1  7  1  0
  7  8  1  6
  7  9  1  0
  9 10  1  0
 10 11  1  0
 11 12  1  0
 12 13  1  0
 13 14  1  0
 14 15  1  0
 15 16  1  0
 15 17  1  0
 17 18  2  0
 18 19  1  0
 19 20  2  0
 20 21  1  0
 21 22  1  0
 22 23  1  0
 23 24  1  0
 23 25  2  0
 25 26  1  0
 26 27  2  0
 26 28  1  0
 12 29  1  0
  6  1  1  0
 29  7  1  0
 28 10  1  0
  1 30  1  6
  2 31  1  0
  2 32  1  0
  6 33  1  0
  8 34  1  0
  9 35  1  0
  9 36  1  0
 10 37  1  1
 11 38  1  0
 11 39  1  0
 12 40  1  6
 13 41  1  0
 13 42  1  0
 14 43  1  0
 14 44  1  0
 15 45  1  6
 16 46  1  0
 16 47  1  0
 16 48  1  0
 17 49  1  0
 18 50  1  0
 19 51  1  0
 20 52  1  0
 21 53  1  0
 21 54  1  0
 22 55  1  0
 22 56  1  0
 24 57  1  0
 24 58  1  0
 24 59  1  0
 25 60  1  0
M  END
$$$$
