
     RDKit          2D

144145  0  0  0  0  0  0  0  0999 V2000
    8.8383    0.0000    0.0000 Gd  0  0  0  0  0 15  0  0  0  0  0  0
    1.2990   11.9201    0.0000 C   0  0  0  0  0  0  0  0  0  0  0  0
    0.0000   11.1701    0.0000 C   0  0  0  0  0  0  0  0  0  0  0  0
   -1.2990   11.9201    0.0000 O   0  0  0  0  0  1  0  0  0  0  0  0
   -0.0000    9.6701    0.0000 O   0  0  0  0  0  0  0  0  0  0  0  0
    1.2990   16.4691    0.0000 C   0  0  0  0  0  0  0  0  0  0  0  0
    0.0000   15.7191    0.0000 C   0  0  0  0  0  0  0  0  0  0  0  0
   -1.2990   16.4691    0.0000 O   0  0  0  0  0  1  0  0  0  0  0  0
   -0.0000   14.2191    0.0000 O   0  0  0  0  0  0  0  0  0  0  0  0
    4.2760    0.0000    0.0000 C   0  0  0  0  0  0  0  0  0  0  0  0
    2.7760    0.0000    0.0000 C   0  0  0  0  0  0  0  0  0  0  0  0
    1.2760    0.0000    0.0000 C   0  0  0  0  0  0  0  0  0  0  0  0
    0.3943    1.2135    0.0000 C   0  0  0  0  0  0  0  0  0  0  0  0
    0.8578    2.6401    0.0000 C   0  0  0  0  0  0  0  0  0  0  0  0
    1.3213    4.0667    0.0000 C   0  0  0  0  0  0  0  0  0  0  0  0
   -1.0323    0.7500    0.0000 C   0  0  0  0  0  0  0  0  0  0  0  0
   -2.4207    1.3176    0.0000 C   0  0  0  0  0  0  0  0  0  0  0  0
   -3.9205    1.3453    0.0000 C   0  0  0  0  0  0  0  0  0  0  0  0
   -5.3290    0.8294    0.0000 N   0  0  0  0  0  0  0  0  0  0  0  0
   -6.4560   -0.1605    0.0000 C   0  0  0  0  0  0  0  0  0  0  0  0
   -7.1493   -1.4906    0.0000 C   0  0  0  0  0  0  0  0  0  0  0  0
   -7.3153   -2.9814    0.0000 N   0  0  0  0  0  0  0  0  0  0  0  0
   -6.9315   -4.4315    0.0000 C   0  0  0  0  0  0  0  0  0  0  0  0
   -8.4233   -4.5883    0.0000 C   0  0  0  0  0  0  0  0  0  0  0  0
   -9.0334   -5.9586    0.0000 C   0  0  0  0  0  0  0  0  0  0  0  0
  -10.5252   -6.1154    0.0000 O   0  0  0  0  0  0  0  0  0  0  0  0
  -11.1353   -7.4857    0.0000 C   0  0  0  0  0  0  0  0  0  0  0  0
  -11.7454   -8.8560    0.0000 C   0  0  0  0  0  0  0  0  0  0  0  0
  -12.3555  -10.2264    0.0000 O   0  0  0  0  0  0  0  0  0  0  0  0
  -13.8473  -10.3832    0.0000 C   0  0  0  0  0  0  0  0  0  0  0  0
  -15.3390  -10.5399    0.0000 C   0  0  0  0  0  0  0  0  0  0  0  0
  -16.8308  -10.6967    0.0000 O   0  0  0  0  0  0  0  0  0  0  0  0
  -17.7125   -9.4832    0.0000 C   0  0  0  0  0  0  0  0  0  0  0  0
  -18.5942   -8.2697    0.0000 C   0  0  0  0  0  0  0  0  0  0  0  0
  -19.4759   -7.0562    0.0000 O   0  0  0  0  0  0  0  0  0  0  0  0
  -20.9676   -7.2130    0.0000 C   0  0  0  0  0  0  0  0  0  0  0  0
   -8.1517   -7.1721    0.0000 C   0  0  0  0  0  0  0  0  0  0  0  0
   -8.7618   -8.5425    0.0000 O   0  0  0  0  0  0  0  0  0  0  0  0
   -7.8801   -9.7560    0.0000 C   0  0  0  0  0  0  0  0  0  0  0  0
   -6.9984  -10.9695    0.0000 C   0  0  0  0  0  0  0  0  0  0  0  0
   -6.1168  -12.1830    0.0000 O   0  0  0  0  0  0  0  0  0  0  0  0
   -4.6250  -12.0262    0.0000 C   0  0  0  0  0  0  0  0  0  0  0  0
   -3.1332  -11.8694    0.0000 C   0  0  0  0  0  0  0  0  0  0  0  0
   -1.6414  -11.7127    0.0000 O   0  0  0  0  0  0  0  0  0  0  0  0
   -0.7597  -12.9262    0.0000 C   0  0  0  0  0  0  0  0  0  0  0  0
    0.1219  -14.1397    0.0000 C   0  0  0  0  0  0  0  0  0  0  0  0
    1.0036  -15.3532    0.0000 O   0  0  0  0  0  0  0  0  0  0  0  0
    2.4954  -15.1964    0.0000 C   0  0  0  0  0  0  0  0  0  0  0  0
   -6.6599   -7.0153    0.0000 C   0  0  0  0  0  0  0  0  0  0  0  0
   -6.0498   -5.6450    0.0000 C   0  0  0  0  0  0  0  0  0  0  0  0
   -4.7893   -6.4581    0.0000 N   0  0  0  0  0  0  0  0  0  0  0  0
   -3.3202   -6.7609    0.0000 C   0  0  0  0  0  0  0  0  0  0  0  0
   -1.8409   -6.5126    0.0000 C   0  0  0  0  0  0  0  0  0  0  0  0
   -0.5512   -5.7467    0.0000 N   0  0  0  0  0  0  0  0  0  0  0  0
    0.3747   -4.5665    0.0000 C   0  0  0  0  0  0  0  0  0  0  0  0
    0.8118   -3.1316    0.0000 C   0  0  0  0  0  0  0  0  0  0  0  0
    0.3943   -1.2135    0.0000 C   0  0  0  0  0  0  0  0  0  0  0  0
   -1.0323   -0.7500    0.0000 N   0  0  0  0  0  2  0  0  0  0  0  0
    0.9679   -5.9443    0.0000 C   0  0  0  0  0  0  0  0  0  0  0  0
    2.4312   -6.2742    0.0000 C   0  0  0  0  0  0  0  0  0  0  0  0
    3.8945   -6.6041    0.0000 C   0  0  0  0  0  0  0  0  0  0  0  0
    5.3577   -6.9340    0.0000 C   0  0  0  0  0  0  0  0  0  0  0  0
    6.8210   -7.2639    0.0000 O   0  0  0  0  0  0  0  0  0  0  0  0
   -0.1591   -6.9342    0.0000 C   0  0  0  0  0  0  0  0  0  0  0  0
   -0.0207   -8.4278    0.0000 C   0  0  0  0  0  0  0  0  0  0  0  0
   -6.7859    1.3028    0.0000 C   0  0  0  0  0  0  0  0  0  0  0  0
   -8.1636    1.8960    0.0000 C   0  0  0  0  0  0  0  0  0  0  0  0
   -5.4962    2.0687    0.0000 C   0  0  0  0  0  0  0  0  0  0  0  0
   -5.3578    3.5623    0.0000 C   0  0  0  0  0  0  0  0  0  0  0  0
   -5.2194    5.0559    0.0000 C   0  0  0  0  0  0  0  0  0  0  0  0
   -5.0810    6.5495    0.0000 C   0  0  0  0  0  0  0  0  0  0  0  0
   -4.9426    8.0431    0.0000 O   0  0  0  0  0  0  0  0  0  0  0  0
    2.0490   10.6210    0.0000 H   0  0  0  0  0  0  0  0  0  0  0  0
    0.5490   13.2191    0.0000 H   0  0  0  0  0  0  0  0  0  0  0  0
    2.5981   12.6701    0.0000 H   0  0  0  0  0  0  0  0  0  0  0  0
    2.0490   15.1701    0.0000 H   0  0  0  0  0  0  0  0  0  0  0  0
    0.5490   17.7682    0.0000 H   0  0  0  0  0  0  0  0  0  0  0  0
    2.5981   17.2191    0.0000 H   0  0  0  0  0  0  0  0  0  0  0  0
    4.2760   -1.5000    0.0000 H   0  0  0  0  0  0  0  0  0  0  0  0
    4.2760    1.5000    0.0000 H   0  0  0  0  0  0  0  0  0  0  0  0
    5.7760    0.0000    0.0000 H   0  0  0  0  0  0  0  0  0  0  0  0
    2.9588    1.4888    0.0000 H   0  0  0  0  0  0  0  0  0  0  0  0
    2.7760   -1.5000    0.0000 H   0  0  0  0  0  0  0  0  0  0  0  0
    2.3303    2.3539    0.0000 H   0  0  0  0  0  0  0  0  0  0  0  0
   -0.5688    3.1036    0.0000 H   0  0  0  0  0  0  0  0  0  0  0  0
   -0.1052    4.5302    0.0000 H   0  0  0  0  0  0  0  0  0  0  0  0
    2.7479    3.6032    0.0000 H   0  0  0  0  0  0  0  0  0  0  0  0
    1.7849    5.4933    0.0000 H   0  0  0  0  0  0  0  0  0  0  0  0
   -2.1179    2.7867    0.0000 H   0  0  0  0  0  0  0  0  0  0  0  0
   -8.5842   -1.0536    0.0000 H   0  0  0  0  0  0  0  0  0  0  0  0
   -9.3049   -3.3748    0.0000 H   0  0  0  0  0  0  0  0  0  0  0  0
  -12.5056   -6.8756    0.0000 H   0  0  0  0  0  0  0  0  0  0  0  0
   -9.7649   -8.0958    0.0000 H   0  0  0  0  0  0  0  0  0  0  0  0
  -10.3751   -9.4661    0.0000 H   0  0  0  0  0  0  0  0  0  0  0  0
  -13.1157   -8.2459    0.0000 H   0  0  0  0  0  0  0  0  0  0  0  0
  -13.6905  -11.8749    0.0000 H   0  0  0  0  0  0  0  0  0  0  0  0
  -14.0040   -8.8914    0.0000 H   0  0  0  0  0  0  0  0  0  0  0  0
  -15.4958   -9.0482    0.0000 H   0  0  0  0  0  0  0  0  0  0  0  0
  -15.1822  -12.0317    0.0000 H   0  0  0  0  0  0  0  0  0  0  0  0
  -18.9260  -10.3649    0.0000 H   0  0  0  0  0  0  0  0  0  0  0  0
  -16.4990   -8.6015    0.0000 H   0  0  0  0  0  0  0  0  0  0  0  0
  -17.3807   -7.3880    0.0000 H   0  0  0  0  0  0  0  0  0  0  0  0
  -19.8077   -9.1514    0.0000 H   0  0  0  0  0  0  0  0  0  0  0  0
  -21.1244   -5.7212    0.0000 H   0  0  0  0  0  0  0  0  0  0  0  0
  -20.8108   -8.7047    0.0000 H   0  0  0  0  0  0  0  0  0  0  0  0
  -22.4594   -7.3697    0.0000 H   0  0  0  0  0  0  0  0  0  0  0  0
   -9.0937  -10.6377    0.0000 H   0  0  0  0  0  0  0  0  0  0  0  0
   -6.6666   -8.8743    0.0000 H   0  0  0  0  0  0  0  0  0  0  0  0
   -5.7849  -10.0878    0.0000 H   0  0  0  0  0  0  0  0  0  0  0  0
   -8.2120  -11.8512    0.0000 H   0  0  0  0  0  0  0  0  0  0  0  0
   -4.4682  -13.5180    0.0000 H   0  0  0  0  0  0  0  0  0  0  0  0
   -4.7818  -10.5345    0.0000 H   0  0  0  0  0  0  0  0  0  0  0  0
   -2.9764  -13.3612    0.0000 H   0  0  0  0  0  0  0  0  0  0  0  0
   -3.2900  -10.3777    0.0000 H   0  0  0  0  0  0  0  0  0  0  0  0
    0.4538  -12.0445    0.0000 H   0  0  0  0  0  0  0  0  0  0  0  0
   -1.9733  -13.8079    0.0000 H   0  0  0  0  0  0  0  0  0  0  0  0
   -1.0916  -15.0214    0.0000 H   0  0  0  0  0  0  0  0  0  0  0  0
    1.3355  -13.2580    0.0000 H   0  0  0  0  0  0  0  0  0  0  0  0
    2.6522  -16.6882    0.0000 H   0  0  0  0  0  0  0  0  0  0  0  0
    2.3386  -13.7047    0.0000 H   0  0  0  0  0  0  0  0  0  0  0  0
    3.9872  -15.0396    0.0000 H   0  0  0  0  0  0  0  0  0  0  0  0
   -5.7782   -8.2289    0.0000 H   0  0  0  0  0  0  0  0  0  0  0  0
   -3.3479   -8.2607    0.0000 H   0  0  0  0  0  0  0  0  0  0  0  0
    2.3026   -3.2976    0.0000 H   0  0  0  0  0  0  0  0  0  0  0  0
    2.2821   -7.7668    0.0000 H   0  0  0  0  0  0  0  0  0  0  0  0
    2.7611   -4.8109    0.0000 H   0  0  0  0  0  0  0  0  0  0  0  0
    3.5645   -8.0674    0.0000 H   0  0  0  0  0  0  0  0  0  0  0  0
    4.2244   -5.1408    0.0000 H   0  0  0  0  0  0  0  0  0  0  0  0
    5.6876   -5.4708    0.0000 H   0  0  0  0  0  0  0  0  0  0  0  0
    5.0278   -8.3973    0.0000 H   0  0  0  0  0  0  0  0  0  0  0  0
    7.8383   -6.1617    0.0000 H   0  0  0  0  0  0  0  0  0  0  0  0
   -1.5143   -8.5662    0.0000 H   0  0  0  0  0  0  0  0  0  0  0  0
    1.4787   -8.4724    0.0000 H   0  0  0  0  0  0  0  0  0  0  0  0
    0.1177   -9.9214    0.0000 H   0  0  0  0  0  0  0  0  0  0  0  0
   -7.7428    3.3357    0.0000 H   0  0  0  0  0  0  0  0  0  0  0  0
   -8.7568    0.5182    0.0000 H   0  0  0  0  0  0  0  0  0  0  0  0
   -9.5413    2.4891    0.0000 H   0  0  0  0  0  0  0  0  0  0  0  0
   -3.8642    3.4239    0.0000 H   0  0  0  0  0  0  0  0  0  0  0  0
   -6.8234    3.8818    0.0000 H   0  0  0  0  0  0  0  0  0  0  0  0
   -6.7130    5.1943    0.0000 H   0  0  0  0  0  0  0  0  0  0  0  0
   -3.7258    4.9175    0.0000 H   0  0  0  0  0  0  0  0  0  0  0  0
   -3.5874    6.4111    0.0000 H   0  0  0  0  0  0  0  0  0  0  0  0
   -6.5746    6.6879    0.0000 H   0  0  0  0  0  0  0  0  0  0  0  0
   -3.5799    8.6701    0.0000 H   0  0  0  0  0  0  0  0  0  0  0  0
  2  3  1  0
  3  4  1  0
  3  5  2  0
  6  7  1  0
  7  8  1  0
  7  9  2  0
 10 11  1  0
 11 12  1  0
 12 13  2  0
 13 14  1  0
 14 15  1  0
 13 16  1  0
 16 17  2  0
 17 18  1  0
 18 19  2  0
 19 20  1  0
 20 21  2  0
 21 22  1  0
 22 23  2  0
 23 24  1  0
 24 25  2  0
 25 26  1  0
 26 27  1  0
 27 28  1  0
 28 29  1  0
 29 30  1  0
 30 31  1  0
 31 32  1  0
 32 33  1  0
 33 34  1  0
 34 35  1  0
 35 36  1  0
 25 37  1  0
 37 38  1  0
 38 39  1  0
 39 40  1  0
 40 41  1  0
 41 42  1  0
 42 43  1  0
 43 44  1  0
 44 45  1  0
 45 46  1  0
 46 47  1  0
 47 48  1  0
 37 49  2  0
 49 50  1  0
 50 51  2  0
 51 52  1  0
 52 53  2  0
 53 54  1  0
 54 55  2  0
 55 56  1  0
 56 57  2  0
 57 58  1  0
 55 59  1  0
 59 60  1  0
 60 61  1  0
 61 62  1  0
 62 63  1  0
 59 64  2  0
 64 65  1  0
 20 66  1  0
 66 67  1  0
 66 68  2  0
 68 69  1  0
 69 70  1  0
 70 71  1  0
 71 72  1  0
 57 12  1  0
 58 16  1  0
 68 18  1  0
 50 23  1  0
 64 53  1  0
  2 73  1  0
  2 74  1  0
  2 75  1  0
  6 76  1  0
  6 77  1  0
  6 78  1  0
 10 79  1  0
 10 80  1  0
 10 81  1  0
 11 82  1  0
 11 83  1  0
 14 84  1  0
 14 85  1  0
 15 86  1  0
 15 87  1  0
 15 88  1  0
 17 89  1  0
 21 90  1  0
 24 91  1  0
 27 92  1  0
 27 93  1  0
 28 94  1  0
 28 95  1  0
 30 96  1  0
 30 97  1  0
 31 98  1  0
 31 99  1  0
 33100  1  0
 33101  1  0
 34102  1  0
 34103  1  0
 36104  1  0
 36105  1  0
 36106  1  0
 39107  1  0
 39108  1  0
 40109  1  0
 40110  1  0
 42111  1  0
 42112  1  0
 43113  1  0
 43114  1  0
 45115  1  0
 45116  1  0
 46117  1  0
 46118  1  0
 48119  1  0
 48120  1  0
 48121  1  0
 49122  1  0
 52123  1  0
 56124  1  0
 60125  1  0
 60126  1  0
 61127  1  0
 61128  1  0
 62129  1  0
 62130  1  0
 63131  1  0
 65132  1  0
 65133  1  0
 65134  1  0
 67135  1  0
 67136  1  0
 67137  1  0
 69138  1  0
 69139  1  0
 70140  1  0
 70141  1  0
 71142  1  0
 71143  1  0
 72144  1  0
M  CHG  4   1   3   4  -1   8  -1  58  -1
M  END
$$$$
