
     RDKit          3D

 34 36  0  0  0  0  0  0  0  0999 V2000
   -3.1152    0.1732   -0.4777 C   0  0  2  0  0  0  0  0  0  0  0  0
   -4.5848   -0.2661   -0.3190 C   0  0  0  0  0  0  0  0  0  0  0  0
   -4.6781   -1.7100   -0.1167 N   0  0  0  0  0  0  0  0  0  0  0  0
   -2.3277   -0.0235    0.8234 C   0  0  0  0  0  0  0  0  0  0  0  0
   -0.9314   -0.3062    0.5234 N   0  0  0  0  0  0  0  0  0  0  0  0
   -0.0656    0.5728   -0.2184 C   0  0  0  0  0  0  0  0  0  0  0  0
   -0.4843    1.7156   -0.9399 C   0  0  0  0  0  0  0  0  0  0  0  0
    0.8822    2.4397   -1.6284 S   0  0  0  0  0  0  0  0  0  0  0  0
    1.9879    1.3325   -1.0467 C   0  0  0  0  0  0  0  0  0  0  0  0
    1.3334    0.3704   -0.2936 C   0  0  0  0  0  0  0  0  0  0  0  0
    2.0815   -0.6543    0.3096 C   0  0  0  0  0  0  0  0  0  0  0  0
    3.4772   -0.6954    0.1327 C   0  0  0  0  0  0  0  0  0  0  0  0
    4.1916   -1.7344    0.7475 O   0  0  0  0  0  0  0  0  0  0  0  0
    5.6025   -1.9031    0.6575 C   0  0  0  0  0  0  0  0  0  0  0  0
    4.1142    0.2999   -0.6485 C   0  0  0  0  0  0  0  0  0  0  0  0
    3.3648    1.3236   -1.2415 C   0  0  0  0  0  0  0  0  0  0  0  0
   -1.8375    2.2938   -1.1228 C   0  0  0  0  0  0  0  0  0  0  0  0
   -1.9228    3.4755   -1.5530 O   0  0  0  0  0  0  0  0  0  0  0  0
   -3.0544    1.5822   -0.8597 N   0  0  0  0  0  0  0  0  0  0  0  0
   -2.6644   -0.4361   -1.2936 H   0  0  0  0  0  0  0  0  0  0  0  0
   -5.0405    0.2601    0.5492 H   0  0  0  0  0  0  0  0  0  0  0  0
   -5.1591    0.0132   -1.2313 H   0  0  0  0  0  0  0  0  0  0  0  0
   -4.4114   -2.1839   -1.0104 H   0  0  0  0  0  0  0  0  0  0  0  0
   -5.6829   -1.9431    0.0548 H   0  0  0  0  0  0  0  0  0  0  0  0
   -2.7394   -0.8740    1.4098 H   0  0  0  0  0  0  0  0  0  0  0  0
   -2.3961    0.8785    1.4705 H   0  0  0  0  0  0  0  0  0  0  0  0
   -0.5595   -1.2145    0.8759 H   0  0  0  0  0  0  0  0  0  0  0  0
    1.6130   -1.4159    0.9155 H   0  0  0  0  0  0  0  0  0  0  0  0
    6.1209   -1.0189    1.0850 H   0  0  0  0  0  0  0  0  0  0  0  0
    5.9030   -2.0478   -0.4018 H   0  0  0  0  0  0  0  0  0  0  0  0
    5.8978   -2.8021    1.2363 H   0  0  0  0  0  0  0  0  0  0  0  0
    5.1849    0.2906   -0.7987 H   0  0  0  0  0  0  0  0  0  0  0  0
    3.8471    2.0895   -1.8352 H   0  0  0  0  0  0  0  0  0  0  0  0
   -3.9467    2.1179   -0.9676 H   0  0  0  0  0  0  0  0  0  0  0  0
  1  2  1  0
  2  3  1  0
  1  4  1  0
  4  5  1  0
  5  6  1  0
  6  7  2  0
  7  8  1  0
  8  9  1  0
  9 10  2  0
 10 11  1  0
 11 12  2  0
 12 13  1  0
 13 14  1  0
 12 15  1  0
 15 16  2  0
  7 17  1  0
 17 18  2  0
 17 19  1  0
 19  1  1  0
 10  6  1  0
 16  9  1  0
  1 20  1  6
  2 21  1  0
  2 22  1  0
  3 23  1  0
  3 24  1  0
  4 25  1  0
  4 26  1  0
  5 27  1  0
 11 28  1  0
 14 29  1  0
 14 30  1  0
 14 31  1  0
 15 32  1  0
 16 33  1  0
 19 34  1  0
M  END
$$$$
