
     RDKit          3D

 42 44  0  0  0  0  0  0  0  0999 V2000
    6.5638    1.0318    0.5839 C   0  0  0  0  0  0  0  0  0  0  0  0
    5.9632   -0.2597    0.2271 N   0  0  0  0  0  0  0  0  0  0  0  0
    6.8463   -1.3970   -0.0602 C   0  0  0  0  0  0  0  0  0  0  0  0
    4.5205   -0.4087    0.1579 C   0  0  0  0  0  0  0  0  0  0  0  0
    3.9350   -1.4658   -0.5694 C   0  0  0  0  0  0  0  0  0  0  0  0
    2.5462   -1.6058   -0.6356 C   0  0  0  0  0  0  0  0  0  0  0  0
    1.7060   -0.6887    0.0065 C   0  0  0  0  0  0  0  0  0  0  0  0
    0.2814   -0.8706   -0.0588 N   0  0  0  0  0  0  0  0  0  0  0  0
   -0.6681    0.2039   -0.1074 C   0  0  0  0  0  0  0  0  0  0  0  0
   -1.9907   -0.0642    0.0558 N   0  0  0  0  0  0  0  0  0  0  0  0
   -2.9353    0.9127   -0.0101 C   0  0  0  0  0  0  0  0  0  0  0  0
   -2.5267    2.2312   -0.2624 C   0  0  0  0  0  0  0  0  0  0  0  0
   -1.1688    2.4904   -0.4413 C   0  0  0  0  0  0  0  0  0  0  0  0
   -0.2687    1.4780   -0.3662 N   0  0  0  0  0  0  0  0  0  0  0  0
   -4.3694    0.5777    0.1809 C   0  0  0  0  0  0  0  0  0  0  0  0
   -4.9363   -0.6851    0.4317 C   0  0  0  0  0  0  0  0  0  0  0  0
   -4.1608   -1.9602    0.5519 C   0  0  0  0  0  0  0  0  0  0  0  0
   -6.2928   -0.6888    0.5554 N   0  0  0  0  0  0  0  0  0  0  0  0
   -6.8233    0.5450    0.4263 C   0  0  0  0  0  0  0  0  0  0  0  0
   -8.2879    0.8193    0.4494 C   0  0  0  0  0  0  0  0  0  0  0  0
   -5.6382    1.6908    0.1194 S   0  0  0  0  0  0  0  0  0  0  0  0
    2.2778    0.3523    0.7541 C   0  0  0  0  0  0  0  0  0  0  0  0
    3.6664    0.4953    0.8231 C   0  0  0  0  0  0  0  0  0  0  0  0
    6.4054    1.2363    1.6633 H   0  0  0  0  0  0  0  0  0  0  0  0
    6.1057    1.8419   -0.0226 H   0  0  0  0  0  0  0  0  0  0  0  0
    7.6563    1.0442    0.3852 H   0  0  0  0  0  0  0  0  0  0  0  0
    6.8312   -1.6212   -1.1473 H   0  0  0  0  0  0  0  0  0  0  0  0
    6.5120   -2.2886    0.5116 H   0  0  0  0  0  0  0  0  0  0  0  0
    7.8956   -1.1856    0.2357 H   0  0  0  0  0  0  0  0  0  0  0  0
    4.5439   -2.1852   -1.0988 H   0  0  0  0  0  0  0  0  0  0  0  0
    2.1221   -2.4261   -1.2013 H   0  0  0  0  0  0  0  0  0  0  0  0
   -0.0871   -1.8439   -0.1573 H   0  0  0  0  0  0  0  0  0  0  0  0
   -3.2357    3.0460   -0.3252 H   0  0  0  0  0  0  0  0  0  0  0  0
   -0.8297    3.4977   -0.6431 H   0  0  0  0  0  0  0  0  0  0  0  0
   -3.6174   -2.1634   -0.3944 H   0  0  0  0  0  0  0  0  0  0  0  0
   -3.4419   -1.8881    1.3946 H   0  0  0  0  0  0  0  0  0  0  0  0
   -4.8470   -2.8106    0.7504 H   0  0  0  0  0  0  0  0  0  0  0  0
   -8.8052    0.0667    1.0807 H   0  0  0  0  0  0  0  0  0  0  0  0
   -8.6894    0.7686   -0.5838 H   0  0  0  0  0  0  0  0  0  0  0  0
   -8.4774    1.8301    0.8673 H   0  0  0  0  0  0  0  0  0  0  0  0
    1.6543    1.0408    1.3087 H   0  0  0  0  0  0  0  0  0  0  0  0
    4.0646    1.3065    1.4164 H   0  0  0  0  0  0  0  0  0  0  0  0
  1  2  1  0
  2  3  1  0
  2  4  1  0
  4  5  2  0
  5  6  1  0
  6  7  2  0
  7  8  1  0
  8  9  1  0
  9 10  2  0
 10 11  1  0
 11 12  2  0
 12 13  1  0
 13 14  2  0
 11 15  1  0
 15 16  2  0
 16 17  1  0
 16 18  1  0
 18 19  2  0
 19 20  1  0
 19 21  1  0
  7 22  1  0
 22 23  2  0
 23  4  1  0
 14  9  1  0
 21 15  1  0
  1 24  1  0
  1 25  1  0
  1 26  1  0
  3 27  1  0
  3 28  1  0
  3 29  1  0
  5 30  1  0
  6 31  1  0
  8 32  1  0
 12 33  1  0
 13 34  1  0
 17 35  1  0
 17 36  1  0
 17 37  1  0
 20 38  1  0
 20 39  1  0
 20 40  1  0
 22 41  1  0
 23 42  1  0
M  END
$$$$
