
     RDKit          3D

 36 38  0  0  0  0  0  0  0  0999 V2000
    3.8713   -3.3153   -2.5626 Cl  0  0  0  0  0  0  0  0  0  0  0  0
    3.4116   -1.7225   -1.9895 C   0  0  0  0  0  0  0  0  0  0  0  0
    3.3616   -0.6458   -2.8792 C   0  0  0  0  0  0  0  0  0  0  0  0
    2.9937    0.6236   -2.4235 C   0  0  0  0  0  0  0  0  0  0  0  0
    2.6671    0.8306   -1.0733 C   0  0  0  0  0  0  0  0  0  0  0  0
    2.2817    2.1472   -0.6392 N   0  0  0  0  0  0  0  0  0  0  0  0
    1.5541    2.4837    0.9005 S   0  0  0  0  0  6  0  0  0  0  0  0
    1.0848    3.9108    0.9253 O   0  0  0  0  0  0  0  0  0  0  0  0
    2.5802    2.2860    1.9813 O   0  0  0  0  0  0  0  0  0  0  0  0
    0.1682    1.4280    1.1578 C   0  0  0  0  0  0  0  0  0  0  0  0
   -0.1190    0.9360    2.4363 C   0  0  0  0  0  0  0  0  0  0  0  0
   -1.2028    0.0770    2.6316 C   0  0  0  0  0  0  0  0  0  0  0  0
   -2.0092   -0.3058    1.5496 C   0  0  0  0  0  0  0  0  0  0  0  0
   -3.2014   -1.1938    1.7926 C   0  0  0  0  0  0  0  0  0  0  0  0
   -3.7482   -1.7814    0.4859 C   0  0  0  0  0  0  0  0  0  0  0  0
   -3.8806   -0.7417   -0.5420 N   0  0  0  0  0  0  0  0  0  0  0  0
   -2.5621   -0.2200   -0.9280 C   0  0  0  0  0  0  0  0  0  0  0  0
   -1.7439    0.2153    0.2657 C   0  0  0  0  0  0  0  0  0  0  0  0
   -0.6462    1.0681    0.0768 C   0  0  0  0  0  0  0  0  0  0  0  0
    2.7300   -0.2587   -0.1823 C   0  0  0  0  0  0  0  0  0  0  0  0
    3.0973   -1.5272   -0.6417 C   0  0  0  0  0  0  0  0  0  0  0  0
    3.6060   -0.7910   -3.9238 H   0  0  0  0  0  0  0  0  0  0  0  0
    2.9560    1.4466   -3.1261 H   0  0  0  0  0  0  0  0  0  0  0  0
    2.3554    2.9440   -1.3107 H   0  0  0  0  0  0  0  0  0  0  0  0
    0.4962    1.2142    3.2823 H   0  0  0  0  0  0  0  0  0  0  0  0
   -1.4139   -0.2920    3.6278 H   0  0  0  0  0  0  0  0  0  0  0  0
   -3.9966   -0.5927    2.2842 H   0  0  0  0  0  0  0  0  0  0  0  0
   -2.9232   -2.0264    2.4746 H   0  0  0  0  0  0  0  0  0  0  0  0
   -3.0777   -2.5927    0.1238 H   0  0  0  0  0  0  0  0  0  0  0  0
   -4.7445   -2.2343    0.6776 H   0  0  0  0  0  0  0  0  0  0  0  0
   -4.4593    0.0449   -0.1622 H   0  0  0  0  0  0  0  0  0  0  0  0
   -2.7057    0.6406   -1.6174 H   0  0  0  0  0  0  0  0  0  0  0  0
   -2.0026   -1.0030   -1.4844 H   0  0  0  0  0  0  0  0  0  0  0  0
   -0.4218    1.4445   -0.9139 H   0  0  0  0  0  0  0  0  0  0  0  0
    2.5041   -0.1396    0.8672 H   0  0  0  0  0  0  0  0  0  0  0  0
    3.1394   -2.3572    0.0521 H   0  0  0  0  0  0  0  0  0  0  0  0
  1  2  1  0
  2  3  2  0
  3  4  1  0
  4  5  2  0
  5  6  1  0
  6  7  1  0
  7  8  2  0
  7  9  2  0
  7 10  1  0
 10 11  2  0
 11 12  1  0
 12 13  2  0
 13 14  1  0
 14 15  1  0
 15 16  1  0
 16 17  1  0
 17 18  1  0
 18 19  2  0
  5 20  1  0
 20 21  2  0
 21  2  1  0
 19 10  1  0
 18 13  1  0
  3 22  1  0
  4 23  1  0
  6 24  1  0
 11 25  1  0
 12 26  1  0
 14 27  1  0
 14 28  1  0
 15 29  1  0
 15 30  1  0
 16 31  1  0
 17 32  1  0
 17 33  1  0
 19 34  1  0
 20 35  1  0
 21 36  1  0
M  END
$$$$
