
     RDKit          3D

 89 93  0  0  0  0  0  0  0  0999 V2000
    9.2382    4.4270    4.8678 C   0  0  0  0  0  0  0  0  0  0  0  0
    8.4627    3.2831    4.2344 C   0  0  0  0  0  0  0  0  0  0  0  0
    7.6045    3.7930    3.2189 O   0  0  0  0  0  0  0  0  0  0  0  0
    6.7640    2.9756    2.4578 C   0  0  0  0  0  0  0  0  0  0  0  0
    5.9504    3.5496    1.4795 C   0  0  0  0  0  0  0  0  0  0  0  0
    5.1104    2.7349    0.7189 C   0  0  0  0  0  0  0  0  0  0  0  0
    5.0827    1.3471    0.9371 C   0  0  0  0  0  0  0  0  0  0  0  0
    5.9189    0.8137    1.9334 C   0  0  0  0  0  0  0  0  0  0  0  0
    6.7294    1.6291    2.6588 N   0  0  0  0  0  0  0  0  0  0  0  0
    4.1925    0.4675    0.1371 C   0  0  0  0  0  0  0  0  0  0  0  0
    3.5120   -0.6031    0.7440 C   0  0  0  0  0  0  0  0  0  0  0  0
    2.6711   -1.4270   -0.0082 C   0  0  0  0  0  0  0  0  0  0  0  0
    2.4906   -1.1956   -1.3802 C   0  0  0  0  0  0  0  0  0  0  0  0
    1.5655   -2.0748   -2.1811 C   0  0  0  0  0  0  0  0  0  0  0  0
    0.1931   -1.9684   -1.6677 N   0  0  0  0  0  0  0  0  0  0  0  0
   -0.4631   -2.8318   -0.8393 C   0  0  0  0  0  0  0  0  0  0  0  0
   -0.0094   -4.2412   -0.5094 C   0  0  0  0  0  0  0  0  0  0  0  0
   -0.5158   -5.3276   -1.5047 C   0  0  0  0  0  0  0  0  0  0  0  0
    0.0188   -5.0791   -2.9320 C   0  0  0  0  0  0  0  0  0  0  0  0
    0.0117   -6.7033   -1.0388 C   0  0  0  0  0  0  0  0  0  0  0  0
   -2.0343   -5.3524   -1.5254 C   0  0  0  0  0  0  0  0  0  0  0  0
   -2.7373   -4.6034   -2.4669 O   0  0  0  0  0  0  0  0  0  0  0  0
   -2.6747   -5.9982   -0.6510 O   0  0  0  0  0  0  0  0  0  0  0  0
   -1.6680   -2.2615   -0.4171 C   0  0  0  0  0  0  0  0  0  0  0  0
   -2.8812   -2.9574    0.7214 S   0  0  0  0  0  0  0  0  0  0  0  0
   -2.2915   -2.2073    2.3068 C   0  0  0  0  0  0  0  0  0  0  0  0
   -2.3457   -0.6705    2.2496 C   0  0  0  0  0  0  0  0  0  0  0  0
   -3.2413   -2.6941    3.4132 C   0  0  0  0  0  0  0  0  0  0  0  0
   -0.8626   -2.6678    2.6426 C   0  0  0  0  0  0  0  0  0  0  0  0
   -1.7669   -1.0553   -1.0756 C   0  0  0  0  0  0  0  0  0  0  0  0
   -2.7797   -0.0970   -1.0706 C   0  0  0  0  0  0  0  0  0  0  0  0
   -2.5874    1.0822   -1.8285 C   0  0  0  0  0  0  0  0  0  0  0  0
   -3.5436    2.1068   -1.8712 O   0  0  0  0  0  0  0  0  0  0  0  0
   -4.7771    2.0845   -1.1587 C   0  0  0  0  0  0  0  0  0  0  0  0
   -5.5240    3.3526   -1.4274 C   0  0  0  0  0  0  0  0  0  0  0  0
   -5.1814    4.5359   -0.7600 C   0  0  0  0  0  0  0  0  0  0  0  0
   -5.8718    5.7131   -1.0537 C   0  0  0  0  0  0  0  0  0  0  0  0
   -6.9002    5.7040   -2.0055 C   0  0  0  0  0  0  0  0  0  0  0  0
   -7.6219    6.9695   -2.3608 C   0  0  0  0  0  0  0  0  0  0  0  0
   -7.1913    4.5057   -2.6724 C   0  0  0  0  0  0  0  0  0  0  0  0
   -6.5049    3.3712   -2.3710 N   0  0  0  0  0  0  0  0  0  0  0  0
   -1.3962    1.2476   -2.5695 C   0  0  0  0  0  0  0  0  0  0  0  0
   -0.4005    0.2560   -2.5663 C   0  0  0  0  0  0  0  0  0  0  0  0
   -0.6193   -0.8966   -1.8065 C   0  0  0  0  0  0  0  0  0  0  0  0
    3.1738   -0.1335   -1.9913 C   0  0  0  0  0  0  0  0  0  0  0  0
    4.0151    0.6916   -1.2399 C   0  0  0  0  0  0  0  0  0  0  0  0
    9.9085    4.0322    5.6602 H   0  0  0  0  0  0  0  0  0  0  0  0
    8.5347    5.1573    5.3207 H   0  0  0  0  0  0  0  0  0  0  0  0
    9.8525    4.9408    4.0983 H   0  0  0  0  0  0  0  0  0  0  0  0
    9.1776    2.5559    3.7917 H   0  0  0  0  0  0  0  0  0  0  0  0
    7.8585    2.7726    5.0155 H   0  0  0  0  0  0  0  0  0  0  0  0
    5.9664    4.6192    1.3128 H   0  0  0  0  0  0  0  0  0  0  0  0
    4.4704    3.1916   -0.0254 H   0  0  0  0  0  0  0  0  0  0  0  0
    5.9425   -0.2513    2.1237 H   0  0  0  0  0  0  0  0  0  0  0  0
    3.6139   -0.7919    1.8053 H   0  0  0  0  0  0  0  0  0  0  0  0
    2.1532   -2.2398    0.4839 H   0  0  0  0  0  0  0  0  0  0  0  0
    1.5768   -1.7953   -3.2568 H   0  0  0  0  0  0  0  0  0  0  0  0
    1.9386   -3.1141   -2.1318 H   0  0  0  0  0  0  0  0  0  0  0  0
   -0.3720   -4.4996    0.5058 H   0  0  0  0  0  0  0  0  0  0  0  0
    1.0967   -4.2758   -0.4391 H   0  0  0  0  0  0  0  0  0  0  0  0
    1.1280   -5.1278   -2.9522 H   0  0  0  0  0  0  0  0  0  0  0  0
   -0.3006   -4.0889   -3.3190 H   0  0  0  0  0  0  0  0  0  0  0  0
   -0.3660   -5.8547   -3.6295 H   0  0  0  0  0  0  0  0  0  0  0  0
    1.1231   -6.7244   -1.0557 H   0  0  0  0  0  0  0  0  0  0  0  0
   -0.3162   -6.9254   -0.0001 H   0  0  0  0  0  0  0  0  0  0  0  0
   -0.3622   -7.5127   -1.7032 H   0  0  0  0  0  0  0  0  0  0  0  0
   -3.7500   -4.5867   -2.4673 H   0  0  0  0  0  0  0  0  0  0  0  0
   -3.3538   -0.3281    1.9335 H   0  0  0  0  0  0  0  0  0  0  0  0
   -2.1297   -0.2355    3.2493 H   0  0  0  0  0  0  0  0  0  0  0  0
   -1.5882   -0.2685    1.5465 H   0  0  0  0  0  0  0  0  0  0  0  0
   -4.2830   -2.3691    3.2017 H   0  0  0  0  0  0  0  0  0  0  0  0
   -2.9415   -2.2858    4.4028 H   0  0  0  0  0  0  0  0  0  0  0  0
   -3.2296   -3.8038    3.4754 H   0  0  0  0  0  0  0  0  0  0  0  0
   -0.8125   -3.7759    2.6913 H   0  0  0  0  0  0  0  0  0  0  0  0
   -0.5472   -2.2661    3.6298 H   0  0  0  0  0  0  0  0  0  0  0  0
   -0.1363   -2.3043    1.8872 H   0  0  0  0  0  0  0  0  0  0  0  0
   -3.6808   -0.2646   -0.4978 H   0  0  0  0  0  0  0  0  0  0  0  0
   -4.5826    1.9896   -0.0678 H   0  0  0  0  0  0  0  0  0  0  0  0
   -5.3859    1.2151   -1.4898 H   0  0  0  0  0  0  0  0  0  0  0  0
   -4.3861    4.5464   -0.0249 H   0  0  0  0  0  0  0  0  0  0  0  0
   -5.6040    6.6295   -0.5424 H   0  0  0  0  0  0  0  0  0  0  0  0
   -8.6597    6.7487   -2.6897 H   0  0  0  0  0  0  0  0  0  0  0  0
   -7.0825    7.4835   -3.1836 H   0  0  0  0  0  0  0  0  0  0  0  0
   -7.6763    7.6483   -1.4832 H   0  0  0  0  0  0  0  0  0  0  0  0
   -7.9609    4.4732   -3.4329 H   0  0  0  0  0  0  0  0  0  0  0  0
   -1.2467    2.1480   -3.1516 H   0  0  0  0  0  0  0  0  0  0  0  0
    0.5016    0.3898   -3.1466 H   0  0  0  0  0  0  0  0  0  0  0  0
    3.0567    0.0588   -3.0505 H   0  0  0  0  0  0  0  0  0  0  0  0
    4.5400    1.4955   -1.7404 H   0  0  0  0  0  0  0  0  0  0  0  0
  1  2  1  0
  2  3  1  0
  3  4  1  0
  4  5  2  0
  5  6  1  0
  6  7  2  0
  7  8  1  0
  8  9  2  0
  7 10  1  0
 10 11  2  0
 11 12  1  0
 12 13  2  0
 13 14  1  0
 14 15  1  0
 15 16  1  0
 16 17  1  0
 17 18  1  0
 18 19  1  0
 18 20  1  0
 18 21  1  0
 21 22  1  0
 21 23  2  0
 16 24  2  0
 24 25  1  0
 25 26  1  0
 26 27  1  0
 26 28  1  0
 26 29  1  0
 24 30  1  0
 30 31  2  0
 31 32  1  0
 32 33  1  0
 33 34  1  0
 34 35  1  0
 35 36  2  0
 36 37  1  0
 37 38  2  0
 38 39  1  0
 38 40  1  0
 40 41  2  0
 32 42  2  0
 42 43  1  0
 43 44  2  0
 13 45  1  0
 45 46  2  0
  9  4  1  0
 46 10  1  0
 44 15  1  0
 44 30  1  0
 41 35  1  0
  1 47  1  0
  1 48  1  0
  1 49  1  0
  2 50  1  0
  2 51  1  0
  5 52  1  0
  6 53  1  0
  8 54  1  0
 11 55  1  0
 12 56  1  0
 14 57  1  0
 14 58  1  0
 17 59  1  0
 17 60  1  0
 19 61  1  0
 19 62  1  0
 19 63  1  0
 20 64  1  0
 20 65  1  0
 20 66  1  0
 22 67  1  0
 27 68  1  0
 27 69  1  0
 27 70  1  0
 28 71  1  0
 28 72  1  0
 28 73  1  0
 29 74  1  0
 29 75  1  0
 29 76  1  0
 31 77  1  0
 34 78  1  0
 34 79  1  0
 36 80  1  0
 37 81  1  0
 39 82  1  0
 39 83  1  0
 39 84  1  0
 40 85  1  0
 42 86  1  0
 43 87  1  0
 45 88  1  0
 46 89  1  0
M  END
$$$$
