
     RDKit          3D

166169  0  0  0  0  0  0  0  0999 V2000
   -5.2479    2.8540    0.4722 C   0  0  2  0  0  0  0  0  0  0  0  0
   -5.1452    4.3492    0.1596 C   0  0  0  0  0  0  0  0  0  0  0  0
   -6.1053    5.0469    1.1183 C   0  0  0  0  0  0  0  0  0  0  0  0
   -7.1213    3.9898    1.5247 C   0  0  0  0  0  0  0  0  0  0  0  0
   -6.5426    2.7173    1.1309 N   0  0  0  0  0  0  0  0  0  0  0  0
   -7.1495    1.4700    1.4924 C   0  0  0  0  0  0  0  0  0  0  0  0
   -7.4968    1.2778    2.6895 O   0  0  0  0  0  0  0  0  0  0  0  0
   -7.5019    0.4461    0.4445 C   0  0  2  0  0  0  0  0  0  0  0  0
   -9.0229    0.5078    0.1705 C   0  0  0  0  0  0  0  0  0  0  0  0
   -9.5500   -0.3627   -0.9990 C   0  0  0  0  0  0  0  0  0  0  0  0
   -8.8158   -0.1014   -2.3206 C   0  0  0  0  0  0  0  0  0  0  0  0
   -9.5802   -1.8607   -0.6678 C   0  0  0  0  0  0  0  0  0  0  0  0
   -7.1036   -0.8800    0.9151 N   0  0  0  0  0  0  0  0  0  0  0  0
   -5.7740   -1.3604    0.7040 C   0  0  0  0  0  0  0  0  0  0  0  0
   -4.9596   -1.3540    1.6655 O   0  0  0  0  0  0  0  0  0  0  0  0
   -5.3571   -1.9026   -0.6394 C   0  0  1  0  0  0  0  0  0  0  0  0
   -4.5956   -0.8495   -1.4535 C   0  0  0  0  0  0  0  0  0  0  0  0
   -4.5905   -3.2021   -0.4568 C   0  0  0  0  0  0  0  0  0  0  0  0
   -5.2318   -4.2412   -0.4095 O   0  0  0  0  0  0  0  0  0  0  0  0
   -3.0969   -3.2413   -0.1709 C   0  0  1  0  0  0  0  0  0  0  0  0
   -2.9088   -3.6126    1.1979 O   0  0  0  0  0  0  0  0  0  0  0  0
   -1.7889   -3.3135    1.9946 C   0  0  0  0  0  0  0  0  0  0  0  0
   -1.8536   -3.5733    3.2249 O   0  0  0  0  0  0  0  0  0  0  0  0
   -0.5105   -2.7136    1.4549 C   0  0  0  0  0  0  0  0  0  0  0  0
    0.6326   -3.7555    1.4297 C   0  0  2  0  0  0  0  0  0  0  0  0
    1.0659   -3.9508    2.7512 O   0  0  0  0  0  0  0  0  0  0  0  0
    1.8251   -3.2986    0.5353 C   0  0  2  0  0  0  0  0  0  0  0  0
    1.3194   -3.0444   -0.8247 N   0  0  0  0  0  0  0  0  0  0  0  0
    1.2299   -1.7651   -1.4792 C   0  0  0  0  0  0  0  0  0  0  0  0
    0.9531   -1.7506   -2.7075 O   0  0  0  0  0  0  0  0  0  0  0  0
    1.5268   -0.4609   -0.7620 C   0  0  1  0  0  0  0  0  0  0  0  0
    2.9569   -0.1565   -0.8595 N   0  0  0  0  0  0  0  0  0  0  0  0
    3.6478    0.5751    0.1660 C   0  0  0  0  0  0  0  0  0  0  0  0
    3.2024    0.5610    1.3467 O   0  0  0  0  0  0  0  0  0  0  0  0
    4.8437    1.4412   -0.1842 C   0  0  1  0  0  0  0  0  0  0  0  0
    5.6466    1.8669    1.0796 C   0  0  0  0  0  0  0  0  0  0  0  0
    6.8235    2.8548    0.8669 C   0  0  0  0  0  0  0  0  0  0  0  0
    6.4448    4.0755    0.0190 C   0  0  0  0  0  0  0  0  0  0  0  0
    8.0901    2.1763    0.3318 C   0  0  0  0  0  0  0  0  0  0  0  0
    5.6926    0.7711   -1.1953 N   0  0  0  0  0  0  0  0  0  0  0  0
    5.7696    1.3399   -2.5499 C   0  0  0  0  0  0  0  0  0  0  0  0
    6.3261   -0.5027   -0.9100 C   0  0  0  0  0  0  0  0  0  0  0  0
    6.1396   -1.0557    0.2083 O   0  0  0  0  0  0  0  0  0  0  0  0
    7.1610   -1.2328   -1.9453 C   0  0  2  0  0  0  0  0  0  0  0  0
    6.2779   -2.0083   -2.9299 C   0  0  0  0  0  0  0  0  0  0  0  0
    6.8718   -3.4106   -3.0287 C   0  0  0  0  0  0  0  0  0  0  0  0
    7.7863   -3.5730   -1.8241 C   0  0  0  0  0  0  0  0  0  0  0  0
    8.0180   -2.2314   -1.3147 N   0  0  0  0  0  0  0  0  0  0  0  0
    9.1290   -1.8786   -0.4656 C   0  0  0  0  0  0  0  0  0  0  0  0
    9.5671   -0.6965   -0.4848 O   0  0  0  0  0  0  0  0  0  0  0  0
    9.7657   -2.8596    0.4404 C   0  0  0  0  0  0  0  0  0  0  0  0
   11.0161   -2.5046    1.1831 C   0  0  0  0  0  0  0  0  0  0  0  0
    9.2387   -3.9871    0.6347 O   0  0  0  0  0  0  0  0  0  0  0  0
    0.6853    0.7528   -1.2368 C   0  0  1  0  0  0  0  0  0  0  0  0
    0.9062    1.1577   -2.7063 C   0  0  0  0  0  0  0  0  0  0  0  0
   -0.6979    0.5047   -0.9699 O   0  0  0  0  0  0  0  0  0  0  0  0
   -1.7083    1.4366   -1.2313 C   0  0  0  0  0  0  0  0  0  0  0  0
   -2.2907    1.4056   -2.3483 O   0  0  0  0  0  0  0  0  0  0  0  0
   -2.1566    2.4384   -0.1902 C   0  0  2  0  0  0  0  0  0  0  0  0
   -0.9592    3.2422    0.3656 C   0  0  0  0  0  0  0  0  0  0  0  0
   -1.4010    4.4449    1.1588 C   0  0  0  0  0  0  0  0  0  0  0  0
   -1.6359    4.3417    2.5381 C   0  0  0  0  0  0  0  0  0  0  0  0
   -2.1058    5.4430    3.2582 C   0  0  0  0  0  0  0  0  0  0  0  0
   -2.3423    6.6642    2.6171 C   0  0  0  0  0  0  0  0  0  0  0  0
   -2.8279    7.7352    3.3816 O   0  0  0  0  0  0  0  0  0  0  0  0
   -3.1345    9.0227    2.8566 C   0  0  0  0  0  0  0  0  0  0  0  0
   -2.0889    6.7752    1.2368 C   0  0  0  0  0  0  0  0  0  0  0  0
   -1.6201    5.6732    0.5157 C   0  0  0  0  0  0  0  0  0  0  0  0
   -2.9302    1.7888    0.8930 N   0  0  0  0  0  0  0  0  0  0  0  0
   -2.3416    0.6880    1.6702 C   0  0  0  0  0  0  0  0  0  0  0  0
   -4.1363    2.4040    1.3976 C   0  0  0  0  0  0  0  0  0  0  0  0
   -4.2713    2.5697    2.6415 O   0  0  0  0  0  0  0  0  0  0  0  0
    2.9726   -4.3638    0.4430 C   0  0  1  0  0  0  0  0  0  0  0  0
    4.0070   -3.9670   -0.6291 C   0  0  0  0  0  0  0  0  0  0  0  0
    3.7033   -4.6851    1.7767 C   0  0  0  0  0  0  0  0  0  0  0  0
    4.2759   -3.4654    2.5052 C   0  0  0  0  0  0  0  0  0  0  0  0
   -2.3122   -4.1912   -1.1205 C   0  0  0  0  0  0  0  0  0  0  0  0
   -2.7001   -5.6714   -0.9788 C   0  0  0  0  0  0  0  0  0  0  0  0
   -2.4063   -3.7397   -2.5833 C   0  0  0  0  0  0  0  0  0  0  0  0
   -5.2240    2.2638   -0.4688 H   0  0  0  0  0  0  0  0  0  0  0  0
   -4.1233    4.7549    0.2742 H   0  0  0  0  0  0  0  0  0  0  0  0
   -5.4806    4.5275   -0.8858 H   0  0  0  0  0  0  0  0  0  0  0  0
   -6.5961    5.9194    0.6351 H   0  0  0  0  0  0  0  0  0  0  0  0
   -5.5451    5.3927    2.0155 H   0  0  0  0  0  0  0  0  0  0  0  0
   -7.2961    4.0172    2.6223 H   0  0  0  0  0  0  0  0  0  0  0  0
   -8.0809    4.1430    0.9852 H   0  0  0  0  0  0  0  0  0  0  0  0
   -6.9627    0.6966   -0.4876 H   0  0  0  0  0  0  0  0  0  0  0  0
   -9.5783    0.2431    1.0977 H   0  0  0  0  0  0  0  0  0  0  0  0
   -9.2881    1.5645   -0.0591 H   0  0  0  0  0  0  0  0  0  0  0  0
  -10.6088   -0.0575   -1.1568 H   0  0  0  0  0  0  0  0  0  0  0  0
   -7.7884   -0.5183   -2.2982 H   0  0  0  0  0  0  0  0  0  0  0  0
   -8.7616    0.9897   -2.5222 H   0  0  0  0  0  0  0  0  0  0  0  0
   -9.3648   -0.5821   -3.1582 H   0  0  0  0  0  0  0  0  0  0  0  0
   -8.5618   -2.2942   -0.6448 H   0  0  0  0  0  0  0  0  0  0  0  0
  -10.1640   -2.4037   -1.4414 H   0  0  0  0  0  0  0  0  0  0  0  0
  -10.0698   -2.0312    0.3145 H   0  0  0  0  0  0  0  0  0  0  0  0
   -7.6209   -1.2776    1.7320 H   0  0  0  0  0  0  0  0  0  0  0  0
   -6.2739   -2.1438   -1.2184 H   0  0  0  0  0  0  0  0  0  0  0  0
   -3.8250   -0.3498   -0.8350 H   0  0  0  0  0  0  0  0  0  0  0  0
   -5.2900   -0.0698   -1.8252 H   0  0  0  0  0  0  0  0  0  0  0  0
   -4.1172   -1.3136   -2.3405 H   0  0  0  0  0  0  0  0  0  0  0  0
   -2.6998   -2.2192   -0.3071 H   0  0  0  0  0  0  0  0  0  0  0  0
   -0.6775   -2.2795    0.4567 H   0  0  0  0  0  0  0  0  0  0  0  0
   -0.2140   -1.8617    2.1051 H   0  0  0  0  0  0  0  0  0  0  0  0
    0.2435   -4.7114    1.0018 H   0  0  0  0  0  0  0  0  0  0  0  0
    0.5690   -4.7301    3.1136 H   0  0  0  0  0  0  0  0  0  0  0  0
    2.2600   -2.3757    0.9623 H   0  0  0  0  0  0  0  0  0  0  0  0
    1.0170   -3.8772   -1.3801 H   0  0  0  0  0  0  0  0  0  0  0  0
    1.2497   -0.5911    0.3036 H   0  0  0  0  0  0  0  0  0  0  0  0
    3.4232   -0.2907   -1.7842 H   0  0  0  0  0  0  0  0  0  0  0  0
    4.4013    2.3677   -0.6069 H   0  0  0  0  0  0  0  0  0  0  0  0
    4.9367    2.3714    1.7726 H   0  0  0  0  0  0  0  0  0  0  0  0
    6.0121    0.9739    1.6283 H   0  0  0  0  0  0  0  0  0  0  0  0
    7.0872    3.2408    1.8774 H   0  0  0  0  0  0  0  0  0  0  0  0
    5.5101    4.5360    0.4037 H   0  0  0  0  0  0  0  0  0  0  0  0
    6.3024    3.7954   -1.0445 H   0  0  0  0  0  0  0  0  0  0  0  0
    7.2527    4.8363    0.0709 H   0  0  0  0  0  0  0  0  0  0  0  0
    8.3263    1.2736    0.9336 H   0  0  0  0  0  0  0  0  0  0  0  0
    7.9831    1.8896   -0.7314 H   0  0  0  0  0  0  0  0  0  0  0  0
    8.9509    2.8740    0.4101 H   0  0  0  0  0  0  0  0  0  0  0  0
    5.1871    2.2795   -2.6424 H   0  0  0  0  0  0  0  0  0  0  0  0
    6.8222    1.5717   -2.8105 H   0  0  0  0  0  0  0  0  0  0  0  0
    5.3510    0.6252   -3.2865 H   0  0  0  0  0  0  0  0  0  0  0  0
    7.8028   -0.5172   -2.5024 H   0  0  0  0  0  0  0  0  0  0  0  0
    5.2267   -2.0775   -2.5741 H   0  0  0  0  0  0  0  0  0  0  0  0
    6.2753   -1.5203   -3.9287 H   0  0  0  0  0  0  0  0  0  0  0  0
    6.0759   -4.1867   -3.0378 H   0  0  0  0  0  0  0  0  0  0  0  0
    7.4691   -3.4954   -3.9633 H   0  0  0  0  0  0  0  0  0  0  0  0
    8.7446   -4.0470   -2.1299 H   0  0  0  0  0  0  0  0  0  0  0  0
    7.2884   -4.1873   -1.0442 H   0  0  0  0  0  0  0  0  0  0  0  0
   10.7896   -1.7279    1.9432 H   0  0  0  0  0  0  0  0  0  0  0  0
   11.4326   -3.3981    1.6951 H   0  0  0  0  0  0  0  0  0  0  0  0
   11.7781   -2.1152    0.4756 H   0  0  0  0  0  0  0  0  0  0  0  0
    1.0157    1.6131   -0.6197 H   0  0  0  0  0  0  0  0  0  0  0  0
    1.9830    1.1511   -2.9717 H   0  0  0  0  0  0  0  0  0  0  0  0
    0.5309    2.1913   -2.8627 H   0  0  0  0  0  0  0  0  0  0  0  0
    0.3465    0.4964   -3.3977 H   0  0  0  0  0  0  0  0  0  0  0  0
   -2.8046    3.1609   -0.7285 H   0  0  0  0  0  0  0  0  0  0  0  0
   -0.3301    3.5923   -0.4827 H   0  0  0  0  0  0  0  0  0  0  0  0
   -0.3110    2.6000    0.9970 H   0  0  0  0  0  0  0  0  0  0  0  0
   -1.4698    3.4049    3.0543 H   0  0  0  0  0  0  0  0  0  0  0  0
   -2.2944    5.3452    4.3197 H   0  0  0  0  0  0  0  0  0  0  0  0
   -2.2227    9.4854    2.4233 H   0  0  0  0  0  0  0  0  0  0  0  0
   -3.5055    9.6699    3.6774 H   0  0  0  0  0  0  0  0  0  0  0  0
   -3.9266    8.9403    2.0826 H   0  0  0  0  0  0  0  0  0  0  0  0
   -2.2600    7.7041    0.7103 H   0  0  0  0  0  0  0  0  0  0  0  0
   -1.4498    5.7711   -0.5494 H   0  0  0  0  0  0  0  0  0  0  0  0
   -3.0574    0.3026    2.4261 H   0  0  0  0  0  0  0  0  0  0  0  0
   -1.4334    1.0279    2.2059 H   0  0  0  0  0  0  0  0  0  0  0  0
   -2.0862   -0.1597    1.0067 H   0  0  0  0  0  0  0  0  0  0  0  0
    2.5160   -5.3186    0.0983 H   0  0  0  0  0  0  0  0  0  0  0  0
    4.8605   -4.6768   -0.6381 H   0  0  0  0  0  0  0  0  0  0  0  0
    3.5556   -3.9933   -1.6428 H   0  0  0  0  0  0  0  0  0  0  0  0
    4.3889   -2.9437   -0.4415 H   0  0  0  0  0  0  0  0  0  0  0  0
    4.5432   -5.3838    1.5691 H   0  0  0  0  0  0  0  0  0  0  0  0
    3.0377   -5.2483    2.4602 H   0  0  0  0  0  0  0  0  0  0  0  0
    3.4682   -2.7974    2.8666 H   0  0  0  0  0  0  0  0  0  0  0  0
    4.8532   -3.8069    3.3899 H   0  0  0  0  0  0  0  0  0  0  0  0
    4.9619   -2.8961    1.8467 H   0  0  0  0  0  0  0  0  0  0  0  0
   -1.2445   -4.1278   -0.8431 H   0  0  0  0  0  0  0  0  0  0  0  0
   -2.7255   -5.9701    0.0902 H   0  0  0  0  0  0  0  0  0  0  0  0
   -3.6859   -5.8801   -1.4430 H   0  0  0  0  0  0  0  0  0  0  0  0
   -1.9452   -6.3053   -1.4914 H   0  0  0  0  0  0  0  0  0  0  0  0
   -2.0435   -2.6945   -2.6837 H   0  0  0  0  0  0  0  0  0  0  0  0
   -3.4533   -3.7983   -2.9494 H   0  0  0  0  0  0  0  0  0  0  0  0
   -1.7690   -4.3860   -3.2239 H   0  0  0  0  0  0  0  0  0  0  0  0
  1  2  1  0
  2  3  1  0
  3  4  1  0
  4  5  1  0
  5  6  1  0
  6  7  2  0
  6  8  1  0
  8  9  1  0
  9 10  1  0
 10 11  1  0
 10 12  1  0
  8 13  1  0
 13 14  1  0
 14 15  2  0
 14 16  1  0
 16 17  1  0
 16 18  1  0
 18 19  2  0
 18 20  1  0
 20 21  1  0
 21 22  1  0
 22 23  2  0
 22 24  1  0
 24 25  1  0
 25 26  1  0
 25 27  1  0
 27 28  1  0
 28 29  1  0
 29 30  2  0
 29 31  1  0
 31 32  1  0
 32 33  1  0
 33 34  2  0
 33 35  1  0
 35 36  1  0
 36 37  1  0
 37 38  1  0
 37 39  1  0
 35 40  1  0
 40 41  1  0
 40 42  1  0
 42 43  2  0
 42 44  1  0
 44 45  1  0
 45 46  1  0
 46 47  1  0
 47 48  1  0
 48 49  1  0
 49 50  2  0
 49 51  1  0
 51 52  1  0
 51 53  2  0
 31 54  1  0
 54 55  1  0
 54 56  1  0
 56 57  1  0
 57 58  2  0
 57 59  1  0
 59 60  1  0
 60 61  1  0
 61 62  2  0
 62 63  1  0
 63 64  2  0
 64 65  1  0
 65 66  1  0
 64 67  1  0
 67 68  2  0
 59 69  1  0
 69 70  1  0
 69 71  1  0
 71 72  2  0
 27 73  1  0
 73 74  1  0
 73 75  1  0
 75 76  1  0
 20 77  1  0
 77 78  1  0
 77 79  1  0
  5  1  1  0
 48 44  1  0
 68 61  1  0
 71  1  1  0
  1 80  1  6
  2 81  1  0
  2 82  1  0
  3 83  1  0
  3 84  1  0
  4 85  1  0
  4 86  1  0
  8 87  1  6
  9 88  1  0
  9 89  1  0
 10 90  1  0
 11 91  1  0
 11 92  1  0
 11 93  1  0
 12 94  1  0
 12 95  1  0
 12 96  1  0
 13 97  1  0
 16 98  1  6
 17 99  1  0
 17100  1  0
 17101  1  0
 20102  1  1
 24103  1  0
 24104  1  0
 25105  1  6
 26106  1  0
 27107  1  1
 28108  1  0
 31109  1  1
 32110  1  0
 35111  1  6
 36112  1  0
 36113  1  0
 37114  1  0
 38115  1  0
 38116  1  0
 38117  1  0
 39118  1  0
 39119  1  0
 39120  1  0
 41121  1  0
 41122  1  0
 41123  1  0
 44124  1  6
 45125  1  0
 45126  1  0
 46127  1  0
 46128  1  0
 47129  1  0
 47130  1  0
 52131  1  0
 52132  1  0
 52133  1  0
 54134  1  1
 55135  1  0
 55136  1  0
 55137  1  0
 59138  1  6
 60139  1  0
 60140  1  0
 62141  1  0
 63142  1  0
 66143  1  0
 66144  1  0
 66145  1  0
 67146  1  0
 68147  1  0
 70148  1  0
 70149  1  0
 70150  1  0
 73151  1  6
 74152  1  0
 74153  1  0
 74154  1  0
 75155  1  0
 75156  1  0
 76157  1  0
 76158  1  0
 76159  1  0
 77160  1  0
 78161  1  0
 78162  1  0
 78163  1  0
 79164  1  0
 79165  1  0
 79166  1  0
M  END
$$$$
