
     RDKit          3D

 54 57  0  0  0  0  0  0  0  0999 V2000
    0.8165    0.0324    1.1806 C   0  0  2  0  0  0  0  0  0  0  0  0
    1.5802    0.5535    2.3876 C   0  0  0  0  0  0  0  0  0  0  0  0
    3.0591    0.3243    1.9989 C   0  0  0  0  0  0  0  0  0  0  0  0
    3.0750   -0.1489    0.5070 C   0  0  2  0  0  0  0  0  0  0  0  0
    3.0994   -1.5634    0.5384 O   0  0  0  0  0  0  0  0  0  0  0  0
    4.3066    0.3749   -0.2443 C   0  0  0  0  0  0  0  0  0  0  0  0
    4.7161    1.5078   -0.0289 O   0  0  0  0  0  0  0  0  0  0  0  0
    5.0475   -0.4896   -1.2378 C   0  0  0  0  0  0  0  0  0  0  0  0
    6.1062    0.2119   -1.8343 O   0  0  0  0  0  0  0  0  0  0  0  0
    1.6992    0.3868   -0.0288 C   0  0  2  0  0  0  0  0  0  0  0  0
    1.7991    1.9368   -0.2778 C   0  0  0  0  0  0  0  0  0  0  0  0
    1.1021   -0.2444   -1.3359 C   0  0  0  0  0  0  0  0  0  0  0  0
   -0.1463   -1.1589   -1.1549 C   0  0  2  0  0  0  0  0  0  0  0  0
   -0.7187   -1.3756   -2.4178 O   0  0  0  0  0  0  0  0  0  0  0  0
   -1.2233   -0.6822   -0.0746 C   0  0  1  0  0  0  0  0  0  0  0  0
   -0.6526    0.3866    0.9139 C   0  0  1  0  0  0  0  0  0  0  0  0
   -1.5152    0.4436    2.1768 C   0  0  0  0  0  0  0  0  0  0  0  0
   -2.9160    0.9347    1.8081 C   0  0  0  0  0  0  0  0  0  0  0  0
   -3.5284    0.1122    0.6930 C   0  0  0  0  0  0  0  0  0  0  0  0
   -4.8622   -0.0646    0.7046 C   0  0  0  0  0  0  0  0  0  0  0  0
   -5.5083   -0.9106   -0.3003 C   0  0  0  0  0  0  0  0  0  0  0  0
   -6.7632   -0.9973   -0.3521 O   0  0  0  0  0  0  0  0  0  0  0  0
   -4.6718   -1.7193   -1.1846 C   0  0  0  0  0  0  0  0  0  0  0  0
   -3.3513   -1.5238   -1.2155 C   0  0  0  0  0  0  0  0  0  0  0  0
   -2.6868   -0.3161   -0.5380 C   0  0  2  0  0  0  0  0  0  0  0  0
   -2.6858    0.8612   -1.5397 C   0  0  0  0  0  0  0  0  0  0  0  0
    0.8256   -1.0752    1.3354 H   0  0  0  0  0  0  0  0  0  0  0  0
    1.3712    1.6317    2.5575 H   0  0  0  0  0  0  0  0  0  0  0  0
    1.3146   -0.0143    3.3063 H   0  0  0  0  0  0  0  0  0  0  0  0
    3.6178    1.2723    2.1528 H   0  0  0  0  0  0  0  0  0  0  0  0
    3.5189   -0.4414    2.6622 H   0  0  0  0  0  0  0  0  0  0  0  0
    2.9672   -1.9157   -0.3762 H   0  0  0  0  0  0  0  0  0  0  0  0
    4.3466   -0.8563   -2.0204 H   0  0  0  0  0  0  0  0  0  0  0  0
    5.4668   -1.3699   -0.7076 H   0  0  0  0  0  0  0  0  0  0  0  0
    5.7020    0.8101   -2.5162 H   0  0  0  0  0  0  0  0  0  0  0  0
    2.4773    2.1384   -1.1337 H   0  0  0  0  0  0  0  0  0  0  0  0
    2.1896    2.4975    0.5944 H   0  0  0  0  0  0  0  0  0  0  0  0
    0.8337    2.3943   -0.5672 H   0  0  0  0  0  0  0  0  0  0  0  0
    0.7836    0.5583   -2.0385 H   0  0  0  0  0  0  0  0  0  0  0  0
    1.8844   -0.7897   -1.9009 H   0  0  0  0  0  0  0  0  0  0  0  0
    0.2527   -2.1354   -0.7869 H   0  0  0  0  0  0  0  0  0  0  0  0
   -0.1140   -1.9860   -2.9162 H   0  0  0  0  0  0  0  0  0  0  0  0
   -1.3784   -1.5961    0.5482 H   0  0  0  0  0  0  0  0  0  0  0  0
   -0.7112    1.3890    0.4590 H   0  0  0  0  0  0  0  0  0  0  0  0
   -1.5730   -0.5559    2.6617 H   0  0  0  0  0  0  0  0  0  0  0  0
   -1.0773    1.1566    2.9078 H   0  0  0  0  0  0  0  0  0  0  0  0
   -2.8683    1.9973    1.4847 H   0  0  0  0  0  0  0  0  0  0  0  0
   -3.5442    0.8922    2.7255 H   0  0  0  0  0  0  0  0  0  0  0  0
   -5.4718    0.3585    1.4947 H   0  0  0  0  0  0  0  0  0  0  0  0
   -5.1153   -2.5241   -1.7581 H   0  0  0  0  0  0  0  0  0  0  0  0
   -2.7813   -2.2161   -1.8131 H   0  0  0  0  0  0  0  0  0  0  0  0
   -2.2854    1.7878   -1.0812 H   0  0  0  0  0  0  0  0  0  0  0  0
   -2.0861    0.6374   -2.4432 H   0  0  0  0  0  0  0  0  0  0  0  0
   -3.7224    1.0827   -1.8745 H   0  0  0  0  0  0  0  0  0  0  0  0
  1  2  1  0
  2  3  1  0
  3  4  1  0
  4  5  1  1
  4  6  1  0
  6  7  2  0
  6  8  1  0
  8  9  1  0
  4 10  1  0
 10 11  1  6
 10 12  1  0
 12 13  1  0
 13 14  1  0
 13 15  1  0
 15 16  1  0
 16 17  1  0
 17 18  1  0
 18 19  1  0
 19 20  2  0
 20 21  1  0
 21 22  2  0
 21 23  1  0
 23 24  2  0
 24 25  1  0
 25 26  1  6
 10  1  1  0
 25 15  1  0
 16  1  1  0
 25 19  1  0
  1 27  1  1
  2 28  1  0
  2 29  1  0
  3 30  1  0
  3 31  1  0
  5 32  1  0
  8 33  1  0
  8 34  1  0
  9 35  1  0
 11 36  1  0
 11 37  1  0
 11 38  1  0
 12 39  1  0
 12 40  1  0
 13 41  1  1
 14 42  1  0
 15 43  1  1
 16 44  1  6
 17 45  1  0
 17 46  1  0
 18 47  1  0
 18 48  1  0
 20 49  1  0
 23 50  1  0
 24 51  1  0
 26 52  1  0
 26 53  1  0
 26 54  1  0
M  END
$$$$
