
     RDKit          3D

111115  0  0  0  0  0  0  0  0999 V2000
   -9.4279   -6.4677    0.6650 N   0  0  0  0  0  0  0  0  0  0  0  0
   -9.5001   -5.2412   -0.0620 C   0  0  0  0  0  0  0  0  0  0  0  0
   -8.6791   -4.1607    0.2402 C   0  0  0  0  0  0  0  0  0  0  0  0
   -7.7481   -4.0354    1.2050 N   0  0  0  0  0  0  0  0  0  0  0  0
   -7.3041   -2.7599    1.0295 C   0  0  0  0  0  0  0  0  0  0  0  0
   -7.9133   -2.1140    0.0003 N   0  0  0  0  0  0  0  0  0  0  0  0
   -7.7586   -0.7163   -0.4051 C   0  0  2  0  0  0  0  0  0  0  0  0
   -6.4237   -0.3012   -0.2186 O   0  0  0  0  0  0  0  0  0  0  0  0
   -6.4447    0.9784    0.3809 C   0  0  2  0  0  0  0  0  0  0  0  0
   -5.7868    0.8908    1.7640 C   0  0  0  0  0  0  0  0  0  0  0  0
   -5.6969    2.1800    2.3244 O   0  0  0  0  0  0  0  0  0  0  0  0
   -4.8475    2.0714    3.7995 P   0  0  0  0  0  5  0  0  0  0  0  0
   -4.7647    3.6082    4.5060 O   0  0  0  0  0  0  0  0  0  0  0  0
   -5.5893    1.1521    4.7443 O   0  0  0  0  0  0  0  0  0  0  0  0
   -3.2844    1.4475    3.5431 O   0  0  0  0  0  0  0  0  0  0  0  0
   -2.3881    2.6240    2.6961 P   0  0  0  0  0  5  0  0  0  0  0  0
   -3.2481    3.1886    1.3509 O   0  0  0  0  0  0  0  0  0  0  0  0
   -2.0737    3.7914    3.6060 O   0  0  0  0  0  0  0  0  0  0  0  0
   -0.9300    1.9357    2.1401 O   0  0  0  0  0  0  0  0  0  0  0  0
   -0.2517    1.3664    3.2385 C   0  0  0  0  0  0  0  0  0  0  0  0
    1.1035    0.7573    2.7853 C   0  0  0  0  0  0  0  0  0  0  0  0
    1.9586    1.8725    2.1390 C   0  0  0  0  0  0  0  0  0  0  0  0
    0.8371   -0.3485    1.7378 C   0  0  0  0  0  0  0  0  0  0  0  0
    1.8393    0.1765    4.0398 C   0  0  1  0  0  0  0  0  0  0  0  0
    1.0449   -0.8057    4.6585 O   0  0  0  0  0  0  0  0  0  0  0  0
    3.2063   -0.3964    3.7294 C   0  0  0  0  0  0  0  0  0  0  0  0
    4.2207    0.3466    3.8281 O   0  0  0  0  0  0  0  0  0  0  0  0
    3.3549   -1.7686    3.3308 N   0  0  0  0  0  0  0  0  0  0  0  0
    4.6580   -2.4004    3.1268 C   0  0  0  0  0  0  0  0  0  0  0  0
    5.0136   -2.4553    1.6387 C   0  0  0  0  0  0  0  0  0  0  0  0
    5.3248   -1.0941    1.0876 C   0  0  0  0  0  0  0  0  0  0  0  0
    6.3530   -0.4850    1.4904 O   0  0  0  0  0  0  0  0  0  0  0  0
    4.4638   -0.4914    0.1104 N   0  0  0  0  0  0  0  0  0  0  0  0
    4.7073    0.8437   -0.4313 C   0  0  0  0  0  0  0  0  0  0  0  0
    5.8098    0.7963   -1.4856 C   0  0  0  0  0  0  0  0  0  0  0  0
    6.1924    2.4782   -2.0881 S   0  0  0  0  0  0  0  0  0  0  0  0
    5.0076    2.4869   -3.4814 C   0  0  0  0  0  0  0  0  0  0  0  0
    5.5338    1.6890   -4.6358 C   0  0  0  0  0  0  0  0  0  0  0  0
    4.8186    0.7810   -5.1390 O   0  0  0  0  0  0  0  0  0  0  0  0
    6.8284    1.9797   -5.1818 N   0  0  0  0  0  0  0  0  0  0  0  0
    7.4216    1.2226   -6.2850 C   0  0  0  0  0  0  0  0  0  0  0  0
    7.7217   -0.2306   -5.8889 C   0  0  0  0  0  0  0  0  0  0  0  0
    8.4411   -0.3321   -4.5713 C   0  0  0  0  0  0  0  0  0  0  0  0
    9.6047    0.3386   -4.2026 C   0  0  0  0  0  0  0  0  0  0  0  0
    9.9754   -0.0112   -2.9500 N   0  0  0  0  0  0  0  0  0  0  0  0
    9.0645   -0.9051   -2.5284 C   0  0  0  0  0  0  0  0  0  0  0  0
    8.1155   -1.1330   -3.4922 C   0  0  0  0  0  0  0  0  0  0  0  0
    7.0683   -2.0339   -3.2904 C   0  0  0  0  0  0  0  0  0  0  0  0
    7.0041   -2.7026   -2.0540 C   0  0  0  0  0  0  0  0  0  0  0  0
    5.5879   -3.9384   -1.7215 Br  0  0  0  0  0  0  0  0  0  0  0  0
    7.9805   -2.4634   -1.0608 C   0  0  0  0  0  0  0  0  0  0  0  0
    9.0280   -1.5546   -1.2954 C   0  0  0  0  0  0  0  0  0  0  0  0
   -7.8952    1.4772    0.4614 C   0  0  1  0  0  0  0  0  0  0  0  0
   -8.2019    2.2576   -0.6806 O   0  0  0  0  0  0  0  0  0  0  0  0
   -8.0169    3.9155   -0.3136 P   0  0  0  0  0  5  0  0  0  0  0  0
   -6.4807    4.2123    0.3325 O   0  0  0  0  0  0  0  0  0  0  0  0
   -8.1977    4.8149   -1.7350 O   0  0  0  0  0  0  0  0  0  0  0  0
   -9.0753    4.3413    0.6799 O   0  0  0  0  0  0  0  0  0  0  0  0
   -8.6696    0.1841    0.4122 C   0  0  1  0  0  0  0  0  0  0  0  0
   -9.9212    0.3318   -0.2071 O   0  0  0  0  0  0  0  0  0  0  0  0
   -8.7834   -3.0149   -0.4707 C   0  0  0  0  0  0  0  0  0  0  0  0
   -9.6727   -2.8586   -1.4811 N   0  0  0  0  0  0  0  0  0  0  0  0
  -10.4835   -3.9157   -1.7890 C   0  0  0  0  0  0  0  0  0  0  0  0
  -10.3939   -5.0903   -1.0851 N   0  0  0  0  0  0  0  0  0  0  0  0
   -8.7484   -6.5893    1.4486 H   0  0  0  0  0  0  0  0  0  0  0  0
  -10.0588   -7.2619    0.4175 H   0  0  0  0  0  0  0  0  0  0  0  0
   -6.5514   -2.3055    1.6606 H   0  0  0  0  0  0  0  0  0  0  0  0
   -7.9982   -0.6166   -1.4883 H   0  0  0  0  0  0  0  0  0  0  0  0
   -5.8363    1.6664   -0.2463 H   0  0  0  0  0  0  0  0  0  0  0  0
   -6.3959    0.2217    2.4131 H   0  0  0  0  0  0  0  0  0  0  0  0
   -4.7746    0.4456    1.6281 H   0  0  0  0  0  0  0  0  0  0  0  0
   -5.6959    3.9449    4.4875 H   0  0  0  0  0  0  0  0  0  0  0  0
   -3.2531    2.4275    0.7173 H   0  0  0  0  0  0  0  0  0  0  0  0
   -0.8729    0.5615    3.6931 H   0  0  0  0  0  0  0  0  0  0  0  0
   -0.0514    2.1413    4.0147 H   0  0  0  0  0  0  0  0  0  0  0  0
    2.9258    1.4710    1.7768 H   0  0  0  0  0  0  0  0  0  0  0  0
    2.1673    2.6808    2.8723 H   0  0  0  0  0  0  0  0  0  0  0  0
    1.4395    2.3192    1.2642 H   0  0  0  0  0  0  0  0  0  0  0  0
    0.2891    0.0590    0.8615 H   0  0  0  0  0  0  0  0  0  0  0  0
    1.7872   -0.7764    1.3609 H   0  0  0  0  0  0  0  0  0  0  0  0
    0.2289   -1.1690    2.1747 H   0  0  0  0  0  0  0  0  0  0  0  0
    1.9853    1.0157    4.7618 H   0  0  0  0  0  0  0  0  0  0  0  0
    1.4015   -0.9313    5.5770 H   0  0  0  0  0  0  0  0  0  0  0  0
    2.5016   -2.3480    3.1641 H   0  0  0  0  0  0  0  0  0  0  0  0
    5.4517   -1.8756    3.7021 H   0  0  0  0  0  0  0  0  0  0  0  0
    4.6107   -3.4400    3.5165 H   0  0  0  0  0  0  0  0  0  0  0  0
    5.9080   -3.1010    1.5077 H   0  0  0  0  0  0  0  0  0  0  0  0
    4.1790   -2.9239    1.0739 H   0  0  0  0  0  0  0  0  0  0  0  0
    3.6092   -1.0037   -0.2027 H   0  0  0  0  0  0  0  0  0  0  0  0
    3.7716    1.2235   -0.8944 H   0  0  0  0  0  0  0  0  0  0  0  0
    4.9893    1.5385    0.3893 H   0  0  0  0  0  0  0  0  0  0  0  0
    6.7351    0.3849   -1.0334 H   0  0  0  0  0  0  0  0  0  0  0  0
    5.5078    0.1297   -2.3196 H   0  0  0  0  0  0  0  0  0  0  0  0
    4.0208    2.0983   -3.1515 H   0  0  0  0  0  0  0  0  0  0  0  0
    4.8654    3.5362   -3.8130 H   0  0  0  0  0  0  0  0  0  0  0  0
    7.3681    2.7869   -4.7953 H   0  0  0  0  0  0  0  0  0  0  0  0
    8.3682    1.7154   -6.5972 H   0  0  0  0  0  0  0  0  0  0  0  0
    6.7346    1.2373   -7.1584 H   0  0  0  0  0  0  0  0  0  0  0  0
    8.3521   -0.6972   -6.6753 H   0  0  0  0  0  0  0  0  0  0  0  0
    6.7712   -0.8003   -5.8523 H   0  0  0  0  0  0  0  0  0  0  0  0
   10.1481    1.0449   -4.8165 H   0  0  0  0  0  0  0  0  0  0  0  0
   10.8050    0.3409   -2.4226 H   0  0  0  0  0  0  0  0  0  0  0  0
    6.3215   -2.2115   -4.0522 H   0  0  0  0  0  0  0  0  0  0  0  0
    7.9260   -2.9810   -0.1123 H   0  0  0  0  0  0  0  0  0  0  0  0
    9.7803   -1.3658   -0.5408 H   0  0  0  0  0  0  0  0  0  0  0  0
   -8.1328    1.9898    1.4250 H   0  0  0  0  0  0  0  0  0  0  0  0
   -6.4533    5.1909    0.4819 H   0  0  0  0  0  0  0  0  0  0  0  0
   -9.0727    4.5320   -2.1031 H   0  0  0  0  0  0  0  0  0  0  0  0
   -8.7905   -0.2255    1.4439 H   0  0  0  0  0  0  0  0  0  0  0  0
  -10.4987    0.8127    0.4414 H   0  0  0  0  0  0  0  0  0  0  0  0
  -11.2021   -3.8247   -2.5917 H   0  0  0  0  0  0  0  0  0  0  0  0
  1  2  1  0
  2  3  2  0
  3  4  1  0
  4  5  2  0
  5  6  1  0
  6  7  1  0
  7  8  1  0
  8  9  1  0
  9 10  1  0
 10 11  1  0
 11 12  1  0
 12 13  1  0
 12 14  2  0
 12 15  1  0
 15 16  1  0
 16 17  1  0
 16 18  2  0
 16 19  1  0
 19 20  1  0
 20 21  1  0
 21 22  1  0
 21 23  1  0
 21 24  1  0
 24 25  1  0
 24 26  1  0
 26 27  2  0
 26 28  1  0
 28 29  1  0
 29 30  1  0
 30 31  1  0
 31 32  2  0
 31 33  1  0
 33 34  1  0
 34 35  1  0
 35 36  1  0
 36 37  1  0
 37 38  1  0
 38 39  2  0
 38 40  1  0
 40 41  1  0
 41 42  1  0
 42 43  1  0
 43 44  2  0
 44 45  1  0
 45 46  1  0
 46 47  2  0
 47 48  1  0
 48 49  2  0
 49 50  1  0
 49 51  1  0
 51 52  2  0
  9 53  1  0
 53 54  1  0
 54 55  1  0
 55 56  1  0
 55 57  1  0
 55 58  2  0
 53 59  1  0
 59 60  1  0
  6 61  1  0
 61 62  2  0
 62 63  1  0
 63 64  2  0
 64  2  1  0
 61  3  1  0
 59  7  1  0
 47 43  1  0
 52 46  1  0
  1 65  1  0
  1 66  1  0
  5 67  1  0
  7 68  1  6
  9 69  1  6
 10 70  1  0
 10 71  1  0
 13 72  1  0
 17 73  1  0
 20 74  1  0
 20 75  1  0
 22 76  1  0
 22 77  1  0
 22 78  1  0
 23 79  1  0
 23 80  1  0
 23 81  1  0
 24 82  1  1
 25 83  1  0
 28 84  1  0
 29 85  1  0
 29 86  1  0
 30 87  1  0
 30 88  1  0
 33 89  1  0
 34 90  1  0
 34 91  1  0
 35 92  1  0
 35 93  1  0
 37 94  1  0
 37 95  1  0
 40 96  1  0
 41 97  1  0
 41 98  1  0
 42 99  1  0
 42100  1  0
 44101  1  0
 45102  1  0
 48103  1  0
 51104  1  0
 52105  1  0
 53106  1  1
 56107  1  0
 57108  1  0
 59109  1  1
 60110  1  0
 63111  1  0
M  END
$$$$
