
     RDKit          3D

 68 72  0  0  0  0  0  0  0  0999 V2000
    4.3523   -4.4424   -2.8967 C   0  0  0  0  0  0  0  0  0  0  0  0
    3.8181   -3.2683   -2.2936 O   0  0  0  0  0  0  0  0  0  0  0  0
    4.3722   -2.6190   -1.1773 C   0  0  0  0  0  0  0  0  0  0  0  0
    5.5346   -3.1049   -0.5470 C   0  0  0  0  0  0  0  0  0  0  0  0
    6.0612   -2.4525    0.5674 C   0  0  0  0  0  0  0  0  0  0  0  0
    5.4383   -1.3130    1.0728 C   0  0  0  0  0  0  0  0  0  0  0  0
    4.2750   -0.8148    0.4662 C   0  0  0  0  0  0  0  0  0  0  0  0
    3.7437   -1.4590   -0.6671 C   0  0  0  0  0  0  0  0  0  0  0  0
    2.5490   -0.8683   -1.3162 C   0  0  0  0  0  0  0  0  0  0  0  0
    2.3399   -1.0771   -2.5415 O   0  0  0  0  0  0  0  0  0  0  0  0
    1.6733    0.0614   -0.5474 C   0  0  0  0  0  0  0  0  0  0  0  0
    0.3439    0.3429   -0.9512 C   0  0  0  0  0  0  0  0  0  0  0  0
   -0.2841   -0.3723   -1.9759 O   0  0  0  0  0  0  0  0  0  0  0  0
   -0.3899    1.3455   -0.2925 C   0  0  0  0  0  0  0  0  0  0  0  0
    0.1564    2.0106    0.8155 C   0  0  0  0  0  0  0  0  0  0  0  0
   -0.6964    3.0288    1.5455 C   0  0  0  0  0  0  0  0  0  0  0  0
   -1.5808    3.9171    0.6017 C   0  0  2  0  0  0  0  0  0  0  0  0
   -2.8237    4.1342    1.2349 O   0  0  0  0  0  0  0  0  0  0  0  0
   -1.8777    3.2431   -0.7750 C   0  0  0  0  0  0  0  0  0  0  0  0
   -1.7975    1.7129   -0.7237 C   0  0  2  0  0  0  0  0  0  0  0  0
   -2.7630    1.2380    0.2028 O   0  0  0  0  0  0  0  0  0  0  0  0
   -2.9645   -0.1636    0.1155 C   0  0  1  0  0  0  0  0  0  0  0  0
   -2.2616   -0.8466    1.3111 C   0  0  0  0  0  0  0  0  0  0  0  0
   -2.9700   -2.1510    1.7326 C   0  0  2  0  0  0  0  0  0  0  0  0
   -2.0112   -3.0815    2.3314 N   0  0  0  0  0  0  0  0  0  0  0  0
   -3.6651   -2.7949    0.5227 C   0  0  2  0  0  0  0  0  0  0  0  0
   -2.6933   -3.1757   -0.4228 O   0  0  0  0  0  0  0  0  0  0  0  0
   -4.6825   -1.7739   -0.0782 C   0  0  2  0  0  0  0  0  0  0  0  0
   -4.9733   -1.9978   -1.5673 C   0  0  0  0  0  0  0  0  0  0  0  0
   -4.3583   -0.4072    0.1677 O   0  0  0  0  0  0  0  0  0  0  0  0
   -0.9021    5.2644    0.3498 C   0  0  0  0  0  0  0  0  0  0  0  0
   -1.5109    6.3020    0.5700 O   0  0  0  0  0  0  0  0  0  0  0  0
    0.4987    5.3591   -0.1944 C   0  0  0  0  0  0  0  0  0  0  0  0
    0.4819    6.0630   -1.4044 O   0  0  0  0  0  0  0  0  0  0  0  0
    1.4110    1.6278    1.3187 C   0  0  0  0  0  0  0  0  0  0  0  0
    1.8153    2.1561    2.5492 O   0  0  0  0  0  0  0  0  0  0  0  0
    2.2083    0.7021    0.5986 C   0  0  0  0  0  0  0  0  0  0  0  0
    3.6160    0.4016    0.9860 C   0  0  0  0  0  0  0  0  0  0  0  0
    4.2801    1.2080    1.6917 O   0  0  0  0  0  0  0  0  0  0  0  0
    5.3804   -4.2470   -3.2682 H   0  0  0  0  0  0  0  0  0  0  0  0
    4.3608   -5.2777   -2.1651 H   0  0  0  0  0  0  0  0  0  0  0  0
    3.7134   -4.7304   -3.7564 H   0  0  0  0  0  0  0  0  0  0  0  0
    6.0402   -3.9887   -0.9107 H   0  0  0  0  0  0  0  0  0  0  0  0
    6.9556   -2.8338    1.0431 H   0  0  0  0  0  0  0  0  0  0  0  0
    5.8614   -0.8250    1.9420 H   0  0  0  0  0  0  0  0  0  0  0  0
    0.0259   -1.2778   -2.2998 H   0  0  0  0  0  0  0  0  0  0  0  0
   -1.3526    2.4540    2.2355 H   0  0  0  0  0  0  0  0  0  0  0  0
   -0.0736    3.6837    2.1933 H   0  0  0  0  0  0  0  0  0  0  0  0
   -2.6505    4.5466    2.1227 H   0  0  0  0  0  0  0  0  0  0  0  0
   -1.1599    3.5894   -1.5528 H   0  0  0  0  0  0  0  0  0  0  0  0
   -2.8860    3.5445   -1.1367 H   0  0  0  0  0  0  0  0  0  0  0  0
   -2.0239    1.3561   -1.7550 H   0  0  0  0  0  0  0  0  0  0  0  0
   -2.5603   -0.5918   -0.8320 H   0  0  0  0  0  0  0  0  0  0  0  0
   -1.2086   -1.0627    1.0278 H   0  0  0  0  0  0  0  0  0  0  0  0
   -2.2362   -0.1584    2.1847 H   0  0  0  0  0  0  0  0  0  0  0  0
   -3.7507   -1.9010    2.4888 H   0  0  0  0  0  0  0  0  0  0  0  0
   -1.5980   -2.6252    3.1773 H   0  0  0  0  0  0  0  0  0  0  0  0
   -2.5369   -3.9157    2.6811 H   0  0  0  0  0  0  0  0  0  0  0  0
   -4.2237   -3.6954    0.8756 H   0  0  0  0  0  0  0  0  0  0  0  0
   -3.0513   -3.9638   -0.9088 H   0  0  0  0  0  0  0  0  0  0  0  0
   -5.6449   -1.9555    0.4491 H   0  0  0  0  0  0  0  0  0  0  0  0
   -5.7746   -1.3045   -1.9002 H   0  0  0  0  0  0  0  0  0  0  0  0
   -4.0701   -1.8107   -2.1847 H   0  0  0  0  0  0  0  0  0  0  0  0
   -5.3187   -3.0399   -1.7364 H   0  0  0  0  0  0  0  0  0  0  0  0
    1.1350    5.8935    0.5451 H   0  0  0  0  0  0  0  0  0  0  0  0
    0.9285    4.3488   -0.3623 H   0  0  0  0  0  0  0  0  0  0  0  0
    1.4256    6.1116   -1.7079 H   0  0  0  0  0  0  0  0  0  0  0  0
    2.5300    1.7420    3.1310 H   0  0  0  0  0  0  0  0  0  0  0  0
  1  2  1  0
  2  3  1  0
  3  4  2  0
  4  5  1  0
  5  6  2  0
  6  7  1  0
  7  8  2  0
  8  9  1  0
  9 10  2  0
  9 11  1  0
 11 12  2  0
 12 13  1  0
 12 14  1  0
 14 15  2  0
 15 16  1  0
 16 17  1  0
 17 18  1  1
 17 19  1  0
 19 20  1  0
 20 21  1  0
 21 22  1  0
 22 23  1  0
 23 24  1  0
 24 25  1  0
 24 26  1  0
 26 27  1  0
 26 28  1  0
 28 29  1  0
 28 30  1  0
 17 31  1  0
 31 32  2  0
 31 33  1  0
 33 34  1  0
 15 35  1  0
 35 36  1  0
 35 37  2  0
 37 38  1  0
 38 39  2  0
  8  3  1  0
 37 11  1  0
 38  7  1  0
 20 14  1  0
 30 22  1  0
  1 40  1  0
  1 41  1  0
  1 42  1  0
  4 43  1  0
  5 44  1  0
  6 45  1  0
 13 46  1  0
 16 47  1  0
 16 48  1  0
 18 49  1  0
 19 50  1  0
 19 51  1  0
 20 52  1  6
 22 53  1  6
 23 54  1  0
 23 55  1  0
 24 56  1  1
 25 57  1  0
 25 58  1  0
 26 59  1  1
 27 60  1  0
 28 61  1  1
 29 62  1  0
 29 63  1  0
 29 64  1  0
 33 65  1  0
 33 66  1  0
 34 67  1  0
 36 68  1  0
M  END
$$$$
