
     RDKit          3D

 16 17  0  0  0  0  0  0  0  0999 V2000
    3.4186   -0.0645   -1.4613 O   0  0  0  0  0  0  0  0  0  0  0  0
    2.2624   -0.0286   -0.9648 C   0  0  0  0  0  0  0  0  0  0  0  0
    1.4301   -1.1747   -0.7951 N   0  0  0  0  0  0  0  0  0  0  0  0
    0.2330   -0.6662   -0.2056 C   0  0  0  0  0  0  0  0  0  0  0  0
   -0.8942   -1.4032    0.1549 C   0  0  0  0  0  0  0  0  0  0  0  0
   -1.9818   -0.7185    0.7261 C   0  0  0  0  0  0  0  0  0  0  0  0
   -1.9242    0.6777    0.9252 C   0  0  0  0  0  0  0  0  0  0  0  0
   -0.7786    1.4036    0.5552 C   0  0  0  0  0  0  0  0  0  0  0  0
    0.2854    0.7026   -0.0087 C   0  0  0  0  0  0  0  0  0  0  0  0
    1.5790    1.1641   -0.4838 C   0  0  0  0  0  0  0  0  0  0  0  0
    2.0166    2.3446   -0.4805 O   0  0  0  0  0  0  0  0  0  0  0  0
    1.6485   -2.1643   -1.0461 H   0  0  0  0  0  0  0  0  0  0  0  0
   -0.9319   -2.4735   -0.0005 H   0  0  0  0  0  0  0  0  0  0  0  0
   -2.8692   -1.2663    1.0150 H   0  0  0  0  0  0  0  0  0  0  0  0
   -2.7677    1.1932    1.3657 H   0  0  0  0  0  0  0  0  0  0  0  0
   -0.7259    2.4742    0.7042 H   0  0  0  0  0  0  0  0  0  0  0  0
  1  2  2  0
  2  3  1  0
  3  4  1  0
  4  5  2  0
  5  6  1  0
  6  7  2  0
  7  8  1  0
  8  9  2  0
  9 10  1  0
 10 11  2  0
 10  2  1  0
  9  4  1  0
  3 12  1  0
  5 13  1  0
  6 14  1  0
  7 15  1  0
  8 16  1  0
M  END
$$$$
