
     RDKit          3D

 77 80  0  0  0  0  0  0  0  0999 V2000
   -6.3981    3.3920    2.7677 C   0  0  0  0  0  0  0  0  0  0  0  0
   -5.5104    2.4887    1.9665 C   0  0  0  0  0  0  0  0  0  0  0  0
   -4.3181    2.8047    1.4517 C   0  0  0  0  0  0  0  0  0  0  0  0
   -3.6796    4.1325    1.5823 C   0  0  0  0  0  0  0  0  0  0  0  0
   -2.9582    4.6796    0.6069 C   0  0  0  0  0  0  0  0  0  0  0  0
   -3.7974    1.6138    0.7428 C   0  0  0  0  0  0  0  0  0  0  0  0
   -4.7630    0.5650    0.8087 N   0  0  0  0  0  0  0  0  0  0  0  0
   -5.8113    1.1127    1.5883 C   0  0  0  0  0  0  0  0  0  0  0  0
   -6.8439    0.4716    1.9172 O   0  0  0  0  0  0  0  0  0  0  0  0
   -2.5464    1.4520    0.2890 C   0  0  0  0  0  0  0  0  0  0  0  0
   -2.0815    0.2226   -0.3761 C   0  0  0  0  0  0  0  0  0  0  0  0
   -2.6612   -0.4166   -1.4658 C   0  0  0  0  0  0  0  0  0  0  0  0
   -3.8802    0.0125   -2.2300 C   0  0  0  0  0  0  0  0  0  0  0  0
   -1.8566   -1.5143   -1.7440 C   0  0  0  0  0  0  0  0  0  0  0  0
   -2.0944   -2.5671   -2.7973 C   0  0  0  0  0  0  0  0  0  0  0  0
   -2.7686   -3.8151   -2.2140 C   0  0  0  0  0  0  0  0  0  0  0  0
   -4.1678   -3.5292   -1.7641 C   0  0  0  0  0  0  0  0  0  0  0  0
   -4.4159   -3.2076   -0.4334 O   0  0  0  0  0  0  0  0  0  0  0  0
   -5.1139   -3.5427   -2.5963 O   0  0  0  0  0  0  0  0  0  0  0  0
   -0.8041   -1.4704   -0.8384 C   0  0  0  0  0  0  0  0  0  0  0  0
   -0.9507   -0.4108   -0.0149 N   0  0  0  0  0  0  0  0  0  0  0  0
    0.3034   -2.4500   -0.7699 C   0  0  0  0  0  0  0  0  0  0  0  0
    1.5259   -2.1564   -0.3080 C   0  0  0  0  0  0  0  0  0  0  0  0
    1.9276   -0.8752    0.1568 N   0  0  0  0  0  0  0  0  0  0  0  0
    3.1847   -0.9660    0.4443 C   0  0  0  0  0  0  0  0  0  0  0  0
    3.9656    0.1366    1.0452 C   0  0  0  0  0  0  0  0  0  0  0  0
    3.5869    1.4277    1.0613 C   0  0  0  0  0  0  0  0  0  0  0  0
    2.4496    1.9644    0.3856 N   0  0  0  0  0  0  0  0  0  0  0  0
    2.5365    3.3594    0.6159 C   0  0  0  0  0  0  0  0  0  0  0  0
    1.7477    4.1918    0.0965 O   0  0  0  0  0  0  0  0  0  0  0  0
    3.6987    3.6808    1.4491 C   0  0  0  0  0  0  0  0  0  0  0  0
    4.1659    5.0274    1.8521 C   0  0  0  0  0  0  0  0  0  0  0  0
    3.3687    6.0933    1.8856 C   0  0  0  0  0  0  0  0  0  0  0  0
    4.3227    2.5267    1.7212 C   0  0  0  0  0  0  0  0  0  0  0  0
    5.5984    2.3851    2.5051 C   0  0  0  0  0  0  0  0  0  0  0  0
    3.6961   -2.3232    0.1897 C   0  0  0  0  0  0  0  0  0  0  0  0
    5.0902   -2.8044    0.4681 C   0  0  0  0  0  0  0  0  0  0  0  0
    2.6751   -3.0591   -0.2531 C   0  0  0  0  0  0  0  0  0  0  0  0
    2.7028   -4.5116   -0.6612 C   0  0  0  0  0  0  0  0  0  0  0  0
    2.7820   -4.6758   -2.1844 C   0  0  0  0  0  0  0  0  0  0  0  0
    4.0925   -4.1966   -2.7270 C   0  0  0  0  0  0  0  0  0  0  0  0
    4.2313   -2.8740   -3.1361 O   0  0  0  0  0  0  0  0  0  0  0  0
    5.0793   -4.9787   -2.7772 O   0  0  0  0  0  0  0  0  0  0  0  0
   -7.3596    2.8879    2.9986 H   0  0  0  0  0  0  0  0  0  0  0  0
   -5.8970    3.6586    3.7216 H   0  0  0  0  0  0  0  0  0  0  0  0
   -6.6112    4.3172    2.1922 H   0  0  0  0  0  0  0  0  0  0  0  0
   -3.8701    4.7189    2.4727 H   0  0  0  0  0  0  0  0  0  0  0  0
   -2.5379    5.6683    0.7371 H   0  0  0  0  0  0  0  0  0  0  0  0
   -2.8097    4.1761   -0.3392 H   0  0  0  0  0  0  0  0  0  0  0  0
   -4.6442   -0.4401    0.5537 H   0  0  0  0  0  0  0  0  0  0  0  0
   -1.8029    2.2109    0.4893 H   0  0  0  0  0  0  0  0  0  0  0  0
   -4.1605    1.0556   -1.9785 H   0  0  0  0  0  0  0  0  0  0  0  0
   -4.7299   -0.6588   -1.9913 H   0  0  0  0  0  0  0  0  0  0  0  0
   -3.6779   -0.0262   -3.3199 H   0  0  0  0  0  0  0  0  0  0  0  0
   -2.7114   -2.1598   -3.6258 H   0  0  0  0  0  0  0  0  0  0  0  0
   -1.1194   -2.8594   -3.2425 H   0  0  0  0  0  0  0  0  0  0  0  0
   -2.7943   -4.6079   -2.9925 H   0  0  0  0  0  0  0  0  0  0  0  0
   -2.1783   -4.2079   -1.3588 H   0  0  0  0  0  0  0  0  0  0  0  0
   -5.3535   -2.9899   -0.1179 H   0  0  0  0  0  0  0  0  0  0  0  0
   -0.3452   -0.1455    0.7925 H   0  0  0  0  0  0  0  0  0  0  0  0
    0.1254   -3.4377   -1.1712 H   0  0  0  0  0  0  0  0  0  0  0  0
    4.8982   -0.1337    1.5187 H   0  0  0  0  0  0  0  0  0  0  0  0
    1.8242    1.5103   -0.3142 H   0  0  0  0  0  0  0  0  0  0  0  0
    5.1969    5.1576    2.1551 H   0  0  0  0  0  0  0  0  0  0  0  0
    2.3180    6.0327    1.6418 H   0  0  0  0  0  0  0  0  0  0  0  0
    3.7665    7.0513    2.1942 H   0  0  0  0  0  0  0  0  0  0  0  0
    6.4664    2.4580    1.8177 H   0  0  0  0  0  0  0  0  0  0  0  0
    5.6761    3.1721    3.2833 H   0  0  0  0  0  0  0  0  0  0  0  0
    5.6267    1.4097    3.0313 H   0  0  0  0  0  0  0  0  0  0  0  0
    5.1467   -3.1933    1.5058 H   0  0  0  0  0  0  0  0  0  0  0  0
    5.8145   -1.9729    0.3492 H   0  0  0  0  0  0  0  0  0  0  0  0
    5.3867   -3.6039   -0.2398 H   0  0  0  0  0  0  0  0  0  0  0  0
    1.7729   -4.9985   -0.2981 H   0  0  0  0  0  0  0  0  0  0  0  0
    3.5458   -5.0467   -0.1747 H   0  0  0  0  0  0  0  0  0  0  0  0
    2.6557   -5.7507   -2.4375 H   0  0  0  0  0  0  0  0  0  0  0  0
    1.9546   -4.1202   -2.6754 H   0  0  0  0  0  0  0  0  0  0  0  0
    5.1175   -2.5282   -3.4840 H   0  0  0  0  0  0  0  0  0  0  0  0
  1  2  1  0
  2  3  2  0
  3  4  1  0
  4  5  2  3
  3  6  1  0
  6  7  1  0
  7  8  1  0
  8  9  2  0
  6 10  2  0
 10 11  1  0
 11 12  2  0
 12 13  1  0
 12 14  1  0
 14 15  1  0
 15 16  1  0
 16 17  1  0
 17 18  1  0
 17 19  2  0
 14 20  2  0
 20 21  1  0
 20 22  1  0
 22 23  2  0
 23 24  1  0
 24 25  2  0
 25 26  1  0
 26 27  2  0
 27 28  1  0
 28 29  1  0
 29 30  2  0
 29 31  1  0
 31 32  1  0
 32 33  2  3
 31 34  2  0
 34 35  1  0
 25 36  1  0
 36 37  1  0
 36 38  2  0
 38 39  1  0
 39 40  1  0
 40 41  1  0
 41 42  1  0
 41 43  2  0
  8  2  1  0
 21 11  1  0
 38 23  1  0
 34 27  1  0
  1 44  1  0
  1 45  1  0
  1 46  1  0
  4 47  1  0
  5 48  1  0
  5 49  1  0
  7 50  1  0
 10 51  1  0
 13 52  1  0
 13 53  1  0
 13 54  1  0
 15 55  1  0
 15 56  1  0
 16 57  1  0
 16 58  1  0
 18 59  1  0
 21 60  1  0
 22 61  1  0
 26 62  1  0
 28 63  1  0
 32 64  1  0
 33 65  1  0
 33 66  1  0
 35 67  1  0
 35 68  1  0
 35 69  1  0
 37 70  1  0
 37 71  1  0
 37 72  1  0
 39 73  1  0
 39 74  1  0
 40 75  1  0
 40 76  1  0
 42 77  1  0
M  END
$$$$
