
     RDKit          3D

 37 39  0  0  0  0  0  0  0  0999 V2000
    3.8241   -1.0552   -1.1356 C   0  0  0  0  0  0  0  0  0  0  0  0
    2.9419   -0.1574   -0.2408 C   0  0  0  0  0  0  0  0  0  0  0  0
    3.0868    1.2676   -0.7569 C   0  0  0  0  0  0  0  0  0  0  0  0
    2.5625    1.5793   -1.8613 O   0  0  0  0  0  0  0  0  0  0  0  0
    3.8399    2.2564   -0.0496 N   0  0  0  0  0  0  0  0  0  0  0  0
    4.4000    1.9837    1.2308 C   0  0  0  0  0  0  0  0  0  0  0  0
    5.0714    2.8678    1.8257 O   0  0  0  0  0  0  0  0  0  0  0  0
    4.1901    0.7160    1.8443 N   0  0  0  0  0  0  0  0  0  0  0  0
    3.4461   -0.3134    1.1871 C   0  0  0  0  0  0  0  0  0  0  0  0
    3.2387   -1.3971    1.7990 O   0  0  0  0  0  0  0  0  0  0  0  0
    1.4508   -0.5301   -0.2678 C   0  0  0  0  0  0  0  0  0  0  0  0
    0.5459    0.2315    0.5014 C   0  0  0  0  0  0  0  0  0  0  0  0
   -0.8185   -0.0662    0.5111 C   0  0  0  0  0  0  0  0  0  0  0  0
   -1.3171   -1.1287   -0.2581 C   0  0  0  0  0  0  0  0  0  0  0  0
   -2.6782   -1.4678   -0.2629 O   0  0  0  0  0  0  0  0  0  0  0  0
   -3.7414   -0.5664   -0.1057 C   0  0  0  0  0  0  0  0  0  0  0  0
   -4.9309   -1.0237    0.4755 C   0  0  0  0  0  0  0  0  0  0  0  0
   -6.0183   -0.1588    0.6351 C   0  0  0  0  0  0  0  0  0  0  0  0
   -5.9276    1.1670    0.2025 C   0  0  0  0  0  0  0  0  0  0  0  0
   -4.7520    1.6272   -0.3969 C   0  0  0  0  0  0  0  0  0  0  0  0
   -3.6630    0.7646   -0.5575 C   0  0  0  0  0  0  0  0  0  0  0  0
   -0.4287   -1.9053   -1.0055 C   0  0  0  0  0  0  0  0  0  0  0  0
    0.9379   -1.6115   -1.0192 C   0  0  0  0  0  0  0  0  0  0  0  0
    3.5066   -0.9940   -2.1993 H   0  0  0  0  0  0  0  0  0  0  0  0
    4.8865   -0.7304   -1.0800 H   0  0  0  0  0  0  0  0  0  0  0  0
    3.7785   -2.1162   -0.8070 H   0  0  0  0  0  0  0  0  0  0  0  0
    3.9670    3.2036   -0.4724 H   0  0  0  0  0  0  0  0  0  0  0  0
    4.5724    0.5411    2.8010 H   0  0  0  0  0  0  0  0  0  0  0  0
    0.9028    1.0587    1.1029 H   0  0  0  0  0  0  0  0  0  0  0  0
   -1.4801    0.5212    1.1341 H   0  0  0  0  0  0  0  0  0  0  0  0
   -5.0093   -2.0500    0.8109 H   0  0  0  0  0  0  0  0  0  0  0  0
   -6.9315   -0.5170    1.0924 H   0  0  0  0  0  0  0  0  0  0  0  0
   -6.7702    1.8352    0.3249 H   0  0  0  0  0  0  0  0  0  0  0  0
   -4.6870    2.6504   -0.7438 H   0  0  0  0  0  0  0  0  0  0  0  0
   -2.7711    1.1292   -1.0498 H   0  0  0  0  0  0  0  0  0  0  0  0
   -0.8014   -2.7389   -1.5873 H   0  0  0  0  0  0  0  0  0  0  0  0
    1.5766   -2.2405   -1.6214 H   0  0  0  0  0  0  0  0  0  0  0  0
  1  2  1  0
  2  3  1  0
  3  4  2  0
  3  5  1  0
  5  6  1  0
  6  7  2  0
  6  8  1  0
  8  9  1  0
  9 10  2  0
  2 11  1  0
 11 12  2  0
 12 13  1  0
 13 14  2  0
 14 15  1  0
 15 16  1  0
 16 17  2  0
 17 18  1  0
 18 19  2  0
 19 20  1  0
 20 21  2  0
 14 22  1  0
 22 23  2  0
  9  2  1  0
 23 11  1  0
 21 16  1  0
  1 24  1  0
  1 25  1  0
  1 26  1  0
  5 27  1  0
  8 28  1  0
 12 29  1  0
 13 30  1  0
 17 31  1  0
 18 32  1  0
 19 33  1  0
 20 34  1  0
 21 35  1  0
 22 36  1  0
 23 37  1  0
M  END
$$$$
