
     RDKit          3D

 36 38  0  0  0  0  0  0  0  0999 V2000
   -1.9446   -0.1857    2.2645 F   0  0  0  0  0  0  0  0  0  0  0  0
   -3.2677   -0.2596    1.8667 C   0  0  0  0  0  0  0  0  0  0  0  0
   -3.6833   -1.5772    1.8867 F   0  0  0  0  0  0  0  0  0  0  0  0
   -4.0169    0.4486    2.7911 F   0  0  0  0  0  0  0  0  0  0  0  0
   -3.4484    0.3089    0.4711 C   0  0  0  0  0  0  0  0  0  0  0  0
   -4.6248    1.0297    0.1802 C   0  0  0  0  0  0  0  0  0  0  0  0
   -4.8130    1.6199   -1.0704 C   0  0  0  0  0  0  0  0  0  0  0  0
   -3.8371    1.4964   -2.0558 C   0  0  0  0  0  0  0  0  0  0  0  0
   -2.6806    0.7591   -1.8043 C   0  0  0  0  0  0  0  0  0  0  0  0
   -2.4845    0.1325   -0.5623 C   0  0  0  0  0  0  0  0  0  0  0  0
   -1.2603   -0.6772   -0.3997 C   0  0  0  0  0  0  0  0  0  0  0  0
   -1.1862   -1.9817    0.0573 C   0  0  0  0  0  0  0  0  0  0  0  0
    0.1483   -2.3229    0.0063 C   0  0  0  0  0  0  0  0  0  0  0  0
    0.7997   -1.2105   -0.4888 C   0  0  0  0  0  0  0  0  0  0  0  0
    2.2777   -1.0805   -0.6990 C   0  0  0  0  0  0  0  0  0  0  0  0
    3.0135   -0.7658    0.6163 C   0  0  0  0  0  0  0  0  0  0  0  0
    4.5024   -0.8172    0.3807 C   0  0  0  0  0  0  0  0  0  0  0  0
    5.0967   -1.9283    0.4013 O   0  0  0  0  0  0  0  0  0  0  0  0
    5.2367    0.3692    0.0614 N   0  0  0  0  0  0  0  0  0  0  0  0
    4.6380    1.6566    0.2246 C   0  0  0  0  0  0  0  0  0  0  0  0
    5.4749    3.0072   -0.1684 S   0  0  0  0  0  0  0  0  0  0  0  0
    3.3416    1.7634    0.8160 N   0  0  0  0  0  0  0  0  0  0  0  0
    2.6018    0.5858    1.1523 C   0  0  0  0  0  0  0  0  0  0  0  0
    1.5646    0.6859    1.8611 O   0  0  0  0  0  0  0  0  0  0  0  0
   -0.0619   -0.2490   -0.7251 O   0  0  0  0  0  0  0  0  0  0  0  0
   -5.4006    1.1500    0.9256 H   0  0  0  0  0  0  0  0  0  0  0  0
   -5.7165    2.1806   -1.2730 H   0  0  0  0  0  0  0  0  0  0  0  0
   -3.9825    1.9619   -3.0221 H   0  0  0  0  0  0  0  0  0  0  0  0
   -1.9447    0.6549   -2.5929 H   0  0  0  0  0  0  0  0  0  0  0  0
   -2.0017   -2.6217    0.3624 H   0  0  0  0  0  0  0  0  0  0  0  0
    0.5905   -3.2687    0.2899 H   0  0  0  0  0  0  0  0  0  0  0  0
    2.6569   -2.0365   -1.1226 H   0  0  0  0  0  0  0  0  0  0  0  0
    2.4725   -0.2802   -1.4466 H   0  0  0  0  0  0  0  0  0  0  0  0
    2.7567   -1.5413    1.3728 H   0  0  0  0  0  0  0  0  0  0  0  0
    6.2310    0.2907   -0.2506 H   0  0  0  0  0  0  0  0  0  0  0  0
    2.9518    2.7028    1.0567 H   0  0  0  0  0  0  0  0  0  0  0  0
  1  2  1  0
  2  3  1  0
  2  4  1  0
  2  5  1  0
  5  6  2  0
  6  7  1  0
  7  8  2  0
  8  9  1  0
  9 10  2  0
 10 11  1  0
 11 12  2  0
 12 13  1  0
 13 14  2  0
 14 15  1  0
 15 16  1  0
 16 17  1  0
 17 18  2  0
 17 19  1  0
 19 20  1  0
 20 21  2  0
 20 22  1  0
 22 23  1  0
 23 24  2  0
 14 25  1  0
 10  5  1  0
 25 11  1  0
 23 16  1  0
  6 26  1  0
  7 27  1  0
  8 28  1  0
  9 29  1  0
 12 30  1  0
 13 31  1  0
 15 32  1  0
 15 33  1  0
 16 34  1  0
 19 35  1  0
 22 36  1  0
M  END
$$$$
