
     RDKit          3D

 60 65  0  0  0  0  0  0  0  0999 V2000
    4.7234    0.6399   -3.3630 C   0  0  0  0  0  0  0  0  0  0  0  0
    3.8632    0.3739   -2.1597 C   0  0  0  0  0  0  0  0  0  0  0  0
    2.5801   -0.1759   -2.3174 C   0  0  0  0  0  0  0  0  0  0  0  0
    1.7743   -0.4479   -1.2024 C   0  0  0  0  0  0  0  0  0  0  0  0
    0.4566   -0.9913   -1.3961 N   0  0  0  0  0  0  0  0  0  0  0  0
   -0.2100   -1.8132   -0.4220 C   0  0  0  0  0  0  0  0  0  0  0  0
    0.5298   -2.6316    0.3757 N   0  0  0  0  0  0  0  0  0  0  0  0
   -0.0490   -3.4647    1.2766 C   0  0  0  0  0  0  0  0  0  0  0  0
   -1.3991   -3.5082    1.3943 N   0  0  0  0  0  0  0  0  0  0  0  0
   -2.1938   -2.7184    0.6274 C   0  0  0  0  0  0  0  0  0  0  0  0
   -3.5825   -2.7840    0.7707 C   0  0  0  0  0  0  0  0  0  0  0  0
   -4.4081   -1.9630    0.0004 C   0  0  0  0  0  0  0  0  0  0  0  0
   -3.8520   -1.0477   -0.9099 C   0  0  0  0  0  0  0  0  0  0  0  0
   -4.6845   -0.1981   -1.7181 N   0  0  0  0  0  0  0  0  0  0  0  0
   -5.9127    0.3896   -1.2704 C   0  0  0  0  0  0  0  0  0  0  0  0
   -6.2990    0.3751   -0.0418 N   0  0  0  0  0  0  0  0  0  0  0  0
   -7.5751    1.0745    0.0679 C   0  0  0  0  0  0  0  0  0  0  0  0
   -8.6469    0.1025    0.5823 C   0  0  0  0  0  0  0  0  0  0  0  0
   -7.4248    2.2660    1.0247 C   0  0  0  0  0  0  0  0  0  0  0  0
   -7.8762    1.5407   -1.3827 C   0  0  0  0  0  0  0  0  0  0  0  0
   -6.7697    1.0551   -2.1212 O   0  0  0  0  0  0  0  0  0  0  0  0
   -2.4588   -0.9986   -1.0727 C   0  0  0  0  0  0  0  0  0  0  0  0
   -1.6179   -1.8341   -0.3118 C   0  0  0  0  0  0  0  0  0  0  0  0
    2.2504   -0.1293    0.0799 C   0  0  0  0  0  0  0  0  0  0  0  0
    3.5262    0.4125    0.2449 C   0  0  0  0  0  0  0  0  0  0  0  0
    4.3507    0.6480   -0.8686 C   0  0  0  0  0  0  0  0  0  0  0  0
    5.6333    1.2006   -0.7216 O   0  0  0  0  0  0  0  0  0  0  0  0
    6.4963    0.9751    0.3606 C   0  0  0  0  0  0  0  0  0  0  0  0
    7.4240    1.9771    0.7002 C   0  0  0  0  0  0  0  0  0  0  0  0
    8.2845    1.7305    1.7665 C   0  0  0  0  0  0  0  0  0  0  0  0
    9.2291    2.5578    2.2475 N   0  0  0  0  0  0  0  0  0  0  0  0
    9.7480    1.8127    3.2591 C   0  0  0  0  0  0  0  0  0  0  0  0
    9.1551    0.6013    3.3866 N   0  0  0  0  0  0  0  0  0  0  0  0
    8.2409    0.5776    2.4386 N   0  0  0  0  0  0  0  0  0  0  0  0
    7.3828   -0.4300    2.1472 C   0  0  0  0  0  0  0  0  0  0  0  0
    6.4871   -0.2460    1.0831 C   0  0  0  0  0  0  0  0  0  0  0  0
    4.1758    0.4447   -4.3095 H   0  0  0  0  0  0  0  0  0  0  0  0
    5.0498    1.7013   -3.3646 H   0  0  0  0  0  0  0  0  0  0  0  0
    5.6188   -0.0160   -3.3321 H   0  0  0  0  0  0  0  0  0  0  0  0
    2.2071   -0.4017   -3.3092 H   0  0  0  0  0  0  0  0  0  0  0  0
    0.0221   -0.8917   -2.3409 H   0  0  0  0  0  0  0  0  0  0  0  0
    0.5674   -4.1010    1.8964 H   0  0  0  0  0  0  0  0  0  0  0  0
   -4.0257   -3.4759    1.4764 H   0  0  0  0  0  0  0  0  0  0  0  0
   -5.4805   -2.0587    0.1046 H   0  0  0  0  0  0  0  0  0  0  0  0
   -4.3371    0.0863   -2.6616 H   0  0  0  0  0  0  0  0  0  0  0  0
   -8.7305   -0.7749   -0.0949 H   0  0  0  0  0  0  0  0  0  0  0  0
   -9.6351    0.6079    0.6340 H   0  0  0  0  0  0  0  0  0  0  0  0
   -8.3801   -0.2654    1.5964 H   0  0  0  0  0  0  0  0  0  0  0  0
   -6.6256    2.9507    0.6675 H   0  0  0  0  0  0  0  0  0  0  0  0
   -7.1512    1.9126    2.0421 H   0  0  0  0  0  0  0  0  0  0  0  0
   -8.3778    2.8339    1.0881 H   0  0  0  0  0  0  0  0  0  0  0  0
   -7.9248    2.6474   -1.4759 H   0  0  0  0  0  0  0  0  0  0  0  0
   -8.8131    1.1011   -1.7888 H   0  0  0  0  0  0  0  0  0  0  0  0
   -2.0486   -0.2861   -1.7753 H   0  0  0  0  0  0  0  0  0  0  0  0
    1.6285   -0.2767    0.9531 H   0  0  0  0  0  0  0  0  0  0  0  0
    3.8615    0.6703    1.2410 H   0  0  0  0  0  0  0  0  0  0  0  0
    7.4637    2.9117    0.1553 H   0  0  0  0  0  0  0  0  0  0  0  0
   10.5532    2.1519    3.8966 H   0  0  0  0  0  0  0  0  0  0  0  0
    7.3943   -1.3527    2.7135 H   0  0  0  0  0  0  0  0  0  0  0  0
    5.8122   -1.0473    0.8133 H   0  0  0  0  0  0  0  0  0  0  0  0
  1  2  1  0
  2  3  2  0
  3  4  1  0
  4  5  1  0
  5  6  1  0
  6  7  2  0
  7  8  1  0
  8  9  2  0
  9 10  1  0
 10 11  2  0
 11 12  1  0
 12 13  2  0
 13 14  1  0
 14 15  1  0
 15 16  2  0
 16 17  1  0
 17 18  1  0
 17 19  1  0
 17 20  1  0
 20 21  1  0
 13 22  1  0
 22 23  2  0
  4 24  2  0
 24 25  1  0
 25 26  2  0
 26 27  1  0
 27 28  1  0
 28 29  2  0
 29 30  1  0
 30 31  2  0
 31 32  1  0
 32 33  2  0
 33 34  1  0
 34 35  1  0
 35 36  2  0
 26  2  1  0
 36 28  1  0
 23  6  1  0
 34 30  1  0
 23 10  1  0
 21 15  1  0
  1 37  1  0
  1 38  1  0
  1 39  1  0
  3 40  1  0
  5 41  1  0
  8 42  1  0
 11 43  1  0
 12 44  1  0
 14 45  1  0
 18 46  1  0
 18 47  1  0
 18 48  1  0
 19 49  1  0
 19 50  1  0
 19 51  1  0
 20 52  1  0
 20 53  1  0
 22 54  1  0
 24 55  1  0
 25 56  1  0
 29 57  1  0
 32 58  1  0
 35 59  1  0
 36 60  1  0
M  END
$$$$
