
     RDKit          3D

 49 52  0  0  0  0  0  0  0  0999 V2000
   -2.9973   -3.1938    1.3366 N   0  0  0  0  0  0  0  0  0  0  0  0
   -4.2387   -2.7805    0.7594 C   0  0  0  0  0  0  0  0  0  0  0  0
   -5.2428   -3.6013    0.7796 N   0  0  0  0  0  0  0  0  0  0  0  0
   -4.3690   -1.4300    0.1571 C   0  0  0  0  0  0  0  0  0  0  0  0
   -3.7066   -0.3322    0.7339 C   0  0  0  0  0  0  0  0  0  0  0  0
   -3.8106    0.9479    0.1656 C   0  0  0  0  0  0  0  0  0  0  0  0
   -3.0635    2.1067    0.7718 C   0  0  0  0  0  0  0  0  0  0  0  0
   -1.6749    2.1300    0.2933 N   0  0  0  0  0  0  0  0  0  0  0  0
   -0.6789    1.2882    0.9711 C   0  0  0  0  0  0  0  0  0  0  0  0
    0.7461    1.7041    0.6069 C   0  0  0  0  0  0  0  0  0  0  0  0
    0.8814    1.7517   -0.8570 N   0  0  0  0  0  0  0  0  0  0  0  0
    0.0863    2.8621   -1.4051 C   0  0  0  0  0  0  0  0  0  0  0  0
   -1.3442    2.7675   -0.9579 C   0  0  0  0  0  0  0  0  0  0  0  0
   -2.2401    3.3190   -1.6526 O   0  0  0  0  0  0  0  0  0  0  0  0
    2.5593    1.9744   -1.2839 S   0  0  0  0  0  6  0  0  0  0  0  0
    3.1073    3.1920   -0.5913 O   0  0  0  0  0  0  0  0  0  0  0  0
    2.6944    2.1511   -2.7705 O   0  0  0  0  0  0  0  0  0  0  0  0
    3.4784    0.5607   -0.8017 C   0  0  0  0  0  0  0  0  0  0  0  0
    4.6684    0.5760   -0.0782 C   0  0  0  0  0  0  0  0  0  0  0  0
    5.1481   -0.7141    0.1688 C   0  0  0  0  0  0  0  0  0  0  0  0
    4.3422   -1.7157   -0.3542 C   0  0  0  0  0  0  0  0  0  0  0  0
    3.0198   -1.0322   -1.1322 S   0  0  0  0  0  0  0  0  0  0  0  0
    4.6532   -3.0654   -0.2089 C   0  0  0  0  0  0  0  0  0  0  0  0
    5.8227   -3.4055    0.4910 C   0  0  0  0  0  0  0  0  0  0  0  0
    6.2557   -5.0921    0.6996 Cl  0  0  0  0  0  0  0  0  0  0  0  0
    6.6489   -2.3962    1.0265 C   0  0  0  0  0  0  0  0  0  0  0  0
    6.3131   -1.0410    0.8669 C   0  0  0  0  0  0  0  0  0  0  0  0
   -4.5809    1.1263   -0.9931 C   0  0  0  0  0  0  0  0  0  0  0  0
   -5.2437    0.0418   -1.5705 C   0  0  0  0  0  0  0  0  0  0  0  0
   -5.1396   -1.2299   -1.0020 C   0  0  0  0  0  0  0  0  0  0  0  0
   -2.9153   -4.1272    1.7979 H   0  0  0  0  0  0  0  0  0  0  0  0
   -2.1413   -2.6008    1.2613 H   0  0  0  0  0  0  0  0  0  0  0  0
   -6.1823   -3.3575    0.3944 H   0  0  0  0  0  0  0  0  0  0  0  0
   -3.1209   -0.4659    1.6353 H   0  0  0  0  0  0  0  0  0  0  0  0
   -3.5692    3.0679    0.5331 H   0  0  0  0  0  0  0  0  0  0  0  0
   -3.0825    2.0242    1.8806 H   0  0  0  0  0  0  0  0  0  0  0  0
   -0.8326    0.2293    0.6704 H   0  0  0  0  0  0  0  0  0  0  0  0
   -0.8021    1.3613    2.0733 H   0  0  0  0  0  0  0  0  0  0  0  0
    1.4425    0.9511    1.0359 H   0  0  0  0  0  0  0  0  0  0  0  0
    0.9792    2.6929    1.0641 H   0  0  0  0  0  0  0  0  0  0  0  0
    0.1144    2.8211   -2.5157 H   0  0  0  0  0  0  0  0  0  0  0  0
    0.4945    3.8444   -1.0777 H   0  0  0  0  0  0  0  0  0  0  0  0
    5.1613    1.4797    0.2564 H   0  0  0  0  0  0  0  0  0  0  0  0
    4.0092   -3.8296   -0.6247 H   0  0  0  0  0  0  0  0  0  0  0  0
    7.5491   -2.6626    1.5655 H   0  0  0  0  0  0  0  0  0  0  0  0
    6.9487   -0.2676    1.2796 H   0  0  0  0  0  0  0  0  0  0  0  0
   -4.6704    2.1039   -1.4495 H   0  0  0  0  0  0  0  0  0  0  0  0
   -5.8340    0.1856   -2.4664 H   0  0  0  0  0  0  0  0  0  0  0  0
   -5.6431   -2.0588   -1.4829 H   0  0  0  0  0  0  0  0  0  0  0  0
  1  2  1  0
  2  3  2  3
  2  4  1  0
  4  5  2  0
  5  6  1  0
  6  7  1  0
  7  8  1  0
  8  9  1  0
  9 10  1  0
 10 11  1  0
 11 12  1  0
 12 13  1  0
 13 14  2  0
 11 15  1  0
 15 16  2  0
 15 17  2  0
 15 18  1  0
 18 19  2  0
 19 20  1  0
 20 21  2  0
 21 22  1  0
 21 23  1  0
 23 24  2  0
 24 25  1  0
 24 26  1  0
 26 27  2  0
  6 28  2  0
 28 29  1  0
 29 30  2  0
 30  4  1  0
 13  8  1  0
 22 18  1  0
 27 20  1  0
  1 31  1  0
  1 32  1  0
  3 33  1  0
  5 34  1  0
  7 35  1  0
  7 36  1  0
  9 37  1  0
  9 38  1  0
 10 39  1  0
 10 40  1  0
 12 41  1  0
 12 42  1  0
 19 43  1  0
 23 44  1  0
 26 45  1  0
 27 46  1  0
 28 47  1  0
 29 48  1  0
 30 49  1  0
M  END
$$$$
