
     RDKit          3D

 45 45  0  0  0  0  0  0  0  0999 V2000
   -3.7459   -1.7573    0.9978 C   0  0  1  0  0  0  0  0  0  0  0  0
   -3.7939   -1.2824    2.3226 O   0  0  0  0  0  0  0  0  0  0  0  0
   -4.6603   -0.9138    0.0657 C   0  0  2  0  0  0  0  0  0  0  0  0
   -5.3135   -1.7495   -0.8563 O   0  0  0  0  0  0  0  0  0  0  0  0
   -3.8416    0.1448   -0.7127 C   0  0  1  0  0  0  0  0  0  0  0  0
   -4.7214    1.3386   -1.1069 C   0  0  0  0  0  0  0  0  0  0  0  0
   -4.0034    2.2276   -1.9198 O   0  0  0  0  0  0  0  0  0  0  0  0
   -2.7707    0.6024    0.0890 O   0  0  0  0  0  0  0  0  0  0  0  0
   -1.7427   -0.3782    0.1672 C   0  0  1  0  0  0  0  0  0  0  0  0
   -0.8413   -0.0064    1.1947 O   0  0  0  0  0  0  0  0  0  0  0  0
    0.0053    1.0510    0.7805 C   0  0  0  0  0  0  0  0  0  0  0  0
    1.3445    0.4904    0.2916 C   0  0  0  0  0  0  0  0  0  0  0  0
    2.3132    1.6213   -0.0846 C   0  0  0  0  0  0  0  0  0  0  0  0
    3.6179    1.1006   -0.7080 C   0  0  0  0  0  0  0  0  0  0  0  0
    4.5226    0.3963    0.3141 C   0  0  0  0  0  0  0  0  0  0  0  0
    5.8668    0.0135   -0.3162 C   0  0  0  0  0  0  0  0  0  0  0  0
    6.7663   -0.6968    0.6913 C   0  0  0  0  0  0  0  0  0  0  0  0
   -2.2895   -1.8049    0.4904 C   0  0  2  0  0  0  0  0  0  0  0  0
   -2.2390   -2.6114   -0.6600 O   0  0  0  0  0  0  0  0  0  0  0  0
   -4.1289   -2.8016    1.0269 H   0  0  0  0  0  0  0  0  0  0  0  0
   -3.5142   -0.3309    2.3216 H   0  0  0  0  0  0  0  0  0  0  0  0
   -5.4239   -0.3978    0.6965 H   0  0  0  0  0  0  0  0  0  0  0  0
   -6.0512   -2.1986   -0.3663 H   0  0  0  0  0  0  0  0  0  0  0  0
   -3.4571   -0.3015   -1.6621 H   0  0  0  0  0  0  0  0  0  0  0  0
   -5.6008    0.9754   -1.6807 H   0  0  0  0  0  0  0  0  0  0  0  0
   -5.0997    1.8621   -0.1985 H   0  0  0  0  0  0  0  0  0  0  0  0
   -3.4340    2.7718   -1.3154 H   0  0  0  0  0  0  0  0  0  0  0  0
   -1.2091   -0.4231   -0.8139 H   0  0  0  0  0  0  0  0  0  0  0  0
   -0.4518    1.7061    0.0008 H   0  0  0  0  0  0  0  0  0  0  0  0
    0.1932    1.6982    1.6637 H   0  0  0  0  0  0  0  0  0  0  0  0
    1.7830   -0.1296    1.1021 H   0  0  0  0  0  0  0  0  0  0  0  0
    1.1704   -0.1589   -0.5933 H   0  0  0  0  0  0  0  0  0  0  0  0
    1.8192    2.2833   -0.8295 H   0  0  0  0  0  0  0  0  0  0  0  0
    2.5436    2.2373    0.8123 H   0  0  0  0  0  0  0  0  0  0  0  0
    4.1654    1.9710   -1.1317 H   0  0  0  0  0  0  0  0  0  0  0  0
    3.3846    0.4091   -1.5474 H   0  0  0  0  0  0  0  0  0  0  0  0
    4.0243   -0.5258    0.6823 H   0  0  0  0  0  0  0  0  0  0  0  0
    4.7025    1.0732    1.1781 H   0  0  0  0  0  0  0  0  0  0  0  0
    5.6954   -0.6610   -1.1835 H   0  0  0  0  0  0  0  0  0  0  0  0
    6.3858    0.9278   -0.6783 H   0  0  0  0  0  0  0  0  0  0  0  0
    6.2826   -1.6304    1.0497 H   0  0  0  0  0  0  0  0  0  0  0  0
    7.7307   -0.9598    0.2078 H   0  0  0  0  0  0  0  0  0  0  0  0
    6.9729   -0.0340    1.5585 H   0  0  0  0  0  0  0  0  0  0  0  0
   -1.6678   -2.2813    1.2860 H   0  0  0  0  0  0  0  0  0  0  0  0
   -1.2882   -2.8668   -0.7902 H   0  0  0  0  0  0  0  0  0  0  0  0
  1  2  1  0
  1  3  1  0
  3  4  1  0
  3  5  1  0
  5  6  1  0
  6  7  1  0
  5  8  1  0
  8  9  1  0
  9 10  1  0
 10 11  1  0
 11 12  1  0
 12 13  1  0
 13 14  1  0
 14 15  1  0
 15 16  1  0
 16 17  1  0
  9 18  1  0
 18 19  1  0
 18  1  1  0
  1 20  1  1
  2 21  1  0
  3 22  1  1
  4 23  1  0
  5 24  1  6
  6 25  1  0
  6 26  1  0
  7 27  1  0
  9 28  1  6
 11 29  1  0
 11 30  1  0
 12 31  1  0
 12 32  1  0
 13 33  1  0
 13 34  1  0
 14 35  1  0
 14 36  1  0
 15 37  1  0
 15 38  1  0
 16 39  1  0
 16 40  1  0
 17 41  1  0
 17 42  1  0
 17 43  1  0
 18 44  1  1
 19 45  1  0
M  END
$$$$
