
     RDKit          3D

 30 31  0  0  0  0  0  0  0  0999 V2000
   -2.9109   -1.8156    0.7846 C   0  0  0  0  0  0  0  0  0  0  0  0
   -2.9493   -0.3448    0.8013 N   0  0  0  0  0  0  0  0  0  0  0  0
   -3.8765    0.1754   -0.2157 C   0  0  0  0  0  0  0  0  0  0  0  0
   -1.6043    0.2683    0.7243 C   0  0  0  0  0  0  0  0  0  0  0  0
   -0.8544   -0.0089   -0.5939 C   0  0  0  0  0  0  0  0  0  0  0  0
    0.5052    0.6223   -0.5590 C   0  0  0  0  0  0  0  0  0  0  0  0
    0.8472    1.8844   -1.0354 C   0  0  0  0  0  0  0  0  0  0  0  0
    2.1461    2.1531   -0.7692 N   0  0  0  0  0  0  0  0  0  0  0  0
    2.6222    1.0776   -0.1178 C   0  0  0  0  0  0  0  0  0  0  0  0
    3.9109    0.8940    0.3820 C   0  0  0  0  0  0  0  0  0  0  0  0
    4.1894   -0.3094    1.0558 C   0  0  0  0  0  0  0  0  0  0  0  0
    3.1843   -1.2891    1.2168 C   0  0  0  0  0  0  0  0  0  0  0  0
    1.8919   -1.0756    0.7037 C   0  0  0  0  0  0  0  0  0  0  0  0
    1.6482    0.1244    0.0351 C   0  0  0  0  0  0  0  0  0  0  0  0
   -3.8989   -2.2162    1.0960 H   0  0  0  0  0  0  0  0  0  0  0  0
   -2.6776   -2.2081   -0.2287 H   0  0  0  0  0  0  0  0  0  0  0  0
   -2.1562   -2.1949    1.5068 H   0  0  0  0  0  0  0  0  0  0  0  0
   -3.8498    1.2861   -0.2358 H   0  0  0  0  0  0  0  0  0  0  0  0
   -4.9147   -0.1274    0.0384 H   0  0  0  0  0  0  0  0  0  0  0  0
   -3.6350   -0.2155   -1.2278 H   0  0  0  0  0  0  0  0  0  0  0  0
   -1.6994    1.3682    0.8629 H   0  0  0  0  0  0  0  0  0  0  0  0
   -0.9916   -0.0970    1.5783 H   0  0  0  0  0  0  0  0  0  0  0  0
   -0.7323   -1.0994   -0.7558 H   0  0  0  0  0  0  0  0  0  0  0  0
   -1.4159    0.4098   -1.4548 H   0  0  0  0  0  0  0  0  0  0  0  0
    0.1791    2.5715   -1.5381 H   0  0  0  0  0  0  0  0  0  0  0  0
    2.6654    3.0267   -1.0091 H   0  0  0  0  0  0  0  0  0  0  0  0
    4.6725    1.6532    0.2595 H   0  0  0  0  0  0  0  0  0  0  0  0
    5.1795   -0.4840    1.4564 H   0  0  0  0  0  0  0  0  0  0  0  0
    3.4092   -2.2094    1.7399 H   0  0  0  0  0  0  0  0  0  0  0  0
    1.1157   -1.8196    0.8275 H   0  0  0  0  0  0  0  0  0  0  0  0
  1  2  1  0
  2  3  1  0
  2  4  1  0
  4  5  1  0
  5  6  1  0
  6  7  2  0
  7  8  1  0
  8  9  1  0
  9 10  2  0
 10 11  1  0
 11 12  2  0
 12 13  1  0
 13 14  2  0
 14  6  1  0
 14  9  1  0
  1 15  1  0
  1 16  1  0
  1 17  1  0
  3 18  1  0
  3 19  1  0
  3 20  1  0
  4 21  1  0
  4 22  1  0
  5 23  1  0
  5 24  1  0
  7 25  1  0
  8 26  1  0
 10 27  1  0
 11 28  1  0
 12 29  1  0
 13 30  1  0
M  END
$$$$
