
     RDKit          3D

 53 52  0  0  0  0  0  0  0  0999 V2000
    2.8327   -0.2156   -1.4027 C   0  0  1  0  0  0  0  0  0  0  0  0
    2.5759    1.1671   -1.4436 O   0  0  0  0  0  0  0  0  0  0  0  0
    3.8226   -0.5883   -0.2744 C   0  0  0  0  0  0  0  0  0  0  0  0
    5.1689    0.1515   -0.3700 C   0  0  0  0  0  0  0  0  0  0  0  0
    6.0492   -0.3635   -1.5219 C   0  0  0  0  0  0  0  0  0  0  0  0
    7.4068    0.3537   -1.5904 C   0  0  0  0  0  0  0  0  0  0  0  0
    8.3588   -0.0695   -0.4718 C   0  0  0  0  0  0  0  0  0  0  0  0
    1.5435   -0.9932   -1.2914 C   0  0  0  0  0  0  0  0  0  0  0  0
    0.7086   -0.8622   -0.2549 C   0  0  0  0  0  0  0  0  0  0  0  0
   -0.5444   -1.6413   -0.1923 C   0  0  0  0  0  0  0  0  0  0  0  0
   -1.4521   -1.5262    0.7871 C   0  0  0  0  0  0  0  0  0  0  0  0
   -1.3450   -0.5766    1.9516 C   0  0  0  0  0  0  0  0  0  0  0  0
   -1.5852    0.8932    1.5542 C   0  0  0  0  0  0  0  0  0  0  0  0
   -3.0726    1.2664    1.4206 C   0  0  0  0  0  0  0  0  0  0  0  0
   -3.7157    0.7179    0.1358 C   0  0  0  0  0  0  0  0  0  0  0  0
   -5.0848    1.3536   -0.1646 C   0  0  0  0  0  0  0  0  0  0  0  0
   -6.1539    1.1360    0.9259 C   0  0  0  0  0  0  0  0  0  0  0  0
   -6.4698   -0.3379    1.2250 C   0  0  0  0  0  0  0  0  0  0  0  0
   -6.9904   -1.0548    0.0176 C   0  0  0  0  0  0  0  0  0  0  0  0
   -8.2921   -0.8251   -0.4165 O   0  0  0  0  0  0  0  0  0  0  0  0
   -6.2437   -1.8446   -0.6199 O   0  0  0  0  0  0  0  0  0  0  0  0
    3.2878   -0.4997   -2.3738 H   0  0  0  0  0  0  0  0  0  0  0  0
    2.2920    1.4538   -0.5367 H   0  0  0  0  0  0  0  0  0  0  0  0
    3.3676   -0.3424    0.7097 H   0  0  0  0  0  0  0  0  0  0  0  0
    4.0028   -1.6860   -0.2847 H   0  0  0  0  0  0  0  0  0  0  0  0
    4.9974    1.2440   -0.4812 H   0  0  0  0  0  0  0  0  0  0  0  0
    5.7013   -0.0055    0.5915 H   0  0  0  0  0  0  0  0  0  0  0  0
    6.2074   -1.4597   -1.4215 H   0  0  0  0  0  0  0  0  0  0  0  0
    5.5309   -0.1843   -2.4867 H   0  0  0  0  0  0  0  0  0  0  0  0
    7.2608    1.4554   -1.5598 H   0  0  0  0  0  0  0  0  0  0  0  0
    7.8852    0.1063   -2.5630 H   0  0  0  0  0  0  0  0  0  0  0  0
    9.3567    0.3853   -0.6462 H   0  0  0  0  0  0  0  0  0  0  0  0
    8.4735   -1.1742   -0.4551 H   0  0  0  0  0  0  0  0  0  0  0  0
    7.9902    0.2795    0.5145 H   0  0  0  0  0  0  0  0  0  0  0  0
    1.2937   -1.6757   -2.0961 H   0  0  0  0  0  0  0  0  0  0  0  0
    0.9624   -0.1813    0.5457 H   0  0  0  0  0  0  0  0  0  0  0  0
   -0.7419   -2.3634   -0.9764 H   0  0  0  0  0  0  0  0  0  0  0  0
   -2.3120   -2.1846    0.7595 H   0  0  0  0  0  0  0  0  0  0  0  0
   -2.0805   -0.8752    2.7294 H   0  0  0  0  0  0  0  0  0  0  0  0
   -0.3418   -0.6807    2.4180 H   0  0  0  0  0  0  0  0  0  0  0  0
   -1.0413    1.1549    0.6217 H   0  0  0  0  0  0  0  0  0  0  0  0
   -1.1548    1.5287    2.3586 H   0  0  0  0  0  0  0  0  0  0  0  0
   -3.6282    0.9048    2.3123 H   0  0  0  0  0  0  0  0  0  0  0  0
   -3.1433    2.3763    1.4088 H   0  0  0  0  0  0  0  0  0  0  0  0
   -3.0477    0.9327   -0.7267 H   0  0  0  0  0  0  0  0  0  0  0  0
   -3.8262   -0.3822    0.1983 H   0  0  0  0  0  0  0  0  0  0  0  0
   -5.4595    0.9505   -1.1301 H   0  0  0  0  0  0  0  0  0  0  0  0
   -4.9482    2.4474   -0.3095 H   0  0  0  0  0  0  0  0  0  0  0  0
   -7.0896    1.6429    0.6032 H   0  0  0  0  0  0  0  0  0  0  0  0
   -5.8353    1.6348    1.8656 H   0  0  0  0  0  0  0  0  0  0  0  0
   -5.5741   -0.8563    1.6281 H   0  0  0  0  0  0  0  0  0  0  0  0
   -7.2472   -0.3789    2.0175 H   0  0  0  0  0  0  0  0  0  0  0  0
   -8.6556   -1.2928   -1.2382 H   0  0  0  0  0  0  0  0  0  0  0  0
  1  2  1  0
  1  3  1  0
  3  4  1  0
  4  5  1  0
  5  6  1  0
  6  7  1  0
  1  8  1  0
  8  9  2  0
  9 10  1  0
 10 11  2  0
 11 12  1  0
 12 13  1  0
 13 14  1  0
 14 15  1  0
 15 16  1  0
 16 17  1  0
 17 18  1  0
 18 19  1  0
 19 20  1  0
 19 21  2  0
  1 22  1  6
  2 23  1  0
  3 24  1  0
  3 25  1  0
  4 26  1  0
  4 27  1  0
  5 28  1  0
  5 29  1  0
  6 30  1  0
  6 31  1  0
  7 32  1  0
  7 33  1  0
  7 34  1  0
  8 35  1  0
  9 36  1  0
 10 37  1  0
 11 38  1  0
 12 39  1  0
 12 40  1  0
 13 41  1  0
 13 42  1  0
 14 43  1  0
 14 44  1  0
 15 45  1  0
 15 46  1  0
 16 47  1  0
 16 48  1  0
 17 49  1  0
 17 50  1  0
 18 51  1  0
 18 52  1  0
 20 53  1  0
M  END
$$$$
