
     RDKit          3D

 86 91  0  0  0  0  0  0  0  0999 V2000
   -9.9695   -2.8855    1.7200 C   0  0  0  0  0  0  0  0  0  0  0  0
   -8.9790   -1.9436    1.0853 C   0  0  0  0  0  0  0  0  0  0  0  0
   -9.2483   -0.5703    1.0778 C   0  0  0  0  0  0  0  0  0  0  0  0
   -8.3583    0.3355    0.4961 C   0  0  0  0  0  0  0  0  0  0  0  0
   -7.1486   -0.1150   -0.1057 C   0  0  0  0  0  0  0  0  0  0  0  0
   -6.8959   -1.5096   -0.0988 C   0  0  0  0  0  0  0  0  0  0  0  0
   -7.7980   -2.4199    0.4782 C   0  0  0  0  0  0  0  0  0  0  0  0
   -7.4687   -3.8915    0.4687 C   0  0  0  0  0  0  0  0  0  0  0  0
   -6.2687    0.8006   -0.6727 N   0  0  0  0  0  0  0  0  0  0  0  0
   -4.9879    0.3804   -1.3003 C   0  0  0  0  0  0  0  0  0  0  0  0
   -3.8478    0.1389   -0.2710 C   0  0  2  0  0  0  0  0  0  0  0  0
   -4.3691   -0.4481    0.8947 O   0  0  0  0  0  0  0  0  0  0  0  0
   -3.0321    1.4026    0.1279 C   0  0  2  0  0  0  0  0  0  0  0  0
   -3.8809    2.3436    0.7332 O   0  0  0  0  0  0  0  0  0  0  0  0
   -2.1928    2.0759   -0.9987 C   0  0  2  0  0  0  0  0  0  0  0  0
   -3.0156    2.8403   -1.8402 O   0  0  0  0  0  0  0  0  0  0  0  0
   -1.3627    1.0876   -1.8342 C   0  0  0  0  0  0  0  0  0  0  0  0
   -0.5781    0.2878   -0.9809 O   0  0  0  0  0  0  0  0  0  0  0  0
    0.2155   -0.8939   -1.9224 P   0  0  2  0  0  5  0  0  0  0  0  0
    0.9896   -0.1762   -3.2477 O   0  0  0  0  0  0  0  0  0  0  0  0
   -0.8047   -1.8877   -2.4310 O   0  0  0  0  0  0  0  0  0  0  0  0
    1.3579   -1.7351   -0.9819 O   0  0  0  0  0  0  0  0  0  0  0  0
    2.2987   -0.5815   -0.1560 P   0  0  1  0  0  5  0  0  0  0  0  0
    2.8537    0.6155   -1.2200 O   0  0  0  0  0  0  0  0  0  0  0  0
    1.4711    0.0564    0.9389 O   0  0  0  0  0  0  0  0  0  0  0  0
    3.6310   -1.3896    0.5380 O   0  0  0  0  0  0  0  0  0  0  0  0
    4.4276   -0.4429    1.2110 C   0  0  0  0  0  0  0  0  0  0  0  0
    5.6482   -1.1495    1.8065 C   0  0  1  0  0  0  0  0  0  0  0  0
    6.4217   -1.7255    0.7782 O   0  0  0  0  0  0  0  0  0  0  0  0
    7.7828   -1.5872    1.1344 C   0  0  2  0  0  0  0  0  0  0  0  0
    7.8915   -0.8355    2.4650 C   0  0  2  0  0  0  0  0  0  0  0  0
    8.1073   -1.7408    3.5185 O   0  0  0  0  0  0  0  0  0  0  0  0
    6.5340   -0.1920    2.5897 C   0  0  2  0  0  0  0  0  0  0  0  0
    6.1095   -0.0886    3.9243 O   0  0  0  0  0  0  0  0  0  0  0  0
    8.4958   -0.8620    0.0802 N   0  0  0  0  0  0  0  0  0  0  0  0
    8.0497    0.1783   -0.6726 C   0  0  0  0  0  0  0  0  0  0  0  0
    9.0030    0.6986   -1.4943 N   0  0  0  0  0  0  0  0  0  0  0  0
   10.0807   -0.0586   -1.2149 C   0  0  0  0  0  0  0  0  0  0  0  0
    9.7814   -0.9809   -0.2722 C   0  0  0  0  0  0  0  0  0  0  0  0
   10.6982   -1.8494    0.2191 N   0  0  0  0  0  0  0  0  0  0  0  0
   11.9707   -1.7854   -0.2773 C   0  0  0  0  0  0  0  0  0  0  0  0
   12.2979   -0.8615   -1.2377 N   0  0  0  0  0  0  0  0  0  0  0  0
   11.3717    0.0178   -1.7250 C   0  0  0  0  0  0  0  0  0  0  0  0
   11.7333    0.9786   -2.7171 N   0  0  0  0  0  0  0  0  0  0  0  0
   -6.6063    2.1332   -0.6727 C   0  0  0  0  0  0  0  0  0  0  0  0
   -5.8220    3.0777   -1.2551 N   0  0  0  0  0  0  0  0  0  0  0  0
   -6.1612    4.3939   -1.2438 C   0  0  0  0  0  0  0  0  0  0  0  0
   -5.4000    5.2339   -1.7921 O   0  0  0  0  0  0  0  0  0  0  0  0
   -7.3137    4.8097   -0.6446 N   0  0  0  0  0  0  0  0  0  0  0  0
   -8.1649    3.9305   -0.0480 C   0  0  0  0  0  0  0  0  0  0  0  0
   -9.2263    4.3474    0.4898 O   0  0  0  0  0  0  0  0  0  0  0  0
   -7.8569    2.5711   -0.0396 C   0  0  0  0  0  0  0  0  0  0  0  0
   -8.6734    1.6533    0.5158 N   0  0  0  0  0  0  0  0  0  0  0  0
  -10.4373   -3.5191    0.9378 H   0  0  0  0  0  0  0  0  0  0  0  0
  -10.7765   -2.3365    2.2504 H   0  0  0  0  0  0  0  0  0  0  0  0
   -9.4585   -3.5334    2.4625 H   0  0  0  0  0  0  0  0  0  0  0  0
  -10.1601   -0.1955    1.5290 H   0  0  0  0  0  0  0  0  0  0  0  0
   -5.9919   -1.9167   -0.5230 H   0  0  0  0  0  0  0  0  0  0  0  0
   -6.5773   -4.1113   -0.1565 H   0  0  0  0  0  0  0  0  0  0  0  0
   -8.3196   -4.4711    0.0538 H   0  0  0  0  0  0  0  0  0  0  0  0
   -7.2595   -4.2339    1.5036 H   0  0  0  0  0  0  0  0  0  0  0  0
   -4.6648    1.0948   -2.0798 H   0  0  0  0  0  0  0  0  0  0  0  0
   -5.1451   -0.5358   -1.9051 H   0  0  0  0  0  0  0  0  0  0  0  0
   -3.1506   -0.5926   -0.7392 H   0  0  0  0  0  0  0  0  0  0  0  0
   -3.6237   -0.9275    1.3430 H   0  0  0  0  0  0  0  0  0  0  0  0
   -2.2986    1.0572    0.8953 H   0  0  0  0  0  0  0  0  0  0  0  0
   -3.3038    2.9749    1.2377 H   0  0  0  0  0  0  0  0  0  0  0  0
   -1.4743    2.7617   -0.4890 H   0  0  0  0  0  0  0  0  0  0  0  0
   -2.4291    3.4868   -2.3136 H   0  0  0  0  0  0  0  0  0  0  0  0
   -2.0509    0.4753   -2.4604 H   0  0  0  0  0  0  0  0  0  0  0  0
   -0.7044    1.6788   -2.5097 H   0  0  0  0  0  0  0  0  0  0  0  0
    1.4993   -0.9121   -3.6713 H   0  0  0  0  0  0  0  0  0  0  0  0
    3.4726    0.1413   -1.8309 H   0  0  0  0  0  0  0  0  0  0  0  0
    4.7819    0.3464    0.5097 H   0  0  0  0  0  0  0  0  0  0  0  0
    3.8549    0.0265    2.0431 H   0  0  0  0  0  0  0  0  0  0  0  0
    5.2962   -1.9662    2.4780 H   0  0  0  0  0  0  0  0  0  0  0  0
    8.2216   -2.6055    1.2290 H   0  0  0  0  0  0  0  0  0  0  0  0
    8.6904   -0.0565    2.4558 H   0  0  0  0  0  0  0  0  0  0  0  0
    9.0717   -1.9753    3.4946 H   0  0  0  0  0  0  0  0  0  0  0  0
    6.5517    0.8131    2.1039 H   0  0  0  0  0  0  0  0  0  0  0  0
    6.6351    0.6502    4.3284 H   0  0  0  0  0  0  0  0  0  0  0  0
    7.0426    0.5697   -0.6178 H   0  0  0  0  0  0  0  0  0  0  0  0
   12.7253   -2.4664    0.0914 H   0  0  0  0  0  0  0  0  0  0  0  0
   12.7116    1.0147   -3.0801 H   0  0  0  0  0  0  0  0  0  0  0  0
   11.0312    1.6542   -3.0927 H   0  0  0  0  0  0  0  0  0  0  0  0
   -7.5517    5.8282   -0.6477 H   0  0  0  0  0  0  0  0  0  0  0  0
  1  2  1  0
  2  3  2  0
  3  4  1  0
  4  5  2  0
  5  6  1  0
  6  7  2  0
  7  8  1  0
  5  9  1  0
  9 10  1  0
 10 11  1  0
 11 12  1  0
 11 13  1  0
 13 14  1  0
 13 15  1  0
 15 16  1  0
 15 17  1  0
 17 18  1  0
 19 18  1  1
 19 20  1  0
 19 21  2  0
 19 22  1  0
 23 22  1  6
 23 24  1  0
 23 25  2  0
 23 26  1  0
 26 27  1  0
 27 28  1  0
 28 29  1  0
 29 30  1  0
 30 31  1  0
 31 32  1  0
 31 33  1  0
 33 34  1  0
 30 35  1  0
 35 36  1  0
 36 37  2  0
 37 38  1  0
 38 39  2  0
 39 40  1  0
 40 41  2  0
 41 42  1  0
 42 43  2  0
 43 44  1  0
  9 45  1  0
 45 46  2  0
 46 47  1  0
 47 48  2  0
 47 49  1  0
 49 50  1  0
 50 51  2  0
 50 52  1  0
 52 53  2  0
  7  2  1  0
 33 28  1  0
 39 35  1  0
 52 45  1  0
 53  4  1  0
 43 38  1  0
  1 54  1  0
  1 55  1  0
  1 56  1  0
  3 57  1  0
  6 58  1  0
  8 59  1  0
  8 60  1  0
  8 61  1  0
 10 62  1  0
 10 63  1  0
 11 64  1  6
 12 65  1  0
 13 66  1  1
 14 67  1  0
 15 68  1  1
 16 69  1  0
 17 70  1  0
 17 71  1  0
 20 72  1  0
 24 73  1  0
 27 74  1  0
 27 75  1  0
 28 76  1  1
 30 77  1  1
 31 78  1  6
 32 79  1  0
 33 80  1  6
 34 81  1  0
 36 82  1  0
 41 83  1  0
 44 84  1  0
 44 85  1  0
 49 86  1  0
M  END
$$$$
