
     RDKit          3D

 55 58  0  0  0  0  0  0  0  0999 V2000
   -1.9894    0.1501    1.3748 C   0  0  0  0  0  0  0  0  0  0  0  0
   -1.5249   -0.5941    0.0751 C   0  0  2  0  0  0  0  0  0  0  0  0
   -0.6706   -1.8427    0.4372 C   0  0  0  0  0  0  0  0  0  0  0  0
    0.7419   -1.5055    0.9960 C   0  0  2  0  0  0  0  0  0  0  0  0
    0.6789   -1.2428    2.3747 O   0  0  0  0  0  0  0  0  0  0  0  0
    1.5170   -0.4173    0.1552 C   0  0  1  0  0  0  0  0  0  0  0  0
    0.6296    0.8267   -0.2106 C   0  0  1  0  0  0  0  0  0  0  0  0
    1.3650    1.7464   -1.2124 C   0  0  0  0  0  0  0  0  0  0  0  0
    2.7313    2.1826   -0.6902 C   0  0  0  0  0  0  0  0  0  0  0  0
    3.5506    0.9666   -0.3424 C   0  0  0  0  0  0  0  0  0  0  0  0
    4.7545    0.7942   -0.9117 C   0  0  0  0  0  0  0  0  0  0  0  0
    5.5459   -0.4058   -0.6444 C   0  0  0  0  0  0  0  0  0  0  0  0
    6.6826   -0.5454   -1.1676 O   0  0  0  0  0  0  0  0  0  0  0  0
    5.0014   -1.4496    0.2197 C   0  0  0  0  0  0  0  0  0  0  0  0
    3.8106   -1.2965    0.7998 C   0  0  0  0  0  0  0  0  0  0  0  0
    2.9618   -0.0308    0.6680 C   0  0  2  0  0  0  0  0  0  0  0  0
    2.9721    0.6575    2.0532 C   0  0  0  0  0  0  0  0  0  0  0  0
   -0.6843    0.3089   -0.8465 C   0  0  2  0  0  0  0  0  0  0  0  0
   -1.6823    1.3047   -1.4276 C   0  0  0  0  0  0  0  0  0  0  0  0
   -2.9069    0.4448   -1.5841 C   0  0  0  0  0  0  0  0  0  0  0  0
   -3.8498    0.7274   -2.4944 C   0  0  0  0  0  0  0  0  0  0  0  0
   -2.7785   -0.8820   -0.8366 C   0  0  1  0  0  0  0  0  0  0  0  0
   -2.4685   -1.8892   -1.7735 O   0  0  0  0  0  0  0  0  0  0  0  0
   -4.0008   -1.3321   -0.0195 C   0  0  0  0  0  0  0  0  0  0  0  0
   -3.9147   -2.3800    0.6043 O   0  0  0  0  0  0  0  0  0  0  0  0
   -5.3222   -0.6027    0.0166 C   0  0  0  0  0  0  0  0  0  0  0  0
   -5.1365    0.7475    0.3346 O   0  0  0  0  0  0  0  0  0  0  0  0
   -1.2017    0.7164    1.8874 H   0  0  0  0  0  0  0  0  0  0  0  0
   -2.7685    0.9049    1.1530 H   0  0  0  0  0  0  0  0  0  0  0  0
   -2.4143   -0.5690    2.1066 H   0  0  0  0  0  0  0  0  0  0  0  0
   -1.2166   -2.4820    1.1644 H   0  0  0  0  0  0  0  0  0  0  0  0
   -0.5169   -2.4651   -0.4705 H   0  0  0  0  0  0  0  0  0  0  0  0
    1.3132   -2.4530    0.8984 H   0  0  0  0  0  0  0  0  0  0  0  0
    0.5361   -0.2767    2.5061 H   0  0  0  0  0  0  0  0  0  0  0  0
    1.7066   -0.9286   -0.8191 H   0  0  0  0  0  0  0  0  0  0  0  0
    0.4157    1.4324    0.6895 H   0  0  0  0  0  0  0  0  0  0  0  0
    1.5011    1.2231   -2.1854 H   0  0  0  0  0  0  0  0  0  0  0  0
    0.7579    2.6586   -1.3986 H   0  0  0  0  0  0  0  0  0  0  0  0
    3.2260    2.8056   -1.4677 H   0  0  0  0  0  0  0  0  0  0  0  0
    2.6055    2.8210    0.2097 H   0  0  0  0  0  0  0  0  0  0  0  0
    5.1490    1.5297   -1.6029 H   0  0  0  0  0  0  0  0  0  0  0  0
    5.5723   -2.3534    0.3942 H   0  0  0  0  0  0  0  0  0  0  0  0
    3.4779   -2.0823    1.4659 H   0  0  0  0  0  0  0  0  0  0  0  0
    2.8067   -0.0670    2.8773 H   0  0  0  0  0  0  0  0  0  0  0  0
    3.9661    1.1189    2.2428 H   0  0  0  0  0  0  0  0  0  0  0  0
    2.2099    1.4588    2.1260 H   0  0  0  0  0  0  0  0  0  0  0  0
   -0.3621   -0.3126   -1.7198 H   0  0  0  0  0  0  0  0  0  0  0  0
   -1.8803    2.1495   -0.7339 H   0  0  0  0  0  0  0  0  0  0  0  0
   -1.3269    1.6855   -2.4104 H   0  0  0  0  0  0  0  0  0  0  0  0
   -4.6399    0.0239   -2.7247 H   0  0  0  0  0  0  0  0  0  0  0  0
   -3.8136    1.6578   -3.0524 H   0  0  0  0  0  0  0  0  0  0  0  0
   -3.2673   -2.0297   -2.3472 H   0  0  0  0  0  0  0  0  0  0  0  0
   -5.9804   -1.0664    0.7858 H   0  0  0  0  0  0  0  0  0  0  0  0
   -5.8346   -0.7080   -0.9623 H   0  0  0  0  0  0  0  0  0  0  0  0
   -6.0349    1.1670    0.2933 H   0  0  0  0  0  0  0  0  0  0  0  0
  2  1  1  1
  2  3  1  0
  3  4  1  0
  4  5  1  0
  4  6  1  0
  6  7  1  0
  7  8  1  0
  8  9  1  0
  9 10  1  0
 10 11  2  0
 11 12  1  0
 12 13  2  0
 12 14  1  0
 14 15  2  0
 15 16  1  0
 16 17  1  1
  7 18  1  0
 18 19  1  0
 19 20  1  0
 20 21  2  3
 20 22  1  0
 22 23  1  6
 22 24  1  0
 24 25  2  0
 24 26  1  0
 26 27  1  0
 18  2  1  0
 22  2  1  0
 16  6  1  0
 16 10  1  0
  1 28  1  0
  1 29  1  0
  1 30  1  0
  3 31  1  0
  3 32  1  0
  4 33  1  1
  5 34  1  0
  6 35  1  6
  7 36  1  1
  8 37  1  0
  8 38  1  0
  9 39  1  0
  9 40  1  0
 11 41  1  0
 14 42  1  0
 15 43  1  0
 17 44  1  0
 17 45  1  0
 17 46  1  0
 18 47  1  6
 19 48  1  0
 19 49  1  0
 21 50  1  0
 21 51  1  0
 23 52  1  0
 26 53  1  0
 26 54  1  0
 27 55  1  0
M  END
$$$$
