
     RDKit          3D

 63 67  0  0  0  0  0  0  0  0999 V2000
    6.4473   -3.1303   -0.2743 C   0  0  0  0  0  0  0  0  0  0  0  0
    5.8136   -1.7935   -0.0474 C   0  0  0  0  0  0  0  0  0  0  0  0
    4.4413   -1.4980   -0.0516 C   0  0  0  0  0  0  0  0  0  0  0  0
    3.3995   -2.5578   -0.2996 C   0  0  0  0  0  0  0  0  0  0  0  0
    4.1803   -0.1161    0.2002 C   0  0  0  0  0  0  0  0  0  0  0  0
    2.9314    0.5545    0.2726 C   0  0  0  0  0  0  0  0  0  0  0  0
    1.6552   -0.1652    0.0782 C   0  0  0  0  0  0  0  0  0  0  0  0
    1.0826   -0.2430   -1.1960 C   0  0  0  0  0  0  0  0  0  0  0  0
   -0.1550   -0.8745   -1.3842 C   0  0  0  0  0  0  0  0  0  0  0  0
   -0.7065   -0.9830   -2.7787 C   0  0  0  0  0  0  0  0  0  0  0  0
   -0.8572   -1.3771   -0.2644 C   0  0  0  0  0  0  0  0  0  0  0  0
   -2.1312   -1.9436   -0.4054 O   0  0  0  0  0  0  0  0  0  0  0  0
   -3.2970   -1.1746   -0.7085 C   0  0  2  0  0  0  0  0  0  0  0  0
   -3.6832   -0.2954    0.4948 C   0  0  0  0  0  0  0  0  0  0  0  0
   -4.8292    0.6278    0.1671 C   0  0  0  0  0  0  0  0  0  0  0  0
   -4.5952    1.8203   -0.5381 C   0  0  0  0  0  0  0  0  0  0  0  0
   -5.6604    2.6635   -0.8688 C   0  0  0  0  0  0  0  0  0  0  0  0
   -6.9652    2.3196   -0.5045 C   0  0  0  0  0  0  0  0  0  0  0  0
   -7.2071    1.1304    0.1889 C   0  0  0  0  0  0  0  0  0  0  0  0
   -6.1447    0.2845    0.5220 C   0  0  0  0  0  0  0  0  0  0  0  0
   -4.4094   -2.1183   -1.0569 C   0  0  0  0  0  0  0  0  0  0  0  0
   -4.7043   -3.1862   -0.2146 O   0  0  0  0  0  0  0  0  0  0  0  0
   -5.0937   -1.9318   -2.0986 O   0  0  0  0  0  0  0  0  0  0  0  0
   -0.2638   -1.3281    1.0141 C   0  0  0  0  0  0  0  0  0  0  0  0
   -0.9804   -1.8672    2.2209 C   0  0  0  0  0  0  0  0  0  0  0  0
    0.9747   -0.6934    1.1805 C   0  0  0  0  0  0  0  0  0  0  0  0
    2.9142    1.9562    0.5392 C   0  0  0  0  0  0  0  0  0  0  0  0
    1.6958    2.6711    0.6213 C   0  0  0  0  0  0  0  0  0  0  0  0
    1.6847    4.0405    0.8819 C   0  0  0  0  0  0  0  0  0  0  0  0
    2.8793    4.7283    1.0662 C   0  0  0  0  0  0  0  0  0  0  0  0
    4.0965    4.0534    0.9916 C   0  0  0  0  0  0  0  0  0  0  0  0
    4.1387    2.6685    0.7294 C   0  0  0  0  0  0  0  0  0  0  0  0
    5.3705    1.9830    0.6533 C   0  0  0  0  0  0  0  0  0  0  0  0
    7.0658    2.8704    0.8976 Br  0  0  0  0  0  0  0  0  0  0  0  0
    5.3534    0.6138    0.3913 C   0  0  0  0  0  0  0  0  0  0  0  0
    6.6880   -0.3946    0.2581 S   0  0  0  0  0  0  0  0  0  0  0  0
    6.1773   -3.5077   -1.2826 H   0  0  0  0  0  0  0  0  0  0  0  0
    6.0999   -3.8467    0.4991 H   0  0  0  0  0  0  0  0  0  0  0  0
    7.5527   -3.0497   -0.2109 H   0  0  0  0  0  0  0  0  0  0  0  0
    2.8164   -2.3125   -1.2090 H   0  0  0  0  0  0  0  0  0  0  0  0
    3.8516   -3.5553   -0.4679 H   0  0  0  0  0  0  0  0  0  0  0  0
    2.7352   -2.6517    0.5818 H   0  0  0  0  0  0  0  0  0  0  0  0
    1.6103    0.1787   -2.0438 H   0  0  0  0  0  0  0  0  0  0  0  0
   -1.2479   -0.0498   -3.0391 H   0  0  0  0  0  0  0  0  0  0  0  0
   -1.3924   -1.8507   -2.8736 H   0  0  0  0  0  0  0  0  0  0  0  0
    0.1166   -1.1310   -3.5100 H   0  0  0  0  0  0  0  0  0  0  0  0
   -3.0958   -0.5188   -1.5819 H   0  0  0  0  0  0  0  0  0  0  0  0
   -2.8085    0.3214    0.7949 H   0  0  0  0  0  0  0  0  0  0  0  0
   -3.9369   -0.9372    1.3674 H   0  0  0  0  0  0  0  0  0  0  0  0
   -3.5893    2.0937   -0.8327 H   0  0  0  0  0  0  0  0  0  0  0  0
   -5.4748    3.5821   -1.4101 H   0  0  0  0  0  0  0  0  0  0  0  0
   -7.7888    2.9726   -0.7624 H   0  0  0  0  0  0  0  0  0  0  0  0
   -8.2186    0.8626    0.4659 H   0  0  0  0  0  0  0  0  0  0  0  0
   -6.3472   -0.6381    1.0518 H   0  0  0  0  0  0  0  0  0  0  0  0
   -5.4607   -3.8243   -0.4304 H   0  0  0  0  0  0  0  0  0  0  0  0
   -1.6116   -2.7404    1.9527 H   0  0  0  0  0  0  0  0  0  0  0  0
   -1.6211   -1.0733    2.6573 H   0  0  0  0  0  0  0  0  0  0  0  0
   -0.2532   -2.2035    2.9904 H   0  0  0  0  0  0  0  0  0  0  0  0
    1.4133   -0.6101    2.1683 H   0  0  0  0  0  0  0  0  0  0  0  0
    0.7400    2.1826    0.4856 H   0  0  0  0  0  0  0  0  0  0  0  0
    0.7430    4.5711    0.9412 H   0  0  0  0  0  0  0  0  0  0  0  0
    2.8628    5.7917    1.2682 H   0  0  0  0  0  0  0  0  0  0  0  0
    4.9983    4.6300    1.1416 H   0  0  0  0  0  0  0  0  0  0  0  0
  1  2  1  0
  2  3  2  0
  3  4  1  0
  3  5  1  0
  5  6  2  0
  6  7  1  0
  7  8  2  0
  8  9  1  0
  9 10  1  0
  9 11  2  0
 11 12  1  0
 12 13  1  0
 13 14  1  0
 14 15  1  0
 15 16  2  0
 16 17  1  0
 17 18  2  0
 18 19  1  0
 19 20  2  0
 13 21  1  0
 21 22  1  0
 21 23  2  0
 11 24  1  0
 24 25  1  0
 24 26  2  0
  6 27  1  0
 27 28  2  0
 28 29  1  0
 29 30  2  0
 30 31  1  0
 31 32  2  0
 32 33  1  0
 33 34  1  0
 33 35  2  0
 35 36  1  0
 36  2  1  0
 35  5  1  0
 26  7  1  0
 32 27  1  0
 20 15  1  0
  1 37  1  0
  1 38  1  0
  1 39  1  0
  4 40  1  0
  4 41  1  0
  4 42  1  0
  8 43  1  0
 10 44  1  0
 10 45  1  0
 10 46  1  0
 13 47  1  6
 14 48  1  0
 14 49  1  0
 16 50  1  0
 17 51  1  0
 18 52  1  0
 19 53  1  0
 20 54  1  0
 22 55  1  0
 25 56  1  0
 25 57  1  0
 25 58  1  0
 26 59  1  0
 28 60  1  0
 29 61  1  0
 30 62  1  0
 31 63  1  0
M  END
$$$$
