
     RDKit          3D

 25 26  0  0  0  0  0  0  0  0999 V2000
    2.3891    0.4841    1.1365 N   0  0  0  0  0  0  0  0  0  0  0  0
    2.8096    0.3962   -0.2593 C   0  0  0  0  0  0  0  0  0  0  0  0
    1.6730    0.8087   -1.1989 C   0  0  0  0  0  0  0  0  0  0  0  0
    0.5124   -0.1388   -1.1025 C   0  0  0  0  0  0  0  0  0  0  0  0
    0.3795   -1.3519   -1.7714 C   0  0  0  0  0  0  0  0  0  0  0  0
   -0.7590   -1.9768   -1.3941 N   0  0  0  0  0  0  0  0  0  0  0  0
   -1.3397   -1.1745   -0.4849 C   0  0  0  0  0  0  0  0  0  0  0  0
   -2.5292   -1.4026    0.2044 C   0  0  0  0  0  0  0  0  0  0  0  0
   -2.9488   -0.4322    1.1323 C   0  0  0  0  0  0  0  0  0  0  0  0
   -2.1787    0.7325    1.3531 C   0  0  0  0  0  0  0  0  0  0  0  0
   -2.6156    1.6762    2.2796 O   0  0  0  0  0  0  0  0  0  0  0  0
   -0.9782    0.9338    0.6402 C   0  0  0  0  0  0  0  0  0  0  0  0
   -0.5910   -0.0448   -0.2758 C   0  0  0  0  0  0  0  0  0  0  0  0
    2.2681    1.4945    1.3786 H   0  0  0  0  0  0  0  0  0  0  0  0
    3.1745    0.1287    1.7282 H   0  0  0  0  0  0  0  0  0  0  0  0
    3.6848    1.0621   -0.4297 H   0  0  0  0  0  0  0  0  0  0  0  0
    3.1219   -0.6466   -0.4887 H   0  0  0  0  0  0  0  0  0  0  0  0
    1.3432    1.8436   -0.9654 H   0  0  0  0  0  0  0  0  0  0  0  0
    2.0516    0.8088   -2.2436 H   0  0  0  0  0  0  0  0  0  0  0  0
    1.0834   -1.7587   -2.4858 H   0  0  0  0  0  0  0  0  0  0  0  0
   -1.1060   -2.9017   -1.7326 H   0  0  0  0  0  0  0  0  0  0  0  0
   -3.1115   -2.2990    0.0344 H   0  0  0  0  0  0  0  0  0  0  0  0
   -3.8687   -0.5826    1.6826 H   0  0  0  0  0  0  0  0  0  0  0  0
   -2.0876    2.5215    2.4624 H   0  0  0  0  0  0  0  0  0  0  0  0
   -0.3773    1.8195    0.8004 H   0  0  0  0  0  0  0  0  0  0  0  0
  1  2  1  0
  2  3  1  0
  3  4  1  0
  4  5  2  0
  5  6  1  0
  6  7  1  0
  7  8  2  0
  8  9  1  0
  9 10  2  0
 10 11  1  0
 10 12  1  0
 12 13  2  0
 13  4  1  0
 13  7  1  0
  1 14  1  0
  1 15  1  0
  2 16  1  0
  2 17  1  0
  3 18  1  0
  3 19  1  0
  5 20  1  0
  6 21  1  0
  8 22  1  0
  9 23  1  0
 11 24  1  0
 12 25  1  0
M  END
$$$$
