
     RDKit          3D

 59 60  0  0  0  0  0  0  0  0999 V2000
   -1.0815   -0.6371   -0.2651 C   0  0  2  0  0  0  0  0  0  0  0  0
    0.0407   -1.4324   -0.9663 C   0  0  0  0  0  0  0  0  0  0  0  0
    1.4026   -0.9965   -0.4884 C   0  0  0  0  0  0  0  0  0  0  0  0
    2.1456   -0.0587   -1.2213 C   0  0  0  0  0  0  0  0  0  0  0  0
    3.3741    0.4010   -0.7400 C   0  0  0  0  0  0  0  0  0  0  0  0
    3.8816   -0.0674    0.4851 C   0  0  0  0  0  0  0  0  0  0  0  0
    3.1334   -1.0074    1.2164 C   0  0  0  0  0  0  0  0  0  0  0  0
    1.9031   -1.4637    0.7357 C   0  0  0  0  0  0  0  0  0  0  0  0
    5.1814    0.4299    1.0030 C   0  0  0  0  0  0  0  0  0  0  0  0
    6.0906   -0.4508    1.6193 C   0  0  0  0  0  0  0  0  0  0  0  0
    7.3134    0.0206    2.1068 C   0  0  0  0  0  0  0  0  0  0  0  0
    7.6416    1.3728    1.9868 C   0  0  0  0  0  0  0  0  0  0  0  0
    6.7477    2.2568    1.3785 C   0  0  0  0  0  0  0  0  0  0  0  0
    5.5239    1.7908    0.8882 C   0  0  0  0  0  0  0  0  0  0  0  0
   -2.4843   -1.0090   -0.7987 C   0  0  0  0  0  0  0  0  0  0  0  0
   -2.9123   -2.4798   -0.5786 C   0  0  1  0  0  0  0  0  0  0  0  0
   -2.9374   -2.8731    0.9048 C   0  0  0  0  0  0  0  0  0  0  0  0
   -4.2751   -2.6951   -1.1771 C   0  0  0  0  0  0  0  0  0  0  0  0
   -4.4073   -3.4562   -2.1746 O   0  0  0  0  0  0  0  0  0  0  0  0
   -5.3833   -2.0337   -0.6329 O   0  0  0  0  0  0  0  0  0  0  0  0
   -6.7176   -2.2242   -1.0981 C   0  0  0  0  0  0  0  0  0  0  0  0
   -7.2721   -3.5564   -0.6074 C   0  0  0  0  0  0  0  0  0  0  0  0
   -0.8685    0.8006   -0.4711 N   0  0  0  0  0  0  0  0  0  0  0  0
   -0.2899    1.6557    0.5269 C   0  0  0  0  0  0  0  0  0  0  0  0
   -0.1359    1.2476    1.7099 O   0  0  0  0  0  0  0  0  0  0  0  0
    0.1084    3.0562    0.1739 C   0  0  0  0  0  0  0  0  0  0  0  0
   -1.1073    3.9831    0.2082 C   0  0  0  0  0  0  0  0  0  0  0  0
   -0.7101    5.3789   -0.1533 C   0  0  0  0  0  0  0  0  0  0  0  0
   -0.6918    5.7702   -1.4883 O   0  0  0  0  0  0  0  0  0  0  0  0
   -0.3538    6.1872    0.7454 O   0  0  0  0  0  0  0  0  0  0  0  0
   -1.0513   -0.8620    0.8217 H   0  0  0  0  0  0  0  0  0  0  0  0
   -0.0378   -1.3037   -2.0684 H   0  0  0  0  0  0  0  0  0  0  0  0
   -0.0685   -2.5163   -0.7533 H   0  0  0  0  0  0  0  0  0  0  0  0
    1.7672    0.3275   -2.1596 H   0  0  0  0  0  0  0  0  0  0  0  0
    3.9317    1.1163   -1.3314 H   0  0  0  0  0  0  0  0  0  0  0  0
    3.4869   -1.3699    2.1734 H   0  0  0  0  0  0  0  0  0  0  0  0
    1.3320   -2.1704    1.3252 H   0  0  0  0  0  0  0  0  0  0  0  0
    5.8637   -1.5058    1.7084 H   0  0  0  0  0  0  0  0  0  0  0  0
    8.0085   -0.6641    2.5754 H   0  0  0  0  0  0  0  0  0  0  0  0
    8.5884    1.7356    2.3653 H   0  0  0  0  0  0  0  0  0  0  0  0
    7.0013    3.3053    1.2898 H   0  0  0  0  0  0  0  0  0  0  0  0
    4.8387    2.4969    0.4363 H   0  0  0  0  0  0  0  0  0  0  0  0
   -2.5200   -0.7873   -1.8890 H   0  0  0  0  0  0  0  0  0  0  0  0
   -3.2278   -0.3417   -0.3078 H   0  0  0  0  0  0  0  0  0  0  0  0
   -2.2014   -3.1531   -1.1035 H   0  0  0  0  0  0  0  0  0  0  0  0
   -1.9060   -2.9282    1.3107 H   0  0  0  0  0  0  0  0  0  0  0  0
   -3.5255   -2.1403    1.4981 H   0  0  0  0  0  0  0  0  0  0  0  0
   -3.3929   -3.8795    1.0275 H   0  0  0  0  0  0  0  0  0  0  0  0
   -6.7520   -2.1761   -2.2082 H   0  0  0  0  0  0  0  0  0  0  0  0
   -7.3514   -1.4051   -0.6979 H   0  0  0  0  0  0  0  0  0  0  0  0
   -6.6846   -4.3991   -1.0279 H   0  0  0  0  0  0  0  0  0  0  0  0
   -8.3291   -3.6626   -0.9303 H   0  0  0  0  0  0  0  0  0  0  0  0
   -7.2279   -3.5995    0.5015 H   0  0  0  0  0  0  0  0  0  0  0  0
   -0.9987    1.1852   -1.4348 H   0  0  0  0  0  0  0  0  0  0  0  0
    0.5613    3.0609   -0.8418 H   0  0  0  0  0  0  0  0  0  0  0  0
    0.8774    3.4155    0.8931 H   0  0  0  0  0  0  0  0  0  0  0  0
   -1.8744    3.6271   -0.5137 H   0  0  0  0  0  0  0  0  0  0  0  0
   -1.5584    3.9777    1.2249 H   0  0  0  0  0  0  0  0  0  0  0  0
   -0.4094    6.7068   -1.7512 H   0  0  0  0  0  0  0  0  0  0  0  0
  1  2  1  0
  2  3  1  0
  3  4  2  0
  4  5  1  0
  5  6  2  0
  6  7  1  0
  7  8  2  0
  6  9  1  0
  9 10  2  0
 10 11  1  0
 11 12  2  0
 12 13  1  0
 13 14  2  0
  1 15  1  0
 15 16  1  0
 16 17  1  0
 16 18  1  0
 18 19  2  0
 18 20  1  0
 20 21  1  0
 21 22  1  0
  1 23  1  0
 23 24  1  0
 24 25  2  0
 24 26  1  0
 26 27  1  0
 27 28  1  0
 28 29  1  0
 28 30  2  0
  8  3  1  0
 14  9  1  0
  1 31  1  1
  2 32  1  0
  2 33  1  0
  4 34  1  0
  5 35  1  0
  7 36  1  0
  8 37  1  0
 10 38  1  0
 11 39  1  0
 12 40  1  0
 13 41  1  0
 14 42  1  0
 15 43  1  0
 15 44  1  0
 16 45  1  6
 17 46  1  0
 17 47  1  0
 17 48  1  0
 21 49  1  0
 21 50  1  0
 22 51  1  0
 22 52  1  0
 22 53  1  0
 23 54  1  0
 26 55  1  0
 26 56  1  0
 27 57  1  0
 27 58  1  0
 29 59  1  0
M  END
$$$$
