
     RDKit          3D

 20 20  0  0  0  0  0  0  0  0999 V2000
    3.2480   -1.0676   -1.8686 O   0  0  0  0  0  0  0  0  0  0  0  0
    2.6018   -0.4445   -0.8053 C   0  0  0  0  0  0  0  0  0  0  0  0
    2.7830    0.7854   -0.5986 O   0  0  0  0  0  0  0  0  0  0  0  0
    1.7125   -1.2265    0.0685 C   0  0  0  0  0  0  0  0  0  0  0  0
    1.5376   -2.4517   -0.1687 O   0  0  0  0  0  0  0  0  0  0  0  0
    0.9738   -0.5882    1.2100 C   0  0  0  0  0  0  0  0  0  0  0  0
   -0.3292   -0.0090    0.7302 C   0  0  0  0  0  0  0  0  0  0  0  0
   -1.4558   -0.8350    0.5773 C   0  0  0  0  0  0  0  0  0  0  0  0
   -2.6599   -0.3039    0.1046 C   0  0  0  0  0  0  0  0  0  0  0  0
   -2.7462    1.0515   -0.2250 C   0  0  0  0  0  0  0  0  0  0  0  0
   -1.6277    1.8776   -0.0849 C   0  0  0  0  0  0  0  0  0  0  0  0
   -0.4215    1.3507    0.3875 C   0  0  0  0  0  0  0  0  0  0  0  0
    3.8634   -0.5454   -2.4809 H   0  0  0  0  0  0  0  0  0  0  0  0
    0.7781   -1.3485    1.9976 H   0  0  0  0  0  0  0  0  0  0  0  0
    1.6026    0.1984    1.6811 H   0  0  0  0  0  0  0  0  0  0  0  0
   -1.3998   -1.8885    0.8225 H   0  0  0  0  0  0  0  0  0  0  0  0
   -3.5255   -0.9438   -0.0088 H   0  0  0  0  0  0  0  0  0  0  0  0
   -3.6786    1.4608   -0.5917 H   0  0  0  0  0  0  0  0  0  0  0  0
   -1.6946    2.9262   -0.3446 H   0  0  0  0  0  0  0  0  0  0  0  0
    0.4380    2.0018    0.4863 H   0  0  0  0  0  0  0  0  0  0  0  0
  1  2  1  0
  2  3  2  0
  2  4  1  0
  4  5  2  0
  4  6  1  0
  6  7  1  0
  7  8  2  0
  8  9  1  0
  9 10  2  0
 10 11  1  0
 11 12  2  0
 12  7  1  0
  1 13  1  0
  6 14  1  0
  6 15  1  0
  8 16  1  0
  9 17  1  0
 10 18  1  0
 11 19  1  0
 12 20  1  0
M  END
$$$$
