
     RDKit          3D

 43 46  0  0  0  0  0  0  0  0999 V2000
    4.2012   -2.3708    0.7816 C   0  0  0  0  0  0  0  0  0  0  0  0
    2.8037   -1.8051    0.5480 C   0  0  0  0  0  0  0  0  0  0  0  0
    2.4609   -0.7319    1.5889 C   0  0  0  0  0  0  0  0  0  0  0  0
    1.0491   -0.1651    1.3923 C   0  0  0  0  0  0  0  0  0  0  0  0
    0.9479    0.5850    0.1369 N   0  0  0  0  0  0  0  0  0  0  0  0
    0.3657    0.2271   -1.0446 C   0  0  0  0  0  0  0  0  0  0  0  0
   -0.4003   -1.0452   -1.2704 C   0  0  0  0  0  0  0  0  0  0  0  0
   -1.8132   -0.9111   -0.7695 C   0  0  0  0  0  0  0  0  0  0  0  0
   -2.2613   -1.6847    0.3257 C   0  0  0  0  0  0  0  0  0  0  0  0
   -3.5757   -1.5165    0.7513 C   0  0  0  0  0  0  0  0  0  0  0  0
   -4.4226   -0.6463    0.1464 C   0  0  0  0  0  0  0  0  0  0  0  0
   -5.6524   -0.6886    0.7742 O   0  0  0  0  0  0  0  0  0  0  0  0
   -5.5729   -1.6454    1.8401 C   0  0  0  0  0  0  0  0  0  0  0  0
   -4.2310   -2.1501    1.7894 O   0  0  0  0  0  0  0  0  0  0  0  0
   -4.0298    0.1305   -0.9385 C   0  0  0  0  0  0  0  0  0  0  0  0
   -2.7087   -0.0080   -1.4010 C   0  0  0  0  0  0  0  0  0  0  0  0
    0.4804    1.1790   -2.0133 N   0  0  0  0  0  0  0  0  0  0  0  0
    1.1751    2.1510   -1.3954 C   0  0  0  0  0  0  0  0  0  0  0  0
    1.5982    3.3815   -1.8844 C   0  0  0  0  0  0  0  0  0  0  0  0
    1.3241    3.7935   -3.2235 N   0  0  0  0  0  0  0  0  0  0  0  0
    2.2925    4.1958   -1.0343 N   0  0  0  0  0  0  0  0  0  0  0  0
    2.5629    3.8168    0.2564 C   0  0  0  0  0  0  0  0  0  0  0  0
    2.1394    2.6049    0.7267 N   0  0  0  0  0  0  0  0  0  0  0  0
    1.4528    1.7991   -0.1197 C   0  0  0  0  0  0  0  0  0  0  0  0
    4.9616   -1.5647    0.7029 H   0  0  0  0  0  0  0  0  0  0  0  0
    4.2652   -2.8393    1.7868 H   0  0  0  0  0  0  0  0  0  0  0  0
    4.4222   -3.1433    0.0152 H   0  0  0  0  0  0  0  0  0  0  0  0
    2.7640   -1.3691   -0.4733 H   0  0  0  0  0  0  0  0  0  0  0  0
    2.0668   -2.6350    0.6095 H   0  0  0  0  0  0  0  0  0  0  0  0
    2.5196   -1.1790    2.6054 H   0  0  0  0  0  0  0  0  0  0  0  0
    3.2033    0.0941    1.5369 H   0  0  0  0  0  0  0  0  0  0  0  0
    0.3045   -0.9852    1.4250 H   0  0  0  0  0  0  0  0  0  0  0  0
    0.8154    0.5157    2.2392 H   0  0  0  0  0  0  0  0  0  0  0  0
    0.1218   -1.8934   -0.7809 H   0  0  0  0  0  0  0  0  0  0  0  0
   -0.4232   -1.2711   -2.3581 H   0  0  0  0  0  0  0  0  0  0  0  0
   -1.6129   -2.3929    0.8253 H   0  0  0  0  0  0  0  0  0  0  0  0
   -5.7586   -1.1486    2.8154 H   0  0  0  0  0  0  0  0  0  0  0  0
   -6.2984   -2.4685    1.6709 H   0  0  0  0  0  0  0  0  0  0  0  0
   -4.7188    0.8180   -1.4110 H   0  0  0  0  0  0  0  0  0  0  0  0
   -2.3803    0.5847   -2.2456 H   0  0  0  0  0  0  0  0  0  0  0  0
    0.7935    3.1766   -3.8781 H   0  0  0  0  0  0  0  0  0  0  0  0
    1.6541    4.7237   -3.5640 H   0  0  0  0  0  0  0  0  0  0  0  0
    3.1139    4.4820    0.9068 H   0  0  0  0  0  0  0  0  0  0  0  0
  1  2  1  0
  2  3  1  0
  3  4  1  0
  4  5  1  0
  5  6  1  0
  6  7  1  0
  7  8  1  0
  8  9  2  0
  9 10  1  0
 10 11  2  0
 11 12  1  0
 12 13  1  0
 13 14  1  0
 11 15  1  0
 15 16  2  0
  6 17  2  0
 17 18  1  0
 18 19  2  0
 19 20  1  0
 19 21  1  0
 21 22  2  0
 22 23  1  0
 23 24  2  0
 24  5  1  0
 16  8  1  0
 24 18  1  0
 14 10  1  0
  1 25  1  0
  1 26  1  0
  1 27  1  0
  2 28  1  0
  2 29  1  0
  3 30  1  0
  3 31  1  0
  4 32  1  0
  4 33  1  0
  7 34  1  0
  7 35  1  0
  9 36  1  0
 13 37  1  0
 13 38  1  0
 15 39  1  0
 16 40  1  0
 20 41  1  0
 20 42  1  0
 22 43  1  0
M  END
$$$$
