
     RDKit          3D

 48 50  0  0  0  0  0  0  0  0999 V2000
   -2.0823   -2.0798   -0.8323 C   0  0  2  0  0  0  0  0  0  0  0  0
   -3.1736   -2.9934   -1.1924 N   0  0  0  0  0  0  0  0  0  0  0  0
   -2.3516   -1.4426    0.5186 C   0  0  0  0  0  0  0  0  0  0  0  0
   -1.4482   -1.5255    1.3957 O   0  0  0  0  0  0  0  0  0  0  0  0
   -3.5521   -0.7009    0.8258 N   0  0  0  0  0  0  0  0  0  0  0  0
   -3.6695    0.0965    2.0366 C   0  0  0  0  0  0  0  0  0  0  0  0
   -5.1337    0.5006    2.1330 C   0  0  0  0  0  0  0  0  0  0  0  0
   -5.7230    0.2609    0.7483 C   0  0  0  0  0  0  0  0  0  0  0  0
   -4.7919   -0.7315    0.0651 C   0  0  0  0  0  0  0  0  0  0  0  0
   -1.7927   -1.0213   -1.9367 C   0  0  2  0  0  0  0  0  0  0  0  0
   -1.3908   -1.6814   -3.2629 C   0  0  0  0  0  0  0  0  0  0  0  0
   -0.7048   -0.0757   -1.5038 C   0  0  0  0  0  0  0  0  0  0  0  0
    0.5584   -0.4494   -1.2200 N   0  0  0  0  0  0  0  0  0  0  0  0
    1.1160    0.7318   -0.8772 C   0  0  0  0  0  0  0  0  0  0  0  0
    0.2385    1.7534   -0.9511 N   0  0  0  0  0  0  0  0  0  0  0  0
   -0.8747    1.2128   -1.3413 O   0  0  0  0  0  0  0  0  0  0  0  0
    2.5269    0.8859   -0.4635 C   0  0  0  0  0  0  0  0  0  0  0  0
    3.0352    2.1503   -0.1188 C   0  0  0  0  0  0  0  0  0  0  0  0
    4.3693    2.2938    0.2736 C   0  0  0  0  0  0  0  0  0  0  0  0
    5.2148    1.1783    0.3221 C   0  0  0  0  0  0  0  0  0  0  0  0
    4.7118   -0.0852   -0.0123 C   0  0  0  0  0  0  0  0  0  0  0  0
    3.3781   -0.2313   -0.4050 C   0  0  0  0  0  0  0  0  0  0  0  0
    6.8895    1.3578    0.8338 S   0  0  0  0  0  6  0  0  0  0  0  0
    6.9922    1.1593    2.5978 C   0  0  0  0  0  0  0  0  0  0  0  0
    7.3962    2.7200    0.4507 O   0  0  0  0  0  0  0  0  0  0  0  0
    7.7421    0.3192    0.1603 O   0  0  0  0  0  0  0  0  0  0  0  0
   -1.1570   -2.6931   -0.7166 H   0  0  0  0  0  0  0  0  0  0  0  0
   -3.8672   -2.5128   -1.8088 H   0  0  0  0  0  0  0  0  0  0  0  0
   -2.7799   -3.7844   -1.7525 H   0  0  0  0  0  0  0  0  0  0  0  0
   -3.3761   -0.4993    2.9285 H   0  0  0  0  0  0  0  0  0  0  0  0
   -3.0201    0.9949    1.9530 H   0  0  0  0  0  0  0  0  0  0  0  0
   -5.6524   -0.1479    2.8732 H   0  0  0  0  0  0  0  0  0  0  0  0
   -5.2415    1.5635    2.4402 H   0  0  0  0  0  0  0  0  0  0  0  0
   -6.7603   -0.1337    0.8124 H   0  0  0  0  0  0  0  0  0  0  0  0
   -5.7316    1.2175    0.1804 H   0  0  0  0  0  0  0  0  0  0  0  0
   -4.6276   -0.4207   -0.9851 H   0  0  0  0  0  0  0  0  0  0  0  0
   -5.2298   -1.7520    0.1051 H   0  0  0  0  0  0  0  0  0  0  0  0
   -2.7044   -0.4198   -2.1282 H   0  0  0  0  0  0  0  0  0  0  0  0
   -1.1415   -0.9041   -4.0172 H   0  0  0  0  0  0  0  0  0  0  0  0
   -2.2291   -2.2860   -3.6677 H   0  0  0  0  0  0  0  0  0  0  0  0
   -0.5069   -2.3404   -3.1237 H   0  0  0  0  0  0  0  0  0  0  0  0
    2.4021    3.0282   -0.1500 H   0  0  0  0  0  0  0  0  0  0  0  0
    4.7408    3.2745    0.5422 H   0  0  0  0  0  0  0  0  0  0  0  0
    5.3501   -0.9584    0.0335 H   0  0  0  0  0  0  0  0  0  0  0  0
    3.0133   -1.2184   -0.6602 H   0  0  0  0  0  0  0  0  0  0  0  0
    8.0466    1.2720    2.9240 H   0  0  0  0  0  0  0  0  0  0  0  0
    6.6246    0.1510    2.8793 H   0  0  0  0  0  0  0  0  0  0  0  0
    6.3679    1.9304    3.0945 H   0  0  0  0  0  0  0  0  0  0  0  0
  1  2  1  0
  1  3  1  0
  3  4  2  0
  3  5  1  0
  5  6  1  0
  6  7  1  0
  7  8  1  0
  8  9  1  0
  1 10  1  0
 10 11  1  0
 10 12  1  0
 12 13  2  0
 13 14  1  0
 14 15  2  0
 15 16  1  0
 14 17  1  0
 17 18  2  0
 18 19  1  0
 19 20  2  0
 20 21  1  0
 21 22  2  0
 20 23  1  0
 23 24  1  0
 23 25  2  0
 23 26  2  0
  9  5  1  0
 16 12  1  0
 22 17  1  0
  1 27  1  1
  2 28  1  0
  2 29  1  0
  6 30  1  0
  6 31  1  0
  7 32  1  0
  7 33  1  0
  8 34  1  0
  8 35  1  0
  9 36  1  0
  9 37  1  0
 10 38  1  6
 11 39  1  0
 11 40  1  0
 11 41  1  0
 18 42  1  0
 19 43  1  0
 21 44  1  0
 22 45  1  0
 24 46  1  0
 24 47  1  0
 24 48  1  0
M  END
$$$$
