
     RDKit          3D

 81 82  0  0  0  0  0  0  0  0999 V2000
    9.9780   -1.2436   -1.0641 C   0  0  0  0  0  0  0  0  0  0  0  0
    9.2728    0.0510   -0.6317 C   0  0  0  0  0  0  0  0  0  0  0  0
    9.8846    1.2491   -1.3691 C   0  0  0  0  0  0  0  0  0  0  0  0
    7.7505   -0.0092   -0.8908 C   0  0  0  0  0  0  0  0  0  0  0  0
    7.0406   -1.0615   -0.0186 C   0  0  0  0  0  0  0  0  0  0  0  0
    5.5097   -0.8907    0.0079 C   0  0  0  0  0  0  0  0  0  0  0  0
    4.8120   -1.1020   -1.3608 C   0  0  1  0  0  0  0  0  0  0  0  0
    4.9402   -2.5504   -1.8610 C   0  0  0  0  0  0  0  0  0  0  0  0
    3.3356   -0.6359   -1.3271 C   0  0  0  0  0  0  0  0  0  0  0  0
    2.4127   -1.4876   -0.4310 C   0  0  0  0  0  0  0  0  0  0  0  0
    0.9893   -0.8945   -0.3337 C   0  0  0  0  0  0  0  0  0  0  0  0
    0.7280   -0.1307    0.9903 C   0  0  1  0  0  0  0  0  0  0  0  0
    1.5893    1.1359    1.1189 C   0  0  0  0  0  0  0  0  0  0  0  0
   -0.7766    0.1781    1.1939 C   0  0  0  0  0  0  0  0  0  0  0  0
   -1.3356    1.2730    0.2653 C   0  0  0  0  0  0  0  0  0  0  0  0
   -2.8713    1.2357    0.0993 C   0  0  0  0  0  0  0  0  0  0  0  0
   -3.7615    1.6051    1.3316 C   0  0  2  0  0  0  0  0  0  0  0  0
   -3.2072    2.8350    2.0700 C   0  0  0  0  0  0  0  0  0  0  0  0
   -3.9559    0.4447    2.3358 C   0  0  0  0  0  0  0  0  0  0  0  0
   -4.7056   -0.7396    1.7124 C   0  0  0  0  0  0  0  0  0  0  0  0
   -5.9145   -0.3190    0.8955 C   0  0  0  0  0  0  0  0  0  0  0  0
   -6.0449    1.0290    0.4999 C   0  0  0  0  0  0  0  0  0  0  0  0
   -5.0529    1.9630    0.8371 O   0  0  0  0  0  0  0  0  0  0  0  0
   -7.1744    1.4609   -0.2177 C   0  0  0  0  0  0  0  0  0  0  0  0
   -7.2827    2.9119   -0.6308 C   0  0  0  0  0  0  0  0  0  0  0  0
   -8.2210    0.5494   -0.4888 C   0  0  0  0  0  0  0  0  0  0  0  0
   -9.4792    1.0101   -1.1920 C   0  0  0  0  0  0  0  0  0  0  0  0
   -8.0706   -0.8108   -0.1493 C   0  0  0  0  0  0  0  0  0  0  0  0
   -9.1098   -1.6960   -0.4625 O   0  0  0  0  0  0  0  0  0  0  0  0
   -6.8967   -1.2623    0.5005 C   0  0  0  0  0  0  0  0  0  0  0  0
   -6.7299   -2.7385    0.7927 C   0  0  0  0  0  0  0  0  0  0  0  0
    9.7677   -1.4678   -2.1319 H   0  0  0  0  0  0  0  0  0  0  0  0
   11.0765   -1.1461   -0.9297 H   0  0  0  0  0  0  0  0  0  0  0  0
    9.6431   -2.0982   -0.4408 H   0  0  0  0  0  0  0  0  0  0  0  0
    9.4496    0.2007    0.4566 H   0  0  0  0  0  0  0  0  0  0  0  0
    9.4112    2.1941   -1.0269 H   0  0  0  0  0  0  0  0  0  0  0  0
   10.9732    1.3166   -1.1576 H   0  0  0  0  0  0  0  0  0  0  0  0
    9.7374    1.1507   -2.4664 H   0  0  0  0  0  0  0  0  0  0  0  0
    7.5731   -0.2297   -1.9655 H   0  0  0  0  0  0  0  0  0  0  0  0
    7.3117    0.9887   -0.6689 H   0  0  0  0  0  0  0  0  0  0  0  0
    7.2994   -2.0839   -0.3621 H   0  0  0  0  0  0  0  0  0  0  0  0
    7.4042   -0.9664    1.0280 H   0  0  0  0  0  0  0  0  0  0  0  0
    5.1068   -1.6152    0.7468 H   0  0  0  0  0  0  0  0  0  0  0  0
    5.2764    0.1272    0.3909 H   0  0  0  0  0  0  0  0  0  0  0  0
    5.3083   -0.4505   -2.1107 H   0  0  0  0  0  0  0  0  0  0  0  0
    4.3117   -2.7048   -2.7638 H   0  0  0  0  0  0  0  0  0  0  0  0
    4.6273   -3.2716   -1.0765 H   0  0  0  0  0  0  0  0  0  0  0  0
    5.9899   -2.7688   -2.1473 H   0  0  0  0  0  0  0  0  0  0  0  0
    3.3066    0.4252   -1.0028 H   0  0  0  0  0  0  0  0  0  0  0  0
    2.9349   -0.6561   -2.3649 H   0  0  0  0  0  0  0  0  0  0  0  0
    2.3350   -2.5035   -0.8751 H   0  0  0  0  0  0  0  0  0  0  0  0
    2.8464   -1.6099    0.5823 H   0  0  0  0  0  0  0  0  0  0  0  0
    0.2686   -1.7400   -0.3910 H   0  0  0  0  0  0  0  0  0  0  0  0
    0.7824   -0.2470   -1.2118 H   0  0  0  0  0  0  0  0  0  0  0  0
    1.0144   -0.8070    1.8269 H   0  0  0  0  0  0  0  0  0  0  0  0
    1.4794    1.7831    0.2231 H   0  0  0  0  0  0  0  0  0  0  0  0
    1.2915    1.7149    2.0190 H   0  0  0  0  0  0  0  0  0  0  0  0
    2.6586    0.8634    1.2390 H   0  0  0  0  0  0  0  0  0  0  0  0
   -1.3578   -0.7613    1.0669 H   0  0  0  0  0  0  0  0  0  0  0  0
   -0.9041    0.5129    2.2443 H   0  0  0  0  0  0  0  0  0  0  0  0
   -0.9093    1.1471   -0.7504 H   0  0  0  0  0  0  0  0  0  0  0  0
   -1.0052    2.2736    0.6143 H   0  0  0  0  0  0  0  0  0  0  0  0
   -3.1661    0.2531   -0.3218 H   0  0  0  0  0  0  0  0  0  0  0  0
   -3.1081    1.9699   -0.7029 H   0  0  0  0  0  0  0  0  0  0  0  0
   -2.2638    2.5925    2.6030 H   0  0  0  0  0  0  0  0  0  0  0  0
   -3.9418    3.1931    2.8232 H   0  0  0  0  0  0  0  0  0  0  0  0
   -3.0199    3.6642    1.3546 H   0  0  0  0  0  0  0  0  0  0  0  0
   -3.0002    0.0922    2.7631 H   0  0  0  0  0  0  0  0  0  0  0  0
   -4.5637    0.8139    3.1924 H   0  0  0  0  0  0  0  0  0  0  0  0
   -4.0125   -1.3252    1.0725 H   0  0  0  0  0  0  0  0  0  0  0  0
   -5.0321   -1.3981    2.5464 H   0  0  0  0  0  0  0  0  0  0  0  0
   -6.2914    3.4088   -0.6734 H   0  0  0  0  0  0  0  0  0  0  0  0
   -7.9233    3.4572    0.0934 H   0  0  0  0  0  0  0  0  0  0  0  0
   -7.7183    2.9997   -1.6479 H   0  0  0  0  0  0  0  0  0  0  0  0
   -9.2841    1.0983   -2.2812 H   0  0  0  0  0  0  0  0  0  0  0  0
  -10.3269    0.3111   -1.0389 H   0  0  0  0  0  0  0  0  0  0  0  0
   -9.8124    1.9924   -0.7969 H   0  0  0  0  0  0  0  0  0  0  0  0
   -9.1332   -2.6657   -0.1765 H   0  0  0  0  0  0  0  0  0  0  0  0
   -5.6864   -3.0214    1.0307 H   0  0  0  0  0  0  0  0  0  0  0  0
   -6.9961   -3.3392   -0.1018 H   0  0  0  0  0  0  0  0  0  0  0  0
   -7.3817   -3.0265    1.6438 H   0  0  0  0  0  0  0  0  0  0  0  0
  1  2  1  0
  2  3  1  0
  2  4  1  0
  4  5  1  0
  5  6  1  0
  6  7  1  0
  7  8  1  0
  7  9  1  0
  9 10  1  0
 10 11  1  0
 11 12  1  0
 12 13  1  0
 12 14  1  0
 14 15  1  0
 15 16  1  0
 17 16  1  6
 17 18  1  0
 17 19  1  0
 19 20  1  0
 20 21  1  0
 21 22  2  0
 22 23  1  0
 22 24  1  0
 24 25  1  0
 24 26  2  0
 26 27  1  0
 26 28  1  0
 28 29  1  0
 28 30  2  0
 30 31  1  0
 23 17  1  0
 30 21  1  0
  1 32  1  0
  1 33  1  0
  1 34  1  0
  2 35  1  0
  3 36  1  0
  3 37  1  0
  3 38  1  0
  4 39  1  0
  4 40  1  0
  5 41  1  0
  5 42  1  0
  6 43  1  0
  6 44  1  0
  7 45  1  6
  8 46  1  0
  8 47  1  0
  8 48  1  0
  9 49  1  0
  9 50  1  0
 10 51  1  0
 10 52  1  0
 11 53  1  0
 11 54  1  0
 12 55  1  1
 13 56  1  0
 13 57  1  0
 13 58  1  0
 14 59  1  0
 14 60  1  0
 15 61  1  0
 15 62  1  0
 16 63  1  0
 16 64  1  0
 18 65  1  0
 18 66  1  0
 18 67  1  0
 19 68  1  0
 19 69  1  0
 20 70  1  0
 20 71  1  0
 25 72  1  0
 25 73  1  0
 25 74  1  0
 27 75  1  0
 27 76  1  0
 27 77  1  0
 29 78  1  0
 31 79  1  0
 31 80  1  0
 31 81  1  0
M  END
$$$$
