
     RDKit          3D

 20 20  0  0  0  0  0  0  0  0999 V2000
   -0.1094   -3.0900    0.2797 N   0  0  0  0  0  0  0  0  0  0  0  0
   -0.0775   -1.6569    0.1475 C   0  0  0  0  0  0  0  0  0  0  0  0
    1.1167   -0.9464    0.4028 C   0  0  0  0  0  0  0  0  0  0  0  0
    2.6930   -1.8854    1.0124 Br  0  0  0  0  0  0  0  0  0  0  0  0
    1.1509    0.4577    0.2662 C   0  0  0  0  0  0  0  0  0  0  0  0
    2.4054    1.1962    0.5228 C   0  0  0  0  0  0  0  0  0  0  0  0
    3.5741    0.8409   -0.1442 O   0  0  0  0  0  0  0  0  0  0  0  0
    2.4215    2.1515    1.3448 O   0  0  0  0  0  0  0  0  0  0  0  0
   -0.0112    1.1547   -0.1244 C   0  0  0  0  0  0  0  0  0  0  0  0
    0.0714    3.0607   -0.4497 Br  0  0  0  0  0  0  0  0  0  0  0  0
   -1.2092    0.4526   -0.3678 C   0  0  0  0  0  0  0  0  0  0  0  0
   -2.4255    1.1907   -0.7690 C   0  0  0  0  0  0  0  0  0  0  0  0
   -2.8892    2.2464    0.0105 O   0  0  0  0  0  0  0  0  0  0  0  0
   -3.0446    0.8712   -1.8193 O   0  0  0  0  0  0  0  0  0  0  0  0
   -1.2423   -0.9520   -0.2295 C   0  0  0  0  0  0  0  0  0  0  0  0
   -2.9081   -1.8991   -0.4884 Br  0  0  0  0  0  0  0  0  0  0  0  0
   -0.9678   -3.6492    0.0901 H   0  0  0  0  0  0  0  0  0  0  0  0
    0.7309   -3.6450    0.5466 H   0  0  0  0  0  0  0  0  0  0  0  0
    4.4402    1.3387    0.0237 H   0  0  0  0  0  0  0  0  0  0  0  0
   -3.7194    2.7627   -0.2547 H   0  0  0  0  0  0  0  0  0  0  0  0
  1  2  1  0
  2  3  2  0
  3  4  1  0
  3  5  1  0
  5  6  1  0
  6  7  1  0
  6  8  2  0
  5  9  2  0
  9 10  1  0
  9 11  1  0
 11 12  1  0
 12 13  1  0
 12 14  2  0
 11 15  2  0
 15 16  1  0
 15  2  1  0
  1 17  1  0
  1 18  1  0
  7 19  1  0
 13 20  1  0
M  END
$$$$
