
     RDKit          3D

 41 43  0  0  0  0  0  0  0  0999 V2000
    4.7388    3.1509    1.4260 C   0  0  0  0  0  0  0  0  0  0  0  0
    3.5327    3.5870    0.8076 O   0  0  0  0  0  0  0  0  0  0  0  0
    2.5478    2.7262    0.3016 C   0  0  0  0  0  0  0  0  0  0  0  0
    1.3965    3.2992   -0.2842 C   0  0  0  0  0  0  0  0  0  0  0  0
    0.3711    2.4904   -0.8030 C   0  0  0  0  0  0  0  0  0  0  0  0
    0.5288    1.1042   -0.7355 C   0  0  0  0  0  0  0  0  0  0  0  0
   -0.3430    0.1511   -1.1249 N   0  0  0  0  0  0  0  0  0  0  0  0
   -1.6318    0.3699   -1.7209 C   0  0  0  0  0  0  0  0  0  0  0  0
   -1.7093    1.0453   -2.7829 O   0  0  0  0  0  0  0  0  0  0  0  0
   -2.8652   -0.1651   -1.0969 C   0  0  0  0  0  0  0  0  0  0  0  0
   -2.8807   -0.5336    0.2610 C   0  0  0  0  0  0  0  0  0  0  0  0
   -4.0469   -1.0372    0.8443 C   0  0  0  0  0  0  0  0  0  0  0  0
   -5.2110   -1.1714    0.0828 C   0  0  0  0  0  0  0  0  0  0  0  0
   -6.9686   -1.9317    0.9662 I   0  0  0  0  0  0  0  0  0  0  0  0
   -5.2096   -0.7977   -1.2639 C   0  0  0  0  0  0  0  0  0  0  0  0
   -4.0452   -0.2940   -1.8516 C   0  0  0  0  0  0  0  0  0  0  0  0
    0.2377   -1.0418   -0.8238 C   0  0  0  0  0  0  0  0  0  0  0  0
   -0.3955   -2.3837   -1.0601 C   0  0  0  0  0  0  0  0  0  0  0  0
    1.4816   -0.8335   -0.2210 C   0  0  0  0  0  0  0  0  0  0  0  0
    2.3915   -1.8675    0.3782 C   0  0  0  0  0  0  0  0  0  0  0  0
    2.0159   -2.1118    1.8035 C   0  0  0  0  0  0  0  0  0  0  0  0
    1.0515   -3.0660    2.1120 O   0  0  0  0  0  0  0  0  0  0  0  0
    2.5407   -1.4263    2.7214 O   0  0  0  0  0  0  0  0  0  0  0  0
    1.6436    0.5397   -0.1689 C   0  0  0  0  0  0  0  0  0  0  0  0
    2.6725    1.3171    0.3649 C   0  0  0  0  0  0  0  0  0  0  0  0
    4.5081    2.5499    2.3310 H   0  0  0  0  0  0  0  0  0  0  0  0
    5.3388    2.5496    0.7107 H   0  0  0  0  0  0  0  0  0  0  0  0
    5.3317    4.0376    1.7299 H   0  0  0  0  0  0  0  0  0  0  0  0
    1.2961    4.3762   -0.3280 H   0  0  0  0  0  0  0  0  0  0  0  0
   -0.5154    2.9378   -1.2324 H   0  0  0  0  0  0  0  0  0  0  0  0
   -1.9957   -0.4250    0.8751 H   0  0  0  0  0  0  0  0  0  0  0  0
   -4.0458   -1.3195    1.8891 H   0  0  0  0  0  0  0  0  0  0  0  0
   -6.1099   -0.8980   -1.8561 H   0  0  0  0  0  0  0  0  0  0  0  0
   -4.0649   -0.0154   -2.8979 H   0  0  0  0  0  0  0  0  0  0  0  0
    0.3627   -3.1104   -1.4164 H   0  0  0  0  0  0  0  0  0  0  0  0
   -1.1840   -2.3182   -1.8372 H   0  0  0  0  0  0  0  0  0  0  0  0
   -0.8432   -2.7548   -0.1152 H   0  0  0  0  0  0  0  0  0  0  0  0
    2.3260   -2.8177   -0.1904 H   0  0  0  0  0  0  0  0  0  0  0  0
    3.4467   -1.5259    0.3187 H   0  0  0  0  0  0  0  0  0  0  0  0
    0.7714   -3.2300    3.0715 H   0  0  0  0  0  0  0  0  0  0  0  0
    3.5335    0.8440    0.8158 H   0  0  0  0  0  0  0  0  0  0  0  0
  1  2  1  0
  2  3  1  0
  3  4  2  0
  4  5  1  0
  5  6  2  0
  6  7  1  0
  7  8  1  0
  8  9  2  0
  8 10  1  0
 10 11  2  0
 11 12  1  0
 12 13  2  0
 13 14  1  0
 13 15  1  0
 15 16  2  0
  7 17  1  0
 17 18  1  0
 17 19  2  0
 19 20  1  0
 20 21  1  0
 21 22  1  0
 21 23  2  0
 19 24  1  0
 24 25  2  0
 25  3  1  0
 24  6  1  0
 16 10  1  0
  1 26  1  0
  1 27  1  0
  1 28  1  0
  4 29  1  0
  5 30  1  0
 11 31  1  0
 12 32  1  0
 15 33  1  0
 16 34  1  0
 18 35  1  0
 18 36  1  0
 18 37  1  0
 20 38  1  0
 20 39  1  0
 22 40  1  0
 25 41  1  0
M  END
$$$$
