
     RDKit          3D

 35 38  0  0  0  0  0  0  0  0999 V2000
    1.1548   -1.8784    0.7179 C   0  0  2  0  0  0  0  0  0  0  0  0
    2.2287   -1.1365    1.5396 C   0  0  0  0  0  0  0  0  0  0  0  0
    2.8371    0.0165    0.7759 C   0  0  0  0  0  0  0  0  0  0  0  0
    3.0113   -0.0811   -0.6198 C   0  0  0  0  0  0  0  0  0  0  0  0
    2.5234   -1.2322   -1.3224 N   0  0  0  0  0  0  0  0  0  0  0  0
    1.6780   -2.1791   -0.6610 C   0  0  0  0  0  0  0  0  0  0  0  0
    1.3282   -3.2332   -1.2556 O   0  0  0  0  0  0  0  0  0  0  0  0
    3.6529    0.9528   -1.3162 C   0  0  0  0  0  0  0  0  0  0  0  0
    4.1186    2.0779   -0.6301 C   0  0  0  0  0  0  0  0  0  0  0  0
    3.9539    2.1726    0.7543 C   0  0  0  0  0  0  0  0  0  0  0  0
    3.3235    1.1424    1.4581 C   0  0  0  0  0  0  0  0  0  0  0  0
   -0.0655   -1.0708    0.6143 N   0  0  0  0  0  0  0  0  0  0  0  0
   -1.3286   -1.6431    0.2364 C   0  0  0  0  0  0  0  0  0  0  0  0
   -1.4278   -2.8892    0.0710 O   0  0  0  0  0  0  0  0  0  0  0  0
   -2.5245   -0.7996    0.0390 C   0  0  0  0  0  0  0  0  0  0  0  0
   -2.5703    0.6050    0.1290 C   0  0  0  0  0  0  0  0  0  0  0  0
   -3.8825    0.9116   -0.1412 C   0  0  0  0  0  0  0  0  0  0  0  0
   -4.5323   -0.2330   -0.3679 C   0  0  0  0  0  0  0  0  0  0  0  0
   -3.7477   -1.3111   -0.2716 N   0  0  0  0  0  0  0  0  0  0  0  0
   -6.1512    0.0047   -0.7196 S   0  0  0  0  0  0  0  0  0  0  0  0
   -5.9806    1.7028   -0.5620 C   0  0  0  0  0  0  0  0  0  0  0  0
   -7.2894    2.8449   -0.7809 Cl  0  0  0  0  0  0  0  0  0  0  0  0
   -4.6612    2.0554   -0.2387 C   0  0  0  0  0  0  0  0  0  0  0  0
    0.9230   -2.8291    1.2479 H   0  0  0  0  0  0  0  0  0  0  0  0
    3.0424   -1.8475    1.8010 H   0  0  0  0  0  0  0  0  0  0  0  0
    1.7778   -0.7795    2.4917 H   0  0  0  0  0  0  0  0  0  0  0  0
    2.7694   -1.3783   -2.3276 H   0  0  0  0  0  0  0  0  0  0  0  0
    3.7870    0.8883   -2.3886 H   0  0  0  0  0  0  0  0  0  0  0  0
    4.6107    2.8755   -1.1714 H   0  0  0  0  0  0  0  0  0  0  0  0
    4.3227    3.0416    1.2838 H   0  0  0  0  0  0  0  0  0  0  0  0
    3.2195    1.2198    2.5332 H   0  0  0  0  0  0  0  0  0  0  0  0
   -0.0065   -0.0460    0.8041 H   0  0  0  0  0  0  0  0  0  0  0  0
   -1.7723    1.3003    0.3490 H   0  0  0  0  0  0  0  0  0  0  0  0
   -4.0187   -2.3104   -0.4073 H   0  0  0  0  0  0  0  0  0  0  0  0
   -4.3041    3.0657   -0.0895 H   0  0  0  0  0  0  0  0  0  0  0  0
  1  2  1  0
  2  3  1  0
  3  4  2  0
  4  5  1  0
  5  6  1  0
  6  7  2  0
  4  8  1  0
  8  9  2  0
  9 10  1  0
 10 11  2  0
  1 12  1  0
 12 13  1  0
 13 14  2  0
 13 15  1  0
 15 16  2  0
 16 17  1  0
 17 18  2  0
 18 19  1  0
 18 20  1  0
 20 21  1  0
 21 22  1  0
 21 23  2  0
  6  1  1  0
 19 15  1  0
 11  3  1  0
 23 17  1  0
  1 24  1  1
  2 25  1  0
  2 26  1  0
  5 27  1  0
  8 28  1  0
  9 29  1  0
 10 30  1  0
 11 31  1  0
 12 32  1  0
 16 33  1  0
 19 34  1  0
 23 35  1  0
M  END
$$$$
