
     RDKit          3D

 37 39  0  0  0  0  0  0  0  0999 V2000
   -5.5381   -2.1352   -1.5440 C   0  0  0  0  0  0  0  0  0  0  0  0
   -4.2984   -1.3429   -1.3065 C   0  0  0  0  0  0  0  0  0  0  0  0
   -3.0644   -1.8854   -1.2535 N   0  0  0  0  0  0  0  0  0  0  0  0
   -2.1053   -0.9646   -0.9573 C   0  0  0  0  0  0  0  0  0  0  0  0
   -0.6699   -1.3753   -0.8530 C   0  0  0  0  0  0  0  0  0  0  0  0
   -2.5853    0.3407   -0.7446 C   0  0  0  0  0  0  0  0  0  0  0  0
   -4.2610    0.2951   -0.9513 S   0  0  0  0  0  0  0  0  0  0  0  0
   -1.8075    1.5569   -0.3951 C   0  0  0  0  0  0  0  0  0  0  0  0
   -2.4239    2.8161   -0.3359 C   0  0  0  0  0  0  0  0  0  0  0  0
   -1.6474    3.9301   -0.0212 C   0  0  0  0  0  0  0  0  0  0  0  0
   -0.3210    3.7857    0.2260 N   0  0  0  0  0  0  0  0  0  0  0  0
    0.2687    2.5624    0.1845 C   0  0  0  0  0  0  0  0  0  0  0  0
    1.6794    2.4489    0.4168 N   0  0  0  0  0  0  0  0  0  0  0  0
    2.3531    1.2012    0.6462 C   0  0  0  0  0  0  0  0  0  0  0  0
    3.6426    1.0076    0.1333 C   0  0  0  0  0  0  0  0  0  0  0  0
    4.3205   -0.1946    0.3559 C   0  0  0  0  0  0  0  0  0  0  0  0
    3.7171   -1.2261    1.0957 C   0  0  0  0  0  0  0  0  0  0  0  0
    2.4468   -1.0084    1.6558 C   0  0  0  0  0  0  0  0  0  0  0  0
    1.7707    0.1944    1.4327 C   0  0  0  0  0  0  0  0  0  0  0  0
    4.4654   -2.5049    1.3752 C   0  0  0  0  0  0  0  0  0  0  0  0
    3.5849   -3.5622    1.5275 F   0  0  0  0  0  0  0  0  0  0  0  0
    5.1990   -2.3584    2.5375 F   0  0  0  0  0  0  0  0  0  0  0  0
    5.3258   -2.8056    0.3334 F   0  0  0  0  0  0  0  0  0  0  0  0
   -0.4754    1.4674   -0.1327 N   0  0  0  0  0  0  0  0  0  0  0  0
   -6.2907   -1.5122   -2.0709 H   0  0  0  0  0  0  0  0  0  0  0  0
   -5.3069   -3.0239   -2.1679 H   0  0  0  0  0  0  0  0  0  0  0  0
   -5.9549   -2.4691   -0.5713 H   0  0  0  0  0  0  0  0  0  0  0  0
   -0.5485   -2.4324   -1.1708 H   0  0  0  0  0  0  0  0  0  0  0  0
   -0.3342   -1.2869    0.1997 H   0  0  0  0  0  0  0  0  0  0  0  0
   -0.0395   -0.7418   -1.5111 H   0  0  0  0  0  0  0  0  0  0  0  0
   -3.4791    2.9445   -0.5376 H   0  0  0  0  0  0  0  0  0  0  0  0
   -2.0988    4.9123    0.0215 H   0  0  0  0  0  0  0  0  0  0  0  0
    2.2576    3.3155    0.3310 H   0  0  0  0  0  0  0  0  0  0  0  0
    4.1193    1.7874   -0.4474 H   0  0  0  0  0  0  0  0  0  0  0  0
    5.3174   -0.3167   -0.0488 H   0  0  0  0  0  0  0  0  0  0  0  0
    1.9794   -1.7654    2.2729 H   0  0  0  0  0  0  0  0  0  0  0  0
    0.8026    0.3457    1.8922 H   0  0  0  0  0  0  0  0  0  0  0  0
  1  2  1  0
  2  3  2  0
  3  4  1  0
  4  5  1  0
  4  6  2  0
  6  7  1  0
  6  8  1  0
  8  9  2  0
  9 10  1  0
 10 11  2  0
 11 12  1  0
 12 13  1  0
 13 14  1  0
 14 15  2  0
 15 16  1  0
 16 17  2  0
 17 18  1  0
 18 19  2  0
 17 20  1  0
 20 21  1  0
 20 22  1  0
 20 23  1  0
 12 24  2  0
  7  2  1  0
 24  8  1  0
 19 14  1  0
  1 25  1  0
  1 26  1  0
  1 27  1  0
  5 28  1  0
  5 29  1  0
  5 30  1  0
  9 31  1  0
 10 32  1  0
 13 33  1  0
 15 34  1  0
 16 35  1  0
 18 36  1  0
 19 37  1  0
M  END
$$$$
