
     RDKit          3D

 56 56  0  0  0  0  0  0  0  0999 V2000
   -0.8543    1.3674   -0.2081 C   0  0  2  0  0  0  0  0  0  0  0  0
   -1.8985    0.7243    0.7444 C   0  0  0  0  0  0  0  0  0  0  0  0
   -2.3065    1.6074    1.9500 C   0  0  0  0  0  0  0  0  0  0  0  0
   -1.1663    1.7452    2.9721 C   0  0  0  0  0  0  0  0  0  0  0  0
   -3.5431    1.0110    2.6355 C   0  0  0  0  0  0  0  0  0  0  0  0
   -1.3894    2.5829   -1.0004 C   0  0  0  0  0  0  0  0  0  0  0  0
   -2.5735    2.2560   -1.8681 C   0  0  0  0  0  0  0  0  0  0  0  0
   -2.3901    1.7865   -3.0234 O   0  0  0  0  0  0  0  0  0  0  0  0
   -3.9044    2.4535   -1.3832 N   0  0  0  0  0  0  0  0  0  0  0  0
   -4.9721    2.1285   -2.1505 O   0  0  0  0  0  0  0  0  0  0  0  0
   -0.2768    0.3377   -1.1514 C   0  0  0  0  0  0  0  0  0  0  0  0
   -1.0143   -0.5711   -1.6226 O   0  0  0  0  0  0  0  0  0  0  0  0
    1.1067    0.4219   -1.5347 N   0  0  0  0  0  0  0  0  0  0  0  0
    1.8586   -0.6598   -2.1894 C   0  0  1  0  0  0  0  0  0  0  0  0
    1.7535   -1.9913   -1.4132 C   0  0  0  0  0  0  0  0  0  0  0  0
    2.0197   -1.8047    0.0610 C   0  0  0  0  0  0  0  0  0  0  0  0
    3.3061   -1.4732    0.5130 C   0  0  0  0  0  0  0  0  0  0  0  0
    3.5367   -1.2335    1.8708 C   0  0  0  0  0  0  0  0  0  0  0  0
    2.4902   -1.3184    2.7966 C   0  0  0  0  0  0  0  0  0  0  0  0
    2.7687   -1.0511    4.1451 O   0  0  0  0  0  0  0  0  0  0  0  0
    1.7971   -1.0747    5.1858 C   0  0  0  0  0  0  0  0  0  0  0  0
    1.2023   -1.6648    2.3465 C   0  0  0  0  0  0  0  0  0  0  0  0
    0.9730   -1.9106    0.9903 C   0  0  0  0  0  0  0  0  0  0  0  0
    1.4473   -0.8323   -3.6316 C   0  0  0  0  0  0  0  0  0  0  0  0
    0.3874   -0.3012   -4.0633 O   0  0  0  0  0  0  0  0  0  0  0  0
    2.2678   -1.6069   -4.5159 N   0  0  0  0  0  0  0  0  0  0  0  0
    1.9004   -1.8270   -5.9089 C   0  0  0  0  0  0  0  0  0  0  0  0
   -0.0089    1.7303    0.4114 H   0  0  0  0  0  0  0  0  0  0  0  0
   -1.4904   -0.2317    1.1394 H   0  0  0  0  0  0  0  0  0  0  0  0
   -2.8028    0.4532    0.1579 H   0  0  0  0  0  0  0  0  0  0  0  0
   -2.5865    2.6220    1.5997 H   0  0  0  0  0  0  0  0  0  0  0  0
   -0.8005    0.7459    3.2919 H   0  0  0  0  0  0  0  0  0  0  0  0
   -1.5191    2.2966    3.8697 H   0  0  0  0  0  0  0  0  0  0  0  0
   -0.3204    2.3226    2.5479 H   0  0  0  0  0  0  0  0  0  0  0  0
   -3.8591    1.6509    3.4870 H   0  0  0  0  0  0  0  0  0  0  0  0
   -4.3905    0.9559    1.9190 H   0  0  0  0  0  0  0  0  0  0  0  0
   -3.3260   -0.0109    3.0151 H   0  0  0  0  0  0  0  0  0  0  0  0
   -0.5752    2.9820   -1.6447 H   0  0  0  0  0  0  0  0  0  0  0  0
   -1.6539    3.4068   -0.3061 H   0  0  0  0  0  0  0  0  0  0  0  0
   -4.0644    2.8634   -0.4361 H   0  0  0  0  0  0  0  0  0  0  0  0
   -5.1828    1.1909   -1.9072 H   0  0  0  0  0  0  0  0  0  0  0  0
    1.6433    1.2726   -1.2504 H   0  0  0  0  0  0  0  0  0  0  0  0
    2.9316   -0.3648   -2.2006 H   0  0  0  0  0  0  0  0  0  0  0  0
    0.7533   -2.4494   -1.5726 H   0  0  0  0  0  0  0  0  0  0  0  0
    2.4968   -2.7124   -1.8177 H   0  0  0  0  0  0  0  0  0  0  0  0
    4.1272   -1.3880   -0.1878 H   0  0  0  0  0  0  0  0  0  0  0  0
    4.5325   -0.9706    2.2047 H   0  0  0  0  0  0  0  0  0  0  0  0
    1.0023   -0.3260    4.9830 H   0  0  0  0  0  0  0  0  0  0  0  0
    1.3538   -2.0892    5.2717 H   0  0  0  0  0  0  0  0  0  0  0  0
    2.2887   -0.8194    6.1467 H   0  0  0  0  0  0  0  0  0  0  0  0
    0.3715   -1.7423    3.0344 H   0  0  0  0  0  0  0  0  0  0  0  0
   -0.0256   -2.1718    0.6637 H   0  0  0  0  0  0  0  0  0  0  0  0
    3.1559   -2.0256   -4.1584 H   0  0  0  0  0  0  0  0  0  0  0  0
    2.6715   -2.4505   -6.4085 H   0  0  0  0  0  0  0  0  0  0  0  0
    0.9238   -2.3527   -5.9619 H   0  0  0  0  0  0  0  0  0  0  0  0
    1.8279   -0.8533   -6.4376 H   0  0  0  0  0  0  0  0  0  0  0  0
  1  2  1  0
  2  3  1  0
  3  4  1  0
  3  5  1  0
  1  6  1  0
  6  7  1  0
  7  8  2  0
  7  9  1  0
  9 10  1  0
  1 11  1  0
 11 12  2  0
 11 13  1  0
 13 14  1  0
 14 15  1  0
 15 16  1  0
 16 17  2  0
 17 18  1  0
 18 19  2  0
 19 20  1  0
 20 21  1  0
 19 22  1  0
 22 23  2  0
 14 24  1  0
 24 25  2  0
 24 26  1  0
 26 27  1  0
 23 16  1  0
  1 28  1  1
  2 29  1  0
  2 30  1  0
  3 31  1  0
  4 32  1  0
  4 33  1  0
  4 34  1  0
  5 35  1  0
  5 36  1  0
  5 37  1  0
  6 38  1  0
  6 39  1  0
  9 40  1  0
 10 41  1  0
 13 42  1  0
 14 43  1  6
 15 44  1  0
 15 45  1  0
 17 46  1  0
 18 47  1  0
 21 48  1  0
 21 49  1  0
 21 50  1  0
 22 51  1  0
 23 52  1  0
 26 53  1  0
 27 54  1  0
 27 55  1  0
 27 56  1  0
M  END
$$$$
