
     RDKit          3D

 84 86  0  0  0  0  0  0  0  0999 V2000
    1.5447   -0.1852    2.6584 N   0  0  0  0  0  0  0  0  0  0  0  0
    2.4947   -1.0942    2.0178 C   0  0  0  0  0  0  0  0  0  0  0  0
    3.8608   -0.4227    1.8430 C   0  0  0  0  0  0  0  0  0  0  0  0
    3.8056    0.7502    0.8524 C   0  0  0  0  0  0  0  0  0  0  0  0
    5.1939    1.3573    0.6178 C   0  0  0  0  0  0  0  0  0  0  0  0
    6.0899    0.3991    0.0522 O   0  0  0  0  0  0  0  0  0  0  0  0
    6.0495   -0.0920   -1.2660 C   0  0  0  0  0  0  0  0  0  0  0  0
    5.2188    0.4839   -2.2470 C   0  0  0  0  0  0  0  0  0  0  0  0
    5.1765   -0.0436   -3.5362 C   0  0  0  0  0  0  0  0  0  0  0  0
    5.9741   -1.1343   -3.8731 C   0  0  0  0  0  0  0  0  0  0  0  0
    6.8288   -1.7083   -2.9279 C   0  0  0  0  0  0  0  0  0  0  0  0
    7.6532   -2.7556   -3.3458 O   0  0  0  0  0  0  0  0  0  0  0  0
    6.8585   -1.2013   -1.6052 C   0  0  0  0  0  0  0  0  0  0  0  0
    7.6859   -1.8444   -0.5618 C   0  0  0  0  0  0  0  0  0  0  0  0
    8.3556   -1.1335    0.2372 O   0  0  0  0  0  0  0  0  0  0  0  0
    7.6929   -3.2376   -0.4403 O   0  0  0  0  0  0  0  0  0  0  0  0
    8.4537   -3.9172    0.5507 C   0  0  0  0  0  0  0  0  0  0  0  0
    0.5457    0.5406    1.9263 C   0  0  0  0  0  0  0  0  0  0  0  0
    0.3951    0.3363    0.6902 O   0  0  0  0  0  0  0  0  0  0  0  0
   -0.3666    1.5011    2.6529 C   0  0  2  0  0  0  0  0  0  0  0  0
   -1.6215    0.7821    3.1877 C   0  0  0  0  0  0  0  0  0  0  0  0
   -2.5267    0.2882    2.0849 C   0  0  0  0  0  0  0  0  0  0  0  0
   -3.5118    1.1308    1.5464 C   0  0  0  0  0  0  0  0  0  0  0  0
   -4.3193    0.6911    0.4948 C   0  0  0  0  0  0  0  0  0  0  0  0
   -4.1494   -0.5962   -0.0424 C   0  0  0  0  0  0  0  0  0  0  0  0
   -3.1741   -1.4435    0.5084 C   0  0  0  0  0  0  0  0  0  0  0  0
   -2.3668   -1.0038    1.5605 C   0  0  0  0  0  0  0  0  0  0  0  0
   -4.9786   -1.0565   -1.1295 N   0  0  0  0  0  0  0  0  0  0  0  0
   -5.3637   -0.1801   -2.2105 C   0  0  0  0  0  0  0  0  0  0  0  0
   -6.5064   -0.2986   -2.7302 O   0  0  0  0  0  0  0  0  0  0  0  0
   -4.4416    0.8331   -2.7555 C   0  0  0  0  0  0  0  0  0  0  0  0
   -4.9037    1.7520   -3.6927 O   0  0  0  0  0  0  0  0  0  0  0  0
   -3.2330    0.8604   -2.3998 O   0  0  0  0  0  0  0  0  0  0  0  0
   -5.5942   -2.3544   -1.0334 C   0  0  0  0  0  0  0  0  0  0  0  0
   -6.4898   -2.6015    0.0199 C   0  0  0  0  0  0  0  0  0  0  0  0
   -7.1625   -3.8203    0.1087 C   0  0  0  0  0  0  0  0  0  0  0  0
   -6.9511   -4.8054   -0.8545 C   0  0  0  0  0  0  0  0  0  0  0  0
   -6.0553   -4.5811   -1.9020 C   0  0  0  0  0  0  0  0  0  0  0  0
   -5.3548   -3.3636   -2.0010 C   0  0  0  0  0  0  0  0  0  0  0  0
   -4.3589   -3.1927   -3.0864 C   0  0  0  0  0  0  0  0  0  0  0  0
   -3.3110   -2.2864   -2.9531 O   0  0  0  0  0  0  0  0  0  0  0  0
   -4.4347   -3.8945   -4.1312 O   0  0  0  0  0  0  0  0  0  0  0  0
   -0.7364    2.6371    1.7982 N   0  0  0  0  0  0  0  0  0  0  0  0
   -1.2001    3.8812    2.3345 C   0  0  0  0  0  0  0  0  0  0  0  0
   -1.1756    4.0891    3.5790 O   0  0  0  0  0  0  0  0  0  0  0  0
   -1.6891    4.8577    1.4632 O   0  0  0  0  0  0  0  0  0  0  0  0
   -2.2053    6.1046    1.9169 C   0  0  0  0  0  0  0  0  0  0  0  0
   -2.6863    6.9061    0.7458 C   0  0  0  0  0  0  0  0  0  0  0  0
   -3.7028    6.4866   -0.0124 C   0  0  0  0  0  0  0  0  0  0  0  0
    1.6600    0.0023    3.6800 H   0  0  0  0  0  0  0  0  0  0  0  0
    2.1120   -1.4504    1.0368 H   0  0  0  0  0  0  0  0  0  0  0  0
    2.6180   -1.9899    2.6635 H   0  0  0  0  0  0  0  0  0  0  0  0
    4.2250   -0.0643    2.8308 H   0  0  0  0  0  0  0  0  0  0  0  0
    4.5758   -1.1883    1.4706 H   0  0  0  0  0  0  0  0  0  0  0  0
    3.3772    0.4054   -0.1123 H   0  0  0  0  0  0  0  0  0  0  0  0
    3.1437    1.5461    1.2560 H   0  0  0  0  0  0  0  0  0  0  0  0
    5.6092    1.6934    1.5916 H   0  0  0  0  0  0  0  0  0  0  0  0
    5.1251    2.2574   -0.0286 H   0  0  0  0  0  0  0  0  0  0  0  0
    4.5938    1.3367   -2.0257 H   0  0  0  0  0  0  0  0  0  0  0  0
    4.5285    0.4010   -4.2807 H   0  0  0  0  0  0  0  0  0  0  0  0
    5.9450   -1.5243   -4.8828 H   0  0  0  0  0  0  0  0  0  0  0  0
    8.3947   -3.1402   -2.7761 H   0  0  0  0  0  0  0  0  0  0  0  0
    8.2974   -5.0102    0.4441 H   0  0  0  0  0  0  0  0  0  0  0  0
    8.1245   -3.6034    1.5640 H   0  0  0  0  0  0  0  0  0  0  0  0
    9.5337   -3.6935    0.4203 H   0  0  0  0  0  0  0  0  0  0  0  0
    0.1998    1.8919    3.5269 H   0  0  0  0  0  0  0  0  0  0  0  0
   -1.3121   -0.0697    3.8330 H   0  0  0  0  0  0  0  0  0  0  0  0
   -2.1874    1.4772    3.8455 H   0  0  0  0  0  0  0  0  0  0  0  0
   -3.6524    2.1304    1.9386 H   0  0  0  0  0  0  0  0  0  0  0  0
   -5.0801    1.3533    0.1016 H   0  0  0  0  0  0  0  0  0  0  0  0
   -3.0288   -2.4398    0.1104 H   0  0  0  0  0  0  0  0  0  0  0  0
   -1.6089   -1.6668    1.9593 H   0  0  0  0  0  0  0  0  0  0  0  0
   -4.2838    2.4504   -4.0852 H   0  0  0  0  0  0  0  0  0  0  0  0
   -6.6794   -1.8360    0.7620 H   0  0  0  0  0  0  0  0  0  0  0  0
   -7.8554   -3.9978    0.9210 H   0  0  0  0  0  0  0  0  0  0  0  0
   -7.4767   -5.7491   -0.7856 H   0  0  0  0  0  0  0  0  0  0  0  0
   -5.8939   -5.3717   -2.6244 H   0  0  0  0  0  0  0  0  0  0  0  0
   -2.6243   -2.1716   -3.6887 H   0  0  0  0  0  0  0  0  0  0  0  0
   -0.7891    2.5158    0.7616 H   0  0  0  0  0  0  0  0  0  0  0  0
   -3.0481    5.9340    2.6220 H   0  0  0  0  0  0  0  0  0  0  0  0
   -1.4048    6.6685    2.4424 H   0  0  0  0  0  0  0  0  0  0  0  0
   -2.2023    7.8500    0.5131 H   0  0  0  0  0  0  0  0  0  0  0  0
   -4.0359    7.0851   -0.8540 H   0  0  0  0  0  0  0  0  0  0  0  0
   -4.2068    5.5481    0.1994 H   0  0  0  0  0  0  0  0  0  0  0  0
  1  2  1  0
  2  3  1  0
  3  4  1  0
  4  5  1  0
  5  6  1  0
  6  7  1  0
  7  8  2  0
  8  9  1  0
  9 10  2  0
 10 11  1  0
 11 12  1  0
 11 13  2  0
 13 14  1  0
 14 15  2  0
 14 16  1  0
 16 17  1  0
  1 18  1  0
 18 19  2  0
 18 20  1  0
 20 21  1  0
 21 22  1  0
 22 23  2  0
 23 24  1  0
 24 25  2  0
 25 26  1  0
 26 27  2  0
 25 28  1  0
 28 29  1  0
 29 30  2  0
 29 31  1  0
 31 32  1  0
 31 33  2  0
 28 34  1  0
 34 35  2  0
 35 36  1  0
 36 37  2  0
 37 38  1  0
 38 39  2  0
 39 40  1  0
 40 41  1  0
 40 42  2  0
 20 43  1  0
 43 44  1  0
 44 45  2  0
 44 46  1  0
 46 47  1  0
 47 48  1  0
 48 49  2  3
 13  7  1  0
 27 22  1  0
 39 34  1  0
  1 50  1  0
  2 51  1  0
  2 52  1  0
  3 53  1  0
  3 54  1  0
  4 55  1  0
  4 56  1  0
  5 57  1  0
  5 58  1  0
  8 59  1  0
  9 60  1  0
 10 61  1  0
 12 62  1  0
 17 63  1  0
 17 64  1  0
 17 65  1  0
 20 66  1  1
 21 67  1  0
 21 68  1  0
 23 69  1  0
 24 70  1  0
 26 71  1  0
 27 72  1  0
 32 73  1  0
 35 74  1  0
 36 75  1  0
 37 76  1  0
 38 77  1  0
 41 78  1  0
 43 79  1  0
 47 80  1  0
 47 81  1  0
 48 82  1  0
 49 83  1  0
 49 84  1  0
M  END
$$$$
