
     RDKit          3D

 58 57  0  0  0  0  0  0  0  0999 V2000
   -3.4062   -1.6593    0.1192 C   0  0  0  0  0  0  0  0  0  0  0  0
   -2.2450   -2.6162    0.1626 C   0  0  0  0  0  0  0  0  0  0  0  0
   -1.7707   -3.0002   -1.2481 C   0  0  0  0  0  0  0  0  0  0  0  0
   -1.2890   -1.8118   -2.1008 C   0  0  0  0  0  0  0  0  0  0  0  0
   -0.0240   -1.1481   -1.5376 C   0  0  0  0  0  0  0  0  0  0  0  0
    0.4858   -0.0502   -2.4831 C   0  0  0  0  0  0  0  0  0  0  0  0
    1.7824    0.6039   -1.9794 C   0  0  0  0  0  0  0  0  0  0  0  0
    1.5384    1.5739   -0.8098 C   0  0  0  0  0  0  0  0  0  0  0  0
    2.8284    2.2955   -0.3635 C   0  0  0  0  0  0  0  0  0  0  0  0
    3.4390    1.7264    0.9314 C   0  0  0  0  0  0  0  0  0  0  0  0
    4.0022    0.2984    0.8086 C   0  0  0  0  0  0  0  0  0  0  0  0
    5.1596    0.1369   -0.1988 C   0  0  0  0  0  0  0  0  0  0  0  0
    6.3864    1.0252    0.0720 C   0  0  0  0  0  0  0  0  0  0  0  0
    7.0383    0.7472    1.4258 C   0  0  0  0  0  0  0  0  0  0  0  0
   -3.2688   -0.3705    0.4739 C   0  0  0  0  0  0  0  0  0  0  0  0
   -4.3979    0.6417    0.4010 C   0  0  1  0  0  0  0  0  0  0  0  0
   -4.8782    0.7936   -0.9132 O   0  0  0  0  0  0  0  0  0  0  0  0
   -5.5508    0.3839    1.4112 C   0  0  1  0  0  0  0  0  0  0  0  0
   -6.2328   -0.8859    1.1387 N   0  0  0  0  0  0  0  0  0  0  0  0
   -5.0232    0.4086    2.8621 C   0  0  0  0  0  0  0  0  0  0  0  0
   -6.0839    0.3905    3.7795 O   0  0  0  0  0  0  0  0  0  0  0  0
   -4.3520   -2.0301   -0.2609 H   0  0  0  0  0  0  0  0  0  0  0  0
   -2.5820   -3.5384    0.6820 H   0  0  0  0  0  0  0  0  0  0  0  0
   -1.4010   -2.2097    0.7598 H   0  0  0  0  0  0  0  0  0  0  0  0
   -2.6079   -3.5010   -1.7821 H   0  0  0  0  0  0  0  0  0  0  0  0
   -0.9493   -3.7443   -1.1606 H   0  0  0  0  0  0  0  0  0  0  0  0
   -2.0999   -1.0579   -2.1985 H   0  0  0  0  0  0  0  0  0  0  0  0
   -1.0698   -2.1944   -3.1217 H   0  0  0  0  0  0  0  0  0  0  0  0
    0.7681   -1.9171   -1.4030 H   0  0  0  0  0  0  0  0  0  0  0  0
   -0.2560   -0.7008   -0.5510 H   0  0  0  0  0  0  0  0  0  0  0  0
   -0.2993    0.7248   -2.6256 H   0  0  0  0  0  0  0  0  0  0  0  0
    0.6933   -0.5044   -3.4769 H   0  0  0  0  0  0  0  0  0  0  0  0
    2.5054   -0.1861   -1.6919 H   0  0  0  0  0  0  0  0  0  0  0  0
    2.2292    1.1732   -2.8238 H   0  0  0  0  0  0  0  0  0  0  0  0
    1.0788    1.0421    0.0493 H   0  0  0  0  0  0  0  0  0  0  0  0
    0.8061    2.3415   -1.1446 H   0  0  0  0  0  0  0  0  0  0  0  0
    2.5691    3.3571   -0.1567 H   0  0  0  0  0  0  0  0  0  0  0  0
    3.5852    2.3249   -1.1757 H   0  0  0  0  0  0  0  0  0  0  0  0
    4.2369    2.4114    1.2865 H   0  0  0  0  0  0  0  0  0  0  0  0
    2.6608    1.7293    1.7256 H   0  0  0  0  0  0  0  0  0  0  0  0
    3.1825   -0.3963    0.5301 H   0  0  0  0  0  0  0  0  0  0  0  0
    4.3458   -0.0318    1.8117 H   0  0  0  0  0  0  0  0  0  0  0  0
    4.7949    0.3433   -1.2259 H   0  0  0  0  0  0  0  0  0  0  0  0
    5.4819   -0.9272   -0.1906 H   0  0  0  0  0  0  0  0  0  0  0  0
    7.1382    0.8253   -0.7220 H   0  0  0  0  0  0  0  0  0  0  0  0
    6.1166    2.0993   -0.0034 H   0  0  0  0  0  0  0  0  0  0  0  0
    7.2539   -0.3365    1.5384 H   0  0  0  0  0  0  0  0  0  0  0  0
    7.9942    1.3076    1.4970 H   0  0  0  0  0  0  0  0  0  0  0  0
    6.3801    1.0832    2.2538 H   0  0  0  0  0  0  0  0  0  0  0  0
   -2.3018   -0.0163    0.8210 H   0  0  0  0  0  0  0  0  0  0  0  0
   -3.9516    1.6224    0.6765 H   0  0  0  0  0  0  0  0  0  0  0  0
   -5.1730   -0.0917   -1.2463 H   0  0  0  0  0  0  0  0  0  0  0  0
   -6.2838    1.2162    1.3011 H   0  0  0  0  0  0  0  0  0  0  0  0
   -6.9684   -1.0394    1.8658 H   0  0  0  0  0  0  0  0  0  0  0  0
   -6.7572   -0.7949    0.2391 H   0  0  0  0  0  0  0  0  0  0  0  0
   -4.3846   -0.4819    3.0447 H   0  0  0  0  0  0  0  0  0  0  0  0
   -4.3956    1.3133    3.0330 H   0  0  0  0  0  0  0  0  0  0  0  0
   -6.4781    1.3017    3.7765 H   0  0  0  0  0  0  0  0  0  0  0  0
  1  2  1  0
  2  3  1  0
  3  4  1  0
  4  5  1  0
  5  6  1  0
  6  7  1  0
  7  8  1  0
  8  9  1  0
  9 10  1  0
 10 11  1  0
 11 12  1  0
 12 13  1  0
 13 14  1  0
  1 15  2  0
 15 16  1  0
 16 17  1  0
 16 18  1  0
 18 19  1  0
 18 20  1  0
 20 21  1  0
  1 22  1  0
  2 23  1  0
  2 24  1  0
  3 25  1  0
  3 26  1  0
  4 27  1  0
  4 28  1  0
  5 29  1  0
  5 30  1  0
  6 31  1  0
  6 32  1  0
  7 33  1  0
  7 34  1  0
  8 35  1  0
  8 36  1  0
  9 37  1  0
  9 38  1  0
 10 39  1  0
 10 40  1  0
 11 41  1  0
 11 42  1  0
 12 43  1  0
 12 44  1  0
 13 45  1  0
 13 46  1  0
 14 47  1  0
 14 48  1  0
 14 49  1  0
 15 50  1  0
 16 51  1  1
 17 52  1  0
 18 53  1  1
 19 54  1  0
 19 55  1  0
 20 56  1  0
 20 57  1  0
 21 58  1  0
M  END
$$$$
