
     RDKit          3D

 31 31  0  0  0  0  0  0  0  0999 V2000
   -5.1763   -0.3218   -0.0690 C   0  0  0  0  0  0  0  0  0  0  0  0
   -3.7374   -0.4613   -0.5571 C   0  0  0  0  0  0  0  0  0  0  0  0
   -2.7426    0.0114    0.5091 C   0  0  0  0  0  0  0  0  0  0  0  0
   -1.2984   -0.1300    0.0149 C   0  0  0  0  0  0  0  0  0  0  0  0
   -0.3023    0.3383    1.0824 C   0  0  0  0  0  0  0  0  0  0  0  0
    1.1174    0.2167    0.5811 C   0  0  0  0  0  0  0  0  0  0  0  0
    1.8544   -0.9347    0.9089 C   0  0  0  0  0  0  0  0  0  0  0  0
    3.1653   -1.0950    0.4564 C   0  0  0  0  0  0  0  0  0  0  0  0
    3.7673   -0.1050   -0.3296 C   0  0  0  0  0  0  0  0  0  0  0  0
    5.1624   -0.2955   -0.8470 C   0  0  0  0  0  0  0  0  0  0  0  0
    3.0290    1.0301   -0.6911 C   0  0  0  0  0  0  0  0  0  0  0  0
    1.7118    1.2003   -0.2476 C   0  0  0  0  0  0  0  0  0  0  0  0
    1.0287    2.3488   -0.6547 O   0  0  0  0  0  0  0  0  0  0  0  0
   -5.4044    0.7407    0.1614 H   0  0  0  0  0  0  0  0  0  0  0  0
   -5.8727   -0.6709   -0.8603 H   0  0  0  0  0  0  0  0  0  0  0  0
   -5.3363   -0.9375    0.8418 H   0  0  0  0  0  0  0  0  0  0  0  0
   -3.6114    0.1432   -1.4818 H   0  0  0  0  0  0  0  0  0  0  0  0
   -3.5435   -1.5279   -0.8044 H   0  0  0  0  0  0  0  0  0  0  0  0
   -2.9446    1.0778    0.7535 H   0  0  0  0  0  0  0  0  0  0  0  0
   -2.8770   -0.5949    1.4321 H   0  0  0  0  0  0  0  0  0  0  0  0
   -1.0954   -1.1961   -0.2304 H   0  0  0  0  0  0  0  0  0  0  0  0
   -1.1667    0.4725   -0.9103 H   0  0  0  0  0  0  0  0  0  0  0  0
   -0.4343   -0.2802    1.9978 H   0  0  0  0  0  0  0  0  0  0  0  0
   -0.5163    1.3840    1.3881 H   0  0  0  0  0  0  0  0  0  0  0  0
    1.4118   -1.7146    1.5166 H   0  0  0  0  0  0  0  0  0  0  0  0
    3.7108   -1.9930    0.7195 H   0  0  0  0  0  0  0  0  0  0  0  0
    5.1250   -0.8184   -1.8254 H   0  0  0  0  0  0  0  0  0  0  0  0
    5.6685    0.6845   -0.9788 H   0  0  0  0  0  0  0  0  0  0  0  0
    5.7654   -0.8997   -0.1360 H   0  0  0  0  0  0  0  0  0  0  0  0
    3.4756    1.7859   -1.3262 H   0  0  0  0  0  0  0  0  0  0  0  0
    0.0660    2.5423   -0.4141 H   0  0  0  0  0  0  0  0  0  0  0  0
  1  2  1  0
  2  3  1  0
  3  4  1  0
  4  5  1  0
  5  6  1  0
  6  7  2  0
  7  8  1  0
  8  9  2  0
  9 10  1  0
  9 11  1  0
 11 12  2  0
 12 13  1  0
 12  6  1  0
  1 14  1  0
  1 15  1  0
  1 16  1  0
  2 17  1  0
  2 18  1  0
  3 19  1  0
  3 20  1  0
  4 21  1  0
  4 22  1  0
  5 23  1  0
  5 24  1  0
  7 25  1  0
  8 26  1  0
 10 27  1  0
 10 28  1  0
 10 29  1  0
 11 30  1  0
 13 31  1  0
M  END
$$$$
