
     RDKit          3D

 50 52  0  0  0  0  0  0  0  0999 V2000
    6.6395    0.9209   -2.4330 O   0  0  0  0  0  0  0  0  0  0  0  0
    6.5546    1.0362   -1.0384 C   0  0  0  0  0  0  0  0  0  0  0  0
    5.3054    0.3324   -0.5176 C   0  0  0  0  0  0  0  0  0  0  0  0
    4.1441    0.9228   -1.0967 O   0  0  0  0  0  0  0  0  0  0  0  0
    2.8295    0.5147   -0.8281 C   0  0  0  0  0  0  0  0  0  0  0  0
    1.7816    1.1845   -1.4695 C   0  0  0  0  0  0  0  0  0  0  0  0
    0.4543    0.8175   -1.2339 C   0  0  0  0  0  0  0  0  0  0  0  0
    0.1539   -0.2223   -0.3388 C   0  0  0  0  0  0  0  0  0  0  0  0
    1.2035   -0.9064    0.2932 C   0  0  0  0  0  0  0  0  0  0  0  0
    2.5313   -0.5393    0.0564 C   0  0  0  0  0  0  0  0  0  0  0  0
   -1.2535   -0.6224   -0.0857 C   0  0  0  0  0  0  0  0  0  0  0  0
   -2.1952    0.2748    0.3186 C   0  0  0  0  0  0  0  0  0  0  0  0
   -3.6617   -0.0955    0.4514 C   0  0  0  0  0  0  0  0  0  0  0  0
   -4.0454   -0.2944    1.9171 C   0  0  0  0  0  0  0  0  0  0  0  0
   -5.7599   -0.7604    2.0432 Cl  0  0  0  0  0  0  0  0  0  0  0  0
   -1.8126    1.6529    0.7197 C   0  0  0  0  0  0  0  0  0  0  0  0
   -2.3565    2.7640    0.0540 C   0  0  0  0  0  0  0  0  0  0  0  0
   -1.9929    4.0596    0.4338 C   0  0  0  0  0  0  0  0  0  0  0  0
   -1.0897    4.2553    1.4822 C   0  0  0  0  0  0  0  0  0  0  0  0
   -0.5497    3.1557    2.1543 C   0  0  0  0  0  0  0  0  0  0  0  0
   -0.9108    1.8587    1.7784 C   0  0  0  0  0  0  0  0  0  0  0  0
   -1.5915   -2.0373   -0.3487 C   0  0  0  0  0  0  0  0  0  0  0  0
   -1.7901   -2.9312    0.7150 C   0  0  0  0  0  0  0  0  0  0  0  0
   -2.1004   -4.2699    0.4578 C   0  0  0  0  0  0  0  0  0  0  0  0
   -2.2045   -4.7240   -0.8603 C   0  0  0  0  0  0  0  0  0  0  0  0
   -1.9928   -3.8408   -1.9232 C   0  0  0  0  0  0  0  0  0  0  0  0
   -1.6824   -2.5012   -1.6697 C   0  0  0  0  0  0  0  0  0  0  0  0
    6.9428   -0.0052   -2.6234 H   0  0  0  0  0  0  0  0  0  0  0  0
    7.4608    0.6037   -0.5568 H   0  0  0  0  0  0  0  0  0  0  0  0
    6.5069    2.1130   -0.7701 H   0  0  0  0  0  0  0  0  0  0  0  0
    5.3524   -0.7467   -0.7810 H   0  0  0  0  0  0  0  0  0  0  0  0
    5.2666    0.4380    0.5883 H   0  0  0  0  0  0  0  0  0  0  0  0
    1.9980    1.9919   -2.1575 H   0  0  0  0  0  0  0  0  0  0  0  0
   -0.3390    1.3404   -1.7536 H   0  0  0  0  0  0  0  0  0  0  0  0
    0.9935   -1.7161    0.9811 H   0  0  0  0  0  0  0  0  0  0  0  0
    3.3168   -1.0801    0.5660 H   0  0  0  0  0  0  0  0  0  0  0  0
   -3.9153   -1.0082   -0.1275 H   0  0  0  0  0  0  0  0  0  0  0  0
   -4.2877    0.7178    0.0271 H   0  0  0  0  0  0  0  0  0  0  0  0
   -3.8924    0.6482    2.4846 H   0  0  0  0  0  0  0  0  0  0  0  0
   -3.4275   -1.0925    2.3762 H   0  0  0  0  0  0  0  0  0  0  0  0
   -3.0460    2.6284   -0.7697 H   0  0  0  0  0  0  0  0  0  0  0  0
   -2.4091    4.9122   -0.0869 H   0  0  0  0  0  0  0  0  0  0  0  0
   -0.8089    5.2590    1.7740 H   0  0  0  0  0  0  0  0  0  0  0  0
    0.1475    3.3082    2.9679 H   0  0  0  0  0  0  0  0  0  0  0  0
   -0.4907    1.0148    2.3119 H   0  0  0  0  0  0  0  0  0  0  0  0
   -1.6906   -2.5951    1.7390 H   0  0  0  0  0  0  0  0  0  0  0  0
   -2.2548   -4.9566    1.2800 H   0  0  0  0  0  0  0  0  0  0  0  0
   -2.4437   -5.7608   -1.0579 H   0  0  0  0  0  0  0  0  0  0  0  0
   -2.0684   -4.1946   -2.9433 H   0  0  0  0  0  0  0  0  0  0  0  0
   -1.5196   -1.8244   -2.4997 H   0  0  0  0  0  0  0  0  0  0  0  0
  1  2  1  0
  2  3  1  0
  3  4  1  0
  4  5  1  0
  5  6  2  0
  6  7  1  0
  7  8  2  0
  8  9  1  0
  9 10  2  0
  8 11  1  0
 11 12  2  0
 12 13  1  0
 13 14  1  0
 14 15  1  0
 12 16  1  0
 16 17  2  0
 17 18  1  0
 18 19  2  0
 19 20  1  0
 20 21  2  0
 11 22  1  0
 22 23  2  0
 23 24  1  0
 24 25  2  0
 25 26  1  0
 26 27  2  0
 10  5  1  0
 21 16  1  0
 27 22  1  0
  1 28  1  0
  2 29  1  0
  2 30  1  0
  3 31  1  0
  3 32  1  0
  6 33  1  0
  7 34  1  0
  9 35  1  0
 10 36  1  0
 13 37  1  0
 13 38  1  0
 14 39  1  0
 14 40  1  0
 17 41  1  0
 18 42  1  0
 19 43  1  0
 20 44  1  0
 21 45  1  0
 23 46  1  0
 24 47  1  0
 25 48  1  0
 26 49  1  0
 27 50  1  0
M  END
$$$$
