
     RDKit          3D

 29 29  0  0  0  0  0  0  0  0999 V2000
   -4.5270   -1.7268   -0.4862 C   0  0  0  0  0  0  0  0  0  0  0  0
   -3.7980   -0.5506    0.0950 C   0  0  0  0  0  0  0  0  0  0  0  0
   -4.3190    0.0752    1.0065 O   0  0  0  0  0  0  0  0  0  0  0  0
   -2.4418   -0.1292   -0.4237 C   0  0  1  0  0  0  0  0  0  0  0  0
   -2.5144    1.2463   -0.9241 N   0  0  0  0  0  0  0  0  0  0  0  0
   -1.3761   -0.2730    0.6766 C   0  0  0  0  0  0  0  0  0  0  0  0
   -0.1031    0.0226    0.1405 O   0  0  0  0  0  0  0  0  0  0  0  0
    0.8750   -0.0895    1.1517 C   0  0  0  0  0  0  0  0  0  0  0  0
    2.2189    0.2234    0.5604 C   0  0  0  0  0  0  0  0  0  0  0  0
    2.9975   -0.7973   -0.0105 C   0  0  0  0  0  0  0  0  0  0  0  0
    4.2318   -0.4976   -0.5957 C   0  0  0  0  0  0  0  0  0  0  0  0
    4.6906    0.8222   -0.6264 C   0  0  0  0  0  0  0  0  0  0  0  0
    3.9134    1.8455   -0.0766 C   0  0  0  0  0  0  0  0  0  0  0  0
    2.6785    1.5501    0.5096 C   0  0  0  0  0  0  0  0  0  0  0  0
   -3.9450   -2.2074   -1.2998 H   0  0  0  0  0  0  0  0  0  0  0  0
   -5.5019   -1.3917   -0.8982 H   0  0  0  0  0  0  0  0  0  0  0  0
   -4.7093   -2.4791    0.3095 H   0  0  0  0  0  0  0  0  0  0  0  0
   -2.1499   -0.7917   -1.2686 H   0  0  0  0  0  0  0  0  0  0  0  0
   -1.6168    1.4785   -1.4082 H   0  0  0  0  0  0  0  0  0  0  0  0
   -2.6155    1.9086   -0.1201 H   0  0  0  0  0  0  0  0  0  0  0  0
   -1.3996   -1.3226    1.0517 H   0  0  0  0  0  0  0  0  0  0  0  0
   -1.6220    0.4176    1.5168 H   0  0  0  0  0  0  0  0  0  0  0  0
    0.8924   -1.1205    1.5746 H   0  0  0  0  0  0  0  0  0  0  0  0
    0.6688    0.6232    1.9833 H   0  0  0  0  0  0  0  0  0  0  0  0
    2.6491   -1.8228   -0.0028 H   0  0  0  0  0  0  0  0  0  0  0  0
    4.8308   -1.2881   -1.0290 H   0  0  0  0  0  0  0  0  0  0  0  0
    5.6454    1.0527   -1.0810 H   0  0  0  0  0  0  0  0  0  0  0  0
    4.2659    2.8683   -0.1082 H   0  0  0  0  0  0  0  0  0  0  0  0
    2.0813    2.3538    0.9225 H   0  0  0  0  0  0  0  0  0  0  0  0
  1  2  1  0
  2  3  2  0
  2  4  1  0
  4  5  1  0
  4  6  1  0
  6  7  1  0
  7  8  1  0
  8  9  1  0
  9 10  2  0
 10 11  1  0
 11 12  2  0
 12 13  1  0
 13 14  2  0
 14  9  1  0
  1 15  1  0
  1 16  1  0
  1 17  1  0
  4 18  1  6
  5 19  1  0
  5 20  1  0
  6 21  1  0
  6 22  1  0
  8 23  1  0
  8 24  1  0
 10 25  1  0
 11 26  1  0
 12 27  1  0
 13 28  1  0
 14 29  1  0
M  END
$$$$
