
     RDKit          3D

 57 59  0  0  0  0  0  0  0  0999 V2000
    1.9618   -0.2476   -0.3621 C   0  0  1  0  0  0  0  0  0  0  0  0
    3.4320   -0.5115    0.0401 C   0  0  0  0  0  0  0  0  0  0  0  0
    4.4167    0.3452   -0.7763 C   0  0  0  0  0  0  0  0  0  0  0  0
    5.8891    0.0326   -0.4521 C   0  0  0  0  0  0  0  0  0  0  0  0
    6.3328    0.4631    0.9560 C   0  0  0  0  0  0  0  0  0  0  0  0
    6.2325    1.9530    1.1525 C   0  0  0  0  0  0  0  0  0  0  0  0
    5.1191    2.5088    1.8540 N   0  0  0  0  0  0  0  0  0  0  0  0
    7.1310    2.7434    0.6557 N   0  0  0  0  0  0  0  0  0  0  0  0
    1.6693   -0.7086   -1.7729 C   0  0  0  0  0  0  0  0  0  0  0  0
    2.2044   -1.8995   -2.2567 O   0  0  0  0  0  0  0  0  0  0  0  0
    0.9086   -0.0242   -2.5087 O   0  0  0  0  0  0  0  0  0  0  0  0
    0.9705   -0.8545    0.6738 C   0  0  1  0  0  0  0  0  0  0  0  0
   -0.4421   -0.4942    0.3611 C   0  0  0  0  0  0  0  0  0  0  0  0
   -1.2029   -1.5960    0.0669 C   0  0  0  0  0  0  0  0  0  0  0  0
   -0.4242   -2.8523    0.1468 C   0  0  0  0  0  0  0  0  0  0  0  0
    0.9465   -2.4119    0.7113 C   0  0  2  0  0  0  0  0  0  0  0  0
    1.0816   -2.8471    2.0403 O   0  0  0  0  0  0  0  0  0  0  0  0
   -2.5523   -1.4759   -0.2711 C   0  0  0  0  0  0  0  0  0  0  0  0
   -3.1454   -0.1952   -0.2948 C   0  0  0  0  0  0  0  0  0  0  0  0
   -2.3551    0.9340    0.0248 C   0  0  0  0  0  0  0  0  0  0  0  0
   -1.0007    0.7861    0.3556 C   0  0  0  0  0  0  0  0  0  0  0  0
   -4.5786   -0.0365   -0.6494 C   0  0  0  0  0  0  0  0  0  0  0  0
   -5.3937    0.8702    0.0546 C   0  0  0  0  0  0  0  0  0  0  0  0
   -6.7536    1.0230   -0.2816 C   0  0  0  0  0  0  0  0  0  0  0  0
   -7.6008    1.9135    0.3949 O   0  0  0  0  0  0  0  0  0  0  0  0
   -7.1938    2.7508    1.4723 C   0  0  0  0  0  0  0  0  0  0  0  0
   -7.2896    0.2624   -1.3259 C   0  0  0  0  0  0  0  0  0  0  0  0
   -6.4888   -0.6396   -2.0284 C   0  0  0  0  0  0  0  0  0  0  0  0
   -5.1417   -0.7905   -1.6942 C   0  0  0  0  0  0  0  0  0  0  0  0
    1.8193    0.8566   -0.3330 H   0  0  0  0  0  0  0  0  0  0  0  0
    3.5499   -0.2632    1.1155 H   0  0  0  0  0  0  0  0  0  0  0  0
    3.6846   -1.5858   -0.0863 H   0  0  0  0  0  0  0  0  0  0  0  0
    4.2088    1.4241   -0.6124 H   0  0  0  0  0  0  0  0  0  0  0  0
    4.2629    0.1424   -1.8580 H   0  0  0  0  0  0  0  0  0  0  0  0
    6.0655   -1.0591   -0.5667 H   0  0  0  0  0  0  0  0  0  0  0  0
    6.5325    0.5433   -1.2016 H   0  0  0  0  0  0  0  0  0  0  0  0
    5.7425   -0.0682    1.7309 H   0  0  0  0  0  0  0  0  0  0  0  0
    7.3899    0.1525    1.1036 H   0  0  0  0  0  0  0  0  0  0  0  0
    4.3723    1.8929    2.2450 H   0  0  0  0  0  0  0  0  0  0  0  0
    5.0346    3.5421    1.9790 H   0  0  0  0  0  0  0  0  0  0  0  0
    7.9523    2.3794    0.1224 H   0  0  0  0  0  0  0  0  0  0  0  0
    1.9978   -2.2185   -3.1955 H   0  0  0  0  0  0  0  0  0  0  0  0
    1.2123   -0.4481    1.6819 H   0  0  0  0  0  0  0  0  0  0  0  0
   -0.3065   -3.2799   -0.8723 H   0  0  0  0  0  0  0  0  0  0  0  0
   -0.9337   -3.5864    0.8082 H   0  0  0  0  0  0  0  0  0  0  0  0
    1.7616   -2.8534    0.0966 H   0  0  0  0  0  0  0  0  0  0  0  0
    1.2713   -3.8211    2.0043 H   0  0  0  0  0  0  0  0  0  0  0  0
   -3.1302   -2.3648   -0.4913 H   0  0  0  0  0  0  0  0  0  0  0  0
   -2.7800    1.9295    0.0001 H   0  0  0  0  0  0  0  0  0  0  0  0
   -0.3987    1.6529    0.5956 H   0  0  0  0  0  0  0  0  0  0  0  0
   -4.9712    1.4384    0.8719 H   0  0  0  0  0  0  0  0  0  0  0  0
   -6.8349    2.1324    2.3220 H   0  0  0  0  0  0  0  0  0  0  0  0
   -8.0619    3.3516    1.8124 H   0  0  0  0  0  0  0  0  0  0  0  0
   -6.3922    3.4424    1.1368 H   0  0  0  0  0  0  0  0  0  0  0  0
   -8.3328    0.3717   -1.5940 H   0  0  0  0  0  0  0  0  0  0  0  0
   -6.9127   -1.2209   -2.8371 H   0  0  0  0  0  0  0  0  0  0  0  0
   -4.5359   -1.4837   -2.2643 H   0  0  0  0  0  0  0  0  0  0  0  0
  1  2  1  0
  2  3  1  0
  3  4  1  0
  4  5  1  0
  5  6  1  0
  6  7  1  0
  6  8  2  3
  1  9  1  0
  9 10  1  0
  9 11  2  0
  1 12  1  0
 12 13  1  0
 13 14  2  0
 14 15  1  0
 15 16  1  0
 16 17  1  0
 14 18  1  0
 18 19  2  0
 19 20  1  0
 20 21  2  0
 19 22  1  0
 22 23  2  0
 23 24  1  0
 24 25  1  0
 25 26  1  0
 24 27  2  0
 27 28  1  0
 28 29  2  0
 16 12  1  0
 29 22  1  0
 21 13  1  0
  1 30  1  6
  2 31  1  0
  2 32  1  0
  3 33  1  0
  3 34  1  0
  4 35  1  0
  4 36  1  0
  5 37  1  0
  5 38  1  0
  7 39  1  0
  7 40  1  0
  8 41  1  0
 10 42  1  0
 12 43  1  1
 15 44  1  0
 15 45  1  0
 16 46  1  6
 17 47  1  0
 18 48  1  0
 20 49  1  0
 21 50  1  0
 23 51  1  0
 26 52  1  0
 26 53  1  0
 26 54  1  0
 27 55  1  0
 28 56  1  0
 29 57  1  0
M  END
$$$$
