
     RDKit          3D

 46 48  0  0  0  0  0  0  0  0999 V2000
    0.5610    0.2967    0.8787 N   0  0  0  0  0  0  0  0  0  0  0  0
   -0.8973    0.4087    0.7641 C   0  0  2  0  0  0  0  0  0  0  0  0
   -1.5791   -0.1741    2.0179 C   0  0  0  0  0  0  0  0  0  0  0  0
   -3.0657    0.0391    1.9821 C   0  0  0  0  0  0  0  0  0  0  0  0
   -3.5483    1.1009    2.4605 O   0  0  0  0  0  0  0  0  0  0  0  0
   -3.9141   -0.9363    1.3566 N   0  0  0  0  0  0  0  0  0  0  0  0
   -5.2973   -0.7151    1.0568 C   0  0  0  0  0  0  0  0  0  0  0  0
   -5.9701    0.4188    1.3589 N   0  0  0  0  0  0  0  0  0  0  0  0
   -7.2383    0.3855    0.9562 N   0  0  0  0  0  0  0  0  0  0  0  0
   -7.5774   -0.7638    0.3335 C   0  0  0  0  0  0  0  0  0  0  0  0
   -9.0658   -1.0714   -0.2660 S   0  0  0  0  0  0  0  0  0  0  0  0
   -6.2761   -1.8281    0.2502 S   0  0  0  0  0  0  0  0  0  0  0  0
   -1.3767   -0.2949   -0.4909 C   0  0  0  0  0  0  0  0  0  0  0  0
   -0.9684   -1.6107   -0.7778 C   0  0  0  0  0  0  0  0  0  0  0  0
   -1.4556   -2.2700   -1.9102 C   0  0  0  0  0  0  0  0  0  0  0  0
   -2.3587   -1.6275   -2.7607 C   0  0  0  0  0  0  0  0  0  0  0  0
   -2.7765   -0.3242   -2.4805 C   0  0  0  0  0  0  0  0  0  0  0  0
   -2.2903    0.3404   -1.3507 C   0  0  0  0  0  0  0  0  0  0  0  0
    1.4521    0.9892   -0.0029 C   0  0  0  0  0  0  0  0  0  0  0  0
    0.9963    1.7485   -0.9022 O   0  0  0  0  0  0  0  0  0  0  0  0
    2.8305    0.8130    0.1431 O   0  0  0  0  0  0  0  0  0  0  0  0
    3.7808    1.4588   -0.6971 C   0  0  0  0  0  0  0  0  0  0  0  0
    5.1644    1.0527   -0.2822 C   0  0  0  0  0  0  0  0  0  0  0  0
    5.7566   -0.0994   -0.8255 C   0  0  0  0  0  0  0  0  0  0  0  0
    7.0312   -0.4981   -0.4103 C   0  0  0  0  0  0  0  0  0  0  0  0
    7.7165    0.2425    0.5570 C   0  0  0  0  0  0  0  0  0  0  0  0
    7.1261    1.3802    1.1144 C   0  0  0  0  0  0  0  0  0  0  0  0
    5.8517    1.7822    0.7019 C   0  0  0  0  0  0  0  0  0  0  0  0
    0.9807   -0.3117    1.6181 H   0  0  0  0  0  0  0  0  0  0  0  0
   -1.1542    1.4916    0.7169 H   0  0  0  0  0  0  0  0  0  0  0  0
   -1.3579   -1.2599    2.1092 H   0  0  0  0  0  0  0  0  0  0  0  0
   -1.1665    0.3236    2.9227 H   0  0  0  0  0  0  0  0  0  0  0  0
   -3.4898   -1.8388    1.0452 H   0  0  0  0  0  0  0  0  0  0  0  0
   -7.8947    1.1823    1.1129 H   0  0  0  0  0  0  0  0  0  0  0  0
   -0.2796   -2.1271   -0.1211 H   0  0  0  0  0  0  0  0  0  0  0  0
   -1.1371   -3.2818   -2.1252 H   0  0  0  0  0  0  0  0  0  0  0  0
   -2.7376   -2.1408   -3.6349 H   0  0  0  0  0  0  0  0  0  0  0  0
   -3.4813    0.1700   -3.1365 H   0  0  0  0  0  0  0  0  0  0  0  0
   -2.6351    1.3452   -1.1410 H   0  0  0  0  0  0  0  0  0  0  0  0
    3.6649    2.5620   -0.6154 H   0  0  0  0  0  0  0  0  0  0  0  0
    3.6004    1.1725   -1.7566 H   0  0  0  0  0  0  0  0  0  0  0  0
    5.2322   -0.6876   -1.5684 H   0  0  0  0  0  0  0  0  0  0  0  0
    7.4861   -1.3833   -0.8356 H   0  0  0  0  0  0  0  0  0  0  0  0
    8.7022   -0.0682    0.8783 H   0  0  0  0  0  0  0  0  0  0  0  0
    7.6544    1.9485    1.8690 H   0  0  0  0  0  0  0  0  0  0  0  0
    5.4014    2.6599    1.1489 H   0  0  0  0  0  0  0  0  0  0  0  0
  1  2  1  0
  2  3  1  0
  3  4  1  0
  4  5  2  0
  4  6  1  0
  6  7  1  0
  7  8  2  0
  8  9  1  0
  9 10  1  0
 10 11  2  0
 10 12  1  0
  2 13  1  0
 13 14  2  0
 14 15  1  0
 15 16  2  0
 16 17  1  0
 17 18  2  0
  1 19  1  0
 19 20  2  0
 19 21  1  0
 21 22  1  0
 22 23  1  0
 23 24  2  0
 24 25  1  0
 25 26  2  0
 26 27  1  0
 27 28  2  0
 12  7  1  0
 18 13  1  0
 28 23  1  0
  1 29  1  0
  2 30  1  6
  3 31  1  0
  3 32  1  0
  6 33  1  0
  9 34  1  0
 14 35  1  0
 15 36  1  0
 16 37  1  0
 17 38  1  0
 18 39  1  0
 22 40  1  0
 22 41  1  0
 24 42  1  0
 25 43  1  0
 26 44  1  0
 27 45  1  0
 28 46  1  0
M  END
$$$$
