
     RDKit          3D

 51 54  0  0  0  0  0  0  0  0999 V2000
   -1.9660    0.2096    0.8592 C   0  0  2  0  0  0  0  0  0  0  0  0
   -3.0573   -0.1975    1.8542 C   0  0  0  0  0  0  0  0  0  0  0  0
   -4.1625    0.8477    1.6131 C   0  0  0  0  0  0  0  0  0  0  0  0
   -3.8665    1.3770    0.2427 C   0  0  0  0  0  0  0  0  0  0  0  0
   -4.5256    2.2485   -0.3033 O   0  0  0  0  0  0  0  0  0  0  0  0
   -2.7289    0.6589   -0.4020 C   0  0  2  0  0  0  0  0  0  0  0  0
   -3.3532   -0.4868   -1.2498 C   0  0  0  0  0  0  0  0  0  0  0  0
   -1.7747    1.5114   -1.2629 C   0  0  0  0  0  0  0  0  0  0  0  0
   -0.4903    0.7148   -1.6266 C   0  0  0  0  0  0  0  0  0  0  0  0
    0.2055    0.0852   -0.3783 C   0  0  1  0  0  0  0  0  0  0  0  0
   -0.8038   -0.7373    0.4949 C   0  0  1  0  0  0  0  0  0  0  0  0
   -0.1303   -1.4308    1.7142 C   0  0  0  0  0  0  0  0  0  0  0  0
    1.3365   -1.0438    1.9745 C   0  0  0  0  0  0  0  0  0  0  0  0
    2.2762   -0.8645    0.7283 C   0  0  2  0  0  0  0  0  0  0  0  0
    3.1975    0.3552    1.0374 C   0  0  0  0  0  0  0  0  0  0  0  0
    4.0607    0.7966   -0.1441 C   0  0  2  0  0  0  0  0  0  0  0  0
    4.8561    1.9023    0.2055 O   0  0  0  0  0  0  0  0  0  0  0  0
    3.1606    1.1310   -1.3328 C   0  0  0  0  0  0  0  0  0  0  0  0
    2.4229   -0.1301   -1.7626 C   0  0  0  0  0  0  0  0  0  0  0  0
    1.5082   -0.7507   -0.6507 C   0  0  2  0  0  0  0  0  0  0  0  0
    1.1644   -2.1772   -1.1797 C   0  0  0  0  0  0  0  0  0  0  0  0
   -1.4928    1.1073    1.3310 H   0  0  0  0  0  0  0  0  0  0  0  0
   -2.7014   -0.1462    2.9055 H   0  0  0  0  0  0  0  0  0  0  0  0
   -3.4250   -1.2237    1.6383 H   0  0  0  0  0  0  0  0  0  0  0  0
   -4.0901    1.6719    2.3550 H   0  0  0  0  0  0  0  0  0  0  0  0
   -5.1701    0.3814    1.6491 H   0  0  0  0  0  0  0  0  0  0  0  0
   -2.5994   -1.1096   -1.7671 H   0  0  0  0  0  0  0  0  0  0  0  0
   -3.9788   -1.1621   -0.6295 H   0  0  0  0  0  0  0  0  0  0  0  0
   -4.0070   -0.0555   -2.0386 H   0  0  0  0  0  0  0  0  0  0  0  0
   -1.4855    2.4314   -0.7076 H   0  0  0  0  0  0  0  0  0  0  0  0
   -2.2854    1.8352   -2.1958 H   0  0  0  0  0  0  0  0  0  0  0  0
    0.1959    1.4395   -2.1117 H   0  0  0  0  0  0  0  0  0  0  0  0
   -0.7195   -0.0685   -2.3769 H   0  0  0  0  0  0  0  0  0  0  0  0
    0.5193    0.9673    0.2243 H   0  0  0  0  0  0  0  0  0  0  0  0
   -1.2245   -1.5599   -0.1160 H   0  0  0  0  0  0  0  0  0  0  0  0
   -0.1824   -2.5336    1.5898 H   0  0  0  0  0  0  0  0  0  0  0  0
   -0.6986   -1.2359    2.6462 H   0  0  0  0  0  0  0  0  0  0  0  0
    1.7857   -1.8032    2.6515 H   0  0  0  0  0  0  0  0  0  0  0  0
    1.2928   -0.1089    2.5765 H   0  0  0  0  0  0  0  0  0  0  0  0
    2.9436   -1.7544    0.6717 H   0  0  0  0  0  0  0  0  0  0  0  0
    3.8656    0.0969    1.8886 H   0  0  0  0  0  0  0  0  0  0  0  0
    2.5854    1.2289    1.3545 H   0  0  0  0  0  0  0  0  0  0  0  0
    4.7454   -0.0364   -0.4188 H   0  0  0  0  0  0  0  0  0  0  0  0
    4.2494    2.6566    0.4286 H   0  0  0  0  0  0  0  0  0  0  0  0
    3.7864    1.4922   -2.1778 H   0  0  0  0  0  0  0  0  0  0  0  0
    2.4373    1.9339   -1.0717 H   0  0  0  0  0  0  0  0  0  0  0  0
    3.2041   -0.8649   -2.0630 H   0  0  0  0  0  0  0  0  0  0  0  0
    1.8544    0.0670   -2.6944 H   0  0  0  0  0  0  0  0  0  0  0  0
    2.0843   -2.7289   -1.4706 H   0  0  0  0  0  0  0  0  0  0  0  0
    0.6741   -2.8204   -0.4294 H   0  0  0  0  0  0  0  0  0  0  0  0
    0.5072   -2.1168   -2.0728 H   0  0  0  0  0  0  0  0  0  0  0  0
  1  2  1  0
  2  3  1  0
  3  4  1  0
  4  5  2  0
  4  6  1  0
  6  7  1  6
  6  8  1  0
  8  9  1  0
  9 10  1  0
 10 11  1  0
 11 12  1  0
 12 13  1  0
 13 14  1  0
 14 15  1  0
 15 16  1  0
 16 17  1  0
 16 18  1  0
 18 19  1  0
 19 20  1  0
 20 21  1  6
  6  1  1  0
 20 10  1  0
 11  1  1  0
 20 14  1  0
  1 22  1  1
  2 23  1  0
  2 24  1  0
  3 25  1  0
  3 26  1  0
  7 27  1  0
  7 28  1  0
  7 29  1  0
  8 30  1  0
  8 31  1  0
  9 32  1  0
  9 33  1  0
 10 34  1  1
 11 35  1  6
 12 36  1  0
 12 37  1  0
 13 38  1  0
 13 39  1  0
 14 40  1  6
 15 41  1  0
 15 42  1  0
 16 43  1  6
 17 44  1  0
 18 45  1  0
 18 46  1  0
 19 47  1  0
 19 48  1  0
 21 49  1  0
 21 50  1  0
 21 51  1  0
M  END
$$$$
