
     RDKit          3D

 51 52  0  0  0  0  0  0  0  0999 V2000
    6.5109    0.6600   -0.5551 N   0  0  0  0  0  0  0  0  0  0  0  0
    7.1934   -0.6267   -0.4538 C   0  0  0  0  0  0  0  0  0  0  0  0
    5.0745    0.8087   -0.5239 C   0  0  0  0  0  0  0  0  0  0  0  0
    4.4847    2.0861   -0.6270 C   0  0  0  0  0  0  0  0  0  0  0  0
    5.5241    3.6886   -0.8152 Br  0  0  0  0  0  0  0  0  0  0  0  0
    3.0947    2.2229   -0.5898 C   0  0  0  0  0  0  0  0  0  0  0  0
    2.2620    1.1050   -0.4422 C   0  0  0  0  0  0  0  0  0  0  0  0
    0.7952    1.2992   -0.3940 C   0  0  0  0  0  0  0  0  0  0  0  0
    0.2639    2.1833   -1.1204 O   0  0  0  0  0  0  0  0  0  0  0  0
   -0.0204    0.5167    0.4924 N   0  0  0  0  0  0  0  0  0  0  0  0
   -1.4817    0.4619    0.3676 C   0  0  2  0  0  0  0  0  0  0  0  0
   -2.0956   -0.0831    1.6682 C   0  0  0  0  0  0  0  0  0  0  0  0
   -3.5508    0.1717    1.6668 N   0  0  0  0  0  0  0  0  0  0  0  0
   -4.0137    0.6242    2.9890 C   0  0  0  0  0  0  0  0  0  0  0  0
   -4.3352   -1.0032    1.2379 C   0  0  0  0  0  0  0  0  0  0  0  0
   -3.8693   -1.6132   -0.1032 C   0  0  0  0  0  0  0  0  0  0  0  0
   -3.2922   -0.6457   -1.0599 N   0  0  0  0  0  0  0  0  0  0  0  0
   -4.1338    0.5377   -1.3383 C   0  0  0  0  0  0  0  0  0  0  0  0
   -3.9045    1.0494   -2.7576 C   0  0  0  0  0  0  0  0  0  0  0  0
   -1.8452   -0.3957   -0.8664 C   0  0  0  0  0  0  0  0  0  0  0  0
    2.8332   -0.1806   -0.3675 C   0  0  0  0  0  0  0  0  0  0  0  0
    1.9872   -1.3007   -0.2922 O   0  0  0  0  0  0  0  0  0  0  0  0
    2.4289   -2.6518   -0.2126 C   0  0  0  0  0  0  0  0  0  0  0  0
    4.2349   -0.3158   -0.3969 C   0  0  0  0  0  0  0  0  0  0  0  0
    7.1211    1.5007   -0.6516 H   0  0  0  0  0  0  0  0  0  0  0  0
    6.9437   -1.1130    0.5126 H   0  0  0  0  0  0  0  0  0  0  0  0
    8.2929   -0.4755   -0.4981 H   0  0  0  0  0  0  0  0  0  0  0  0
    6.8941   -1.2818   -1.2988 H   0  0  0  0  0  0  0  0  0  0  0  0
    2.6615    3.2136   -0.6596 H   0  0  0  0  0  0  0  0  0  0  0  0
    0.4489   -0.0123    1.2628 H   0  0  0  0  0  0  0  0  0  0  0  0
   -1.8537    1.4996    0.2254 H   0  0  0  0  0  0  0  0  0  0  0  0
   -1.8584   -1.1637    1.7986 H   0  0  0  0  0  0  0  0  0  0  0  0
   -1.6002    0.4472    2.5145 H   0  0  0  0  0  0  0  0  0  0  0  0
   -5.1084    0.8163    2.9720 H   0  0  0  0  0  0  0  0  0  0  0  0
   -3.5206    1.5836    3.2561 H   0  0  0  0  0  0  0  0  0  0  0  0
   -3.7880   -0.1335    3.7722 H   0  0  0  0  0  0  0  0  0  0  0  0
   -5.3982   -0.6968    1.1191 H   0  0  0  0  0  0  0  0  0  0  0  0
   -4.3078   -1.7985    2.0176 H   0  0  0  0  0  0  0  0  0  0  0  0
   -4.7376   -2.1133   -0.5847 H   0  0  0  0  0  0  0  0  0  0  0  0
   -3.1419   -2.4296    0.1013 H   0  0  0  0  0  0  0  0  0  0  0  0
   -3.9479    1.3576   -0.6158 H   0  0  0  0  0  0  0  0  0  0  0  0
   -5.2094    0.2641   -1.2588 H   0  0  0  0  0  0  0  0  0  0  0  0
   -4.6640    1.8221   -3.0011 H   0  0  0  0  0  0  0  0  0  0  0  0
   -2.9006    1.5125   -2.8510 H   0  0  0  0  0  0  0  0  0  0  0  0
   -3.9977    0.2157   -3.4855 H   0  0  0  0  0  0  0  0  0  0  0  0
   -1.4361    0.0906   -1.7759 H   0  0  0  0  0  0  0  0  0  0  0  0
   -1.3098   -1.3689   -0.7985 H   0  0  0  0  0  0  0  0  0  0  0  0
    3.0182   -2.9152   -1.1162 H   0  0  0  0  0  0  0  0  0  0  0  0
    1.5439   -3.3184   -0.1597 H   0  0  0  0  0  0  0  0  0  0  0  0
    3.0403   -2.8005    0.7024 H   0  0  0  0  0  0  0  0  0  0  0  0
    4.6705   -1.3008   -0.3311 H   0  0  0  0  0  0  0  0  0  0  0  0
  1  2  1  0
  1  3  1  0
  3  4  2  0
  4  5  1  0
  4  6  1  0
  6  7  2  0
  7  8  1  0
  8  9  2  0
  8 10  1  0
 10 11  1  0
 11 12  1  0
 12 13  1  0
 13 14  1  0
 13 15  1  0
 15 16  1  0
 16 17  1  0
 17 18  1  0
 18 19  1  0
 17 20  1  0
  7 21  1  0
 21 22  1  0
 22 23  1  0
 21 24  2  0
 24  3  1  0
 20 11  1  0
  1 25  1  0
  2 26  1  0
  2 27  1  0
  2 28  1  0
  6 29  1  0
 10 30  1  0
 11 31  1  6
 12 32  1  0
 12 33  1  0
 14 34  1  0
 14 35  1  0
 14 36  1  0
 15 37  1  0
 15 38  1  0
 16 39  1  0
 16 40  1  0
 18 41  1  0
 18 42  1  0
 19 43  1  0
 19 44  1  0
 19 45  1  0
 20 46  1  0
 20 47  1  0
 23 48  1  0
 23 49  1  0
 23 50  1  0
 24 51  1  0
M  END
$$$$
