
     RDKit          3D

 26 27  0  0  0  0  0  0  0  0999 V2000
    4.8638    1.8505   -0.8989 O   0  0  0  0  0  0  0  0  0  0  0  0
    3.9604    0.8128   -1.1083 C   0  0  0  0  0  0  0  0  0  0  0  0
    4.2815   -0.1556   -1.8479 O   0  0  0  0  0  0  0  0  0  0  0  0
    2.6378    0.8546   -0.4680 C   0  0  0  0  0  0  0  0  0  0  0  0
    2.3429    1.8361    0.2664 O   0  0  0  0  0  0  0  0  0  0  0  0
    1.7002   -0.2188   -0.6524 N   0  0  0  0  0  0  0  0  0  0  0  0
    0.3419   -0.1592   -0.1858 C   0  0  0  0  0  0  0  0  0  0  0  0
   -0.4322    0.9912   -0.4653 C   0  0  0  0  0  0  0  0  0  0  0  0
   -1.7702    0.9979   -0.0885 C   0  0  0  0  0  0  0  0  0  0  0  0
   -2.3477   -0.0737    0.5286 C   0  0  0  0  0  0  0  0  0  0  0  0
   -3.6691    0.2436    0.7574 C   0  0  0  0  0  0  0  0  0  0  0  0
   -3.8270    1.5283    0.2481 C   0  0  0  0  0  0  0  0  0  0  0  0
   -2.6635    1.9844   -0.2693 N   0  0  0  0  0  0  0  0  0  0  0  0
   -1.6316   -1.2282    0.8221 C   0  0  0  0  0  0  0  0  0  0  0  0
   -0.2615   -1.2813    0.4717 C   0  0  0  0  0  0  0  0  0  0  0  0
    0.5107   -2.4931    0.8392 C   0  0  0  0  0  0  0  0  0  0  0  0
   -0.1542   -3.6895    1.0965 O   0  0  0  0  0  0  0  0  0  0  0  0
    1.7647   -2.4504    0.9572 O   0  0  0  0  0  0  0  0  0  0  0  0
    5.7791    1.8384   -1.3329 H   0  0  0  0  0  0  0  0  0  0  0  0
    2.0181   -1.0888   -1.1353 H   0  0  0  0  0  0  0  0  0  0  0  0
   -0.0103    1.8400   -0.9882 H   0  0  0  0  0  0  0  0  0  0  0  0
   -4.4232   -0.3730    1.2284 H   0  0  0  0  0  0  0  0  0  0  0  0
   -4.7478    2.0963    0.2559 H   0  0  0  0  0  0  0  0  0  0  0  0
   -2.4985    2.9132   -0.7172 H   0  0  0  0  0  0  0  0  0  0  0  0
   -2.1217   -2.0530    1.3248 H   0  0  0  0  0  0  0  0  0  0  0  0
    0.3575   -4.5227    1.3617 H   0  0  0  0  0  0  0  0  0  0  0  0
  1  2  1  0
  2  3  2  0
  2  4  1  0
  4  5  2  0
  4  6  1  0
  6  7  1  0
  7  8  2  0
  8  9  1  0
  9 10  2  0
 10 11  1  0
 11 12  2  0
 12 13  1  0
 10 14  1  0
 14 15  2  0
 15 16  1  0
 16 17  1  0
 16 18  2  0
 15  7  1  0
 13  9  1  0
  1 19  1  0
  6 20  1  0
  8 21  1  0
 11 22  1  0
 12 23  1  0
 13 24  1  0
 14 25  1  0
 17 26  1  0
M  END
$$$$
