
     RDKit          3D

 57 60  0  0  0  0  0  0  0  0999 V2000
   -5.3654    2.6946    1.0428 C   0  0  0  0  0  0  0  0  0  0  0  0
   -6.2782    1.6535    0.4483 C   0  0  0  0  0  0  0  0  0  0  0  0
   -7.6674    1.8483    0.5406 C   0  0  0  0  0  0  0  0  0  0  0  0
   -8.5534    0.9329   -0.0307 C   0  0  0  0  0  0  0  0  0  0  0  0
   -8.0651   -0.1894   -0.6985 C   0  0  0  0  0  0  0  0  0  0  0  0
   -6.6893   -0.4100   -0.7826 C   0  0  0  0  0  0  0  0  0  0  0  0
   -5.7838    0.4887   -0.1940 C   0  0  0  0  0  0  0  0  0  0  0  0
   -4.3404    0.1882   -0.2863 C   0  0  0  0  0  0  0  0  0  0  0  0
   -3.8347   -0.0351   -1.4194 O   0  0  0  0  0  0  0  0  0  0  0  0
   -3.5281    0.1426    0.8994 N   0  0  0  0  0  0  0  0  0  0  0  0
   -2.1172   -0.1298    0.8970 C   0  0  0  0  0  0  0  0  0  0  0  0
   -1.5659   -1.1314    0.0803 C   0  0  0  0  0  0  0  0  0  0  0  0
   -0.1868   -1.4028    0.1068 C   0  0  0  0  0  0  0  0  0  0  0  0
    0.3657   -2.5064   -0.7578 C   0  0  0  0  0  0  0  0  0  0  0  0
    0.6513   -0.6455    0.9585 C   0  0  0  0  0  0  0  0  0  0  0  0
    0.0877    0.3200    1.8040 C   0  0  0  0  0  0  0  0  0  0  0  0
   -1.2844    0.5713    1.7765 C   0  0  0  0  0  0  0  0  0  0  0  0
    2.1127   -0.8523    0.9967 C   0  0  0  0  0  0  0  0  0  0  0  0
    2.6458   -1.2015    2.0851 O   0  0  0  0  0  0  0  0  0  0  0  0
    2.9372   -0.6236   -0.1666 N   0  0  0  0  0  0  0  0  0  0  0  0
    2.5513    0.3788   -1.1650 C   0  0  0  0  0  0  0  0  0  0  0  0
    2.9348    1.7791   -0.6867 C   0  0  0  0  0  0  0  0  0  0  0  0
    4.2954    1.8136    0.0252 C   0  0  0  0  0  0  0  0  0  0  0  0
    5.4064    1.0752   -0.7536 C   0  0  1  0  0  0  0  0  0  0  0  0
    6.6435    1.6169   -0.3584 O   0  0  0  0  0  0  0  0  0  0  0  0
    5.4195   -0.4415   -0.5295 C   0  0  0  0  0  0  0  0  0  0  0  0
    4.2521   -1.2127   -0.2395 C   0  0  0  0  0  0  0  0  0  0  0  0
    4.3697   -2.6010   -0.0507 C   0  0  0  0  0  0  0  0  0  0  0  0
    5.6006   -3.2397   -0.1774 C   0  0  0  0  0  0  0  0  0  0  0  0
    6.7351   -2.5053   -0.5105 C   0  0  0  0  0  0  0  0  0  0  0  0
    8.2781   -3.3179   -0.7037 Cl  0  0  0  0  0  0  0  0  0  0  0  0
    6.6444   -1.1246   -0.6967 C   0  0  0  0  0  0  0  0  0  0  0  0
   -4.4109    2.7619    0.4803 H   0  0  0  0  0  0  0  0  0  0  0  0
   -5.8390    3.6988    1.0031 H   0  0  0  0  0  0  0  0  0  0  0  0
   -5.1562    2.4472    2.1040 H   0  0  0  0  0  0  0  0  0  0  0  0
   -8.0666    2.7195    1.0455 H   0  0  0  0  0  0  0  0  0  0  0  0
   -9.6208    1.0980    0.0393 H   0  0  0  0  0  0  0  0  0  0  0  0
   -8.7541   -0.8941   -1.1459 H   0  0  0  0  0  0  0  0  0  0  0  0
   -6.3291   -1.2958   -1.2922 H   0  0  0  0  0  0  0  0  0  0  0  0
   -3.9685    0.3967    1.8116 H   0  0  0  0  0  0  0  0  0  0  0  0
   -2.2137   -1.7258   -0.5508 H   0  0  0  0  0  0  0  0  0  0  0  0
    0.9603   -2.0770   -1.5895 H   0  0  0  0  0  0  0  0  0  0  0  0
   -0.4453   -3.1268   -1.1950 H   0  0  0  0  0  0  0  0  0  0  0  0
    1.0106   -3.1762   -0.1518 H   0  0  0  0  0  0  0  0  0  0  0  0
    0.7163    0.8939    2.4744 H   0  0  0  0  0  0  0  0  0  0  0  0
   -1.6992    1.3288    2.4300 H   0  0  0  0  0  0  0  0  0  0  0  0
    3.0536    0.1598   -2.1330 H   0  0  0  0  0  0  0  0  0  0  0  0
    1.4611    0.3452   -1.3691 H   0  0  0  0  0  0  0  0  0  0  0  0
    2.1583    2.1494    0.0177 H   0  0  0  0  0  0  0  0  0  0  0  0
    2.9525    2.4668   -1.5601 H   0  0  0  0  0  0  0  0  0  0  0  0
    4.2058    1.3939    1.0515 H   0  0  0  0  0  0  0  0  0  0  0  0
    4.5748    2.8833    0.1469 H   0  0  0  0  0  0  0  0  0  0  0  0
    5.2690    1.2476   -1.8472 H   0  0  0  0  0  0  0  0  0  0  0  0
    6.7667    2.4637   -0.8627 H   0  0  0  0  0  0  0  0  0  0  0  0
    3.4939   -3.1957    0.1739 H   0  0  0  0  0  0  0  0  0  0  0  0
    5.6671   -4.3108   -0.0347 H   0  0  0  0  0  0  0  0  0  0  0  0
    7.5419   -0.5853   -0.9727 H   0  0  0  0  0  0  0  0  0  0  0  0
  1  2  1  0
  2  3  2  0
  3  4  1  0
  4  5  2  0
  5  6  1  0
  6  7  2  0
  7  8  1  0
  8  9  2  0
  8 10  1  0
 10 11  1  0
 11 12  2  0
 12 13  1  0
 13 14  1  0
 13 15  2  0
 15 16  1  0
 16 17  2  0
 15 18  1  0
 18 19  2  0
 18 20  1  0
 20 21  1  0
 21 22  1  0
 22 23  1  0
 23 24  1  0
 24 25  1  0
 24 26  1  0
 26 27  2  0
 27 28  1  0
 28 29  2  0
 29 30  1  0
 30 31  1  0
 30 32  2  0
  7  2  1  0
 17 11  1  0
 27 20  1  0
 32 26  1  0
  1 33  1  0
  1 34  1  0
  1 35  1  0
  3 36  1  0
  4 37  1  0
  5 38  1  0
  6 39  1  0
 10 40  1  0
 12 41  1  0
 14 42  1  0
 14 43  1  0
 14 44  1  0
 16 45  1  0
 17 46  1  0
 21 47  1  0
 21 48  1  0
 22 49  1  0
 22 50  1  0
 23 51  1  0
 23 52  1  0
 24 53  1  6
 25 54  1  0
 28 55  1  0
 29 56  1  0
 32 57  1  0
M  END
$$$$
