
     RDKit          3D

 57 60  0  0  0  0  0  0  0  0999 V2000
    1.8871   -0.5204    2.9240 C   0  0  1  0  0  0  0  0  0  0  0  0
    1.3787    1.2538    2.9527 S   0  0  0  0  0  0  0  0  0  0  0  0
    0.2913    1.2490    1.4719 C   0  0  0  0  0  0  0  0  0  0  0  0
   -0.7570    0.1502    1.5092 C   0  0  0  0  0  0  0  0  0  0  0  0
   -2.2065    0.5527    1.3386 C   0  0  0  0  0  0  0  0  0  0  0  0
   -2.4883    1.3980   -0.2598 S   0  0  0  0  0  0  0  0  0  0  0  0
   -2.1371   -0.0337   -1.2821 C   0  0  0  0  0  0  0  0  0  0  0  0
   -0.9169   -0.3461   -1.7538 N   0  0  0  0  0  0  0  0  0  0  0  0
   -1.1040   -1.4322   -2.4934 N   0  0  0  0  0  0  0  0  0  0  0  0
   -2.3848   -1.7739   -2.4861 N   0  0  0  0  0  0  0  0  0  0  0  0
   -3.0452   -0.9167   -1.7289 N   0  0  0  0  0  0  0  0  0  0  0  0
   -4.4900   -0.9250   -1.5201 C   0  0  0  0  0  0  0  0  0  0  0  0
   -5.1803   -0.0473   -2.5687 C   0  0  0  0  0  0  0  0  0  0  0  0
   -6.6253    0.0772   -2.2777 N   0  0  0  0  0  0  0  0  0  0  0  0
   -7.1599    1.3109   -2.8768 C   0  0  0  0  0  0  0  0  0  0  0  0
   -7.3724   -1.0815   -2.7986 C   0  0  0  0  0  0  0  0  0  0  0  0
   -0.3342   -1.1226    1.6895 C   0  0  0  0  0  0  0  0  0  0  0  0
    1.0297   -1.2924    2.0568 N   0  0  0  0  0  0  0  0  0  0  0  0
    2.2345   -1.7767    1.3466 C   0  0  0  0  0  0  0  0  0  0  0  0
    2.4469   -2.5597    0.3845 O   0  0  0  0  0  0  0  0  0  0  0  0
    3.0871   -0.8877    2.2023 C   0  0  1  0  0  0  0  0  0  0  0  0
    3.6846    0.1992    1.4225 N   0  0  0  0  0  0  0  0  0  0  0  0
    4.6427    1.0986    1.9957 C   0  0  0  0  0  0  0  0  0  0  0  0
    5.0110    0.9577    3.1935 O   0  0  0  0  0  0  0  0  0  0  0  0
    5.2392    2.1899    1.1627 C   0  0  0  0  0  0  0  0  0  0  0  0
    6.3355    1.6377    0.3069 C   0  0  0  0  0  0  0  0  0  0  0  0
    6.1207    1.1392   -0.9778 C   0  0  0  0  0  0  0  0  0  0  0  0
    7.5886    0.5620   -1.5649 S   0  0  0  0  0  0  0  0  0  0  0  0
    8.4179    0.9647   -0.1609 C   0  0  0  0  0  0  0  0  0  0  0  0
    9.8076    0.7328    0.0507 N   0  0  0  0  0  0  0  0  0  0  0  0
    7.6134    1.5305    0.7625 N   0  0  0  0  0  0  0  0  0  0  0  0
   -1.1736   -2.3354    1.5835 C   0  0  0  0  0  0  0  0  0  0  0  0
   -2.2550   -2.4002    0.7123 O   0  0  0  0  0  0  0  0  0  0  0  0
   -0.8591   -3.3590    2.2476 O   0  0  0  0  0  0  0  0  0  0  0  0
    1.8763   -0.9443    3.9526 H   0  0  0  0  0  0  0  0  0  0  0  0
   -0.1882    2.2478    1.4012 H   0  0  0  0  0  0  0  0  0  0  0  0
    0.9211    1.1188    0.5663 H   0  0  0  0  0  0  0  0  0  0  0  0
   -2.9252   -0.2768    1.4628 H   0  0  0  0  0  0  0  0  0  0  0  0
   -2.4519    1.2778    2.1424 H   0  0  0  0  0  0  0  0  0  0  0  0
   -4.7240   -0.5482   -0.5010 H   0  0  0  0  0  0  0  0  0  0  0  0
   -4.8567   -1.9703   -1.5880 H   0  0  0  0  0  0  0  0  0  0  0  0
   -4.6903    0.9525   -2.5325 H   0  0  0  0  0  0  0  0  0  0  0  0
   -5.0038   -0.4613   -3.5878 H   0  0  0  0  0  0  0  0  0  0  0  0
   -8.2479    1.4026   -2.6685 H   0  0  0  0  0  0  0  0  0  0  0  0
   -6.9972    1.3270   -3.9780 H   0  0  0  0  0  0  0  0  0  0  0  0
   -6.6691    2.1990   -2.4236 H   0  0  0  0  0  0  0  0  0  0  0  0
   -7.0219   -2.0195   -2.3219 H   0  0  0  0  0  0  0  0  0  0  0  0
   -8.4516   -0.9830   -2.5519 H   0  0  0  0  0  0  0  0  0  0  0  0
   -7.2636   -1.1718   -3.9026 H   0  0  0  0  0  0  0  0  0  0  0  0
    3.8315   -1.4661    2.7925 H   0  0  0  0  0  0  0  0  0  0  0  0
    3.4274    0.3171    0.4155 H   0  0  0  0  0  0  0  0  0  0  0  0
    5.6470    2.9888    1.8191 H   0  0  0  0  0  0  0  0  0  0  0  0
    4.4504    2.6477    0.5274 H   0  0  0  0  0  0  0  0  0  0  0  0
    5.1753    1.1192   -1.5036 H   0  0  0  0  0  0  0  0  0  0  0  0
   10.3874    0.2877   -0.6946 H   0  0  0  0  0  0  0  0  0  0  0  0
   10.2555    1.0066    0.9530 H   0  0  0  0  0  0  0  0  0  0  0  0
   -2.8070   -3.2451    0.6272 H   0  0  0  0  0  0  0  0  0  0  0  0
  1  2  1  0
  2  3  1  0
  3  4  1  0
  4  5  1  0
  5  6  1  0
  6  7  1  0
  7  8  2  0
  8  9  1  0
  9 10  2  0
 10 11  1  0
 11 12  1  0
 12 13  1  0
 13 14  1  0
 14 15  1  0
 14 16  1  0
  4 17  2  0
 17 18  1  0
 18 19  1  0
 19 20  2  0
 19 21  1  0
 21 22  1  0
 22 23  1  0
 23 24  2  0
 23 25  1  0
 25 26  1  0
 26 27  2  0
 27 28  1  0
 28 29  1  0
 29 30  1  0
 29 31  2  0
 17 32  1  0
 32 33  1  0
 32 34  2  0
 18  1  1  0
 31 26  1  0
 21  1  1  0
 11  7  1  0
  1 35  1  1
  3 36  1  0
  3 37  1  0
  5 38  1  0
  5 39  1  0
 12 40  1  0
 12 41  1  0
 13 42  1  0
 13 43  1  0
 15 44  1  0
 15 45  1  0
 15 46  1  0
 16 47  1  0
 16 48  1  0
 16 49  1  0
 21 50  1  1
 22 51  1  0
 25 52  1  0
 25 53  1  0
 27 54  1  0
 30 55  1  0
 30 56  1  0
 33 57  1  0
M  END
$$$$
