
     RDKit          3D

 52 56  0  0  0  0  0  0  0  0999 V2000
   -1.2987   -1.9584   -0.6557 C   0  0  2  0  0  0  0  0  0  0  0  0
   -2.2345   -2.5734   -1.7229 C   0  0  0  0  0  0  0  0  0  0  0  0
   -3.6893   -2.0484   -1.6182 C   0  0  0  0  0  0  0  0  0  0  0  0
   -4.0297   -1.5324   -0.1979 C   0  0  2  0  0  0  0  0  0  0  0  0
   -5.3858   -1.1698   -0.0866 O   0  0  0  0  0  0  0  0  0  0  0  0
   -3.0679   -0.3869    0.2686 C   0  0  2  0  0  0  0  0  0  0  0  0
   -3.6571    0.9872    0.0647 C   0  0  0  0  0  0  0  0  0  0  0  0
   -3.8948    1.4101   -1.1008 O   0  0  0  0  0  0  0  0  0  0  0  0
   -3.9365    1.7844    1.1784 O   0  0  0  0  0  0  0  0  0  0  0  0
   -4.4852    3.0916    1.0658 C   0  0  0  0  0  0  0  0  0  0  0  0
   -1.6791   -0.4840   -0.4270 C   0  0  1  0  0  0  0  0  0  0  0  0
   -0.5564    0.2035    0.3539 C   0  0  0  0  0  0  0  0  0  0  0  0
    0.7107    0.2635   -0.5330 C   0  0  2  0  0  0  0  0  0  0  0  0
    0.8293   -0.8926   -1.4868 N   0  0  0  0  0  0  0  0  0  0  0  0
    2.1917   -1.1844   -2.0465 C   0  0  0  0  0  0  0  0  0  0  0  0
    3.2772   -0.1262   -1.7570 C   0  0  0  0  0  0  0  0  0  0  0  0
    3.1799    0.2747   -0.3309 C   0  0  0  0  0  0  0  0  0  0  0  0
    1.9629    0.4481    0.2701 C   0  0  0  0  0  0  0  0  0  0  0  0
    2.0899    1.0711    1.4661 N   0  0  0  0  0  0  0  0  0  0  0  0
    3.4148    1.2678    1.6189 C   0  0  0  0  0  0  0  0  0  0  0  0
    4.0553    1.9229    2.6697 C   0  0  0  0  0  0  0  0  0  0  0  0
    5.4503    2.0907    2.5879 C   0  0  0  0  0  0  0  0  0  0  0  0
    6.1646    1.6223    1.4619 C   0  0  0  0  0  0  0  0  0  0  0  0
    5.4921    0.9782    0.4071 C   0  0  0  0  0  0  0  0  0  0  0  0
    4.1146    0.8066    0.5279 C   0  0  0  0  0  0  0  0  0  0  0  0
    0.2067   -2.1373   -0.9810 C   0  0  0  0  0  0  0  0  0  0  0  0
   -1.4770   -2.5130    0.2949 H   0  0  0  0  0  0  0  0  0  0  0  0
   -2.2324   -3.6791   -1.6044 H   0  0  0  0  0  0  0  0  0  0  0  0
   -1.8491   -2.3455   -2.7412 H   0  0  0  0  0  0  0  0  0  0  0  0
   -3.8283   -1.2198   -2.3470 H   0  0  0  0  0  0  0  0  0  0  0  0
   -4.3945   -2.8605   -1.8992 H   0  0  0  0  0  0  0  0  0  0  0  0
   -3.8807   -2.3930    0.4916 H   0  0  0  0  0  0  0  0  0  0  0  0
   -5.6214   -0.6106   -0.8719 H   0  0  0  0  0  0  0  0  0  0  0  0
   -2.9175   -0.5224    1.3637 H   0  0  0  0  0  0  0  0  0  0  0  0
   -4.6160    3.5207    2.0803 H   0  0  0  0  0  0  0  0  0  0  0  0
   -3.7983    3.7431    0.4851 H   0  0  0  0  0  0  0  0  0  0  0  0
   -5.4747    3.0465    0.5634 H   0  0  0  0  0  0  0  0  0  0  0  0
   -1.7473    0.0110   -1.4250 H   0  0  0  0  0  0  0  0  0  0  0  0
   -0.8594    1.2359    0.6358 H   0  0  0  0  0  0  0  0  0  0  0  0
   -0.3559   -0.3643    1.2905 H   0  0  0  0  0  0  0  0  0  0  0  0
    0.6082    1.1783   -1.1580 H   0  0  0  0  0  0  0  0  0  0  0  0
    2.1008   -1.3011   -3.1472 H   0  0  0  0  0  0  0  0  0  0  0  0
    2.5850   -2.1527   -1.6580 H   0  0  0  0  0  0  0  0  0  0  0  0
    3.1121    0.7667   -2.3974 H   0  0  0  0  0  0  0  0  0  0  0  0
    4.2835   -0.5442   -1.9739 H   0  0  0  0  0  0  0  0  0  0  0  0
    1.3276    1.4024    2.0984 H   0  0  0  0  0  0  0  0  0  0  0  0
    3.4977    2.2989    3.5177 H   0  0  0  0  0  0  0  0  0  0  0  0
    5.9783    2.5925    3.3883 H   0  0  0  0  0  0  0  0  0  0  0  0
    7.2356    1.7675    1.4064 H   0  0  0  0  0  0  0  0  0  0  0  0
    6.0287    0.6303   -0.4659 H   0  0  0  0  0  0  0  0  0  0  0  0
    0.3288   -2.9584   -1.7233 H   0  0  0  0  0  0  0  0  0  0  0  0
    0.7409   -2.4580   -0.0572 H   0  0  0  0  0  0  0  0  0  0  0  0
  1  2  1  0
  2  3  1  0
  3  4  1  0
  4  5  1  0
  4  6  1  0
  6  7  1  0
  7  8  2  0
  7  9  1  0
  9 10  1  0
  6 11  1  0
 11 12  1  0
 12 13  1  0
 13 14  1  0
 14 15  1  0
 15 16  1  0
 16 17  1  0
 17 18  2  0
 18 19  1  0
 19 20  1  0
 20 21  2  0
 21 22  1  0
 22 23  2  0
 23 24  1  0
 24 25  2  0
 14 26  1  0
 11  1  1  0
 18 13  1  0
 25 20  1  0
 26  1  1  0
 25 17  1  0
  1 27  1  1
  2 28  1  0
  2 29  1  0
  3 30  1  0
  3 31  1  0
  4 32  1  1
  5 33  1  0
  6 34  1  1
 10 35  1  0
 10 36  1  0
 10 37  1  0
 11 38  1  6
 12 39  1  0
 12 40  1  0
 13 41  1  6
 15 42  1  0
 15 43  1  0
 16 44  1  0
 16 45  1  0
 19 46  1  0
 21 47  1  0
 22 48  1  0
 23 49  1  0
 24 50  1  0
 26 51  1  0
 26 52  1  0
M  END
$$$$
