
     RDKit          3D

 34 35  0  0  0  0  0  0  0  0999 V2000
    7.8138   -0.9911   -1.0029 I   0  0  0  0  0  0  0  0  0  0  0  0
    5.8496   -0.5110   -0.4034 C   0  0  0  0  0  0  0  0  0  0  0  0
    4.8757   -0.2212   -1.3635 C   0  0  0  0  0  0  0  0  0  0  0  0
    3.5731    0.0990   -0.9681 C   0  0  0  0  0  0  0  0  0  0  0  0
    3.2300    0.1186    0.3967 C   0  0  0  0  0  0  0  0  0  0  0  0
    1.9052    0.4681    0.8333 N   0  0  0  0  0  0  0  0  0  0  0  0
    0.7056    0.1300    0.1204 C   0  0  0  0  0  0  0  0  0  0  0  0
    0.7413   -0.6947   -0.8333 O   0  0  0  0  0  0  0  0  0  0  0  0
   -0.5439    0.7074    0.5236 N   0  0  0  0  0  0  0  0  0  0  0  0
   -1.8111    0.3726   -0.1352 C   0  0  0  0  0  0  0  0  0  0  0  0
   -2.2462   -1.0666    0.2394 C   0  0  0  0  0  0  0  0  0  0  0  0
   -3.7728   -1.2831    0.1891 C   0  0  0  0  0  0  0  0  0  0  0  0
   -4.4417   -0.3680   -0.8409 C   0  0  0  0  0  0  0  0  0  0  0  0
   -4.2203    1.1211   -0.5076 C   0  0  0  0  0  0  0  0  0  0  0  0
   -2.8997    1.3932    0.2417 C   0  0  0  0  0  0  0  0  0  0  0  0
    4.2211   -0.1506    1.3536 C   0  0  0  0  0  0  0  0  0  0  0  0
    5.5223   -0.4714    0.9551 C   0  0  0  0  0  0  0  0  0  0  0  0
    5.1296   -0.2349   -2.4156 H   0  0  0  0  0  0  0  0  0  0  0  0
    2.8462    0.3555   -1.7270 H   0  0  0  0  0  0  0  0  0  0  0  0
    1.7999    0.9193    1.7701 H   0  0  0  0  0  0  0  0  0  0  0  0
   -0.5340    1.4155    1.2928 H   0  0  0  0  0  0  0  0  0  0  0  0
   -1.6657    0.4337   -1.2378 H   0  0  0  0  0  0  0  0  0  0  0  0
   -1.7566   -1.7792   -0.4593 H   0  0  0  0  0  0  0  0  0  0  0  0
   -1.8936   -1.3163    1.2645 H   0  0  0  0  0  0  0  0  0  0  0  0
   -3.9896   -2.3445   -0.0593 H   0  0  0  0  0  0  0  0  0  0  0  0
   -4.2104   -1.0771    1.1909 H   0  0  0  0  0  0  0  0  0  0  0  0
   -5.5317   -0.5823   -0.8777 H   0  0  0  0  0  0  0  0  0  0  0  0
   -4.0217   -0.5905   -1.8468 H   0  0  0  0  0  0  0  0  0  0  0  0
   -5.0644    1.4888    0.1159 H   0  0  0  0  0  0  0  0  0  0  0  0
   -4.2330    1.7022   -1.4554 H   0  0  0  0  0  0  0  0  0  0  0  0
   -3.0826    1.3432    1.3383 H   0  0  0  0  0  0  0  0  0  0  0  0
   -2.5510    2.4221    0.0049 H   0  0  0  0  0  0  0  0  0  0  0  0
    3.9810   -0.1214    2.4091 H   0  0  0  0  0  0  0  0  0  0  0  0
    6.2754   -0.6866    1.7020 H   0  0  0  0  0  0  0  0  0  0  0  0
  1  2  1  0
  2  3  2  0
  3  4  1  0
  4  5  2  0
  5  6  1  0
  6  7  1  0
  7  8  2  0
  7  9  1  0
  9 10  1  0
 10 11  1  0
 11 12  1  0
 12 13  1  0
 13 14  1  0
 14 15  1  0
  5 16  1  0
 16 17  2  0
 17  2  1  0
 15 10  1  0
  3 18  1  0
  4 19  1  0
  6 20  1  0
  9 21  1  0
 10 22  1  0
 11 23  1  0
 11 24  1  0
 12 25  1  0
 12 26  1  0
 13 27  1  0
 13 28  1  0
 14 29  1  0
 14 30  1  0
 15 31  1  0
 15 32  1  0
 16 33  1  0
 17 34  1  0
M  END
$$$$
