
     RDKit          3D

 51 54  0  0  0  0  0  0  0  0999 V2000
    0.1997    0.3461   -1.5436 C   0  0  2  0  0  0  0  0  0  0  0  0
    0.0139   -0.2022   -2.9527 C   0  0  0  0  0  0  0  0  0  0  0  0
    1.1192    0.4810   -3.7812 C   0  0  0  0  0  0  0  0  0  0  0  0
    2.0262    1.2601   -2.7843 C   0  0  1  0  0  0  0  0  0  0  0  0
    3.3876    1.1324   -3.1234 O   0  0  0  0  0  0  0  0  0  0  0  0
    1.6645    2.6997   -2.8020 C   0  0  0  0  0  0  0  0  0  0  0  0
    1.3698    3.8689   -2.8202 C   0  0  0  0  0  0  0  0  0  0  0  0
    1.7140    0.5830   -1.4121 C   0  0  2  0  0  0  0  0  0  0  0  0
    2.5492   -0.7389   -1.3033 C   0  0  0  0  0  0  0  0  0  0  0  0
    1.9539    1.4320   -0.1352 C   0  0  0  0  0  0  0  0  0  0  0  0
    1.3410    0.7691    1.1273 C   0  0  0  0  0  0  0  0  0  0  0  0
   -0.1605    0.3846    0.9519 C   0  0  2  0  0  0  0  0  0  0  0  0
   -0.7716   -0.3318    2.1658 C   0  0  0  0  0  0  0  0  0  0  0  0
   -1.7801   -1.2453    2.0201 C   0  0  0  0  0  0  0  0  0  0  0  0
   -2.4181   -1.8731    3.2460 C   0  0  0  0  0  0  0  0  0  0  0  0
   -1.4011   -2.0772    4.3377 C   0  0  0  0  0  0  0  0  0  0  0  0
   -1.5132   -3.0183    5.1079 O   0  0  0  0  0  0  0  0  0  0  0  0
   -0.2630   -1.1062    4.5048 C   0  0  0  0  0  0  0  0  0  0  0  0
   -0.4393    0.1088    3.5853 C   0  0  0  0  0  0  0  0  0  0  0  0
   -2.2426   -1.7573    0.6676 C   0  0  0  0  0  0  0  0  0  0  0  0
   -1.8621   -0.8422   -0.5076 C   0  0  1  0  0  0  0  0  0  0  0  0
   -2.8409    0.3427   -0.6219 C   0  0  0  0  0  0  0  0  0  0  0  0
   -0.3762   -0.4435   -0.3497 C   0  0  1  0  0  0  0  0  0  0  0  0
   -0.3047    1.3414   -1.5372 H   0  0  0  0  0  0  0  0  0  0  0  0
    0.1425   -1.3066   -2.9638 H   0  0  0  0  0  0  0  0  0  0  0  0
   -0.9940    0.0494   -3.3486 H   0  0  0  0  0  0  0  0  0  0  0  0
    0.6730    1.1486   -4.5522 H   0  0  0  0  0  0  0  0  0  0  0  0
    1.7072   -0.2982   -4.3147 H   0  0  0  0  0  0  0  0  0  0  0  0
    3.4956    1.4419   -4.0617 H   0  0  0  0  0  0  0  0  0  0  0  0
    1.1108    4.8947   -2.8355 H   0  0  0  0  0  0  0  0  0  0  0  0
    2.3273   -1.3328   -0.3984 H   0  0  0  0  0  0  0  0  0  0  0  0
    3.6329   -0.5016   -1.2491 H   0  0  0  0  0  0  0  0  0  0  0  0
    2.3953   -1.4016   -2.1794 H   0  0  0  0  0  0  0  0  0  0  0  0
    1.4916    2.4369   -0.2384 H   0  0  0  0  0  0  0  0  0  0  0  0
    3.0437    1.5880    0.0189 H   0  0  0  0  0  0  0  0  0  0  0  0
    1.4456    1.5215    1.9345 H   0  0  0  0  0  0  0  0  0  0  0  0
    1.9306   -0.1205    1.4318 H   0  0  0  0  0  0  0  0  0  0  0  0
   -0.7061    1.3478    0.8530 H   0  0  0  0  0  0  0  0  0  0  0  0
   -2.8849   -2.8476    2.9829 H   0  0  0  0  0  0  0  0  0  0  0  0
   -3.2149   -1.1981    3.6236 H   0  0  0  0  0  0  0  0  0  0  0  0
   -0.2210   -0.7609    5.5603 H   0  0  0  0  0  0  0  0  0  0  0  0
    0.6913   -1.6222    4.2629 H   0  0  0  0  0  0  0  0  0  0  0  0
   -1.2791    0.7313    3.9649 H   0  0  0  0  0  0  0  0  0  0  0  0
    0.4724    0.7268    3.6546 H   0  0  0  0  0  0  0  0  0  0  0  0
   -3.3437   -1.9135    0.6820 H   0  0  0  0  0  0  0  0  0  0  0  0
   -1.7795   -2.7557    0.5086 H   0  0  0  0  0  0  0  0  0  0  0  0
   -1.9679   -1.4428   -1.4380 H   0  0  0  0  0  0  0  0  0  0  0  0
   -2.5653    1.0088   -1.4638 H   0  0  0  0  0  0  0  0  0  0  0  0
   -2.8832    0.9322    0.3168 H   0  0  0  0  0  0  0  0  0  0  0  0
   -3.8636   -0.0391   -0.8275 H   0  0  0  0  0  0  0  0  0  0  0  0
    0.1780   -1.4004   -0.2587 H   0  0  0  0  0  0  0  0  0  0  0  0
  1  2  1  0
  2  3  1  0
  3  4  1  0
  4  5  1  0
  4  6  1  1
  6  7  3  0
  4  8  1  0
  8  9  1  1
  8 10  1  0
 10 11  1  0
 11 12  1  0
 12 13  1  0
 13 14  2  0
 14 15  1  0
 15 16  1  0
 16 17  2  0
 16 18  1  0
 18 19  1  0
 14 20  1  0
 20 21  1  0
 21 22  1  0
 21 23  1  0
  8  1  1  0
 23 12  1  0
 23  1  1  0
 19 13  1  0
  1 24  1  6
  2 25  1  0
  2 26  1  0
  3 27  1  0
  3 28  1  0
  5 29  1  0
  7 30  1  0
  9 31  1  0
  9 32  1  0
  9 33  1  0
 10 34  1  0
 10 35  1  0
 11 36  1  0
 11 37  1  0
 12 38  1  6
 15 39  1  0
 15 40  1  0
 18 41  1  0
 18 42  1  0
 19 43  1  0
 19 44  1  0
 20 45  1  0
 20 46  1  0
 21 47  1  6
 22 48  1  0
 22 49  1  0
 22 50  1  0
 23 51  1  1
M  END
$$$$
