
     RDKit          3D

 53 57  0  0  0  0  0  0  0  0999 V2000
   -4.8818   -5.4962   -1.9788 F   0  0  0  0  0  0  0  0  0  0  0  0
   -3.9934   -4.5414   -1.6085 C   0  0  0  0  0  0  0  0  0  0  0  0
   -4.0304   -4.0171   -0.3132 C   0  0  0  0  0  0  0  0  0  0  0  0
   -3.1157   -3.0318    0.0703 C   0  0  0  0  0  0  0  0  0  0  0  0
   -2.1522   -2.5699   -0.8400 C   0  0  0  0  0  0  0  0  0  0  0  0
   -2.1267   -3.0912   -2.1456 C   0  0  0  0  0  0  0  0  0  0  0  0
   -1.2288   -2.6328   -3.0543 F   0  0  0  0  0  0  0  0  0  0  0  0
   -3.0443   -4.0770   -2.5240 C   0  0  0  0  0  0  0  0  0  0  0  0
   -1.1915   -1.5259   -0.4256 C   0  0  0  0  0  0  0  0  0  0  0  0
    0.1851   -1.8066   -0.2400 C   0  0  0  0  0  0  0  0  0  0  0  0
    0.7227   -3.2063   -0.4783 C   0  0  0  0  0  0  0  0  0  0  0  0
    1.9944   -3.4388    0.1981 N   0  0  0  0  0  0  0  0  0  0  0  0
    2.9243   -2.3767    0.3944 C   0  0  0  0  0  0  0  0  0  0  0  0
    4.1255   -2.6396    0.6744 O   0  0  0  0  0  0  0  0  0  0  0  0
    2.4784   -1.0191    0.2828 N   0  0  0  0  0  0  0  0  0  0  0  0
    1.0692   -0.7540    0.1007 C   0  0  0  0  0  0  0  0  0  0  0  0
    0.5564    0.5429    0.2927 C   0  0  0  0  0  0  0  0  0  0  0  0
   -0.8071    0.8115    0.1359 C   0  0  0  0  0  0  0  0  0  0  0  0
   -1.6744   -0.2277   -0.2182 C   0  0  0  0  0  0  0  0  0  0  0  0
   -1.3069    2.1462    0.3423 N   0  0  0  0  0  0  0  0  0  0  0  0
   -2.5680    2.3645    1.0575 C   0  0  0  0  0  0  0  0  0  0  0  0
   -2.4974    3.6756    1.8494 C   0  0  0  0  0  0  0  0  0  0  0  0
   -2.0758    4.7949    0.9953 N   0  0  0  0  0  0  0  0  0  0  0  0
   -0.7542    4.5364    0.4065 C   0  0  0  0  0  0  0  0  0  0  0  0
   -0.7647    3.2605   -0.4420 C   0  0  0  0  0  0  0  0  0  0  0  0
    3.4409    0.0484    0.3436 C   0  0  0  0  0  0  0  0  0  0  0  0
    3.9290    0.4951    1.5863 C   0  0  0  0  0  0  0  0  0  0  0  0
    3.3715   -0.2270    3.0894 Cl  0  0  0  0  0  0  0  0  0  0  0  0
    4.8533    1.5443    1.6373 C   0  0  0  0  0  0  0  0  0  0  0  0
    5.2918    2.1525    0.4589 C   0  0  0  0  0  0  0  0  0  0  0  0
    4.8072    1.7169   -0.7765 C   0  0  0  0  0  0  0  0  0  0  0  0
    3.8826    0.6687   -0.8400 C   0  0  0  0  0  0  0  0  0  0  0  0
    3.2915    0.1425   -2.4101 Cl  0  0  0  0  0  0  0  0  0  0  0  0
   -4.7677   -4.3735    0.3946 H   0  0  0  0  0  0  0  0  0  0  0  0
   -3.1527   -2.6336    1.0770 H   0  0  0  0  0  0  0  0  0  0  0  0
   -3.0226   -4.4776   -3.5293 H   0  0  0  0  0  0  0  0  0  0  0  0
   -0.0049   -3.9622   -0.1133 H   0  0  0  0  0  0  0  0  0  0  0  0
    0.8667   -3.3568   -1.5686 H   0  0  0  0  0  0  0  0  0  0  0  0
    2.3162   -4.4240    0.3309 H   0  0  0  0  0  0  0  0  0  0  0  0
    1.2116    1.3495    0.5936 H   0  0  0  0  0  0  0  0  0  0  0  0
   -2.7284   -0.0205   -0.3613 H   0  0  0  0  0  0  0  0  0  0  0  0
   -2.7634    1.5299    1.7661 H   0  0  0  0  0  0  0  0  0  0  0  0
   -3.4039    2.4117    0.3262 H   0  0  0  0  0  0  0  0  0  0  0  0
   -1.7877    3.5630    2.6987 H   0  0  0  0  0  0  0  0  0  0  0  0
   -3.4983    3.8985    2.2776 H   0  0  0  0  0  0  0  0  0  0  0  0
   -2.7745    4.9167    0.2242 H   0  0  0  0  0  0  0  0  0  0  0  0
   -0.4628    5.3980   -0.2318 H   0  0  0  0  0  0  0  0  0  0  0  0
    0.0065    4.4442    1.2131 H   0  0  0  0  0  0  0  0  0  0  0  0
   -1.3993    3.4155   -1.3414 H   0  0  0  0  0  0  0  0  0  0  0  0
    0.2695    3.0468   -0.7869 H   0  0  0  0  0  0  0  0  0  0  0  0
    5.2290    1.8927    2.5909 H   0  0  0  0  0  0  0  0  0  0  0  0
    6.0059    2.9645    0.5033 H   0  0  0  0  0  0  0  0  0  0  0  0
    5.1506    2.1955   -1.6848 H   0  0  0  0  0  0  0  0  0  0  0  0
  1  2  1  0
  2  3  2  0
  3  4  1  0
  4  5  2  0
  5  6  1  0
  6  7  1  0
  6  8  2  0
  5  9  1  0
  9 10  2  0
 10 11  1  0
 11 12  1  0
 12 13  1  0
 13 14  2  0
 13 15  1  0
 15 16  1  0
 16 17  2  0
 17 18  1  0
 18 19  2  0
 18 20  1  0
 20 21  1  0
 21 22  1  0
 22 23  1  0
 23 24  1  0
 24 25  1  0
 15 26  1  0
 26 27  2  0
 27 28  1  0
 27 29  1  0
 29 30  2  0
 30 31  1  0
 31 32  2  0
 32 33  1  0
  8  2  1  0
 19  9  1  0
 25 20  1  0
 32 26  1  0
 16 10  1  0
  3 34  1  0
  4 35  1  0
  8 36  1  0
 11 37  1  0
 11 38  1  0
 12 39  1  0
 17 40  1  0
 19 41  1  0
 21 42  1  0
 21 43  1  0
 22 44  1  0
 22 45  1  0
 23 46  1  0
 24 47  1  0
 24 48  1  0
 25 49  1  0
 25 50  1  0
 29 51  1  0
 30 52  1  0
 31 53  1  0
M  END
$$$$
