
     RDKit          3D

 47 51  0  0  0  0  0  0  0  0999 V2000
    2.0328    0.8424    0.5113 C   0  0  0  0  0  0  0  0  0  0  0  0
    1.4908    0.2010   -0.6396 O   0  0  0  0  0  0  0  0  0  0  0  0
    0.1369    0.2369   -1.0037 C   0  0  0  0  0  0  0  0  0  0  0  0
   -0.8302    0.9282   -0.2501 C   0  0  0  0  0  0  0  0  0  0  0  0
   -2.1684    0.9310   -0.6538 C   0  0  0  0  0  0  0  0  0  0  0  0
   -2.5658    0.2319   -1.8056 C   0  0  0  0  0  0  0  0  0  0  0  0
   -1.5959   -0.4377   -2.5668 C   0  0  0  0  0  0  0  0  0  0  0  0
   -0.2577   -0.4398   -2.1630 C   0  0  0  0  0  0  0  0  0  0  0  0
   -3.9747    0.2377   -2.2527 C   0  0  0  0  0  0  0  0  0  0  0  0
   -4.3284    0.3325   -3.5507 N   0  0  0  0  0  0  0  0  0  0  0  0
   -5.6489    0.3850   -3.6102 N   0  0  0  0  0  0  0  0  0  0  0  0
   -6.1643    0.3258   -2.3706 C   0  0  0  0  0  0  0  0  0  0  0  0
   -5.1251    0.2210   -1.4669 C   0  0  0  0  0  0  0  0  0  0  0  0
   -5.2631    0.0185   -0.0082 C   0  0  0  0  0  0  0  0  0  0  0  0
   -4.4348   -0.8855    0.6757 C   0  0  0  0  0  0  0  0  0  0  0  0
   -4.5981   -1.0656    2.0511 C   0  0  0  0  0  0  0  0  0  0  0  0
   -5.5623   -0.3793    2.7194 N   0  0  0  0  0  0  0  0  0  0  0  0
   -6.3892    0.4903    2.0811 C   0  0  0  0  0  0  0  0  0  0  0  0
   -6.2597    0.7004    0.7061 C   0  0  0  0  0  0  0  0  0  0  0  0
    3.5048    0.5821    0.5723 C   0  0  0  0  0  0  0  0  0  0  0  0
    4.3912    1.3162   -0.2290 C   0  0  0  0  0  0  0  0  0  0  0  0
    5.7582    1.0353   -0.1816 C   0  0  0  0  0  0  0  0  0  0  0  0
    6.2316    0.0183    0.6563 C   0  0  0  0  0  0  0  0  0  0  0  0
    7.5980   -0.2914    0.7277 C   0  0  0  0  0  0  0  0  0  0  0  0
    8.0383   -1.3162    1.5718 C   0  0  0  0  0  0  0  0  0  0  0  0
    7.1205   -2.0346    2.3453 C   0  0  0  0  0  0  0  0  0  0  0  0
    5.7565   -1.7325    2.2799 C   0  0  0  0  0  0  0  0  0  0  0  0
    5.3063   -0.7080    1.4393 C   0  0  0  0  0  0  0  0  0  0  0  0
    3.9806   -0.4114    1.3725 N   0  0  0  0  0  0  0  0  0  0  0  0
    1.8488    1.9376    0.4563 H   0  0  0  0  0  0  0  0  0  0  0  0
    1.5453    0.4435    1.4275 H   0  0  0  0  0  0  0  0  0  0  0  0
   -0.5581    1.4714    0.6444 H   0  0  0  0  0  0  0  0  0  0  0  0
   -2.8893    1.4920   -0.0730 H   0  0  0  0  0  0  0  0  0  0  0  0
   -1.8764   -0.9709   -3.4669 H   0  0  0  0  0  0  0  0  0  0  0  0
    0.4775   -0.9704   -2.7546 H   0  0  0  0  0  0  0  0  0  0  0  0
   -6.1937    0.4547   -4.4978 H   0  0  0  0  0  0  0  0  0  0  0  0
   -7.2230    0.3213   -2.1460 H   0  0  0  0  0  0  0  0  0  0  0  0
   -3.6797   -1.4568    0.1511 H   0  0  0  0  0  0  0  0  0  0  0  0
   -3.9614   -1.7571    2.5866 H   0  0  0  0  0  0  0  0  0  0  0  0
   -7.1487    1.0193    2.6412 H   0  0  0  0  0  0  0  0  0  0  0  0
   -6.9212    1.3984    0.2080 H   0  0  0  0  0  0  0  0  0  0  0  0
    4.0254    2.0974   -0.8840 H   0  0  0  0  0  0  0  0  0  0  0  0
    6.4408    1.6071   -0.7988 H   0  0  0  0  0  0  0  0  0  0  0  0
    8.3207    0.2554    0.1338 H   0  0  0  0  0  0  0  0  0  0  0  0
    9.0927   -1.5546    1.6263 H   0  0  0  0  0  0  0  0  0  0  0  0
    7.4670   -2.8269    2.9963 H   0  0  0  0  0  0  0  0  0  0  0  0
    5.0532   -2.2941    2.8823 H   0  0  0  0  0  0  0  0  0  0  0  0
  1  2  1  0
  2  3  1  0
  3  4  2  0
  4  5  1  0
  5  6  2  0
  6  7  1  0
  7  8  2  0
  6  9  1  0
  9 10  2  0
 10 11  1  0
 11 12  1  0
 12 13  2  0
 13 14  1  0
 14 15  2  0
 15 16  1  0
 16 17  2  0
 17 18  1  0
 18 19  2  0
  1 20  1  0
 20 21  2  0
 21 22  1  0
 22 23  2  0
 23 24  1  0
 24 25  2  0
 25 26  1  0
 26 27  2  0
 27 28  1  0
 28 29  2  0
  8  3  1  0
 13  9  1  0
 19 14  1  0
 29 20  1  0
 28 23  1  0
  1 30  1  0
  1 31  1  0
  4 32  1  0
  5 33  1  0
  7 34  1  0
  8 35  1  0
 11 36  1  0
 12 37  1  0
 15 38  1  0
 16 39  1  0
 18 40  1  0
 19 41  1  0
 21 42  1  0
 22 43  1  0
 24 44  1  0
 25 45  1  0
 26 46  1  0
 27 47  1  0
M  END
$$$$
