
     RDKit          3D

 75 79  0  0  0  0  0  0  0  0999 V2000
   -1.5446    1.0622   -2.0038 C   0  0  2  0  0  0  0  0  0  0  0  0
   -2.0185   -0.2578   -1.6058 N   0  0  0  0  0  0  0  0  0  0  0  0
   -1.1455   -0.8467   -0.8628 C   0  0  0  0  0  0  0  0  0  0  0  0
    0.0322   -0.0766   -0.6338 N   0  0  0  0  0  0  0  0  0  0  0  0
    1.0150   -0.3304    0.3909 C   0  0  0  0  0  0  0  0  0  0  0  0
    0.6891   -1.0023    1.4075 O   0  0  0  0  0  0  0  0  0  0  0  0
    2.3508    0.2005    0.2904 N   0  0  0  0  0  0  0  0  0  0  0  0
    3.1424    0.4599    1.4980 C   0  0  0  0  0  0  0  0  0  0  0  0
    4.3832   -0.4513    1.5256 C   0  0  0  0  0  0  0  0  0  0  0  0
    4.8383   -0.8373    0.1674 N   0  0  0  0  0  0  0  0  0  0  0  0
    6.2351   -1.3264    0.1417 C   0  0  0  0  0  0  0  0  0  0  0  0
    7.3061   -0.2156    0.2064 C   0  0  0  0  0  0  0  0  0  0  0  0
    7.4940    0.3798   -1.0495 O   0  0  0  0  0  0  0  0  0  0  0  0
    4.5373    0.1724   -0.8638 C   0  0  0  0  0  0  0  0  0  0  0  0
    3.0165    0.3066   -1.0150 C   0  0  0  0  0  0  0  0  0  0  0  0
   -0.1296    1.1822   -1.3622 C   0  0  2  0  0  0  0  0  0  0  0  0
    0.0664    2.3989   -0.4677 C   0  0  0  0  0  0  0  0  0  0  0  0
    0.7092    3.5387   -0.9799 C   0  0  0  0  0  0  0  0  0  0  0  0
    0.8610    4.6814   -0.1895 C   0  0  0  0  0  0  0  0  0  0  0  0
    0.3644    4.7021    1.1168 C   0  0  0  0  0  0  0  0  0  0  0  0
    0.5664    6.2671    2.1918 Br  0  0  0  0  0  0  0  0  0  0  0  0
   -0.2871    3.5786    1.6328 C   0  0  0  0  0  0  0  0  0  0  0  0
   -0.4399    2.4342    0.8460 C   0  0  0  0  0  0  0  0  0  0  0  0
   -1.3484   -2.2302   -0.3801 C   0  0  0  0  0  0  0  0  0  0  0  0
   -2.5962   -2.6376    0.1343 C   0  0  0  0  0  0  0  0  0  0  0  0
   -3.6336   -1.6940    0.2252 O   0  0  0  0  0  0  0  0  0  0  0  0
   -4.9454   -1.9692    0.7085 C   0  0  0  0  0  0  0  0  0  0  0  0
   -5.7805   -0.6997    0.6570 C   0  0  0  0  0  0  0  0  0  0  0  0
   -2.7673   -3.9714    0.5571 C   0  0  0  0  0  0  0  0  0  0  0  0
   -1.7064   -4.8925    0.4708 C   0  0  0  0  0  0  0  0  0  0  0  0
   -1.8323   -6.2278    0.8833 O   0  0  0  0  0  0  0  0  0  0  0  0
   -3.0198   -6.7949    1.4270 C   0  0  0  0  0  0  0  0  0  0  0  0
   -0.4778   -4.4732   -0.0447 C   0  0  0  0  0  0  0  0  0  0  0  0
   -0.2991   -3.1572   -0.4710 C   0  0  0  0  0  0  0  0  0  0  0  0
   -2.5370    2.1419   -1.6087 C   0  0  0  0  0  0  0  0  0  0  0  0
   -3.3540    2.0122   -0.4685 C   0  0  0  0  0  0  0  0  0  0  0  0
   -4.2146    3.0471   -0.0933 C   0  0  0  0  0  0  0  0  0  0  0  0
   -4.2630    4.2255   -0.8431 C   0  0  0  0  0  0  0  0  0  0  0  0
   -5.4311    5.6430   -0.3210 Br  0  0  0  0  0  0  0  0  0  0  0  0
   -3.4478    4.3693   -1.9695 C   0  0  0  0  0  0  0  0  0  0  0  0
   -2.5870    3.3354   -2.3490 C   0  0  0  0  0  0  0  0  0  0  0  0
   -1.4402    1.0620   -3.1120 H   0  0  0  0  0  0  0  0  0  0  0  0
    2.5437    0.3208    2.4242 H   0  0  0  0  0  0  0  0  0  0  0  0
    3.4698    1.5225    1.4830 H   0  0  0  0  0  0  0  0  0  0  0  0
    5.1836    0.0600    2.1009 H   0  0  0  0  0  0  0  0  0  0  0  0
    4.1221   -1.3795    2.0782 H   0  0  0  0  0  0  0  0  0  0  0  0
    6.3949   -2.0227    0.9947 H   0  0  0  0  0  0  0  0  0  0  0  0
    6.3892   -1.9339   -0.7764 H   0  0  0  0  0  0  0  0  0  0  0  0
    8.2672   -0.6547    0.5587 H   0  0  0  0  0  0  0  0  0  0  0  0
    7.0260    0.5706    0.9352 H   0  0  0  0  0  0  0  0  0  0  0  0
    8.0096   -0.2673   -1.5982 H   0  0  0  0  0  0  0  0  0  0  0  0
    4.9652   -0.1310   -1.8448 H   0  0  0  0  0  0  0  0  0  0  0  0
    4.9691    1.1581   -0.5789 H   0  0  0  0  0  0  0  0  0  0  0  0
    2.6552   -0.5051   -1.6846 H   0  0  0  0  0  0  0  0  0  0  0  0
    2.7859    1.2880   -1.4778 H   0  0  0  0  0  0  0  0  0  0  0  0
    0.6135    1.2019   -2.1878 H   0  0  0  0  0  0  0  0  0  0  0  0
    1.0888    3.5449   -1.9940 H   0  0  0  0  0  0  0  0  0  0  0  0
    1.3600    5.5520   -0.5953 H   0  0  0  0  0  0  0  0  0  0  0  0
   -0.6808    3.5931    2.6409 H   0  0  0  0  0  0  0  0  0  0  0  0
   -0.9621    1.5804    1.2582 H   0  0  0  0  0  0  0  0  0  0  0  0
   -4.8937   -2.3266    1.7597 H   0  0  0  0  0  0  0  0  0  0  0  0
   -5.4242   -2.7458    0.0736 H   0  0  0  0  0  0  0  0  0  0  0  0
   -5.8176   -0.3108   -0.3828 H   0  0  0  0  0  0  0  0  0  0  0  0
   -6.8142   -0.9164    0.9994 H   0  0  0  0  0  0  0  0  0  0  0  0
   -5.3371    0.0732    1.3198 H   0  0  0  0  0  0  0  0  0  0  0  0
   -3.7192   -4.2901    0.9542 H   0  0  0  0  0  0  0  0  0  0  0  0
   -3.8459   -6.7331    0.6874 H   0  0  0  0  0  0  0  0  0  0  0  0
   -2.8356   -7.8625    1.6650 H   0  0  0  0  0  0  0  0  0  0  0  0
   -3.3023   -6.2661    2.3618 H   0  0  0  0  0  0  0  0  0  0  0  0
    0.3432   -5.1749   -0.1213 H   0  0  0  0  0  0  0  0  0  0  0  0
    0.6578   -2.8650   -0.8861 H   0  0  0  0  0  0  0  0  0  0  0  0
   -3.3119    1.1217    0.1437 H   0  0  0  0  0  0  0  0  0  0  0  0
   -4.8362    2.9356    0.7858 H   0  0  0  0  0  0  0  0  0  0  0  0
   -3.4756    5.2839   -2.5476 H   0  0  0  0  0  0  0  0  0  0  0  0
   -1.9494    3.4695   -3.2142 H   0  0  0  0  0  0  0  0  0  0  0  0
  1  2  1  0
  2  3  2  0
  3  4  1  0
  4  5  1  0
  5  6  2  0
  5  7  1  0
  7  8  1  0
  8  9  1  0
  9 10  1  0
 10 11  1  0
 11 12  1  0
 12 13  1  0
 10 14  1  0
 14 15  1  0
  4 16  1  0
 16 17  1  0
 17 18  2  0
 18 19  1  0
 19 20  2  0
 20 21  1  0
 20 22  1  0
 22 23  2  0
  3 24  1  0
 24 25  2  0
 25 26  1  0
 26 27  1  0
 27 28  1  0
 25 29  1  0
 29 30  2  0
 30 31  1  0
 31 32  1  0
 30 33  1  0
 33 34  2  0
  1 35  1  0
 35 36  2  0
 36 37  1  0
 37 38  2  0
 38 39  1  0
 38 40  1  0
 40 41  2  0
 16  1  1  0
 23 17  1  0
 34 24  1  0
 41 35  1  0
 15  7  1  0
  1 42  1  6
  8 43  1  0
  8 44  1  0
  9 45  1  0
  9 46  1  0
 11 47  1  0
 11 48  1  0
 12 49  1  0
 12 50  1  0
 13 51  1  0
 14 52  1  0
 14 53  1  0
 15 54  1  0
 15 55  1  0
 16 56  1  6
 18 57  1  0
 19 58  1  0
 22 59  1  0
 23 60  1  0
 27 61  1  0
 27 62  1  0
 28 63  1  0
 28 64  1  0
 28 65  1  0
 29 66  1  0
 32 67  1  0
 32 68  1  0
 32 69  1  0
 33 70  1  0
 34 71  1  0
 36 72  1  0
 37 73  1  0
 40 74  1  0
 41 75  1  0
M  END
$$$$
