
     RDKit          3D

 67 71  0  0  0  0  0  0  0  0999 V2000
    4.8300   -2.9268    1.0629 C   0  0  0  0  0  0  0  0  0  0  0  0
    3.3371   -3.1092    1.2868 C   0  0  0  0  0  0  0  0  0  0  0  0
    2.6377   -2.5885    0.1772 O   0  0  0  0  0  0  0  0  0  0  0  0
    1.2488   -2.8142    0.3315 C   0  0  2  0  0  0  0  0  0  0  0  0
    0.9382   -4.1457   -0.0480 O   0  0  0  0  0  0  0  0  0  0  0  0
    0.3178   -4.1794   -1.2776 C   0  0  0  0  0  0  0  0  0  0  0  0
   -0.0193   -5.2511   -1.8447 O   0  0  0  0  0  0  0  0  0  0  0  0
    0.1115   -2.8364   -1.8531 C   0  0  0  0  0  0  0  0  0  0  0  0
    0.4492   -1.9304   -0.6570 C   0  0  2  0  0  0  0  0  0  0  0  0
    1.1792   -0.7208   -1.0534 N   0  0  0  0  0  0  0  0  0  0  0  0
    1.3645    0.3722   -0.1418 C   0  0  0  0  0  0  0  0  0  0  0  0
    0.9780    0.2690    1.0552 O   0  0  0  0  0  0  0  0  0  0  0  0
    1.9660    1.6675   -0.6155 C   0  0  2  0  0  0  0  0  0  0  0  0
    3.2461    1.9895    0.1816 C   0  0  0  0  0  0  0  0  0  0  0  0
    3.5386    3.4855    0.1337 C   0  0  0  0  0  0  0  0  0  0  0  0
    2.4247    4.2494    0.8519 C   0  0  0  0  0  0  0  0  0  0  0  0
    1.0953    3.7423    0.4826 N   0  0  0  0  0  0  0  0  0  0  0  0
    0.9632    2.7454   -0.5098 N   0  0  0  0  0  0  0  0  0  0  0  0
    0.0626    2.9617   -1.6125 C   0  0  0  0  0  0  0  0  0  0  0  0
    0.5393    3.1581   -2.7630 O   0  0  0  0  0  0  0  0  0  0  0  0
   -1.4386    2.8811   -1.4509 C   0  0  2  0  0  0  0  0  0  0  0  0
   -1.9873    3.8377   -0.3781 C   0  0  0  0  0  0  0  0  0  0  0  0
   -1.3969    3.6030    1.0163 C   0  0  0  0  0  0  0  0  0  0  0  0
   -0.0632    4.2700    1.1501 C   0  0  0  0  0  0  0  0  0  0  0  0
    0.0347    5.3068    1.8621 O   0  0  0  0  0  0  0  0  0  0  0  0
   -1.8527    1.5003   -1.1832 N   0  0  0  0  0  0  0  0  0  0  0  0
   -3.1495    0.9933   -1.5362 C   0  0  0  0  0  0  0  0  0  0  0  0
   -3.9990    1.7459   -2.0848 O   0  0  0  0  0  0  0  0  0  0  0  0
   -3.4624   -0.4381   -1.3610 C   0  0  0  0  0  0  0  0  0  0  0  0
   -3.9423   -1.1146   -2.4402 N   0  0  0  0  0  0  0  0  0  0  0  0
   -4.1590   -2.4546   -2.4247 C   0  0  0  0  0  0  0  0  0  0  0  0
   -3.8677   -3.1985   -1.2839 C   0  0  0  0  0  0  0  0  0  0  0  0
   -3.3936   -2.5467   -0.1400 C   0  0  0  0  0  0  0  0  0  0  0  0
   -3.0996   -3.2794    1.0204 C   0  0  0  0  0  0  0  0  0  0  0  0
   -2.6570   -2.6247    2.1711 C   0  0  0  0  0  0  0  0  0  0  0  0
   -2.5260   -1.2356    2.1806 C   0  0  0  0  0  0  0  0  0  0  0  0
   -2.8132   -0.4932    1.0326 C   0  0  0  0  0  0  0  0  0  0  0  0
   -3.2140   -1.1399   -0.1549 C   0  0  0  0  0  0  0  0  0  0  0  0
    5.0672   -1.8478    0.9465 H   0  0  0  0  0  0  0  0  0  0  0  0
    5.1458   -3.4704    0.1473 H   0  0  0  0  0  0  0  0  0  0  0  0
    5.3923   -3.3279    1.9325 H   0  0  0  0  0  0  0  0  0  0  0  0
    3.1317   -4.1966    1.4148 H   0  0  0  0  0  0  0  0  0  0  0  0
    3.0567   -2.5644    2.2168 H   0  0  0  0  0  0  0  0  0  0  0  0
    0.8942   -2.6152    1.3708 H   0  0  0  0  0  0  0  0  0  0  0  0
    0.8135   -2.6955   -2.7024 H   0  0  0  0  0  0  0  0  0  0  0  0
   -0.9397   -2.6977   -2.1850 H   0  0  0  0  0  0  0  0  0  0  0  0
   -0.5046   -1.6354   -0.1735 H   0  0  0  0  0  0  0  0  0  0  0  0
    1.4938   -0.6051   -2.0431 H   0  0  0  0  0  0  0  0  0  0  0  0
    2.2713    1.5614   -1.6805 H   0  0  0  0  0  0  0  0  0  0  0  0
    3.1480    1.6810    1.2468 H   0  0  0  0  0  0  0  0  0  0  0  0
    4.1039    1.4295   -0.2509 H   0  0  0  0  0  0  0  0  0  0  0  0
    4.5113    3.6947    0.6290 H   0  0  0  0  0  0  0  0  0  0  0  0
    3.6079    3.8226   -0.9242 H   0  0  0  0  0  0  0  0  0  0  0  0
    2.4981    5.3278    0.5936 H   0  0  0  0  0  0  0  0  0  0  0  0
    2.5645    4.1416    1.9501 H   0  0  0  0  0  0  0  0  0  0  0  0
   -1.8857    3.1960   -2.4209 H   0  0  0  0  0  0  0  0  0  0  0  0
   -3.0892    3.7028   -0.3186 H   0  0  0  0  0  0  0  0  0  0  0  0
   -1.8150    4.8910   -0.6939 H   0  0  0  0  0  0  0  0  0  0  0  0
   -2.0928    4.0241    1.7747 H   0  0  0  0  0  0  0  0  0  0  0  0
   -1.2934    2.5195    1.2335 H   0  0  0  0  0  0  0  0  0  0  0  0
   -1.1600    0.8312   -0.7860 H   0  0  0  0  0  0  0  0  0  0  0  0
   -4.5376   -2.9472   -3.3102 H   0  0  0  0  0  0  0  0  0  0  0  0
   -4.0211   -4.2710   -1.2924 H   0  0  0  0  0  0  0  0  0  0  0  0
   -3.2155   -4.3566    1.0381 H   0  0  0  0  0  0  0  0  0  0  0  0
   -2.4308   -3.1942    3.0632 H   0  0  0  0  0  0  0  0  0  0  0  0
   -2.2047   -0.7309    3.0826 H   0  0  0  0  0  0  0  0  0  0  0  0
   -2.7312    0.5824    1.0876 H   0  0  0  0  0  0  0  0  0  0  0  0
  1  2  1  0
  2  3  1  0
  3  4  1  0
  4  5  1  0
  5  6  1  0
  6  7  2  0
  6  8  1  0
  8  9  1  0
  9 10  1  0
 10 11  1  0
 11 12  2  0
 11 13  1  0
 13 14  1  0
 14 15  1  0
 15 16  1  0
 16 17  1  0
 17 18  1  0
 18 19  1  0
 19 20  2  0
 19 21  1  0
 21 22  1  0
 22 23  1  0
 23 24  1  0
 24 25  2  0
 21 26  1  0
 26 27  1  0
 27 28  2  0
 27 29  1  0
 29 30  2  0
 30 31  1  0
 31 32  2  0
 32 33  1  0
 33 34  2  0
 34 35  1  0
 35 36  2  0
 36 37  1  0
 37 38  2  0
  9  4  1  0
 18 13  1  0
 38 29  1  0
 24 17  1  0
 38 33  1  0
  1 39  1  0
  1 40  1  0
  1 41  1  0
  2 42  1  0
  2 43  1  0
  4 44  1  1
  8 45  1  0
  8 46  1  0
  9 47  1  1
 10 48  1  0
 13 49  1  6
 14 50  1  0
 14 51  1  0
 15 52  1  0
 15 53  1  0
 16 54  1  0
 16 55  1  0
 21 56  1  6
 22 57  1  0
 22 58  1  0
 23 59  1  0
 23 60  1  0
 26 61  1  0
 31 62  1  0
 32 63  1  0
 34 64  1  0
 35 65  1  0
 36 66  1  0
 37 67  1  0
M  END
$$$$
