
     RDKit          3D

 57 59  0  0  0  0  0  0  0  0999 V2000
    5.4048   -0.1935   -1.9823 C   0  0  2  0  0  0  0  0  0  0  0  0
    6.3905   -0.3532   -0.8057 C   0  0  0  0  0  0  0  0  0  0  0  0
    6.1317   -1.6057    0.0458 C   0  0  0  0  0  0  0  0  0  0  0  0
    7.0847   -1.6573    1.1976 C   0  0  0  0  0  0  0  0  0  0  0  0
    8.3311   -2.2549    1.0393 O   0  0  0  0  0  0  0  0  0  0  0  0
    6.7759   -1.1250    2.2973 O   0  0  0  0  0  0  0  0  0  0  0  0
    4.0133   -0.1833   -1.5109 N   0  0  0  0  0  0  0  0  0  0  0  0
    3.4696    0.9208   -0.7681 C   0  0  0  0  0  0  0  0  0  0  0  0
    4.0832    2.0231   -0.7509 O   0  0  0  0  0  0  0  0  0  0  0  0
    2.1892    0.7900   -0.0331 C   0  0  0  0  0  0  0  0  0  0  0  0
    1.7330   -0.4644    0.4103 C   0  0  0  0  0  0  0  0  0  0  0  0
    0.5275   -0.5738    1.1091 C   0  0  0  0  0  0  0  0  0  0  0  0
   -0.2392    0.5677    1.3857 C   0  0  0  0  0  0  0  0  0  0  0  0
   -1.5532    0.4405    2.1138 C   0  0  0  0  0  0  0  0  0  0  0  0
   -2.6669   -0.1261    1.2150 C   0  0  0  0  0  0  0  0  0  0  0  0
   -2.9934    0.7410   -0.0317 C   0  0  2  0  0  0  0  0  0  0  0  0
   -3.5922    2.1111    0.3331 C   0  0  0  0  0  0  0  0  0  0  0  0
   -4.9009    1.9397    0.9554 N   0  0  0  0  0  0  0  0  0  0  0  0
   -5.8218    0.9512    0.4724 C   0  0  0  0  0  0  0  0  0  0  0  0
   -5.3974   -0.0110   -0.4660 C   0  0  0  0  0  0  0  0  0  0  0  0
   -3.9682   -0.0002   -0.9765 C   0  0  0  0  0  0  0  0  0  0  0  0
   -6.3562   -0.9270   -0.9466 C   0  0  0  0  0  0  0  0  0  0  0  0
   -6.0610   -1.8622   -1.9399 O   0  0  0  0  0  0  0  0  0  0  0  0
   -7.6164   -0.9015   -0.4426 N   0  0  0  0  0  0  0  0  0  0  0  0
   -7.9910    0.0038    0.4979 C   0  0  0  0  0  0  0  0  0  0  0  0
   -9.2000   -0.0052    0.9604 N   0  0  0  0  0  0  0  0  0  0  0  0
   -7.0982    0.9265    0.9451 N   0  0  0  0  0  0  0  0  0  0  0  0
    0.2170    1.8218    0.9533 C   0  0  0  0  0  0  0  0  0  0  0  0
    1.4226    1.9328    0.2552 C   0  0  0  0  0  0  0  0  0  0  0  0
    5.6243   -1.2539   -3.0312 C   0  0  0  0  0  0  0  0  0  0  0  0
    6.4430   -0.9791   -4.1223 O   0  0  0  0  0  0  0  0  0  0  0  0
    5.1094   -2.3986   -2.9106 O   0  0  0  0  0  0  0  0  0  0  0  0
    5.6152    0.7840   -2.4699 H   0  0  0  0  0  0  0  0  0  0  0  0
    7.4296   -0.3851   -1.2031 H   0  0  0  0  0  0  0  0  0  0  0  0
    6.3165    0.5463   -0.1559 H   0  0  0  0  0  0  0  0  0  0  0  0
    6.2683   -2.5210   -0.5672 H   0  0  0  0  0  0  0  0  0  0  0  0
    5.0909   -1.5995    0.4355 H   0  0  0  0  0  0  0  0  0  0  0  0
    8.9942   -2.2836    1.8046 H   0  0  0  0  0  0  0  0  0  0  0  0
    3.3877   -0.9888   -1.7367 H   0  0  0  0  0  0  0  0  0  0  0  0
    2.3136   -1.3613    0.2395 H   0  0  0  0  0  0  0  0  0  0  0  0
    0.1926   -1.5496    1.4387 H   0  0  0  0  0  0  0  0  0  0  0  0
   -1.8623    1.4134    2.5498 H   0  0  0  0  0  0  0  0  0  0  0  0
   -1.4156   -0.2475    2.9762 H   0  0  0  0  0  0  0  0  0  0  0  0
   -3.5809   -0.2601    1.8327 H   0  0  0  0  0  0  0  0  0  0  0  0
   -2.3565   -1.1412    0.8831 H   0  0  0  0  0  0  0  0  0  0  0  0
   -2.0534    0.9115   -0.6001 H   0  0  0  0  0  0  0  0  0  0  0  0
   -2.9230    2.6861    1.0046 H   0  0  0  0  0  0  0  0  0  0  0  0
   -3.7148    2.7117   -0.5943 H   0  0  0  0  0  0  0  0  0  0  0  0
   -5.1658    2.5515    1.7598 H   0  0  0  0  0  0  0  0  0  0  0  0
   -3.5984   -1.0375   -1.1197 H   0  0  0  0  0  0  0  0  0  0  0  0
   -3.9598    0.4979   -1.9703 H   0  0  0  0  0  0  0  0  0  0  0  0
   -5.1751   -1.8968   -2.4263 H   0  0  0  0  0  0  0  0  0  0  0  0
   -9.9064   -0.7009    0.6305 H   0  0  0  0  0  0  0  0  0  0  0  0
   -7.3970    1.6308    1.6580 H   0  0  0  0  0  0  0  0  0  0  0  0
   -0.3620    2.7149    1.1522 H   0  0  0  0  0  0  0  0  0  0  0  0
    1.7492    2.9126   -0.0707 H   0  0  0  0  0  0  0  0  0  0  0  0
    6.6183   -1.6818   -4.8306 H   0  0  0  0  0  0  0  0  0  0  0  0
  1  2  1  0
  2  3  1  0
  3  4  1  0
  4  5  1  0
  4  6  2  0
  1  7  1  0
  7  8  1  0
  8  9  2  0
  8 10  1  0
 10 11  2  0
 11 12  1  0
 12 13  2  0
 13 14  1  0
 14 15  1  0
 15 16  1  0
 16 17  1  0
 17 18  1  0
 18 19  1  0
 19 20  2  0
 20 21  1  0
 20 22  1  0
 22 23  1  0
 22 24  2  0
 24 25  1  0
 25 26  2  3
 25 27  1  0
 13 28  1  0
 28 29  2  0
  1 30  1  0
 30 31  1  0
 30 32  2  0
 29 10  1  0
 21 16  1  0
 27 19  1  0
  1 33  1  6
  2 34  1  0
  2 35  1  0
  3 36  1  0
  3 37  1  0
  5 38  1  0
  7 39  1  0
 11 40  1  0
 12 41  1  0
 14 42  1  0
 14 43  1  0
 15 44  1  0
 15 45  1  0
 16 46  1  6
 17 47  1  0
 17 48  1  0
 18 49  1  0
 21 50  1  0
 21 51  1  0
 23 52  1  0
 26 53  1  0
 27 54  1  0
 28 55  1  0
 29 56  1  0
 31 57  1  0
M  END
$$$$
