
     RDKit          3D

  9  8  0  0  0  0  0  0  0  0999 V2000
    0.9677   -0.2743   -0.3693 C   0  0  0  0  0  0  0  0  0  0  0  0
   -0.4698   -0.1744    0.1191 C   0  0  0  0  0  0  0  0  0  0  0  0
   -0.8349    1.2093    0.2839 N   0  0  0  0  0  0  0  0  0  0  0  0
   -1.9277    1.5046    0.6618 O   0  0  0  0  0  0  0  0  0  0  0  0
    1.2459   -1.3419   -0.4953 H   0  0  0  0  0  0  0  0  0  0  0  0
    1.0762    0.2422   -1.3468 H   0  0  0  0  0  0  0  0  0  0  0  0
    1.6555    0.1907    0.3688 H   0  0  0  0  0  0  0  0  0  0  0  0
   -1.1459   -0.6524   -0.6225 H   0  0  0  0  0  0  0  0  0  0  0  0
   -0.5671   -0.7038    1.0916 H   0  0  0  0  0  0  0  0  0  0  0  0
  1  2  1  0
  2  3  1  0
  3  4  2  0
  1  5  1  0
  1  6  1  0
  1  7  1  0
  2  8  1  0
  2  9  1  0
M  END
$$$$
