
     RDKit          3D

 42 45  0  0  0  0  0  0  0  0999 V2000
   -3.2418    0.0916    1.6942 C   0  0  0  0  0  0  0  0  0  0  0  0
   -1.9683   -0.4935    1.8898 O   0  0  0  0  0  0  0  0  0  0  0  0
   -1.2175   -0.6093    0.6860 C   0  0  2  0  0  0  0  0  0  0  0  0
   -1.9657   -1.4542   -0.3810 C   0  0  1  0  0  0  0  0  0  0  0  0
   -1.1581   -1.8309   -1.5617 N   0  0  0  0  0  0  0  0  0  0  0  0
   -1.3196   -2.7637   -0.4341 C   0  0  1  0  0  0  0  0  0  0  0  0
   -0.0984   -2.7541    0.4655 C   0  0  0  0  0  0  0  0  0  0  0  0
   -0.0377   -1.4038    0.9982 N   0  0  0  0  0  0  0  0  0  0  0  0
    1.1129   -0.5792    0.9085 C   0  0  0  0  0  0  0  0  0  0  0  0
    0.8281    0.6392    0.5162 C   0  0  0  0  0  0  0  0  0  0  0  0
   -0.6403    0.7958    0.2528 C   0  0  1  0  0  0  0  0  0  0  0  0
   -0.8938    1.2176   -1.2067 C   0  0  0  0  0  0  0  0  0  0  0  0
   -2.2910    1.2392   -1.4799 O   0  0  0  0  0  0  0  0  0  0  0  0
   -2.8105    1.5515   -2.7382 C   0  0  0  0  0  0  0  0  0  0  0  0
   -4.2209    1.5350   -2.9387 N   0  0  0  0  0  0  0  0  0  0  0  0
   -2.0453    1.8448   -3.6965 O   0  0  0  0  0  0  0  0  0  0  0  0
    1.8773    1.6689    0.4235 C   0  0  0  0  0  0  0  0  0  0  0  0
    1.5776    2.8523    0.1120 O   0  0  0  0  0  0  0  0  0  0  0  0
    3.2892    1.2945    0.7168 C   0  0  0  0  0  0  0  0  0  0  0  0
    4.3100    2.2983    0.5868 N   0  0  0  0  0  0  0  0  0  0  0  0
    3.5866    0.0219    1.1030 C   0  0  0  0  0  0  0  0  0  0  0  0
    5.0062   -0.3907    1.4064 C   0  0  0  0  0  0  0  0  0  0  0  0
    2.4894   -0.9814    1.2393 C   0  0  0  0  0  0  0  0  0  0  0  0
    2.7226   -2.1514    1.6452 O   0  0  0  0  0  0  0  0  0  0  0  0
   -3.5444    0.5957    2.6346 H   0  0  0  0  0  0  0  0  0  0  0  0
   -3.2658    0.8550    0.8882 H   0  0  0  0  0  0  0  0  0  0  0  0
   -3.9919   -0.6995    1.4855 H   0  0  0  0  0  0  0  0  0  0  0  0
   -3.0635   -1.4312   -0.5539 H   0  0  0  0  0  0  0  0  0  0  0  0
   -1.8196   -2.1227   -2.3176 H   0  0  0  0  0  0  0  0  0  0  0  0
   -1.9287   -3.6669   -0.6571 H   0  0  0  0  0  0  0  0  0  0  0  0
   -0.2248   -3.4791    1.2961 H   0  0  0  0  0  0  0  0  0  0  0  0
    0.8099   -3.0017   -0.1260 H   0  0  0  0  0  0  0  0  0  0  0  0
   -1.0209    1.5975    0.9231 H   0  0  0  0  0  0  0  0  0  0  0  0
   -0.3748    0.5343   -1.9115 H   0  0  0  0  0  0  0  0  0  0  0  0
   -0.4863    2.2383   -1.3692 H   0  0  0  0  0  0  0  0  0  0  0  0
   -4.6264    1.7653   -3.8729 H   0  0  0  0  0  0  0  0  0  0  0  0
   -4.8592    1.2888   -2.1503 H   0  0  0  0  0  0  0  0  0  0  0  0
    5.3155    2.1118    0.7918 H   0  0  0  0  0  0  0  0  0  0  0  0
    4.0667    3.2659    0.2798 H   0  0  0  0  0  0  0  0  0  0  0  0
    5.6457   -0.2316    0.5126 H   0  0  0  0  0  0  0  0  0  0  0  0
    5.3982    0.2044    2.2581 H   0  0  0  0  0  0  0  0  0  0  0  0
    5.0794   -1.4628    1.6814 H   0  0  0  0  0  0  0  0  0  0  0  0
  1  2  1  0
  3  2  1  1
  3  4  1  0
  4  5  1  0
  5  6  1  0
  6  7  1  0
  7  8  1  0
  8  9  1  0
  9 10  2  0
 10 11  1  0
 11 12  1  0
 12 13  1  0
 13 14  1  0
 14 15  1  0
 14 16  2  0
 10 17  1  0
 17 18  2  0
 17 19  1  0
 19 20  1  0
 19 21  2  0
 21 22  1  0
 21 23  1  0
 23 24  2  0
  8  3  1  0
 23  9  1  0
 11  3  1  0
  6  4  1  0
  1 25  1  0
  1 26  1  0
  1 27  1  0
  4 28  1  6
  5 29  1  0
  6 30  1  6
  7 31  1  0
  7 32  1  0
 11 33  1  1
 12 34  1  0
 12 35  1  0
 15 36  1  0
 15 37  1  0
 20 38  1  0
 20 39  1  0
 22 40  1  0
 22 41  1  0
 22 42  1  0
M  END
$$$$
