
     RDKit          3D

 63 68  0  0  0  0  0  0  0  0999 V2000
   -2.1149   -0.9149    1.5726 C   0  0  1  0  0  0  0  0  0  0  0  0
   -3.4005   -0.0011    1.4564 C   0  0  0  0  0  0  0  0  0  0  0  0
   -3.5370    0.7330    0.1311 C   0  0  0  0  0  0  0  0  0  0  0  0
   -2.5753    0.5450   -0.8620 C   0  0  0  0  0  0  0  0  0  0  0  0
   -2.3276    1.4979   -1.7997 C   0  0  0  0  0  0  0  0  0  0  0  0
   -1.0737    1.3317   -2.3571 O   0  0  0  0  0  0  0  0  0  0  0  0
   -0.3712    0.2462   -1.7297 C   0  0  0  0  0  0  0  0  0  0  0  0
   -1.4302   -0.3930   -0.7643 C   0  0  2  0  0  0  0  0  0  0  0  0
   -1.8757   -1.8079   -1.2192 C   0  0  0  0  0  0  0  0  0  0  0  0
   -2.8531   -2.4572   -0.2205 C   0  0  0  0  0  0  0  0  0  0  0  0
   -2.3714   -2.3239    1.1712 N   0  0  0  0  0  0  0  0  0  0  0  0
   -3.2387   -3.0495    2.1132 C   0  0  0  0  0  0  0  0  0  0  0  0
   -0.9400   -0.3729    0.7062 C   0  0  2  0  0  0  0  0  0  0  0  0
    0.3725   -1.1984    0.7900 C   0  0  0  0  0  0  0  0  0  0  0  0
    1.4733   -0.6000   -0.1886 C   0  0  0  0  0  0  0  0  0  0  0  0
    2.8866   -0.4760    0.5347 C   0  0  0  0  0  0  0  0  0  0  0  0
    3.3149   -1.8870    1.0491 C   0  0  0  0  0  0  0  0  0  0  0  0
    2.7910    0.4451    1.6005 O   0  0  0  0  0  0  0  0  0  0  0  0
    3.9936    0.0517   -0.4386 C   0  0  0  0  0  0  0  0  0  0  0  0
    5.4663   -0.1300   -0.0072 C   0  0  0  0  0  0  0  0  0  0  0  0
    5.8278    0.6543    1.2548 C   0  0  0  0  0  0  0  0  0  0  0  0
    0.8860    0.7119   -0.8883 C   0  0  0  0  0  0  0  0  0  0  0  0
    1.8778    1.3155   -1.7106 O   0  0  0  0  0  0  0  0  0  0  0  0
    1.4626    2.4917   -2.3776 C   0  0  0  0  0  0  0  0  0  0  0  0
    0.4050    1.6053    0.2562 C   0  0  0  0  0  0  0  0  0  0  0  0
   -0.5176    1.0551    1.0670 C   0  0  0  0  0  0  0  0  0  0  0  0
   -3.2078    2.5602   -1.9996 C   0  0  0  0  0  0  0  0  0  0  0  0
   -2.9695    3.4965   -3.0020 O   0  0  0  0  0  0  0  0  0  0  0  0
   -4.3151    2.6744   -1.1321 C   0  0  0  0  0  0  0  0  0  0  0  0
   -4.4558    1.7867   -0.0421 C   0  0  0  0  0  0  0  0  0  0  0  0
   -1.7765   -0.9013    2.6334 H   0  0  0  0  0  0  0  0  0  0  0  0
   -4.3314   -0.5673    1.6521 H   0  0  0  0  0  0  0  0  0  0  0  0
   -3.3361    0.7693    2.2552 H   0  0  0  0  0  0  0  0  0  0  0  0
   -0.0480   -0.4686   -2.5184 H   0  0  0  0  0  0  0  0  0  0  0  0
   -2.3647   -1.7498   -2.2169 H   0  0  0  0  0  0  0  0  0  0  0  0
   -0.9905   -2.4666   -1.3427 H   0  0  0  0  0  0  0  0  0  0  0  0
   -3.8645   -2.0098   -0.3359 H   0  0  0  0  0  0  0  0  0  0  0  0
   -2.9424   -3.5345   -0.4820 H   0  0  0  0  0  0  0  0  0  0  0  0
   -3.1408   -4.1416    1.9365 H   0  0  0  0  0  0  0  0  0  0  0  0
   -2.9294   -2.8579    3.1629 H   0  0  0  0  0  0  0  0  0  0  0  0
   -4.3070   -2.7738    1.9886 H   0  0  0  0  0  0  0  0  0  0  0  0
    0.6921   -1.1717    1.8511 H   0  0  0  0  0  0  0  0  0  0  0  0
    0.2047   -2.2706    0.5582 H   0  0  0  0  0  0  0  0  0  0  0  0
    1.6162   -1.3473   -1.0025 H   0  0  0  0  0  0  0  0  0  0  0  0
    4.2052   -1.8224    1.7064 H   0  0  0  0  0  0  0  0  0  0  0  0
    2.5366   -2.3808    1.6614 H   0  0  0  0  0  0  0  0  0  0  0  0
    3.5442   -2.5577    0.1932 H   0  0  0  0  0  0  0  0  0  0  0  0
    2.5035   -0.0263    2.4239 H   0  0  0  0  0  0  0  0  0  0  0  0
    3.8744   -0.4421   -1.4280 H   0  0  0  0  0  0  0  0  0  0  0  0
    3.8690    1.1443   -0.5809 H   0  0  0  0  0  0  0  0  0  0  0  0
    6.1090    0.2468   -0.8326 H   0  0  0  0  0  0  0  0  0  0  0  0
    5.7251   -1.2018    0.1174 H   0  0  0  0  0  0  0  0  0  0  0  0
    5.3158    0.2359    2.1446 H   0  0  0  0  0  0  0  0  0  0  0  0
    6.9228    0.5898    1.4272 H   0  0  0  0  0  0  0  0  0  0  0  0
    5.5520    1.7241    1.1398 H   0  0  0  0  0  0  0  0  0  0  0  0
    2.3524    3.1347   -2.5351 H   0  0  0  0  0  0  0  0  0  0  0  0
    0.7189    3.0973   -1.8184 H   0  0  0  0  0  0  0  0  0  0  0  0
    1.0649    2.2318   -3.3807 H   0  0  0  0  0  0  0  0  0  0  0  0
    0.7990    2.5990    0.4417 H   0  0  0  0  0  0  0  0  0  0  0  0
   -0.9195    1.5930    1.9195 H   0  0  0  0  0  0  0  0  0  0  0  0
   -3.5933    4.2813   -3.1487 H   0  0  0  0  0  0  0  0  0  0  0  0
   -5.0138    3.4928   -1.2484 H   0  0  0  0  0  0  0  0  0  0  0  0
   -5.2299    1.9613    0.6943 H   0  0  0  0  0  0  0  0  0  0  0  0
  1  2  1  0
  2  3  1  0
  3  4  1  0
  4  5  2  0
  5  6  1  0
  6  7  1  0
  7  8  1  0
  8  9  1  6
  9 10  1  0
 10 11  1  0
 11 12  1  0
  8 13  1  0
 13 14  1  6
 14 15  1  0
 15 16  1  0
 16 17  1  0
 16 18  1  0
 16 19  1  0
 19 20  1  0
 20 21  1  0
 15 22  1  0
 22 23  1  0
 23 24  1  0
 22 25  1  0
 25 26  2  0
  5 27  1  0
 27 28  1  0
 27 29  2  0
 29 30  1  0
 11  1  1  0
 26 13  1  0
 13  1  1  0
 30  3  2  0
  8  4  1  0
 22  7  1  0
  1 31  1  1
  2 32  1  0
  2 33  1  0
  7 34  1  0
  9 35  1  0
  9 36  1  0
 10 37  1  0
 10 38  1  0
 12 39  1  0
 12 40  1  0
 12 41  1  0
 14 42  1  0
 14 43  1  0
 15 44  1  0
 17 45  1  0
 17 46  1  0
 17 47  1  0
 18 48  1  0
 19 49  1  0
 19 50  1  0
 20 51  1  0
 20 52  1  0
 21 53  1  0
 21 54  1  0
 21 55  1  0
 24 56  1  0
 24 57  1  0
 24 58  1  0
 25 59  1  0
 26 60  1  0
 28 61  1  0
 29 62  1  0
 30 63  1  0
M  END
$$$$
