
     RDKit          3D

 41 42  0  0  0  0  0  0  0  0999 V2000
   -5.1947    1.5992   -1.0607 C   0  0  0  0  0  0  0  0  0  0  0  0
   -5.0773    0.5948    0.1054 C   0  0  0  0  0  0  0  0  0  0  0  0
   -6.1461    0.9341    1.1531 C   0  0  0  0  0  0  0  0  0  0  0  0
   -3.7984    0.7307    0.7450 O   0  0  0  0  0  0  0  0  0  0  0  0
   -2.5206    0.4935    0.2013 C   0  0  0  0  0  0  0  0  0  0  0  0
   -2.3052   -0.1079   -1.0547 C   0  0  0  0  0  0  0  0  0  0  0  0
   -1.0050   -0.3141   -1.5255 C   0  0  0  0  0  0  0  0  0  0  0  0
    0.1022    0.0545   -0.7495 C   0  0  0  0  0  0  0  0  0  0  0  0
    1.4275   -0.1492   -1.2694 N   0  0  0  0  0  0  0  0  0  0  0  0
    2.5737   -0.4504   -0.4587 C   0  0  0  0  0  0  0  0  0  0  0  0
    2.4257   -0.8075    0.7418 O   0  0  0  0  0  0  0  0  0  0  0  0
    3.8828   -0.4230   -1.0480 N   0  0  0  0  0  0  0  0  0  0  0  0
    5.1070   -0.5041   -0.2979 C   0  0  0  0  0  0  0  0  0  0  0  0
    6.2268   -1.1237   -0.8742 C   0  0  0  0  0  0  0  0  0  0  0  0
    7.4357   -1.1967   -0.1737 C   0  0  0  0  0  0  0  0  0  0  0  0
    8.8234   -1.9879   -0.8987 Cl  0  0  0  0  0  0  0  0  0  0  0  0
    7.5387   -0.6371    1.1034 C   0  0  0  0  0  0  0  0  0  0  0  0
    6.4363    0.0034    1.6774 C   0  0  0  0  0  0  0  0  0  0  0  0
    6.5748    0.7274    3.2693 Cl  0  0  0  0  0  0  0  0  0  0  0  0
    5.2262    0.0768    0.9785 C   0  0  0  0  0  0  0  0  0  0  0  0
   -0.1121    0.6678    0.4962 C   0  0  0  0  0  0  0  0  0  0  0  0
   -1.4118    0.8744    0.9662 C   0  0  0  0  0  0  0  0  0  0  0  0
   -5.3067   -0.8308   -0.3427 C   0  0  0  0  0  0  0  0  0  0  0  0
   -4.7247   -1.8792    0.3647 O   0  0  0  0  0  0  0  0  0  0  0  0
   -6.0707   -1.0843   -1.3137 O   0  0  0  0  0  0  0  0  0  0  0  0
   -4.9543    2.6242   -0.7054 H   0  0  0  0  0  0  0  0  0  0  0  0
   -4.5011    1.3537   -1.8884 H   0  0  0  0  0  0  0  0  0  0  0  0
   -6.2269    1.6061   -1.4731 H   0  0  0  0  0  0  0  0  0  0  0  0
   -7.1676    0.8448    0.7229 H   0  0  0  0  0  0  0  0  0  0  0  0
   -6.0076    1.9725    1.5245 H   0  0  0  0  0  0  0  0  0  0  0  0
   -6.0672    0.2454    2.0223 H   0  0  0  0  0  0  0  0  0  0  0  0
   -3.1226   -0.4326   -1.6781 H   0  0  0  0  0  0  0  0  0  0  0  0
   -0.8589   -0.7762   -2.4940 H   0  0  0  0  0  0  0  0  0  0  0  0
    1.5527   -0.1525   -2.3069 H   0  0  0  0  0  0  0  0  0  0  0  0
    3.9454   -0.4194   -2.0912 H   0  0  0  0  0  0  0  0  0  0  0  0
    6.1546   -1.5579   -1.8638 H   0  0  0  0  0  0  0  0  0  0  0  0
    8.4749   -0.6922    1.6445 H   0  0  0  0  0  0  0  0  0  0  0  0
    4.3944    0.6080    1.4219 H   0  0  0  0  0  0  0  0  0  0  0  0
    0.7199    1.0109    1.0963 H   0  0  0  0  0  0  0  0  0  0  0  0
   -1.5598    1.3462    1.9295 H   0  0  0  0  0  0  0  0  0  0  0  0
   -4.8832   -2.8417    0.0916 H   0  0  0  0  0  0  0  0  0  0  0  0
  1  2  1  0
  2  3  1  0
  2  4  1  0
  4  5  1  0
  5  6  2  0
  6  7  1  0
  7  8  2  0
  8  9  1  0
  9 10  1  0
 10 11  2  0
 10 12  1  0
 12 13  1  0
 13 14  2  0
 14 15  1  0
 15 16  1  0
 15 17  2  0
 17 18  1  0
 18 19  1  0
 18 20  2  0
  8 21  1  0
 21 22  2  0
  2 23  1  0
 23 24  1  0
 23 25  2  0
 22  5  1  0
 20 13  1  0
  1 26  1  0
  1 27  1  0
  1 28  1  0
  3 29  1  0
  3 30  1  0
  3 31  1  0
  6 32  1  0
  7 33  1  0
  9 34  1  0
 12 35  1  0
 14 36  1  0
 17 37  1  0
 20 38  1  0
 21 39  1  0
 22 40  1  0
 24 41  1  0
M  END
$$$$
