
     RDKit          3D

 50 53  0  0  0  0  0  0  0  0999 V2000
    8.6394    2.9073    0.6965 C   0  0  0  0  0  0  0  0  0  0  0  0
    7.8388    2.0879    0.3210 C   0  0  0  0  0  0  0  0  0  0  0  0
    6.8827    1.1095   -0.1275 C   0  0  0  0  0  0  0  0  0  0  0  0
    7.2429    0.1743   -1.1050 C   0  0  0  0  0  0  0  0  0  0  0  0
    6.3119   -0.7691   -1.5461 C   0  0  0  0  0  0  0  0  0  0  0  0
    5.0217   -0.7877   -1.0089 C   0  0  0  0  0  0  0  0  0  0  0  0
    4.6539    0.1352   -0.0120 C   0  0  0  0  0  0  0  0  0  0  0  0
    3.3259    0.1496    0.5403 N   0  0  0  0  0  0  0  0  0  0  0  0
    2.5004   -1.0234    0.6447 C   0  0  0  0  0  0  0  0  0  0  0  0
    3.0876   -2.2321    0.8625 N   0  0  0  0  0  0  0  0  0  0  0  0
    2.3551   -3.3631    1.0193 C   0  0  0  0  0  0  0  0  0  0  0  0
    1.0012   -3.3085    0.9727 N   0  0  0  0  0  0  0  0  0  0  0  0
    0.3549   -2.1332    0.7609 C   0  0  0  0  0  0  0  0  0  0  0  0
   -1.0398   -2.1096    0.7113 C   0  0  0  0  0  0  0  0  0  0  0  0
   -1.7288   -0.9152    0.4699 C   0  0  0  0  0  0  0  0  0  0  0  0
   -0.9972    0.2913    0.2730 C   0  0  0  0  0  0  0  0  0  0  0  0
   -1.5902    1.5595    0.1143 O   0  0  0  0  0  0  0  0  0  0  0  0
   -2.4146    1.9809   -0.9804 C   0  0  0  0  0  0  0  0  0  0  0  0
   -3.8046    1.3943   -0.8314 C   0  0  0  0  0  0  0  0  0  0  0  0
   -4.8451    2.2527   -1.2369 O   0  0  0  0  0  0  0  0  0  0  0  0
   -6.0823    1.5383   -1.2730 C   0  0  0  0  0  0  0  0  0  0  0  0
   -6.3905    0.6623   -0.0233 C   0  0  0  0  0  0  0  0  0  0  0  0
   -5.7050   -0.5767   -0.1361 O   0  0  0  0  0  0  0  0  0  0  0  0
   -5.4527   -1.1806    1.1235 C   0  0  0  0  0  0  0  0  0  0  0  0
   -3.9730   -1.0405    1.5427 C   0  0  0  0  0  0  0  0  0  0  0  0
   -3.1235   -0.9711    0.3960 O   0  0  0  0  0  0  0  0  0  0  0  0
    0.4027    0.2569    0.3345 C   0  0  0  0  0  0  0  0  0  0  0  0
    1.0912   -0.9440    0.5835 C   0  0  0  0  0  0  0  0  0  0  0  0
    5.5894    1.0928    0.4119 C   0  0  0  0  0  0  0  0  0  0  0  0
    9.3421    3.6266    1.0263 H   0  0  0  0  0  0  0  0  0  0  0  0
    8.2395    0.1792   -1.5299 H   0  0  0  0  0  0  0  0  0  0  0  0
    6.5884   -1.4831   -2.3113 H   0  0  0  0  0  0  0  0  0  0  0  0
    4.3089   -1.5091   -1.3861 H   0  0  0  0  0  0  0  0  0  0  0  0
    3.0011    1.0268    1.0054 H   0  0  0  0  0  0  0  0  0  0  0  0
    2.8517   -4.3083    1.1891 H   0  0  0  0  0  0  0  0  0  0  0  0
   -1.5973   -3.0288    0.8466 H   0  0  0  0  0  0  0  0  0  0  0  0
   -2.4796    3.0893   -0.9556 H   0  0  0  0  0  0  0  0  0  0  0  0
   -1.9556    1.6808   -1.9476 H   0  0  0  0  0  0  0  0  0  0  0  0
   -3.8252    0.4458   -1.4160 H   0  0  0  0  0  0  0  0  0  0  0  0
   -3.9286    1.2535    0.2566 H   0  0  0  0  0  0  0  0  0  0  0  0
   -6.8952    2.2888   -1.3677 H   0  0  0  0  0  0  0  0  0  0  0  0
   -6.1265    0.9121   -2.1916 H   0  0  0  0  0  0  0  0  0  0  0  0
   -7.4827    0.4585    0.0091 H   0  0  0  0  0  0  0  0  0  0  0  0
   -6.1197    1.2335    0.8951 H   0  0  0  0  0  0  0  0  0  0  0  0
   -5.6710   -2.2642    1.0153 H   0  0  0  0  0  0  0  0  0  0  0  0
   -6.1213   -0.8159    1.9382 H   0  0  0  0  0  0  0  0  0  0  0  0
   -3.6838   -1.9074    2.1756 H   0  0  0  0  0  0  0  0  0  0  0  0
   -3.8472   -0.1176    2.1485 H   0  0  0  0  0  0  0  0  0  0  0  0
    0.9386    1.1830    0.1778 H   0  0  0  0  0  0  0  0  0  0  0  0
    5.3111    1.8184    1.1676 H   0  0  0  0  0  0  0  0  0  0  0  0
  1  2  3  0
  2  3  1  0
  3  4  2  0
  4  5  1  0
  5  6  2  0
  6  7  1  0
  7  8  1  0
  8  9  1  0
  9 10  2  0
 10 11  1  0
 11 12  2  0
 12 13  1  0
 13 14  2  0
 14 15  1  0
 15 16  2  0
 16 17  1  0
 17 18  1  0
 18 19  1  0
 19 20  1  0
 20 21  1  0
 21 22  1  0
 22 23  1  0
 23 24  1  0
 24 25  1  0
 25 26  1  0
 16 27  1  0
 27 28  2  0
  7 29  2  0
 29  3  1  0
 28  9  1  0
 28 13  1  0
 26 15  1  0
  1 30  1  0
  4 31  1  0
  5 32  1  0
  6 33  1  0
  8 34  1  0
 11 35  1  0
 14 36  1  0
 18 37  1  0
 18 38  1  0
 19 39  1  0
 19 40  1  0
 21 41  1  0
 21 42  1  0
 22 43  1  0
 22 44  1  0
 24 45  1  0
 24 46  1  0
 25 47  1  0
 25 48  1  0
 27 49  1  0
 29 50  1  0
M  END
$$$$
