
     RDKit          3D

 51 54  0  0  0  0  0  0  0  0999 V2000
   -5.4158   -1.0658   -1.8679 C   0  0  0  0  0  0  0  0  0  0  0  0
   -4.0102   -0.8562   -1.7843 O   0  0  0  0  0  0  0  0  0  0  0  0
   -3.1945   -1.3615   -0.7614 C   0  0  0  0  0  0  0  0  0  0  0  0
   -3.6977   -2.1675    0.2786 C   0  0  0  0  0  0  0  0  0  0  0  0
   -2.8444   -2.6332    1.2834 C   0  0  0  0  0  0  0  0  0  0  0  0
   -1.4895   -2.2950    1.2664 C   0  0  0  0  0  0  0  0  0  0  0  0
   -0.9805   -1.4911    0.2394 C   0  0  0  0  0  0  0  0  0  0  0  0
   -1.8323   -1.0400   -0.7784 C   0  0  0  0  0  0  0  0  0  0  0  0
    0.3944   -1.0871    0.2546 N   0  0  0  0  0  0  0  0  0  0  0  0
    0.8496   -0.0060    1.1179 C   0  0  0  0  0  0  0  0  0  0  0  0
   -0.1571    0.7354    1.9772 C   0  0  0  0  0  0  0  0  0  0  0  0
   -1.2126    1.3263    1.1320 N   0  0  0  0  0  0  0  0  0  0  0  0
   -0.7308    2.5253    0.4168 C   0  0  0  0  0  0  0  0  0  0  0  0
   -1.8970    3.2470   -0.2877 C   0  0  0  0  0  0  0  0  0  0  0  0
   -3.0518    2.4321   -0.3211 O   0  0  0  0  0  0  0  0  0  0  0  0
   -3.5165    2.2054    0.9983 C   0  0  0  0  0  0  0  0  0  0  0  0
   -2.4109    1.6512    1.9224 C   0  0  0  0  0  0  0  0  0  0  0  0
    2.1474    0.3760    1.1818 C   0  0  0  0  0  0  0  0  0  0  0  0
    3.2375   -0.2355    0.3981 C   0  0  0  0  0  0  0  0  0  0  0  0
    3.0379   -1.2503   -0.5102 C   0  0  0  0  0  0  0  0  0  0  0  0
    4.4903   -1.7003   -1.2232 S   0  0  0  0  0  0  0  0  0  0  0  0
    5.4056   -0.5766   -0.3621 C   0  0  0  0  0  0  0  0  0  0  0  0
    4.5804    0.1519    0.4880 C   0  0  0  0  0  0  0  0  0  0  0  0
    7.1407   -0.3772   -0.5090 S   0  0  0  0  0  6  0  0  0  0  0  0
    7.6534   -0.8951   -2.0770 N   0  0  0  0  0  0  0  0  0  0  0  0
    7.8303   -1.1996    0.5423 O   0  0  0  0  0  0  0  0  0  0  0  0
    7.4968    1.0719   -0.3286 O   0  0  0  0  0  0  0  0  0  0  0  0
    1.4731   -1.9131   -0.8227 S   0  0  0  0  0  6  0  0  0  0  0  0
    1.0798   -1.6570   -2.2500 O   0  0  0  0  0  0  0  0  0  0  0  0
    1.4688   -3.3862   -0.5264 O   0  0  0  0  0  0  0  0  0  0  0  0
   -5.6354   -2.1503   -1.9613 H   0  0  0  0  0  0  0  0  0  0  0  0
   -5.8070   -0.5454   -2.7659 H   0  0  0  0  0  0  0  0  0  0  0  0
   -5.9173   -0.6496   -0.9686 H   0  0  0  0  0  0  0  0  0  0  0  0
   -4.7442   -2.4364    0.3209 H   0  0  0  0  0  0  0  0  0  0  0  0
   -3.2361   -3.2502    2.0816 H   0  0  0  0  0  0  0  0  0  0  0  0
   -0.8377   -2.6455    2.0566 H   0  0  0  0  0  0  0  0  0  0  0  0
   -1.4413   -0.4069   -1.5653 H   0  0  0  0  0  0  0  0  0  0  0  0
   -0.5928   -0.0069    2.6808 H   0  0  0  0  0  0  0  0  0  0  0  0
    0.3178    1.5169    2.6138 H   0  0  0  0  0  0  0  0  0  0  0  0
   -0.2334    3.2353    1.1159 H   0  0  0  0  0  0  0  0  0  0  0  0
    0.0147    2.2163   -0.3483 H   0  0  0  0  0  0  0  0  0  0  0  0
   -2.1160    4.2172    0.2150 H   0  0  0  0  0  0  0  0  0  0  0  0
   -1.6038    3.4873   -1.3318 H   0  0  0  0  0  0  0  0  0  0  0  0
   -3.9443    3.1414    1.4224 H   0  0  0  0  0  0  0  0  0  0  0  0
   -4.3455    1.4675    0.9448 H   0  0  0  0  0  0  0  0  0  0  0  0
   -2.7929    0.7363    2.4281 H   0  0  0  0  0  0  0  0  0  0  0  0
   -2.1648    2.4033    2.7066 H   0  0  0  0  0  0  0  0  0  0  0  0
    2.4284    1.1870    1.8436 H   0  0  0  0  0  0  0  0  0  0  0  0
    4.9392    0.9320    1.1470 H   0  0  0  0  0  0  0  0  0  0  0  0
    7.1888   -0.2694   -2.7727 H   0  0  0  0  0  0  0  0  0  0  0  0
    8.6791   -0.7079   -2.1407 H   0  0  0  0  0  0  0  0  0  0  0  0
  1  2  1  0
  2  3  1  0
  3  4  2  0
  4  5  1  0
  5  6  2  0
  6  7  1  0
  7  8  2  0
  7  9  1  0
  9 10  1  0
 10 11  1  0
 11 12  1  0
 12 13  1  0
 13 14  1  0
 14 15  1  0
 15 16  1  0
 16 17  1  0
 10 18  2  0
 18 19  1  0
 19 20  2  0
 20 21  1  0
 21 22  1  0
 22 23  2  0
 22 24  1  0
 24 25  1  0
 24 26  2  0
 24 27  2  0
 20 28  1  0
 28 29  2  0
 28 30  2  0
  8  3  1  0
 28  9  1  0
 17 12  1  0
 23 19  1  0
  1 31  1  0
  1 32  1  0
  1 33  1  0
  4 34  1  0
  5 35  1  0
  6 36  1  0
  8 37  1  0
 11 38  1  0
 11 39  1  0
 13 40  1  0
 13 41  1  0
 14 42  1  0
 14 43  1  0
 16 44  1  0
 16 45  1  0
 17 46  1  0
 17 47  1  0
 18 48  1  0
 23 49  1  0
 25 50  1  0
 25 51  1  0
M  END
$$$$
