
     RDKit          3D

 33 35  0  0  0  0  0  0  0  0999 V2000
   -3.8127   -2.0833    1.0004 O   0  0  0  0  0  0  0  0  0  0  0  0
   -3.6938   -1.0333    0.0811 C   0  0  0  0  0  0  0  0  0  0  0  0
   -2.5991   -0.0599    0.5461 C   0  0  1  0  0  0  0  0  0  0  0  0
   -1.2895   -0.7102    0.6449 N   0  0  0  0  0  0  0  0  0  0  0  0
   -0.3036    0.3764    0.5357 C   0  0  2  0  0  0  0  0  0  0  0  0
   -0.9880    1.5769   -0.1553 C   0  0  2  0  0  0  0  0  0  0  0  0
   -0.9256    2.7313    0.6504 O   0  0  0  0  0  0  0  0  0  0  0  0
   -2.4268    1.1185   -0.4046 C   0  0  2  0  0  0  0  0  0  0  0  0
   -3.3698    2.1232   -0.1333 O   0  0  0  0  0  0  0  0  0  0  0  0
    0.9407   -0.0698   -0.1970 C   0  0  0  0  0  0  0  0  0  0  0  0
    1.0449   -0.4878   -1.5262 C   0  0  0  0  0  0  0  0  0  0  0  0
    2.3246   -0.8220   -1.8230 N   0  0  0  0  0  0  0  0  0  0  0  0
    3.0243   -0.6199   -0.6929 C   0  0  0  0  0  0  0  0  0  0  0  0
    2.2192   -0.1681    0.3045 C   0  0  0  0  0  0  0  0  0  0  0  0
    2.6881    0.1084    1.5450 N   0  0  0  0  0  0  0  0  0  0  0  0
    4.0204   -0.0772    1.7889 C   0  0  0  0  0  0  0  0  0  0  0  0
    4.8551   -0.5324    0.7984 N   0  0  0  0  0  0  0  0  0  0  0  0
    4.3792   -0.8114   -0.4530 C   0  0  0  0  0  0  0  0  0  0  0  0
    5.1495   -1.2296   -1.3581 O   0  0  0  0  0  0  0  0  0  0  0  0
   -4.5293   -2.6746    0.6515 H   0  0  0  0  0  0  0  0  0  0  0  0
   -3.4454   -1.4407   -0.9251 H   0  0  0  0  0  0  0  0  0  0  0  0
   -4.6620   -0.4883    0.0139 H   0  0  0  0  0  0  0  0  0  0  0  0
   -2.8765    0.3207    1.5562 H   0  0  0  0  0  0  0  0  0  0  0  0
   -1.1829   -1.3635   -0.1679 H   0  0  0  0  0  0  0  0  0  0  0  0
   -0.0075    0.6613    1.5698 H   0  0  0  0  0  0  0  0  0  0  0  0
   -0.5138    1.8180   -1.1325 H   0  0  0  0  0  0  0  0  0  0  0  0
   -1.3882    2.5336    1.5072 H   0  0  0  0  0  0  0  0  0  0  0  0
   -2.5244    0.7692   -1.4603 H   0  0  0  0  0  0  0  0  0  0  0  0
   -3.3081    2.7734   -0.8808 H   0  0  0  0  0  0  0  0  0  0  0  0
    0.2280   -0.5440   -2.2340 H   0  0  0  0  0  0  0  0  0  0  0  0
    2.6861   -1.1662   -2.7401 H   0  0  0  0  0  0  0  0  0  0  0  0
    4.4171    0.1374    2.7724 H   0  0  0  0  0  0  0  0  0  0  0  0
    5.8696   -0.6663    1.0098 H   0  0  0  0  0  0  0  0  0  0  0  0
  1  2  1  0
  2  3  1  0
  3  4  1  0
  4  5  1  0
  5  6  1  0
  6  7  1  0
  6  8  1  0
  8  9  1  0
  5 10  1  0
 10 11  2  0
 11 12  1  0
 12 13  1  0
 13 14  2  0
 14 15  1  0
 15 16  2  0
 16 17  1  0
 17 18  1  0
 18 19  2  0
  8  3  1  0
 14 10  1  0
 18 13  1  0
  1 20  1  0
  2 21  1  0
  2 22  1  0
  3 23  1  1
  4 24  1  0
  5 25  1  1
  6 26  1  6
  7 27  1  0
  8 28  1  6
  9 29  1  0
 11 30  1  0
 12 31  1  0
 16 32  1  0
 17 33  1  0
M  END
$$$$
