
     RDKit          3D

 30 31  0  0  0  0  0  0  0  0999 V2000
   -0.7755    1.1154   -0.5512 C   0  0  1  0  0  0  0  0  0  0  0  0
   -0.3844    1.6256    0.8558 C   0  0  0  0  0  0  0  0  0  0  0  0
    0.7923    0.9178    1.3663 N   0  0  0  0  0  0  0  0  0  0  0  0
    1.7251    0.4545    0.5854 C   0  0  0  0  0  0  0  0  0  0  0  0
    2.8702   -0.0515    1.1203 N   0  0  0  0  0  0  0  0  0  0  0  0
    3.8985   -0.4479    0.3185 C   0  0  0  0  0  0  0  0  0  0  0  0
    5.1049   -0.9532    0.8908 N   0  0  0  0  0  0  0  0  0  0  0  0
    3.7839   -0.3498   -1.0330 N   0  0  0  0  0  0  0  0  0  0  0  0
    2.6482    0.1155   -1.6135 C   0  0  0  0  0  0  0  0  0  0  0  0
    2.5704    0.1748   -2.8698 O   0  0  0  0  0  0  0  0  0  0  0  0
    1.5694    0.5027   -0.8116 C   0  0  0  0  0  0  0  0  0  0  0  0
    0.4345    0.8598   -1.3431 N   0  0  0  0  0  0  0  0  0  0  0  0
   -1.6580   -0.1644   -0.5381 C   0  0  1  0  0  0  0  0  0  0  0  0
   -1.0134   -1.2176    0.1379 O   0  0  0  0  0  0  0  0  0  0  0  0
   -3.0948    0.0701    0.0125 C   0  0  2  0  0  0  0  0  0  0  0  0
   -3.9566   -1.1932   -0.1130 C   0  0  0  0  0  0  0  0  0  0  0  0
   -3.7223    1.1429   -0.6453 O   0  0  0  0  0  0  0  0  0  0  0  0
   -1.3432    1.9205   -1.0651 H   0  0  0  0  0  0  0  0  0  0  0  0
   -1.2146    1.5422    1.5839 H   0  0  0  0  0  0  0  0  0  0  0  0
   -0.1280    2.7041    0.7757 H   0  0  0  0  0  0  0  0  0  0  0  0
    2.9757   -0.1058    2.1592 H   0  0  0  0  0  0  0  0  0  0  0  0
    5.8947   -1.2517    0.2766 H   0  0  0  0  0  0  0  0  0  0  0  0
    5.2127   -1.0315    1.9263 H   0  0  0  0  0  0  0  0  0  0  0  0
   -1.7684   -0.4821   -1.5990 H   0  0  0  0  0  0  0  0  0  0  0  0
   -1.0748   -1.0377    1.1117 H   0  0  0  0  0  0  0  0  0  0  0  0
   -3.0425    0.3207    1.0923 H   0  0  0  0  0  0  0  0  0  0  0  0
   -4.9811   -0.9876    0.2635 H   0  0  0  0  0  0  0  0  0  0  0  0
   -4.0253   -1.5172   -1.1734 H   0  0  0  0  0  0  0  0  0  0  0  0
   -3.5238   -2.0195    0.4897 H   0  0  0  0  0  0  0  0  0  0  0  0
   -3.7738    0.9140   -1.6105 H   0  0  0  0  0  0  0  0  0  0  0  0
  1  2  1  0
  2  3  1  0
  3  4  2  0
  4  5  1  0
  5  6  1  0
  6  7  1  0
  6  8  2  0
  8  9  1  0
  9 10  2  0
  9 11  1  0
 11 12  2  0
  1 13  1  0
 13 14  1  0
 13 15  1  0
 15 16  1  0
 15 17  1  0
 12  1  1  0
 11  4  1  0
  1 18  1  6
  2 19  1  0
  2 20  1  0
  5 21  1  0
  7 22  1  0
  7 23  1  0
 13 24  1  6
 14 25  1  0
 15 26  1  1
 16 27  1  0
 16 28  1  0
 16 29  1  0
 17 30  1  0
M  END
$$$$
