
     RDKit          3D

 45 47  0  0  0  0  0  0  0  0999 V2000
    0.2192    0.3695    2.3442 C   0  0  1  0  0  0  0  0  0  0  0  0
   -0.1715   -1.2930    1.6400 S   0  0  0  0  0  0  0  0  0  0  0  0
    1.0847   -1.3235    0.2994 C   0  0  0  0  0  0  0  0  0  0  0  0
    2.4821   -1.0010    0.7960 C   0  0  0  0  0  0  0  0  0  0  0  0
    3.6059   -1.9428    0.4464 C   0  0  0  0  0  0  0  0  0  0  0  0
    4.2747   -1.4752   -0.7206 O   0  0  0  0  0  0  0  0  0  0  0  0
    5.3718   -2.1374   -1.2773 C   0  0  0  0  0  0  0  0  0  0  0  0
    5.9945   -1.6070   -2.4439 N   0  0  0  0  0  0  0  0  0  0  0  0
    5.8162   -3.1970   -0.7578 O   0  0  0  0  0  0  0  0  0  0  0  0
    2.6648    0.1669    1.4512 C   0  0  0  0  0  0  0  0  0  0  0  0
    1.4868    0.8568    1.8537 N   0  0  0  0  0  0  0  0  0  0  0  0
    0.8051    2.0910    1.4037 C   0  0  0  0  0  0  0  0  0  0  0  0
    1.1687    3.1512    0.8312 O   0  0  0  0  0  0  0  0  0  0  0  0
   -0.5077    1.5211    1.8528 C   0  0  1  0  0  0  0  0  0  0  0  0
   -1.3984    1.2449    0.7218 N   0  0  0  0  0  0  0  0  0  0  0  0
   -2.7486    0.8018    0.9246 C   0  0  0  0  0  0  0  0  0  0  0  0
   -3.1913    0.6516    2.0958 O   0  0  0  0  0  0  0  0  0  0  0  0
   -3.6391    0.5350   -0.2279 C   0  0  0  0  0  0  0  0  0  0  0  0
   -3.2231   -0.1372   -1.2587 N   0  0  0  0  0  0  0  0  0  0  0  0
   -1.9533   -0.6644   -1.3417 O   0  0  0  0  0  0  0  0  0  0  0  0
   -1.5549   -1.3912   -2.4916 C   0  0  0  0  0  0  0  0  0  0  0  0
   -5.0398    0.9981   -0.2177 C   0  0  0  0  0  0  0  0  0  0  0  0
   -5.6270    1.8468    0.7045 C   0  0  0  0  0  0  0  0  0  0  0  0
   -6.9342    1.9964    0.2947 C   0  0  0  0  0  0  0  0  0  0  0  0
   -7.0667    1.2364   -0.8488 C   0  0  0  0  0  0  0  0  0  0  0  0
   -5.9227    0.6563   -1.1292 O   0  0  0  0  0  0  0  0  0  0  0  0
    3.9771    0.7548    1.8083 C   0  0  0  0  0  0  0  0  0  0  0  0
    5.1604    0.3192    1.2200 O   0  0  0  0  0  0  0  0  0  0  0  0
    4.0202    1.6999    2.6409 O   0  0  0  0  0  0  0  0  0  0  0  0
    0.2271    0.3280    3.4560 H   0  0  0  0  0  0  0  0  0  0  0  0
    0.7973   -0.5750   -0.4692 H   0  0  0  0  0  0  0  0  0  0  0  0
    1.0494   -2.3214   -0.1850 H   0  0  0  0  0  0  0  0  0  0  0  0
    4.3146   -2.0362    1.2971 H   0  0  0  0  0  0  0  0  0  0  0  0
    3.2053   -2.9608    0.2511 H   0  0  0  0  0  0  0  0  0  0  0  0
    5.6330   -0.7294   -2.8783 H   0  0  0  0  0  0  0  0  0  0  0  0
    6.8157   -2.0892   -2.8722 H   0  0  0  0  0  0  0  0  0  0  0  0
   -0.9833    2.1436    2.6424 H   0  0  0  0  0  0  0  0  0  0  0  0
   -1.0878    1.4875   -0.2468 H   0  0  0  0  0  0  0  0  0  0  0  0
   -0.5081   -1.7348   -2.3663 H   0  0  0  0  0  0  0  0  0  0  0  0
   -1.6194   -0.7400   -3.3883 H   0  0  0  0  0  0  0  0  0  0  0  0
   -2.2139   -2.2746   -2.6245 H   0  0  0  0  0  0  0  0  0  0  0  0
   -5.1650    2.3149    1.5632 H   0  0  0  0  0  0  0  0  0  0  0  0
   -7.7001    2.5941    0.7704 H   0  0  0  0  0  0  0  0  0  0  0  0
   -7.9680    1.1265   -1.4368 H   0  0  0  0  0  0  0  0  0  0  0  0
    6.0493    0.7390    1.4640 H   0  0  0  0  0  0  0  0  0  0  0  0
  1  2  1  0
  2  3  1  0
  3  4  1  0
  4  5  1  0
  5  6  1  0
  6  7  1  0
  7  8  1  0
  7  9  2  0
  4 10  2  0
 10 11  1  0
 11 12  1  0
 12 13  2  0
 12 14  1  0
 14 15  1  0
 15 16  1  0
 16 17  2  0
 16 18  1  0
 18 19  2  0
 19 20  1  0
 20 21  1  0
 18 22  1  0
 22 23  2  0
 23 24  1  0
 24 25  2  0
 25 26  1  0
 10 27  1  0
 27 28  1  0
 27 29  2  0
 11  1  1  0
 26 22  1  0
 14  1  1  0
  1 30  1  1
  3 31  1  0
  3 32  1  0
  5 33  1  0
  5 34  1  0
  8 35  1  0
  8 36  1  0
 14 37  1  1
 15 38  1  0
 21 39  1  0
 21 40  1  0
 21 41  1  0
 23 42  1  0
 24 43  1  0
 25 44  1  0
 28 45  1  0
M  END
$$$$
