
     RDKit          3D

 65 67  0  0  0  0  0  0  0  0999 V2000
    0.0000    0.0000    0.0000 Cl  0  0  0  0  0 15  0  0  0  0  0  0
    5.9382   -4.4028   -0.6463 C   0  0  0  0  0  0  0  0  0  0  0  0
    4.5297   -3.8423   -0.4715 C   0  0  0  0  0  0  0  0  0  0  0  0
    4.5667   -2.4501   -0.0140 N   0  0  0  0  0  0  0  0  0  0  0  0
    3.3769   -1.6645    0.2316 C   0  0  0  0  0  0  0  0  0  0  0  0
    2.0984   -2.2250    0.0426 C   0  0  0  0  0  0  0  0  0  0  0  0
    0.9410   -1.4791    0.2734 C   0  0  0  0  0  0  0  0  0  0  0  0
   -0.2427   -2.0485    0.0826 O   0  0  0  0  0  3  0  0  0  0  0  0
   -1.3913   -1.4119    0.2756 C   0  0  0  0  0  0  0  0  0  0  0  0
   -1.4039   -0.0691    0.7021 C   0  0  0  0  0  0  0  0  0  0  0  0
   -2.6415    0.5761    0.8817 C   0  0  0  0  0  0  0  0  0  0  0  0
   -3.8520   -0.1007    0.6523 C   0  0  0  0  0  0  0  0  0  0  0  0
   -5.1474    0.6400    0.8621 C   0  0  0  0  0  0  0  0  0  0  0  0
   -3.8338   -1.4544    0.2304 C   0  0  0  0  0  0  0  0  0  0  0  0
   -5.0673   -2.1712   -0.0104 N   0  0  0  0  0  0  0  0  0  0  0  0
   -5.1114   -3.5687   -0.4507 C   0  0  0  0  0  0  0  0  0  0  0  0
   -6.5502   -4.0484   -0.6198 C   0  0  0  0  0  0  0  0  0  0  0  0
   -2.5900   -2.0901    0.0473 C   0  0  0  0  0  0  0  0  0  0  0  0
   -0.1663    0.5812    0.9201 C   0  0  0  0  0  0  0  0  0  0  0  0
   -0.1251    1.9948    1.3737 C   0  0  0  0  0  0  0  0  0  0  0  0
   -0.2862    2.2475    2.7456 C   0  0  0  0  0  0  0  0  0  0  0  0
   -0.2155    3.5493    3.2401 C   0  0  0  0  0  0  0  0  0  0  0  0
    0.0223    4.6130    2.3721 C   0  0  0  0  0  0  0  0  0  0  0  0
    0.1856    4.3804    1.0051 C   0  0  0  0  0  0  0  0  0  0  0  0
    0.1091    3.0760    0.4804 C   0  0  0  0  0  0  0  0  0  0  0  0
    0.2802    2.8903   -0.9849 C   0  0  0  0  0  0  0  0  0  0  0  0
   -0.0854    1.8227   -1.5486 O   0  0  0  0  0  0  0  0  0  0  0  0
    0.8372    3.9213   -1.7495 O   0  0  0  0  0  0  0  0  0  0  0  0
    1.0349    3.8166   -3.1555 C   0  0  0  0  0  0  0  0  0  0  0  0
    1.6608    5.0995   -3.6781 C   0  0  0  0  0  0  0  0  0  0  0  0
    1.0316   -0.1403    0.7032 C   0  0  0  0  0  0  0  0  0  0  0  0
    2.3046    0.4263    0.9002 C   0  0  0  0  0  0  0  0  0  0  0  0
    3.4737   -0.3185    0.6673 C   0  0  0  0  0  0  0  0  0  0  0  0
    4.8098    0.3420    0.8892 C   0  0  0  0  0  0  0  0  0  0  0  0
    5.8805   -5.4562   -0.9929 H   0  0  0  0  0  0  0  0  0  0  0  0
    6.4840   -4.3737    0.3207 H   0  0  0  0  0  0  0  0  0  0  0  0
    6.4955   -3.8078   -1.4009 H   0  0  0  0  0  0  0  0  0  0  0  0
    3.9893   -4.4640    0.2744 H   0  0  0  0  0  0  0  0  0  0  0  0
    4.0006   -3.8985   -1.4472 H   0  0  0  0  0  0  0  0  0  0  0  0
    5.5053   -2.0184    0.1364 H   0  0  0  0  0  0  0  0  0  0  0  0
    1.9840   -3.2485   -0.2872 H   0  0  0  0  0  0  0  0  0  0  0  0
   -2.6742    1.6110    1.1978 H   0  0  0  0  0  0  0  0  0  0  0  0
   -5.7216    0.6709   -0.0877 H   0  0  0  0  0  0  0  0  0  0  0  0
   -4.9779    1.6880    1.1890 H   0  0  0  0  0  0  0  0  0  0  0  0
   -5.7476    0.1339    1.6472 H   0  0  0  0  0  0  0  0  0  0  0  0
   -5.9792   -1.6832    0.1324 H   0  0  0  0  0  0  0  0  0  0  0  0
   -4.6081   -4.2116    0.3032 H   0  0  0  0  0  0  0  0  0  0  0  0
   -4.5865   -3.6676   -1.4253 H   0  0  0  0  0  0  0  0  0  0  0  0
   -7.0717   -3.4314   -1.3821 H   0  0  0  0  0  0  0  0  0  0  0  0
   -6.5539   -5.1075   -0.9532 H   0  0  0  0  0  0  0  0  0  0  0  0
   -7.0934   -3.9755    0.3464 H   0  0  0  0  0  0  0  0  0  0  0  0
   -2.5354   -3.1203   -0.2772 H   0  0  0  0  0  0  0  0  0  0  0  0
   -0.4610    1.4297    3.4344 H   0  0  0  0  0  0  0  0  0  0  0  0
   -0.3407    3.7331    4.2993 H   0  0  0  0  0  0  0  0  0  0  0  0
    0.0790    5.6223    2.7589 H   0  0  0  0  0  0  0  0  0  0  0  0
    0.3614    5.2292    0.3560 H   0  0  0  0  0  0  0  0  0  0  0  0
    1.7101    2.9617   -3.3770 H   0  0  0  0  0  0  0  0  0  0  0  0
    0.0585    3.6518   -3.6608 H   0  0  0  0  0  0  0  0  0  0  0  0
    2.6414    5.2709   -3.1856 H   0  0  0  0  0  0  0  0  0  0  0  0
    0.9916    5.9607   -3.4684 H   0  0  0  0  0  0  0  0  0  0  0  0
    1.8162    5.0215   -4.7747 H   0  0  0  0  0  0  0  0  0  0  0  0
    2.3975    1.4512    1.2359 H   0  0  0  0  0  0  0  0  0  0  0  0
    5.3756   -0.2064    1.6714 H   0  0  0  0  0  0  0  0  0  0  0  0
    4.7013    1.3951    1.2256 H   0  0  0  0  0  0  0  0  0  0  0  0
    5.3887    0.3481   -0.0582 H   0  0  0  0  0  0  0  0  0  0  0  0
  2  3  1  0
  3  4  1  0
  4  5  1  0
  5  6  2  0
  6  7  1  0
  7  8  2  0
  8  9  1  0
  9 10  2  0
 10 11  1  0
 11 12  2  0
 12 13  1  0
 12 14  1  0
 14 15  1  0
 15 16  1  0
 16 17  1  0
 14 18  2  0
 10 19  1  0
 19 20  1  0
 20 21  2  0
 21 22  1  0
 22 23  2  0
 23 24  1  0
 24 25  2  0
 25 26  1  0
 26 27  2  0
 26 28  1  0
 28 29  1  0
 29 30  1  0
 19 31  2  0
 31 32  1  0
 32 33  2  0
 33 34  1  0
 33  5  1  0
 31  7  1  0
 18  9  1  0
 25 20  1  0
  2 35  1  0
  2 36  1  0
  2 37  1  0
  3 38  1  0
  3 39  1  0
  4 40  1  0
  6 41  1  0
 11 42  1  0
 13 43  1  0
 13 44  1  0
 13 45  1  0
 15 46  1  0
 16 47  1  0
 16 48  1  0
 17 49  1  0
 17 50  1  0
 17 51  1  0
 18 52  1  0
 21 53  1  0
 22 54  1  0
 23 55  1  0
 24 56  1  0
 29 57  1  0
 29 58  1  0
 30 59  1  0
 30 60  1  0
 30 61  1  0
 32 62  1  0
 34 63  1  0
 34 64  1  0
 34 65  1  0
M  CHG  2   1  -1   8   1
M  END
$$$$
