
     RDKit          3D

118124  0  0  0  0  0  0  0  0999 V2000
    0.4150   -0.7658   -1.2093 C   0  0  0  0  0  0  0  0  0  0  0  0
    1.6812   -0.7299   -1.6932 C   0  0  0  0  0  0  0  0  0  0  0  0
    1.8586   -0.8336   -3.1892 C   0  0  0  0  0  0  0  0  0  0  0  0
    2.9150   -0.5907   -0.7934 C   0  0  1  0  0  0  0  0  0  0  0  0
    3.9590   -1.4292   -1.2679 O   0  0  0  0  0  0  0  0  0  0  0  0
    3.8030   -2.7657   -0.8176 C   0  0  1  0  0  0  0  0  0  0  0  0
    4.6012   -3.7159   -1.7459 C   0  0  0  0  0  0  0  0  0  0  0  0
    5.2532   -4.8501   -0.9464 C   0  0  2  0  0  0  0  0  0  0  0  0
    4.2254   -5.6404   -0.3668 O   0  0  0  0  0  0  0  0  0  0  0  0
    4.5792   -7.0062   -0.3782 C   0  0  0  0  0  0  0  0  0  0  0  0
    6.1563   -4.2570    0.1646 C   0  0  1  0  0  0  0  0  0  0  0  0
    7.4502   -4.0648   -0.3487 O   0  0  0  0  0  0  0  0  0  0  0  0
    5.5942   -2.9038    0.6847 C   0  0  2  0  0  0  0  0  0  0  0  0
    5.9507   -2.6843    2.1549 C   0  0  0  0  0  0  0  0  0  0  0  0
    4.1855   -2.8732    0.5499 O   0  0  0  0  0  0  0  0  0  0  0  0
    3.4358    0.8793   -0.6869 C   0  0  1  0  0  0  0  0  0  0  0  0
    4.4203    1.2766   -1.8040 C   0  0  0  0  0  0  0  0  0  0  0  0
    2.3310    1.9090   -0.5161 C   0  0  0  0  0  0  0  0  0  0  0  0
    1.6633    2.4329   -1.5544 C   0  0  0  0  0  0  0  0  0  0  0  0
    0.5662    3.4074   -1.4182 C   0  0  0  0  0  0  0  0  0  0  0  0
    0.6285    4.5511   -0.7138 C   0  0  0  0  0  0  0  0  0  0  0  0
    1.8137    5.0742    0.0147 C   0  0  0  0  0  0  0  0  0  0  0  0
    1.5012    6.3819    0.4453 O   0  0  0  0  0  0  0  0  0  0  0  0
    0.4204    6.8246   -0.3518 C   0  0  2  0  0  0  0  0  0  0  0  0
   -0.3644    7.9157    0.3617 C   0  0  0  0  0  0  0  0  0  0  0  0
    0.1923    9.0502    0.6819 N   0  0  0  0  0  0  0  0  0  0  0  0
    1.5085    9.3862    0.4303 O   0  0  0  0  0  0  0  0  0  0  0  0
   -1.8123    7.7289    0.6550 C   0  0  0  0  0  0  0  0  0  0  0  0
   -2.6599    8.9096    1.0477 C   0  0  0  0  0  0  0  0  0  0  0  0
   -2.3599    6.5060    0.6026 C   0  0  0  0  0  0  0  0  0  0  0  0
   -1.5062    5.2959    0.3556 C   0  0  1  0  0  0  0  0  0  0  0  0
   -2.3524    4.0882    0.0506 C   0  0  0  0  0  0  0  0  0  0  0  0
   -2.8200    3.8963   -1.1050 O   0  0  0  0  0  0  0  0  0  0  0  0
   -2.6262    3.1862    1.0820 O   0  0  0  0  0  0  0  0  0  0  0  0
   -2.7638    1.7810    0.8763 C   0  0  1  0  0  0  0  0  0  0  0  0
   -1.4106    1.2087    0.4446 C   0  0  0  0  0  0  0  0  0  0  0  0
   -1.3797   -0.3262    0.5283 C   0  0  1  0  0  0  0  0  0  0  0  0
    0.0484   -0.8318    0.2594 C   0  0  0  0  0  0  0  0  0  0  0  0
   -1.7743   -0.7759    1.8164 O   0  0  0  0  0  0  0  0  0  0  0  0
   -3.1139   -0.4039    2.1370 C   0  0  2  0  0  0  0  0  0  0  0  0
   -3.4597   -0.9727    3.5476 C   0  0  0  0  0  0  0  0  0  0  0  0
   -4.6807   -1.8929    3.5031 C   0  0  0  0  0  0  0  0  0  0  0  0
   -4.5364   -2.9508    2.3944 C   0  0  2  0  0  0  0  0  0  0  0  0
   -3.5995   -4.0839    2.8532 C   0  0  0  0  0  0  0  0  0  0  0  0
   -4.0432   -2.2979    1.0567 C   0  0  2  0  0  0  0  0  0  0  0  0
   -4.0459   -0.8782    1.1646 O   0  0  0  0  0  0  0  0  0  0  0  0
   -4.9409   -2.7018   -0.1586 C   0  0  0  0  0  0  0  0  0  0  0  0
   -4.8796   -4.2136   -0.4788 C   0  0  0  0  0  0  0  0  0  0  0  0
   -3.5063   -4.6566   -1.0255 C   0  0  0  0  0  0  0  0  0  0  0  0
   -2.8081   -3.5844   -1.8848 C   0  0  0  0  0  0  0  0  0  0  0  0
   -3.8085   -2.6130   -2.5129 C   0  0  0  0  0  0  0  0  0  0  0  0
   -4.6454   -1.8723   -1.4493 C   0  0  0  0  0  0  0  0  0  0  0  0
   -3.2103    1.1382    2.1919 C   0  0  0  0  0  0  0  0  0  0  0  0
   -0.4254    5.5928   -0.7259 C   0  0  2  0  0  0  0  0  0  0  0  0
   -0.9749    5.7353   -2.0168 O   0  0  0  0  0  0  0  0  0  0  0  0
   -0.4014   -0.8474   -1.9238 H   0  0  0  0  0  0  0  0  0  0  0  0
    1.3323    0.0021   -3.6958 H   0  0  0  0  0  0  0  0  0  0  0  0
    1.4328   -1.7948   -3.5474 H   0  0  0  0  0  0  0  0  0  0  0  0
    2.9270   -0.8075   -3.4828 H   0  0  0  0  0  0  0  0  0  0  0  0
    2.6640   -0.8841    0.2487 H   0  0  0  0  0  0  0  0  0  0  0  0
    2.7376   -3.0874   -0.8887 H   0  0  0  0  0  0  0  0  0  0  0  0
    5.4009   -3.1482   -2.2725 H   0  0  0  0  0  0  0  0  0  0  0  0
    3.9309   -4.1395   -2.5259 H   0  0  0  0  0  0  0  0  0  0  0  0
    5.8819   -5.4303   -1.6672 H   0  0  0  0  0  0  0  0  0  0  0  0
    5.5576   -7.1803    0.1223 H   0  0  0  0  0  0  0  0  0  0  0  0
    4.6025   -7.3960   -1.4195 H   0  0  0  0  0  0  0  0  0  0  0  0
    3.8084   -7.5766    0.1793 H   0  0  0  0  0  0  0  0  0  0  0  0
    6.2010   -4.9988    0.9969 H   0  0  0  0  0  0  0  0  0  0  0  0
    8.0620   -3.9919    0.4295 H   0  0  0  0  0  0  0  0  0  0  0  0
    6.0533   -2.0611    0.1142 H   0  0  0  0  0  0  0  0  0  0  0  0
    5.4995   -3.4786    2.7873 H   0  0  0  0  0  0  0  0  0  0  0  0
    5.5606   -1.7000    2.4910 H   0  0  0  0  0  0  0  0  0  0  0  0
    7.0527   -2.6903    2.2920 H   0  0  0  0  0  0  0  0  0  0  0  0
    4.0342    0.9215    0.2512 H   0  0  0  0  0  0  0  0  0  0  0  0
    3.9665    1.1673   -2.8085 H   0  0  0  0  0  0  0  0  0  0  0  0
    5.3333    0.6458   -1.7583 H   0  0  0  0  0  0  0  0  0  0  0  0
    4.7376    2.3335   -1.6729 H   0  0  0  0  0  0  0  0  0  0  0  0
    2.0759    2.2092    0.4913 H   0  0  0  0  0  0  0  0  0  0  0  0
    1.8520    2.0645   -2.5518 H   0  0  0  0  0  0  0  0  0  0  0  0
   -0.2999    3.2354   -2.0441 H   0  0  0  0  0  0  0  0  0  0  0  0
    2.7011    5.1027   -0.6539 H   0  0  0  0  0  0  0  0  0  0  0  0
    2.0292    4.4503    0.9049 H   0  0  0  0  0  0  0  0  0  0  0  0
    0.8356    7.2653   -1.2882 H   0  0  0  0  0  0  0  0  0  0  0  0
    2.1486    8.7755   -0.0606 H   0  0  0  0  0  0  0  0  0  0  0  0
   -2.4831    9.1512    2.1165 H   0  0  0  0  0  0  0  0  0  0  0  0
   -3.7423    8.7054    0.8995 H   0  0  0  0  0  0  0  0  0  0  0  0
   -2.3963    9.7921    0.4275 H   0  0  0  0  0  0  0  0  0  0  0  0
   -3.4142    6.3733    0.8210 H   0  0  0  0  0  0  0  0  0  0  0  0
   -0.9785    5.0902    1.3152 H   0  0  0  0  0  0  0  0  0  0  0  0
   -3.5287    1.5826    0.0920 H   0  0  0  0  0  0  0  0  0  0  0  0
   -1.2132    1.5121   -0.6031 H   0  0  0  0  0  0  0  0  0  0  0  0
   -0.6161    1.6403    1.0940 H   0  0  0  0  0  0  0  0  0  0  0  0
   -2.0470   -0.7500   -0.2502 H   0  0  0  0  0  0  0  0  0  0  0  0
    0.1306   -1.8927    0.5803 H   0  0  0  0  0  0  0  0  0  0  0  0
    0.7407   -0.2326    0.8850 H   0  0  0  0  0  0  0  0  0  0  0  0
   -3.6676   -0.1677    4.2872 H   0  0  0  0  0  0  0  0  0  0  0  0
   -2.5949   -1.5398    3.9556 H   0  0  0  0  0  0  0  0  0  0  0  0
   -5.5842   -1.2762    3.2990 H   0  0  0  0  0  0  0  0  0  0  0  0
   -4.8307   -2.3727    4.4951 H   0  0  0  0  0  0  0  0  0  0  0  0
   -5.5460   -3.3977    2.2591 H   0  0  0  0  0  0  0  0  0  0  0  0
   -2.5631   -3.7121    2.9960 H   0  0  0  0  0  0  0  0  0  0  0  0
   -3.5746   -4.9003    2.1056 H   0  0  0  0  0  0  0  0  0  0  0  0
   -3.9589   -4.5183    3.8103 H   0  0  0  0  0  0  0  0  0  0  0  0
   -3.0131   -2.6466    0.8332 H   0  0  0  0  0  0  0  0  0  0  0  0
   -5.9907   -2.4700    0.1314 H   0  0  0  0  0  0  0  0  0  0  0  0
   -5.6520   -4.4342   -1.2488 H   0  0  0  0  0  0  0  0  0  0  0  0
   -5.1526   -4.8267    0.4035 H   0  0  0  0  0  0  0  0  0  0  0  0
   -3.6515   -5.5761   -1.6335 H   0  0  0  0  0  0  0  0  0  0  0  0
   -2.8365   -4.9296   -0.1827 H   0  0  0  0  0  0  0  0  0  0  0  0
   -2.0838   -3.0127   -1.2667 H   0  0  0  0  0  0  0  0  0  0  0  0
   -2.2240   -4.0806   -2.6898 H   0  0  0  0  0  0  0  0  0  0  0  0
   -3.2625   -1.8725   -3.1369 H   0  0  0  0  0  0  0  0  0  0  0  0
   -4.4854   -3.1824   -3.1876 H   0  0  0  0  0  0  0  0  0  0  0  0
   -5.6141   -1.5976   -1.9219 H   0  0  0  0  0  0  0  0  0  0  0  0
   -4.1529   -0.9071   -1.2175 H   0  0  0  0  0  0  0  0  0  0  0  0
   -2.5590    1.5188    3.0112 H   0  0  0  0  0  0  0  0  0  0  0  0
   -4.2566    1.4458    2.4117 H   0  0  0  0  0  0  0  0  0  0  0  0
   -1.5636    6.5341   -2.0072 H   0  0  0  0  0  0  0  0  0  0  0  0
  1  2  2  0
  2  3  1  0
  2  4  1  0
  4  5  1  0
  5  6  1  0
  6  7  1  0
  7  8  1  0
  8  9  1  0
  9 10  1  0
  8 11  1  0
 11 12  1  0
 11 13  1  0
 13 14  1  0
 13 15  1  0
  4 16  1  0
 16 17  1  0
 16 18  1  0
 18 19  2  0
 19 20  1  0
 20 21  2  0
 21 22  1  0
 22 23  1  0
 23 24  1  0
 24 25  1  0
 25 26  2  0
 26 27  1  0
 25 28  1  0
 28 29  1  0
 28 30  2  0
 30 31  1  0
 31 32  1  0
 32 33  2  0
 32 34  1  0
 34 35  1  0
 35 36  1  0
 36 37  1  0
 37 38  1  0
 37 39  1  0
 40 39  1  6
 40 41  1  0
 41 42  1  0
 42 43  1  0
 43 44  1  0
 43 45  1  0
 45 46  1  0
 45 47  1  0
 47 48  1  0
 48 49  1  0
 49 50  1  0
 50 51  1  0
 51 52  1  0
 40 53  1  0
 31 54  1  0
 54 55  1  6
 38  1  1  0
 46 40  1  0
 52 47  1  0
 15  6  1  0
 54 21  1  0
 54 24  1  0
 53 35  1  0
  1 56  1  0
  3 57  1  0
  3 58  1  0
  3 59  1  0
  4 60  1  1
  6 61  1  1
  7 62  1  0
  7 63  1  0
  8 64  1  6
 10 65  1  0
 10 66  1  0
 10 67  1  0
 11 68  1  1
 12 69  1  0
 13 70  1  6
 14 71  1  0
 14 72  1  0
 14 73  1  0
 16 74  1  1
 17 75  1  0
 17 76  1  0
 17 77  1  0
 18 78  1  0
 19 79  1  0
 20 80  1  0
 22 81  1  0
 22 82  1  0
 24 83  1  6
 27 84  1  0
 29 85  1  0
 29 86  1  0
 29 87  1  0
 30 88  1  0
 31 89  1  1
 35 90  1  6
 36 91  1  0
 36 92  1  0
 37 93  1  6
 38 94  1  0
 38 95  1  0
 41 96  1  0
 41 97  1  0
 42 98  1  0
 42 99  1  0
 43100  1  6
 44101  1  0
 44102  1  0
 44103  1  0
 45104  1  6
 47105  1  0
 48106  1  0
 48107  1  0
 49108  1  0
 49109  1  0
 50110  1  0
 50111  1  0
 51112  1  0
 51113  1  0
 52114  1  0
 52115  1  0
 53116  1  0
 53117  1  0
 55118  1  0
M  END
$$$$
