
     RDKit          3D

 52 53  0  0  0  0  0  0  0  0999 V2000
   -4.9549   -2.3684   -1.1243 C   0  0  0  0  0  0  0  0  0  0  0  0
   -3.7518   -1.5210   -0.7710 C   0  0  0  0  0  0  0  0  0  0  0  0
   -3.0554   -1.7313    0.3676 C   0  0  0  0  0  0  0  0  0  0  0  0
   -3.4620   -2.8091    1.3492 C   0  0  0  0  0  0  0  0  0  0  0  0
   -1.9073   -0.8504    0.6987 C   0  0  0  0  0  0  0  0  0  0  0  0
   -1.3224   -0.9979    1.8053 O   0  0  0  0  0  0  0  0  0  0  0  0
   -1.4459    0.2073   -0.2485 C   0  0  0  0  0  0  0  0  0  0  0  0
   -0.2225    1.0592    0.1266 C   0  0  0  0  0  0  0  0  0  0  0  0
    1.0788    0.2172    0.1504 C   0  0  0  0  0  0  0  0  0  0  0  0
    1.4656   -0.2935   -1.2494 C   0  0  0  0  0  0  0  0  0  0  0  0
    2.6908   -1.2211   -1.2246 C   0  0  0  0  0  0  0  0  0  0  0  0
    3.9961   -0.4722   -0.9172 C   0  0  0  0  0  0  0  0  0  0  0  0
    5.2050   -1.4036   -1.0471 C   0  0  0  0  0  0  0  0  0  0  0  0
    6.4695   -0.6665   -0.7381 C   0  0  0  0  0  0  0  0  0  0  0  0
    7.1369    0.0182   -1.7488 O   0  0  0  0  0  0  0  0  0  0  0  0
    6.9082   -0.6318    0.4427 O   0  0  0  0  0  0  0  0  0  0  0  0
   -0.4921    1.8351    1.4115 C   0  0  0  0  0  0  0  0  0  0  0  0
    0.0893    1.4937    2.6527 C   0  0  0  0  0  0  0  0  0  0  0  0
   -0.2117    2.2289    3.8033 C   0  0  0  0  0  0  0  0  0  0  0  0
   -1.0960    3.3068    3.7368 C   0  0  0  0  0  0  0  0  0  0  0  0
   -1.6846    3.6513    2.5192 C   0  0  0  0  0  0  0  0  0  0  0  0
   -1.3879    2.9206    1.3655 C   0  0  0  0  0  0  0  0  0  0  0  0
   -2.1186    0.3773   -1.4193 C   0  0  0  0  0  0  0  0  0  0  0  0
   -1.7084    1.4241   -2.4340 C   0  0  0  0  0  0  0  0  0  0  0  0
   -3.2968   -0.4795   -1.7245 C   0  0  0  0  0  0  0  0  0  0  0  0
   -3.9164   -0.3254   -2.8124 O   0  0  0  0  0  0  0  0  0  0  0  0
   -4.6187   -3.3724   -1.4579 H   0  0  0  0  0  0  0  0  0  0  0  0
   -5.6304   -2.4756   -0.2498 H   0  0  0  0  0  0  0  0  0  0  0  0
   -5.5575   -1.9135   -1.9371 H   0  0  0  0  0  0  0  0  0  0  0  0
   -3.6816   -3.7605    0.8208 H   0  0  0  0  0  0  0  0  0  0  0  0
   -4.3615   -2.4813    1.9112 H   0  0  0  0  0  0  0  0  0  0  0  0
   -2.6549   -3.0306    2.0775 H   0  0  0  0  0  0  0  0  0  0  0  0
   -0.0288    1.8459   -0.6292 H   0  0  0  0  0  0  0  0  0  0  0  0
    1.9013    0.8591    0.5320 H   0  0  0  0  0  0  0  0  0  0  0  0
    0.9739   -0.6511    0.8337 H   0  0  0  0  0  0  0  0  0  0  0  0
    0.6165   -0.8711   -1.6740 H   0  0  0  0  0  0  0  0  0  0  0  0
    1.6606    0.5667   -1.9264 H   0  0  0  0  0  0  0  0  0  0  0  0
    2.5345   -2.0318   -0.4794 H   0  0  0  0  0  0  0  0  0  0  0  0
    2.7781   -1.6976   -2.2258 H   0  0  0  0  0  0  0  0  0  0  0  0
    3.9634   -0.0719    0.1188 H   0  0  0  0  0  0  0  0  0  0  0  0
    4.1112    0.3786   -1.6247 H   0  0  0  0  0  0  0  0  0  0  0  0
    5.0977   -2.2624   -0.3487 H   0  0  0  0  0  0  0  0  0  0  0  0
    5.2643   -1.8035   -2.0825 H   0  0  0  0  0  0  0  0  0  0  0  0
    7.9854    0.5358   -1.5529 H   0  0  0  0  0  0  0  0  0  0  0  0
    0.7697    0.6594    2.7465 H   0  0  0  0  0  0  0  0  0  0  0  0
    0.2396    1.9596    4.7495 H   0  0  0  0  0  0  0  0  0  0  0  0
   -1.3277    3.8730    4.6296 H   0  0  0  0  0  0  0  0  0  0  0  0
   -2.3737    4.4845    2.4691 H   0  0  0  0  0  0  0  0  0  0  0  0
   -1.8601    3.2003    0.4321 H   0  0  0  0  0  0  0  0  0  0  0  0
   -0.6662    1.2439   -2.7698 H   0  0  0  0  0  0  0  0  0  0  0  0
   -1.7958    2.4381   -1.9910 H   0  0  0  0  0  0  0  0  0  0  0  0
   -2.3447    1.4104   -3.3417 H   0  0  0  0  0  0  0  0  0  0  0  0
  1  2  1  0
  2  3  2  0
  3  4  1  0
  3  5  1  0
  5  6  2  0
  5  7  1  0
  7  8  1  0
  8  9  1  0
  9 10  1  0
 10 11  1  0
 11 12  1  0
 12 13  1  0
 13 14  1  0
 14 15  1  0
 14 16  2  0
  8 17  1  0
 17 18  2  0
 18 19  1  0
 19 20  2  0
 20 21  1  0
 21 22  2  0
  7 23  2  0
 23 24  1  0
 23 25  1  0
 25 26  2  0
 25  2  1  0
 22 17  1  0
  1 27  1  0
  1 28  1  0
  1 29  1  0
  4 30  1  0
  4 31  1  0
  4 32  1  0
  8 33  1  0
  9 34  1  0
  9 35  1  0
 10 36  1  0
 10 37  1  0
 11 38  1  0
 11 39  1  0
 12 40  1  0
 12 41  1  0
 13 42  1  0
 13 43  1  0
 15 44  1  0
 18 45  1  0
 19 46  1  0
 20 47  1  0
 21 48  1  0
 22 49  1  0
 24 50  1  0
 24 51  1  0
 24 52  1  0
M  END
$$$$
