
     RDKit          3D

 69 74  0  0  0  0  0  0  0  0999 V2000
   -0.0889    6.1957   -0.3029 C   0  0  0  0  0  0  0  0  0  0  0  0
    0.9770    5.2048   -0.7698 C   0  0  0  0  0  0  0  0  0  0  0  0
    1.2404    4.0986    0.2608 C   0  0  0  0  0  0  0  0  0  0  0  0
    0.0661    3.1702    0.3986 C   0  0  0  0  0  0  0  0  0  0  0  0
   -0.8983    3.3666    1.3345 N   0  0  0  0  0  0  0  0  0  0  0  0
   -1.7694    2.3694    1.0949 C   0  0  0  0  0  0  0  0  0  0  0  0
   -1.3439    1.6074    0.0459 C   0  0  0  0  0  0  0  0  0  0  0  0
   -2.0786    0.5128   -0.4146 C   0  0  0  0  0  0  0  0  0  0  0  0
   -3.2847    0.1958    0.2473 C   0  0  0  0  0  0  0  0  0  0  0  0
   -3.7324    1.0070    1.3201 C   0  0  0  0  0  0  0  0  0  0  0  0
   -2.9623    2.1004    1.7707 C   0  0  0  0  0  0  0  0  0  0  0  0
   -3.4391    2.9793    2.8887 C   0  0  0  0  0  0  0  0  0  0  0  0
   -4.1164   -0.9388   -0.2044 C   0  0  0  0  0  0  0  0  0  0  0  0
   -5.4663   -0.8335   -0.3315 N   0  0  0  0  0  0  0  0  0  0  0  0
   -5.8282   -2.0494   -0.7775 C   0  0  0  0  0  0  0  0  0  0  0  0
   -7.1125   -2.4903   -1.0877 C   0  0  0  0  0  0  0  0  0  0  0  0
   -7.2581   -3.8126   -1.5469 C   0  0  0  0  0  0  0  0  0  0  0  0
   -6.1286   -4.6509   -1.6836 C   0  0  0  0  0  0  0  0  0  0  0  0
   -4.8441   -4.1750   -1.3605 C   0  0  0  0  0  0  0  0  0  0  0  0
   -4.7365   -2.8579   -0.9063 C   0  0  0  0  0  0  0  0  0  0  0  0
   -3.6416   -2.1752   -0.5300 N   0  0  0  0  0  0  0  0  0  0  0  0
   -2.2669   -2.6725   -0.4661 C   0  0  0  0  0  0  0  0  0  0  0  0
   -0.1816    2.1065   -0.4158 N   0  0  0  0  0  0  0  0  0  0  0  0
    0.6603    1.5793   -1.4968 C   0  0  0  0  0  0  0  0  0  0  0  0
    1.7553    0.7051   -0.9412 C   0  0  0  0  0  0  0  0  0  0  0  0
    1.4394   -0.4918   -0.2787 C   0  0  0  0  0  0  0  0  0  0  0  0
    2.4523   -1.3032    0.2389 C   0  0  0  0  0  0  0  0  0  0  0  0
    3.7984   -0.9376    0.0891 C   0  0  0  0  0  0  0  0  0  0  0  0
    4.1165    0.2608   -0.5689 C   0  0  0  0  0  0  0  0  0  0  0  0
    3.1033    1.0717   -1.0871 C   0  0  0  0  0  0  0  0  0  0  0  0
    4.8695   -1.7884    0.6549 C   0  0  0  0  0  0  0  0  0  0  0  0
    4.8675   -2.0185    2.0420 C   0  0  0  0  0  0  0  0  0  0  0  0
    5.8978   -2.7397    2.6454 C   0  0  0  0  0  0  0  0  0  0  0  0
    6.9452   -3.2386    1.8741 C   0  0  0  0  0  0  0  0  0  0  0  0
    6.9586   -3.0331    0.4936 C   0  0  0  0  0  0  0  0  0  0  0  0
    5.9204   -2.3230   -0.1396 C   0  0  0  0  0  0  0  0  0  0  0  0
    5.9407   -2.2049   -1.6190 C   0  0  0  0  0  0  0  0  0  0  0  0
    4.7566   -2.0665   -2.3381 O   0  0  0  0  0  0  0  0  0  0  0  0
    7.0347   -2.2659   -2.2430 O   0  0  0  0  0  0  0  0  0  0  0  0
   -0.1833    7.0148   -1.0465 H   0  0  0  0  0  0  0  0  0  0  0  0
   -1.0747    5.6936   -0.2102 H   0  0  0  0  0  0  0  0  0  0  0  0
    0.1942    6.6371    0.6763 H   0  0  0  0  0  0  0  0  0  0  0  0
    1.9238    5.7613   -0.9403 H   0  0  0  0  0  0  0  0  0  0  0  0
    0.6668    4.7620   -1.7404 H   0  0  0  0  0  0  0  0  0  0  0  0
    1.4719    4.5525    1.2487 H   0  0  0  0  0  0  0  0  0  0  0  0
    2.1368    3.5228   -0.0437 H   0  0  0  0  0  0  0  0  0  0  0  0
   -1.7469   -0.0603   -1.2683 H   0  0  0  0  0  0  0  0  0  0  0  0
   -4.6719    0.7778    1.8093 H   0  0  0  0  0  0  0  0  0  0  0  0
   -2.5900    3.2547    3.5495 H   0  0  0  0  0  0  0  0  0  0  0  0
   -4.2015    2.4585    3.5061 H   0  0  0  0  0  0  0  0  0  0  0  0
   -3.8866    3.9033    2.4669 H   0  0  0  0  0  0  0  0  0  0  0  0
   -7.9699   -1.8385   -0.9809 H   0  0  0  0  0  0  0  0  0  0  0  0
   -8.2411   -4.1891   -1.7981 H   0  0  0  0  0  0  0  0  0  0  0  0
   -6.2519   -5.6654   -2.0396 H   0  0  0  0  0  0  0  0  0  0  0  0
   -3.9772   -4.8127   -1.4687 H   0  0  0  0  0  0  0  0  0  0  0  0
   -2.2573   -3.7538   -0.2168 H   0  0  0  0  0  0  0  0  0  0  0  0
   -1.7013   -2.1464    0.3305 H   0  0  0  0  0  0  0  0  0  0  0  0
   -1.7674   -2.5202   -1.4453 H   0  0  0  0  0  0  0  0  0  0  0  0
    1.0856    2.4219   -2.0815 H   0  0  0  0  0  0  0  0  0  0  0  0
    0.0511    0.9910   -2.2136 H   0  0  0  0  0  0  0  0  0  0  0  0
    0.4103   -0.7998   -0.1613 H   0  0  0  0  0  0  0  0  0  0  0  0
    2.1879   -2.2219    0.7482 H   0  0  0  0  0  0  0  0  0  0  0  0
    5.1497    0.5663   -0.6802 H   0  0  0  0  0  0  0  0  0  0  0  0
    3.3728    1.9868   -1.5996 H   0  0  0  0  0  0  0  0  0  0  0  0
    4.0759   -1.6161    2.6629 H   0  0  0  0  0  0  0  0  0  0  0  0
    5.8890   -2.9032    3.7154 H   0  0  0  0  0  0  0  0  0  0  0  0
    7.7455   -3.7944    2.3456 H   0  0  0  0  0  0  0  0  0  0  0  0
    7.7726   -3.4532   -0.0844 H   0  0  0  0  0  0  0  0  0  0  0  0
    4.7660   -1.9939   -3.3484 H   0  0  0  0  0  0  0  0  0  0  0  0
  1  2  1  0
  2  3  1  0
  3  4  1  0
  4  5  2  0
  5  6  1  0
  6  7  2  0
  7  8  1  0
  8  9  2  0
  9 10  1  0
 10 11  2  0
 11 12  1  0
  9 13  1  0
 13 14  2  0
 14 15  1  0
 15 16  2  0
 16 17  1  0
 17 18  2  0
 18 19  1  0
 19 20  2  0
 20 21  1  0
 21 22  1  0
  7 23  1  0
 23 24  1  0
 24 25  1  0
 25 26  2  0
 26 27  1  0
 27 28  2  0
 28 29  1  0
 29 30  2  0
 28 31  1  0
 31 32  2  0
 32 33  1  0
 33 34  2  0
 34 35  1  0
 35 36  2  0
 36 37  1  0
 37 38  1  0
 37 39  2  0
 23  4  1  0
 30 25  1  0
 36 31  1  0
 11  6  1  0
 21 13  1  0
 20 15  1  0
  1 40  1  0
  1 41  1  0
  1 42  1  0
  2 43  1  0
  2 44  1  0
  3 45  1  0
  3 46  1  0
  8 47  1  0
 10 48  1  0
 12 49  1  0
 12 50  1  0
 12 51  1  0
 16 52  1  0
 17 53  1  0
 18 54  1  0
 19 55  1  0
 22 56  1  0
 22 57  1  0
 22 58  1  0
 24 59  1  0
 24 60  1  0
 26 61  1  0
 27 62  1  0
 29 63  1  0
 30 64  1  0
 32 65  1  0
 33 66  1  0
 34 67  1  0
 35 68  1  0
 38 69  1  0
M  END
$$$$
