
     RDKit          3D

 34 34  0  0  0  0  0  0  0  0999 V2000
   -0.5437   -0.2454   -2.6000 O   0  0  0  0  0  0  0  0  0  0  0  0
    0.3962    0.3218   -1.7233 C   0  0  1  0  0  0  0  0  0  0  0  0
   -0.2711    1.3661   -0.8665 C   0  0  2  0  0  0  0  0  0  0  0  0
    0.6645    2.3715   -0.5603 O   0  0  0  0  0  0  0  0  0  0  0  0
   -0.6621    0.5809    0.4003 C   0  0  1  0  0  0  0  0  0  0  0  0
   -0.5680    1.3897    1.5494 O   0  0  0  0  0  0  0  0  0  0  0  0
   -2.0871   -0.0117    0.3027 C   0  0  0  0  0  0  0  0  0  0  0  0
   -3.0356    1.0195    0.1454 O   0  0  0  0  0  0  0  0  0  0  0  0
   -4.5802    0.3142   -0.0165 P   0  0  0  0  0  5  0  0  0  0  0  0
   -5.7420    1.5425   -0.0776 O   0  0  0  0  0  0  0  0  0  0  0  0
   -4.9109   -0.6901    1.3054 O   0  0  0  0  0  0  0  0  0  0  0  0
   -4.6488   -0.4947   -1.2927 O   0  0  0  0  0  0  0  0  0  0  0  0
    0.2470   -0.4889    0.5429 O   0  0  0  0  0  0  0  0  0  0  0  0
    0.8757   -0.7189   -0.7025 C   0  0  2  0  0  0  0  0  0  0  0  0
    2.3962   -0.6664   -0.5156 C   0  0  0  0  0  0  0  0  0  0  0  0
    2.7805   -1.6448    0.4217 O   0  0  0  0  0  0  0  0  0  0  0  0
    4.4801   -1.6177    0.5696 P   0  0  0  0  0  5  0  0  0  0  0  0
    4.9383   -2.7063    1.7806 O   0  0  0  0  0  0  0  0  0  0  0  0
    5.0138   -0.0690    1.0032 O   0  0  0  0  0  0  0  0  0  0  0  0
    5.1215   -2.0362   -0.7357 O   0  0  0  0  0  0  0  0  0  0  0  0
   -0.0289   -0.7842   -3.2561 H   0  0  0  0  0  0  0  0  0  0  0  0
    1.2307    0.7708   -2.3142 H   0  0  0  0  0  0  0  0  0  0  0  0
   -1.1519    1.8077   -1.3919 H   0  0  0  0  0  0  0  0  0  0  0  0
    0.1484    3.1950   -0.3579 H   0  0  0  0  0  0  0  0  0  0  0  0
   -1.1870    2.1577    1.4348 H   0  0  0  0  0  0  0  0  0  0  0  0
   -2.2855   -0.5790    1.2403 H   0  0  0  0  0  0  0  0  0  0  0  0
   -2.1243   -0.7205   -0.5552 H   0  0  0  0  0  0  0  0  0  0  0  0
   -5.4416    2.1378   -0.8100 H   0  0  0  0  0  0  0  0  0  0  0  0
   -4.8554   -0.0934    2.0939 H   0  0  0  0  0  0  0  0  0  0  0  0
    0.6082   -1.7426   -1.0481 H   0  0  0  0  0  0  0  0  0  0  0  0
    2.8763   -0.8581   -1.5029 H   0  0  0  0  0  0  0  0  0  0  0  0
    2.6717    0.3502   -0.1539 H   0  0  0  0  0  0  0  0  0  0  0  0
    4.5297   -3.5681    1.5134 H   0  0  0  0  0  0  0  0  0  0  0  0
    5.1452    0.4105    0.1465 H   0  0  0  0  0  0  0  0  0  0  0  0
  1  2  1  0
  2  3  1  0
  3  4  1  0
  3  5  1  0
  5  6  1  1
  5  7  1  0
  7  8  1  0
  8  9  1  0
  9 10  1  0
  9 11  1  0
  9 12  2  0
  5 13  1  0
 13 14  1  0
 14 15  1  0
 15 16  1  0
 16 17  1  0
 17 18  1  0
 17 19  1  0
 17 20  2  0
 14  2  1  0
  1 21  1  0
  2 22  1  6
  3 23  1  6
  4 24  1  0
  6 25  1  0
  7 26  1  0
  7 27  1  0
 10 28  1  0
 11 29  1  0
 14 30  1  6
 15 31  1  0
 15 32  1  0
 18 33  1  0
 19 34  1  0
M  END
$$$$
