
     RDKit          3D

 36 36  0  0  0  0  0  0  0  0999 V2000
    7.4114   -1.7813    0.8392 C   0  0  0  0  0  0  0  0  0  0  0  0
    6.8166   -0.3793    0.9688 C   0  0  0  0  0  0  0  0  0  0  0  0
    5.2921   -0.3611    0.7794 C   0  0  0  0  0  0  0  0  0  0  0  0
    4.8779   -0.6247   -0.6732 C   0  0  0  0  0  0  0  0  0  0  0  0
    3.4256   -0.4831   -0.8226 C   0  0  0  0  0  0  0  0  0  0  0  0
    2.2320   -0.3666   -0.9448 C   0  0  0  0  0  0  0  0  0  0  0  0
    0.8100   -0.2277   -1.0891 C   0  0  0  0  0  0  0  0  0  0  0  0
    0.0991   -0.4345   -2.2515 C   0  0  0  0  0  0  0  0  0  0  0  0
   -1.2193   -0.1899   -1.9283 C   0  0  0  0  0  0  0  0  0  0  0  0
   -1.2234    0.1511   -0.5843 C   0  0  0  0  0  0  0  0  0  0  0  0
    0.0038    0.1187   -0.1144 O   0  0  0  0  0  0  0  0  0  0  0  0
   -2.3929    0.5043    0.2402 C   0  0  0  0  0  0  0  0  0  0  0  0
   -2.2120    0.7896    1.4544 O   0  0  0  0  0  0  0  0  0  0  0  0
   -3.7187    0.5283   -0.3107 N   0  0  0  0  0  0  0  0  0  0  0  0
   -4.8317    0.8671    0.4847 N   0  0  0  0  0  0  0  0  0  0  0  0
   -6.1774    0.9047   -0.0221 C   0  0  0  0  0  0  0  0  0  0  0  0
   -6.4967    0.5450   -1.5969 S   0  0  0  0  0  0  0  0  0  0  0  0
   -7.2449    1.2629    0.8716 N   0  0  0  0  0  0  0  0  0  0  0  0
   -8.6445    1.3322    0.4638 C   0  0  0  0  0  0  0  0  0  0  0  0
    8.4909   -1.7490    1.0973 H   0  0  0  0  0  0  0  0  0  0  0  0
    6.9037   -2.4849    1.5328 H   0  0  0  0  0  0  0  0  0  0  0  0
    7.3167   -2.1542   -0.2015 H   0  0  0  0  0  0  0  0  0  0  0  0
    7.0484    0.0040    1.9862 H   0  0  0  0  0  0  0  0  0  0  0  0
    7.3018    0.3008    0.2354 H   0  0  0  0  0  0  0  0  0  0  0  0
    4.8203   -1.1120    1.4514 H   0  0  0  0  0  0  0  0  0  0  0  0
    4.9213    0.6432    1.0829 H   0  0  0  0  0  0  0  0  0  0  0  0
    5.3768    0.1004   -1.3509 H   0  0  0  0  0  0  0  0  0  0  0  0
    5.1594   -1.6545   -0.9756 H   0  0  0  0  0  0  0  0  0  0  0  0
    0.4900   -0.7274   -3.2172 H   0  0  0  0  0  0  0  0  0  0  0  0
   -2.0616   -0.2567   -2.6024 H   0  0  0  0  0  0  0  0  0  0  0  0
   -3.8504    0.2897   -1.3163 H   0  0  0  0  0  0  0  0  0  0  0  0
   -4.6871    1.1044    1.4917 H   0  0  0  0  0  0  0  0  0  0  0  0
   -7.0132    1.4862    1.8657 H   0  0  0  0  0  0  0  0  0  0  0  0
   -8.7667    2.0868   -0.3414 H   0  0  0  0  0  0  0  0  0  0  0  0
   -8.9824    0.3385    0.1017 H   0  0  0  0  0  0  0  0  0  0  0  0
   -9.2749    1.6291    1.3285 H   0  0  0  0  0  0  0  0  0  0  0  0
  1  2  1  0
  2  3  1  0
  3  4  1  0
  4  5  1  0
  5  6  3  0
  6  7  1  0
  7  8  2  0
  8  9  1  0
  9 10  2  0
 10 11  1  0
 10 12  1  0
 12 13  2  0
 12 14  1  0
 14 15  1  0
 15 16  1  0
 16 17  2  0
 16 18  1  0
 18 19  1  0
 11  7  1  0
  1 20  1  0
  1 21  1  0
  1 22  1  0
  2 23  1  0
  2 24  1  0
  3 25  1  0
  3 26  1  0
  4 27  1  0
  4 28  1  0
  8 29  1  0
  9 30  1  0
 14 31  1  0
 15 32  1  0
 18 33  1  0
 19 34  1  0
 19 35  1  0
 19 36  1  0
M  END
$$$$
