
     RDKit          3D

 67 71  0  0  0  0  0  0  0  0999 V2000
    1.8422   -0.4452    1.7119 C   0  0  2  0  0  0  0  0  0  0  0  0
    0.3876   -0.1042    2.1116 C   0  0  0  0  0  0  0  0  0  0  0  0
   -0.3910   -0.2131    0.8078 C   0  0  1  0  0  0  0  0  0  0  0  0
   -1.7872    0.4409    0.6925 C   0  0  2  0  0  0  0  0  0  0  0  0
   -2.7018   -0.0421    1.8387 C   0  0  0  0  0  0  0  0  0  0  0  0
   -4.1095    0.5403    1.7187 C   0  0  2  0  0  0  0  0  0  0  0  0
   -4.8876    0.0327    2.7479 F   0  0  0  0  0  0  0  0  0  0  0  0
   -4.6832    0.2232    0.3523 C   0  0  0  0  0  0  0  0  0  0  0  0
   -5.8814   -0.3790    0.2415 C   0  0  0  0  0  0  0  0  0  0  0  0
   -6.4298   -0.7331   -1.0668 C   0  0  0  0  0  0  0  0  0  0  0  0
   -7.5609   -1.2795   -1.1530 O   0  0  0  0  0  0  0  0  0  0  0  0
   -5.6513   -0.4652   -2.2714 C   0  0  0  0  0  0  0  0  0  0  0  0
   -4.4679    0.1421   -2.1916 C   0  0  0  0  0  0  0  0  0  0  0  0
   -3.8658    0.6557   -0.8813 C   0  0  1  0  0  0  0  0  0  0  0  0
   -3.9242    2.2032   -0.9535 C   0  0  0  0  0  0  0  0  0  0  0  0
   -2.4034    0.0674   -0.7094 C   0  0  2  0  0  0  0  0  0  0  0  0
   -2.5510   -1.3170   -0.7318 F   0  0  0  0  0  0  0  0  0  0  0  0
   -1.4111    0.3969   -1.8883 C   0  0  1  0  0  0  0  0  0  0  0  0
   -1.3627    1.7732   -2.1520 O   0  0  0  0  0  0  0  0  0  0  0  0
    0.0272   -0.1499   -1.6460 C   0  0  0  0  0  0  0  0  0  0  0  0
    0.5964    0.2618   -0.2631 C   0  0  1  0  0  0  0  0  0  0  0  0
    0.8569    1.8070   -0.2178 C   0  0  0  0  0  0  0  0  0  0  0  0
    1.8941   -0.4867    0.1804 C   0  0  2  0  0  0  0  0  0  0  0  0
    1.8174   -1.8496   -0.1376 O   0  0  0  0  0  0  0  0  0  0  0  0
    2.2031   -2.5573    1.0234 C   0  0  0  0  0  0  0  0  0  0  0  0
    1.2277   -3.7183    1.2454 C   0  0  0  0  0  0  0  0  0  0  0  0
    3.6199   -3.1142    0.8305 C   0  0  0  0  0  0  0  0  0  0  0  0
    2.1830   -1.7226    2.1617 O   0  0  0  0  0  0  0  0  0  0  0  0
    3.1625    0.0706   -0.4700 C   0  0  0  0  0  0  0  0  0  0  0  0
    3.2958   -0.0578   -1.6788 O   0  0  0  0  0  0  0  0  0  0  0  0
    4.2500    0.7666    0.3107 C   0  0  0  0  0  0  0  0  0  0  0  0
    5.3368    1.1128   -0.5441 O   0  0  0  0  0  0  0  0  0  0  0  0
    6.4809    1.7676   -0.0802 C   0  0  0  0  0  0  0  0  0  0  0  0
    7.5683    2.1153   -1.0388 C   0  0  0  0  0  0  0  0  0  0  0  0
    6.5847    2.1037    1.1309 O   0  0  0  0  0  0  0  0  0  0  0  0
    2.5196    0.3013    2.1725 H   0  0  0  0  0  0  0  0  0  0  0  0
   -0.0055   -0.8102    2.8760 H   0  0  0  0  0  0  0  0  0  0  0  0
    0.3255    0.9307    2.5134 H   0  0  0  0  0  0  0  0  0  0  0  0
   -0.5608   -1.3047    0.6643 H   0  0  0  0  0  0  0  0  0  0  0  0
   -1.6903    1.5362    0.8030 H   0  0  0  0  0  0  0  0  0  0  0  0
   -2.2775    0.2768    2.8153 H   0  0  0  0  0  0  0  0  0  0  0  0
   -2.7622   -1.1533    1.8423 H   0  0  0  0  0  0  0  0  0  0  0  0
   -4.0642    1.6425    1.8475 H   0  0  0  0  0  0  0  0  0  0  0  0
   -6.4601   -0.6405    1.1183 H   0  0  0  0  0  0  0  0  0  0  0  0
   -6.0416   -0.7577   -3.2386 H   0  0  0  0  0  0  0  0  0  0  0  0
   -3.9589    0.3574   -3.1221 H   0  0  0  0  0  0  0  0  0  0  0  0
   -3.6032    2.5881   -1.9433 H   0  0  0  0  0  0  0  0  0  0  0  0
   -3.3085    2.6897   -0.1731 H   0  0  0  0  0  0  0  0  0  0  0  0
   -4.9719    2.5502   -0.8170 H   0  0  0  0  0  0  0  0  0  0  0  0
   -1.7838   -0.1244   -2.7994 H   0  0  0  0  0  0  0  0  0  0  0  0
   -0.9901    1.8834   -3.0658 H   0  0  0  0  0  0  0  0  0  0  0  0
    0.7023    0.2015   -2.4559 H   0  0  0  0  0  0  0  0  0  0  0  0
   -0.0113   -1.2581   -1.7266 H   0  0  0  0  0  0  0  0  0  0  0  0
   -0.0576    2.4207   -0.2692 H   0  0  0  0  0  0  0  0  0  0  0  0
    1.4946    2.1143   -1.0735 H   0  0  0  0  0  0  0  0  0  0  0  0
    1.3805    2.1077    0.7128 H   0  0  0  0  0  0  0  0  0  0  0  0
    1.5383   -4.3242    2.1235 H   0  0  0  0  0  0  0  0  0  0  0  0
    1.1949   -4.3738    0.3487 H   0  0  0  0  0  0  0  0  0  0  0  0
    0.2051   -3.3356    1.4387 H   0  0  0  0  0  0  0  0  0  0  0  0
    3.6566   -3.7790   -0.0591 H   0  0  0  0  0  0  0  0  0  0  0  0
    3.9359   -3.6913    1.7258 H   0  0  0  0  0  0  0  0  0  0  0  0
    4.3439   -2.2883    0.6781 H   0  0  0  0  0  0  0  0  0  0  0  0
    3.8375    1.6914    0.7669 H   0  0  0  0  0  0  0  0  0  0  0  0
    4.6207    0.0925    1.1117 H   0  0  0  0  0  0  0  0  0  0  0  0
    7.4415    3.1647   -1.3769 H   0  0  0  0  0  0  0  0  0  0  0  0
    8.5585    2.0044   -0.5487 H   0  0  0  0  0  0  0  0  0  0  0  0
    7.5270    1.4411   -1.9199 H   0  0  0  0  0  0  0  0  0  0  0  0
  1  2  1  0
  2  3  1  0
  3  4  1  0
  4  5  1  0
  5  6  1  0
  6  7  1  0
  6  8  1  0
  8  9  2  0
  9 10  1  0
 10 11  2  0
 10 12  1  0
 12 13  2  0
 13 14  1  0
 14 15  1  6
 14 16  1  0
 16 17  1  1
 16 18  1  0
 18 19  1  0
 18 20  1  0
 20 21  1  0
 21 22  1  6
 21 23  1  0
 23 24  1  0
 24 25  1  0
 25 26  1  0
 25 27  1  0
 25 28  1  0
 23 29  1  6
 29 30  2  0
 29 31  1  0
 31 32  1  0
 32 33  1  0
 33 34  1  0
 33 35  2  0
 23  1  1  0
 28  1  1  0
 21  3  1  0
 16  4  1  0
 14  8  1  0
  1 36  1  1
  2 37  1  0
  2 38  1  0
  3 39  1  6
  4 40  1  6
  5 41  1  0
  5 42  1  0
  6 43  1  1
  9 44  1  0
 12 45  1  0
 13 46  1  0
 15 47  1  0
 15 48  1  0
 15 49  1  0
 18 50  1  6
 19 51  1  0
 20 52  1  0
 20 53  1  0
 22 54  1  0
 22 55  1  0
 22 56  1  0
 26 57  1  0
 26 58  1  0
 26 59  1  0
 27 60  1  0
 27 61  1  0
 27 62  1  0
 31 63  1  0
 31 64  1  0
 34 65  1  0
 34 66  1  0
 34 67  1  0
M  END
$$$$
