
     RDKit          3D

 46 48  0  0  0  0  0  0  0  0999 V2000
    5.3543    3.5703    0.6117 C   0  0  0  0  0  0  0  0  0  0  0  0
    4.3985    2.5366    0.6808 O   0  0  0  0  0  0  0  0  0  0  0  0
    4.7038    1.5517   -0.2846 C   0  0  0  0  0  0  0  0  0  0  0  0
    3.6579    0.4376   -0.2299 C   0  0  0  0  0  0  0  0  0  0  0  0
    2.2701    0.9405   -0.6453 C   0  0  0  0  0  0  0  0  0  0  0  0
    1.3172   -0.1215   -0.5988 O   0  0  0  0  0  0  0  0  0  0  0  0
    0.7376   -0.6606    0.5650 C   0  0  0  0  0  0  0  0  0  0  0  0
   -0.1229   -1.7755    0.4498 C   0  0  0  0  0  0  0  0  0  0  0  0
   -0.3836   -2.3930   -0.9048 C   0  0  0  0  0  0  0  0  0  0  0  0
   -0.6928   -2.3242    1.6289 C   0  0  0  0  0  0  0  0  0  0  0  0
   -1.6579   -3.4819    1.6095 C   0  0  0  0  0  0  0  0  0  0  0  0
   -3.3779   -2.9132    1.7002 S   0  0  0  0  0  4  0  0  0  0  0  0
   -3.5064   -2.2512    3.0659 O   0  0  0  0  0  0  0  0  0  0  0  0
   -3.5457   -1.5708    0.5469 C   0  0  0  0  0  0  0  0  0  0  0  0
   -4.1714   -1.7081   -0.6513 N   0  0  0  0  0  0  0  0  0  0  0  0
   -4.0113   -0.4927   -1.2055 C   0  0  0  0  0  0  0  0  0  0  0  0
   -4.4413   -0.0639   -2.4590 C   0  0  0  0  0  0  0  0  0  0  0  0
   -4.1355    1.2576   -2.8382 C   0  0  0  0  0  0  0  0  0  0  0  0
   -3.4135    2.1047   -1.9654 C   0  0  0  0  0  0  0  0  0  0  0  0
   -2.9929    1.6377   -0.7057 C   0  0  0  0  0  0  0  0  0  0  0  0
   -3.3182    0.3271   -0.3653 C   0  0  0  0  0  0  0  0  0  0  0  0
   -3.0197   -0.3387    0.7551 N   0  0  0  0  0  0  0  0  0  0  0  0
   -0.4191   -1.7551    2.8336 N   0  0  0  0  0  0  0  0  0  0  0  0
    0.3956   -0.6801    2.9610 C   0  0  0  0  0  0  0  0  0  0  0  0
    0.9847   -0.1123    1.8362 C   0  0  0  0  0  0  0  0  0  0  0  0
    5.1085    4.3306    1.3812 H   0  0  0  0  0  0  0  0  0  0  0  0
    6.3772    3.1899    0.8297 H   0  0  0  0  0  0  0  0  0  0  0  0
    5.3298    4.0755   -0.3795 H   0  0  0  0  0  0  0  0  0  0  0  0
    4.7161    1.9847   -1.3118 H   0  0  0  0  0  0  0  0  0  0  0  0
    5.6985    1.0968   -0.0730 H   0  0  0  0  0  0  0  0  0  0  0  0
    3.6257    0.0193    0.7982 H   0  0  0  0  0  0  0  0  0  0  0  0
    3.9647   -0.3790   -0.9191 H   0  0  0  0  0  0  0  0  0  0  0  0
    2.3230    1.3064   -1.6927 H   0  0  0  0  0  0  0  0  0  0  0  0
    1.9352    1.7928   -0.0169 H   0  0  0  0  0  0  0  0  0  0  0  0
   -0.0671   -1.7345   -1.7391 H   0  0  0  0  0  0  0  0  0  0  0  0
   -1.4660   -2.5825   -1.0480 H   0  0  0  0  0  0  0  0  0  0  0  0
    0.1697   -3.3517   -0.9860 H   0  0  0  0  0  0  0  0  0  0  0  0
   -1.5280   -4.1209    0.7135 H   0  0  0  0  0  0  0  0  0  0  0  0
   -1.4610   -4.1312    2.4888 H   0  0  0  0  0  0  0  0  0  0  0  0
   -4.9874   -0.7236   -3.1207 H   0  0  0  0  0  0  0  0  0  0  0  0
   -4.4524    1.6260   -3.8052 H   0  0  0  0  0  0  0  0  0  0  0  0
   -3.1809    3.1172   -2.2682 H   0  0  0  0  0  0  0  0  0  0  0  0
   -2.4351    2.2724   -0.0295 H   0  0  0  0  0  0  0  0  0  0  0  0
   -2.4888    0.0064    1.5854 H   0  0  0  0  0  0  0  0  0  0  0  0
    0.5830   -0.2620    3.9410 H   0  0  0  0  0  0  0  0  0  0  0  0
    1.6257    0.7466    1.9709 H   0  0  0  0  0  0  0  0  0  0  0  0
  1  2  1  0
  2  3  1  0
  3  4  1  0
  4  5  1  0
  5  6  1  0
  6  7  1  0
  7  8  2  0
  8  9  1  0
  8 10  1  0
 10 11  1  0
 11 12  1  0
 12 13  2  0
 12 14  1  0
 14 15  2  0
 15 16  1  0
 16 17  2  0
 17 18  1  0
 18 19  2  0
 19 20  1  0
 20 21  2  0
 21 22  1  0
 10 23  2  0
 23 24  1  0
 24 25  2  0
 25  7  1  0
 22 14  1  0
 21 16  1  0
  1 26  1  0
  1 27  1  0
  1 28  1  0
  3 29  1  0
  3 30  1  0
  4 31  1  0
  4 32  1  0
  5 33  1  0
  5 34  1  0
  9 35  1  0
  9 36  1  0
  9 37  1  0
 11 38  1  0
 11 39  1  0
 17 40  1  0
 18 41  1  0
 19 42  1  0
 20 43  1  0
 22 44  1  0
 24 45  1  0
 25 46  1  0
M  END
$$$$
