
     RDKit          3D

 31 33  0  0  0  0  0  0  0  0999 V2000
    4.6483    1.4735   -0.1062 C   0  0  0  0  0  0  0  0  0  0  0  0
    3.4990    0.6441    0.3713 C   0  0  0  0  0  0  0  0  0  0  0  0
    3.3946   -0.0071    1.5896 C   0  0  0  0  0  0  0  0  0  0  0  0
    2.2056   -0.6533    1.6644 N   0  0  0  0  0  0  0  0  0  0  0  0
    1.6189   -0.3734    0.4808 C   0  0  0  0  0  0  0  0  0  0  0  0
    2.3710    0.4032   -0.3144 N   0  0  0  0  0  0  0  0  0  0  0  0
    1.9728    0.8082   -1.5471 C   0  0  0  0  0  0  0  0  0  0  0  0
    0.7136    0.3837   -1.9930 C   0  0  0  0  0  0  0  0  0  0  0  0
   -0.0574   -0.4078   -1.1879 N   0  0  0  0  0  0  0  0  0  0  0  0
    0.3605   -0.8040    0.0521 C   0  0  0  0  0  0  0  0  0  0  0  0
   -0.4688   -1.6328    0.8808 N   0  0  0  0  0  0  0  0  0  0  0  0
   -1.8137   -2.0429    0.4832 C   0  0  0  0  0  0  0  0  0  0  0  0
   -2.7602   -0.8760    0.5624 C   0  0  0  0  0  0  0  0  0  0  0  0
   -3.2802   -0.2939   -0.6033 C   0  0  0  0  0  0  0  0  0  0  0  0
   -4.1406    0.8019   -0.4997 C   0  0  0  0  0  0  0  0  0  0  0  0
   -4.4678    1.2995    0.7225 N   0  0  0  0  0  0  0  0  0  0  0  0
   -3.9761    0.7566    1.8678 C   0  0  0  0  0  0  0  0  0  0  0  0
   -3.1122   -0.3397    1.8093 C   0  0  0  0  0  0  0  0  0  0  0  0
    4.3036    2.5111   -0.2965 H   0  0  0  0  0  0  0  0  0  0  0  0
    5.4549    1.4952    0.6567 H   0  0  0  0  0  0  0  0  0  0  0  0
    5.0525    1.0426   -1.0457 H   0  0  0  0  0  0  0  0  0  0  0  0
    4.1372   -0.0113    2.3764 H   0  0  0  0  0  0  0  0  0  0  0  0
    2.6018    1.4359   -2.1656 H   0  0  0  0  0  0  0  0  0  0  0  0
    0.3509    0.6794   -2.9681 H   0  0  0  0  0  0  0  0  0  0  0  0
   -0.1071   -1.9614    1.8047 H   0  0  0  0  0  0  0  0  0  0  0  0
   -2.1720   -2.8416    1.1686 H   0  0  0  0  0  0  0  0  0  0  0  0
   -1.7870   -2.4791   -0.5392 H   0  0  0  0  0  0  0  0  0  0  0  0
   -3.0213   -0.6808   -1.5810 H   0  0  0  0  0  0  0  0  0  0  0  0
   -4.5473    1.2580   -1.3923 H   0  0  0  0  0  0  0  0  0  0  0  0
   -4.2544    1.1772    2.8249 H   0  0  0  0  0  0  0  0  0  0  0  0
   -2.7194   -0.7650    2.7246 H   0  0  0  0  0  0  0  0  0  0  0  0
  1  2  1  0
  2  3  2  0
  3  4  1  0
  4  5  2  0
  5  6  1  0
  6  7  1  0
  7  8  2  0
  8  9  1  0
  9 10  2  0
 10 11  1  0
 11 12  1  0
 12 13  1  0
 13 14  2  0
 14 15  1  0
 15 16  2  0
 16 17  1  0
 17 18  2  0
  6  2  1  0
 18 13  1  0
 10  5  1  0
  1 19  1  0
  1 20  1  0
  1 21  1  0
  3 22  1  0
  7 23  1  0
  8 24  1  0
 11 25  1  0
 12 26  1  0
 12 27  1  0
 14 28  1  0
 15 29  1  0
 17 30  1  0
 18 31  1  0
M  END
$$$$
