
     RDKit          3D

 13 13  0  0  0  0  0  0  0  0999 V2000
   -1.8940   -0.0829   -0.0121 C   0  0  0  0  0  0  0  0  0  0  0  0
   -0.4346   -0.0544    0.0222 N   0  0  0  0  0  0  0  0  0  0  0  0
    0.3895   -1.1205    0.0238 C   0  0  0  0  0  0  0  0  0  0  0  0
    1.6922   -0.6621    0.0174 C   0  0  0  0  0  0  0  0  0  0  0  0
    1.6774    0.6847    0.0052 N   0  0  0  0  0  0  0  0  0  0  0  0
    0.3751    1.0258    0.0047 C   0  0  0  0  0  0  0  0  0  0  0  0
   -0.1482    2.5790   -0.0289 S   0  0  0  0  0  0  0  0  0  0  0  0
   -2.3022    0.5567    0.7985 H   0  0  0  0  0  0  0  0  0  0  0  0
   -2.2664   -1.1194    0.1334 H   0  0  0  0  0  0  0  0  0  0  0  0
   -2.2511    0.2936   -0.9934 H   0  0  0  0  0  0  0  0  0  0  0  0
    0.0703   -2.1548    0.0233 H   0  0  0  0  0  0  0  0  0  0  0  0
    2.5882   -1.2684    0.0148 H   0  0  0  0  0  0  0  0  0  0  0  0
    2.5039    1.3229   -0.0089 H   0  0  0  0  0  0  0  0  0  0  0  0
  1  2  1  0
  2  3  1  0
  3  4  2  0
  4  5  1  0
  5  6  1  0
  6  7  2  0
  6  2  1  0
  1  8  1  0
  1  9  1  0
  1 10  1  0
  3 11  1  0
  4 12  1  0
  5 13  1  0
M  END
$$$$
