
     RDKit          3D

 82 85  0  0  0  0  0  0  0  0999 V2000
   -2.7812    1.0882    1.0224 C   0  0  0  0  0  0  0  0  0  0  0  0
   -2.0635    0.0721    0.2459 N   0  0  0  0  0  0  0  0  0  0  0  0
   -2.7321   -0.7999   -0.6996 C   0  0  0  0  0  0  0  0  0  0  0  0
   -2.0907   -1.1824   -1.7190 O   0  0  0  0  0  0  0  0  0  0  0  0
   -4.1634   -1.3141   -0.4910 C   0  0  0  0  0  0  0  0  0  0  0  0
   -4.5819   -2.2453   -1.6557 C   0  0  0  0  0  0  0  0  0  0  0  0
   -4.1709   -2.1755    0.7947 C   0  0  0  0  0  0  0  0  0  0  0  0
   -5.1593   -0.1424   -0.4676 C   0  0  0  0  0  0  0  0  0  0  0  0
   -6.1680   -0.0192    0.5129 C   0  0  0  0  0  0  0  0  0  0  0  0
   -7.0691    1.0580    0.4957 C   0  0  0  0  0  0  0  0  0  0  0  0
   -6.9495    2.0375   -0.5014 C   0  0  0  0  0  0  0  0  0  0  0  0
   -5.9938    1.9105   -1.5196 C   0  0  0  0  0  0  0  0  0  0  0  0
   -5.1022    0.8278   -1.4897 C   0  0  0  0  0  0  0  0  0  0  0  0
   -5.8522    2.9808   -2.5735 C   0  0  0  0  0  0  0  0  0  0  0  0
   -4.9407    3.9260   -2.1413 F   0  0  0  0  0  0  0  0  0  0  0  0
   -5.4060    2.4358   -3.7651 F   0  0  0  0  0  0  0  0  0  0  0  0
   -7.0666    3.6012   -2.8114 F   0  0  0  0  0  0  0  0  0  0  0  0
   -8.0847    1.2143    1.6012 C   0  0  0  0  0  0  0  0  0  0  0  0
   -9.1827    1.9353    1.1644 F   0  0  0  0  0  0  0  0  0  0  0  0
   -7.5018    1.8811    2.6626 F   0  0  0  0  0  0  0  0  0  0  0  0
   -8.5275   -0.0236    2.0345 F   0  0  0  0  0  0  0  0  0  0  0  0
   -0.6285    0.1643    0.1899 C   0  0  0  0  0  0  0  0  0  0  0  0
   -0.0228    1.2919   -0.3768 C   0  0  0  0  0  0  0  0  0  0  0  0
    1.3295    1.3677   -0.4736 N   0  0  0  0  0  0  0  0  0  0  0  0
    2.1492    0.3752   -0.0282 C   0  0  0  0  0  0  0  0  0  0  0  0
    1.5794   -0.7730    0.5487 C   0  0  0  0  0  0  0  0  0  0  0  0
    0.1865   -0.8838    0.6582 C   0  0  0  0  0  0  0  0  0  0  0  0
   -0.4006   -2.0754    1.3111 C   0  0  0  0  0  0  0  0  0  0  0  0
   -1.0604   -1.9131    2.5407 C   0  0  0  0  0  0  0  0  0  0  0  0
   -1.5971   -3.0155    3.2077 C   0  0  0  0  0  0  0  0  0  0  0  0
   -1.4791   -4.2913    2.6566 C   0  0  0  0  0  0  0  0  0  0  0  0
   -0.8311   -4.4687    1.4322 C   0  0  0  0  0  0  0  0  0  0  0  0
   -0.2989   -3.3677    0.7393 C   0  0  0  0  0  0  0  0  0  0  0  0
    0.3961   -3.5979   -0.5768 C   0  0  0  0  0  0  0  0  0  0  0  0
    3.5802    0.5169   -0.1617 N   0  0  0  0  0  0  0  0  0  0  0  0
    4.5013   -0.2162    0.7175 C   0  0  0  0  0  0  0  0  0  0  0  0
    5.8668    0.4868    0.7780 C   0  0  0  0  0  0  0  0  0  0  0  0
    6.4892    0.6838   -0.5724 N   0  0  0  0  0  4  0  0  0  0  0  0
    7.2560   -0.5398   -0.9260 C   0  0  0  0  0  0  0  0  0  0  0  0
    7.4607    1.8130   -0.5005 C   0  0  0  0  0  0  0  0  0  0  0  0
    6.7878    3.0341   -0.2706 O   0  0  0  0  0  0  0  0  0  0  0  0
    7.9254    4.3053   -0.2944 P   0  0  0  0  0  5  0  0  0  0  0  0
    9.1685    4.0153    0.8201 O   0  0  0  0  0  0  0  0  0  0  0  0
    7.1404    5.7413    0.1300 O   0  0  0  0  0  1  0  0  0  0  0  0
    8.5035    4.4568   -1.6843 O   0  0  0  0  0  0  0  0  0  0  0  0
    5.4785    0.9461   -1.6553 C   0  0  0  0  0  0  0  0  0  0  0  0
    4.1365    1.4722   -1.1261 C   0  0  0  0  0  0  0  0  0  0  0  0
   -2.1002    1.5764    1.7528 H   0  0  0  0  0  0  0  0  0  0  0  0
   -3.6042    0.6385    1.6071 H   0  0  0  0  0  0  0  0  0  0  0  0
   -3.1810    1.8692    0.3430 H   0  0  0  0  0  0  0  0  0  0  0  0
   -3.9139   -3.1325   -1.7146 H   0  0  0  0  0  0  0  0  0  0  0  0
   -5.6237   -2.6064   -1.5117 H   0  0  0  0  0  0  0  0  0  0  0  0
   -4.5356   -1.7149   -2.6312 H   0  0  0  0  0  0  0  0  0  0  0  0
   -5.1449   -2.6937    0.9267 H   0  0  0  0  0  0  0  0  0  0  0  0
   -3.9674   -1.5718    1.7010 H   0  0  0  0  0  0  0  0  0  0  0  0
   -3.3916   -2.9645    0.7307 H   0  0  0  0  0  0  0  0  0  0  0  0
   -6.2535   -0.7422    1.3101 H   0  0  0  0  0  0  0  0  0  0  0  0
   -7.6025    2.9013   -0.4852 H   0  0  0  0  0  0  0  0  0  0  0  0
   -4.3418    0.7491   -2.2570 H   0  0  0  0  0  0  0  0  0  0  0  0
   -0.6292    2.1046   -0.7548 H   0  0  0  0  0  0  0  0  0  0  0  0
    2.2063   -1.5778    0.9103 H   0  0  0  0  0  0  0  0  0  0  0  0
   -1.1505   -0.9304    2.9877 H   0  0  0  0  0  0  0  0  0  0  0  0
   -2.1023   -2.8805    4.1552 H   0  0  0  0  0  0  0  0  0  0  0  0
   -1.8921   -5.1450    3.1782 H   0  0  0  0  0  0  0  0  0  0  0  0
   -0.7495   -5.4676    1.0218 H   0  0  0  0  0  0  0  0  0  0  0  0
    1.4927   -3.6480   -0.4143 H   0  0  0  0  0  0  0  0  0  0  0  0
    0.1681   -2.7794   -1.2907 H   0  0  0  0  0  0  0  0  0  0  0  0
    0.0622   -4.5489   -1.0438 H   0  0  0  0  0  0  0  0  0  0  0  0
    4.0896   -0.2495    1.7501 H   0  0  0  0  0  0  0  0  0  0  0  0
    4.6161   -1.2578    0.3510 H   0  0  0  0  0  0  0  0  0  0  0  0
    5.6966    1.4636    1.2855 H   0  0  0  0  0  0  0  0  0  0  0  0
    6.5390   -0.0863    1.4569 H   0  0  0  0  0  0  0  0  0  0  0  0
    7.7138   -0.4466   -1.9369 H   0  0  0  0  0  0  0  0  0  0  0  0
    8.0777   -0.7299   -0.1989 H   0  0  0  0  0  0  0  0  0  0  0  0
    6.6000   -1.4378   -0.9355 H   0  0  0  0  0  0  0  0  0  0  0  0
    8.0387    1.8692   -1.4551 H   0  0  0  0  0  0  0  0  0  0  0  0
    8.1882    1.6236    0.3245 H   0  0  0  0  0  0  0  0  0  0  0  0
    9.8447    3.4879    0.3242 H   0  0  0  0  0  0  0  0  0  0  0  0
    5.2419    0.0152   -2.2223 H   0  0  0  0  0  0  0  0  0  0  0  0
    5.8663    1.6603   -2.4173 H   0  0  0  0  0  0  0  0  0  0  0  0
    4.2651    2.4620   -0.6397 H   0  0  0  0  0  0  0  0  0  0  0  0
    3.4480    1.5960   -1.9908 H   0  0  0  0  0  0  0  0  0  0  0  0
  1  2  1  0
  2  3  1  0
  3  4  2  0
  3  5  1  0
  5  6  1  0
  5  7  1  0
  5  8  1  0
  8  9  2  0
  9 10  1  0
 10 11  2  0
 11 12  1  0
 12 13  2  0
 12 14  1  0
 14 15  1  0
 14 16  1  0
 14 17  1  0
 10 18  1  0
 18 19  1  0
 18 20  1  0
 18 21  1  0
  2 22  1  0
 22 23  2  0
 23 24  1  0
 24 25  2  0
 25 26  1  0
 26 27  2  0
 27 28  1  0
 28 29  2  0
 29 30  1  0
 30 31  2  0
 31 32  1  0
 32 33  2  0
 33 34  1  0
 25 35  1  0
 35 36  1  0
 36 37  1  0
 37 38  1  0
 38 39  1  0
 38 40  1  0
 40 41  1  0
 41 42  1  0
 42 43  1  0
 42 44  1  0
 42 45  2  0
 38 46  1  0
 46 47  1  0
 13  8  1  0
 27 22  1  0
 33 28  1  0
 47 35  1  0
  1 48  1  0
  1 49  1  0
  1 50  1  0
  6 51  1  0
  6 52  1  0
  6 53  1  0
  7 54  1  0
  7 55  1  0
  7 56  1  0
  9 57  1  0
 11 58  1  0
 13 59  1  0
 23 60  1  0
 26 61  1  0
 29 62  1  0
 30 63  1  0
 31 64  1  0
 32 65  1  0
 34 66  1  0
 34 67  1  0
 34 68  1  0
 36 69  1  0
 36 70  1  0
 37 71  1  0
 37 72  1  0
 39 73  1  0
 39 74  1  0
 39 75  1  0
 40 76  1  0
 40 77  1  0
 43 78  1  0
 46 79  1  0
 46 80  1  0
 47 81  1  0
 47 82  1  0
M  CHG  2  38   1  44  -1
M  END
$$$$
