
     RDKit          3D

 40 41  0  0  0  0  0  0  0  0999 V2000
    0.8652   -0.9780   -1.2055 O   0  0  0  0  0  0  0  0  0  0  0  0
    0.6699   -0.1576   -0.0819 C   0  0  0  0  0  0  0  0  0  0  0  0
   -0.7212    0.4844   -0.1433 C   0  0  0  0  0  0  0  0  0  0  0  0
   -1.7195   -0.5226   -0.0837 O   0  0  0  0  0  0  0  0  0  0  0  0
   -3.0535   -0.1844   -0.1235 N   0  0  0  0  0  0  0  0  0  0  0  0
   -3.9854   -1.0855   -0.0737 C   0  0  0  0  0  0  0  0  0  0  0  0
   -3.5327   -2.7884    0.0473 Cl  0  0  0  0  0  0  0  0  0  0  0  0
   -5.4143   -0.6765   -0.1195 C   0  0  0  0  0  0  0  0  0  0  0  0
   -6.4489   -1.6301   -0.0673 C   0  0  0  0  0  0  0  0  0  0  0  0
   -7.7503   -1.2375   -0.1103 N   0  0  0  0  0  0  0  0  0  0  0  0
   -8.1020    0.0709   -0.2040 C   0  0  0  0  0  0  0  0  0  0  0  0
   -7.1167    1.0553   -0.2588 C   0  0  0  0  0  0  0  0  0  0  0  0
   -5.7727    0.6816   -0.2165 C   0  0  0  0  0  0  0  0  0  0  0  0
    1.7622    0.9263   -0.0485 C   0  0  0  0  0  0  0  0  0  0  0  0
    3.1186    0.3372   -0.1201 N   0  0  0  0  0  0  0  0  0  0  0  0
    3.4651   -0.3837    1.1332 C   0  0  0  0  0  0  0  0  0  0  0  0
    4.9799   -0.6479    1.2801 C   0  0  0  0  0  0  0  0  0  0  0  0
    5.6832   -0.6081   -0.0762 C   0  0  0  0  0  0  0  0  0  0  0  0
    5.4789    0.7536   -0.7584 C   0  0  0  0  0  0  0  0  0  0  0  0
    4.1165    1.3849   -0.4167 C   0  0  0  0  0  0  0  0  0  0  0  0
    0.4226   -1.8451   -1.0111 H   0  0  0  0  0  0  0  0  0  0  0  0
    0.7303   -0.7593    0.8542 H   0  0  0  0  0  0  0  0  0  0  0  0
   -0.8352    1.0589   -1.0885 H   0  0  0  0  0  0  0  0  0  0  0  0
   -0.8550    1.1772    0.7161 H   0  0  0  0  0  0  0  0  0  0  0  0
   -6.2328   -2.6864    0.0074 H   0  0  0  0  0  0  0  0  0  0  0  0
   -9.1477    0.3465   -0.2358 H   0  0  0  0  0  0  0  0  0  0  0  0
   -7.3917    2.0995   -0.3334 H   0  0  0  0  0  0  0  0  0  0  0  0
   -5.0172    1.4560   -0.2599 H   0  0  0  0  0  0  0  0  0  0  0  0
    1.6517    1.5530    0.8659 H   0  0  0  0  0  0  0  0  0  0  0  0
    1.5955    1.5921   -0.9256 H   0  0  0  0  0  0  0  0  0  0  0  0
    2.9523   -1.3692    1.1264 H   0  0  0  0  0  0  0  0  0  0  0  0
    3.1161    0.1746    2.0313 H   0  0  0  0  0  0  0  0  0  0  0  0
    5.4296    0.1257    1.9412 H   0  0  0  0  0  0  0  0  0  0  0  0
    5.1472   -1.6370    1.7592 H   0  0  0  0  0  0  0  0  0  0  0  0
    6.7694   -0.8020    0.0566 H   0  0  0  0  0  0  0  0  0  0  0  0
    5.2691   -1.4139   -0.7221 H   0  0  0  0  0  0  0  0  0  0  0  0
    6.2866    1.4510   -0.4460 H   0  0  0  0  0  0  0  0  0  0  0  0
    5.5623    0.6161   -1.8587 H   0  0  0  0  0  0  0  0  0  0  0  0
    4.2262    2.0684    0.4567 H   0  0  0  0  0  0  0  0  0  0  0  0
    3.7984    2.0002   -1.2876 H   0  0  0  0  0  0  0  0  0  0  0  0
  1  2  1  0
  2  3  1  0
  3  4  1  0
  4  5  1  0
  5  6  2  0
  6  7  1  0
  6  8  1  0
  8  9  2  0
  9 10  1  0
 10 11  2  0
 11 12  1  0
 12 13  2  0
  2 14  1  0
 14 15  1  0
 15 16  1  0
 16 17  1  0
 17 18  1  0
 18 19  1  0
 19 20  1  0
 13  8  1  0
 20 15  1  0
  1 21  1  0
  2 22  1  0
  3 23  1  0
  3 24  1  0
  9 25  1  0
 11 26  1  0
 12 27  1  0
 13 28  1  0
 14 29  1  0
 14 30  1  0
 16 31  1  0
 16 32  1  0
 17 33  1  0
 17 34  1  0
 18 35  1  0
 18 36  1  0
 19 37  1  0
 19 38  1  0
 20 39  1  0
 20 40  1  0
M  END
$$$$
