
     RDKit          3D

 31 33  0  0  0  0  0  0  0  0999 V2000
   -4.7978    1.5218    0.4533 N   0  0  0  0  0  0  0  0  0  0  0  0
   -4.4462    0.3049   -0.2160 C   0  0  0  0  0  0  0  0  0  0  0  0
   -5.3566   -0.3482   -0.8758 N   0  0  0  0  0  4  0  0  0  0  0  0
   -3.0489   -0.1927   -0.1587 C   0  0  0  0  0  0  0  0  0  0  0  0
   -1.9701    0.7236   -0.1858 C   0  0  0  0  0  0  0  0  0  0  0  0
   -0.6758    0.2142   -0.1274 C   0  0  0  0  0  0  0  0  0  0  0  0
   -0.4312   -1.1208   -0.0433 C   0  0  0  0  0  0  0  0  0  0  0  0
    0.8899   -1.3282    0.0091 N   0  0  0  0  0  0  0  0  0  0  0  0
    1.4206   -0.0782   -0.0526 C   0  0  0  0  0  0  0  0  0  0  0  0
    0.4791    0.9022   -0.1303 N   0  0  0  0  0  0  0  0  0  0  0  0
    2.8739    0.2154    0.0040 C   0  0  0  0  0  0  0  0  0  0  0  0
    3.3052    1.4417    0.5347 C   0  0  0  0  0  0  0  0  0  0  0  0
    4.6651    1.7391    0.6074 C   0  0  0  0  0  0  0  0  0  0  0  0
    5.5938    0.8110    0.1412 C   0  0  0  0  0  0  0  0  0  0  0  0
    5.1739   -0.3692   -0.3876 N   0  0  0  0  0  0  0  0  0  0  0  0
    3.8505   -0.6855   -0.4763 C   0  0  0  0  0  0  0  0  0  0  0  0
    3.5143   -1.7757   -1.0121 O   0  0  0  0  0  0  0  0  0  0  0  0
   -1.4554   -2.0610   -0.0042 C   0  0  0  0  0  0  0  0  0  0  0  0
   -2.7787   -1.5866   -0.0643 C   0  0  0  0  0  0  0  0  0  0  0  0
   -5.7654    1.9088    0.3848 H   0  0  0  0  0  0  0  0  0  0  0  0
   -4.1115    2.0196    1.0624 H   0  0  0  0  0  0  0  0  0  0  0  0
   -6.3406   -0.0002   -0.9140 H   0  0  0  0  0  0  0  0  0  0  0  0
   -5.1325   -1.2187   -1.4075 H   0  0  0  0  0  0  0  0  0  0  0  0
   -2.1312    1.7911   -0.2661 H   0  0  0  0  0  0  0  0  0  0  0  0
    1.3782   -2.2440    0.1198 H   0  0  0  0  0  0  0  0  0  0  0  0
    2.5903    2.1649    0.9076 H   0  0  0  0  0  0  0  0  0  0  0  0
    4.9969    2.6812    1.0244 H   0  0  0  0  0  0  0  0  0  0  0  0
    6.6518    1.0347    0.1951 H   0  0  0  0  0  0  0  0  0  0  0  0
    5.8901   -1.0430   -0.7422 H   0  0  0  0  0  0  0  0  0  0  0  0
   -1.2431   -3.1194    0.0740 H   0  0  0  0  0  0  0  0  0  0  0  0
   -3.5888   -2.3029   -0.0156 H   0  0  0  0  0  0  0  0  0  0  0  0
  1  2  1  0
  2  3  2  3
  2  4  1  0
  4  5  2  0
  5  6  1  0
  6  7  2  0
  7  8  1  0
  8  9  1  0
  9 10  2  0
  9 11  1  0
 11 12  2  0
 12 13  1  0
 13 14  2  0
 14 15  1  0
 15 16  1  0
 16 17  2  0
  7 18  1  0
 18 19  2  0
 19  4  1  0
 10  6  1  0
 16 11  1  0
  1 20  1  0
  1 21  1  0
  3 22  1  0
  3 23  1  0
  5 24  1  0
  8 25  1  0
 12 26  1  0
 13 27  1  0
 14 28  1  0
 15 29  1  0
 18 30  1  0
 19 31  1  0
M  CHG  1   3   1
M  END
$$$$
