
     RDKit          3D

 53 56  0  0  0  0  0  0  0  0999 V2000
   -3.8129    1.2115   -2.1823 C   0  0  0  0  0  0  0  0  0  0  0  0
   -4.2448    1.6194   -0.7696 C   0  0  0  0  0  0  0  0  0  0  0  0
   -5.2926    2.7422   -0.8387 C   0  0  0  0  0  0  0  0  0  0  0  0
   -4.7455    0.4040   -0.0043 C   0  0  0  0  0  0  0  0  0  0  0  0
   -6.0315    0.2204    0.1187 N   0  0  0  0  0  0  0  0  0  0  0  0
   -6.6190   -0.9056    0.8447 C   0  0  0  0  0  0  0  0  0  0  0  0
   -5.8229   -2.1869    0.5906 C   0  0  0  0  0  0  0  0  0  0  0  0
   -4.3532   -1.9292    0.7957 C   0  0  0  0  0  0  0  0  0  0  0  0
   -3.8135   -0.6642    0.4774 C   0  0  0  0  0  0  0  0  0  0  0  0
   -2.4254   -0.4603    0.6087 C   0  0  0  0  0  0  0  0  0  0  0  0
   -1.5868   -1.4954    1.0602 C   0  0  0  0  0  0  0  0  0  0  0  0
   -0.1659   -1.3069    1.1810 N   0  0  0  0  0  0  0  0  0  0  0  0
    0.4446   -0.0547    1.5363 C   0  0  0  0  0  0  0  0  0  0  0  0
   -0.2266    0.8119    2.1614 O   0  0  0  0  0  0  0  0  0  0  0  0
    1.8691    0.2130    1.2213 C   0  0  0  0  0  0  0  0  0  0  0  0
    2.5680    1.2176    1.9140 C   0  0  0  0  0  0  0  0  0  0  0  0
    3.9082    1.4841    1.6235 C   0  0  0  0  0  0  0  0  0  0  0  0
    4.5740    0.7557    0.6285 C   0  0  0  0  0  0  0  0  0  0  0  0
    5.9201    1.0182    0.3304 C   0  0  0  0  0  0  0  0  0  0  0  0
    6.5867    0.2873   -0.6684 C   0  0  0  0  0  0  0  0  0  0  0  0
    5.8857   -0.7087   -1.3711 C   0  0  0  0  0  0  0  0  0  0  0  0
    4.5453   -0.9750   -1.0807 C   0  0  0  0  0  0  0  0  0  0  0  0
    3.8807   -0.2504   -0.0815 C   0  0  0  0  0  0  0  0  0  0  0  0
    2.5343   -0.5128    0.2160 C   0  0  0  0  0  0  0  0  0  0  0  0
    8.0095    0.5755   -0.9798 C   0  0  0  0  0  0  0  0  0  0  0  0
    8.4969    1.9192   -0.9408 N   0  0  0  0  0  0  0  0  0  0  0  0
    8.8324   -0.3804   -1.2824 N   0  0  0  0  0  0  0  0  0  0  0  0
   -2.1379   -2.7525    1.3383 C   0  0  0  0  0  0  0  0  0  0  0  0
   -3.5093   -2.9692    1.2064 C   0  0  0  0  0  0  0  0  0  0  0  0
   -3.0052    0.4506   -2.1363 H   0  0  0  0  0  0  0  0  0  0  0  0
   -3.4220    2.0930   -2.7340 H   0  0  0  0  0  0  0  0  0  0  0  0
   -4.6719    0.7867   -2.7452 H   0  0  0  0  0  0  0  0  0  0  0  0
   -3.3712    2.0534   -0.2420 H   0  0  0  0  0  0  0  0  0  0  0  0
   -5.6100    3.0317    0.1860 H   0  0  0  0  0  0  0  0  0  0  0  0
   -4.8592    3.6389   -1.3315 H   0  0  0  0  0  0  0  0  0  0  0  0
   -6.1850    2.4185   -1.4168 H   0  0  0  0  0  0  0  0  0  0  0  0
   -6.6117   -0.6773    1.9328 H   0  0  0  0  0  0  0  0  0  0  0  0
   -7.6727   -1.0422    0.5230 H   0  0  0  0  0  0  0  0  0  0  0  0
   -6.1841   -2.9813    1.2797 H   0  0  0  0  0  0  0  0  0  0  0  0
   -5.9864   -2.5244   -0.4555 H   0  0  0  0  0  0  0  0  0  0  0  0
   -1.9822    0.4859    0.3428 H   0  0  0  0  0  0  0  0  0  0  0  0
    0.4466   -2.1513    1.1189 H   0  0  0  0  0  0  0  0  0  0  0  0
    2.0798    1.7939    2.6902 H   0  0  0  0  0  0  0  0  0  0  0  0
    4.4233    2.2604    2.1768 H   0  0  0  0  0  0  0  0  0  0  0  0
    6.4529    1.7787    0.8895 H   0  0  0  0  0  0  0  0  0  0  0  0
    6.3674   -1.2700   -2.1616 H   0  0  0  0  0  0  0  0  0  0  0  0
    4.0278   -1.7455   -1.6400 H   0  0  0  0  0  0  0  0  0  0  0  0
    2.0046   -1.2689   -0.3508 H   0  0  0  0  0  0  0  0  0  0  0  0
    9.5066    2.1190   -1.1184 H   0  0  0  0  0  0  0  0  0  0  0  0
    7.8508    2.7251   -0.7900 H   0  0  0  0  0  0  0  0  0  0  0  0
    8.5493   -1.3852   -1.3095 H   0  0  0  0  0  0  0  0  0  0  0  0
   -1.5013   -3.5666    1.6616 H   0  0  0  0  0  0  0  0  0  0  0  0
   -3.9137   -3.9509    1.4205 H   0  0  0  0  0  0  0  0  0  0  0  0
  1  2  1  0
  2  3  1  0
  2  4  1  0
  4  5  2  0
  5  6  1  0
  6  7  1  0
  7  8  1  0
  8  9  2  0
  9 10  1  0
 10 11  2  0
 11 12  1  0
 12 13  1  0
 13 14  2  0
 13 15  1  0
 15 16  2  0
 16 17  1  0
 17 18  2  0
 18 19  1  0
 19 20  2  0
 20 21  1  0
 21 22  2  0
 22 23  1  0
 23 24  2  0
 20 25  1  0
 25 26  1  0
 25 27  2  3
 11 28  1  0
 28 29  2  0
  9  4  1  0
 24 15  1  0
 29  8  1  0
 23 18  1  0
  1 30  1  0
  1 31  1  0
  1 32  1  0
  2 33  1  0
  3 34  1  0
  3 35  1  0
  3 36  1  0
  6 37  1  0
  6 38  1  0
  7 39  1  0
  7 40  1  0
 10 41  1  0
 12 42  1  0
 16 43  1  0
 17 44  1  0
 19 45  1  0
 21 46  1  0
 22 47  1  0
 24 48  1  0
 26 49  1  0
 26 50  1  0
 27 51  1  0
 28 52  1  0
 29 53  1  0
M  END
$$$$
