
     RDKit          3D

 96101  0  0  0  0  0  0  0  0999 V2000
   -9.5288   -4.5045   -1.5772 C   0  0  0  0  0  0  0  0  0  0  0  0
   -8.2573   -4.1094   -1.0718 O   0  0  0  0  0  0  0  0  0  0  0  0
   -7.5793   -4.7451   -0.0173 C   0  0  0  0  0  0  0  0  0  0  0  0
   -6.3154   -4.2539    0.3989 C   0  0  0  0  0  0  0  0  0  0  0  0
   -5.6653   -3.1040   -0.2811 C   0  0  0  0  0  0  0  0  0  0  0  0
   -6.0855   -2.7326   -1.4101 O   0  0  0  0  0  0  0  0  0  0  0  0
   -4.4418   -2.4777    0.2942 C   0  0  0  0  0  0  0  0  0  0  0  0
   -3.9780   -1.2118   -0.1401 C   0  0  0  0  0  0  0  0  0  0  0  0
   -4.7847   -0.3609   -0.9033 O   0  0  0  0  0  0  0  0  0  0  0  0
   -2.6973   -0.7565    0.2290 C   0  0  0  0  0  0  0  0  0  0  0  0
   -1.8946   -1.5446    1.0858 C   0  0  0  0  0  0  0  0  0  0  0  0
   -0.4661   -1.1487    1.4124 C   0  0  0  0  0  0  0  0  0  0  0  0
   -0.1906    0.3581    1.2647 C   0  0  2  0  0  0  0  0  0  0  0  0
   -0.8644    1.0450    2.2944 O   0  0  0  0  0  0  0  0  0  0  0  0
   -0.7306    0.8112   -0.1128 C   0  0  0  0  0  0  0  0  0  0  0  0
   -2.2523    0.6232   -0.2298 C   0  0  2  0  0  0  0  0  0  0  0  0
   -2.9179    1.5937    0.5669 O   0  0  0  0  0  0  0  0  0  0  0  0
   -3.5077    2.6191   -0.2154 C   0  0  1  0  0  0  0  0  0  0  0  0
   -4.5120    3.4124    0.6596 C   0  0  0  0  0  0  0  0  0  0  0  0
   -4.5595    4.8869    0.2297 C   0  0  2  0  0  0  0  0  0  0  0  0
   -5.0834    4.9919   -1.1382 N   0  0  0  0  0  0  0  0  0  0  0  0
   -3.1349    5.5020    0.3390 C   0  0  2  0  0  0  0  0  0  0  0  0
   -2.9900    6.5834   -0.5495 O   0  0  0  0  0  0  0  0  0  0  0  0
   -2.0381    4.4243    0.0958 C   0  0  2  0  0  0  0  0  0  0  0  0
   -0.7310    5.0210   -0.4335 C   0  0  0  0  0  0  0  0  0  0  0  0
   -2.5045    3.4409   -0.8104 O   0  0  0  0  0  0  0  0  0  0  0  0
    1.3143    0.5981    1.3952 C   0  0  0  0  0  0  0  0  0  0  0  0
    1.9730    0.4390    2.7461 C   0  0  0  0  0  0  0  0  0  0  0  0
    2.8437   -0.6576    2.7188 O   0  0  0  0  0  0  0  0  0  0  0  0
    2.0119    0.8861    0.3299 N   0  0  0  0  0  0  0  0  0  0  0  0
    3.3986    1.1204    0.3134 N   0  0  0  0  0  0  0  0  0  0  0  0
    4.0590    1.3954   -0.9245 C   0  0  0  0  0  0  0  0  0  0  0  0
    3.4032    1.4057   -2.0011 O   0  0  0  0  0  0  0  0  0  0  0  0
    5.5402    1.6243   -0.9557 C   0  0  0  0  0  0  0  0  0  0  0  0
    6.2869    0.2839   -0.9782 C   0  0  0  0  0  0  0  0  0  0  0  0
    7.8109    0.4527   -0.8746 C   0  0  0  0  0  0  0  0  0  0  0  0
    8.4356    0.9840   -2.1749 C   0  0  0  0  0  0  0  0  0  0  0  0
    9.9571    1.1506   -2.0632 C   0  0  0  0  0  0  0  0  0  0  0  0
   10.6294   -0.1392   -1.9153 N   0  0  0  0  0  0  0  0  0  0  0  0
   11.0170   -0.7875   -0.7109 C   0  0  0  0  0  0  0  0  0  0  0  0
   11.0101   -0.2372    0.4217 O   0  0  0  0  0  0  0  0  0  0  0  0
   11.4001   -2.1734   -0.9715 C   0  0  0  0  0  0  0  0  0  0  0  0
   11.2449   -2.4007   -2.2740 C   0  0  0  0  0  0  0  0  0  0  0  0
   10.7576   -1.1675   -2.8881 C   0  0  0  0  0  0  0  0  0  0  0  0
   10.4750   -1.0260   -4.1070 O   0  0  0  0  0  0  0  0  0  0  0  0
   -2.3737   -2.7836    1.5523 C   0  0  0  0  0  0  0  0  0  0  0  0
   -1.4955   -3.5940    2.2806 O   0  0  0  0  0  0  0  0  0  0  0  0
   -3.6912   -3.2038    1.2430 C   0  0  0  0  0  0  0  0  0  0  0  0
   -4.3413   -4.3499    1.9410 C   0  0  0  0  0  0  0  0  0  0  0  0
   -3.8398   -4.8189    2.9985 O   0  0  0  0  0  0  0  0  0  0  0  0
   -5.6464   -4.8734    1.4751 C   0  0  0  0  0  0  0  0  0  0  0  0
   -6.2312   -5.9802    2.1145 C   0  0  0  0  0  0  0  0  0  0  0  0
   -7.4659   -6.4675    1.6958 C   0  0  0  0  0  0  0  0  0  0  0  0
   -8.1388   -5.8568    0.6411 C   0  0  0  0  0  0  0  0  0  0  0  0
   -9.8158   -3.8250   -2.4056 H   0  0  0  0  0  0  0  0  0  0  0  0
  -10.2965   -4.4336   -0.7780 H   0  0  0  0  0  0  0  0  0  0  0  0
   -9.4781   -5.5417   -1.9705 H   0  0  0  0  0  0  0  0  0  0  0  0
   -5.7898   -0.4499   -0.9653 H   0  0  0  0  0  0  0  0  0  0  0  0
    0.2067   -1.7198    0.7344 H   0  0  0  0  0  0  0  0  0  0  0  0
   -0.2242   -1.4495    2.4555 H   0  0  0  0  0  0  0  0  0  0  0  0
   -0.6486    2.0104    2.2027 H   0  0  0  0  0  0  0  0  0  0  0  0
   -0.2391    0.2207   -0.9192 H   0  0  0  0  0  0  0  0  0  0  0  0
   -0.4741    1.8761   -0.2881 H   0  0  0  0  0  0  0  0  0  0  0  0
   -2.4891    0.7063   -1.3184 H   0  0  0  0  0  0  0  0  0  0  0  0
   -4.1131    2.1822   -1.0418 H   0  0  0  0  0  0  0  0  0  0  0  0
   -5.5233    2.9537    0.5959 H   0  0  0  0  0  0  0  0  0  0  0  0
   -4.2023    3.3660    1.7277 H   0  0  0  0  0  0  0  0  0  0  0  0
   -5.2420    5.4347    0.9192 H   0  0  0  0  0  0  0  0  0  0  0  0
   -6.0050    4.4988   -1.1822 H   0  0  0  0  0  0  0  0  0  0  0  0
   -5.3014    5.9958   -1.3340 H   0  0  0  0  0  0  0  0  0  0  0  0
   -2.9939    5.8731    1.3822 H   0  0  0  0  0  0  0  0  0  0  0  0
   -3.4937    7.3446   -0.1584 H   0  0  0  0  0  0  0  0  0  0  0  0
   -1.7839    3.9497    1.0734 H   0  0  0  0  0  0  0  0  0  0  0  0
    0.0543    4.2373   -0.4731 H   0  0  0  0  0  0  0  0  0  0  0  0
   -0.3801    5.8332    0.2383 H   0  0  0  0  0  0  0  0  0  0  0  0
   -0.8715    5.4257   -1.4584 H   0  0  0  0  0  0  0  0  0  0  0  0
    2.5251    1.3700    3.0028 H   0  0  0  0  0  0  0  0  0  0  0  0
    1.2099    0.2752    3.5381 H   0  0  0  0  0  0  0  0  0  0  0  0
    3.2774   -0.6874    3.6109 H   0  0  0  0  0  0  0  0  0  0  0  0
    3.9666    1.1058    1.1891 H   0  0  0  0  0  0  0  0  0  0  0  0
    5.8369    2.2099   -0.0588 H   0  0  0  0  0  0  0  0  0  0  0  0
    5.7937    2.2221   -1.8564 H   0  0  0  0  0  0  0  0  0  0  0  0
    5.9510   -0.3266   -0.1107 H   0  0  0  0  0  0  0  0  0  0  0  0
    6.0304   -0.2779   -1.9034 H   0  0  0  0  0  0  0  0  0  0  0  0
    8.2429   -0.5456   -0.6499 H   0  0  0  0  0  0  0  0  0  0  0  0
    8.0601    1.1280   -0.0269 H   0  0  0  0  0  0  0  0  0  0  0  0
    8.1979    0.2971   -3.0160 H   0  0  0  0  0  0  0  0  0  0  0  0
    8.0058    1.9786   -2.4155 H   0  0  0  0  0  0  0  0  0  0  0  0
   10.2077    1.8106   -1.2046 H   0  0  0  0  0  0  0  0  0  0  0  0
   10.3323    1.6462   -2.9842 H   0  0  0  0  0  0  0  0  0  0  0  0
   11.7406   -2.8973   -0.2432 H   0  0  0  0  0  0  0  0  0  0  0  0
   11.4391   -3.3394   -2.7757 H   0  0  0  0  0  0  0  0  0  0  0  0
   -1.6081   -4.5937    2.3783 H   0  0  0  0  0  0  0  0  0  0  0  0
   -5.7329   -6.4725    2.9403 H   0  0  0  0  0  0  0  0  0  0  0  0
   -7.9064   -7.3211    2.1950 H   0  0  0  0  0  0  0  0  0  0  0  0
   -9.0989   -6.2573    0.3465 H   0  0  0  0  0  0  0  0  0  0  0  0
  1  2  1  0
  2  3  1  0
  3  4  2  0
  4  5  1  0
  5  6  2  0
  5  7  1  0
  7  8  2  0
  8  9  1  0
  8 10  1  0
 10 11  2  0
 11 12  1  0
 12 13  1  0
 13 14  1  1
 13 15  1  0
 15 16  1  0
 16 17  1  0
 17 18  1  0
 18 19  1  0
 19 20  1  0
 20 21  1  0
 20 22  1  0
 22 23  1  0
 22 24  1  0
 24 25  1  0
 24 26  1  0
 13 27  1  0
 27 28  1  0
 28 29  1  0
 27 30  2  0
 30 31  1  0
 31 32  1  0
 32 33  2  0
 32 34  1  0
 34 35  1  0
 35 36  1  0
 36 37  1  0
 37 38  1  0
 38 39  1  0
 39 40  1  0
 40 41  2  0
 40 42  1  0
 42 43  2  0
 43 44  1  0
 44 45  2  0
 11 46  1  0
 46 47  1  0
 46 48  2  0
 48 49  1  0
 49 50  2  0
 49 51  1  0
 51 52  2  0
 52 53  1  0
 53 54  2  0
 54  3  1  0
 51  4  1  0
 48  7  1  0
 16 10  1  0
 26 18  1  0
 44 39  1  0
  1 55  1  0
  1 56  1  0
  1 57  1  0
  9 58  1  0
 12 59  1  0
 12 60  1  0
 14 61  1  0
 15 62  1  0
 15 63  1  0
 16 64  1  6
 18 65  1  6
 19 66  1  0
 19 67  1  0
 20 68  1  1
 21 69  1  0
 21 70  1  0
 22 71  1  1
 23 72  1  0
 24 73  1  1
 25 74  1  0
 25 75  1  0
 25 76  1  0
 28 77  1  0
 28 78  1  0
 29 79  1  0
 31 80  1  0
 34 81  1  0
 34 82  1  0
 35 83  1  0
 35 84  1  0
 36 85  1  0
 36 86  1  0
 37 87  1  0
 37 88  1  0
 38 89  1  0
 38 90  1  0
 42 91  1  0
 43 92  1  0
 47 93  1  0
 52 94  1  0
 53 95  1  0
 54 96  1  0
M  END
$$$$
