
     RDKit          3D

 35 36  0  0  0  0  0  0  0  0999 V2000
   -1.0236    2.4041    0.1809 O   0  0  0  0  0  0  0  0  0  0  0  0
   -0.5362    1.2451    0.0938 C   0  0  0  0  0  0  0  0  0  0  0  0
   -1.3611    0.1638    0.0273 N   0  0  0  0  0  0  0  0  0  0  0  0
   -0.8530   -1.0935   -0.0670 C   0  0  0  0  0  0  0  0  0  0  0  0
    0.5267   -1.2875   -0.0966 C   0  0  0  0  0  0  0  0  0  0  0  0
    1.3580   -0.1691   -0.0277 C   0  0  0  0  0  0  0  0  0  0  0  0
    2.6095   -0.3127   -0.0523 O   0  0  0  0  0  0  0  0  0  0  0  0
    0.8150    1.0755    0.0662 N   0  0  0  0  0  0  0  0  0  0  0  0
    3.0731    1.1047    2.0943 F   0  0  0  0  0  0  0  0  0  0  0  0
    2.5557    0.4385    1.0314 C   0  0  0  0  0  0  0  0  0  0  0  0
    1.2201    0.6077    0.6766 C   0  0  0  0  0  0  0  0  0  0  0  0
    0.6940   -0.0546   -0.4000 N   0  0  0  0  0  0  0  0  0  0  0  0
   -0.7341    0.1181   -0.7374 C   0  0  0  0  0  0  0  0  0  0  0  0
   -1.6061   -0.7853    0.1200 C   0  0  0  0  0  0  0  0  0  0  0  0
   -2.8512    0.0256    0.2907 C   0  0  0  0  0  0  0  0  0  0  0  0
   -2.3519    1.4504    0.1594 C   0  0  0  0  0  0  0  0  0  0  0  0
   -1.1348    1.4602   -0.5527 O   0  0  0  0  0  0  0  0  0  0  0  0
    1.4860   -0.9249   -1.1093 C   0  0  0  0  0  0  0  0  0  0  0  0
    1.0131   -1.5795   -2.0791 O   0  0  0  0  0  0  0  0  0  0  0  0
    2.7944   -1.0958   -0.7705 N   0  0  0  0  0  0  0  0  0  0  0  0
    3.3410   -0.4301    0.2800 C   0  0  0  0  0  0  0  0  0  0  0  0
    4.5537   -0.6029    0.5759 O   0  0  0  0  0  0  0  0  0  0  0  0
   -2.3976    0.2953    0.0486 H   0  0  0  0  0  0  0  0  0  0  0  0
   -1.5191   -1.9455   -0.1191 H   0  0  0  0  0  0  0  0  0  0  0  0
    0.9391   -2.2862   -0.1716 H   0  0  0  0  0  0  0  0  0  0  0  0
    1.4422    1.9107    0.1176 H   0  0  0  0  0  0  0  0  0  0  0  0
    0.6050    1.2701    1.2739 H   0  0  0  0  0  0  0  0  0  0  0  0
   -0.9146   -0.1248   -1.8089 H   0  0  0  0  0  0  0  0  0  0  0  0
   -1.1394   -0.9661    1.1141 H   0  0  0  0  0  0  0  0  0  0  0  0
   -1.8115   -1.7567   -0.3804 H   0  0  0  0  0  0  0  0  0  0  0  0
   -3.3317   -0.1564    1.2766 H   0  0  0  0  0  0  0  0  0  0  0  0
   -3.5688   -0.2030   -0.5285 H   0  0  0  0  0  0  0  0  0  0  0  0
   -3.1010    2.0766   -0.3703 H   0  0  0  0  0  0  0  0  0  0  0  0
   -2.1786    1.8834    1.1685 H   0  0  0  0  0  0  0  0  0  0  0  0
    3.3876   -1.7553   -1.3248 H   0  0  0  0  0  0  0  0  0  0  0  0
  1  2  2  0
  2  3  1  0
  3  4  1  0
  4  5  2  0
  5  6  1  0
  6  7  2  0
  6  8  1  0
  9 10  1  0
 10 11  2  0
 11 12  1  0
 12 13  1  0
 13 14  1  0
 14 15  1  0
 15 16  1  0
 16 17  1  0
 12 18  1  0
 18 19  2  0
 18 20  1  0
 20 21  1  0
 21 22  2  0
  8  2  1  0
 21 10  1  0
 17 13  1  0
  3 23  1  0
  4 24  1  0
  5 25  1  0
  8 26  1  0
 11 27  1  0
 13 28  1  0
 14 29  1  0
 14 30  1  0
 15 31  1  0
 15 32  1  0
 16 33  1  0
 16 34  1  0
 20 35  1  0
M  END
$$$$
