
     RDKit          3D

 55 58  0  0  0  0  0  0  0  0999 V2000
   -0.8068   -0.4322   -0.8385 C   0  0  0  0  0  0  0  0  0  0  0  0
   -0.1271    0.5511   -1.7569 C   0  0  0  0  0  0  0  0  0  0  0  0
    0.8956    1.4634   -1.0365 C   0  0  0  0  0  0  0  0  0  0  0  0
    2.0722    0.7849   -0.4416 N   0  0  0  0  0  0  0  0  0  0  0  0
    2.6793   -0.2679   -1.2721 C   0  0  0  0  0  0  0  0  0  0  0  0
    4.0765   -0.6298   -0.7306 C   0  0  0  0  0  0  0  0  0  0  0  0
    4.2257   -0.3307    0.7162 N   0  0  0  0  0  0  0  0  0  0  0  0
    5.3375   -1.0978    1.3213 C   0  0  0  0  0  0  0  0  0  0  0  0
    6.7035   -0.5816    0.8546 C   0  0  0  0  0  0  0  0  0  0  0  0
    7.0151   -1.0986   -0.4093 O   0  0  0  0  0  0  0  0  0  0  0  0
    2.9671   -0.5968    1.4382 C   0  0  0  0  0  0  0  0  0  0  0  0
    1.8775    0.3808    0.9672 C   0  0  0  0  0  0  0  0  0  0  0  0
   -2.1123   -0.4149   -0.4981 C   0  0  0  0  0  0  0  0  0  0  0  0
   -2.6944   -1.5476    0.2647 C   0  0  0  0  0  0  0  0  0  0  0  0
   -2.0734   -2.0484    1.4219 C   0  0  0  0  0  0  0  0  0  0  0  0
   -2.7245   -3.0026    2.2100 C   0  0  0  0  0  0  0  0  0  0  0  0
   -4.0020   -3.4499    1.8598 C   0  0  0  0  0  0  0  0  0  0  0  0
   -4.6264   -2.9593    0.7094 C   0  0  0  0  0  0  0  0  0  0  0  0
   -3.9703   -2.0232   -0.0968 C   0  0  0  0  0  0  0  0  0  0  0  0
   -4.7101   -1.4889   -1.6484 S   0  0  0  0  0  0  0  0  0  0  0  0
   -4.3609    0.2488   -1.3403 C   0  0  0  0  0  0  0  0  0  0  0  0
   -3.0763    0.6407   -0.9150 C   0  0  0  0  0  0  0  0  0  0  0  0
   -2.8271    1.9998   -0.6597 C   0  0  0  0  0  0  0  0  0  0  0  0
   -3.8145    2.9704   -0.9035 C   0  0  0  0  0  0  0  0  0  0  0  0
   -5.0919    2.5566   -1.3175 C   0  0  0  0  0  0  0  0  0  0  0  0
   -5.3631    1.2034   -1.5290 C   0  0  0  0  0  0  0  0  0  0  0  0
   -3.5440    4.4221   -0.5988 C   0  0  0  0  0  0  0  0  0  0  0  0
   -4.3181    5.2432   -1.4005 F   0  0  0  0  0  0  0  0  0  0  0  0
   -3.8446    4.6730    0.7269 F   0  0  0  0  0  0  0  0  0  0  0  0
   -2.2128    4.7270   -0.8255 F   0  0  0  0  0  0  0  0  0  0  0  0
   -0.2067   -1.2751   -0.5196 H   0  0  0  0  0  0  0  0  0  0  0  0
    0.3685   -0.0142   -2.5726 H   0  0  0  0  0  0  0  0  0  0  0  0
   -0.8679    1.1934   -2.2746 H   0  0  0  0  0  0  0  0  0  0  0  0
    0.3786    2.0711   -0.2640 H   0  0  0  0  0  0  0  0  0  0  0  0
    1.2715    2.1938   -1.7846 H   0  0  0  0  0  0  0  0  0  0  0  0
    2.0434   -1.1799   -1.2641 H   0  0  0  0  0  0  0  0  0  0  0  0
    2.7800    0.0795   -2.3242 H   0  0  0  0  0  0  0  0  0  0  0  0
    4.2691   -1.7052   -0.9471 H   0  0  0  0  0  0  0  0  0  0  0  0
    4.8251   -0.0293   -1.2905 H   0  0  0  0  0  0  0  0  0  0  0  0
    5.2402   -2.1875    1.1127 H   0  0  0  0  0  0  0  0  0  0  0  0
    5.3171   -0.9760    2.4276 H   0  0  0  0  0  0  0  0  0  0  0  0
    6.6965    0.5313    0.8259 H   0  0  0  0  0  0  0  0  0  0  0  0
    7.4797   -0.9104    1.5815 H   0  0  0  0  0  0  0  0  0  0  0  0
    7.8920   -0.7066   -0.6586 H   0  0  0  0  0  0  0  0  0  0  0  0
    3.1014   -0.4618    2.5346 H   0  0  0  0  0  0  0  0  0  0  0  0
    2.6350   -1.6460    1.2623 H   0  0  0  0  0  0  0  0  0  0  0  0
    1.9282    1.2945    1.5984 H   0  0  0  0  0  0  0  0  0  0  0  0
    0.8838   -0.0781    1.1359 H   0  0  0  0  0  0  0  0  0  0  0  0
   -1.1064   -1.6755    1.7353 H   0  0  0  0  0  0  0  0  0  0  0  0
   -2.2465   -3.3812    3.1042 H   0  0  0  0  0  0  0  0  0  0  0  0
   -4.5060   -4.1821    2.4773 H   0  0  0  0  0  0  0  0  0  0  0  0
   -5.6063   -3.3263    0.4322 H   0  0  0  0  0  0  0  0  0  0  0  0
   -1.8837    2.2991   -0.2288 H   0  0  0  0  0  0  0  0  0  0  0  0
   -5.8849    3.2789   -1.4650 H   0  0  0  0  0  0  0  0  0  0  0  0
   -6.3517    0.8988   -1.8483 H   0  0  0  0  0  0  0  0  0  0  0  0
  1  2  1  0
  2  3  1  0
  3  4  1  0
  4  5  1  0
  5  6  1  0
  6  7  1  0
  7  8  1  0
  8  9  1  0
  9 10  1  0
  7 11  1  0
 11 12  1  0
  1 13  2  0
 13 14  1  0
 14 15  2  0
 15 16  1  0
 16 17  2  0
 17 18  1  0
 18 19  2  0
 19 20  1  0
 20 21  1  0
 21 22  2  0
 22 23  1  0
 23 24  2  0
 24 25  1  0
 25 26  2  0
 24 27  1  0
 27 28  1  0
 27 29  1  0
 27 30  1  0
 12  4  1  0
 22 13  1  0
 19 14  1  0
 26 21  1  0
  1 31  1  0
  2 32  1  0
  2 33  1  0
  3 34  1  0
  3 35  1  0
  5 36  1  0
  5 37  1  0
  6 38  1  0
  6 39  1  0
  8 40  1  0
  8 41  1  0
  9 42  1  0
  9 43  1  0
 10 44  1  0
 11 45  1  0
 11 46  1  0
 12 47  1  0
 12 48  1  0
 15 49  1  0
 16 50  1  0
 17 51  1  0
 18 52  1  0
 23 53  1  0
 25 54  1  0
 26 55  1  0
M  END
$$$$
