
     RDKit          3D

 51 54  0  0  0  0  0  0  0  0999 V2000
   -1.8933    0.2704    0.8069 C   0  0  2  0  0  0  0  0  0  0  0  0
   -2.9089   -0.2129    1.8343 C   0  0  0  0  0  0  0  0  0  0  0  0
   -4.2702    0.1211    1.1981 C   0  0  0  0  0  0  0  0  0  0  0  0
   -3.9830    0.5685   -0.2534 C   0  0  2  0  0  0  0  0  0  0  0  0
   -4.9433    0.0701   -1.1493 O   0  0  0  0  0  0  0  0  0  0  0  0
   -2.5695    0.0288   -0.5485 C   0  0  2  0  0  0  0  0  0  0  0  0
   -2.6579   -1.4783   -0.9559 C   0  0  0  0  0  0  0  0  0  0  0  0
   -1.7880    0.8233   -1.6169 C   0  0  0  0  0  0  0  0  0  0  0  0
   -0.2979    0.4040   -1.6492 C   0  0  0  0  0  0  0  0  0  0  0  0
    0.3892    0.4616   -0.2456 C   0  0  1  0  0  0  0  0  0  0  0  0
   -0.4515   -0.2759    0.8563 C   0  0  1  0  0  0  0  0  0  0  0  0
    0.1709   -0.0585    2.2490 C   0  0  0  0  0  0  0  0  0  0  0  0
    1.6361   -0.5025    2.2816 C   0  0  0  0  0  0  0  0  0  0  0  0
    2.4543    0.2443    1.2127 C   0  0  1  0  0  0  0  0  0  0  0  0
    3.9565   -0.0650    1.3508 C   0  0  0  0  0  0  0  0  0  0  0  0
    4.7351    0.6654    0.2942 C   0  0  0  0  0  0  0  0  0  0  0  0
    5.8072    1.1800    0.5738 O   0  0  0  0  0  0  0  0  0  0  0  0
    4.2509    0.6703   -1.1280 C   0  0  0  0  0  0  0  0  0  0  0  0
    2.7327    0.9090   -1.2087 C   0  0  0  0  0  0  0  0  0  0  0  0
    1.9019    0.0095   -0.2388 C   0  0  2  0  0  0  0  0  0  0  0  0
    2.0448   -1.4766   -0.6869 C   0  0  0  0  0  0  0  0  0  0  0  0
   -1.8150    1.3747    0.9694 H   0  0  0  0  0  0  0  0  0  0  0  0
   -2.8101   -1.3081    1.9989 H   0  0  0  0  0  0  0  0  0  0  0  0
   -2.7809    0.3150    2.8045 H   0  0  0  0  0  0  0  0  0  0  0  0
   -4.7740    0.9393    1.7573 H   0  0  0  0  0  0  0  0  0  0  0  0
   -4.9242   -0.7784    1.2159 H   0  0  0  0  0  0  0  0  0  0  0  0
   -3.9745    1.6841   -0.2957 H   0  0  0  0  0  0  0  0  0  0  0  0
   -5.7824    0.5683   -0.9675 H   0  0  0  0  0  0  0  0  0  0  0  0
   -1.6688   -1.9621   -1.0579 H   0  0  0  0  0  0  0  0  0  0  0  0
   -3.1603   -1.5772   -1.9417 H   0  0  0  0  0  0  0  0  0  0  0  0
   -3.2422   -2.0704   -0.2217 H   0  0  0  0  0  0  0  0  0  0  0  0
   -2.2409    0.6611   -2.6192 H   0  0  0  0  0  0  0  0  0  0  0  0
   -1.8458    1.9137   -1.4028 H   0  0  0  0  0  0  0  0  0  0  0  0
    0.2145    1.0994   -2.3451 H   0  0  0  0  0  0  0  0  0  0  0  0
   -0.2155   -0.6080   -2.0896 H   0  0  0  0  0  0  0  0  0  0  0  0
    0.3847    1.5422    0.0301 H   0  0  0  0  0  0  0  0  0  0  0  0
   -0.4748   -1.3672    0.6776 H   0  0  0  0  0  0  0  0  0  0  0  0
   -0.3901   -0.6467    3.0071 H   0  0  0  0  0  0  0  0  0  0  0  0
    0.1054    1.0150    2.5344 H   0  0  0  0  0  0  0  0  0  0  0  0
    2.0464   -0.2740    3.2896 H   0  0  0  0  0  0  0  0  0  0  0  0
    1.7057   -1.6017    2.1383 H   0  0  0  0  0  0  0  0  0  0  0  0
    2.3489    1.3313    1.4417 H   0  0  0  0  0  0  0  0  0  0  0  0
    4.1525   -1.1544    1.2711 H   0  0  0  0  0  0  0  0  0  0  0  0
    4.3055    0.2611    2.3557 H   0  0  0  0  0  0  0  0  0  0  0  0
    4.5139   -0.2976   -1.6039 H   0  0  0  0  0  0  0  0  0  0  0  0
    4.7696    1.4708   -1.6996 H   0  0  0  0  0  0  0  0  0  0  0  0
    2.5365    1.9809   -0.9831 H   0  0  0  0  0  0  0  0  0  0  0  0
    2.4276    0.7338   -2.2618 H   0  0  0  0  0  0  0  0  0  0  0  0
    1.7661   -1.5988   -1.7531 H   0  0  0  0  0  0  0  0  0  0  0  0
    3.0873   -1.8371   -0.5980 H   0  0  0  0  0  0  0  0  0  0  0  0
    1.4191   -2.1653   -0.0900 H   0  0  0  0  0  0  0  0  0  0  0  0
  1  2  1  0
  2  3  1  0
  3  4  1  0
  4  5  1  0
  4  6  1  0
  6  7  1  6
  6  8  1  0
  8  9  1  0
  9 10  1  0
 10 11  1  0
 11 12  1  0
 12 13  1  0
 13 14  1  0
 14 15  1  0
 15 16  1  0
 16 17  2  0
 16 18  1  0
 18 19  1  0
 19 20  1  0
 20 21  1  6
  6  1  1  0
 20 10  1  0
 11  1  1  0
 20 14  1  0
  1 22  1  1
  2 23  1  0
  2 24  1  0
  3 25  1  0
  3 26  1  0
  4 27  1  1
  5 28  1  0
  7 29  1  0
  7 30  1  0
  7 31  1  0
  8 32  1  0
  8 33  1  0
  9 34  1  0
  9 35  1  0
 10 36  1  1
 11 37  1  6
 12 38  1  0
 12 39  1  0
 13 40  1  0
 13 41  1  0
 14 42  1  1
 15 43  1  0
 15 44  1  0
 18 45  1  0
 18 46  1  0
 19 47  1  0
 19 48  1  0
 21 49  1  0
 21 50  1  0
 21 51  1  0
M  END
$$$$
