
     RDKit          3D

 57 61  0  0  0  0  0  0  0  0999 V2000
   -0.9744    0.7597   -2.1040 C   0  0  0  0  0  0  0  0  0  0  0  0
   -0.4637    0.3954   -0.7829 N   0  0  0  0  0  0  0  0  0  0  0  0
   -1.1446    0.3247    0.3938 C   0  0  0  0  0  0  0  0  0  0  0  0
   -2.5915    0.6903    0.5585 C   0  0  0  0  0  0  0  0  0  0  0  0
   -3.4522   -0.2656   -0.1410 N   0  0  0  0  0  0  0  0  0  0  0  0
   -4.8844   -0.1340   -0.2107 C   0  0  0  0  0  0  0  0  0  0  0  0
   -5.5657    0.9124    0.4378 C   0  0  0  0  0  0  0  0  0  0  0  0
   -6.9573    1.0146    0.3504 C   0  0  0  0  0  0  0  0  0  0  0  0
   -7.6993    0.0769   -0.3894 C   0  0  0  0  0  0  0  0  0  0  0  0
   -7.0165   -0.9747   -1.0263 C   0  0  0  0  0  0  0  0  0  0  0  0
   -5.6255   -1.0755   -0.9395 C   0  0  0  0  0  0  0  0  0  0  0  0
   -9.1778    0.1765   -0.4835 C   0  0  0  0  0  0  0  0  0  0  0  0
   -9.8417    1.4389   -0.3428 N   0  0  0  0  0  0  0  0  0  0  0  0
   -9.8781   -0.8908   -0.7101 N   0  0  0  0  0  0  0  0  0  0  0  0
   -0.3988   -0.1659    1.4189 N   0  0  0  0  0  0  0  0  0  0  0  0
    0.7900   -0.4115    0.8388 C   0  0  0  0  0  0  0  0  0  0  0  0
    0.7539   -0.0874   -0.4852 C   0  0  0  0  0  0  0  0  0  0  0  0
    1.8518   -0.2854   -1.3231 C   0  0  0  0  0  0  0  0  0  0  0  0
    3.0205   -0.8213   -0.7529 C   0  0  0  0  0  0  0  0  0  0  0  0
    3.0675   -1.1538    0.6259 C   0  0  0  0  0  0  0  0  0  0  0  0
    4.3329   -1.7057    1.2243 C   0  0  0  0  0  0  0  0  0  0  0  0
    5.3570   -0.6591    1.3080 N   0  0  0  0  0  0  0  0  0  0  0  0
    5.4545    0.3425    2.2257 C   0  0  0  0  0  0  0  0  0  0  0  0
    4.5003    0.5422    3.3609 C   0  0  0  0  0  0  0  0  0  0  0  0
    6.4789    1.2013    1.9818 N   0  0  0  0  0  0  0  0  0  0  0  0
    7.0379    0.6984    0.8667 C   0  0  0  0  0  0  0  0  0  0  0  0
    6.3668   -0.4163    0.4523 C   0  0  0  0  0  0  0  0  0  0  0  0
    6.7430   -1.1155   -0.6985 C   0  0  0  0  0  0  0  0  0  0  0  0
    7.8478   -0.6329   -1.4243 C   0  0  0  0  0  0  0  0  0  0  0  0
    8.5405    0.5201   -0.9922 C   0  0  0  0  0  0  0  0  0  0  0  0
    8.1336    1.2016    0.1695 C   0  0  0  0  0  0  0  0  0  0  0  0
    1.9276   -0.9474    1.4355 C   0  0  0  0  0  0  0  0  0  0  0  0
   -0.1893    1.2853   -2.6865 H   0  0  0  0  0  0  0  0  0  0  0  0
   -1.8444    1.4420   -2.0161 H   0  0  0  0  0  0  0  0  0  0  0  0
   -1.2842   -0.1569   -2.6478 H   0  0  0  0  0  0  0  0  0  0  0  0
   -2.8488    0.6943    1.6395 H   0  0  0  0  0  0  0  0  0  0  0  0
   -2.7547    1.7120    0.1554 H   0  0  0  0  0  0  0  0  0  0  0  0
   -3.0102   -1.0845   -0.6198 H   0  0  0  0  0  0  0  0  0  0  0  0
   -5.0317    1.6505    1.0203 H   0  0  0  0  0  0  0  0  0  0  0  0
   -7.4488    1.8161    0.8853 H   0  0  0  0  0  0  0  0  0  0  0  0
   -7.5571   -1.7147   -1.6033 H   0  0  0  0  0  0  0  0  0  0  0  0
   -5.1234   -1.8909   -1.4450 H   0  0  0  0  0  0  0  0  0  0  0  0
   -9.3086    2.3354   -0.3163 H   0  0  0  0  0  0  0  0  0  0  0  0
  -10.8846    1.4930   -0.3452 H   0  0  0  0  0  0  0  0  0  0  0  0
  -10.9191   -0.8607   -0.7890 H   0  0  0  0  0  0  0  0  0  0  0  0
    1.8148   -0.0378   -2.3754 H   0  0  0  0  0  0  0  0  0  0  0  0
    3.8865   -0.9788   -1.3820 H   0  0  0  0  0  0  0  0  0  0  0  0
    4.6928   -2.5554    0.6077 H   0  0  0  0  0  0  0  0  0  0  0  0
    4.1433   -2.1230    2.2363 H   0  0  0  0  0  0  0  0  0  0  0  0
    4.3349   -0.4145    3.8971 H   0  0  0  0  0  0  0  0  0  0  0  0
    4.9128    1.2808    4.0798 H   0  0  0  0  0  0  0  0  0  0  0  0
    3.5346    0.9245    2.9715 H   0  0  0  0  0  0  0  0  0  0  0  0
    6.2131   -1.9967   -1.0321 H   0  0  0  0  0  0  0  0  0  0  0  0
    8.1684   -1.1482   -2.3204 H   0  0  0  0  0  0  0  0  0  0  0  0
    9.3879    0.8828   -1.5592 H   0  0  0  0  0  0  0  0  0  0  0  0
    8.6536    2.0886    0.5075 H   0  0  0  0  0  0  0  0  0  0  0  0
    1.9288   -1.1962    2.4894 H   0  0  0  0  0  0  0  0  0  0  0  0
  1  2  1  0
  2  3  1  0
  3  4  1  0
  4  5  1  0
  5  6  1  0
  6  7  2  0
  7  8  1  0
  8  9  2  0
  9 10  1  0
 10 11  2  0
  9 12  1  0
 12 13  1  0
 12 14  2  3
  3 15  2  0
 15 16  1  0
 16 17  2  0
 17 18  1  0
 18 19  2  0
 19 20  1  0
 20 21  1  0
 21 22  1  0
 22 23  1  0
 23 24  1  0
 23 25  2  0
 25 26  1  0
 26 27  2  0
 27 28  1  0
 28 29  2  0
 29 30  1  0
 30 31  2  0
 20 32  2  0
 17  2  1  0
 27 22  1  0
 11  6  1  0
 32 16  1  0
 31 26  1  0
  1 33  1  0
  1 34  1  0
  1 35  1  0
  4 36  1  0
  4 37  1  0
  5 38  1  0
  7 39  1  0
  8 40  1  0
 10 41  1  0
 11 42  1  0
 13 43  1  0
 13 44  1  0
 14 45  1  0
 18 46  1  0
 19 47  1  0
 21 48  1  0
 21 49  1  0
 24 50  1  0
 24 51  1  0
 24 52  1  0
 28 53  1  0
 29 54  1  0
 30 55  1  0
 31 56  1  0
 32 57  1  0
M  END
$$$$
