
     RDKit          3D

 30 32  0  0  0  0  0  0  0  0999 V2000
   -2.9087   -0.6707    0.4860 C   0  0  1  0  0  0  0  0  0  0  0  0
   -3.4506   -1.5591   -0.6395 C   0  0  0  0  0  0  0  0  0  0  0  0
   -4.8016   -1.2736   -0.8892 O   0  0  0  0  0  0  0  0  0  0  0  0
   -1.6150   -1.1115    0.8420 O   0  0  0  0  0  0  0  0  0  0  0  0
   -0.7449    0.0108    0.8672 C   0  0  1  0  0  0  0  0  0  0  0  0
    0.5163   -0.3250    0.2052 N   0  0  0  0  0  0  0  0  0  0  0  0
    0.6999   -1.0852   -0.9064 C   0  0  0  0  0  0  0  0  0  0  0  0
    1.9930   -1.1138   -1.3334 N   0  0  0  0  0  0  0  0  0  0  0  0
    2.6175   -0.3219   -0.4411 C   0  0  0  0  0  0  0  0  0  0  0  0
    3.9541    0.0549   -0.3761 C   0  0  0  0  0  0  0  0  0  0  0  0
    4.9165   -0.4193   -1.3180 N   0  0  0  0  0  0  0  0  0  0  0  0
    4.3230    0.9089    0.6255 N   0  0  0  0  0  0  0  0  0  0  0  0
    3.4100    1.3825    1.5339 C   0  0  0  0  0  0  0  0  0  0  0  0
    2.0973    1.0073    1.4585 N   0  0  0  0  0  0  0  0  0  0  0  0
    1.7375    0.1547    0.4686 C   0  0  0  0  0  0  0  0  0  0  0  0
   -1.4056    1.2104    0.1810 C   0  0  2  0  0  0  0  0  0  0  0  0
   -1.3327    2.3491    0.9981 O   0  0  0  0  0  0  0  0  0  0  0  0
   -2.7830    0.7407    0.0631 C   0  0  0  0  0  0  0  0  0  0  0  0
   -3.7142    1.4367   -0.3122 O   0  0  0  0  0  0  0  0  0  0  0  0
   -3.5737   -0.7374    1.3745 H   0  0  0  0  0  0  0  0  0  0  0  0
   -2.8329   -1.4438   -1.5616 H   0  0  0  0  0  0  0  0  0  0  0  0
   -3.3757   -2.6211   -0.3226 H   0  0  0  0  0  0  0  0  0  0  0  0
   -4.8267   -0.6203   -1.6360 H   0  0  0  0  0  0  0  0  0  0  0  0
   -0.5403    0.2496    1.9356 H   0  0  0  0  0  0  0  0  0  0  0  0
   -0.1016   -1.6041   -1.4160 H   0  0  0  0  0  0  0  0  0  0  0  0
    4.6412   -1.0707   -2.0864 H   0  0  0  0  0  0  0  0  0  0  0  0
    5.9133   -0.1173   -1.2464 H   0  0  0  0  0  0  0  0  0  0  0  0
    3.7306    2.0592    2.3138 H   0  0  0  0  0  0  0  0  0  0  0  0
   -0.9792    1.4047   -0.8311 H   0  0  0  0  0  0  0  0  0  0  0  0
   -1.5638    3.1254    0.4240 H   0  0  0  0  0  0  0  0  0  0  0  0
  1  2  1  0
  2  3  1  0
  1  4  1  0
  4  5  1  0
  5  6  1  0
  6  7  1  0
  7  8  2  0
  8  9  1  0
  9 10  2  0
 10 11  1  0
 10 12  1  0
 12 13  2  0
 13 14  1  0
 14 15  2  0
  5 16  1  0
 16 17  1  0
 16 18  1  0
 18 19  2  0
 18  1  1  0
 15  6  1  0
 15  9  1  0
  1 20  1  1
  2 21  1  0
  2 22  1  0
  3 23  1  0
  5 24  1  1
  7 25  1  0
 11 26  1  0
 11 27  1  0
 13 28  1  0
 16 29  1  6
 17 30  1  0
M  END
$$$$
