
     RDKit          3D

 74 78  0  0  0  0  0  0  0  0999 V2000
   -0.1934    1.5686    0.3467 C   0  0  0  0  0  0  0  0  0  0  0  0
   -0.0716    0.2454    0.8571 O   0  0  0  0  0  0  0  0  0  0  0  0
    1.1324   -0.4714    0.9505 C   0  0  0  0  0  0  0  0  0  0  0  0
    2.3651    0.0973    0.5717 C   0  0  0  0  0  0  0  0  0  0  0  0
    3.5581   -0.6407    0.6643 C   0  0  0  0  0  0  0  0  0  0  0  0
    3.5037   -1.9673    1.1185 C   0  0  0  0  0  0  0  0  0  0  0  0
    2.2885   -2.5381    1.4965 C   0  0  0  0  0  0  0  0  0  0  0  0
    1.0998   -1.7961    1.4310 C   0  0  0  0  0  0  0  0  0  0  0  0
   -0.2054   -2.4530    1.8066 C   0  0  0  0  0  0  0  0  0  0  0  0
   -0.8823   -2.9990    0.5839 C   0  0  0  0  0  0  0  0  0  0  0  0
   -0.4783   -4.1128   -0.1460 C   0  0  0  0  0  0  0  0  0  0  0  0
   -1.2668   -4.2681   -1.2350 N   0  0  0  0  0  0  0  0  0  0  0  0
   -1.1196   -5.2890   -2.2678 C   0  0  0  0  0  0  0  0  0  0  0  0
   -2.1544   -3.2536   -1.2118 C   0  0  0  0  0  0  0  0  0  0  0  0
   -1.9508   -2.4592   -0.1119 C   0  0  0  0  0  0  0  0  0  0  0  0
   -2.7332   -1.3300    0.1325 C   0  0  0  0  0  0  0  0  0  0  0  0
   -3.7583   -1.0131   -0.7829 C   0  0  0  0  0  0  0  0  0  0  0  0
   -4.5509    0.1659   -0.5627 N   0  0  0  0  0  0  0  0  0  0  0  0
   -5.9350    0.2868   -0.9155 C   0  0  0  0  0  0  0  0  0  0  0  0
   -6.5975   -0.7257   -1.2731 O   0  0  0  0  0  0  0  0  0  0  0  0
   -6.5532    1.5379   -0.8198 O   0  0  0  0  0  0  0  0  0  0  0  0
   -7.9356    1.7511   -1.1054 C   0  0  0  0  0  0  0  0  0  0  0  0
   -8.8312    1.1655   -0.0203 C   0  0  0  0  0  0  0  0  0  0  0  0
  -10.0544    2.0747    0.0556 C   0  0  0  0  0  0  0  0  0  0  0  0
   -9.7234    3.3343   -0.7423 C   0  0  0  0  0  0  0  0  0  0  0  0
   -8.2525    3.2355   -1.1149 C   0  0  0  0  0  0  0  0  0  0  0  0
   -3.9459   -1.8249   -1.9330 C   0  0  0  0  0  0  0  0  0  0  0  0
   -3.1446   -2.9593   -2.1502 C   0  0  0  0  0  0  0  0  0  0  0  0
    4.8576   -0.0493    0.2646 C   0  0  0  0  0  0  0  0  0  0  0  0
    5.7975   -0.8086   -0.0978 O   0  0  0  0  0  0  0  0  0  0  0  0
    5.0720    1.3689    0.3083 N   0  0  0  0  0  0  0  0  0  0  0  0
    6.5352    2.0854   -0.2846 S   0  0  0  0  0  6  0  0  0  0  0  0
    6.8020    1.5526   -1.6646 O   0  0  0  0  0  0  0  0  0  0  0  0
    6.3479    3.5744   -0.3595 O   0  0  0  0  0  0  0  0  0  0  0  0
    7.8925    1.7229    0.7952 C   0  0  0  0  0  0  0  0  0  0  0  0
    7.6222    1.2037    2.0725 C   0  0  0  0  0  0  0  0  0  0  0  0
    8.6628    0.8953    2.9499 C   0  0  0  0  0  0  0  0  0  0  0  0
    9.9861    1.1048    2.5661 C   0  0  0  0  0  0  0  0  0  0  0  0
   10.2736    1.6333    1.3068 C   0  0  0  0  0  0  0  0  0  0  0  0
    9.2375    1.9625    0.4145 C   0  0  0  0  0  0  0  0  0  0  0  0
    9.5936    2.5265   -0.9355 C   0  0  0  0  0  0  0  0  0  0  0  0
   -1.2601    1.8715    0.3803 H   0  0  0  0  0  0  0  0  0  0  0  0
    0.3968    2.2741    0.9687 H   0  0  0  0  0  0  0  0  0  0  0  0
    0.1519    1.6038   -0.7081 H   0  0  0  0  0  0  0  0  0  0  0  0
    2.3911    1.1032    0.1792 H   0  0  0  0  0  0  0  0  0  0  0  0
    4.4052   -2.5633    1.1901 H   0  0  0  0  0  0  0  0  0  0  0  0
    2.2746   -3.5653    1.8400 H   0  0  0  0  0  0  0  0  0  0  0  0
   -0.0279   -3.2861    2.5208 H   0  0  0  0  0  0  0  0  0  0  0  0
   -0.8654   -1.7298    2.3299 H   0  0  0  0  0  0  0  0  0  0  0  0
    0.3591   -4.7547    0.0975 H   0  0  0  0  0  0  0  0  0  0  0  0
   -0.7617   -4.8190   -3.2077 H   0  0  0  0  0  0  0  0  0  0  0  0
   -0.3880   -6.0621   -1.9494 H   0  0  0  0  0  0  0  0  0  0  0  0
   -2.0971   -5.7825   -2.4514 H   0  0  0  0  0  0  0  0  0  0  0  0
   -2.5674   -0.7152    1.0070 H   0  0  0  0  0  0  0  0  0  0  0  0
   -4.1217    0.9586   -0.0339 H   0  0  0  0  0  0  0  0  0  0  0  0
   -8.1984    1.3153   -2.0965 H   0  0  0  0  0  0  0  0  0  0  0  0
   -9.1214    0.1204   -0.2640 H   0  0  0  0  0  0  0  0  0  0  0  0
   -8.3005    1.1753    0.9579 H   0  0  0  0  0  0  0  0  0  0  0  0
  -10.9405    1.5661   -0.3840 H   0  0  0  0  0  0  0  0  0  0  0  0
  -10.2790    2.3309    1.1142 H   0  0  0  0  0  0  0  0  0  0  0  0
  -10.3405    3.3658   -1.6675 H   0  0  0  0  0  0  0  0  0  0  0  0
   -9.9204    4.2523   -0.1467 H   0  0  0  0  0  0  0  0  0  0  0  0
   -7.6414    3.7607   -0.3470 H   0  0  0  0  0  0  0  0  0  0  0  0
   -8.0541    3.6855   -2.1119 H   0  0  0  0  0  0  0  0  0  0  0  0
   -4.6891   -1.5669   -2.6750 H   0  0  0  0  0  0  0  0  0  0  0  0
   -3.2869   -3.5732   -3.0299 H   0  0  0  0  0  0  0  0  0  0  0  0
    4.3811    1.9954    0.7760 H   0  0  0  0  0  0  0  0  0  0  0  0
    6.6043    1.0353    2.3970 H   0  0  0  0  0  0  0  0  0  0  0  0
    8.4421    0.4914    3.9296 H   0  0  0  0  0  0  0  0  0  0  0  0
   10.7913    0.8602    3.2468 H   0  0  0  0  0  0  0  0  0  0  0  0
   11.3091    1.7890    1.0300 H   0  0  0  0  0  0  0  0  0  0  0  0
    9.4508    1.7491   -1.7142 H   0  0  0  0  0  0  0  0  0  0  0  0
    8.9619    3.4087   -1.1672 H   0  0  0  0  0  0  0  0  0  0  0  0
   10.6524    2.8611   -0.9688 H   0  0  0  0  0  0  0  0  0  0  0  0
  1  2  1  0
  2  3  1  0
  3  4  2  0
  4  5  1  0
  5  6  2  0
  6  7  1  0
  7  8  2  0
  8  9  1  0
  9 10  1  0
 10 11  2  0
 11 12  1  0
 12 13  1  0
 12 14  1  0
 14 15  2  0
 15 16  1  0
 16 17  2  0
 17 18  1  0
 18 19  1  0
 19 20  2  0
 19 21  1  0
 21 22  1  0
 22 23  1  0
 23 24  1  0
 24 25  1  0
 25 26  1  0
 17 27  1  0
 27 28  2  0
  5 29  1  0
 29 30  2  0
 29 31  1  0
 31 32  1  0
 32 33  2  0
 32 34  2  0
 32 35  1  0
 35 36  2  0
 36 37  1  0
 37 38  2  0
 38 39  1  0
 39 40  2  0
 40 41  1  0
  8  3  1  0
 15 10  1  0
 26 22  1  0
 40 35  1  0
 28 14  1  0
  1 42  1  0
  1 43  1  0
  1 44  1  0
  4 45  1  0
  6 46  1  0
  7 47  1  0
  9 48  1  0
  9 49  1  0
 11 50  1  0
 13 51  1  0
 13 52  1  0
 13 53  1  0
 16 54  1  0
 18 55  1  0
 22 56  1  0
 23 57  1  0
 23 58  1  0
 24 59  1  0
 24 60  1  0
 25 61  1  0
 25 62  1  0
 26 63  1  0
 26 64  1  0
 27 65  1  0
 28 66  1  0
 31 67  1  0
 36 68  1  0
 37 69  1  0
 38 70  1  0
 39 71  1  0
 41 72  1  0
 41 73  1  0
 41 74  1  0
M  END
$$$$
