
     RDKit          3D

 65 68  0  0  0  0  0  0  0  0999 V2000
   -7.2685   -0.8118   -2.3101 C   0  0  0  0  0  0  0  0  0  0  0  0
   -6.1486   -0.3909   -1.5409 O   0  0  0  0  0  0  0  0  0  0  0  0
   -4.9429    0.0167   -2.1209 C   0  0  0  0  0  0  0  0  0  0  0  0
   -4.8128   -0.0098   -3.3759 O   0  0  0  0  0  0  0  0  0  0  0  0
   -3.7872    0.4250   -1.2747 C   0  0  0  0  0  0  0  0  0  0  0  0
   -3.9364    0.9763   -0.0479 C   0  0  0  0  0  0  0  0  0  0  0  0
   -5.2865    1.2770    0.5502 C   0  0  0  0  0  0  0  0  0  0  0  0
   -2.7750    1.3132    0.7226 N   0  0  0  0  0  0  0  0  0  0  0  0
   -1.4576    1.3329    0.1572 C   0  0  0  0  0  0  0  0  0  0  0  0
   -0.3585    1.9797    0.9609 C   0  0  0  0  0  0  0  0  0  0  0  0
   -1.2479    0.7924   -1.0656 C   0  0  0  0  0  0  0  0  0  0  0  0
   -2.3950    0.1321   -1.8175 C   0  0  1  0  0  0  0  0  0  0  0  0
   -2.1734   -1.3676   -1.8623 C   0  0  0  0  0  0  0  0  0  0  0  0
   -2.1534   -2.1246   -0.6755 C   0  0  0  0  0  0  0  0  0  0  0  0
   -1.9448   -3.5146   -0.7110 C   0  0  0  0  0  0  0  0  0  0  0  0
   -1.7562   -4.1435   -1.9546 C   0  0  0  0  0  0  0  0  0  0  0  0
   -1.7759   -3.3977   -3.1349 C   0  0  0  0  0  0  0  0  0  0  0  0
   -1.9828   -2.0182   -3.0919 C   0  0  0  0  0  0  0  0  0  0  0  0
   -1.9245   -4.2787    0.5088 N   0  0  0  0  0  4  0  0  0  0  0  0
   -2.1069   -3.6605    1.7248 O   0  0  0  0  0  1  0  0  0  0  0  0
   -1.7404   -5.5134    0.4839 O   0  0  0  0  0  0  0  0  0  0  0  0
    0.0965    0.7422   -1.7026 C   0  0  0  0  0  0  0  0  0  0  0  0
    0.1868    0.7072   -2.9607 O   0  0  0  0  0  0  0  0  0  0  0  0
    1.2544    0.6740   -0.9203 O   0  0  0  0  0  0  0  0  0  0  0  0
    2.5755    0.6517   -1.4620 C   0  0  1  0  0  0  0  0  0  0  0  0
    2.9832    2.0330   -1.9285 C   0  0  0  0  0  0  0  0  0  0  0  0
    3.5647    2.6781   -0.6878 C   0  0  0  0  0  0  0  0  0  0  0  0
    4.1407    1.6027    0.1345 N   0  0  0  0  0  0  0  0  0  0  0  0
    3.8857    1.8289    1.5708 C   0  0  0  0  0  0  0  0  0  0  0  0
    4.7321    0.9061    2.4079 C   0  0  0  0  0  0  0  0  0  0  0  0
    4.1404   -0.1203    3.1637 C   0  0  0  0  0  0  0  0  0  0  0  0
    4.9362   -0.9813    3.9258 C   0  0  0  0  0  0  0  0  0  0  0  0
    6.3251   -0.8252    3.9377 C   0  0  0  0  0  0  0  0  0  0  0  0
    6.9208    0.1918    3.1866 C   0  0  0  0  0  0  0  0  0  0  0  0
    6.1288    1.0548    2.4229 C   0  0  0  0  0  0  0  0  0  0  0  0
    3.5674    0.3329   -0.3517 C   0  0  0  0  0  0  0  0  0  0  0  0
   -8.0996   -1.0803   -1.6263 H   0  0  0  0  0  0  0  0  0  0  0  0
   -7.6023    0.0112   -2.9768 H   0  0  0  0  0  0  0  0  0  0  0  0
   -6.9996   -1.7021   -2.9172 H   0  0  0  0  0  0  0  0  0  0  0  0
   -5.7681    0.3360    0.8889 H   0  0  0  0  0  0  0  0  0  0  0  0
   -5.9336    1.7989   -0.1862 H   0  0  0  0  0  0  0  0  0  0  0  0
   -5.1866    1.9466    1.4298 H   0  0  0  0  0  0  0  0  0  0  0  0
   -2.9032    1.6381    1.7076 H   0  0  0  0  0  0  0  0  0  0  0  0
   -0.7806    2.5742    1.7978 H   0  0  0  0  0  0  0  0  0  0  0  0
    0.3015    1.1995    1.3939 H   0  0  0  0  0  0  0  0  0  0  0  0
    0.2303    2.6776    0.3291 H   0  0  0  0  0  0  0  0  0  0  0  0
   -2.3693    0.5457   -2.8500 H   0  0  0  0  0  0  0  0  0  0  0  0
   -2.3000   -1.6250    0.2736 H   0  0  0  0  0  0  0  0  0  0  0  0
   -1.5934   -5.2119   -2.0146 H   0  0  0  0  0  0  0  0  0  0  0  0
   -1.6296   -3.8912   -4.0871 H   0  0  0  0  0  0  0  0  0  0  0  0
   -1.9935   -1.4585   -4.0188 H   0  0  0  0  0  0  0  0  0  0  0  0
    2.6439   -0.0982   -2.2818 H   0  0  0  0  0  0  0  0  0  0  0  0
    2.1300    2.6187   -2.3338 H   0  0  0  0  0  0  0  0  0  0  0  0
    3.7716    1.9446   -2.7084 H   0  0  0  0  0  0  0  0  0  0  0  0
    2.7485    3.2206   -0.1555 H   0  0  0  0  0  0  0  0  0  0  0  0
    4.3561    3.4073   -0.9632 H   0  0  0  0  0  0  0  0  0  0  0  0
    2.8032    1.7061    1.8039 H   0  0  0  0  0  0  0  0  0  0  0  0
    4.1591    2.8735    1.8416 H   0  0  0  0  0  0  0  0  0  0  0  0
    3.0660   -0.2561    3.1611 H   0  0  0  0  0  0  0  0  0  0  0  0
    4.4762   -1.7705    4.5062 H   0  0  0  0  0  0  0  0  0  0  0  0
    6.9395   -1.4929    4.5278 H   0  0  0  0  0  0  0  0  0  0  0  0
    7.9966    0.3106    3.1951 H   0  0  0  0  0  0  0  0  0  0  0  0
    6.6016    1.8371    1.8419 H   0  0  0  0  0  0  0  0  0  0  0  0
    4.3940   -0.2831   -0.7667 H   0  0  0  0  0  0  0  0  0  0  0  0
    3.0781   -0.2669    0.4491 H   0  0  0  0  0  0  0  0  0  0  0  0
  1  2  1  0
  2  3  1  0
  3  4  2  0
  3  5  1  0
  5  6  2  0
  6  7  1  0
  6  8  1  0
  8  9  1  0
  9 10  1  0
  9 11  2  0
 11 12  1  0
 12 13  1  0
 13 14  2  0
 14 15  1  0
 15 16  2  0
 16 17  1  0
 17 18  2  0
 15 19  1  0
 19 20  1  0
 19 21  2  0
 11 22  1  0
 22 23  2  0
 22 24  1  0
 24 25  1  0
 25 26  1  0
 26 27  1  0
 27 28  1  0
 28 29  1  0
 29 30  1  0
 30 31  2  0
 31 32  1  0
 32 33  2  0
 33 34  1  0
 34 35  2  0
 28 36  1  0
 12  5  1  0
 18 13  1  0
 36 25  1  0
 35 30  1  0
  1 37  1  0
  1 38  1  0
  1 39  1  0
  7 40  1  0
  7 41  1  0
  7 42  1  0
  8 43  1  0
 10 44  1  0
 10 45  1  0
 10 46  1  0
 12 47  1  6
 14 48  1  0
 16 49  1  0
 17 50  1  0
 18 51  1  0
 25 52  1  6
 26 53  1  0
 26 54  1  0
 27 55  1  0
 27 56  1  0
 29 57  1  0
 29 58  1  0
 31 59  1  0
 32 60  1  0
 33 61  1  0
 34 62  1  0
 35 63  1  0
 36 64  1  0
 36 65  1  0
M  CHG  2  19   1  20  -1
M  END
$$$$
