
     RDKit          3D

 43 46  0  0  0  0  0  0  0  0999 V2000
    6.2416    2.3745   -2.1453 Cl  0  0  0  0  0  0  0  0  0  0  0  0
    5.5772    1.1758   -1.0506 C   0  0  0  0  0  0  0  0  0  0  0  0
    5.1427   -0.0566   -1.5439 C   0  0  0  0  0  0  0  0  0  0  0  0
    4.6114   -1.0116   -0.6739 C   0  0  0  0  0  0  0  0  0  0  0  0
    4.5062   -0.7426    0.7003 C   0  0  0  0  0  0  0  0  0  0  0  0
    4.9509    0.5015    1.1959 C   0  0  0  0  0  0  0  0  0  0  0  0
    4.8618    0.9083    2.9063 Cl  0  0  0  0  0  0  0  0  0  0  0  0
    5.4826    1.4524    0.3162 C   0  0  0  0  0  0  0  0  0  0  0  0
    3.7976   -1.9567    1.7733 S   0  0  0  0  0  6  0  0  0  0  0  0
    4.8511   -2.4194    2.7399 O   0  0  0  0  0  0  0  0  0  0  0  0
    3.3066   -3.1437    0.9922 O   0  0  0  0  0  0  0  0  0  0  0  0
    2.4690   -1.2704    2.6543 N   0  0  0  0  0  0  0  0  0  0  0  0
    1.4485   -0.4607    2.0459 C   0  0  0  0  0  0  0  0  0  0  0  0
    0.6880    0.4005    2.8492 C   0  0  0  0  0  0  0  0  0  0  0  0
   -0.3023    1.2112    2.2861 C   0  0  0  0  0  0  0  0  0  0  0  0
   -1.2321    2.2812    3.3240 Cl  0  0  0  0  0  0  0  0  0  0  0  0
   -0.5600    1.1568    0.9093 C   0  0  0  0  0  0  0  0  0  0  0  0
   -1.5588    1.9766    0.3679 O   0  0  0  0  0  0  0  0  0  0  0  0
   -2.6885    1.5048   -0.3170 C   0  0  0  0  0  0  0  0  0  0  0  0
   -3.4459    2.4082   -1.0700 C   0  0  0  0  0  0  0  0  0  0  0  0
   -4.5496    1.9896   -1.7444 N   0  0  0  0  0  0  0  0  0  0  0  0
   -4.9613    0.6944   -1.7100 C   0  0  0  0  0  0  0  0  0  0  0  0
   -6.1020    0.2997   -2.4185 C   0  0  0  0  0  0  0  0  0  0  0  0
   -6.5242   -1.0330   -2.3777 C   0  0  0  0  0  0  0  0  0  0  0  0
   -5.8100   -1.9746   -1.6296 C   0  0  0  0  0  0  0  0  0  0  0  0
   -4.6690   -1.5896   -0.9180 C   0  0  0  0  0  0  0  0  0  0  0  0
   -4.2379   -0.2548   -0.9547 C   0  0  0  0  0  0  0  0  0  0  0  0
   -3.0998    0.1615   -0.2533 C   0  0  0  0  0  0  0  0  0  0  0  0
    0.2061    0.3016    0.0940 C   0  0  0  0  0  0  0  0  0  0  0  0
   -0.0067    0.2690   -1.6515 Cl  0  0  0  0  0  0  0  0  0  0  0  0
    1.1931   -0.5089    0.6644 C   0  0  0  0  0  0  0  0  0  0  0  0
    5.2142   -0.2753   -2.6017 H   0  0  0  0  0  0  0  0  0  0  0  0
    4.2761   -1.9579   -1.0776 H   0  0  0  0  0  0  0  0  0  0  0  0
    5.8224    2.4081    0.6953 H   0  0  0  0  0  0  0  0  0  0  0  0
    2.5047   -1.3428    3.6958 H   0  0  0  0  0  0  0  0  0  0  0  0
    0.8739    0.4491    3.9151 H   0  0  0  0  0  0  0  0  0  0  0  0
   -3.1515    3.4480   -1.1234 H   0  0  0  0  0  0  0  0  0  0  0  0
   -6.6618    1.0221   -2.9996 H   0  0  0  0  0  0  0  0  0  0  0  0
   -7.4065   -1.3365   -2.9262 H   0  0  0  0  0  0  0  0  0  0  0  0
   -6.1414   -3.0046   -1.6013 H   0  0  0  0  0  0  0  0  0  0  0  0
   -4.1262   -2.3305   -0.3433 H   0  0  0  0  0  0  0  0  0  0  0  0
   -2.5436   -0.5522    0.3419 H   0  0  0  0  0  0  0  0  0  0  0  0
    1.7535   -1.1724    0.0219 H   0  0  0  0  0  0  0  0  0  0  0  0
  1  2  1  0
  2  3  2  0
  3  4  1  0
  4  5  2  0
  5  6  1  0
  6  7  1  0
  6  8  2  0
  5  9  1  0
  9 10  2  0
  9 11  2  0
  9 12  1  0
 12 13  1  0
 13 14  2  0
 14 15  1  0
 15 16  1  0
 15 17  2  0
 17 18  1  0
 18 19  1  0
 19 20  2  0
 20 21  1  0
 21 22  2  0
 22 23  1  0
 23 24  2  0
 24 25  1  0
 25 26  2  0
 26 27  1  0
 27 28  2  0
 17 29  1  0
 29 30  1  0
 29 31  2  0
  8  2  1  0
 31 13  1  0
 28 19  1  0
 27 22  1  0
  3 32  1  0
  4 33  1  0
  8 34  1  0
 12 35  1  0
 14 36  1  0
 20 37  1  0
 23 38  1  0
 24 39  1  0
 25 40  1  0
 26 41  1  0
 28 42  1  0
 31 43  1  0
M  END
$$$$
