
     RDKit          3D

 55 57  0  0  0  0  0  0  0  0999 V2000
    0.5316    0.4928   -2.5800 C   0  0  1  0  0  0  0  0  0  0  0  0
    0.5747    1.9814   -2.9309 C   0  0  0  0  0  0  0  0  0  0  0  0
    1.6840    0.1319   -1.7408 C   0  0  0  0  0  0  0  0  0  0  0  0
    2.6046   -0.1647   -1.0221 C   0  0  0  0  0  0  0  0  0  0  0  0
    3.6826   -0.5219   -0.1301 C   0  0  0  0  0  0  0  0  0  0  0  0
    5.0266   -0.4529   -0.5445 C   0  0  0  0  0  0  0  0  0  0  0  0
    5.3848   -0.0297   -1.8646 N   0  0  0  0  0  0  0  0  0  0  0  0
    6.0124   -0.7945    0.3265 N   0  0  0  0  0  0  0  0  0  0  0  0
    5.7316   -1.2018    1.5908 C   0  0  0  0  0  0  0  0  0  0  0  0
    6.7900   -1.5530    2.4788 N   0  0  0  0  0  0  0  0  0  0  0  0
    4.4421   -1.2742    2.0086 N   0  0  0  0  0  0  0  0  0  0  0  0
    3.4112   -0.9460    1.1857 C   0  0  0  0  0  0  0  0  0  0  0  0
    2.0060   -1.0489    1.7064 C   0  0  0  0  0  0  0  0  0  0  0  0
   -0.7592    0.1441   -1.8687 C   0  0  0  0  0  0  0  0  0  0  0  0
   -1.7419   -0.6190   -2.5225 C   0  0  0  0  0  0  0  0  0  0  0  0
   -2.9454   -0.9493   -1.8692 C   0  0  0  0  0  0  0  0  0  0  0  0
   -3.9495   -1.7128   -2.4832 O   0  0  0  0  0  0  0  0  0  0  0  0
   -3.8710   -2.2309   -3.8071 C   0  0  0  0  0  0  0  0  0  0  0  0
   -3.1586   -0.5064   -0.5597 C   0  0  0  0  0  0  0  0  0  0  0  0
   -2.1922    0.2640    0.0986 C   0  0  0  0  0  0  0  0  0  0  0  0
   -1.0015    0.5937   -0.5581 C   0  0  0  0  0  0  0  0  0  0  0  0
   -2.4202    0.7208    1.4874 C   0  0  0  0  0  0  0  0  0  0  0  0
   -2.7593    2.0721    1.7460 C   0  0  0  0  0  0  0  0  0  0  0  0
   -2.8969    3.0732    0.6277 C   0  0  0  0  0  0  0  0  0  0  0  0
   -2.9512    2.4950    3.0705 C   0  0  0  0  0  0  0  0  0  0  0  0
   -2.8321    1.5931    4.1263 C   0  0  0  0  0  0  0  0  0  0  0  0
   -2.5078    0.2606    3.8783 C   0  0  0  0  0  0  0  0  0  0  0  0
   -2.2852   -0.1872    2.5670 C   0  0  0  0  0  0  0  0  0  0  0  0
   -1.9331   -1.6343    2.3364 C   0  0  0  0  0  0  0  0  0  0  0  0
    0.6181   -0.0864   -3.5252 H   0  0  0  0  0  0  0  0  0  0  0  0
    1.5052    2.2148   -3.4920 H   0  0  0  0  0  0  0  0  0  0  0  0
   -0.2932    2.2445   -3.5728 H   0  0  0  0  0  0  0  0  0  0  0  0
    0.5446    2.6088   -2.0137 H   0  0  0  0  0  0  0  0  0  0  0  0
    4.6690    0.2448   -2.5729 H   0  0  0  0  0  0  0  0  0  0  0  0
    6.3906    0.0111   -2.1423 H   0  0  0  0  0  0  0  0  0  0  0  0
    6.5809   -1.8669    3.4524 H   0  0  0  0  0  0  0  0  0  0  0  0
    7.7840   -1.4995    2.1638 H   0  0  0  0  0  0  0  0  0  0  0  0
    1.5127   -0.0548    1.6656 H   0  0  0  0  0  0  0  0  0  0  0  0
    1.4295   -1.7710    1.0910 H   0  0  0  0  0  0  0  0  0  0  0  0
    2.0027   -1.4013    2.7598 H   0  0  0  0  0  0  0  0  0  0  0  0
   -1.5629   -0.9538   -3.5353 H   0  0  0  0  0  0  0  0  0  0  0  0
   -3.7730   -1.3999   -4.5372 H   0  0  0  0  0  0  0  0  0  0  0  0
   -3.0068   -2.9226   -3.8959 H   0  0  0  0  0  0  0  0  0  0  0  0
   -4.8003   -2.7932   -4.0319 H   0  0  0  0  0  0  0  0  0  0  0  0
   -4.0826   -0.7612   -0.0544 H   0  0  0  0  0  0  0  0  0  0  0  0
   -0.2576    1.1898   -0.0426 H   0  0  0  0  0  0  0  0  0  0  0  0
   -1.8950    3.3066    0.2108 H   0  0  0  0  0  0  0  0  0  0  0  0
   -3.5426    2.6626   -0.1769 H   0  0  0  0  0  0  0  0  0  0  0  0
   -3.3593    4.0192    0.9815 H   0  0  0  0  0  0  0  0  0  0  0  0
   -3.2001    3.5262    3.2888 H   0  0  0  0  0  0  0  0  0  0  0  0
   -2.9916    1.9290    5.1429 H   0  0  0  0  0  0  0  0  0  0  0  0
   -2.4232   -0.4220    4.7149 H   0  0  0  0  0  0  0  0  0  0  0  0
   -1.0838   -1.7166    1.6267 H   0  0  0  0  0  0  0  0  0  0  0  0
   -1.6305   -2.1350    3.2807 H   0  0  0  0  0  0  0  0  0  0  0  0
   -2.8118   -2.1685    1.9189 H   0  0  0  0  0  0  0  0  0  0  0  0
  1  2  1  0
  1  3  1  0
  3  4  3  0
  4  5  1  0
  5  6  2  0
  6  7  1  0
  6  8  1  0
  8  9  2  0
  9 10  1  0
  9 11  1  0
 11 12  2  0
 12 13  1  0
  1 14  1  0
 14 15  2  0
 15 16  1  0
 16 17  1  0
 17 18  1  0
 16 19  2  0
 19 20  1  0
 20 21  2  0
 20 22  1  0
 22 23  2  0
 23 24  1  0
 23 25  1  0
 25 26  2  0
 26 27  1  0
 27 28  2  0
 28 29  1  0
 12  5  1  0
 21 14  1  0
 28 22  1  0
  1 30  1  6
  2 31  1  0
  2 32  1  0
  2 33  1  0
  7 34  1  0
  7 35  1  0
 10 36  1  0
 10 37  1  0
 13 38  1  0
 13 39  1  0
 13 40  1  0
 15 41  1  0
 18 42  1  0
 18 43  1  0
 18 44  1  0
 19 45  1  0
 21 46  1  0
 24 47  1  0
 24 48  1  0
 24 49  1  0
 25 50  1  0
 26 51  1  0
 27 52  1  0
 29 53  1  0
 29 54  1  0
 29 55  1  0
M  END
$$$$
