
     RDKit          3D

 37 39  0  0  0  0  0  0  0  0999 V2000
    5.1944    0.5551   -2.3268 C   0  0  0  0  0  0  0  0  0  0  0  0
    5.4428    0.0393   -1.0230 O   0  0  0  0  0  0  0  0  0  0  0  0
    4.4441   -0.2436   -0.0792 C   0  0  0  0  0  0  0  0  0  0  0  0
    3.0752   -0.0408   -0.3433 C   0  0  0  0  0  0  0  0  0  0  0  0
    2.1080   -0.3413    0.6319 C   0  0  0  0  0  0  0  0  0  0  0  0
    2.5195   -0.8418    1.8758 C   0  0  0  0  0  0  0  0  0  0  0  0
    3.8756   -1.0434    2.1407 C   0  0  0  0  0  0  0  0  0  0  0  0
    4.8323   -0.7465    1.1676 C   0  0  0  0  0  0  0  0  0  0  0  0
    0.7108   -0.1376    0.3611 N   0  0  0  0  0  0  0  0  0  0  0  0
    0.2558    1.0846   -0.3210 C   0  0  0  0  0  0  0  0  0  0  0  0
   -1.1334    1.5333    0.1713 C   0  0  0  0  0  0  0  0  0  0  0  0
   -2.1885    0.4918   -0.0889 C   0  0  0  0  0  0  0  0  0  0  0  0
   -1.9423   -0.8631    0.0390 C   0  0  0  0  0  0  0  0  0  0  0  0
   -3.3478   -1.7397   -0.2372 S   0  0  0  0  0  0  0  0  0  0  0  0
   -4.3022   -0.3752   -0.5039 C   0  0  0  0  0  0  0  0  0  0  0  0
   -3.5285    0.7740   -0.3820 C   0  0  0  0  0  0  0  0  0  0  0  0
   -6.0141   -0.4083   -0.8779 S   0  0  0  0  0  6  0  0  0  0  0  0
   -6.7946    0.9442   -0.1356 N   0  0  0  0  0  0  0  0  0  0  0  0
   -6.2031   -0.3460   -2.3671 O   0  0  0  0  0  0  0  0  0  0  0  0
   -6.6200   -1.6779   -0.3486 O   0  0  0  0  0  0  0  0  0  0  0  0
   -0.3659   -1.5015    0.4087 S   0  0  0  0  0  6  0  0  0  0  0  0
    0.0413   -2.5131   -0.6250 O   0  0  0  0  0  0  0  0  0  0  0  0
   -0.3834   -2.1202    1.7775 O   0  0  0  0  0  0  0  0  0  0  0  0
    4.6909    1.5425   -2.2573 H   0  0  0  0  0  0  0  0  0  0  0  0
    6.1609    0.6856   -2.8552 H   0  0  0  0  0  0  0  0  0  0  0  0
    4.5661   -0.1549   -2.9050 H   0  0  0  0  0  0  0  0  0  0  0  0
    2.7539    0.3357   -1.3046 H   0  0  0  0  0  0  0  0  0  0  0  0
    1.7938   -1.0570    2.6483 H   0  0  0  0  0  0  0  0  0  0  0  0
    4.1865   -1.4263    3.1042 H   0  0  0  0  0  0  0  0  0  0  0  0
    5.8812   -0.9060    1.3834 H   0  0  0  0  0  0  0  0  0  0  0  0
    0.2221    0.9031   -1.4173 H   0  0  0  0  0  0  0  0  0  0  0  0
    0.9729    1.9134   -0.1318 H   0  0  0  0  0  0  0  0  0  0  0  0
   -1.0900    1.7375    1.2625 H   0  0  0  0  0  0  0  0  0  0  0  0
   -1.4081    2.4776   -0.3465 H   0  0  0  0  0  0  0  0  0  0  0  0
   -3.9211    1.7760   -0.4969 H   0  0  0  0  0  0  0  0  0  0  0  0
   -7.8174    0.8491   -0.3252 H   0  0  0  0  0  0  0  0  0  0  0  0
   -6.6679    0.8416    0.8963 H   0  0  0  0  0  0  0  0  0  0  0  0
  1  2  1  0
  2  3  1  0
  3  4  2  0
  4  5  1  0
  5  6  2  0
  6  7  1  0
  7  8  2  0
  5  9  1  0
  9 10  1  0
 10 11  1  0
 11 12  1  0
 12 13  2  0
 13 14  1  0
 14 15  1  0
 15 16  2  0
 15 17  1  0
 17 18  1  0
 17 19  2  0
 17 20  2  0
 13 21  1  0
 21 22  2  0
 21 23  2  0
  8  3  1  0
 21  9  1  0
 16 12  1  0
  1 24  1  0
  1 25  1  0
  1 26  1  0
  4 27  1  0
  6 28  1  0
  7 29  1  0
  8 30  1  0
 10 31  1  0
 10 32  1  0
 11 33  1  0
 11 34  1  0
 16 35  1  0
 18 36  1  0
 18 37  1  0
M  END
$$$$
