
     RDKit          3D

 34 35  0  0  0  0  0  0  0  0999 V2000
   -4.0121    0.3310   -1.0465 N   0  0  0  0  0  0  0  0  0  0  0  0
   -4.8272   -0.1363   -0.0658 C   0  0  0  0  0  0  0  0  0  0  0  0
   -6.0624   -0.2664   -0.2775 O   0  0  0  0  0  0  0  0  0  0  0  0
   -4.2943   -0.4760    1.1722 C   0  0  0  0  0  0  0  0  0  0  0  0
   -2.9262   -0.3192    1.3753 C   0  0  0  0  0  0  0  0  0  0  0  0
   -2.1219    0.1710    0.3831 N   0  0  0  0  0  0  0  0  0  0  0  0
   -0.6725    0.2936    0.6568 C   0  0  2  0  0  0  0  0  0  0  0  0
   -0.1116    1.4023   -0.0053 O   0  0  0  0  0  0  0  0  0  0  0  0
    1.2273    1.0726   -0.3168 C   0  0  2  0  0  0  0  0  0  0  0  0
    1.4883    1.3655   -1.8013 C   0  0  0  0  0  0  0  0  0  0  0  0
    1.2245    2.7119   -2.0897 O   0  0  0  0  0  0  0  0  0  0  0  0
    1.4887   -0.4085    0.0201 C   0  0  1  0  0  0  0  0  0  0  0  0
    2.2186   -0.5138    1.2289 O   0  0  0  0  0  0  0  0  0  0  0  0
    3.8887   -0.6334    0.8877 P   0  0  0  0  0  5  0  0  0  0  0  0
    4.2010   -2.0531    0.0208 O   0  0  0  0  0  0  0  0  0  0  0  0
    4.7457   -0.6805    2.3455 O   0  0  0  0  0  0  0  0  0  0  0  0
    4.3505    0.5598    0.0812 O   0  0  0  0  0  0  0  0  0  0  0  0
    0.0976   -0.9538    0.2469 C   0  0  2  0  0  0  0  0  0  0  0  0
   -0.4173   -1.4908   -0.9458 O   0  0  0  0  0  0  0  0  0  0  0  0
   -2.6738    0.4791   -0.8399 C   0  0  0  0  0  0  0  0  0  0  0  0
   -1.9525    0.8936   -1.7882 O   0  0  0  0  0  0  0  0  0  0  0  0
   -4.4191    0.5751   -1.9786 H   0  0  0  0  0  0  0  0  0  0  0  0
   -4.9257   -0.8584    1.9648 H   0  0  0  0  0  0  0  0  0  0  0  0
   -2.5114   -0.5945    2.3381 H   0  0  0  0  0  0  0  0  0  0  0  0
   -0.5135    0.4580    1.7490 H   0  0  0  0  0  0  0  0  0  0  0  0
    1.8964    1.7244    0.2876 H   0  0  0  0  0  0  0  0  0  0  0  0
    0.8245    0.7332   -2.4287 H   0  0  0  0  0  0  0  0  0  0  0  0
    2.5422    1.1176   -2.0638 H   0  0  0  0  0  0  0  0  0  0  0  0
    1.9876    3.2344   -1.7287 H   0  0  0  0  0  0  0  0  0  0  0  0
    1.9639   -0.9689   -0.8221 H   0  0  0  0  0  0  0  0  0  0  0  0
    3.8145   -2.7761    0.5762 H   0  0  0  0  0  0  0  0  0  0  0  0
    4.4513    0.1273    2.8372 H   0  0  0  0  0  0  0  0  0  0  0  0
    0.0675   -1.7170    1.0605 H   0  0  0  0  0  0  0  0  0  0  0  0
   -0.0371   -2.4036   -1.0329 H   0  0  0  0  0  0  0  0  0  0  0  0
  1  2  1  0
  2  3  2  0
  2  4  1  0
  4  5  2  0
  5  6  1  0
  6  7  1  0
  7  8  1  0
  8  9  1  0
  9 10  1  0
 10 11  1  0
  9 12  1  0
 12 13  1  0
 13 14  1  0
 14 15  1  0
 14 16  1  0
 14 17  2  0
 12 18  1  0
 18 19  1  0
  6 20  1  0
 20 21  2  0
 20  1  1  0
 18  7  1  0
  1 22  1  0
  4 23  1  0
  5 24  1  0
  7 25  1  1
  9 26  1  1
 10 27  1  0
 10 28  1  0
 11 29  1  0
 12 30  1  6
 15 31  1  0
 16 32  1  0
 18 33  1  1
 19 34  1  0
M  END
$$$$
