
     RDKit          3D

 14 14  0  0  0  0  0  0  0  0999 V2000
   -2.5333   -0.8619   -1.9259 O   0  0  0  0  0  0  0  0  0  0  0  0
   -1.5644   -0.5323   -1.1903 C   0  0  0  0  0  0  0  0  0  0  0  0
   -0.3584   -0.2367   -1.7474 N   0  0  0  0  0  0  0  0  0  0  0  0
    0.6987    0.1207   -0.9716 C   0  0  0  0  0  0  0  0  0  0  0  0
    0.5566    0.1888    0.4159 C   0  0  0  0  0  0  0  0  0  0  0  0
    1.6773    0.5680    1.2409 C   0  0  0  0  0  0  0  0  0  0  0  0
    2.6142    0.8850    1.9303 C   0  0  0  0  0  0  0  0  0  0  0  0
   -0.6923   -0.1188    0.9727 C   0  0  0  0  0  0  0  0  0  0  0  0
   -0.8662   -0.0705    2.2211 O   0  0  0  0  0  0  0  0  0  0  0  0
   -1.7257   -0.4725    0.1602 N   0  0  0  0  0  0  0  0  0  0  0  0
   -0.2371   -0.2834   -2.7844 H   0  0  0  0  0  0  0  0  0  0  0  0
    1.6503    0.3520   -1.4361 H   0  0  0  0  0  0  0  0  0  0  0  0
    3.4365    1.1632    2.5355 H   0  0  0  0  0  0  0  0  0  0  0  0
   -2.6563   -0.7014    0.5790 H   0  0  0  0  0  0  0  0  0  0  0  0
  1  2  2  0
  2  3  1  0
  3  4  1  0
  4  5  2  0
  5  6  1  0
  6  7  3  0
  5  8  1  0
  8  9  2  0
  8 10  1  0
 10  2  1  0
  3 11  1  0
  4 12  1  0
  7 13  1  0
 10 14  1  0
M  END
$$$$
