
     RDKit          3D

 51 54  0  0  0  0  0  0  0  0999 V2000
   -6.9730   -4.0757   -0.3594 C   0  0  0  0  0  0  0  0  0  0  0  0
   -6.9941   -2.6479    0.0713 C   0  0  0  0  0  0  0  0  0  0  0  0
   -5.9008   -1.8025    0.0977 C   0  0  0  0  0  0  0  0  0  0  0  0
   -6.4001   -0.5894    0.5348 C   0  0  0  0  0  0  0  0  0  0  0  0
   -5.6819    0.6474    0.6804 N   0  0  0  0  0  0  0  0  0  0  0  0
   -4.2536    0.7462    0.7896 C   0  0  0  0  0  0  0  0  0  0  0  0
   -3.5600   -0.2882    0.9797 O   0  0  0  0  0  0  0  0  0  0  0  0
   -3.6313    2.0398    0.7239 N   0  0  0  0  0  0  0  0  0  0  0  0
   -2.2166    2.2826    0.7703 C   0  0  0  0  0  0  0  0  0  0  0  0
   -1.6990    3.5313    0.7495 N   0  0  0  0  0  0  0  0  0  0  0  0
   -0.3399    3.5204    0.7814 C   0  0  0  0  0  0  0  0  0  0  0  0
    0.2307    2.2536    0.8356 C   0  0  0  0  0  0  0  0  0  0  0  0
    1.6948    1.9468    0.8057 C   0  0  0  0  0  0  0  0  0  0  0  0
    2.1895    1.8309   -0.6377 C   0  0  0  0  0  0  0  0  0  0  0  0
    3.6203    1.5335   -0.6649 N   0  0  0  0  0  0  0  0  0  0  0  0
    4.1467    0.2296   -0.3749 C   0  0  0  0  0  0  0  0  0  0  0  0
    5.5290    0.0148   -0.3752 C   0  0  0  0  0  0  0  0  0  0  0  0
    6.0132   -1.2725   -0.1005 C   0  0  0  0  0  0  0  0  0  0  0  0
    7.4201   -1.5491   -0.0510 N   0  0  0  0  0  0  0  0  0  0  0  0
    8.3979   -0.9123   -0.8846 C   0  0  0  0  0  0  0  0  0  0  0  0
    9.7148   -0.9144   -0.6051 N   0  0  0  0  0  0  0  0  0  0  0  0
   10.2274   -0.2755   -1.6794 C   0  0  0  0  0  0  0  0  0  0  0  0
    9.2808    0.0776   -2.5720 N   0  0  0  0  0  0  0  0  0  0  0  0
    8.1324   -0.3304   -2.0662 N   0  0  0  0  0  0  0  0  0  0  0  0
    5.1322   -2.2650    0.1945 N   0  0  0  0  0  0  0  0  0  0  0  0
    3.7928   -2.0419    0.1912 C   0  0  0  0  0  0  0  0  0  0  0  0
    3.3096   -0.8062   -0.0954 N   0  0  0  0  0  0  0  0  0  0  0  0
   -1.0027    1.1102    0.8157 S   0  0  0  0  0  0  0  0  0  0  0  0
   -7.7597   -0.7670    0.7293 C   0  0  0  0  0  0  0  0  0  0  0  0
   -8.0811   -2.0090    0.4447 O   0  0  0  0  0  0  0  0  0  0  0  0
   -8.7438    0.2685    1.1765 C   0  0  0  0  0  0  0  0  0  0  0  0
   -8.3163    0.8410    2.3602 F   0  0  0  0  0  0  0  0  0  0  0  0
   -8.8604    1.2476    0.2076 F   0  0  0  0  0  0  0  0  0  0  0  0
   -9.9813   -0.3143    1.3800 F   0  0  0  0  0  0  0  0  0  0  0  0
   -7.9041   -4.5836   -0.0317 H   0  0  0  0  0  0  0  0  0  0  0  0
   -6.1014   -4.5943    0.0923 H   0  0  0  0  0  0  0  0  0  0  0  0
   -6.8993   -4.1280   -1.4655 H   0  0  0  0  0  0  0  0  0  0  0  0
   -4.8901   -2.0448   -0.2004 H   0  0  0  0  0  0  0  0  0  0  0  0
   -6.2341    1.5319    0.7355 H   0  0  0  0  0  0  0  0  0  0  0  0
   -4.2531    2.8742    0.6319 H   0  0  0  0  0  0  0  0  0  0  0  0
    0.2414    4.4326    0.7572 H   0  0  0  0  0  0  0  0  0  0  0  0
    1.8754    0.9962    1.3504 H   0  0  0  0  0  0  0  0  0  0  0  0
    2.2535    2.7538    1.3276 H   0  0  0  0  0  0  0  0  0  0  0  0
    1.6294    1.0386   -1.1814 H   0  0  0  0  0  0  0  0  0  0  0  0
    2.0102    2.7955   -1.1617 H   0  0  0  0  0  0  0  0  0  0  0  0
    4.2755    2.2940   -0.9570 H   0  0  0  0  0  0  0  0  0  0  0  0
    6.2075    0.8374   -0.5611 H   0  0  0  0  0  0  0  0  0  0  0  0
    7.7500   -2.2965    0.6001 H   0  0  0  0  0  0  0  0  0  0  0  0
   11.2825   -0.0797   -1.8145 H   0  0  0  0  0  0  0  0  0  0  0  0
    7.2094   -0.2387   -2.5446 H   0  0  0  0  0  0  0  0  0  0  0  0
    3.1103   -2.8488    0.4197 H   0  0  0  0  0  0  0  0  0  0  0  0
  1  2  1  0
  2  3  2  0
  3  4  1  0
  4  5  1  0
  5  6  1  0
  6  7  2  0
  6  8  1  0
  8  9  1  0
  9 10  2  0
 10 11  1  0
 11 12  2  0
 12 13  1  0
 13 14  1  0
 14 15  1  0
 15 16  1  0
 16 17  2  0
 17 18  1  0
 18 19  1  0
 19 20  1  0
 20 21  2  0
 21 22  1  0
 22 23  2  0
 23 24  1  0
 18 25  2  0
 25 26  1  0
 26 27  2  0
 12 28  1  0
  4 29  2  0
 29 30  1  0
 29 31  1  0
 31 32  1  0
 31 33  1  0
 31 34  1  0
 30  2  1  0
 28  9  1  0
 27 16  1  0
 24 20  1  0
  1 35  1  0
  1 36  1  0
  1 37  1  0
  3 38  1  0
  5 39  1  0
  8 40  1  0
 11 41  1  0
 13 42  1  0
 13 43  1  0
 14 44  1  0
 14 45  1  0
 15 46  1  0
 17 47  1  0
 19 48  1  0
 22 49  1  0
 24 50  1  0
 26 51  1  0
M  END
$$$$
