
     RDKit          3D

 46 46  0  0  0  0  0  0  0  0999 V2000
    1.6156   -0.0693    0.0603 C   0  0  2  0  0  0  0  0  0  0  0  0
    2.4985   -0.4279    1.2715 C   0  0  0  0  0  0  0  0  0  0  0  0
    3.9536   -0.5370    0.8898 C   0  0  0  0  0  0  0  0  0  0  0  0
    4.5254   -1.7906    0.6134 C   0  0  0  0  0  0  0  0  0  0  0  0
    5.8675   -1.8839    0.2323 C   0  0  0  0  0  0  0  0  0  0  0  0
    6.6456   -0.7285    0.1185 C   0  0  0  0  0  0  0  0  0  0  0  0
    6.0819    0.5227    0.3831 C   0  0  0  0  0  0  0  0  0  0  0  0
    4.7401    0.6206    0.7643 C   0  0  0  0  0  0  0  0  0  0  0  0
    0.2388    0.1866    0.4928 N   0  0  0  0  0  0  0  0  0  0  0  0
   -0.7184    0.8347   -0.3588 C   0  0  0  0  0  0  0  0  0  0  0  0
   -0.3594    1.2975   -1.4765 O   0  0  0  0  0  0  0  0  0  0  0  0
   -2.1647    0.9333    0.0602 C   0  0  2  0  0  0  0  0  0  0  0  0
   -3.0792    0.1262   -0.8864 C   0  0  0  0  0  0  0  0  0  0  0  0
   -2.7325   -1.3808   -0.9823 C   0  0  0  0  0  0  0  0  0  0  0  0
   -3.5945   -2.0455   -2.0634 C   0  0  0  0  0  0  0  0  0  0  0  0
   -2.9285   -2.1051    0.3581 C   0  0  0  0  0  0  0  0  0  0  0  0
   -2.5849    2.3384    0.0704 N   0  0  0  0  0  0  0  0  0  0  0  0
   -3.6653    2.8105    0.8879 C   0  0  0  0  0  0  0  0  0  0  0  0
   -4.0997    4.2369    0.7966 C   0  0  0  0  0  0  0  0  0  0  0  0
   -4.2699    2.0243    1.6666 O   0  0  0  0  0  0  0  0  0  0  0  0
    1.6245   -1.1727   -0.9646 C   0  0  0  0  0  0  0  0  0  0  0  0
    1.1657   -2.2731   -0.6995 O   0  0  0  0  0  0  0  0  0  0  0  0
    2.0233    0.8570   -0.4026 H   0  0  0  0  0  0  0  0  0  0  0  0
    2.3892    0.3622    2.0469 H   0  0  0  0  0  0  0  0  0  0  0  0
    2.1474   -1.3777    1.7329 H   0  0  0  0  0  0  0  0  0  0  0  0
    3.9322   -2.6934    0.6903 H   0  0  0  0  0  0  0  0  0  0  0  0
    6.3038   -2.8519    0.0224 H   0  0  0  0  0  0  0  0  0  0  0  0
    7.6840   -0.8024   -0.1776 H   0  0  0  0  0  0  0  0  0  0  0  0
    6.6841    1.4173    0.2902 H   0  0  0  0  0  0  0  0  0  0  0  0
    4.3130    1.5965    0.9596 H   0  0  0  0  0  0  0  0  0  0  0  0
   -0.0749   -0.1584    1.4286 H   0  0  0  0  0  0  0  0  0  0  0  0
   -2.2639    0.5336    1.0913 H   0  0  0  0  0  0  0  0  0  0  0  0
   -4.1333    0.2346   -0.5480 H   0  0  0  0  0  0  0  0  0  0  0  0
   -3.0172    0.5783   -1.9016 H   0  0  0  0  0  0  0  0  0  0  0  0
   -1.6707   -1.4970   -1.2906 H   0  0  0  0  0  0  0  0  0  0  0  0
   -3.3227   -3.1177   -2.1679 H   0  0  0  0  0  0  0  0  0  0  0  0
   -4.6729   -1.9719   -1.8050 H   0  0  0  0  0  0  0  0  0  0  0  0
   -3.4261   -1.5539   -3.0454 H   0  0  0  0  0  0  0  0  0  0  0  0
   -3.9528   -1.9323    0.7523 H   0  0  0  0  0  0  0  0  0  0  0  0
   -2.7746   -3.1980    0.2314 H   0  0  0  0  0  0  0  0  0  0  0  0
   -2.1861   -1.7558    1.1045 H   0  0  0  0  0  0  0  0  0  0  0  0
   -2.1554    3.0077   -0.6087 H   0  0  0  0  0  0  0  0  0  0  0  0
   -4.5959    4.4099   -0.1809 H   0  0  0  0  0  0  0  0  0  0  0  0
   -3.2160    4.9033    0.8812 H   0  0  0  0  0  0  0  0  0  0  0  0
   -4.8117    4.4815    1.6134 H   0  0  0  0  0  0  0  0  0  0  0  0
    2.0372   -0.9892   -1.9510 H   0  0  0  0  0  0  0  0  0  0  0  0
  1  2  1  0
  2  3  1  0
  3  4  2  0
  4  5  1  0
  5  6  2  0
  6  7  1  0
  7  8  2  0
  1  9  1  0
  9 10  1  0
 10 11  2  0
 10 12  1  0
 12 13  1  0
 13 14  1  0
 14 15  1  0
 14 16  1  0
 12 17  1  0
 17 18  1  0
 18 19  1  0
 18 20  2  0
  1 21  1  0
 21 22  2  0
  8  3  1  0
  1 23  1  6
  2 24  1  0
  2 25  1  0
  4 26  1  0
  5 27  1  0
  6 28  1  0
  7 29  1  0
  8 30  1  0
  9 31  1  0
 12 32  1  1
 13 33  1  0
 13 34  1  0
 14 35  1  0
 15 36  1  0
 15 37  1  0
 15 38  1  0
 16 39  1  0
 16 40  1  0
 16 41  1  0
 17 42  1  0
 19 43  1  0
 19 44  1  0
 19 45  1  0
 21 46  1  0
M  END
$$$$
