
     RDKit          3D

 64 68  0  0  0  0  0  0  0  0999 V2000
    0.1743   -1.8765    0.0437 C   0  0  2  0  0  0  0  0  0  0  0  0
    0.6752   -2.8917    1.0981 C   0  0  0  0  0  0  0  0  0  0  0  0
    1.7501   -3.8797    0.5811 C   0  0  0  0  0  0  0  0  0  0  0  0
    2.2811   -4.7261    1.7455 C   0  0  0  0  0  0  0  0  0  0  0  0
    1.2056   -4.7979   -0.5235 C   0  0  0  0  0  0  0  0  0  0  0  0
    1.3237   -1.0063   -0.5142 C   0  0  0  0  0  0  0  0  0  0  0  0
    0.7812    0.2788   -0.9844 N   0  0  0  0  0  0  0  0  0  0  0  0
    0.3188    1.1080    0.1492 C   0  0  0  0  0  0  0  0  0  0  0  0
   -0.4583    0.2831    1.1955 C   0  0  0  0  0  0  0  0  0  0  0  0
   -0.8623   -1.0100    0.6300 N   0  0  0  0  0  0  0  0  0  0  0  0
   -2.2436   -1.4188    0.6088 C   0  0  0  0  0  0  0  0  0  0  0  0
   -2.5453   -2.6055    0.9078 O   0  0  0  0  0  0  0  0  0  0  0  0
   -3.3141   -0.4925    0.1967 C   0  0  0  0  0  0  0  0  0  0  0  0
   -3.0121    0.6734   -0.4330 N   0  0  0  0  0  0  0  0  0  0  0  0
   -3.9853    1.5267   -0.8415 C   0  0  0  0  0  0  0  0  0  0  0  0
   -5.3352    1.2140   -0.6227 C   0  0  0  0  0  0  0  0  0  0  0  0
   -5.6229    0.0005    0.0202 C   0  0  0  0  0  0  0  0  0  0  0  0
   -4.6154   -0.8230    0.4083 N   0  0  0  0  0  0  0  0  0  0  0  0
   -6.4194    2.1313   -1.0586 C   0  0  0  0  0  0  0  0  0  0  0  0
   -6.3219    2.8308   -2.2742 C   0  0  0  0  0  0  0  0  0  0  0  0
   -7.3535    3.6880   -2.6647 C   0  0  0  0  0  0  0  0  0  0  0  0
   -8.4463    3.8464   -1.8728 N   0  0  0  0  0  0  0  0  0  0  0  0
   -8.5710    3.1856   -0.6922 C   0  0  0  0  0  0  0  0  0  0  0  0
   -7.5638    2.3176   -0.2637 C   0  0  0  0  0  0  0  0  0  0  0  0
    1.9891    1.1416   -1.9034 S   0  0  0  0  0  6  0  0  0  0  0  0
    2.2765    0.3959   -3.1764 O   0  0  0  0  0  0  0  0  0  0  0  0
    1.4731    2.5075   -2.2615 O   0  0  0  0  0  0  0  0  0  0  0  0
    3.4811    1.3123   -0.9902 C   0  0  0  0  0  0  0  0  0  0  0  0
    4.4953    0.3617   -0.9398 C   0  0  0  0  0  0  0  0  0  0  0  0
    5.4347    0.8979   -0.0868 C   0  0  0  0  0  0  0  0  0  0  0  0
    6.6561    0.3902    0.3499 C   0  0  0  0  0  0  0  0  0  0  0  0
    7.4107    1.1734    1.2444 C   0  0  0  0  0  0  0  0  0  0  0  0
    8.9563    0.5850    1.8276 Cl  0  0  0  0  0  0  0  0  0  0  0  0
    6.9276    2.4307    1.6756 C   0  0  0  0  0  0  0  0  0  0  0  0
    5.6882    2.9142    1.2172 C   0  0  0  0  0  0  0  0  0  0  0  0
    4.9657    2.1167    0.3316 C   0  0  0  0  0  0  0  0  0  0  0  0
    3.7684    2.3832   -0.2154 N   0  0  0  0  0  0  0  0  0  0  0  0
   -0.2802   -2.4222   -0.8118 H   0  0  0  0  0  0  0  0  0  0  0  0
    1.0906   -2.3232    1.9595 H   0  0  0  0  0  0  0  0  0  0  0  0
   -0.1882   -3.4741    1.4850 H   0  0  0  0  0  0  0  0  0  0  0  0
    2.6120   -3.3106    0.1707 H   0  0  0  0  0  0  0  0  0  0  0  0
    1.4647   -5.3324    2.1939 H   0  0  0  0  0  0  0  0  0  0  0  0
    2.7144   -4.0705    2.5309 H   0  0  0  0  0  0  0  0  0  0  0  0
    3.0826   -5.4092    1.3915 H   0  0  0  0  0  0  0  0  0  0  0  0
    1.9626   -5.5642   -0.7956 H   0  0  0  0  0  0  0  0  0  0  0  0
    0.2813   -5.3140   -0.1859 H   0  0  0  0  0  0  0  0  0  0  0  0
    0.9848   -4.2169   -1.4422 H   0  0  0  0  0  0  0  0  0  0  0  0
    2.0963   -0.8297    0.2691 H   0  0  0  0  0  0  0  0  0  0  0  0
    1.8046   -1.5513   -1.3563 H   0  0  0  0  0  0  0  0  0  0  0  0
   -0.3495    1.9033   -0.2455 H   0  0  0  0  0  0  0  0  0  0  0  0
    1.1740    1.6064    0.6573 H   0  0  0  0  0  0  0  0  0  0  0  0
    0.2006    0.0928    2.0705 H   0  0  0  0  0  0  0  0  0  0  0  0
   -1.3302    0.8577    1.5754 H   0  0  0  0  0  0  0  0  0  0  0  0
   -3.7010    2.4543   -1.3206 H   0  0  0  0  0  0  0  0  0  0  0  0
   -6.6460   -0.3045    0.1960 H   0  0  0  0  0  0  0  0  0  0  0  0
   -5.4667    2.7030   -2.9256 H   0  0  0  0  0  0  0  0  0  0  0  0
   -7.2862    4.2256   -3.6011 H   0  0  0  0  0  0  0  0  0  0  0  0
   -9.4520    3.3365   -0.0827 H   0  0  0  0  0  0  0  0  0  0  0  0
   -7.6714    1.8127    0.6879 H   0  0  0  0  0  0  0  0  0  0  0  0
    4.5308   -0.5943   -1.4456 H   0  0  0  0  0  0  0  0  0  0  0  0
    7.0109   -0.5754    0.0124 H   0  0  0  0  0  0  0  0  0  0  0  0
    7.5113    3.0281    2.3641 H   0  0  0  0  0  0  0  0  0  0  0  0
    5.3090    3.8740    1.5436 H   0  0  0  0  0  0  0  0  0  0  0  0
    3.1788    3.2320   -0.0649 H   0  0  0  0  0  0  0  0  0  0  0  0
  1  2  1  0
  2  3  1  0
  3  4  1  0
  3  5  1  0
  1  6  1  0
  6  7  1  0
  7  8  1  0
  8  9  1  0
  9 10  1  0
 10 11  1  0
 11 12  2  0
 11 13  1  0
 13 14  2  0
 14 15  1  0
 15 16  2  0
 16 17  1  0
 17 18  2  0
 16 19  1  0
 19 20  2  0
 20 21  1  0
 21 22  2  0
 22 23  1  0
 23 24  2  0
  7 25  1  0
 25 26  2  0
 25 27  2  0
 25 28  1  0
 28 29  2  0
 29 30  1  0
 30 31  2  0
 31 32  1  0
 32 33  1  0
 32 34  2  0
 34 35  1  0
 35 36  2  0
 36 37  1  0
 10  1  1  0
 18 13  1  0
 24 19  1  0
 37 28  1  0
 36 30  1  0
  1 38  1  6
  2 39  1  0
  2 40  1  0
  3 41  1  0
  4 42  1  0
  4 43  1  0
  4 44  1  0
  5 45  1  0
  5 46  1  0
  5 47  1  0
  6 48  1  0
  6 49  1  0
  8 50  1  0
  8 51  1  0
  9 52  1  0
  9 53  1  0
 15 54  1  0
 17 55  1  0
 20 56  1  0
 21 57  1  0
 23 58  1  0
 24 59  1  0
 29 60  1  0
 31 61  1  0
 34 62  1  0
 35 63  1  0
 37 64  1  0
M  END
$$$$
