
     RDKit          3D

 61 64  0  0  0  0  0  0  0  0999 V2000
   -5.6268    3.9173   -3.1043 C   0  0  0  0  0  0  0  0  0  0  0  0
   -5.7147    2.4672   -2.6286 C   0  0  0  0  0  0  0  0  0  0  0  0
   -4.4552    1.9924   -1.9418 C   0  0  0  0  0  0  0  0  0  0  0  0
   -3.3976    2.6740   -2.0465 O   0  0  0  0  0  0  0  0  0  0  0  0
   -4.4259    0.7188   -1.1712 C   0  0  0  0  0  0  0  0  0  0  0  0
   -5.4943   -0.1959   -1.2311 C   0  0  0  0  0  0  0  0  0  0  0  0
   -5.4524   -1.3840   -0.5006 C   0  0  0  0  0  0  0  0  0  0  0  0
   -4.3475   -1.6776    0.2997 C   0  0  0  0  0  0  0  0  0  0  0  0
   -4.3757   -3.1243    1.3577 S   0  0  0  0  0  0  0  0  0  0  0  0
   -2.6954   -3.5940    0.9476 C   0  0  0  0  0  0  0  0  0  0  0  0
   -1.6788   -2.6199    0.9724 C   0  0  0  0  0  0  0  0  0  0  0  0
   -0.3405   -3.0296    0.8226 C   0  0  0  0  0  0  0  0  0  0  0  0
   -0.0341   -4.3773    0.6104 C   0  0  0  0  0  0  0  0  0  0  0  0
   -1.0556   -5.3274    0.5402 C   0  0  0  0  0  0  0  0  0  0  0  0
   -2.3856   -4.9374    0.7111 C   0  0  0  0  0  0  0  0  0  0  0  0
   -2.0378   -1.2181    1.0251 N   0  0  0  0  0  0  0  0  0  0  0  0
   -1.2240   -0.2649    1.7972 C   0  0  0  0  0  0  0  0  0  0  0  0
   -0.1362    0.4012    0.9293 C   0  0  0  0  0  0  0  0  0  0  0  0
    1.1810    0.5699    1.6994 C   0  0  0  0  0  0  0  0  0  0  0  0
    2.1934    1.2312    0.8492 N   0  0  0  0  0  0  0  0  0  0  0  0
    3.1311    2.0319    1.6697 C   0  0  0  0  0  0  0  0  0  0  0  0
    4.4367    2.2975    0.9144 C   0  0  0  0  0  0  0  0  0  0  0  0
    5.1673    1.0361    0.6544 N   0  0  0  0  0  0  0  0  0  0  0  0
    6.1395    1.2070   -0.4464 C   0  0  0  0  0  0  0  0  0  0  0  0
    7.3396    0.2718   -0.2658 C   0  0  0  0  0  0  0  0  0  0  0  0
    8.0241    0.5734    0.9203 O   0  0  0  0  0  0  0  0  0  0  0  0
    4.2714   -0.1317    0.4442 C   0  0  0  0  0  0  0  0  0  0  0  0
    2.8769    0.2761   -0.0630 C   0  0  0  0  0  0  0  0  0  0  0  0
   -3.2487   -0.8016    0.3483 C   0  0  0  0  0  0  0  0  0  0  0  0
   -3.3025    0.3981   -0.3836 C   0  0  0  0  0  0  0  0  0  0  0  0
   -6.5905    4.2145   -3.5689 H   0  0  0  0  0  0  0  0  0  0  0  0
   -5.4236    4.5929   -2.2460 H   0  0  0  0  0  0  0  0  0  0  0  0
   -4.8218    4.0283   -3.8619 H   0  0  0  0  0  0  0  0  0  0  0  0
   -5.9174    1.8141   -3.5042 H   0  0  0  0  0  0  0  0  0  0  0  0
   -6.5688    2.3883   -1.9220 H   0  0  0  0  0  0  0  0  0  0  0  0
   -6.3667   -0.0008   -1.8398 H   0  0  0  0  0  0  0  0  0  0  0  0
   -6.2944   -2.0638   -0.5362 H   0  0  0  0  0  0  0  0  0  0  0  0
    0.4676   -2.3149    0.8390 H   0  0  0  0  0  0  0  0  0  0  0  0
    0.9967   -4.6832    0.4853 H   0  0  0  0  0  0  0  0  0  0  0  0
   -0.8148   -6.3687    0.3696 H   0  0  0  0  0  0  0  0  0  0  0  0
   -3.1698   -5.6837    0.6937 H   0  0  0  0  0  0  0  0  0  0  0  0
   -0.7701   -0.7999    2.6610 H   0  0  0  0  0  0  0  0  0  0  0  0
   -1.8787    0.5205    2.2347 H   0  0  0  0  0  0  0  0  0  0  0  0
   -0.4782    1.4111    0.6187 H   0  0  0  0  0  0  0  0  0  0  0  0
    0.0323   -0.1858    0.0027 H   0  0  0  0  0  0  0  0  0  0  0  0
    1.5544   -0.4146    2.0621 H   0  0  0  0  0  0  0  0  0  0  0  0
    0.9578    1.1909    2.5977 H   0  0  0  0  0  0  0  0  0  0  0  0
    3.3764    1.5116    2.6245 H   0  0  0  0  0  0  0  0  0  0  0  0
    2.6538    3.0042    1.9185 H   0  0  0  0  0  0  0  0  0  0  0  0
    5.0781    2.9670    1.5272 H   0  0  0  0  0  0  0  0  0  0  0  0
    4.1932    2.8254   -0.0367 H   0  0  0  0  0  0  0  0  0  0  0  0
    5.6586    1.0214   -1.4334 H   0  0  0  0  0  0  0  0  0  0  0  0
    6.5369    2.2478   -0.4658 H   0  0  0  0  0  0  0  0  0  0  0  0
    8.0352    0.4181   -1.1190 H   0  0  0  0  0  0  0  0  0  0  0  0
    7.0247   -0.7955   -0.2777 H   0  0  0  0  0  0  0  0  0  0  0  0
    7.5324    0.1231    1.6559 H   0  0  0  0  0  0  0  0  0  0  0  0
    4.1546   -0.6633    1.4128 H   0  0  0  0  0  0  0  0  0  0  0  0
    4.7063   -0.8699   -0.2646 H   0  0  0  0  0  0  0  0  0  0  0  0
    2.9885    0.7588   -1.0574 H   0  0  0  0  0  0  0  0  0  0  0  0
    2.2769   -0.6449   -0.2307 H   0  0  0  0  0  0  0  0  0  0  0  0
   -2.4613    1.0706   -0.3689 H   0  0  0  0  0  0  0  0  0  0  0  0
  1  2  1  0
  2  3  1  0
  3  4  2  0
  3  5  1  0
  5  6  2  0
  6  7  1  0
  7  8  2  0
  8  9  1  0
  9 10  1  0
 10 11  2  0
 11 12  1  0
 12 13  2  0
 13 14  1  0
 14 15  2  0
 11 16  1  0
 16 17  1  0
 17 18  1  0
 18 19  1  0
 19 20  1  0
 20 21  1  0
 21 22  1  0
 22 23  1  0
 23 24  1  0
 24 25  1  0
 25 26  1  0
 23 27  1  0
 27 28  1  0
 16 29  1  0
 29 30  2  0
 30  5  1  0
 29  8  1  0
 15 10  1  0
 28 20  1  0
  1 31  1  0
  1 32  1  0
  1 33  1  0
  2 34  1  0
  2 35  1  0
  6 36  1  0
  7 37  1  0
 12 38  1  0
 13 39  1  0
 14 40  1  0
 15 41  1  0
 17 42  1  0
 17 43  1  0
 18 44  1  0
 18 45  1  0
 19 46  1  0
 19 47  1  0
 21 48  1  0
 21 49  1  0
 22 50  1  0
 22 51  1  0
 24 52  1  0
 24 53  1  0
 25 54  1  0
 25 55  1  0
 26 56  1  0
 27 57  1  0
 27 58  1  0
 28 59  1  0
 28 60  1  0
 30 61  1  0
M  END
$$$$
