
     RDKit          3D

 52 55  0  0  0  0  0  0  0  0999 V2000
   -4.2181   -2.8174    0.6358 C   0  0  0  0  0  0  0  0  0  0  0  0
   -5.1098   -1.6061    0.6572 C   0  0  0  0  0  0  0  0  0  0  0  0
   -6.3920   -1.6872    1.2249 C   0  0  0  0  0  0  0  0  0  0  0  0
   -7.2279   -0.5685    1.2500 C   0  0  0  0  0  0  0  0  0  0  0  0
   -6.7979    0.6454    0.7106 C   0  0  0  0  0  0  0  0  0  0  0  0
   -5.5189    0.7477    0.1371 C   0  0  0  0  0  0  0  0  0  0  0  0
   -4.6734   -0.3829    0.1094 C   0  0  0  0  0  0  0  0  0  0  0  0
   -3.4374   -0.2793   -0.4467 N   0  0  0  0  0  0  0  0  0  0  0  0
   -2.9962    0.8870   -0.9859 C   0  0  0  0  0  0  0  0  0  0  0  0
   -1.6087    0.9603   -1.5517 C   0  0  0  0  0  0  0  0  0  0  0  0
   -0.6207    1.4409   -0.4838 C   0  0  0  0  0  0  0  0  0  0  0  0
    0.8129    1.4823   -1.0335 C   0  0  0  0  0  0  0  0  0  0  0  0
    1.7337    2.1900   -0.1115 N   0  0  0  0  0  0  0  0  0  0  0  0
    1.9850    1.4807    1.1618 C   0  0  0  0  0  0  0  0  0  0  0  0
    2.7275    0.1518    0.9533 C   0  0  0  0  0  0  0  0  0  0  0  0
    3.8566    0.2615   -0.0497 C   0  0  0  0  0  0  0  0  0  0  0  0
    3.9198    1.3058   -0.8965 C   0  0  0  0  0  0  0  0  0  0  0  0
    3.0187    2.5071   -0.7664 C   0  0  0  0  0  0  0  0  0  0  0  0
    4.8492   -0.8440   -0.1498 C   0  0  0  0  0  0  0  0  0  0  0  0
    4.4506   -2.1834    0.0256 C   0  0  0  0  0  0  0  0  0  0  0  0
    5.3861   -3.2193   -0.0576 C   0  0  0  0  0  0  0  0  0  0  0  0
    6.7296   -2.9331   -0.3096 C   0  0  0  0  0  0  0  0  0  0  0  0
    7.6345   -3.9396   -0.3884 F   0  0  0  0  0  0  0  0  0  0  0  0
    7.1408   -1.6090   -0.4763 C   0  0  0  0  0  0  0  0  0  0  0  0
    6.2097   -0.5692   -0.3951 C   0  0  0  0  0  0  0  0  0  0  0  0
   -3.7914    1.9932   -0.9571 N   0  0  0  0  0  0  0  0  0  0  0  0
   -5.0388    1.9483   -0.4144 C   0  0  0  0  0  0  0  0  0  0  0  0
   -5.7518    2.9891   -0.4098 O   0  0  0  0  0  0  0  0  0  0  0  0
   -3.2770   -2.5989    1.1833 H   0  0  0  0  0  0  0  0  0  0  0  0
   -4.7048   -3.6935    1.1147 H   0  0  0  0  0  0  0  0  0  0  0  0
   -3.9748   -3.0836   -0.4144 H   0  0  0  0  0  0  0  0  0  0  0  0
   -6.7476   -2.6176    1.6501 H   0  0  0  0  0  0  0  0  0  0  0  0
   -8.2139   -0.6428    1.6905 H   0  0  0  0  0  0  0  0  0  0  0  0
   -7.4643    1.4986    0.7435 H   0  0  0  0  0  0  0  0  0  0  0  0
   -1.5995    1.6552   -2.4196 H   0  0  0  0  0  0  0  0  0  0  0  0
   -1.3060   -0.0456   -1.9170 H   0  0  0  0  0  0  0  0  0  0  0  0
   -0.9125    2.4583   -0.1414 H   0  0  0  0  0  0  0  0  0  0  0  0
   -0.6715    0.7436    0.3793 H   0  0  0  0  0  0  0  0  0  0  0  0
    0.7800    2.0280   -2.0031 H   0  0  0  0  0  0  0  0  0  0  0  0
    1.1658    0.4524   -1.2554 H   0  0  0  0  0  0  0  0  0  0  0  0
    2.5990    2.1318    1.8233 H   0  0  0  0  0  0  0  0  0  0  0  0
    1.0393    1.3054    1.7138 H   0  0  0  0  0  0  0  0  0  0  0  0
    3.1344   -0.1880    1.9302 H   0  0  0  0  0  0  0  0  0  0  0  0
    2.0022   -0.6151    0.6099 H   0  0  0  0  0  0  0  0  0  0  0  0
    4.6930    1.3491   -1.6537 H   0  0  0  0  0  0  0  0  0  0  0  0
    3.5505    3.2768   -0.1665 H   0  0  0  0  0  0  0  0  0  0  0  0
    2.8526    2.9571   -1.7694 H   0  0  0  0  0  0  0  0  0  0  0  0
    3.4153   -2.4357    0.2119 H   0  0  0  0  0  0  0  0  0  0  0  0
    5.0671   -4.2454    0.0725 H   0  0  0  0  0  0  0  0  0  0  0  0
    8.1833   -1.3858   -0.6634 H   0  0  0  0  0  0  0  0  0  0  0  0
    6.5576    0.4501   -0.5045 H   0  0  0  0  0  0  0  0  0  0  0  0
   -3.4398    2.8935   -1.3564 H   0  0  0  0  0  0  0  0  0  0  0  0
  1  2  1  0
  2  3  2  0
  3  4  1  0
  4  5  2  0
  5  6  1  0
  6  7  2  0
  7  8  1  0
  8  9  2  0
  9 10  1  0
 10 11  1  0
 11 12  1  0
 12 13  1  0
 13 14  1  0
 14 15  1  0
 15 16  1  0
 16 17  2  0
 17 18  1  0
 16 19  1  0
 19 20  2  0
 20 21  1  0
 21 22  2  0
 22 23  1  0
 22 24  1  0
 24 25  2  0
  9 26  1  0
 26 27  1  0
 27 28  2  0
  7  2  1  0
 18 13  1  0
 25 19  1  0
 27  6  1  0
  1 29  1  0
  1 30  1  0
  1 31  1  0
  3 32  1  0
  4 33  1  0
  5 34  1  0
 10 35  1  0
 10 36  1  0
 11 37  1  0
 11 38  1  0
 12 39  1  0
 12 40  1  0
 14 41  1  0
 14 42  1  0
 15 43  1  0
 15 44  1  0
 17 45  1  0
 18 46  1  0
 18 47  1  0
 20 48  1  0
 21 49  1  0
 24 50  1  0
 25 51  1  0
 26 52  1  0
M  END
$$$$
