
     RDKit          3D

 37 40  0  0  0  0  0  0  0  0999 V2000
   -3.2325    0.0126    2.1411 O   0  0  0  0  0  0  0  0  0  0  0  0
   -2.1126   -0.5782    1.5632 C   0  0  0  0  0  0  0  0  0  0  0  0
   -1.0715   -0.7410    2.2547 O   0  0  0  0  0  0  0  0  0  0  0  0
   -2.1414   -0.9991    0.1413 C   0  0  0  0  0  0  0  0  0  0  0  0
   -3.2474   -1.7191   -0.3626 C   0  0  0  0  0  0  0  0  0  0  0  0
   -4.5708   -2.2053    0.7055 Cl  0  0  0  0  0  0  0  0  0  0  0  0
   -3.2843   -2.1028   -1.7149 C   0  0  0  0  0  0  0  0  0  0  0  0
   -4.6667   -3.0078   -2.3394 Cl  0  0  0  0  0  0  0  0  0  0  0  0
   -2.2228   -1.7728   -2.5720 C   0  0  0  0  0  0  0  0  0  0  0  0
   -2.2775   -2.2543   -4.2701 Cl  0  0  0  0  0  0  0  0  0  0  0  0
   -1.1180   -1.0603   -2.0811 C   0  0  0  0  0  0  0  0  0  0  0  0
    0.2054   -0.6324   -3.1733 Cl  0  0  0  0  0  0  0  0  0  0  0  0
   -1.0695   -0.6750   -0.7268 C   0  0  0  0  0  0  0  0  0  0  0  0
    0.0919    0.1189   -0.2382 C   0  0  0  0  0  0  0  0  0  0  0  0
    0.0072    1.5212   -0.1512 C   0  0  0  0  0  0  0  0  0  0  0  0
   -1.1349    2.2545   -0.5095 C   0  0  0  0  0  0  0  0  0  0  0  0
   -1.1468    3.6478   -0.3926 C   0  0  0  0  0  0  0  0  0  0  0  0
   -2.9045    4.6904   -0.9439 I   0  0  0  0  0  0  0  0  0  0  0  0
   -0.0204    4.3421    0.0795 C   0  0  0  0  0  0  0  0  0  0  0  0
   -0.0576    5.5979    0.1756 O   0  0  0  0  0  0  0  0  0  0  0  0
    1.1458    3.6516    0.4443 C   0  0  0  0  0  0  0  0  0  0  0  0
    2.8414    4.7133    1.1525 I   0  0  0  0  0  0  0  0  0  0  0  0
    1.1923    2.2580    0.3407 C   0  0  0  0  0  0  0  0  0  0  0  0
    2.2871    1.5946    0.6780 O   0  0  0  0  0  0  0  0  0  0  0  0
    2.3858    0.2718    0.6010 C   0  0  0  0  0  0  0  0  0  0  0  0
    3.5880   -0.3423    0.9824 C   0  0  0  0  0  0  0  0  0  0  0  0
    5.2094    0.8477    1.6615 I   0  0  0  0  0  0  0  0  0  0  0  0
    3.7263   -1.7361    0.9199 C   0  0  0  0  0  0  0  0  0  0  0  0
    4.9381   -2.3110    1.3071 O   0  0  0  0  0  0  0  0  0  0  0  0
    2.6494   -2.5237    0.4725 C   0  0  0  0  0  0  0  0  0  0  0  0
    2.7576   -4.6370    0.3462 I   0  0  0  0  0  0  0  0  0  0  0  0
    1.4503   -1.9161    0.0913 C   0  0  0  0  0  0  0  0  0  0  0  0
    1.2988   -0.5166    0.1438 C   0  0  0  0  0  0  0  0  0  0  0  0
   -3.2224    0.3092    3.1096 H   0  0  0  0  0  0  0  0  0  0  0  0
   -2.0222    1.7582   -0.8801 H   0  0  0  0  0  0  0  0  0  0  0  0
    5.1081   -3.3076    1.2877 H   0  0  0  0  0  0  0  0  0  0  0  0
    0.6408   -2.5511   -0.2438 H   0  0  0  0  0  0  0  0  0  0  0  0
  1  2  1  0
  2  3  2  0
  2  4  1  0
  4  5  2  0
  5  6  1  0
  5  7  1  0
  7  8  1  0
  7  9  2  0
  9 10  1  0
  9 11  1  0
 11 12  1  0
 11 13  2  0
 13 14  1  0
 14 15  2  0
 15 16  1  0
 16 17  2  0
 17 18  1  0
 17 19  1  0
 19 20  2  0
 19 21  1  0
 21 22  1  0
 21 23  2  0
 23 24  1  0
 24 25  1  0
 25 26  2  0
 26 27  1  0
 26 28  1  0
 28 29  1  0
 28 30  2  0
 30 31  1  0
 30 32  1  0
 32 33  2  0
 13  4  1  0
 33 14  1  0
 23 15  1  0
 33 25  1  0
  1 34  1  0
 16 35  1  0
 29 36  1  0
 32 37  1  0
M  END
$$$$
