
     RDKit          3D

 61 64  0  0  0  0  0  0  0  0999 V2000
   -3.6904    2.6277    0.7276 C   0  0  2  0  0  0  0  0  0  0  0  0
   -2.9449    3.1690   -0.5113 C   0  0  0  0  0  0  0  0  0  0  0  0
   -3.7763    3.0356   -1.7864 C   0  0  0  0  0  0  0  0  0  0  0  0
   -2.8644    2.8026    2.0156 C   0  0  0  0  0  0  0  0  0  0  0  0
   -2.7067    4.1621    2.3225 O   0  0  0  0  0  0  0  0  0  0  0  0
   -4.0963    1.2250    0.5533 N   0  0  0  0  0  0  0  0  0  0  0  0
   -3.1991    0.1192    0.3672 C   0  0  0  0  0  0  0  0  0  0  0  0
   -3.7118   -1.1378    0.1970 N   0  0  0  0  0  0  0  0  0  0  0  0
   -2.8470   -2.1658    0.0202 C   0  0  0  0  0  0  0  0  0  0  0  0
   -1.5058   -1.9942    0.0055 C   0  0  0  0  0  0  0  0  0  0  0  0
   -0.8810   -3.1705   -0.1882 N   0  0  0  0  0  0  0  0  0  0  0  0
   -1.9170   -4.0484   -0.2877 C   0  0  0  0  0  0  0  0  0  0  0  0
   -3.1367   -3.4626   -0.1641 N   0  0  0  0  0  0  0  0  0  0  0  0
   -4.4443   -4.1264   -0.2259 C   0  0  0  0  0  0  0  0  0  0  0  0
   -5.1964   -3.9636    1.0982 C   0  0  0  0  0  0  0  0  0  0  0  0
   -5.2660   -3.5932   -1.4032 C   0  0  0  0  0  0  0  0  0  0  0  0
   -0.9656   -0.7251    0.1765 C   0  0  0  0  0  0  0  0  0  0  0  0
    0.4503   -0.5020    0.1651 N   0  0  0  0  0  0  0  0  0  0  0  0
    1.0074    0.8385    0.3417 C   0  0  0  0  0  0  0  0  0  0  0  0
    2.5103    0.7999    0.2844 C   0  0  0  0  0  0  0  0  0  0  0  0
    3.2566    0.5720    1.4490 C   0  0  0  0  0  0  0  0  0  0  0  0
    4.6514    0.4983    1.3918 C   0  0  0  0  0  0  0  0  0  0  0  0
    5.3261    0.6459    0.1644 C   0  0  0  0  0  0  0  0  0  0  0  0
    4.5684    0.8455   -1.0040 C   0  0  0  0  0  0  0  0  0  0  0  0
    3.1740    0.9199   -0.9445 C   0  0  0  0  0  0  0  0  0  0  0  0
    6.8070    0.5624    0.0800 C   0  0  0  0  0  0  0  0  0  0  0  0
    7.6324    0.9422    1.1551 C   0  0  0  0  0  0  0  0  0  0  0  0
    9.0197    0.8492    1.0245 C   0  0  0  0  0  0  0  0  0  0  0  0
    9.5775    0.3875   -0.1675 C   0  0  0  0  0  0  0  0  0  0  0  0
    8.7347    0.0286   -1.2196 C   0  0  0  0  0  0  0  0  0  0  0  0
    7.3863    0.1247   -1.0748 N   0  0  0  0  0  0  0  0  0  0  0  0
   -1.8398    0.3103    0.3552 N   0  0  0  0  0  0  0  0  0  0  0  0
   -4.6167    3.2339    0.8492 H   0  0  0  0  0  0  0  0  0  0  0  0
   -2.7199    4.2468   -0.3577 H   0  0  0  0  0  0  0  0  0  0  0  0
   -1.9755    2.6480   -0.6531 H   0  0  0  0  0  0  0  0  0  0  0  0
   -3.9541    1.9659   -2.0259 H   0  0  0  0  0  0  0  0  0  0  0  0
   -4.7517    3.5535   -1.6679 H   0  0  0  0  0  0  0  0  0  0  0  0
   -3.2298    3.4980   -2.6352 H   0  0  0  0  0  0  0  0  0  0  0  0
   -3.3657    2.2777    2.8610 H   0  0  0  0  0  0  0  0  0  0  0  0
   -1.8565    2.3552    1.8969 H   0  0  0  0  0  0  0  0  0  0  0  0
   -3.5685    4.4694    2.7079 H   0  0  0  0  0  0  0  0  0  0  0  0
   -5.1208    1.0173    0.5588 H   0  0  0  0  0  0  0  0  0  0  0  0
   -1.7765   -5.1093   -0.4502 H   0  0  0  0  0  0  0  0  0  0  0  0
   -4.2892   -5.2162   -0.3915 H   0  0  0  0  0  0  0  0  0  0  0  0
   -6.1394   -4.5504    1.0747 H   0  0  0  0  0  0  0  0  0  0  0  0
   -4.5705   -4.3392    1.9353 H   0  0  0  0  0  0  0  0  0  0  0  0
   -5.4457   -2.8984    1.2871 H   0  0  0  0  0  0  0  0  0  0  0  0
   -4.6898   -3.7057   -2.3460 H   0  0  0  0  0  0  0  0  0  0  0  0
   -5.5162   -2.5208   -1.2619 H   0  0  0  0  0  0  0  0  0  0  0  0
   -6.2112   -4.1689   -1.4991 H   0  0  0  0  0  0  0  0  0  0  0  0
    1.0907   -1.3175    0.0263 H   0  0  0  0  0  0  0  0  0  0  0  0
    0.6158    1.5096   -0.4539 H   0  0  0  0  0  0  0  0  0  0  0  0
    0.6766    1.2505    1.3202 H   0  0  0  0  0  0  0  0  0  0  0  0
    2.7576    0.4437    2.4017 H   0  0  0  0  0  0  0  0  0  0  0  0
    5.1937    0.2980    2.3061 H   0  0  0  0  0  0  0  0  0  0  0  0
    5.0551    0.9534   -1.9654 H   0  0  0  0  0  0  0  0  0  0  0  0
    2.6116    1.0707   -1.8577 H   0  0  0  0  0  0  0  0  0  0  0  0
    7.2184    1.3292    2.0765 H   0  0  0  0  0  0  0  0  0  0  0  0
    9.6621    1.1414    1.8452 H   0  0  0  0  0  0  0  0  0  0  0  0
   10.6518    0.3142   -0.2770 H   0  0  0  0  0  0  0  0  0  0  0  0
    9.1517   -0.3262   -2.1526 H   0  0  0  0  0  0  0  0  0  0  0  0
  1  2  1  0
  2  3  1  0
  1  4  1  0
  4  5  1  0
  1  6  1  0
  6  7  1  0
  7  8  2  0
  8  9  1  0
  9 10  2  0
 10 11  1  0
 11 12  2  0
 12 13  1  0
 13 14  1  0
 14 15  1  0
 14 16  1  0
 10 17  1  0
 17 18  1  0
 18 19  1  0
 19 20  1  0
 20 21  2  0
 21 22  1  0
 22 23  2  0
 23 24  1  0
 24 25  2  0
 23 26  1  0
 26 27  2  0
 27 28  1  0
 28 29  2  0
 29 30  1  0
 30 31  2  0
 17 32  2  0
 32  7  1  0
 13  9  1  0
 25 20  1  0
 31 26  1  0
  1 33  1  1
  2 34  1  0
  2 35  1  0
  3 36  1  0
  3 37  1  0
  3 38  1  0
  4 39  1  0
  4 40  1  0
  5 41  1  0
  6 42  1  0
 12 43  1  0
 14 44  1  0
 15 45  1  0
 15 46  1  0
 15 47  1  0
 16 48  1  0
 16 49  1  0
 16 50  1  0
 18 51  1  0
 19 52  1  0
 19 53  1  0
 21 54  1  0
 22 55  1  0
 24 56  1  0
 25 57  1  0
 27 58  1  0
 28 59  1  0
 29 60  1  0
 30 61  1  0
M  END
$$$$
