
     RDKit          3D

 52 54  0  0  0  0  0  0  0  0999 V2000
    0.4416    0.8602    1.5096 C   0  0  0  0  0  0  0  0  0  0  0  0
    1.5239    0.1445    0.7375 C   0  0  0  0  0  0  0  0  0  0  0  0
    2.5232    0.9236    0.1351 C   0  0  0  0  0  0  0  0  0  0  0  0
    3.5437    0.3411   -0.6116 C   0  0  0  0  0  0  0  0  0  0  0  0
    4.5135    1.1823   -1.1785 O   0  0  0  0  0  0  0  0  0  0  0  0
    5.6122    0.7339   -1.9666 C   0  0  0  0  0  0  0  0  0  0  0  0
    6.4236    1.9112   -2.3907 C   0  0  0  0  0  0  0  0  0  0  0  0
    7.4798    2.3471   -1.5971 O   0  0  0  0  0  0  0  0  0  0  0  0
    6.1255    2.5368   -3.4429 O   0  0  0  0  0  0  0  0  0  0  0  0
    3.5691   -1.0509   -0.7703 C   0  0  0  0  0  0  0  0  0  0  0  0
    2.5753   -1.8625   -0.1993 C   0  0  0  0  0  0  0  0  0  0  0  0
    2.6766   -3.3555   -0.3984 C   0  0  0  0  0  0  0  0  0  0  0  0
    1.5273   -1.2687    0.5604 C   0  0  0  0  0  0  0  0  0  0  0  0
    0.4172   -2.1227    1.1635 C   0  0  0  0  0  0  0  0  0  0  0  0
   -0.9041   -1.8872    0.4737 C   0  0  0  0  0  0  0  0  0  0  0  0
   -1.0436   -2.1276   -0.9016 C   0  0  0  0  0  0  0  0  0  0  0  0
   -2.2587   -1.8780   -1.5419 C   0  0  0  0  0  0  0  0  0  0  0  0
   -3.3522   -1.3826   -0.8196 C   0  0  0  0  0  0  0  0  0  0  0  0
   -4.5523   -1.1094   -1.4756 O   0  0  0  0  0  0  0  0  0  0  0  0
   -3.2328   -1.1591    0.5660 C   0  0  0  0  0  0  0  0  0  0  0  0
   -4.3621   -0.5496    1.3572 C   0  0  0  0  0  0  0  0  0  0  0  0
   -4.2337    0.9505    1.3638 C   0  0  0  0  0  0  0  0  0  0  0  0
   -4.9035    1.7258    0.4021 C   0  0  0  0  0  0  0  0  0  0  0  0
   -4.7411    3.1146    0.3796 C   0  0  0  0  0  0  0  0  0  0  0  0
   -3.9036    3.7375    1.3089 C   0  0  0  0  0  0  0  0  0  0  0  0
   -3.2263    2.9728    2.2623 C   0  0  0  0  0  0  0  0  0  0  0  0
   -3.3877    1.5844    2.2902 C   0  0  0  0  0  0  0  0  0  0  0  0
   -2.0098   -1.4237    1.2037 C   0  0  0  0  0  0  0  0  0  0  0  0
   -0.4794    0.9203    0.8941 H   0  0  0  0  0  0  0  0  0  0  0  0
    0.2244    0.3456    2.4668 H   0  0  0  0  0  0  0  0  0  0  0  0
    0.7459    1.8968    1.7683 H   0  0  0  0  0  0  0  0  0  0  0  0
    2.5134    2.0015    0.2455 H   0  0  0  0  0  0  0  0  0  0  0  0
    6.2497    0.0472   -1.3691 H   0  0  0  0  0  0  0  0  0  0  0  0
    5.2390    0.1974   -2.8659 H   0  0  0  0  0  0  0  0  0  0  0  0
    8.0297    3.1555   -1.8623 H   0  0  0  0  0  0  0  0  0  0  0  0
    4.3636   -1.5106   -1.3427 H   0  0  0  0  0  0  0  0  0  0  0  0
    1.7543   -3.7448   -0.8759 H   0  0  0  0  0  0  0  0  0  0  0  0
    2.8323   -3.8546    0.5810 H   0  0  0  0  0  0  0  0  0  0  0  0
    3.5292   -3.6304   -1.0552 H   0  0  0  0  0  0  0  0  0  0  0  0
    0.3463   -1.9076    2.2504 H   0  0  0  0  0  0  0  0  0  0  0  0
    0.6339   -3.2070    1.1171 H   0  0  0  0  0  0  0  0  0  0  0  0
   -0.2079   -2.4928   -1.4832 H   0  0  0  0  0  0  0  0  0  0  0  0
   -2.3457   -2.0572   -2.6060 H   0  0  0  0  0  0  0  0  0  0  0  0
   -4.6593   -1.2589   -2.4720 H   0  0  0  0  0  0  0  0  0  0  0  0
   -4.3461   -0.9327    2.4013 H   0  0  0  0  0  0  0  0  0  0  0  0
   -5.3448   -0.8541    0.9362 H   0  0  0  0  0  0  0  0  0  0  0  0
   -5.5479    1.2563   -0.3303 H   0  0  0  0  0  0  0  0  0  0  0  0
   -5.2612    3.7075   -0.3616 H   0  0  0  0  0  0  0  0  0  0  0  0
   -3.7769    4.8122    1.2880 H   0  0  0  0  0  0  0  0  0  0  0  0
   -2.5730    3.4554    2.9777 H   0  0  0  0  0  0  0  0  0  0  0  0
   -2.8495    1.0039    3.0290 H   0  0  0  0  0  0  0  0  0  0  0  0
   -1.9111   -1.2379    2.2664 H   0  0  0  0  0  0  0  0  0  0  0  0
  1  2  1  0
  2  3  2  0
  3  4  1  0
  4  5  1  0
  5  6  1  0
  6  7  1  0
  7  8  1  0
  7  9  2  0
  4 10  2  0
 10 11  1  0
 11 12  1  0
 11 13  2  0
 13 14  1  0
 14 15  1  0
 15 16  2  0
 16 17  1  0
 17 18  2  0
 18 19  1  0
 18 20  1  0
 20 21  1  0
 21 22  1  0
 22 23  2  0
 23 24  1  0
 24 25  2  0
 25 26  1  0
 26 27  2  0
 20 28  2  0
 13  2  1  0
 28 15  1  0
 27 22  1  0
  1 29  1  0
  1 30  1  0
  1 31  1  0
  3 32  1  0
  6 33  1  0
  6 34  1  0
  8 35  1  0
 10 36  1  0
 12 37  1  0
 12 38  1  0
 12 39  1  0
 14 40  1  0
 14 41  1  0
 16 42  1  0
 17 43  1  0
 19 44  1  0
 21 45  1  0
 21 46  1  0
 23 47  1  0
 24 48  1  0
 25 49  1  0
 26 50  1  0
 27 51  1  0
 28 52  1  0
M  END
$$$$
