
     RDKit          3D

 30 31  0  0  0  0  0  0  0  0999 V2000
    3.9361   -0.5236   -0.1439 C   0  0  0  0  0  0  0  0  0  0  0  0
    2.7150   -0.2404    0.7380 C   0  0  0  0  0  0  0  0  0  0  0  0
    2.2430    1.2081    0.5786 C   0  0  0  0  0  0  0  0  0  0  0  0
    1.5964   -1.2214    0.4536 C   0  0  0  0  0  0  0  0  0  0  0  0
    1.1733   -1.9185    1.3640 O   0  0  0  0  0  0  0  0  0  0  0  0
    1.0188   -1.3986   -0.9286 C   0  0  0  0  0  0  0  0  0  0  0  0
   -0.3998   -1.5369   -0.8711 O   0  0  0  0  0  0  0  0  0  0  0  0
   -1.2694   -0.4692   -0.6265 C   0  0  0  0  0  0  0  0  0  0  0  0
   -0.8150    0.8129   -0.4870 N   0  0  0  0  0  0  0  0  0  0  0  0
   -1.6739    1.8563   -0.2455 C   0  0  0  0  0  0  0  0  0  0  0  0
   -1.1607    3.1784   -0.1026 N   0  0  0  0  0  0  0  0  0  0  0  0
   -3.0203    1.6318   -0.1404 N   0  0  0  0  0  0  0  0  0  0  0  0
   -3.4698    0.3617   -0.2815 C   0  0  0  0  0  0  0  0  0  0  0  0
   -2.6364   -0.6752   -0.5189 C   0  0  0  0  0  0  0  0  0  0  0  0
   -3.3476   -1.8038   -0.6100 N   0  0  0  0  0  0  0  0  0  0  0  0
   -4.6269   -1.3924   -0.4183 C   0  0  0  0  0  0  0  0  0  0  0  0
   -4.7459   -0.0518   -0.2103 N   0  0  0  0  0  0  0  0  0  0  0  0
    4.2632   -1.5777   -0.0152 H   0  0  0  0  0  0  0  0  0  0  0  0
    3.7051   -0.3472   -1.2159 H   0  0  0  0  0  0  0  0  0  0  0  0
    4.7783    0.1389    0.1493 H   0  0  0  0  0  0  0  0  0  0  0  0
    3.0349   -0.3684    1.7968 H   0  0  0  0  0  0  0  0  0  0  0  0
    3.0521    1.9059    0.8825 H   0  0  0  0  0  0  0  0  0  0  0  0
    1.3639    1.3963    1.2311 H   0  0  0  0  0  0  0  0  0  0  0  0
    1.9684    1.4277   -0.4745 H   0  0  0  0  0  0  0  0  0  0  0  0
    1.2940   -0.5604   -1.6029 H   0  0  0  0  0  0  0  0  0  0  0  0
    1.4410   -2.3295   -1.3607 H   0  0  0  0  0  0  0  0  0  0  0  0
   -1.8054    3.9786    0.0823 H   0  0  0  0  0  0  0  0  0  0  0  0
   -0.1352    3.3583   -0.1808 H   0  0  0  0  0  0  0  0  0  0  0  0
   -3.0039   -2.7739   -0.7859 H   0  0  0  0  0  0  0  0  0  0  0  0
   -5.4736   -2.0659   -0.4290 H   0  0  0  0  0  0  0  0  0  0  0  0
  1  2  1  0
  2  3  1  0
  2  4  1  0
  4  5  2  0
  4  6  1  0
  6  7  1  0
  7  8  1  0
  8  9  2  0
  9 10  1  0
 10 11  1  0
 10 12  2  0
 12 13  1  0
 13 14  2  0
 14 15  1  0
 15 16  1  0
 16 17  2  0
 14  8  1  0
 17 13  1  0
  1 18  1  0
  1 19  1  0
  1 20  1  0
  2 21  1  0
  3 22  1  0
  3 23  1  0
  3 24  1  0
  6 25  1  0
  6 26  1  0
 11 27  1  0
 11 28  1  0
 15 29  1  0
 16 30  1  0
M  END
$$$$
