
     RDKit          3D

 79 82  0  0  0  0  0  0  0  0999 V2000
    1.1965   -0.6435   -0.3630 C   0  0  1  0  0  0  0  0  0  0  0  0
    1.1621   -1.0381   -1.8645 C   0  0  0  0  0  0  0  0  0  0  0  0
   -0.3130   -1.1482   -2.2734 C   0  0  0  0  0  0  0  0  0  0  0  0
   -1.0711   -0.6213   -1.0665 C   0  0  1  0  0  0  0  0  0  0  0  0
   -2.5699   -0.9749   -0.9260 C   0  0  2  0  0  0  0  0  0  0  0  0
   -3.3641   -0.6171   -2.2064 C   0  0  2  0  0  0  0  0  0  0  0  0
   -3.1019    0.7052   -2.6028 O   0  0  0  0  0  0  0  0  0  0  0  0
   -4.8789   -0.8440   -2.0207 C   0  0  0  0  0  0  0  0  0  0  0  0
   -5.4718   -0.1740   -0.7562 C   0  0  2  0  0  0  0  0  0  0  0  0
   -5.6280    1.3567   -0.9618 C   0  0  0  0  0  0  0  0  0  0  0  0
   -6.2438    2.0398    0.2650 C   0  0  2  0  0  0  0  0  0  0  0  0
   -6.3063    3.4268    0.0595 O   0  0  0  0  0  0  0  0  0  0  0  0
   -5.3915    1.7571    1.5033 C   0  0  0  0  0  0  0  0  0  0  0  0
   -5.2896    0.2489    1.7467 C   0  0  0  0  0  0  0  0  0  0  0  0
   -4.6780   -0.5463    0.5470 C   0  0  1  0  0  0  0  0  0  0  0  0
   -4.9107   -2.0509    0.8744 C   0  0  0  0  0  0  0  0  0  0  0  0
   -3.1424   -0.2338    0.3303 C   0  0  1  0  0  0  0  0  0  0  0  0
   -2.2587   -0.4620    1.5980 C   0  0  0  0  0  0  0  0  0  0  0  0
   -0.7491   -0.2224    1.3562 C   0  0  0  0  0  0  0  0  0  0  0  0
   -0.2233   -1.0385    0.1493 C   0  0  2  0  0  0  0  0  0  0  0  0
   -0.2897   -2.5690    0.4565 C   0  0  0  0  0  0  0  0  0  0  0  0
    2.4475   -1.2313    0.3778 C   0  0  2  0  0  0  0  0  0  0  0  0
    2.5014   -0.8205    1.8613 C   0  0  0  0  0  0  0  0  0  0  0  0
    3.7874   -0.8694   -0.3243 C   0  0  0  0  0  0  0  0  0  0  0  0
    4.0749    0.6390   -0.4101 C   0  0  0  0  0  0  0  0  0  0  0  0
    5.4378    0.8758   -0.9874 C   0  0  0  0  0  0  0  0  0  0  0  0
    5.5606    1.0951   -2.2232 O   0  0  0  0  0  0  0  0  0  0  0  0
    6.5960    0.8085   -0.1459 N   0  0  0  0  0  0  0  0  0  0  0  0
    7.9415    1.0147   -0.6821 C   0  0  0  0  0  0  0  0  0  0  0  0
    9.0017    0.9915    0.4240 C   0  0  0  0  0  0  0  0  0  0  0  0
    8.9237    2.4481    1.4609 S   0  0  0  0  0  6  0  0  0  0  0  0
    9.0363    3.8359    0.5167 O   0  0  0  0  0  0  0  0  0  0  0  0
   10.0751    2.4220    2.4255 O   0  0  0  0  0  0  0  0  0  0  0  0
    7.6384    2.4685    2.2404 O   0  0  0  0  0  0  0  0  0  0  0  0
    1.2670    0.4666   -0.3113 H   0  0  0  0  0  0  0  0  0  0  0  0
    1.6542   -2.0205   -2.0365 H   0  0  0  0  0  0  0  0  0  0  0  0
    1.6790   -0.2681   -2.4778 H   0  0  0  0  0  0  0  0  0  0  0  0
   -0.5865   -2.2070   -2.4757 H   0  0  0  0  0  0  0  0  0  0  0  0
   -0.5231   -0.5378   -3.1787 H   0  0  0  0  0  0  0  0  0  0  0  0
   -1.0211    0.4927   -1.1538 H   0  0  0  0  0  0  0  0  0  0  0  0
   -2.6538   -2.0698   -0.8042 H   0  0  0  0  0  0  0  0  0  0  0  0
   -3.0249   -1.3061   -3.0155 H   0  0  0  0  0  0  0  0  0  0  0  0
   -3.3884    0.7856   -3.5499 H   0  0  0  0  0  0  0  0  0  0  0  0
   -5.4188   -0.4851   -2.9242 H   0  0  0  0  0  0  0  0  0  0  0  0
   -5.0694   -1.9374   -1.9756 H   0  0  0  0  0  0  0  0  0  0  0  0
   -6.5084   -0.5691   -0.6517 H   0  0  0  0  0  0  0  0  0  0  0  0
   -6.2872    1.5407   -1.8384 H   0  0  0  0  0  0  0  0  0  0  0  0
   -4.6562    1.8423   -1.1741 H   0  0  0  0  0  0  0  0  0  0  0  0
   -7.2717    1.6407    0.4365 H   0  0  0  0  0  0  0  0  0  0  0  0
   -7.0579    3.5896   -0.5687 H   0  0  0  0  0  0  0  0  0  0  0  0
   -5.8703    2.2309    2.3878 H   0  0  0  0  0  0  0  0  0  0  0  0
   -4.3808    2.2051    1.3948 H   0  0  0  0  0  0  0  0  0  0  0  0
   -6.3216   -0.1206    1.9448 H   0  0  0  0  0  0  0  0  0  0  0  0
   -4.7312    0.0632    2.6862 H   0  0  0  0  0  0  0  0  0  0  0  0
   -5.9982   -2.2694    0.9438 H   0  0  0  0  0  0  0  0  0  0  0  0
   -4.5015   -2.7350    0.1090 H   0  0  0  0  0  0  0  0  0  0  0  0
   -4.4676   -2.3255    1.8533 H   0  0  0  0  0  0  0  0  0  0  0  0
   -3.0496    0.8515    0.1160 H   0  0  0  0  0  0  0  0  0  0  0  0
   -2.5619    0.2477    2.3944 H   0  0  0  0  0  0  0  0  0  0  0  0
   -2.4024   -1.4817    2.0036 H   0  0  0  0  0  0  0  0  0  0  0  0
   -0.5813    0.8643    1.1865 H   0  0  0  0  0  0  0  0  0  0  0  0
   -0.2096   -0.4929    2.2840 H   0  0  0  0  0  0  0  0  0  0  0  0
    0.3039   -2.8118    1.3598 H   0  0  0  0  0  0  0  0  0  0  0  0
    0.1077   -3.1745   -0.3839 H   0  0  0  0  0  0  0  0  0  0  0  0
   -1.3139   -2.9278    0.6660 H   0  0  0  0  0  0  0  0  0  0  0  0
    2.3895   -2.3407    0.3472 H   0  0  0  0  0  0  0  0  0  0  0  0
    3.5134   -0.9939    2.2856 H   0  0  0  0  0  0  0  0  0  0  0  0
    2.2459    0.2528    1.9884 H   0  0  0  0  0  0  0  0  0  0  0  0
    1.8063   -1.4369    2.4634 H   0  0  0  0  0  0  0  0  0  0  0  0
    4.6187   -1.3653    0.2252 H   0  0  0  0  0  0  0  0  0  0  0  0
    3.8055   -1.2985   -1.3487 H   0  0  0  0  0  0  0  0  0  0  0  0
    4.0290    1.1032    0.5971 H   0  0  0  0  0  0  0  0  0  0  0  0
    3.3226    1.1393   -1.0551 H   0  0  0  0  0  0  0  0  0  0  0  0
    6.4632    0.5790    0.8651 H   0  0  0  0  0  0  0  0  0  0  0  0
    7.9869    1.9820   -1.2268 H   0  0  0  0  0  0  0  0  0  0  0  0
    8.1656    0.2030   -1.4074 H   0  0  0  0  0  0  0  0  0  0  0  0
   10.0076    0.9557   -0.0453 H   0  0  0  0  0  0  0  0  0  0  0  0
    8.8830    0.0821    1.0509 H   0  0  0  0  0  0  0  0  0  0  0  0
    8.1093    4.0287    0.2255 H   0  0  0  0  0  0  0  0  0  0  0  0
  1  2  1  0
  2  3  1  0
  3  4  1  0
  4  5  1  0
  5  6  1  0
  6  7  1  0
  6  8  1  0
  8  9  1  0
  9 10  1  0
 10 11  1  0
 11 12  1  0
 11 13  1  0
 13 14  1  0
 14 15  1  0
 15 16  1  1
 15 17  1  0
 17 18  1  0
 18 19  1  0
 19 20  1  0
 20 21  1  1
  1 22  1  0
 22 23  1  0
 22 24  1  0
 24 25  1  0
 25 26  1  0
 26 27  2  0
 26 28  1  0
 28 29  1  0
 29 30  1  0
 30 31  1  0
 31 32  1  0
 31 33  2  0
 31 34  2  0
 20  1  1  0
 20  4  1  0
 17  5  1  0
 15  9  1  0
  1 35  1  6
  2 36  1  0
  2 37  1  0
  3 38  1  0
  3 39  1  0
  4 40  1  6
  5 41  1  1
  6 42  1  6
  7 43  1  0
  8 44  1  0
  8 45  1  0
  9 46  1  1
 10 47  1  0
 10 48  1  0
 11 49  1  1
 12 50  1  0
 13 51  1  0
 13 52  1  0
 14 53  1  0
 14 54  1  0
 16 55  1  0
 16 56  1  0
 16 57  1  0
 17 58  1  6
 18 59  1  0
 18 60  1  0
 19 61  1  0
 19 62  1  0
 21 63  1  0
 21 64  1  0
 21 65  1  0
 22 66  1  1
 23 67  1  0
 23 68  1  0
 23 69  1  0
 24 70  1  0
 24 71  1  0
 25 72  1  0
 25 73  1  0
 28 74  1  0
 29 75  1  0
 29 76  1  0
 30 77  1  0
 30 78  1  0
 32 79  1  0
M  END
$$$$
