
     RDKit          3D

 49 52  0  0  0  0  0  0  0  0999 V2000
    6.1612    0.0960   -1.2890 C   0  0  0  0  0  0  0  0  0  0  0  0
    5.6354   -1.1612   -0.5850 C   0  0  0  0  0  0  0  0  0  0  0  0
    5.4168   -2.3156   -1.5768 C   0  0  0  0  0  0  0  0  0  0  0  0
    4.4412   -0.8633    0.2334 N   0  0  0  0  0  0  0  0  0  0  0  0
    3.2124   -0.6302   -0.5416 C   0  0  0  0  0  0  0  0  0  0  0  0
    2.1371   -0.0343    0.3692 C   0  0  0  0  0  0  0  0  0  0  0  0
    0.8424    0.2320   -0.4030 C   0  0  0  0  0  0  0  0  0  0  0  0
   -0.1749    0.7809    0.4922 N   0  0  0  0  0  0  0  0  0  0  0  0
   -1.0367    0.1161    1.3103 C   0  0  0  0  0  0  0  0  0  0  0  0
   -1.2344   -1.6697    1.3382 S   0  0  0  0  0  0  0  0  0  0  0  0
   -2.8040   -1.6220    0.4592 C   0  0  0  0  0  0  0  0  0  0  0  0
   -2.9002   -1.9603   -0.9202 C   0  0  0  0  0  0  0  0  0  0  0  0
   -1.3898   -2.5769   -1.9223 Br  0  0  0  0  0  0  0  0  0  0  0  0
   -4.1459   -1.8985   -1.5756 C   0  0  0  0  0  0  0  0  0  0  0  0
   -5.2582   -1.5163   -0.8337 C   0  0  0  0  0  0  0  0  0  0  0  0
   -6.5685   -1.3870   -1.2519 O   0  0  0  0  0  0  0  0  0  0  0  0
   -7.3546   -0.9769   -0.1243 C   0  0  0  0  0  0  0  0  0  0  0  0
   -6.4244   -0.8797    0.9634 O   0  0  0  0  0  0  0  0  0  0  0  0
   -5.1725   -1.2146    0.4847 C   0  0  0  0  0  0  0  0  0  0  0  0
   -3.9660   -1.2620    1.1742 C   0  0  0  0  0  0  0  0  0  0  0  0
   -1.7252    0.9331    2.1549 N   0  0  0  0  0  0  0  0  0  0  0  0
   -1.2602    2.1528    1.8293 C   0  0  0  0  0  0  0  0  0  0  0  0
   -0.3328    2.0620    0.8489 C   0  0  0  0  0  0  0  0  0  0  0  0
    0.3352    3.1411    0.3732 N   0  0  0  0  0  0  0  0  0  0  0  0
    0.0343    4.3654    0.9022 C   0  0  0  0  0  0  0  0  0  0  0  0
   -0.9087    4.4836    1.8920 N   0  0  0  0  0  0  0  0  0  0  0  0
   -1.5712    3.3915    2.3780 C   0  0  0  0  0  0  0  0  0  0  0  0
   -2.5397    3.5320    3.4174 N   0  0  0  0  0  0  0  0  0  0  0  0
    5.5049    0.3976   -2.1312 H   0  0  0  0  0  0  0  0  0  0  0  0
    6.2316    0.9354   -0.5650 H   0  0  0  0  0  0  0  0  0  0  0  0
    7.1760   -0.0985   -1.6973 H   0  0  0  0  0  0  0  0  0  0  0  0
    6.4395   -1.4864    0.1132 H   0  0  0  0  0  0  0  0  0  0  0  0
    4.9903   -3.1956   -1.0505 H   0  0  0  0  0  0  0  0  0  0  0  0
    6.3879   -2.6151   -2.0256 H   0  0  0  0  0  0  0  0  0  0  0  0
    4.7334   -2.0153   -2.3991 H   0  0  0  0  0  0  0  0  0  0  0  0
    4.2730   -1.6763    0.8725 H   0  0  0  0  0  0  0  0  0  0  0  0
    3.3991    0.0812   -1.3729 H   0  0  0  0  0  0  0  0  0  0  0  0
    2.8372   -1.5890   -0.9643 H   0  0  0  0  0  0  0  0  0  0  0  0
    2.5102    0.9197    0.8020 H   0  0  0  0  0  0  0  0  0  0  0  0
    1.9277   -0.7403    1.2026 H   0  0  0  0  0  0  0  0  0  0  0  0
    0.4765   -0.7106   -0.8532 H   0  0  0  0  0  0  0  0  0  0  0  0
    1.0358    0.9493   -1.2305 H   0  0  0  0  0  0  0  0  0  0  0  0
   -4.2429   -2.1529   -2.6229 H   0  0  0  0  0  0  0  0  0  0  0  0
   -7.8191    0.0122   -0.3206 H   0  0  0  0  0  0  0  0  0  0  0  0
   -8.1290   -1.7399    0.1008 H   0  0  0  0  0  0  0  0  0  0  0  0
   -3.9255   -1.0166    2.2276 H   0  0  0  0  0  0  0  0  0  0  0  0
    0.5459    5.2466    0.5405 H   0  0  0  0  0  0  0  0  0  0  0  0
   -3.0495    2.7017    3.7932 H   0  0  0  0  0  0  0  0  0  0  0  0
   -2.7508    4.4746    3.8136 H   0  0  0  0  0  0  0  0  0  0  0  0
  1  2  1  0
  2  3  1  0
  2  4  1  0
  4  5  1  0
  5  6  1  0
  6  7  1  0
  7  8  1  0
  8  9  1  0
  9 10  1  0
 10 11  1  0
 11 12  2  0
 12 13  1  0
 12 14  1  0
 14 15  2  0
 15 16  1  0
 16 17  1  0
 17 18  1  0
 18 19  1  0
 19 20  2  0
  9 21  2  0
 21 22  1  0
 22 23  2  0
 23 24  1  0
 24 25  2  0
 25 26  1  0
 26 27  2  0
 27 28  1  0
 23  8  1  0
 20 11  1  0
 27 22  1  0
 19 15  1  0
  1 29  1  0
  1 30  1  0
  1 31  1  0
  2 32  1  0
  3 33  1  0
  3 34  1  0
  3 35  1  0
  4 36  1  0
  5 37  1  0
  5 38  1  0
  6 39  1  0
  6 40  1  0
  7 41  1  0
  7 42  1  0
 14 43  1  0
 17 44  1  0
 17 45  1  0
 20 46  1  0
 25 47  1  0
 28 48  1  0
 28 49  1  0
M  END
$$$$
