
     RDKit          3D

125131  0  0  0  0  0  0  0  0999 V2000
    5.1426    2.4089   -2.7905 C   0  0  0  0  0  0  0  0  0  0  0  0
    3.8260    2.4469   -2.5331 C   0  0  0  0  0  0  0  0  0  0  0  0
    2.8901    3.3678   -3.2713 C   0  0  1  0  0  0  0  0  0  0  0  0
    2.5872    2.8527   -4.6785 C   0  0  0  0  0  0  0  0  0  0  0  0
    1.0876    2.7606   -4.7139 C   0  0  0  0  0  0  0  0  0  0  0  0
    0.6906    2.7527   -3.2411 C   0  0  2  0  0  0  0  0  0  0  0  0
    0.6473    1.2839   -2.6857 C   0  0  0  0  0  0  0  0  0  0  0  0
   -0.7711    0.7071   -2.7188 C   0  0  0  0  0  0  0  0  0  0  0  0
   -1.8050    1.6651   -2.0892 C   0  0  1  0  0  0  0  0  0  0  0  0
   -2.1990    1.2020   -0.8143 O   0  0  0  0  0  0  0  0  0  0  0  0
   -3.3034    1.9333   -0.2775 C   0  0  1  0  0  0  0  0  0  0  0  0
   -3.3044    3.4436   -0.5864 C   0  0  0  0  0  0  0  0  0  0  0  0
   -4.1827    4.2426    0.0457 C   0  0  0  0  0  0  0  0  0  0  0  0
   -2.3698    4.0403   -1.6305 C   0  0  1  0  0  0  0  0  0  0  0  0
   -1.8181    5.2484   -1.1658 O   0  0  0  0  0  0  0  0  0  0  0  0
   -1.2277    3.0737   -1.9312 C   0  0  2  0  0  0  0  0  0  0  0  0
   -0.5529    3.4430   -3.1169 O   0  0  0  0  0  0  0  0  0  0  0  0
   -4.6531    1.2584   -0.6474 C   0  0  1  0  0  0  0  0  0  0  0  0
   -4.9567    1.5107   -1.9959 O   0  0  0  0  0  0  0  0  0  0  0  0
   -4.6551   -0.2703   -0.3970 C   0  0  0  0  0  0  0  0  0  0  0  0
   -4.6152   -0.6637    1.1152 C   0  0  2  0  0  0  0  0  0  0  0  0
   -3.1922   -1.1119    1.5057 C   0  0  0  0  0  0  0  0  0  0  0  0
   -5.6754   -1.7698    1.4207 C   0  0  1  0  0  0  0  0  0  0  0  0
   -5.2892   -2.9479    0.7128 O   0  0  0  0  0  0  0  0  0  0  0  0
   -6.0251   -4.1063    1.0809 C   0  0  2  0  0  0  0  0  0  0  0  0
   -5.5887   -5.2333    0.0941 C   0  0  0  0  0  0  0  0  0  0  0  0
   -6.4560   -5.1950   -1.1627 C   0  0  0  0  0  0  0  0  0  0  0  0
   -7.9382   -5.3647   -0.7983 C   0  0  0  0  0  0  0  0  0  0  0  0
   -8.2144   -4.9356    0.6506 C   0  0  0  0  0  0  0  0  0  0  0  0
   -7.4282   -3.8117    0.9981 O   0  0  0  0  0  0  0  0  0  0  0  0
   -5.6460   -4.5128    2.5369 C   0  0  0  0  0  0  0  0  0  0  0  0
   -5.2620   -3.3091    3.4126 C   0  0  0  0  0  0  0  0  0  0  0  0
   -5.9824   -2.0433    2.9388 C   0  0  1  0  0  0  0  0  0  0  0  0
   -5.7631   -0.8625    3.8975 C   0  0  0  0  0  0  0  0  0  0  0  0
    1.6829    3.4779   -2.5464 O   0  0  0  0  0  0  0  0  0  0  0  0
    6.0358    1.4155   -2.0800 C   0  0  1  0  0  0  0  0  0  0  0  0
    7.3923    1.2919   -2.7891 C   0  0  0  0  0  0  0  0  0  0  0  0
    6.1546    1.7284   -0.5643 C   0  0  2  0  0  0  0  0  0  0  0  0
    7.0485    2.9342   -0.2264 C   0  0  0  0  0  0  0  0  0  0  0  0
    7.2339    3.0390    1.2693 C   0  0  0  0  0  0  0  0  0  0  0  0
    7.7762    4.3087    1.8628 C   0  0  0  0  0  0  0  0  0  0  0  0
    7.0097    1.9736    2.0641 C   0  0  0  0  0  0  0  0  0  0  0  0
    6.4229    0.6810    1.5158 C   0  0  2  0  0  0  0  0  0  0  0  0
    5.0323    0.6761    1.8275 O   0  0  0  0  0  0  0  0  0  0  0  0
    4.3639   -0.4683    1.3137 C   0  0  2  0  0  0  0  0  0  0  0  0
    2.8490   -0.2685    1.5638 C   0  0  0  0  0  0  0  0  0  0  0  0
    1.8733   -1.2329    0.8183 C   0  0  1  0  0  0  0  0  0  0  0  0
    0.4438   -0.6832    0.9424 C   0  0  0  0  0  0  0  0  0  0  0  0
    2.1844   -1.2761   -0.5564 O   0  0  0  0  0  0  0  0  0  0  0  0
    1.8677   -2.6250    1.4215 C   0  0  0  0  0  0  0  0  0  0  0  0
    1.7888   -3.7441    0.5965 O   0  0  0  0  0  0  0  0  0  0  0  0
    1.8669   -2.7770    2.6736 O   0  0  0  0  0  0  0  0  0  0  0  0
    4.9133   -1.7399    1.9893 C   0  0  0  0  0  0  0  0  0  0  0  0
    6.4291   -1.8271    1.8005 C   0  0  0  0  0  0  0  0  0  0  0  0
    7.1087   -0.5180    2.2166 C   0  0  1  0  0  0  0  0  0  0  0  0
    8.4693   -0.5817    1.8702 O   0  0  0  0  0  0  0  0  0  0  0  0
    6.6474    0.5836    0.1089 O   0  0  0  0  0  0  0  0  0  0  0  0
    5.5577    3.0614   -3.5548 H   0  0  0  0  0  0  0  0  0  0  0  0
    3.4099    1.7845   -1.7788 H   0  0  0  0  0  0  0  0  0  0  0  0
    3.3465    4.3804   -3.3324 H   0  0  0  0  0  0  0  0  0  0  0  0
    2.9613    3.5568   -5.4537 H   0  0  0  0  0  0  0  0  0  0  0  0
    3.0290    1.8473   -4.8629 H   0  0  0  0  0  0  0  0  0  0  0  0
    0.6797    3.6656   -5.2180 H   0  0  0  0  0  0  0  0  0  0  0  0
    0.7369    1.8587   -5.2626 H   0  0  0  0  0  0  0  0  0  0  0  0
    0.9916    1.2801   -1.6292 H   0  0  0  0  0  0  0  0  0  0  0  0
    1.3377    0.6129   -3.2423 H   0  0  0  0  0  0  0  0  0  0  0  0
   -0.7845   -0.2764   -2.1999 H   0  0  0  0  0  0  0  0  0  0  0  0
   -1.0426    0.5203   -3.7814 H   0  0  0  0  0  0  0  0  0  0  0  0
   -2.6720    1.6877   -2.7861 H   0  0  0  0  0  0  0  0  0  0  0  0
   -3.2028    1.8643    0.8268 H   0  0  0  0  0  0  0  0  0  0  0  0
   -4.8580    3.8483    0.7982 H   0  0  0  0  0  0  0  0  0  0  0  0
   -4.2380    5.3042   -0.1728 H   0  0  0  0  0  0  0  0  0  0  0  0
   -2.9564    4.2061   -2.5667 H   0  0  0  0  0  0  0  0  0  0  0  0
   -2.3390    5.9882   -1.5745 H   0  0  0  0  0  0  0  0  0  0  0  0
   -0.5322    3.0995   -1.0557 H   0  0  0  0  0  0  0  0  0  0  0  0
   -5.4523    1.7083   -0.0128 H   0  0  0  0  0  0  0  0  0  0  0  0
   -5.9370    1.3927   -2.1026 H   0  0  0  0  0  0  0  0  0  0  0  0
   -3.8246   -0.7504   -0.9601 H   0  0  0  0  0  0  0  0  0  0  0  0
   -5.5800   -0.6696   -0.8678 H   0  0  0  0  0  0  0  0  0  0  0  0
   -4.8641    0.2378    1.7115 H   0  0  0  0  0  0  0  0  0  0  0  0
   -2.4583   -0.3169    1.2760 H   0  0  0  0  0  0  0  0  0  0  0  0
   -2.8963   -2.0283    0.9524 H   0  0  0  0  0  0  0  0  0  0  0  0
   -3.1084   -1.3107    2.5891 H   0  0  0  0  0  0  0  0  0  0  0  0
   -6.6334   -1.4010    0.9871 H   0  0  0  0  0  0  0  0  0  0  0  0
   -4.5180   -5.1160   -0.1841 H   0  0  0  0  0  0  0  0  0  0  0  0
   -5.6989   -6.2372    0.5631 H   0  0  0  0  0  0  0  0  0  0  0  0
   -6.3069   -4.2190   -1.6755 H   0  0  0  0  0  0  0  0  0  0  0  0
   -6.1434   -5.9999   -1.8626 H   0  0  0  0  0  0  0  0  0  0  0  0
   -8.2367   -6.4286   -0.9207 H   0  0  0  0  0  0  0  0  0  0  0  0
   -8.5559   -4.7553   -1.4934 H   0  0  0  0  0  0  0  0  0  0  0  0
   -8.0294   -5.7819    1.3495 H   0  0  0  0  0  0  0  0  0  0  0  0
   -9.2867   -4.6656    0.7500 H   0  0  0  0  0  0  0  0  0  0  0  0
   -6.4977   -5.0483    3.0087 H   0  0  0  0  0  0  0  0  0  0  0  0
   -4.7835   -5.2159    2.5394 H   0  0  0  0  0  0  0  0  0  0  0  0
   -5.5261   -3.5288    4.4705 H   0  0  0  0  0  0  0  0  0  0  0  0
   -4.1635   -3.1608    3.3690 H   0  0  0  0  0  0  0  0  0  0  0  0
   -7.0720   -2.2640    3.0145 H   0  0  0  0  0  0  0  0  0  0  0  0
   -6.1520   -1.1212    4.9055 H   0  0  0  0  0  0  0  0  0  0  0  0
   -4.6912   -0.6074    4.0060 H   0  0  0  0  0  0  0  0  0  0  0  0
   -6.3229    0.0278    3.5408 H   0  0  0  0  0  0  0  0  0  0  0  0
    5.5464    0.4188   -2.1703 H   0  0  0  0  0  0  0  0  0  0  0  0
    7.2463    0.8648   -3.8043 H   0  0  0  0  0  0  0  0  0  0  0  0
    7.8804    2.2830   -2.9018 H   0  0  0  0  0  0  0  0  0  0  0  0
    8.0653    0.6138   -2.2226 H   0  0  0  0  0  0  0  0  0  0  0  0
    5.1276    1.9688   -0.2054 H   0  0  0  0  0  0  0  0  0  0  0  0
    6.5824    3.8640   -0.6183 H   0  0  0  0  0  0  0  0  0  0  0  0
    8.0564    2.8194   -0.6747 H   0  0  0  0  0  0  0  0  0  0  0  0
    7.9594    5.0684    1.0738 H   0  0  0  0  0  0  0  0  0  0  0  0
    8.7359    4.1030    2.3824 H   0  0  0  0  0  0  0  0  0  0  0  0
    7.0473    4.7232    2.5907 H   0  0  0  0  0  0  0  0  0  0  0  0
    7.1521    2.0691    3.1380 H   0  0  0  0  0  0  0  0  0  0  0  0
    4.5206   -0.5359    0.2163 H   0  0  0  0  0  0  0  0  0  0  0  0
    2.6492   -0.2908    2.6581 H   0  0  0  0  0  0  0  0  0  0  0  0
    2.6126    0.7681    1.2326 H   0  0  0  0  0  0  0  0  0  0  0  0
   -0.2687   -1.3384    0.3955 H   0  0  0  0  0  0  0  0  0  0  0  0
    0.1308   -0.6273    2.0078 H   0  0  0  0  0  0  0  0  0  0  0  0
    0.3728    0.3350    0.5052 H   0  0  0  0  0  0  0  0  0  0  0  0
    2.9707   -1.8678   -0.6864 H   0  0  0  0  0  0  0  0  0  0  0  0
    1.7607   -4.6777    0.9885 H   0  0  0  0  0  0  0  0  0  0  0  0
    4.6761   -1.7254    3.0758 H   0  0  0  0  0  0  0  0  0  0  0  0
    4.4651   -2.6467    1.5364 H   0  0  0  0  0  0  0  0  0  0  0  0
    6.6532   -2.0451    0.7324 H   0  0  0  0  0  0  0  0  0  0  0  0
    6.8295   -2.6660    2.4102 H   0  0  0  0  0  0  0  0  0  0  0  0
    6.9986   -0.4179    3.3236 H   0  0  0  0  0  0  0  0  0  0  0  0
    8.9527    0.0385    2.4759 H   0  0  0  0  0  0  0  0  0  0  0  0
  1  2  2  0
  2  3  1  0
  3  4  1  0
  4  5  1  0
  5  6  1  0
  6  7  1  0
  7  8  1  0
  8  9  1  0
  9 10  1  0
 10 11  1  0
 11 12  1  0
 12 13  2  3
 12 14  1  0
 14 15  1  0
 14 16  1  0
 16 17  1  0
 11 18  1  0
 18 19  1  0
 18 20  1  0
 20 21  1  0
 21 22  1  0
 21 23  1  0
 23 24  1  0
 25 24  1  6
 25 26  1  0
 26 27  1  0
 27 28  1  0
 28 29  1  0
 29 30  1  0
 25 31  1  0
 31 32  1  0
 32 33  1  0
 33 34  1  0
  6 35  1  1
  1 36  1  0
 36 37  1  0
 36 38  1  0
 38 39  1  0
 39 40  1  0
 40 41  1  0
 40 42  2  0
 42 43  1  0
 43 44  1  6
 44 45  1  0
 45 46  1  0
 46 47  1  0
 47 48  1  0
 47 49  1  6
 47 50  1  0
 50 51  1  0
 50 52  2  0
 45 53  1  0
 53 54  1  0
 54 55  1  0
 55 56  1  0
 43 57  1  0
 35  3  1  0
 57 38  1  0
 17  6  1  0
 33 23  1  0
 55 43  1  0
 16  9  1  0
 30 25  1  0
  1 58  1  0
  2 59  1  0
  3 60  1  6
  4 61  1  0
  4 62  1  0
  5 63  1  0
  5 64  1  0
  7 65  1  0
  7 66  1  0
  8 67  1  0
  8 68  1  0
  9 69  1  6
 11 70  1  1
 13 71  1  0
 13 72  1  0
 14 73  1  6
 15 74  1  0
 16 75  1  1
 18 76  1  1
 19 77  1  0
 20 78  1  0
 20 79  1  0
 21 80  1  1
 22 81  1  0
 22 82  1  0
 22 83  1  0
 23 84  1  6
 26 85  1  0
 26 86  1  0
 27 87  1  0
 27 88  1  0
 28 89  1  0
 28 90  1  0
 29 91  1  0
 29 92  1  0
 31 93  1  0
 31 94  1  0
 32 95  1  0
 32 96  1  0
 33 97  1  6
 34 98  1  0
 34 99  1  0
 34100  1  0
 36101  1  1
 37102  1  0
 37103  1  0
 37104  1  0
 38105  1  1
 39106  1  0
 39107  1  0
 41108  1  0
 41109  1  0
 41110  1  0
 42111  1  0
 45112  1  6
 46113  1  0
 46114  1  0
 48115  1  0
 48116  1  0
 48117  1  0
 49118  1  0
 51119  1  0
 53120  1  0
 53121  1  0
 54122  1  0
 54123  1  0
 55124  1  1
 56125  1  0
M  END
$$$$
