
     RDKit          3D

 24 23  0  0  0  0  0  0  0  0999 V2000
    3.6717    1.1574   -0.3160 N   0  0  0  0  0  0  0  0  0  0  0  0
    2.3040    0.8769    0.1097 C   0  0  0  0  0  0  0  0  0  0  0  0
    1.7979   -0.4075   -0.5585 C   0  0  0  0  0  0  0  0  0  0  0  0
    0.4073   -0.8285   -0.0574 C   0  0  0  0  0  0  0  0  0  0  0  0
   -0.7102    0.1067   -0.5533 C   0  0  0  0  0  0  0  0  0  0  0  0
   -2.1149   -0.4256   -0.1936 C   0  0  2  0  0  0  0  0  0  0  0  0
   -3.1595    0.3831   -0.8257 N   0  0  0  0  0  0  0  0  0  0  0  0
   -2.3299   -0.4476    1.2943 C   0  0  0  0  0  0  0  0  0  0  0  0
   -2.4667   -1.6644    1.9552 O   0  0  0  0  0  0  0  0  0  0  0  0
   -2.3717    0.6296    1.9482 O   0  0  0  0  0  0  0  0  0  0  0  0
    4.3024    0.4436    0.1167 H   0  0  0  0  0  0  0  0  0  0  0  0
    3.9484    2.0806    0.0899 H   0  0  0  0  0  0  0  0  0  0  0  0
    2.2705    0.7708    1.2174 H   0  0  0  0  0  0  0  0  0  0  0  0
    1.6575    1.7312   -0.1835 H   0  0  0  0  0  0  0  0  0  0  0  0
    2.5091   -1.2315   -0.3309 H   0  0  0  0  0  0  0  0  0  0  0  0
    1.7804   -0.2750   -1.6625 H   0  0  0  0  0  0  0  0  0  0  0  0
    0.2065   -1.8566   -0.4305 H   0  0  0  0  0  0  0  0  0  0  0  0
    0.4088   -0.8685    1.0536 H   0  0  0  0  0  0  0  0  0  0  0  0
   -0.5785    1.1206   -0.1181 H   0  0  0  0  0  0  0  0  0  0  0  0
   -0.6361    0.1972   -1.6593 H   0  0  0  0  0  0  0  0  0  0  0  0
   -2.2094   -1.4670   -0.5754 H   0  0  0  0  0  0  0  0  0  0  0  0
   -3.0811    0.2787   -1.8637 H   0  0  0  0  0  0  0  0  0  0  0  0
   -3.0022    1.3937   -0.6034 H   0  0  0  0  0  0  0  0  0  0  0  0
   -2.6043   -1.6981    2.9582 H   0  0  0  0  0  0  0  0  0  0  0  0
  1  2  1  0
  2  3  1  0
  3  4  1  0
  4  5  1  0
  5  6  1  0
  6  7  1  0
  6  8  1  0
  8  9  1  0
  8 10  2  0
  1 11  1  0
  1 12  1  0
  2 13  1  0
  2 14  1  0
  3 15  1  0
  3 16  1  0
  4 17  1  0
  4 18  1  0
  5 19  1  0
  5 20  1  0
  6 21  1  6
  7 22  1  0
  7 23  1  0
  9 24  1  0
M  END
$$$$
