
     RDKit          3D

 27 26  0  0  0  0  0  0  0  0999 V2000
   -3.8349   -0.6049    0.8373 N   0  0  0  0  0  0  0  0  0  0  0  0
   -2.6076    0.1211    0.5034 C   0  0  1  0  0  0  0  0  0  0  0  0
   -1.5389   -0.8655   -0.0039 C   0  0  0  0  0  0  0  0  0  0  0  0
   -0.1632   -0.2006   -0.1654 C   0  0  0  0  0  0  0  0  0  0  0  0
    0.8890   -1.2204   -0.6243 C   0  0  0  0  0  0  0  0  0  0  0  0
    2.2687   -0.5758   -0.8136 C   0  0  0  0  0  0  0  0  0  0  0  0
    2.8706   -0.2029    0.4674 N   0  0  0  0  0  0  0  0  0  0  0  0
    4.1382    0.4571    0.5347 C   0  0  0  0  0  0  0  0  0  0  0  0
    4.6778    0.7857    1.7739 O   0  0  0  0  0  0  0  0  0  0  0  0
    4.7685    0.7424   -0.5193 O   0  0  0  0  0  0  0  0  0  0  0  0
   -2.8894    1.2031   -0.5083 C   0  0  0  0  0  0  0  0  0  0  0  0
   -2.6241    2.5314   -0.1903 O   0  0  0  0  0  0  0  0  0  0  0  0
   -3.3578    0.9110   -1.6418 O   0  0  0  0  0  0  0  0  0  0  0  0
   -4.2474   -1.0156   -0.0325 H   0  0  0  0  0  0  0  0  0  0  0  0
   -4.5314    0.0729    1.2251 H   0  0  0  0  0  0  0  0  0  0  0  0
   -2.2281    0.5964    1.4355 H   0  0  0  0  0  0  0  0  0  0  0  0
   -1.8604   -1.3038   -0.9748 H   0  0  0  0  0  0  0  0  0  0  0  0
   -1.4488   -1.6969    0.7300 H   0  0  0  0  0  0  0  0  0  0  0  0
    0.1435    0.2437    0.8060 H   0  0  0  0  0  0  0  0  0  0  0  0
   -0.2306    0.6147   -0.9183 H   0  0  0  0  0  0  0  0  0  0  0  0
    0.5698   -1.6556   -1.5966 H   0  0  0  0  0  0  0  0  0  0  0  0
    0.9652   -2.0503    0.1123 H   0  0  0  0  0  0  0  0  0  0  0  0
    2.1776    0.3232   -1.4617 H   0  0  0  0  0  0  0  0  0  0  0  0
    2.9350   -1.3036   -1.3251 H   0  0  0  0  0  0  0  0  0  0  0  0
    2.3882   -0.4310    1.3661 H   0  0  0  0  0  0  0  0  0  0  0  0
    5.5739    1.2531    1.8430 H   0  0  0  0  0  0  0  0  0  0  0  0
   -2.8031    3.2712   -0.8587 H   0  0  0  0  0  0  0  0  0  0  0  0
  1  2  1  0
  2  3  1  0
  3  4  1  0
  4  5  1  0
  5  6  1  0
  6  7  1  0
  7  8  1  0
  8  9  1  0
  8 10  2  0
  2 11  1  0
 11 12  1  0
 11 13  2  0
  1 14  1  0
  1 15  1  0
  2 16  1  1
  3 17  1  0
  3 18  1  0
  4 19  1  0
  4 20  1  0
  5 21  1  0
  5 22  1  0
  6 23  1  0
  6 24  1  0
  7 25  1  0
  9 26  1  0
 12 27  1  0
M  END
$$$$
