
     RDKit          3D

 50 51  0  0  0  0  0  0  0  0999 V2000
   -3.1438   -0.1653   -0.1788 N   0  0  0  0  0  0  0  0  0  0  0  0
   -4.1671    0.0877    0.7999 C   0  0  0  0  0  0  0  0  0  0  0  0
   -3.9556   -0.1832    2.0147 O   0  0  0  0  0  0  0  0  0  0  0  0
   -5.4882    0.7175    0.3815 C   0  0  0  0  0  0  0  0  0  0  0  0
   -6.6013    0.4011    1.4060 C   0  0  0  0  0  0  0  0  0  0  0  0
   -5.8791    0.2242   -0.8786 O   0  0  0  0  0  0  0  0  0  0  0  0
   -5.3019    2.2447    0.2638 C   0  0  0  0  0  0  0  0  0  0  0  0
   -6.4902    2.8441   -0.1178 F   0  0  0  0  0  0  0  0  0  0  0  0
   -4.9006    2.7822    1.4757 F   0  0  0  0  0  0  0  0  0  0  0  0
   -4.3415    2.5368   -0.6899 F   0  0  0  0  0  0  0  0  0  0  0  0
   -1.8049   -0.5663    0.1627 C   0  0  0  0  0  0  0  0  0  0  0  0
   -1.1396   -1.5614   -0.5891 C   0  0  0  0  0  0  0  0  0  0  0  0
   -1.8231   -2.2521   -1.7378 C   0  0  0  0  0  0  0  0  0  0  0  0
    0.1865   -1.8988   -0.2708 C   0  0  0  0  0  0  0  0  0  0  0  0
    0.8514   -1.2650    0.7850 C   0  0  0  0  0  0  0  0  0  0  0  0
    0.1901   -0.2798    1.5261 C   0  0  0  0  0  0  0  0  0  0  0  0
   -1.1239    0.0714    1.2139 C   0  0  0  0  0  0  0  0  0  0  0  0
    2.5218   -1.6903    1.1476 S   0  0  0  0  0  6  0  0  0  0  0  0
    2.6611   -3.1861    1.2001 O   0  0  0  0  0  0  0  0  0  0  0  0
    2.9159   -1.1399    2.4906 O   0  0  0  0  0  0  0  0  0  0  0  0
    3.5721   -1.0413   -0.0791 N   0  0  0  0  0  0  0  0  0  0  0  0
    3.7047   -1.7456   -1.3598 C   0  0  0  0  0  0  0  0  0  0  0  0
    3.1323   -0.9056   -2.4972 C   0  0  0  0  0  0  0  0  0  0  0  0
    4.2748    0.1924    0.1595 C   0  0  0  0  0  0  0  0  0  0  0  0
    5.6575    0.2852   -0.0766 C   0  0  0  0  0  0  0  0  0  0  0  0
    6.3326    1.4889    0.1485 C   0  0  0  0  0  0  0  0  0  0  0  0
    5.6347    2.6087    0.6078 C   0  0  0  0  0  0  0  0  0  0  0  0
    4.2600    2.5266    0.8426 C   0  0  0  0  0  0  0  0  0  0  0  0
    3.5816    1.3248    0.6194 C   0  0  0  0  0  0  0  0  0  0  0  0
   -3.3943   -0.0966   -1.1903 H   0  0  0  0  0  0  0  0  0  0  0  0
   -6.3743    0.8501    2.3969 H   0  0  0  0  0  0  0  0  0  0  0  0
   -6.7067   -0.6977    1.5351 H   0  0  0  0  0  0  0  0  0  0  0  0
   -7.5768    0.8000    1.0545 H   0  0  0  0  0  0  0  0  0  0  0  0
   -5.9686   -0.7630   -0.8052 H   0  0  0  0  0  0  0  0  0  0  0  0
   -1.2615   -3.1538   -2.0628 H   0  0  0  0  0  0  0  0  0  0  0  0
   -1.8992   -1.5550   -2.5982 H   0  0  0  0  0  0  0  0  0  0  0  0
   -2.8411   -2.5785   -1.4369 H   0  0  0  0  0  0  0  0  0  0  0  0
    0.7044   -2.6551   -0.8473 H   0  0  0  0  0  0  0  0  0  0  0  0
    0.6943    0.2310    2.3362 H   0  0  0  0  0  0  0  0  0  0  0  0
   -1.6010    0.8632    1.7768 H   0  0  0  0  0  0  0  0  0  0  0  0
    3.1594   -2.7124   -1.3297 H   0  0  0  0  0  0  0  0  0  0  0  0
    4.7702   -1.9788   -1.5635 H   0  0  0  0  0  0  0  0  0  0  0  0
    2.0712   -0.6529   -2.2887 H   0  0  0  0  0  0  0  0  0  0  0  0
    3.7146    0.0326   -2.6154 H   0  0  0  0  0  0  0  0  0  0  0  0
    3.1849   -1.4781   -3.4470 H   0  0  0  0  0  0  0  0  0  0  0  0
    6.2178   -0.5751   -0.4170 H   0  0  0  0  0  0  0  0  0  0  0  0
    7.3982    1.5527   -0.0305 H   0  0  0  0  0  0  0  0  0  0  0  0
    6.1587    3.5397    0.7810 H   0  0  0  0  0  0  0  0  0  0  0  0
    3.7188    3.3956    1.1938 H   0  0  0  0  0  0  0  0  0  0  0  0
    2.5146    1.2827    0.7882 H   0  0  0  0  0  0  0  0  0  0  0  0
  1  2  1  0
  2  3  2  0
  2  4  1  0
  4  5  1  0
  4  6  1  0
  4  7  1  0
  7  8  1  0
  7  9  1  0
  7 10  1  0
  1 11  1  0
 11 12  2  0
 12 13  1  0
 12 14  1  0
 14 15  2  0
 15 16  1  0
 16 17  2  0
 15 18  1  0
 18 19  2  0
 18 20  2  0
 18 21  1  0
 21 22  1  0
 22 23  1  0
 21 24  1  0
 24 25  2  0
 25 26  1  0
 26 27  2  0
 27 28  1  0
 28 29  2  0
 17 11  1  0
 29 24  1  0
  1 30  1  0
  5 31  1  0
  5 32  1  0
  5 33  1  0
  6 34  1  0
 13 35  1  0
 13 36  1  0
 13 37  1  0
 14 38  1  0
 16 39  1  0
 17 40  1  0
 22 41  1  0
 22 42  1  0
 23 43  1  0
 23 44  1  0
 23 45  1  0
 25 46  1  0
 26 47  1  0
 27 48  1  0
 28 49  1  0
 29 50  1  0
M  END
$$$$
