
     RDKit          3D

 48 51  0  0  0  0  0  0  0  0999 V2000
   -0.6655    4.4671    2.5483 C   0  0  0  0  0  0  0  0  0  0  0  0
    0.4165    3.6458    2.1210 O   0  0  0  0  0  0  0  0  0  0  0  0
    0.3071    2.5999    1.1896 C   0  0  0  0  0  0  0  0  0  0  0  0
   -0.9168    2.2721    0.5837 C   0  0  0  0  0  0  0  0  0  0  0  0
   -1.0086    1.2200   -0.3382 C   0  0  0  0  0  0  0  0  0  0  0  0
   -2.3632    0.8932   -0.9372 C   0  0  0  0  0  0  0  0  0  0  0  0
   -3.0081   -0.3529   -0.3513 C   0  0  0  0  0  0  0  0  0  0  0  0
   -2.7009   -0.7907    0.9515 C   0  0  0  0  0  0  0  0  0  0  0  0
   -3.2755   -1.9116    1.4547 N   0  0  0  0  0  0  0  0  0  0  0  0
   -4.1722   -2.6242    0.7296 C   0  0  0  0  0  0  0  0  0  0  0  0
   -4.7579   -3.8030    1.2770 N   0  0  0  0  0  0  0  0  0  0  0  0
   -4.5251   -2.2031   -0.5106 N   0  0  0  0  0  0  0  0  0  0  0  0
   -3.9865   -1.0847   -1.0654 C   0  0  0  0  0  0  0  0  0  0  0  0
   -4.4530   -0.6730   -2.3553 N   0  0  0  0  0  0  0  0  0  0  0  0
    0.1529    0.4783   -0.6562 C   0  0  0  0  0  0  0  0  0  0  0  0
    0.1148   -0.6957   -1.5608 C   0  0  0  0  0  0  0  0  0  0  0  0
    1.2352   -1.3148   -1.9347 C   0  0  0  0  0  0  0  0  0  0  0  0
    2.5888   -0.7674   -1.5690 C   0  0  0  0  0  0  0  0  0  0  0  0
    2.5184    0.0628   -0.4017 O   0  0  0  0  0  0  0  0  0  0  0  0
    1.3860    0.8151   -0.0647 C   0  0  0  0  0  0  0  0  0  0  0  0
    1.4637    1.8747    0.8712 C   0  0  0  0  0  0  0  0  0  0  0  0
    2.6525    2.2606    1.5185 O   0  0  0  0  0  0  0  0  0  0  0  0
    3.9344    1.6668    1.3543 C   0  0  0  0  0  0  0  0  0  0  0  0
    3.5880   -1.9310   -1.4062 C   0  0  0  0  0  0  0  0  0  0  0  0
    4.8921   -1.6025   -0.6953 C   0  0  0  0  0  0  0  0  0  0  0  0
    3.8368   -2.4494    0.0039 C   0  0  0  0  0  0  0  0  0  0  0  0
   -1.4472    3.8464    3.0350 H   0  0  0  0  0  0  0  0  0  0  0  0
   -1.0943    5.0150    1.6827 H   0  0  0  0  0  0  0  0  0  0  0  0
   -0.2901    5.2064    3.2850 H   0  0  0  0  0  0  0  0  0  0  0  0
   -1.8099    2.8281    0.8350 H   0  0  0  0  0  0  0  0  0  0  0  0
   -2.2174    0.7808   -2.0311 H   0  0  0  0  0  0  0  0  0  0  0  0
   -3.0672    1.7429   -0.8036 H   0  0  0  0  0  0  0  0  0  0  0  0
   -1.9988   -0.2515    1.5721 H   0  0  0  0  0  0  0  0  0  0  0  0
   -4.4955   -4.1284    2.2338 H   0  0  0  0  0  0  0  0  0  0  0  0
   -5.4541   -4.3523    0.7259 H   0  0  0  0  0  0  0  0  0  0  0  0
   -5.1207   -1.2807   -2.8799 H   0  0  0  0  0  0  0  0  0  0  0  0
   -4.2338    0.2615   -2.7624 H   0  0  0  0  0  0  0  0  0  0  0  0
   -0.8261   -1.0923   -1.9162 H   0  0  0  0  0  0  0  0  0  0  0  0
    1.1667   -2.1622   -2.6069 H   0  0  0  0  0  0  0  0  0  0  0  0
    2.9336   -0.1396   -2.4180 H   0  0  0  0  0  0  0  0  0  0  0  0
    3.9060    0.6020    1.6669 H   0  0  0  0  0  0  0  0  0  0  0  0
    4.2712    1.7675    0.3014 H   0  0  0  0  0  0  0  0  0  0  0  0
    4.6611    2.1980    2.0022 H   0  0  0  0  0  0  0  0  0  0  0  0
    3.6935   -2.6788   -2.2218 H   0  0  0  0  0  0  0  0  0  0  0  0
    4.9933   -0.5734   -0.2956 H   0  0  0  0  0  0  0  0  0  0  0  0
    5.7689   -2.1838   -1.0512 H   0  0  0  0  0  0  0  0  0  0  0  0
    3.3135   -1.9291    0.8331 H   0  0  0  0  0  0  0  0  0  0  0  0
    4.0933   -3.5285    0.0570 H   0  0  0  0  0  0  0  0  0  0  0  0
  1  2  1  0
  2  3  1  0
  3  4  2  0
  4  5  1  0
  5  6  1  0
  6  7  1  0
  7  8  2  0
  8  9  1  0
  9 10  2  0
 10 11  1  0
 10 12  1  0
 12 13  2  0
 13 14  1  0
  5 15  2  0
 15 16  1  0
 16 17  2  0
 17 18  1  0
 18 19  1  0
 19 20  1  0
 20 21  2  0
 21 22  1  0
 22 23  1  0
 18 24  1  0
 24 25  1  0
 25 26  1  0
 21  3  1  0
 26 24  1  0
 13  7  1  0
 20 15  1  0
  1 27  1  0
  1 28  1  0
  1 29  1  0
  4 30  1  0
  6 31  1  0
  6 32  1  0
  8 33  1  0
 11 34  1  0
 11 35  1  0
 14 36  1  0
 14 37  1  0
 16 38  1  0
 17 39  1  0
 18 40  1  0
 23 41  1  0
 23 42  1  0
 23 43  1  0
 24 44  1  0
 25 45  1  0
 25 46  1  0
 26 47  1  0
 26 48  1  0
M  END
$$$$
