
     RDKit          3D

 43 42  0  0  0  0  0  0  0  0999 V2000
    0.0000    0.0000    0.0000 Ga  0  0  0  0  0 15  0  0  0  0  0  0
    2.2177   -0.2658   -0.0042 C   0  0  0  0  0  0  0  0  0  0  0  0
    0.7232   -0.1908   -0.0054 C   0  0  0  0  0  0  0  0  0  0  0  0
    0.0653    1.0497    0.0406 C   0  0  0  0  0  0  0  0  0  0  0  0
    0.7869    2.2391    0.0885 O   0  0  0  0  0  1  0  0  0  0  0  0
   -1.3324    1.0694    0.0376 C   0  0  0  0  0  0  0  0  0  0  0  0
   -1.9562    2.1633    0.0780 O   0  0  0  0  0  0  0  0  0  0  0  0
   -2.0347   -0.1350   -0.0108 C   0  0  0  0  0  0  0  0  0  0  0  0
   -1.3155   -1.3309   -0.0549 C   0  0  0  0  0  0  0  0  0  0  0  0
    0.0147   -1.3181   -0.0508 O   0  0  0  0  0  0  0  0  0  0  0  0
    2.1849   -0.4435   -0.1354 C   0  0  0  0  0  0  0  0  0  0  0  0
    0.7037   -0.2481   -0.0523 C   0  0  0  0  0  0  0  0  0  0  0  0
    0.1541    1.0382    0.0789 C   0  0  0  0  0  0  0  0  0  0  0  0
    0.9734    2.1621    0.1349 O   0  0  0  0  0  1  0  0  0  0  0  0
   -1.2354    1.1707    0.1526 C   0  0  0  0  0  0  0  0  0  0  0  0
   -1.7635    2.3086    0.2706 O   0  0  0  0  0  0  0  0  0  0  0  0
   -2.0368    0.0303    0.0945 C   0  0  0  0  0  0  0  0  0  0  0  0
   -1.4224   -1.2166   -0.0364 C   0  0  0  0  0  0  0  0  0  0  0  0
   -0.0973   -1.3115   -0.1041 O   0  0  0  0  0  0  0  0  0  0  0  0
    2.1809   -0.4521    0.1678 C   0  0  0  0  0  0  0  0  0  0  0  0
    0.7014   -0.2358    0.1090 C   0  0  0  0  0  0  0  0  0  0  0  0
    0.1638    0.8847   -0.5462 C   0  0  0  0  0  0  0  0  0  0  0  0
    0.9936    1.8209   -1.1565 O   0  0  0  0  0  1  0  0  0  0  0  0
   -1.2246    1.0441   -0.5749 C   0  0  0  0  0  0  0  0  0  0  0  0
   -1.7421    2.0366   -1.1532 O   0  0  0  0  0  0  0  0  0  0  0  0
   -2.0366    0.0931    0.0435 C   0  0  0  0  0  0  0  0  0  0  0  0
   -1.4338   -0.9958    0.6763 C   0  0  0  0  0  0  0  0  0  0  0  0
   -0.1095   -1.1208    0.6872 O   0  0  0  0  0  0  0  0  0  0  0  0
    2.5502   -1.3245   -0.0440 H   0  0  0  0  0  0  0  0  0  0  0  0
    2.6224    0.2684   -0.8894 H   0  0  0  0  0  0  0  0  0  0  0  0
    2.6174    0.1986    0.9218 H   0  0  0  0  0  0  0  0  0  0  0  0
   -3.1176   -0.1478   -0.0143 H   0  0  0  0  0  0  0  0  0  0  0  0
   -1.8414   -2.2755   -0.0928 H   0  0  0  0  0  0  0  0  0  0  0  0
    2.4260   -1.5228   -0.2355 H   0  0  0  0  0  0  0  0  0  0  0  0
    2.6684   -0.0543    0.7853 H   0  0  0  0  0  0  0  0  0  0  0  0
    2.5869    0.0949   -1.0193 H   0  0  0  0  0  0  0  0  0  0  0  0
   -3.1158    0.1051    0.1494 H   0  0  0  0  0  0  0  0  0  0  0  0
   -2.0262   -2.1131   -0.0833 H   0  0  0  0  0  0  0  0  0  0  0  0
    2.6660    0.4014    0.6865 H   0  0  0  0  0  0  0  0  0  0  0  0
    2.5899   -0.5398   -0.8607 H   0  0  0  0  0  0  0  0  0  0  0  0
    2.4120   -1.3850    0.7239 H   0  0  0  0  0  0  0  0  0  0  0  0
   -3.1150    0.1927    0.0359 H   0  0  0  0  0  0  0  0  0  0  0  0
   -2.0459   -1.7442    1.1616 H   0  0  0  0  0  0  0  0  0  0  0  0
  2  3  1  0
  3  4  2  0
  4  5  1  0
  4  6  1  0
  6  7  2  0
  6  8  1  0
  8  9  2  0
  9 10  1  0
 11 12  1  0
 12 13  2  0
 13 14  1  0
 13 15  1  0
 15 16  2  0
 15 17  1  0
 17 18  2  0
 18 19  1  0
 20 21  1  0
 21 22  2  0
 22 23  1  0
 22 24  1  0
 24 25  2  0
 24 26  1  0
 26 27  2  0
 27 28  1  0
 10  3  1  0
 19 12  1  0
 28 21  1  0
  2 29  1  0
  2 30  1  0
  2 31  1  0
  8 32  1  0
  9 33  1  0
 11 34  1  0
 11 35  1  0
 11 36  1  0
 17 37  1  0
 18 38  1  0
 20 39  1  0
 20 40  1  0
 20 41  1  0
 26 42  1  0
 27 43  1  0
M  CHG  4   1   3   5  -1  14  -1  23  -1
M  END
$$$$
