
     RDKit          3D

 50 52  0  0  0  0  0  0  0  0999 V2000
   -4.0826    4.1605   -0.9028 C   0  0  0  0  0  0  0  0  0  0  0  0
   -4.6641    2.9373   -0.4629 O   0  0  0  0  0  0  0  0  0  0  0  0
   -3.9493    1.7504   -0.2310 C   0  0  0  0  0  0  0  0  0  0  0  0
   -2.5591    1.6738   -0.4211 C   0  0  0  0  0  0  0  0  0  0  0  0
   -1.8663    0.4818   -0.1864 C   0  0  0  0  0  0  0  0  0  0  0  0
   -0.4402    0.4463   -0.3934 N   0  0  0  0  0  0  0  0  0  0  0  0
    0.3699   -0.7652   -0.2315 C   0  0  0  0  0  0  0  0  0  0  0  0
    1.8023   -0.5284   -0.6774 C   0  0  0  0  0  0  0  0  0  0  0  0
    2.9275   -0.7891    0.1557 C   0  0  0  0  0  0  0  0  0  0  0  0
    2.7470   -1.6499    1.3882 C   0  0  0  0  0  0  0  0  0  0  0  0
    4.2223   -0.3615   -0.2770 C   0  0  0  0  0  0  0  0  0  0  0  0
    4.3898    0.0303   -1.6293 C   0  0  0  0  0  0  0  0  0  0  0  0
    3.2881    0.1596   -2.4712 C   0  0  0  0  0  0  0  0  0  0  0  0
    2.0070   -0.0773   -1.9899 C   0  0  0  0  0  0  0  0  0  0  0  0
    5.6281    0.2802   -2.1256 N   0  0  0  0  0  0  0  0  0  0  0  0
    6.7287    0.1988   -1.3415 C   0  0  0  0  0  0  0  0  0  0  0  0
    8.0190    0.4490   -1.8932 N   0  0  0  0  0  0  0  0  0  0  0  0
    6.5955   -0.0684   -0.0201 N   0  0  0  0  0  0  0  0  0  0  0  0
    5.3845   -0.3164    0.5452 C   0  0  0  0  0  0  0  0  0  0  0  0
    5.3206   -0.3646    1.9734 N   0  0  0  0  0  0  0  0  0  0  0  0
   -2.5795   -0.6467    0.2490 C   0  0  0  0  0  0  0  0  0  0  0  0
   -3.9737   -0.5940    0.4470 C   0  0  0  0  0  0  0  0  0  0  0  0
   -4.6819   -1.7258    0.8823 O   0  0  0  0  0  0  0  0  0  0  0  0
   -4.1043   -2.9977    1.1604 C   0  0  0  0  0  0  0  0  0  0  0  0
   -4.6630    0.6214    0.2019 C   0  0  0  0  0  0  0  0  0  0  0  0
   -6.0528    0.7793    0.3679 O   0  0  0  0  0  0  0  0  0  0  0  0
   -6.9764   -0.2165    0.7933 C   0  0  0  0  0  0  0  0  0  0  0  0
   -3.6014    4.0201   -1.8938 H   0  0  0  0  0  0  0  0  0  0  0  0
   -3.3369    4.5175   -0.1614 H   0  0  0  0  0  0  0  0  0  0  0  0
   -4.8795    4.9257   -1.0009 H   0  0  0  0  0  0  0  0  0  0  0  0
   -2.0054    2.5407   -0.7554 H   0  0  0  0  0  0  0  0  0  0  0  0
    0.0399    1.3420   -0.6424 H   0  0  0  0  0  0  0  0  0  0  0  0
   -0.0530   -1.5807   -0.8569 H   0  0  0  0  0  0  0  0  0  0  0  0
    0.3041   -1.0720    0.8306 H   0  0  0  0  0  0  0  0  0  0  0  0
    2.3823   -1.0361    2.2381 H   0  0  0  0  0  0  0  0  0  0  0  0
    2.0203   -2.4652    1.1891 H   0  0  0  0  0  0  0  0  0  0  0  0
    3.6796   -2.1819    1.6624 H   0  0  0  0  0  0  0  0  0  0  0  0
    3.4211    0.4743   -3.4992 H   0  0  0  0  0  0  0  0  0  0  0  0
    1.1642    0.0721   -2.6543 H   0  0  0  0  0  0  0  0  0  0  0  0
    8.1258    0.6749   -2.9071 H   0  0  0  0  0  0  0  0  0  0  0  0
    8.8696    0.4071   -1.2890 H   0  0  0  0  0  0  0  0  0  0  0  0
    6.1978   -0.4931    2.5251 H   0  0  0  0  0  0  0  0  0  0  0  0
    4.4768   -0.0332    2.4885 H   0  0  0  0  0  0  0  0  0  0  0  0
   -2.0497   -1.5671    0.4391 H   0  0  0  0  0  0  0  0  0  0  0  0
   -4.9044   -3.6949    1.4830 H   0  0  0  0  0  0  0  0  0  0  0  0
   -3.6243   -3.4078    0.2468 H   0  0  0  0  0  0  0  0  0  0  0  0
   -3.3603   -2.9089    1.9800 H   0  0  0  0  0  0  0  0  0  0  0  0
   -7.9931    0.2262    0.8195 H   0  0  0  0  0  0  0  0  0  0  0  0
   -6.9867   -1.0637    0.0758 H   0  0  0  0  0  0  0  0  0  0  0  0
   -6.7240   -0.5634    1.8173 H   0  0  0  0  0  0  0  0  0  0  0  0
  1  2  1  0
  2  3  1  0
  3  4  2  0
  4  5  1  0
  5  6  1  0
  6  7  1  0
  7  8  1  0
  8  9  2  0
  9 10  1  0
  9 11  1  0
 11 12  2  0
 12 13  1  0
 13 14  2  0
 12 15  1  0
 15 16  2  0
 16 17  1  0
 16 18  1  0
 18 19  2  0
 19 20  1  0
  5 21  2  0
 21 22  1  0
 22 23  1  0
 23 24  1  0
 22 25  2  0
 25 26  1  0
 26 27  1  0
 25  3  1  0
 14  8  1  0
 19 11  1  0
  1 28  1  0
  1 29  1  0
  1 30  1  0
  4 31  1  0
  6 32  1  0
  7 33  1  0
  7 34  1  0
 10 35  1  0
 10 36  1  0
 10 37  1  0
 13 38  1  0
 14 39  1  0
 17 40  1  0
 17 41  1  0
 20 42  1  0
 20 43  1  0
 21 44  1  0
 24 45  1  0
 24 46  1  0
 24 47  1  0
 27 48  1  0
 27 49  1  0
 27 50  1  0
M  END
$$$$
