
     RDKit          3D

 45 47  0  0  0  0  0  0  0  0999 V2000
   -4.2967    1.1655    0.3243 C   0  0  0  0  0  0  0  0  0  0  0  0
   -3.0477    1.3427   -0.5609 C   0  0  0  0  0  0  0  0  0  0  0  0
   -2.8258    2.8508   -0.7987 C   0  0  0  0  0  0  0  0  0  0  0  0
   -3.2592    0.6592   -1.9265 C   0  0  0  0  0  0  0  0  0  0  0  0
   -1.8585    0.7843    0.1133 N   0  0  0  0  0  0  0  0  0  0  0  0
   -1.5997   -0.6250    0.2780 C   0  0  0  0  0  0  0  0  0  0  0  0
   -2.6424   -1.4793    0.4571 N   0  0  0  0  0  0  0  0  0  0  0  0
   -2.4609   -2.8097    0.6577 C   0  0  0  0  0  0  0  0  0  0  0  0
   -1.2034   -3.3158    0.7217 N   0  0  0  0  0  0  0  0  0  0  0  0
   -0.1174   -2.5212    0.5453 C   0  0  0  0  0  0  0  0  0  0  0  0
   -0.2821   -1.1390    0.3031 C   0  0  0  0  0  0  0  0  0  0  0  0
    0.8589   -0.3452    0.0685 C   0  0  0  0  0  0  0  0  0  0  0  0
    2.1480   -0.9087    0.1148 C   0  0  0  0  0  0  0  0  0  0  0  0
    2.2868   -2.2806    0.3854 C   0  0  0  0  0  0  0  0  0  0  0  0
    1.1622   -3.0798    0.5938 C   0  0  0  0  0  0  0  0  0  0  0  0
    3.3471   -0.0651   -0.1251 C   0  0  0  0  0  0  0  0  0  0  0  0
    4.4149   -0.5461   -0.9047 C   0  0  0  0  0  0  0  0  0  0  0  0
    5.5409    0.2497   -1.1305 C   0  0  0  0  0  0  0  0  0  0  0  0
    5.6164    1.5316   -0.5823 C   0  0  0  0  0  0  0  0  0  0  0  0
    4.5632    2.0269    0.1974 C   0  0  0  0  0  0  0  0  0  0  0  0
    4.6424    3.3385    0.7621 N   0  0  0  0  0  0  0  0  0  0  0  0
    3.4325    1.2284    0.4238 C   0  0  0  0  0  0  0  0  0  0  0  0
   -3.6407   -3.6985    0.8944 C   0  0  0  0  0  0  0  0  0  0  0  0
   -3.9216   -3.7351    2.2471 F   0  0  0  0  0  0  0  0  0  0  0  0
   -4.7441   -3.2155    0.2137 F   0  0  0  0  0  0  0  0  0  0  0  0
   -3.3674   -4.9802    0.4514 F   0  0  0  0  0  0  0  0  0  0  0  0
   -4.1052    1.5644    1.3436 H   0  0  0  0  0  0  0  0  0  0  0  0
   -4.5899    0.1004    0.4132 H   0  0  0  0  0  0  0  0  0  0  0  0
   -5.1633    1.7100   -0.1095 H   0  0  0  0  0  0  0  0  0  0  0  0
   -3.6947    3.3037   -1.3237 H   0  0  0  0  0  0  0  0  0  0  0  0
   -2.6873    3.3812    0.1682 H   0  0  0  0  0  0  0  0  0  0  0  0
   -1.9176    3.0148   -1.4184 H   0  0  0  0  0  0  0  0  0  0  0  0
   -3.5002   -0.4173   -1.8053 H   0  0  0  0  0  0  0  0  0  0  0  0
   -4.1005    1.1339   -2.4764 H   0  0  0  0  0  0  0  0  0  0  0  0
   -2.3398    0.7432   -2.5451 H   0  0  0  0  0  0  0  0  0  0  0  0
   -1.1587    1.4552    0.5024 H   0  0  0  0  0  0  0  0  0  0  0  0
    0.7612    0.6995   -0.1892 H   0  0  0  0  0  0  0  0  0  0  0  0
    3.2679   -2.7350    0.4430 H   0  0  0  0  0  0  0  0  0  0  0  0
    1.2880   -4.1375    0.7904 H   0  0  0  0  0  0  0  0  0  0  0  0
    4.3713   -1.5302   -1.3540 H   0  0  0  0  0  0  0  0  0  0  0  0
    6.3556   -0.1272   -1.7353 H   0  0  0  0  0  0  0  0  0  0  0  0
    6.4943    2.1385   -0.7648 H   0  0  0  0  0  0  0  0  0  0  0  0
    5.4805    3.9404    0.6007 H   0  0  0  0  0  0  0  0  0  0  0  0
    3.8633    3.7178    1.3452 H   0  0  0  0  0  0  0  0  0  0  0  0
    2.6294    1.6115    1.0417 H   0  0  0  0  0  0  0  0  0  0  0  0
  1  2  1  0
  2  3  1  0
  2  4  1  0
  2  5  1  0
  5  6  1  0
  6  7  2  0
  7  8  1  0
  8  9  2  0
  9 10  1  0
 10 11  2  0
 11 12  1  0
 12 13  2  0
 13 14  1  0
 14 15  2  0
 13 16  1  0
 16 17  2  0
 17 18  1  0
 18 19  2  0
 19 20  1  0
 20 21  1  0
 20 22  2  0
  8 23  1  0
 23 24  1  0
 23 25  1  0
 23 26  1  0
 11  6  1  0
 22 16  1  0
 15 10  1  0
  1 27  1  0
  1 28  1  0
  1 29  1  0
  3 30  1  0
  3 31  1  0
  3 32  1  0
  4 33  1  0
  4 34  1  0
  4 35  1  0
  5 36  1  0
 12 37  1  0
 14 38  1  0
 15 39  1  0
 17 40  1  0
 18 41  1  0
 19 42  1  0
 21 43  1  0
 21 44  1  0
 22 45  1  0
M  END
$$$$
