
     RDKit          3D

 56 57  0  0  0  0  0  0  0  0999 V2000
    6.3808    3.9271    0.8966 C   0  0  0  0  0  0  0  0  0  0  0  0
    6.6175    2.4354    1.0686 C   0  0  0  0  0  0  0  0  0  0  0  0
    5.6415    1.7106    0.3247 O   0  0  0  0  0  0  0  0  0  0  0  0
    5.5665    0.3102    0.2622 C   0  0  0  0  0  0  0  0  0  0  0  0
    6.4764   -0.5185    0.9483 C   0  0  0  0  0  0  0  0  0  0  0  0
    6.3683   -1.9077    0.8612 C   0  0  0  0  0  0  0  0  0  0  0  0
    5.3581   -2.4835    0.0913 C   0  0  0  0  0  0  0  0  0  0  0  0
    4.4507   -1.6732   -0.5941 C   0  0  0  0  0  0  0  0  0  0  0  0
    4.5458   -0.2689   -0.5109 C   0  0  0  0  0  0  0  0  0  0  0  0
    3.6570    0.5883   -1.1830 O   0  0  0  0  0  0  0  0  0  0  0  0
    2.4985    0.1817   -1.9117 C   0  0  0  0  0  0  0  0  0  0  0  0
    1.3687   -0.2079   -0.9569 C   0  0  0  0  0  0  0  0  0  0  0  0
    0.1740   -0.5807   -1.7257 N   0  0  0  0  0  0  0  0  0  0  0  0
   -1.0134   -0.7669   -0.8695 C   0  0  2  0  0  0  0  0  0  0  0  0
   -1.0019   -2.1478   -0.1840 C   0  0  0  0  0  0  0  0  0  0  0  0
   -2.2726   -0.5900   -1.7402 C   0  0  0  0  0  0  0  0  0  0  0  0
   -3.5366   -0.5387   -0.9175 C   0  0  0  0  0  0  0  0  0  0  0  0
   -3.8706    0.6258   -0.2110 C   0  0  0  0  0  0  0  0  0  0  0  0
   -5.0311    0.6772    0.5776 C   0  0  0  0  0  0  0  0  0  0  0  0
   -5.8714   -0.4502    0.6583 C   0  0  0  0  0  0  0  0  0  0  0  0
   -7.0320   -0.3776    1.4465 O   0  0  0  0  0  0  0  0  0  0  0  0
   -7.9634   -1.4413    1.6145 C   0  0  0  0  0  0  0  0  0  0  0  0
   -5.5288   -1.6180   -0.0500 C   0  0  0  0  0  0  0  0  0  0  0  0
   -4.3709   -1.6606   -0.8277 C   0  0  0  0  0  0  0  0  0  0  0  0
   -5.4468    2.1489    1.4673 S   0  0  0  0  0  6  0  0  0  0  0  0
   -4.2280    3.3681    1.3118 N   0  0  0  0  0  0  0  0  0  0  0  0
   -5.6042    1.8149    2.9241 O   0  0  0  0  0  0  0  0  0  0  0  0
   -6.7440    2.6925    0.9382 O   0  0  0  0  0  0  0  0  0  0  0  0
    7.1390    4.4963    1.4747 H   0  0  0  0  0  0  0  0  0  0  0  0
    6.4626    4.2030   -0.1761 H   0  0  0  0  0  0  0  0  0  0  0  0
    5.3685    4.1956    1.2662 H   0  0  0  0  0  0  0  0  0  0  0  0
    6.5380    2.1767    2.1467 H   0  0  0  0  0  0  0  0  0  0  0  0
    7.6354    2.1839    0.6997 H   0  0  0  0  0  0  0  0  0  0  0  0
    7.2700   -0.0990    1.5512 H   0  0  0  0  0  0  0  0  0  0  0  0
    7.0702   -2.5390    1.3907 H   0  0  0  0  0  0  0  0  0  0  0  0
    5.2786   -3.5610    0.0240 H   0  0  0  0  0  0  0  0  0  0  0  0
    3.6837   -2.1520   -1.1855 H   0  0  0  0  0  0  0  0  0  0  0  0
    2.1590    1.0414   -2.5278 H   0  0  0  0  0  0  0  0  0  0  0  0
    2.7441   -0.6470   -2.6094 H   0  0  0  0  0  0  0  0  0  0  0  0
    1.6967   -1.0531   -0.3168 H   0  0  0  0  0  0  0  0  0  0  0  0
    1.1512    0.6677   -0.3060 H   0  0  0  0  0  0  0  0  0  0  0  0
    0.3700   -1.4626   -2.2568 H   0  0  0  0  0  0  0  0  0  0  0  0
   -1.0369    0.0174   -0.0786 H   0  0  0  0  0  0  0  0  0  0  0  0
   -1.8780   -2.2538    0.4891 H   0  0  0  0  0  0  0  0  0  0  0  0
   -0.0936   -2.2694    0.4399 H   0  0  0  0  0  0  0  0  0  0  0  0
   -1.0301   -2.9619   -0.9394 H   0  0  0  0  0  0  0  0  0  0  0  0
   -2.3288   -1.4081   -2.4923 H   0  0  0  0  0  0  0  0  0  0  0  0
   -2.1865    0.3598   -2.3129 H   0  0  0  0  0  0  0  0  0  0  0  0
   -3.2185    1.4849   -0.2817 H   0  0  0  0  0  0  0  0  0  0  0  0
   -8.4031   -1.7222    0.6342 H   0  0  0  0  0  0  0  0  0  0  0  0
   -8.7795   -1.1051    2.2862 H   0  0  0  0  0  0  0  0  0  0  0  0
   -7.4623   -2.3184    2.0756 H   0  0  0  0  0  0  0  0  0  0  0  0
   -6.1508   -2.5013   -0.0048 H   0  0  0  0  0  0  0  0  0  0  0  0
   -4.1227   -2.5720   -1.3576 H   0  0  0  0  0  0  0  0  0  0  0  0
   -4.1422    3.6009    0.2971 H   0  0  0  0  0  0  0  0  0  0  0  0
   -3.3222    2.9493    1.6205 H   0  0  0  0  0  0  0  0  0  0  0  0
  1  2  1  0
  2  3  1  0
  3  4  1  0
  4  5  2  0
  5  6  1  0
  6  7  2  0
  7  8  1  0
  8  9  2  0
  9 10  1  0
 10 11  1  0
 11 12  1  0
 12 13  1  0
 13 14  1  0
 14 15  1  0
 14 16  1  0
 16 17  1  0
 17 18  2  0
 18 19  1  0
 19 20  2  0
 20 21  1  0
 21 22  1  0
 20 23  1  0
 23 24  2  0
 19 25  1  0
 25 26  1  0
 25 27  2  0
 25 28  2  0
  9  4  1  0
 24 17  1  0
  1 29  1  0
  1 30  1  0
  1 31  1  0
  2 32  1  0
  2 33  1  0
  5 34  1  0
  6 35  1  0
  7 36  1  0
  8 37  1  0
 11 38  1  0
 11 39  1  0
 12 40  1  0
 12 41  1  0
 13 42  1  0
 14 43  1  1
 15 44  1  0
 15 45  1  0
 15 46  1  0
 16 47  1  0
 16 48  1  0
 18 49  1  0
 22 50  1  0
 22 51  1  0
 22 52  1  0
 23 53  1  0
 24 54  1  0
 26 55  1  0
 26 56  1  0
M  END
$$$$
