
     RDKit          3D

 61 62  0  0  0  0  0  0  0  0999 V2000
    1.8516   -4.3776    0.1464 C   0  0  0  0  0  0  0  0  0  0  0  0
    0.9384   -3.3182   -0.4862 C   0  0  0  0  0  0  0  0  0  0  0  0
    0.7142   -3.6188   -1.9711 C   0  0  0  0  0  0  0  0  0  0  0  0
    1.5065   -1.9190   -0.3201 C   0  0  0  0  0  0  0  0  0  0  0  0
    2.8549   -1.7512   -0.3921 N   0  0  0  0  0  0  0  0  0  0  0  0
    3.4360   -0.5261   -0.3240 C   0  0  0  0  0  0  0  0  0  0  0  0
    2.6548    0.5727   -0.1741 N   0  0  0  0  0  0  0  0  0  0  0  0
    1.3014    0.4886   -0.1032 C   0  0  0  0  0  0  0  0  0  0  0  0
    0.5384    1.7408    0.1058 C   0  0  0  0  0  0  0  0  0  0  0  0
    0.8150    2.8675   -0.6860 C   0  0  0  0  0  0  0  0  0  0  0  0
    0.1058    4.0570   -0.4926 C   0  0  0  0  0  0  0  0  0  0  0  0
   -0.8739    4.1358    0.5013 C   0  0  0  0  0  0  0  0  0  0  0  0
   -1.5617    5.2894    0.6858 F   0  0  0  0  0  0  0  0  0  0  0  0
   -1.1389    3.0274    1.3099 C   0  0  0  0  0  0  0  0  0  0  0  0
   -0.4321    1.8363    1.1197 C   0  0  0  0  0  0  0  0  0  0  0  0
    0.6779   -0.7777   -0.2129 C   0  0  0  0  0  0  0  0  0  0  0  0
   -0.7952   -0.9035   -0.2692 C   0  0  0  0  0  0  0  0  0  0  0  0
   -1.5061   -0.3050   -1.2321 C   0  0  0  0  0  0  0  0  0  0  0  0
   -3.0116   -0.3644   -1.2860 C   0  0  1  0  0  0  0  0  0  0  0  0
   -3.4556   -1.6952   -1.3924 O   0  0  0  0  0  0  0  0  0  0  0  0
   -3.6399    0.3689   -0.0804 C   0  0  0  0  0  0  0  0  0  0  0  0
   -5.1748    0.4674   -0.1813 C   0  0  1  0  0  0  0  0  0  0  0  0
   -5.7464   -0.8025    0.0050 O   0  0  0  0  0  0  0  0  0  0  0  0
   -5.7470    1.4639    0.8467 C   0  0  0  0  0  0  0  0  0  0  0  0
   -5.4840    1.0417    2.2613 C   0  0  0  0  0  0  0  0  0  0  0  0
   -6.2574    0.2269    2.8321 O   0  0  0  0  0  0  0  0  0  0  0  0
   -4.3644    1.5247    2.9317 O   0  0  0  0  0  0  0  0  0  0  0  0
    4.8675   -0.3972   -0.3964 N   0  0  0  0  0  0  0  0  0  0  0  0
    5.7064   -1.5965   -0.3950 C   0  0  0  0  0  0  0  0  0  0  0  0
    5.6052    1.1812   -0.4108 S   0  0  0  0  0  6  0  0  0  0  0  0
    5.5986    1.8516    1.2362 C   0  0  0  0  0  0  0  0  0  0  0  0
    7.0229    1.0896   -0.9022 O   0  0  0  0  0  0  0  0  0  0  0  0
    4.8401    2.0907   -1.3311 O   0  0  0  0  0  0  0  0  0  0  0  0
    2.8306   -4.4258   -0.3777 H   0  0  0  0  0  0  0  0  0  0  0  0
    1.3714   -5.3779    0.0887 H   0  0  0  0  0  0  0  0  0  0  0  0
    2.0270   -4.1388    1.2173 H   0  0  0  0  0  0  0  0  0  0  0  0
   -0.0385   -3.3983    0.0352 H   0  0  0  0  0  0  0  0  0  0  0  0
    0.2727   -4.6306   -2.0952 H   0  0  0  0  0  0  0  0  0  0  0  0
    1.6744   -3.5745   -2.5291 H   0  0  0  0  0  0  0  0  0  0  0  0
    0.0109   -2.8792   -2.4101 H   0  0  0  0  0  0  0  0  0  0  0  0
    1.5692    2.8205   -1.4622 H   0  0  0  0  0  0  0  0  0  0  0  0
    0.3165    4.9175   -1.1144 H   0  0  0  0  0  0  0  0  0  0  0  0
   -1.8911    3.0900    2.0857 H   0  0  0  0  0  0  0  0  0  0  0  0
   -0.6382    0.9930    1.7669 H   0  0  0  0  0  0  0  0  0  0  0  0
   -1.2915   -1.4998    0.4851 H   0  0  0  0  0  0  0  0  0  0  0  0
   -0.9915    0.2634   -1.9986 H   0  0  0  0  0  0  0  0  0  0  0  0
   -3.3254    0.1686   -2.2097 H   0  0  0  0  0  0  0  0  0  0  0  0
   -3.3087   -2.1399   -0.5174 H   0  0  0  0  0  0  0  0  0  0  0  0
   -3.3582   -0.1442    0.8651 H   0  0  0  0  0  0  0  0  0  0  0  0
   -3.2183    1.3977   -0.0448 H   0  0  0  0  0  0  0  0  0  0  0  0
   -5.4326    0.8486   -1.1974 H   0  0  0  0  0  0  0  0  0  0  0  0
   -6.6740   -0.7543   -0.3458 H   0  0  0  0  0  0  0  0  0  0  0  0
   -5.3068    2.4705    0.6771 H   0  0  0  0  0  0  0  0  0  0  0  0
   -6.8441    1.5583    0.6937 H   0  0  0  0  0  0  0  0  0  0  0  0
   -4.1628    1.2364    3.8816 H   0  0  0  0  0  0  0  0  0  0  0  0
    5.4786   -2.2125    0.5006 H   0  0  0  0  0  0  0  0  0  0  0  0
    5.5081   -2.1927   -1.3105 H   0  0  0  0  0  0  0  0  0  0  0  0
    6.7843   -1.3384   -0.3674 H   0  0  0  0  0  0  0  0  0  0  0  0
    6.1540    1.1715    1.9144 H   0  0  0  0  0  0  0  0  0  0  0  0
    6.0846    2.8490    1.2339 H   0  0  0  0  0  0  0  0  0  0  0  0
    4.5528    1.9526    1.5928 H   0  0  0  0  0  0  0  0  0  0  0  0
  1  2  1  0
  2  3  1  0
  2  4  1  0
  4  5  2  0
  5  6  1  0
  6  7  2  0
  7  8  1  0
  8  9  1  0
  9 10  2  0
 10 11  1  0
 11 12  2  0
 12 13  1  0
 12 14  1  0
 14 15  2  0
  8 16  2  0
 16 17  1  0
 17 18  2  0
 18 19  1  0
 19 20  1  0
 19 21  1  0
 21 22  1  0
 22 23  1  0
 22 24  1  0
 24 25  1  0
 25 26  2  0
 25 27  1  0
  6 28  1  0
 28 29  1  0
 28 30  1  0
 30 31  1  0
 30 32  2  0
 30 33  2  0
 16  4  1  0
 15  9  1  0
  1 34  1  0
  1 35  1  0
  1 36  1  0
  2 37  1  0
  3 38  1  0
  3 39  1  0
  3 40  1  0
 10 41  1  0
 11 42  1  0
 14 43  1  0
 15 44  1  0
 17 45  1  0
 18 46  1  0
 19 47  1  6
 20 48  1  0
 21 49  1  0
 21 50  1  0
 22 51  1  6
 23 52  1  0
 24 53  1  0
 24 54  1  0
 27 55  1  0
 29 56  1  0
 29 57  1  0
 29 58  1  0
 31 59  1  0
 31 60  1  0
 31 61  1  0
M  END
$$$$
