
     RDKit          3D

 51 51  0  0  0  0  0  0  0  0999 V2000
   -4.5306   -2.0123    0.4149 C   0  0  1  0  0  0  0  0  0  0  0  0
   -4.5351   -3.3013    1.1086 N   0  0  0  0  0  0  0  0  0  0  0  0
   -3.1014   -1.4359    0.3886 C   0  0  0  0  0  0  0  0  0  0  0  0
   -3.0592   -0.0100   -0.1776 C   0  0  0  0  0  0  0  0  0  0  0  0
   -1.6643    0.5341   -0.1207 C   0  0  0  0  0  0  0  0  0  0  0  0
   -1.3377    1.3100    0.8184 O   0  0  0  0  0  0  0  0  0  0  0  0
   -0.6983    0.1412   -1.1060 N   0  0  0  0  0  0  0  0  0  0  0  0
    0.6807    0.6394   -1.0827 C   0  0  1  0  0  0  0  0  0  0  0  0
    1.5923   -0.2149   -1.9784 C   0  0  0  0  0  0  0  0  0  0  0  0
    1.6297   -1.9709   -1.4570 S   0  0  0  0  0  0  0  0  0  0  0  0
    2.6829   -1.7080   -0.0175 C   0  0  0  0  0  0  0  0  0  0  0  0
    2.1559   -1.5742    1.2889 C   0  0  0  0  0  0  0  0  0  0  0  0
    3.0296   -1.2841    2.3513 C   0  0  0  0  0  0  0  0  0  0  0  0
    4.4150   -1.1643    2.1405 C   0  0  0  0  0  0  0  0  0  0  0  0
    4.9223   -1.3381    0.8442 C   0  0  0  0  0  0  0  0  0  0  0  0
    4.0639   -1.6087   -0.2214 C   0  0  0  0  0  0  0  0  0  0  0  0
    5.3033   -0.8756    3.2361 N   0  0  0  0  0  4  0  0  0  0  0  0
    6.6590   -0.7651    3.0266 O   0  0  0  0  0  1  0  0  0  0  0  0
    4.8593   -0.7177    4.3924 O   0  0  0  0  0  0  0  0  0  0  0  0
    0.7506   -1.7246    1.5582 N   0  0  0  0  0  4  0  0  0  0  0  0
    0.1761   -1.0562    2.6149 O   0  0  0  0  0  1  0  0  0  0  0  0
    0.0738   -2.5771    0.9483 O   0  0  0  0  0  0  0  0  0  0  0  0
    0.7155    2.0711   -1.5437 C   0  0  0  0  0  0  0  0  0  0  0  0
    0.0394    2.4202   -2.5503 O   0  0  0  0  0  0  0  0  0  0  0  0
    1.5469    3.0248   -0.8670 N   0  0  0  0  0  0  0  0  0  0  0  0
    1.5698    4.4390   -1.2299 C   0  0  0  0  0  0  0  0  0  0  0  0
    0.3015    5.1021   -0.7979 C   0  0  0  0  0  0  0  0  0  0  0  0
   -0.6866    5.3888   -1.7343 O   0  0  0  0  0  0  0  0  0  0  0  0
    0.1147    5.3723    0.4185 O   0  0  0  0  0  0  0  0  0  0  0  0
   -5.0619   -2.1903   -0.9813 C   0  0  0  0  0  0  0  0  0  0  0  0
   -6.0855   -1.3681   -1.4418 O   0  0  0  0  0  0  0  0  0  0  0  0
   -4.5703   -3.0674   -1.7420 O   0  0  0  0  0  0  0  0  0  0  0  0
   -5.1939   -1.3068    0.9660 H   0  0  0  0  0  0  0  0  0  0  0  0
   -5.5212   -3.6493    1.1505 H   0  0  0  0  0  0  0  0  0  0  0  0
   -4.2462   -3.1435    2.1016 H   0  0  0  0  0  0  0  0  0  0  0  0
   -2.4418   -2.0992   -0.2140 H   0  0  0  0  0  0  0  0  0  0  0  0
   -2.7034   -1.4143    1.4275 H   0  0  0  0  0  0  0  0  0  0  0  0
   -3.4031   -0.0056   -1.2341 H   0  0  0  0  0  0  0  0  0  0  0  0
   -3.7384    0.6479    0.4077 H   0  0  0  0  0  0  0  0  0  0  0  0
   -1.0018   -0.5058   -1.8693 H   0  0  0  0  0  0  0  0  0  0  0  0
    1.0646    0.5894   -0.0426 H   0  0  0  0  0  0  0  0  0  0  0  0
    1.2241   -0.1787   -3.0264 H   0  0  0  0  0  0  0  0  0  0  0  0
    2.6254    0.1957   -1.9731 H   0  0  0  0  0  0  0  0  0  0  0  0
    2.6287   -1.1725    3.3505 H   0  0  0  0  0  0  0  0  0  0  0  0
    5.9841   -1.2569    0.6508 H   0  0  0  0  0  0  0  0  0  0  0  0
    4.4747   -1.7208   -1.2171 H   0  0  0  0  0  0  0  0  0  0  0  0
    2.1654    2.7014   -0.0891 H   0  0  0  0  0  0  0  0  0  0  0  0
    2.4269    4.9365   -0.7269 H   0  0  0  0  0  0  0  0  0  0  0  0
    1.7102    4.5477   -2.3269 H   0  0  0  0  0  0  0  0  0  0  0  0
   -1.5572    5.8243   -1.4539 H   0  0  0  0  0  0  0  0  0  0  0  0
   -6.4483   -1.4676   -2.3823 H   0  0  0  0  0  0  0  0  0  0  0  0
  1  2  1  0
  1  3  1  0
  3  4  1  0
  4  5  1  0
  5  6  2  0
  5  7  1  0
  7  8  1  0
  8  9  1  0
  9 10  1  0
 10 11  1  0
 11 12  2  0
 12 13  1  0
 13 14  2  0
 14 15  1  0
 15 16  2  0
 14 17  1  0
 17 18  1  0
 17 19  2  0
 12 20  1  0
 20 21  1  0
 20 22  2  0
  8 23  1  0
 23 24  2  0
 23 25  1  0
 25 26  1  0
 26 27  1  0
 27 28  1  0
 27 29  2  0
  1 30  1  0
 30 31  1  0
 30 32  2  0
 16 11  1  0
  1 33  1  1
  2 34  1  0
  2 35  1  0
  3 36  1  0
  3 37  1  0
  4 38  1  0
  4 39  1  0
  7 40  1  0
  8 41  1  1
  9 42  1  0
  9 43  1  0
 13 44  1  0
 15 45  1  0
 16 46  1  0
 25 47  1  0
 26 48  1  0
 26 49  1  0
 28 50  1  0
 31 51  1  0
M  CHG  4  17   1  18  -1  20   1  21  -1
M  END
$$$$
