
     RDKit          3D

 63 64  0  0  0  0  0  0  0  0999 V2000
   -2.3748    1.2583   -0.6084 C   0  0  1  0  0  0  0  0  0  0  0  0
   -3.1985    0.2137   -1.3910 C   0  0  0  0  0  0  0  0  0  0  0  0
   -4.5686    0.0336   -0.7890 C   0  0  0  0  0  0  0  0  0  0  0  0
   -5.6018    0.9334   -1.1003 C   0  0  0  0  0  0  0  0  0  0  0  0
   -6.8636    0.7865   -0.5159 C   0  0  0  0  0  0  0  0  0  0  0  0
   -7.1004   -0.2531    0.3877 C   0  0  0  0  0  0  0  0  0  0  0  0
   -6.0750   -1.1461    0.7104 C   0  0  0  0  0  0  0  0  0  0  0  0
   -4.8119   -1.0032    0.1279 C   0  0  0  0  0  0  0  0  0  0  0  0
   -2.2072    0.8541    0.7931 N   0  0  0  0  0  0  0  0  0  0  0  0
   -1.3808   -0.2360    1.2239 C   0  0  0  0  0  0  0  0  0  0  0  0
   -0.8108   -0.9797    0.3795 O   0  0  0  0  0  0  0  0  0  0  0  0
   -1.2121   -0.4629    2.5938 O   0  0  0  0  0  0  0  0  0  0  0  0
   -0.3125   -1.4365    3.1198 C   0  0  0  0  0  0  0  0  0  0  0  0
    1.1273   -0.9484    3.0095 C   0  0  0  0  0  0  0  0  0  0  0  0
   -1.0251    1.5317   -1.2382 C   0  0  0  0  0  0  0  0  0  0  0  0
   -0.5562    0.7279   -2.0910 O   0  0  0  0  0  0  0  0  0  0  0  0
   -0.2346    2.6638   -0.8279 N   0  0  0  0  0  0  0  0  0  0  0  0
   -0.7386    3.7632   -0.0194 C   0  0  0  0  0  0  0  0  0  0  0  0
    0.4523    4.6842    0.2165 C   0  0  0  0  0  0  0  0  0  0  0  0
    1.5054    4.2776   -0.8113 C   0  0  0  0  0  0  0  0  0  0  0  0
    1.1546    2.8460   -1.2216 C   0  0  1  0  0  0  0  0  0  0  0  0
    2.0231    1.8361   -0.5156 C   0  0  0  0  0  0  0  0  0  0  0  0
    2.0425    1.7975    0.7451 O   0  0  0  0  0  0  0  0  0  0  0  0
    2.8056    0.9045   -1.2680 N   0  0  0  0  0  0  0  0  0  0  0  0
    3.5284   -0.1075   -0.6134 N   0  0  0  0  0  0  0  0  0  0  0  0
    2.8418   -1.3819   -0.8420 C   0  0  0  0  0  0  0  0  0  0  0  0
    3.3904   -2.4726    0.0861 C   0  0  0  0  0  0  0  0  0  0  0  0
    4.8039   -2.9243   -0.3135 C   0  0  0  0  0  0  0  0  0  0  0  0
    5.3131   -4.0596    0.5821 C   0  0  0  0  0  0  0  0  0  0  0  0
    4.5210   -5.2713    0.3888 N   0  0  0  0  0  0  0  0  0  0  0  0
   -2.9506    2.2097   -0.6338 H   0  0  0  0  0  0  0  0  0  0  0  0
   -2.6670   -0.7619   -1.4203 H   0  0  0  0  0  0  0  0  0  0  0  0
   -3.3082    0.5492   -2.4461 H   0  0  0  0  0  0  0  0  0  0  0  0
   -5.4283    1.7482   -1.7924 H   0  0  0  0  0  0  0  0  0  0  0  0
   -7.6570    1.4807   -0.7609 H   0  0  0  0  0  0  0  0  0  0  0  0
   -8.0772   -0.3645    0.8404 H   0  0  0  0  0  0  0  0  0  0  0  0
   -6.2579   -1.9475    1.4145 H   0  0  0  0  0  0  0  0  0  0  0  0
   -4.0242   -1.6974    0.3935 H   0  0  0  0  0  0  0  0  0  0  0  0
   -2.6851    1.4218    1.5286 H   0  0  0  0  0  0  0  0  0  0  0  0
   -0.5535   -1.6001    4.1912 H   0  0  0  0  0  0  0  0  0  0  0  0
   -0.4338   -2.4046    2.5868 H   0  0  0  0  0  0  0  0  0  0  0  0
    1.2476    0.0055    3.5651 H   0  0  0  0  0  0  0  0  0  0  0  0
    1.8141   -1.7069    3.4405 H   0  0  0  0  0  0  0  0  0  0  0  0
    1.3984   -0.7836    1.9467 H   0  0  0  0  0  0  0  0  0  0  0  0
   -1.1325    3.3894    0.9495 H   0  0  0  0  0  0  0  0  0  0  0  0
   -1.5382    4.2991   -0.5750 H   0  0  0  0  0  0  0  0  0  0  0  0
    0.1675    5.7528    0.1030 H   0  0  0  0  0  0  0  0  0  0  0  0
    0.8537    4.5207    1.2409 H   0  0  0  0  0  0  0  0  0  0  0  0
    2.5343    4.3724   -0.3984 H   0  0  0  0  0  0  0  0  0  0  0  0
    1.4209    4.9439   -1.6981 H   0  0  0  0  0  0  0  0  0  0  0  0
    1.2523    2.7436   -2.3251 H   0  0  0  0  0  0  0  0  0  0  0  0
    2.7746    0.9251   -2.3134 H   0  0  0  0  0  0  0  0  0  0  0  0
    4.4692   -0.1489   -1.0689 H   0  0  0  0  0  0  0  0  0  0  0  0
    1.7574   -1.2641   -0.6217 H   0  0  0  0  0  0  0  0  0  0  0  0
    2.9410   -1.6933   -1.9064 H   0  0  0  0  0  0  0  0  0  0  0  0
    3.3978   -2.0988    1.1331 H   0  0  0  0  0  0  0  0  0  0  0  0
    2.7007   -3.3432    0.0395 H   0  0  0  0  0  0  0  0  0  0  0  0
    5.5074   -2.0700   -0.2176 H   0  0  0  0  0  0  0  0  0  0  0  0
    4.8108   -3.2592   -1.3739 H   0  0  0  0  0  0  0  0  0  0  0  0
    5.2605   -3.7461    1.6480 H   0  0  0  0  0  0  0  0  0  0  0  0
    6.3790   -4.2674    0.3384 H   0  0  0  0  0  0  0  0  0  0  0  0
    4.8663   -5.9883    1.0670 H   0  0  0  0  0  0  0  0  0  0  0  0
    4.7227   -5.6450   -0.5672 H   0  0  0  0  0  0  0  0  0  0  0  0
  1  2  1  0
  2  3  1  0
  3  4  2  0
  4  5  1  0
  5  6  2  0
  6  7  1  0
  7  8  2  0
  1  9  1  0
  9 10  1  0
 10 11  2  0
 10 12  1  0
 12 13  1  0
 13 14  1  0
  1 15  1  0
 15 16  2  0
 15 17  1  0
 17 18  1  0
 18 19  1  0
 19 20  1  0
 20 21  1  0
 21 22  1  0
 22 23  2  0
 22 24  1  0
 24 25  1  0
 25 26  1  0
 26 27  1  0
 27 28  1  0
 28 29  1  0
 29 30  1  0
  8  3  1  0
 21 17  1  0
  1 31  1  1
  2 32  1  0
  2 33  1  0
  4 34  1  0
  5 35  1  0
  6 36  1  0
  7 37  1  0
  8 38  1  0
  9 39  1  0
 13 40  1  0
 13 41  1  0
 14 42  1  0
 14 43  1  0
 14 44  1  0
 18 45  1  0
 18 46  1  0
 19 47  1  0
 19 48  1  0
 20 49  1  0
 20 50  1  0
 21 51  1  6
 24 52  1  0
 25 53  1  0
 26 54  1  0
 26 55  1  0
 27 56  1  0
 27 57  1  0
 28 58  1  0
 28 59  1  0
 29 60  1  0
 29 61  1  0
 30 62  1  0
 30 63  1  0
M  END
$$$$
