
     RDKit          3D

 46 49  0  0  0  0  0  0  0  0999 V2000
   -6.5008   -1.1780   -1.2753 C   0  0  0  0  0  0  0  0  0  0  0  0
   -5.5580   -0.0324   -1.6566 C   0  0  1  0  0  0  0  0  0  0  0  0
   -6.1626    1.3377   -1.3602 C   0  0  0  0  0  0  0  0  0  0  0  0
   -5.2516    2.0891   -0.5803 O   0  0  0  0  0  0  0  0  0  0  0  0
   -4.2566    1.2032   -0.1125 C   0  0  2  0  0  0  0  0  0  0  0  0
   -2.8621    1.8035   -0.3365 C   0  0  0  0  0  0  0  0  0  0  0  0
   -1.7998    0.8129   -0.0632 N   0  0  0  0  0  0  0  0  0  0  0  0
   -0.6116    1.2554    0.4460 C   0  0  0  0  0  0  0  0  0  0  0  0
    0.4668    0.3819    0.6395 C   0  0  0  0  0  0  0  0  0  0  0  0
    1.7369    0.9087    1.1944 C   0  0  0  0  0  0  0  0  0  0  0  0
    1.6991    1.8212    2.0649 O   0  0  0  0  0  0  0  0  0  0  0  0
    3.0045    0.4208    0.7306 N   0  0  0  0  0  0  0  0  0  0  0  0
    4.2546    0.8169    1.3776 C   0  0  0  0  0  0  0  0  0  0  0  0
    5.4294    0.1434    0.7179 C   0  0  0  0  0  0  0  0  0  0  0  0
    5.8980   -1.0881    1.2057 C   0  0  0  0  0  0  0  0  0  0  0  0
    6.9641   -1.7369    0.5754 C   0  0  0  0  0  0  0  0  0  0  0  0
    7.5622   -1.1684   -0.5525 C   0  0  0  0  0  0  0  0  0  0  0  0
    8.5946   -1.8001   -1.1634 F   0  0  0  0  0  0  0  0  0  0  0  0
    7.0909    0.0477   -1.0551 C   0  0  0  0  0  0  0  0  0  0  0  0
    6.0244    0.7015   -0.4287 C   0  0  0  0  0  0  0  0  0  0  0  0
    5.5701    1.8728   -0.9423 F   0  0  0  0  0  0  0  0  0  0  0  0
    0.3011   -0.9758    0.3160 C   0  0  0  0  0  0  0  0  0  0  0  0
    1.2286   -1.8019    0.5350 O   0  0  0  0  0  0  0  0  0  0  0  0
   -0.9119   -1.4238   -0.2276 C   0  0  0  0  0  0  0  0  0  0  0  0
   -1.0850   -2.7713   -0.5557 O   0  0  0  0  0  0  0  0  0  0  0  0
   -1.9619   -0.5047   -0.4243 C   0  0  0  0  0  0  0  0  0  0  0  0
   -3.2667   -0.9297   -0.9829 C   0  0  0  0  0  0  0  0  0  0  0  0
   -3.3980   -2.0199   -1.6020 O   0  0  0  0  0  0  0  0  0  0  0  0
   -4.3793   -0.0418   -0.8360 N   0  0  0  0  0  0  0  0  0  0  0  0
   -6.0348   -2.1556   -1.5165 H   0  0  0  0  0  0  0  0  0  0  0  0
   -6.7312   -1.1498   -0.1884 H   0  0  0  0  0  0  0  0  0  0  0  0
   -7.4480   -1.0942   -1.8493 H   0  0  0  0  0  0  0  0  0  0  0  0
   -5.2736   -0.1067   -2.7299 H   0  0  0  0  0  0  0  0  0  0  0  0
   -6.3605    1.8789   -2.3100 H   0  0  0  0  0  0  0  0  0  0  0  0
   -7.1230    1.2589   -0.8049 H   0  0  0  0  0  0  0  0  0  0  0  0
   -4.4084    1.0135    0.9727 H   0  0  0  0  0  0  0  0  0  0  0  0
   -2.7573    2.6924    0.3249 H   0  0  0  0  0  0  0  0  0  0  0  0
   -2.7704    2.1464   -1.3904 H   0  0  0  0  0  0  0  0  0  0  0  0
   -0.4862    2.3060    0.6851 H   0  0  0  0  0  0  0  0  0  0  0  0
    3.0343   -0.1878   -0.1190 H   0  0  0  0  0  0  0  0  0  0  0  0
    4.2149    0.5403    2.4539 H   0  0  0  0  0  0  0  0  0  0  0  0
    4.3685    1.9212    1.3226 H   0  0  0  0  0  0  0  0  0  0  0  0
    5.4376   -1.5460    2.0724 H   0  0  0  0  0  0  0  0  0  0  0  0
    7.3233   -2.6828    0.9601 H   0  0  0  0  0  0  0  0  0  0  0  0
    7.5495    0.4822   -1.9341 H   0  0  0  0  0  0  0  0  0  0  0  0
   -0.3542   -3.4607   -0.4262 H   0  0  0  0  0  0  0  0  0  0  0  0
  1  2  1  0
  2  3  1  0
  3  4  1  0
  4  5  1  0
  5  6  1  0
  6  7  1  0
  7  8  1  0
  8  9  2  0
  9 10  1  0
 10 11  2  0
 10 12  1  0
 12 13  1  0
 13 14  1  0
 14 15  2  0
 15 16  1  0
 16 17  2  0
 17 18  1  0
 17 19  1  0
 19 20  2  0
 20 21  1  0
  9 22  1  0
 22 23  2  0
 22 24  1  0
 24 25  1  0
 24 26  2  0
 26 27  1  0
 27 28  2  0
 27 29  1  0
 29  2  1  0
 29  5  1  0
 26  7  1  0
 20 14  1  0
  1 30  1  0
  1 31  1  0
  1 32  1  0
  2 33  1  6
  3 34  1  0
  3 35  1  0
  5 36  1  1
  6 37  1  0
  6 38  1  0
  8 39  1  0
 12 40  1  0
 13 41  1  0
 13 42  1  0
 15 43  1  0
 16 44  1  0
 19 45  1  0
 25 46  1  0
M  END
$$$$
