
     RDKit          3D

 33 33  0  0  0  0  0  0  0  0999 V2000
   -1.2328   -2.7558    0.0588 O   0  0  0  0  0  0  0  0  0  0  0  0
   -0.6759   -2.0174   -1.0003 C   0  0  2  0  0  0  0  0  0  0  0  0
    0.8035   -1.6957   -0.6734 C   0  0  1  0  0  0  0  0  0  0  0  0
    1.5547   -1.6122   -1.8583 O   0  0  0  0  0  0  0  0  0  0  0  0
    0.9233   -0.3540    0.0935 C   0  0  2  0  0  0  0  0  0  0  0  0
    2.1361   -0.3627    1.0282 C   0  0  0  0  0  0  0  0  0  0  0  0
    2.2735    0.8855    1.6409 O   0  0  0  0  0  0  0  0  0  0  0  0
    3.8068    1.7441    0.7488 V   0  0  0  0  0  6  0  0  0  0  0  0
    5.4441    0.7131    1.1084 O   0  0  0  0  0  0  0  0  0  0  0  0
    3.5267    1.8202   -0.9848 O   0  0  0  0  0  0  0  0  0  0  0  0
    4.0005    3.3734    1.3758 O   0  0  0  0  0  0  0  0  0  0  0  0
   -0.2481   -0.1278    0.8556 O   0  0  0  0  0  0  0  0  0  0  0  0
   -1.3388    0.2326    0.0176 C   0  0  2  0  0  0  0  0  0  0  0  0
   -2.5119    0.1528    0.8052 O   0  0  0  0  0  0  0  0  0  0  0  0
   -3.5932    1.4092    0.3902 P   0  0  0  0  0  5  0  0  0  0  0  0
   -3.9543    1.3528   -1.2624 O   0  0  0  0  0  0  0  0  0  0  0  0
   -2.9039    2.9090    0.7674 O   0  0  0  0  0  0  0  0  0  0  0  0
   -4.8703    1.2384    1.1807 O   0  0  0  0  0  0  0  0  0  0  0  0
   -1.4848   -0.7233   -1.2119 C   0  0  1  0  0  0  0  0  0  0  0  0
   -1.0283   -0.0871   -2.3791 O   0  0  0  0  0  0  0  0  0  0  0  0
   -2.0633   -3.1762   -0.2869 H   0  0  0  0  0  0  0  0  0  0  0  0
   -0.7188   -2.6323   -1.9306 H   0  0  0  0  0  0  0  0  0  0  0  0
    1.2079   -2.5237   -0.0421 H   0  0  0  0  0  0  0  0  0  0  0  0
    1.7162   -2.5430   -2.1644 H   0  0  0  0  0  0  0  0  0  0  0  0
    1.0798    0.4800   -0.6328 H   0  0  0  0  0  0  0  0  0  0  0  0
    3.0575   -0.5941    0.4536 H   0  0  0  0  0  0  0  0  0  0  0  0
    2.0068   -1.1361    1.8154 H   0  0  0  0  0  0  0  0  0  0  0  0
    5.6081    0.2055    0.2742 H   0  0  0  0  0  0  0  0  0  0  0  0
   -1.1417    1.2738   -0.3395 H   0  0  0  0  0  0  0  0  0  0  0  0
   -4.4908    2.1678   -1.4319 H   0  0  0  0  0  0  0  0  0  0  0  0
   -2.6093    2.8215    1.7089 H   0  0  0  0  0  0  0  0  0  0  0  0
   -2.5541   -1.0079   -1.3542 H   0  0  0  0  0  0  0  0  0  0  0  0
   -1.7250    0.5696   -2.6408 H   0  0  0  0  0  0  0  0  0  0  0  0
  1  2  1  0
  2  3  1  0
  3  4  1  0
  3  5  1  0
  5  6  1  0
  6  7  1  0
  7  8  1  0
  8  9  1  0
  8 10  2  0
  8 11  2  0
  5 12  1  0
 12 13  1  0
 13 14  1  0
 14 15  1  0
 15 16  1  0
 15 17  1  0
 15 18  2  0
 13 19  1  0
 19 20  1  0
 19  2  1  0
  1 21  1  0
  2 22  1  6
  3 23  1  1
  4 24  1  0
  5 25  1  6
  6 26  1  0
  6 27  1  0
  9 28  1  0
 13 29  1  6
 16 30  1  0
 17 31  1  0
 19 32  1  6
 20 33  1  0
M  RAD  1   8   2
M  END
$$$$
