
     RDKit          3D

 37 40  0  0  0  0  0  0  0  0999 V2000
   -5.0011   -0.5249    0.3114 O   0  0  0  0  0  0  0  0  0  0  0  0
   -4.0874   -0.6222   -0.7111 N   0  0  0  0  0  0  0  0  0  0  0  0
   -2.9786    0.0501   -0.7154 C   0  0  0  0  0  0  0  0  0  0  0  0
   -1.9607   -0.0013   -1.7537 C   0  0  0  0  0  0  0  0  0  0  0  0
   -2.0120   -0.7150   -2.7904 O   0  0  0  0  0  0  0  0  0  0  0  0
   -0.8728    0.8672   -1.4297 N   0  0  0  0  0  0  0  0  0  0  0  0
    0.4615    0.8114   -2.0293 C   0  0  0  0  0  0  0  0  0  0  0  0
    1.1784   -0.4455   -1.6022 C   0  0  0  0  0  0  0  0  0  0  0  0
    1.1184   -1.5949   -2.4101 C   0  0  0  0  0  0  0  0  0  0  0  0
    1.7312   -2.7839   -2.0002 C   0  0  0  0  0  0  0  0  0  0  0  0
    1.6595   -3.8872   -2.7850 F   0  0  0  0  0  0  0  0  0  0  0  0
    2.4094   -2.8396   -0.7798 C   0  0  0  0  0  0  0  0  0  0  0  0
    2.4861   -1.6982    0.0270 C   0  0  0  0  0  0  0  0  0  0  0  0
    1.8591   -0.5123   -0.3722 C   0  0  0  0  0  0  0  0  0  0  0  0
    1.9443    0.5950    0.4718 O   0  0  0  0  0  0  0  0  0  0  0  0
    2.5036    0.4659    1.7783 C   0  0  0  0  0  0  0  0  0  0  0  0
    3.6038   -0.4263    1.7564 O   0  0  0  0  0  0  0  0  0  0  0  0
    3.1682   -1.7208    1.3709 C   0  0  0  0  0  0  0  0  0  0  0  0
   -1.2355    1.4474   -0.1684 C   0  0  0  0  0  0  0  0  0  0  0  0
   -2.4677    0.9924    0.2830 C   0  0  0  0  0  0  0  0  0  0  0  0
   -3.0099    1.4408    1.4911 C   0  0  0  0  0  0  0  0  0  0  0  0
   -2.2807    2.3763    2.2428 C   0  0  0  0  0  0  0  0  0  0  0  0
   -2.7789    2.8303    3.4192 F   0  0  0  0  0  0  0  0  0  0  0  0
   -1.0396    2.8528    1.7784 C   0  0  0  0  0  0  0  0  0  0  0  0
   -0.5109    2.3951    0.5613 C   0  0  0  0  0  0  0  0  0  0  0  0
   -5.8558   -1.0658    0.2796 H   0  0  0  0  0  0  0  0  0  0  0  0
    1.0519    1.7080   -1.7491 H   0  0  0  0  0  0  0  0  0  0  0  0
    0.3630    0.8388   -3.1361 H   0  0  0  0  0  0  0  0  0  0  0  0
    0.5912   -1.5724   -3.3557 H   0  0  0  0  0  0  0  0  0  0  0  0
    2.8724   -3.7660   -0.4637 H   0  0  0  0  0  0  0  0  0  0  0  0
    1.7226    0.1188    2.4919 H   0  0  0  0  0  0  0  0  0  0  0  0
    2.8517    1.4627    2.1179 H   0  0  0  0  0  0  0  0  0  0  0  0
    4.0581   -2.3832    1.3191 H   0  0  0  0  0  0  0  0  0  0  0  0
    2.4805   -2.1457    2.1358 H   0  0  0  0  0  0  0  0  0  0  0  0
   -3.9652    1.0887    1.8516 H   0  0  0  0  0  0  0  0  0  0  0  0
   -0.4905    3.5815    2.3606 H   0  0  0  0  0  0  0  0  0  0  0  0
    0.4328    2.7820    0.2040 H   0  0  0  0  0  0  0  0  0  0  0  0
  1  2  1  0
  2  3  2  0
  3  4  1  0
  4  5  2  0
  4  6  1  0
  6  7  1  0
  7  8  1  0
  8  9  2  0
  9 10  1  0
 10 11  1  0
 10 12  2  0
 12 13  1  0
 13 14  2  0
 14 15  1  0
 15 16  1  0
 16 17  1  0
 17 18  1  0
  6 19  1  0
 19 20  2  0
 20 21  1  0
 21 22  2  0
 22 23  1  0
 22 24  1  0
 24 25  2  0
 20  3  1  0
 14  8  1  0
 25 19  1  0
 18 13  1  0
  1 26  1  0
  7 27  1  0
  7 28  1  0
  9 29  1  0
 12 30  1  0
 16 31  1  0
 16 32  1  0
 18 33  1  0
 18 34  1  0
 21 35  1  0
 24 36  1  0
 25 37  1  0
M  END
$$$$
