
     RDKit          2D

247247  0  0  0  0  0  0  0  0999 V2000
    6.0000   -1.5000    0.0000 C   0  0  0  0  0  0  0  0  0  0  0  0
    6.0000    0.0000    0.0000 C   0  0  0  0  0  0  0  0  0  0  0  0
    6.0000    1.5000    0.0000 C   0  0  0  0  0  0  0  0  0  0  0  0
    7.5000    0.0000    0.0000 C   0  0  0  0  0  0  0  0  0  0  0  0
    4.5000    0.0000    0.0000 C   0  0  0  0  0  0  0  0  0  0  0  0
    3.0000    0.0000    0.0000 C   0  0  0  0  0  0  0  0  0  0  0  0
    3.0000   -1.5000    0.0000 C   0  0  0  0  0  0  0  0  0  0  0  0
    3.0000    1.5000    0.0000 C   0  0  0  0  0  0  0  0  0  0  0  0
    1.5000    0.0000    0.0000 C   0  0  0  0  0  0  0  0  0  0  0  0
    0.7500   -1.2990    0.0000 C   0  0  0  0  0  0  0  0  0  0  0  0
   -0.7500   -1.2990    0.0000 C   0  0  0  0  0  0  0  0  0  0  0  0
   -1.5000    0.0000    0.0000 C   0  0  0  0  0  0  0  0  0  0  0  0
   -3.0000    0.0000    0.0000 O   0  0  0  0  0  0  0  0  0  0  0  0
   -3.7500    1.2990    0.0000 C   0  0  0  0  0  0  0  0  0  0  0  0
   -4.5000    2.5981    0.0000 C   0  0  0  0  0  0  0  0  0  0  0  0
   -5.2500    3.8971    0.0000 O   0  0  0  0  0  0  0  0  0  0  0  0
   -6.7500    3.8971    0.0000 C   0  0  0  0  0  0  0  0  0  0  0  0
   -8.2500    3.8971    0.0000 C   0  0  0  0  0  0  0  0  0  0  0  0
   -9.7500    3.8971    0.0000 O   0  0  0  0  0  0  0  0  0  0  0  0
  -10.5000    5.1962    0.0000 C   0  0  0  0  0  0  0  0  0  0  0  0
  -11.2500    6.4952    0.0000 C   0  0  0  0  0  0  0  0  0  0  0  0
  -12.0000    7.7942    0.0000 O   0  0  0  0  0  0  0  0  0  0  0  0
  -13.5000    7.7942    0.0000 C   0  0  0  0  0  0  0  0  0  0  0  0
  -15.0000    7.7942    0.0000 C   0  0  0  0  0  0  0  0  0  0  0  0
  -16.5000    7.7942    0.0000 O   0  0  0  0  0  0  0  0  0  0  0  0
  -17.2500    9.0933    0.0000 C   0  0  0  0  0  0  0  0  0  0  0  0
  -18.0000   10.3923    0.0000 C   0  0  0  0  0  0  0  0  0  0  0  0
  -18.7500   11.6913    0.0000 O   0  0  0  0  0  0  0  0  0  0  0  0
  -20.2500   11.6913    0.0000 C   0  0  0  0  0  0  0  0  0  0  0  0
  -21.7500   11.6913    0.0000 C   0  0  0  0  0  0  0  0  0  0  0  0
  -23.2500   11.6913    0.0000 O   0  0  0  0  0  0  0  0  0  0  0  0
  -24.0000   12.9904    0.0000 C   0  0  0  0  0  0  0  0  0  0  0  0
  -24.7500   14.2894    0.0000 C   0  0  0  0  0  0  0  0  0  0  0  0
  -25.5000   15.5885    0.0000 O   0  0  0  0  0  0  0  0  0  0  0  0
  -27.0000   15.5885    0.0000 C   0  0  0  0  0  0  0  0  0  0  0  0
  -28.5000   15.5885    0.0000 C   0  0  0  0  0  0  0  0  0  0  0  0
  -30.0000   15.5885    0.0000 O   0  0  0  0  0  0  0  0  0  0  0  0
  -30.7500   16.8875    0.0000 C   0  0  0  0  0  0  0  0  0  0  0  0
  -31.5000   18.1865    0.0000 C   0  0  0  0  0  0  0  0  0  0  0  0
  -32.2500   19.4856    0.0000 O   0  0  0  0  0  0  0  0  0  0  0  0
  -33.7500   19.4856    0.0000 C   0  0  0  0  0  0  0  0  0  0  0  0
  -35.2500   19.4856    0.0000 C   0  0  0  0  0  0  0  0  0  0  0  0
  -36.7500   19.4856    0.0000 O   0  0  0  0  0  0  0  0  0  0  0  0
  -37.5000   20.7846    0.0000 C   0  0  0  0  0  0  0  0  0  0  0  0
  -38.2500   22.0836    0.0000 C   0  0  0  0  0  0  0  0  0  0  0  0
  -39.0000   23.3827    0.0000 O   0  0  0  0  0  0  0  0  0  0  0  0
  -40.5000   23.3827    0.0000 C   0  0  0  0  0  0  0  0  0  0  0  0
  -42.0000   23.3827    0.0000 C   0  0  0  0  0  0  0  0  0  0  0  0
  -43.5000   23.3827    0.0000 O   0  0  0  0  0  0  0  0  0  0  0  0
  -44.2500   24.6817    0.0000 C   0  0  0  0  0  0  0  0  0  0  0  0
  -45.0000   25.9808    0.0000 C   0  0  0  0  0  0  0  0  0  0  0  0
  -45.7500   27.2798    0.0000 O   0  0  0  0  0  0  0  0  0  0  0  0
  -47.2500   27.2798    0.0000 C   0  0  0  0  0  0  0  0  0  0  0  0
  -48.7500   27.2798    0.0000 C   0  0  0  0  0  0  0  0  0  0  0  0
  -50.2500   27.2798    0.0000 O   0  0  0  0  0  0  0  0  0  0  0  0
  -51.0000   28.5788    0.0000 C   0  0  0  0  0  0  0  0  0  0  0  0
  -51.7500   29.8779    0.0000 C   0  0  0  0  0  0  0  0  0  0  0  0
  -52.5000   31.1769    0.0000 O   0  0  0  0  0  0  0  0  0  0  0  0
  -54.0000   31.1769    0.0000 C   0  0  0  0  0  0  0  0  0  0  0  0
  -55.5000   31.1769    0.0000 C   0  0  0  0  0  0  0  0  0  0  0  0
  -57.0000   31.1769    0.0000 O   0  0  0  0  0  0  0  0  0  0  0  0
  -57.7500   32.4760    0.0000 C   0  0  0  0  0  0  0  0  0  0  0  0
  -58.5000   33.7750    0.0000 C   0  0  0  0  0  0  0  0  0  0  0  0
  -59.2500   35.0740    0.0000 O   0  0  0  0  0  0  0  0  0  0  0  0
  -60.7500   35.0740    0.0000 C   0  0  0  0  0  0  0  0  0  0  0  0
  -62.2500   35.0740    0.0000 C   0  0  0  0  0  0  0  0  0  0  0  0
  -63.7500   35.0740    0.0000 O   0  0  0  0  0  0  0  0  0  0  0  0
  -64.5000   36.3731    0.0000 C   0  0  0  0  0  0  0  0  0  0  0  0
  -65.2500   37.6721    0.0000 C   0  0  0  0  0  0  0  0  0  0  0  0
  -66.0000   38.9711    0.0000 O   0  0  0  0  0  0  0  0  0  0  0  0
  -67.5000   38.9711    0.0000 C   0  0  0  0  0  0  0  0  0  0  0  0
  -69.0000   38.9711    0.0000 C   0  0  0  0  0  0  0  0  0  0  0  0
  -70.5000   38.9711    0.0000 O   0  0  0  0  0  0  0  0  0  0  0  0
  -71.2500   40.2702    0.0000 C   0  0  0  0  0  0  0  0  0  0  0  0
  -72.0000   41.5692    0.0000 C   0  0  0  0  0  0  0  0  0  0  0  0
  -72.7500   42.8683    0.0000 O   0  0  0  0  0  0  0  0  0  0  0  0
  -74.2500   42.8683    0.0000 C   0  0  0  0  0  0  0  0  0  0  0  0
  -75.7500   42.8683    0.0000 C   0  0  0  0  0  0  0  0  0  0  0  0
  -77.2500   42.8683    0.0000 O   0  0  0  0  0  0  0  0  0  0  0  0
  -78.0000   44.1673    0.0000 C   0  0  0  0  0  0  0  0  0  0  0  0
  -78.7500   45.4663    0.0000 C   0  0  0  0  0  0  0  0  0  0  0  0
  -79.5000   46.7654    0.0000 O   0  0  0  0  0  0  0  0  0  0  0  0
  -81.0000   46.7654    0.0000 C   0  0  0  0  0  0  0  0  0  0  0  0
  -82.5000   46.7654    0.0000 C   0  0  0  0  0  0  0  0  0  0  0  0
  -84.0000   46.7654    0.0000 O   0  0  0  0  0  0  0  0  0  0  0  0
  -84.7500   48.0644    0.0000 C   0  0  0  0  0  0  0  0  0  0  0  0
  -85.5000   49.3634    0.0000 C   0  0  0  0  0  0  0  0  0  0  0  0
  -86.2500   50.6625    0.0000 O   0  0  0  0  0  0  0  0  0  0  0  0
  -87.7500   50.6625    0.0000 C   0  0  0  0  0  0  0  0  0  0  0  0
  -89.2500   50.6625    0.0000 C   0  0  0  0  0  0  0  0  0  0  0  0
  -90.7500   50.6625    0.0000 O   0  0  0  0  0  0  0  0  0  0  0  0
  -91.5000   51.9615    0.0000 C   0  0  0  0  0  0  0  0  0  0  0  0
  -92.2500   53.2606    0.0000 C   0  0  0  0  0  0  0  0  0  0  0  0
  -93.0000   54.5596    0.0000 O   0  0  0  0  0  0  0  0  0  0  0  0
  -94.5000   54.5596    0.0000 C   0  0  0  0  0  0  0  0  0  0  0  0
  -96.0000   54.5596    0.0000 C   0  0  0  0  0  0  0  0  0  0  0  0
  -97.5000   54.5596    0.0000 O   0  0  0  0  0  0  0  0  0  0  0  0
  -98.2500   55.8586    0.0000 C   0  0  0  0  0  0  0  0  0  0  0  0
  -99.0000   57.1577    0.0000 C   0  0  0  0  0  0  0  0  0  0  0  0
  -99.7500   58.4567    0.0000 O   0  0  0  0  0  0  0  0  0  0  0  0
 -101.2500   58.4567    0.0000 C   0  0  0  0  0  0  0  0  0  0  0  0
 -102.7500   58.4567    0.0000 C   0  0  0  0  0  0  0  0  0  0  0  0
 -104.2500   58.4567    0.0000 O   0  0  0  0  0  0  0  0  0  0  0  0
   -0.7500    1.2990    0.0000 C   0  0  0  0  0  0  0  0  0  0  0  0
    0.7500    1.2990    0.0000 C   0  0  0  0  0  0  0  0  0  0  0  0
    6.0000   -3.0000    0.0000 H   0  0  0  0  0  0  0  0  0  0  0  0
    6.7912   -1.5972    0.0000 H   0  0  0  0  0  0  0  0  0  0  0  0
    6.7912   -1.4028    0.0000 H   0  0  0  0  0  0  0  0  0  0  0  0
    6.0000    3.0000    0.0000 H   0  0  0  0  0  0  0  0  0  0  0  0
    7.4554    1.8630    0.0000 H   0  0  0  0  0  0  0  0  0  0  0  0
    4.5000    1.5000    0.0000 H   0  0  0  0  0  0  0  0  0  0  0  0
    9.0000    0.0000    0.0000 H   0  0  0  0  0  0  0  0  0  0  0  0
    7.8630    1.4554    0.0000 H   0  0  0  0  0  0  0  0  0  0  0  0
    7.5000    1.5000    0.0000 H   0  0  0  0  0  0  0  0  0  0  0  0
    4.6828   -1.4888    0.0000 H   0  0  0  0  0  0  0  0  0  0  0  0
    4.5000    1.5000    0.0000 H   0  0  0  0  0  0  0  0  0  0  0  0
    3.0000   -3.0000    0.0000 H   0  0  0  0  0  0  0  0  0  0  0  0
    4.4888   -1.6828    0.0000 H   0  0  0  0  0  0  0  0  0  0  0  0
    1.5446   -1.8630    0.0000 H   0  0  0  0  0  0  0  0  0  0  0  0
    3.0000    3.0000    0.0000 H   0  0  0  0  0  0  0  0  0  0  0  0
    4.5000    1.5000    0.0000 H   0  0  0  0  0  0  0  0  0  0  0  0
    1.5446    1.8630    0.0000 H   0  0  0  0  0  0  0  0  0  0  0  0
    1.5000   -2.5981    0.0000 H   0  0  0  0  0  0  0  0  0  0  0  0
   -1.5000   -2.5981    0.0000 H   0  0  0  0  0  0  0  0  0  0  0  0
   -2.4510    2.0490    0.0000 H   0  0  0  0  0  0  0  0  0  0  0  0
   -5.0490    0.5490    0.0000 H   0  0  0  0  0  0  0  0  0  0  0  0
   -3.2010    3.3481    0.0000 H   0  0  0  0  0  0  0  0  0  0  0  0
   -5.7990    1.8481    0.0000 H   0  0  0  0  0  0  0  0  0  0  0  0
   -6.7500    2.3971    0.0000 H   0  0  0  0  0  0  0  0  0  0  0  0
   -6.7500    5.3971    0.0000 H   0  0  0  0  0  0  0  0  0  0  0  0
   -8.2500    2.3971    0.0000 H   0  0  0  0  0  0  0  0  0  0  0  0
   -8.2500    5.3971    0.0000 H   0  0  0  0  0  0  0  0  0  0  0  0
   -9.2010    5.9462    0.0000 H   0  0  0  0  0  0  0  0  0  0  0  0
  -11.7990    4.4462    0.0000 H   0  0  0  0  0  0  0  0  0  0  0  0
   -9.9510    7.2452    0.0000 H   0  0  0  0  0  0  0  0  0  0  0  0
  -12.5490    5.7452    0.0000 H   0  0  0  0  0  0  0  0  0  0  0  0
  -13.5000    6.2942    0.0000 H   0  0  0  0  0  0  0  0  0  0  0  0
  -13.5000    9.2942    0.0000 H   0  0  0  0  0  0  0  0  0  0  0  0
  -15.0000    6.2942    0.0000 H   0  0  0  0  0  0  0  0  0  0  0  0
  -15.0000    9.2942    0.0000 H   0  0  0  0  0  0  0  0  0  0  0  0
  -15.9510    9.8433    0.0000 H   0  0  0  0  0  0  0  0  0  0  0  0
  -18.5490    8.3433    0.0000 H   0  0  0  0  0  0  0  0  0  0  0  0
  -16.7010   11.1423    0.0000 H   0  0  0  0  0  0  0  0  0  0  0  0
  -19.2990    9.6423    0.0000 H   0  0  0  0  0  0  0  0  0  0  0  0
  -20.2500   10.1913    0.0000 H   0  0  0  0  0  0  0  0  0  0  0  0
  -20.2500   13.1913    0.0000 H   0  0  0  0  0  0  0  0  0  0  0  0
  -21.7500   10.1913    0.0000 H   0  0  0  0  0  0  0  0  0  0  0  0
  -21.7500   13.1913    0.0000 H   0  0  0  0  0  0  0  0  0  0  0  0
  -22.7010   13.7404    0.0000 H   0  0  0  0  0  0  0  0  0  0  0  0
  -25.2990   12.2404    0.0000 H   0  0  0  0  0  0  0  0  0  0  0  0
  -23.4510   15.0394    0.0000 H   0  0  0  0  0  0  0  0  0  0  0  0
  -26.0490   13.5394    0.0000 H   0  0  0  0  0  0  0  0  0  0  0  0
  -27.0000   14.0885    0.0000 H   0  0  0  0  0  0  0  0  0  0  0  0
  -27.0000   17.0885    0.0000 H   0  0  0  0  0  0  0  0  0  0  0  0
  -28.5000   14.0885    0.0000 H   0  0  0  0  0  0  0  0  0  0  0  0
  -28.5000   17.0885    0.0000 H   0  0  0  0  0  0  0  0  0  0  0  0
  -29.4510   17.6375    0.0000 H   0  0  0  0  0  0  0  0  0  0  0  0
  -32.0490   16.1375    0.0000 H   0  0  0  0  0  0  0  0  0  0  0  0
  -30.2010   18.9365    0.0000 H   0  0  0  0  0  0  0  0  0  0  0  0
  -32.7990   17.4365    0.0000 H   0  0  0  0  0  0  0  0  0  0  0  0
  -33.7500   17.9856    0.0000 H   0  0  0  0  0  0  0  0  0  0  0  0
  -33.7500   20.9856    0.0000 H   0  0  0  0  0  0  0  0  0  0  0  0
  -35.2500   17.9856    0.0000 H   0  0  0  0  0  0  0  0  0  0  0  0
  -35.2500   20.9856    0.0000 H   0  0  0  0  0  0  0  0  0  0  0  0
  -36.2010   21.5346    0.0000 H   0  0  0  0  0  0  0  0  0  0  0  0
  -38.7990   20.0346    0.0000 H   0  0  0  0  0  0  0  0  0  0  0  0
  -36.9510   22.8336    0.0000 H   0  0  0  0  0  0  0  0  0  0  0  0
  -39.5490   21.3336    0.0000 H   0  0  0  0  0  0  0  0  0  0  0  0
  -40.5000   21.8827    0.0000 H   0  0  0  0  0  0  0  0  0  0  0  0
  -40.5000   24.8827    0.0000 H   0  0  0  0  0  0  0  0  0  0  0  0
  -42.0000   21.8827    0.0000 H   0  0  0  0  0  0  0  0  0  0  0  0
  -42.0000   24.8827    0.0000 H   0  0  0  0  0  0  0  0  0  0  0  0
  -42.9510   25.4317    0.0000 H   0  0  0  0  0  0  0  0  0  0  0  0
  -45.5490   23.9317    0.0000 H   0  0  0  0  0  0  0  0  0  0  0  0
  -43.7010   26.7308    0.0000 H   0  0  0  0  0  0  0  0  0  0  0  0
  -46.2990   25.2308    0.0000 H   0  0  0  0  0  0  0  0  0  0  0  0
  -47.2500   25.7798    0.0000 H   0  0  0  0  0  0  0  0  0  0  0  0
  -47.2500   28.7798    0.0000 H   0  0  0  0  0  0  0  0  0  0  0  0
  -48.7500   25.7798    0.0000 H   0  0  0  0  0  0  0  0  0  0  0  0
  -48.7500   28.7798    0.0000 H   0  0  0  0  0  0  0  0  0  0  0  0
  -49.7010   29.3288    0.0000 H   0  0  0  0  0  0  0  0  0  0  0  0
  -52.2990   27.8288    0.0000 H   0  0  0  0  0  0  0  0  0  0  0  0
  -50.4510   30.6279    0.0000 H   0  0  0  0  0  0  0  0  0  0  0  0
  -53.0490   29.1279    0.0000 H   0  0  0  0  0  0  0  0  0  0  0  0
  -54.0000   29.6769    0.0000 H   0  0  0  0  0  0  0  0  0  0  0  0
  -54.0000   32.6769    0.0000 H   0  0  0  0  0  0  0  0  0  0  0  0
  -55.5000   29.6769    0.0000 H   0  0  0  0  0  0  0  0  0  0  0  0
  -55.5000   32.6769    0.0000 H   0  0  0  0  0  0  0  0  0  0  0  0
  -56.4510   33.2260    0.0000 H   0  0  0  0  0  0  0  0  0  0  0  0
  -59.0490   31.7260    0.0000 H   0  0  0  0  0  0  0  0  0  0  0  0
  -57.2010   34.5250    0.0000 H   0  0  0  0  0  0  0  0  0  0  0  0
  -59.7990   33.0250    0.0000 H   0  0  0  0  0  0  0  0  0  0  0  0
  -60.7500   33.5740    0.0000 H   0  0  0  0  0  0  0  0  0  0  0  0
  -60.7500   36.5740    0.0000 H   0  0  0  0  0  0  0  0  0  0  0  0
  -62.2500   33.5740    0.0000 H   0  0  0  0  0  0  0  0  0  0  0  0
  -62.2500   36.5740    0.0000 H   0  0  0  0  0  0  0  0  0  0  0  0
  -63.2010   37.1231    0.0000 H   0  0  0  0  0  0  0  0  0  0  0  0
  -65.7990   35.6231    0.0000 H   0  0  0  0  0  0  0  0  0  0  0  0
  -63.9510   38.4221    0.0000 H   0  0  0  0  0  0  0  0  0  0  0  0
  -66.5490   36.9221    0.0000 H   0  0  0  0  0  0  0  0  0  0  0  0
  -67.5000   37.4711    0.0000 H   0  0  0  0  0  0  0  0  0  0  0  0
  -67.5000   40.4711    0.0000 H   0  0  0  0  0  0  0  0  0  0  0  0
  -69.0000   37.4711    0.0000 H   0  0  0  0  0  0  0  0  0  0  0  0
  -69.0000   40.4711    0.0000 H   0  0  0  0  0  0  0  0  0  0  0  0
  -69.9510   41.0202    0.0000 H   0  0  0  0  0  0  0  0  0  0  0  0
  -72.5490   39.5202    0.0000 H   0  0  0  0  0  0  0  0  0  0  0  0
  -70.7010   42.3192    0.0000 H   0  0  0  0  0  0  0  0  0  0  0  0
  -73.2990   40.8192    0.0000 H   0  0  0  0  0  0  0  0  0  0  0  0
  -74.2500   41.3683    0.0000 H   0  0  0  0  0  0  0  0  0  0  0  0
  -74.2500   44.3683    0.0000 H   0  0  0  0  0  0  0  0  0  0  0  0
  -75.7500   41.3683    0.0000 H   0  0  0  0  0  0  0  0  0  0  0  0
  -75.7500   44.3683    0.0000 H   0  0  0  0  0  0  0  0  0  0  0  0
  -76.7010   44.9173    0.0000 H   0  0  0  0  0  0  0  0  0  0  0  0
  -79.2990   43.4173    0.0000 H   0  0  0  0  0  0  0  0  0  0  0  0
  -77.4510   46.2163    0.0000 H   0  0  0  0  0  0  0  0  0  0  0  0
  -80.0490   44.7163    0.0000 H   0  0  0  0  0  0  0  0  0  0  0  0
  -81.0000   45.2654    0.0000 H   0  0  0  0  0  0  0  0  0  0  0  0
  -81.0000   48.2654    0.0000 H   0  0  0  0  0  0  0  0  0  0  0  0
  -82.5000   45.2654    0.0000 H   0  0  0  0  0  0  0  0  0  0  0  0
  -82.5000   48.2654    0.0000 H   0  0  0  0  0  0  0  0  0  0  0  0
  -83.4510   48.8144    0.0000 H   0  0  0  0  0  0  0  0  0  0  0  0
  -86.0490   47.3144    0.0000 H   0  0  0  0  0  0  0  0  0  0  0  0
  -84.2010   50.1134    0.0000 H   0  0  0  0  0  0  0  0  0  0  0  0
  -86.7990   48.6134    0.0000 H   0  0  0  0  0  0  0  0  0  0  0  0
  -87.7500   49.1625    0.0000 H   0  0  0  0  0  0  0  0  0  0  0  0
  -87.7500   52.1625    0.0000 H   0  0  0  0  0  0  0  0  0  0  0  0
  -89.2500   49.1625    0.0000 H   0  0  0  0  0  0  0  0  0  0  0  0
  -89.2500   52.1625    0.0000 H   0  0  0  0  0  0  0  0  0  0  0  0
  -90.2010   52.7115    0.0000 H   0  0  0  0  0  0  0  0  0  0  0  0
  -92.7990   51.2115    0.0000 H   0  0  0  0  0  0  0  0  0  0  0  0
  -90.9510   54.0106    0.0000 H   0  0  0  0  0  0  0  0  0  0  0  0
  -93.5490   52.5106    0.0000 H   0  0  0  0  0  0  0  0  0  0  0  0
  -94.5000   53.0596    0.0000 H   0  0  0  0  0  0  0  0  0  0  0  0
  -94.5000   56.0596    0.0000 H   0  0  0  0  0  0  0  0  0  0  0  0
  -96.0000   53.0596    0.0000 H   0  0  0  0  0  0  0  0  0  0  0  0
  -96.0000   56.0596    0.0000 H   0  0  0  0  0  0  0  0  0  0  0  0
  -96.9510   56.6086    0.0000 H   0  0  0  0  0  0  0  0  0  0  0  0
  -99.5490   55.1086    0.0000 H   0  0  0  0  0  0  0  0  0  0  0  0
  -97.7010   57.9077    0.0000 H   0  0  0  0  0  0  0  0  0  0  0  0
 -100.2990   56.4077    0.0000 H   0  0  0  0  0  0  0  0  0  0  0  0
 -101.2500   56.9567    0.0000 H   0  0  0  0  0  0  0  0  0  0  0  0
 -101.2500   59.9567    0.0000 H   0  0  0  0  0  0  0  0  0  0  0  0
 -102.7500   56.9567    0.0000 H   0  0  0  0  0  0  0  0  0  0  0  0
 -102.7500   59.9567    0.0000 H   0  0  0  0  0  0  0  0  0  0  0  0
 -105.0000   59.7558    0.0000 H   0  0  0  0  0  0  0  0  0  0  0  0
   -1.5000    2.5981    0.0000 H   0  0  0  0  0  0  0  0  0  0  0  0
    1.5000    2.5981    0.0000 H   0  0  0  0  0  0  0  0  0  0  0  0
  1  2  1  0
  2  3  1  0
  2  4  1  0
  2  5  1  0
  5  6  1  0
  6  7  1  0
  6  8  1  0
  6  9  1  0
  9 10  2  0
 10 11  1  0
 11 12  2  0
 12 13  1  0
 13 14  1  0
 14 15  1  0
 15 16  1  0
 16 17  1  0
 17 18  1  0
 18 19  1  0
 19 20  1  0
 20 21  1  0
 21 22  1  0
 22 23  1  0
 23 24  1  0
 24 25  1  0
 25 26  1  0
 26 27  1  0
 27 28  1  0
 28 29  1  0
 29 30  1  0
 30 31  1  0
 31 32  1  0
 32 33  1  0
 33 34  1  0
 34 35  1  0
 35 36  1  0
 36 37  1  0
 37 38  1  0
 38 39  1  0
 39 40  1  0
 40 41  1  0
 41 42  1  0
 42 43  1  0
 43 44  1  0
 44 45  1  0
 45 46  1  0
 46 47  1  0
 47 48  1  0
 48 49  1  0
 49 50  1  0
 50 51  1  0
 51 52  1  0
 52 53  1  0
 53 54  1  0
 54 55  1  0
 55 56  1  0
 56 57  1  0
 57 58  1  0
 58 59  1  0
 59 60  1  0
 60 61  1  0
 61 62  1  0
 62 63  1  0
 63 64  1  0
 64 65  1  0
 65 66  1  0
 66 67  1  0
 67 68  1  0
 68 69  1  0
 69 70  1  0
 70 71  1  0
 71 72  1  0
 72 73  1  0
 73 74  1  0
 74 75  1  0
 75 76  1  0
 76 77  1  0
 77 78  1  0
 78 79  1  0
 79 80  1  0
 80 81  1  0
 81 82  1  0
 82 83  1  0
 83 84  1  0
 84 85  1  0
 85 86  1  0
 86 87  1  0
 87 88  1  0
 88 89  1  0
 89 90  1  0
 90 91  1  0
 91 92  1  0
 92 93  1  0
 93 94  1  0
 94 95  1  0
 95 96  1  0
 96 97  1  0
 97 98  1  0
 98 99  1  0
 99100  1  0
100101  1  0
101102  1  0
102103  1  0
 12104  1  0
104105  2  0
105  9  1  0
  1106  1  0
  1107  1  0
  1108  1  0
  3109  1  0
  3110  1  0
  3111  1  0
  4112  1  0
  4113  1  0
  4114  1  0
  5115  1  0
  5116  1  0
  7117  1  0
  7118  1  0
  7119  1  0
  8120  1  0
  8121  1  0
  8122  1  0
 10123  1  0
 11124  1  0
 14125  1  0
 14126  1  0
 15127  1  0
 15128  1  0
 17129  1  0
 17130  1  0
 18131  1  0
 18132  1  0
 20133  1  0
 20134  1  0
 21135  1  0
 21136  1  0
 23137  1  0
 23138  1  0
 24139  1  0
 24140  1  0
 26141  1  0
 26142  1  0
 27143  1  0
 27144  1  0
 29145  1  0
 29146  1  0
 30147  1  0
 30148  1  0
 32149  1  0
 32150  1  0
 33151  1  0
 33152  1  0
 35153  1  0
 35154  1  0
 36155  1  0
 36156  1  0
 38157  1  0
 38158  1  0
 39159  1  0
 39160  1  0
 41161  1  0
 41162  1  0
 42163  1  0
 42164  1  0
 44165  1  0
 44166  1  0
 45167  1  0
 45168  1  0
 47169  1  0
 47170  1  0
 48171  1  0
 48172  1  0
 50173  1  0
 50174  1  0
 51175  1  0
 51176  1  0
 53177  1  0
 53178  1  0
 54179  1  0
 54180  1  0
 56181  1  0
 56182  1  0
 57183  1  0
 57184  1  0
 59185  1  0
 59186  1  0
 60187  1  0
 60188  1  0
 62189  1  0
 62190  1  0
 63191  1  0
 63192  1  0
 65193  1  0
 65194  1  0
 66195  1  0
 66196  1  0
 68197  1  0
 68198  1  0
 69199  1  0
 69200  1  0
 71201  1  0
 71202  1  0
 72203  1  0
 72204  1  0
 74205  1  0
 74206  1  0
 75207  1  0
 75208  1  0
 77209  1  0
 77210  1  0
 78211  1  0
 78212  1  0
 80213  1  0
 80214  1  0
 81215  1  0
 81216  1  0
 83217  1  0
 83218  1  0
 84219  1  0
 84220  1  0
 86221  1  0
 86222  1  0
 87223  1  0
 87224  1  0
 89225  1  0
 89226  1  0
 90227  1  0
 90228  1  0
 92229  1  0
 92230  1  0
 93231  1  0
 93232  1  0
 95233  1  0
 95234  1  0
 96235  1  0
 96236  1  0
 98237  1  0
 98238  1  0
 99239  1  0
 99240  1  0
101241  1  0
101242  1  0
102243  1  0
102244  1  0
103245  1  0
104246  1  0
105247  1  0
M  END
$$$$
