
     RDKit          3D

 49 51  0  0  0  0  0  0  0  0999 V2000
    0.8913    0.8685   -1.0183 C   0  0  1  0  0  0  0  0  0  0  0  0
    1.3709    1.9180    0.0145 C   0  0  0  0  0  0  0  0  0  0  0  0
    2.8683    2.0516    0.0539 C   0  0  0  0  0  0  0  0  0  0  0  0
    3.4965    2.3588   -0.9950 O   0  0  0  0  0  0  0  0  0  0  0  0
    3.5821    1.8675    1.2797 N   0  0  0  0  0  0  0  0  0  0  0  0
    4.9333    1.9557    1.3086 O   0  0  0  0  0  0  0  0  0  0  0  0
    1.0474   -0.5893   -0.5229 C   0  0  0  0  0  0  0  0  0  0  0  0
    2.4886   -1.0180   -0.4069 C   0  0  0  0  0  0  0  0  0  0  0  0
    3.0691   -1.2320    0.8549 C   0  0  0  0  0  0  0  0  0  0  0  0
    4.4155   -1.6089    0.9603 C   0  0  0  0  0  0  0  0  0  0  0  0
    5.0010   -1.8087    2.2084 O   0  0  0  0  0  0  0  0  0  0  0  0
    5.1813   -1.7832   -0.1967 C   0  0  0  0  0  0  0  0  0  0  0  0
    4.6073   -1.5833   -1.4548 C   0  0  0  0  0  0  0  0  0  0  0  0
    3.2664   -1.2044   -1.5618 C   0  0  0  0  0  0  0  0  0  0  0  0
   -0.5554    1.1189   -1.3687 C   0  0  0  0  0  0  0  0  0  0  0  0
   -0.8693    1.3302   -2.5718 O   0  0  0  0  0  0  0  0  0  0  0  0
   -1.5698    1.0963   -0.3516 N   0  0  0  0  0  0  0  0  0  0  0  0
   -3.0000    1.0638   -0.6723 C   0  0  1  0  0  0  0  0  0  0  0  0
   -3.4901   -0.3345   -0.5813 C   0  0  0  0  0  0  0  0  0  0  0  0
   -4.2990   -0.5246    0.5127 C   0  0  0  0  0  0  0  0  0  0  0  0
   -4.4763    0.7207    1.2957 C   0  0  0  0  0  0  0  0  0  0  0  0
   -3.8513    1.8060    0.3920 C   0  0  1  0  0  0  0  0  0  0  0  0
   -3.0821    2.7137    1.1386 O   0  0  0  0  0  0  0  0  0  0  0  0
   -4.8273   -1.7833    0.8099 C   0  0  0  0  0  0  0  0  0  0  0  0
   -4.5239   -2.8596   -0.0383 C   0  0  0  0  0  0  0  0  0  0  0  0
   -3.6955   -2.6655   -1.1584 C   0  0  0  0  0  0  0  0  0  0  0  0
   -3.1681   -1.3947   -1.4337 C   0  0  0  0  0  0  0  0  0  0  0  0
    1.4818    0.9913   -1.9543 H   0  0  0  0  0  0  0  0  0  0  0  0
    0.9832    1.6642    1.0246 H   0  0  0  0  0  0  0  0  0  0  0  0
    0.9608    2.9171   -0.2510 H   0  0  0  0  0  0  0  0  0  0  0  0
    3.0702    1.6260    2.1576 H   0  0  0  0  0  0  0  0  0  0  0  0
    5.1211    2.9037    1.5286 H   0  0  0  0  0  0  0  0  0  0  0  0
    0.5258   -0.7174    0.4510 H   0  0  0  0  0  0  0  0  0  0  0  0
    0.5456   -1.2759   -1.2407 H   0  0  0  0  0  0  0  0  0  0  0  0
    2.4825   -1.0919    1.7546 H   0  0  0  0  0  0  0  0  0  0  0  0
    4.4748   -1.6861    3.0657 H   0  0  0  0  0  0  0  0  0  0  0  0
    6.2213   -2.0738   -0.1204 H   0  0  0  0  0  0  0  0  0  0  0  0
    5.2026   -1.7211   -2.3481 H   0  0  0  0  0  0  0  0  0  0  0  0
    2.8348   -1.0526   -2.5434 H   0  0  0  0  0  0  0  0  0  0  0  0
   -1.2829    0.8966    0.6335 H   0  0  0  0  0  0  0  0  0  0  0  0
   -3.1997    1.4844   -1.6823 H   0  0  0  0  0  0  0  0  0  0  0  0
   -3.9276    0.6322    2.2585 H   0  0  0  0  0  0  0  0  0  0  0  0
   -5.5530    0.9234    1.4817 H   0  0  0  0  0  0  0  0  0  0  0  0
   -4.6693    2.3519   -0.1352 H   0  0  0  0  0  0  0  0  0  0  0  0
   -3.7229    3.2603    1.6641 H   0  0  0  0  0  0  0  0  0  0  0  0
   -5.4568   -1.9279    1.6784 H   0  0  0  0  0  0  0  0  0  0  0  0
   -4.9244   -3.8426    0.1731 H   0  0  0  0  0  0  0  0  0  0  0  0
   -3.4592   -3.4995   -1.8063 H   0  0  0  0  0  0  0  0  0  0  0  0
   -2.5195   -1.2416   -2.2865 H   0  0  0  0  0  0  0  0  0  0  0  0
  1  2  1  0
  2  3  1  0
  3  4  2  0
  3  5  1  0
  5  6  1  0
  1  7  1  0
  7  8  1  0
  8  9  2  0
  9 10  1  0
 10 11  1  0
 10 12  2  0
 12 13  1  0
 13 14  2  0
  1 15  1  0
 15 16  2  0
 15 17  1  0
 17 18  1  0
 18 19  1  0
 19 20  2  0
 20 21  1  0
 21 22  1  0
 22 23  1  0
 20 24  1  0
 24 25  2  0
 25 26  1  0
 26 27  2  0
 14  8  1  0
 22 18  1  0
 27 19  1  0
  1 28  1  6
  2 29  1  0
  2 30  1  0
  5 31  1  0
  6 32  1  0
  7 33  1  0
  7 34  1  0
  9 35  1  0
 11 36  1  0
 12 37  1  0
 13 38  1  0
 14 39  1  0
 17 40  1  0
 18 41  1  6
 21 42  1  0
 21 43  1  0
 22 44  1  6
 23 45  1  0
 24 46  1  0
 25 47  1  0
 26 48  1  0
 27 49  1  0
M  END
$$$$
