
     RDKit          3D

 23 24  0  0  0  0  0  0  0  0999 V2000
   -4.6760   -0.3407    0.5033 N   0  0  0  0  0  0  0  0  0  0  0  0
   -3.2663   -0.3155    0.2932 C   0  0  0  0  0  0  0  0  0  0  0  0
   -2.5863    0.8566    0.3633 N   0  0  0  0  0  0  0  0  0  0  0  0
   -1.2433    0.8982    0.1659 C   0  0  0  0  0  0  0  0  0  0  0  0
   -0.5705    2.1606    0.2071 N   0  0  0  0  0  0  0  0  0  0  0  0
   -0.5588   -0.3022   -0.1042 C   0  0  0  0  0  0  0  0  0  0  0  0
   -1.2781   -1.4525   -0.1825 N   0  0  0  0  0  0  0  0  0  0  0  0
   -2.5966   -1.4623    0.0127 N   0  0  0  0  0  0  0  0  0  0  0  0
    0.8991   -0.3550   -0.3238 C   0  0  0  0  0  0  0  0  0  0  0  0
    1.8144   -0.1060    0.7230 C   0  0  0  0  0  0  0  0  0  0  0  0
    1.2382    0.2452    2.3549 Cl  0  0  0  0  0  0  0  0  0  0  0  0
    3.1972   -0.1690    0.4668 C   0  0  0  0  0  0  0  0  0  0  0  0
    4.3773    0.1397    1.7344 Cl  0  0  0  0  0  0  0  0  0  0  0  0
    3.6575   -0.4889   -0.8149 C   0  0  0  0  0  0  0  0  0  0  0  0
    2.7512   -0.7537   -1.8423 C   0  0  0  0  0  0  0  0  0  0  0  0
    1.3785   -0.6923   -1.5981 C   0  0  0  0  0  0  0  0  0  0  0  0
   -5.1945    0.5403    0.7160 H   0  0  0  0  0  0  0  0  0  0  0  0
   -5.2028   -1.2404    0.4468 H   0  0  0  0  0  0  0  0  0  0  0  0
    0.4458    2.2534   -0.0110 H   0  0  0  0  0  0  0  0  0  0  0  0
   -1.1069    3.0287    0.4280 H   0  0  0  0  0  0  0  0  0  0  0  0
    4.7204   -0.5390   -1.0147 H   0  0  0  0  0  0  0  0  0  0  0  0
    3.1135   -1.0068   -2.8304 H   0  0  0  0  0  0  0  0  0  0  0  0
    0.6870   -0.8981   -2.4064 H   0  0  0  0  0  0  0  0  0  0  0  0
  1  2  1  0
  2  3  2  0
  3  4  1  0
  4  5  1  0
  4  6  2  0
  6  7  1  0
  7  8  2  0
  6  9  1  0
  9 10  2  0
 10 11  1  0
 10 12  1  0
 12 13  1  0
 12 14  2  0
 14 15  1  0
 15 16  2  0
  8  2  1  0
 16  9  1  0
  1 17  1  0
  1 18  1  0
  5 19  1  0
  5 20  1  0
 14 21  1  0
 15 22  1  0
 16 23  1  0
M  END
$$$$
