
     RDKit          3D

129134  0  0  0  0  0  0  0  0999 V2000
    2.5227   -1.9951   -0.3982 C   0  0  0  0  0  0  0  0  0  0  0  0
    2.1608   -0.6915    0.3234 C   0  0  1  0  0  0  0  0  0  0  0  0
    3.3469    0.0308    0.6404 O   0  0  0  0  0  0  0  0  0  0  0  0
    3.7081    0.9316   -0.3912 C   0  0  2  0  0  0  0  0  0  0  0  0
    5.0147    1.4238   -0.1611 O   0  0  0  0  0  0  0  0  0  0  0  0
    5.9945    0.4056   -0.3210 C   0  0  2  0  0  0  0  0  0  0  0  0
    6.7859    0.2424    1.0117 C   0  0  1  0  0  0  0  0  0  0  0  0
    6.8081   -1.2088    1.5356 C   0  0  0  0  0  0  0  0  0  0  0  0
    5.5231   -1.5869    1.9465 O   0  0  0  0  0  0  0  0  0  0  0  0
    8.0901    0.8002    0.9330 O   0  0  0  0  0  0  0  0  0  0  0  0
    8.9199    0.1671   -0.0377 C   0  0  2  0  0  0  0  0  0  0  0  0
   10.0737    0.9701   -0.2212 O   0  0  0  0  0  0  0  0  0  0  0  0
   10.9879    0.8381    0.8590 C   0  0  2  0  0  0  0  0  0  0  0  0
   11.5681    2.2431    1.1688 C   0  0  1  0  0  0  0  0  0  0  0  0
   12.1504    2.3799    2.5905 C   0  0  0  0  0  0  0  0  0  0  0  0
   12.6587    3.6730    2.7697 O   0  0  0  0  0  0  0  0  0  0  0  0
   12.4583    2.7064    0.1601 O   0  0  0  0  0  0  0  0  0  0  0  0
   13.5484    1.8261   -0.0532 C   0  0  2  0  0  0  0  0  0  0  0  0
   14.3969    2.4042   -1.0098 O   0  0  0  0  0  0  0  0  0  0  0  0
   13.0579    0.4544   -0.5576 C   0  0  2  0  0  0  0  0  0  0  0  0
   12.4020    0.5960   -1.7931 O   0  0  0  0  0  0  0  0  0  0  0  0
   12.0930   -0.1656    0.4662 C   0  0  1  0  0  0  0  0  0  0  0  0
   12.7934   -0.5743    1.6137 O   0  0  0  0  0  0  0  0  0  0  0  0
    8.2099   -0.0283   -1.4093 C   0  0  2  0  0  0  0  0  0  0  0  0
    9.0717    0.3189   -2.4661 O   0  0  0  0  0  0  0  0  0  0  0  0
    6.9281    0.8135   -1.4717 C   0  0  1  0  0  0  0  0  0  0  0  0
    6.2671    0.6088   -2.6947 O   0  0  0  0  0  0  0  0  0  0  0  0
    2.7072    2.1106   -0.4155 C   0  0  2  0  0  0  0  0  0  0  0  0
    3.0955    3.1362    0.4662 O   0  0  0  0  0  0  0  0  0  0  0  0
    1.2657    1.6393   -0.0867 C   0  0  1  0  0  0  0  0  0  0  0  0
    0.3394    2.4186   -0.7988 O   0  0  0  0  0  0  0  0  0  0  0  0
    1.0853    0.1459   -0.4454 C   0  0  2  0  0  0  0  0  0  0  0  0
   -0.2676   -0.3362   -0.0814 N   0  0  0  0  0  0  0  0  0  0  0  0
   -0.8651   -1.2581   -1.0719 C   0  0  1  0  0  0  0  0  0  0  0  0
   -1.5714   -2.3582   -0.3173 C   0  0  0  0  0  0  0  0  0  0  0  0
   -2.9155   -2.4605   -0.2066 C   0  0  0  0  0  0  0  0  0  0  0  0
   -3.4808   -3.6065    0.6053 C   0  0  0  0  0  0  0  0  0  0  0  0
   -3.8409   -4.6666   -0.2370 O   0  0  0  0  0  0  0  0  0  0  0  0
   -3.8479   -1.6066   -1.0638 C   0  0  1  0  0  0  0  0  0  0  0  0
   -5.0378   -1.3032   -0.3496 O   0  0  0  0  0  0  0  0  0  0  0  0
   -6.1372   -2.1389   -0.7053 C   0  0  1  0  0  0  0  0  0  0  0  0
   -6.8837   -2.4757    0.4533 O   0  0  0  0  0  0  0  0  0  0  0  0
   -7.3979   -1.3218    1.1045 C   0  0  2  0  0  0  0  0  0  0  0  0
   -8.0805   -1.7647    2.4070 C   0  0  0  0  0  0  0  0  0  0  0  0
   -7.1568   -2.3981    3.2514 O   0  0  0  0  0  0  0  0  0  0  0  0
   -8.3972   -0.5735    0.1900 C   0  0  1  0  0  0  0  0  0  0  0  0
   -8.8151    0.6210    0.8367 O   0  0  0  0  0  0  0  0  0  0  0  0
  -10.2204    0.7810    0.7775 C   0  0  1  0  0  0  0  0  0  0  0  0
  -10.8334   -0.1550    1.6524 O   0  0  0  0  0  0  0  0  0  0  0  0
  -12.2532   -0.0995    1.6049 C   0  0  2  0  0  0  0  0  0  0  0  0
  -12.8317   -0.6931    0.3011 C   0  0  0  0  0  0  0  0  0  0  0  0
  -12.2247   -1.9232    0.0100 O   0  0  0  0  0  0  0  0  0  0  0  0
  -12.8070    1.3065    1.9527 C   0  0  1  0  0  0  0  0  0  0  0  0
  -12.6534    1.5194    3.3339 O   0  0  0  0  0  0  0  0  0  0  0  0
  -12.0855    2.4266    1.1740 C   0  0  2  0  0  0  0  0  0  0  0  0
  -12.5492    2.4558   -0.1518 O   0  0  0  0  0  0  0  0  0  0  0  0
  -10.5591    2.2163    1.2028 C   0  0  1  0  0  0  0  0  0  0  0  0
  -10.0577    2.4526    2.4942 O   0  0  0  0  0  0  0  0  0  0  0  0
   -7.7050   -0.2089   -1.1353 C   0  0  2  0  0  0  0  0  0  0  0  0
   -8.6549    0.3171   -2.0262 O   0  0  0  0  0  0  0  0  0  0  0  0
   -7.0548   -1.4630   -1.7439 C   0  0  1  0  0  0  0  0  0  0  0  0
   -6.3182   -1.1299   -2.8912 O   0  0  0  0  0  0  0  0  0  0  0  0
   -3.1836   -0.2736   -1.4530 C   0  0  2  0  0  0  0  0  0  0  0  0
   -4.0016    0.3957   -2.3782 O   0  0  0  0  0  0  0  0  0  0  0  0
   -1.8032   -0.5394   -2.0773 C   0  0  1  0  0  0  0  0  0  0  0  0
   -1.2369    0.6694   -2.5132 O   0  0  0  0  0  0  0  0  0  0  0  0
    2.8385   -1.7985   -1.4441 H   0  0  0  0  0  0  0  0  0  0  0  0
    3.3573   -2.4989    0.1338 H   0  0  0  0  0  0  0  0  0  0  0  0
    1.6570   -2.6884   -0.4028 H   0  0  0  0  0  0  0  0  0  0  0  0
    1.7170   -0.9851    1.3004 H   0  0  0  0  0  0  0  0  0  0  0  0
    3.6751    0.4354   -1.3927 H   0  0  0  0  0  0  0  0  0  0  0  0
    5.5577   -0.5882   -0.5947 H   0  0  0  0  0  0  0  0  0  0  0  0
    6.2547    0.8292    1.7940 H   0  0  0  0  0  0  0  0  0  0  0  0
    7.5038   -1.2713    2.4021 H   0  0  0  0  0  0  0  0  0  0  0  0
    7.1627   -1.9048    0.7436 H   0  0  0  0  0  0  0  0  0  0  0  0
    5.5980   -2.5258    2.2590 H   0  0  0  0  0  0  0  0  0  0  0  0
    9.2200   -0.8444    0.3262 H   0  0  0  0  0  0  0  0  0  0  0  0
   10.4885    0.4703    1.7893 H   0  0  0  0  0  0  0  0  0  0  0  0
   10.6996    2.9390    1.1533 H   0  0  0  0  0  0  0  0  0  0  0  0
   12.9503    1.6352    2.7804 H   0  0  0  0  0  0  0  0  0  0  0  0
   11.3398    2.1986    3.3319 H   0  0  0  0  0  0  0  0  0  0  0  0
   13.0050    3.7075    3.6991 H   0  0  0  0  0  0  0  0  0  0  0  0
   14.1315    1.6958    0.8870 H   0  0  0  0  0  0  0  0  0  0  0  0
   15.2518    1.8993   -0.9825 H   0  0  0  0  0  0  0  0  0  0  0  0
   13.9321   -0.2292   -0.6744 H   0  0  0  0  0  0  0  0  0  0  0  0
   13.1052    0.6351   -2.4927 H   0  0  0  0  0  0  0  0  0  0  0  0
   11.6107   -1.0599    0.0061 H   0  0  0  0  0  0  0  0  0  0  0  0
   13.2814   -1.4054    1.3748 H   0  0  0  0  0  0  0  0  0  0  0  0
    7.9271   -1.1053   -1.5019 H   0  0  0  0  0  0  0  0  0  0  0  0
    8.7813   -0.1972   -3.2630 H   0  0  0  0  0  0  0  0  0  0  0  0
    7.1956    1.8922   -1.3552 H   0  0  0  0  0  0  0  0  0  0  0  0
    6.6709    1.2345   -3.3512 H   0  0  0  0  0  0  0  0  0  0  0  0
    2.7227    2.5320   -1.4453 H   0  0  0  0  0  0  0  0  0  0  0  0
    3.1702    2.7389    1.3736 H   0  0  0  0  0  0  0  0  0  0  0  0
    1.0743    1.7440    1.0083 H   0  0  0  0  0  0  0  0  0  0  0  0
    0.3105    3.3052   -0.3529 H   0  0  0  0  0  0  0  0  0  0  0  0
    1.2575    0.0605   -1.5433 H   0  0  0  0  0  0  0  0  0  0  0  0
   -0.9223    0.4468    0.1449 H   0  0  0  0  0  0  0  0  0  0  0  0
   -0.0723   -1.7590   -1.6695 H   0  0  0  0  0  0  0  0  0  0  0  0
   -0.9376   -3.0403    0.2439 H   0  0  0  0  0  0  0  0  0  0  0  0
   -4.3754   -3.2695    1.1661 H   0  0  0  0  0  0  0  0  0  0  0  0
   -2.7564   -3.9589    1.3754 H   0  0  0  0  0  0  0  0  0  0  0  0
   -2.9949   -5.1013   -0.5220 H   0  0  0  0  0  0  0  0  0  0  0  0
   -4.0389   -2.1625   -2.0127 H   0  0  0  0  0  0  0  0  0  0  0  0
   -5.8047   -3.1086   -1.1412 H   0  0  0  0  0  0  0  0  0  0  0  0
   -6.5730   -0.6307    1.3949 H   0  0  0  0  0  0  0  0  0  0  0  0
   -8.9374   -2.4429    2.1869 H   0  0  0  0  0  0  0  0  0  0  0  0
   -8.4796   -0.8770    2.9419 H   0  0  0  0  0  0  0  0  0  0  0  0
   -7.0824   -3.3385    2.9418 H   0  0  0  0  0  0  0  0  0  0  0  0
   -9.2366   -1.2789   -0.0346 H   0  0  0  0  0  0  0  0  0  0  0  0
  -10.5629    0.6432   -0.2735 H   0  0  0  0  0  0  0  0  0  0  0  0
  -12.6138   -0.7779    2.4098 H   0  0  0  0  0  0  0  0  0  0  0  0
  -12.6783   -0.0148   -0.5599 H   0  0  0  0  0  0  0  0  0  0  0  0
  -13.9324   -0.8287    0.4066 H   0  0  0  0  0  0  0  0  0  0  0  0
  -12.5976   -2.5833    0.6510 H   0  0  0  0  0  0  0  0  0  0  0  0
  -13.8947    1.3325    1.7043 H   0  0  0  0  0  0  0  0  0  0  0  0
  -13.2781    2.2488    3.5866 H   0  0  0  0  0  0  0  0  0  0  0  0
  -12.3282    3.4034    1.6556 H   0  0  0  0  0  0  0  0  0  0  0  0
  -12.2763    3.3305   -0.5345 H   0  0  0  0  0  0  0  0  0  0  0  0
  -10.0754    2.9187    0.4836 H   0  0  0  0  0  0  0  0  0  0  0  0
  -10.0466    3.4372    2.6216 H   0  0  0  0  0  0  0  0  0  0  0  0
   -6.9149    0.5526   -0.9255 H   0  0  0  0  0  0  0  0  0  0  0  0
   -8.1650    0.9036   -2.6599 H   0  0  0  0  0  0  0  0  0  0  0  0
   -7.8565   -2.1933   -2.0113 H   0  0  0  0  0  0  0  0  0  0  0  0
   -6.9617   -1.0789   -3.6454 H   0  0  0  0  0  0  0  0  0  0  0  0
   -3.0766    0.3471   -0.5326 H   0  0  0  0  0  0  0  0  0  0  0  0
   -3.7865    1.3627   -2.3113 H   0  0  0  0  0  0  0  0  0  0  0  0
   -1.9550   -1.2092   -2.9583 H   0  0  0  0  0  0  0  0  0  0  0  0
   -0.5410    0.4355   -3.1815 H   0  0  0  0  0  0  0  0  0  0  0  0
  1  2  1  0
  2  3  1  0
  3  4  1  0
  4  5  1  0
  5  6  1  0
  6  7  1  0
  7  8  1  0
  8  9  1  0
  7 10  1  0
 10 11  1  0
 11 12  1  0
 12 13  1  0
 13 14  1  0
 14 15  1  0
 15 16  1  0
 14 17  1  0
 17 18  1  0
 18 19  1  0
 18 20  1  0
 20 21  1  0
 20 22  1  0
 22 23  1  0
 11 24  1  0
 24 25  1  0
 24 26  1  0
 26 27  1  0
  4 28  1  0
 28 29  1  0
 28 30  1  0
 30 31  1  0
 30 32  1  0
 32 33  1  0
 33 34  1  0
 34 35  1  0
 35 36  2  0
 36 37  1  0
 37 38  1  0
 36 39  1  0
 39 40  1  0
 40 41  1  0
 41 42  1  0
 42 43  1  0
 43 44  1  0
 44 45  1  0
 43 46  1  0
 46 47  1  0
 47 48  1  0
 48 49  1  0
 49 50  1  0
 50 51  1  0
 51 52  1  0
 50 53  1  0
 53 54  1  0
 53 55  1  0
 55 56  1  0
 55 57  1  0
 57 58  1  0
 46 59  1  0
 59 60  1  0
 59 61  1  0
 61 62  1  0
 39 63  1  0
 63 64  1  0
 63 65  1  0
 65 66  1  0
 32  2  1  0
 65 34  1  0
 26  6  1  0
 61 41  1  0
 22 13  1  0
 57 48  1  0
  1 67  1  0
  1 68  1  0
  1 69  1  0
  2 70  1  1
  4 71  1  6
  6 72  1  6
  7 73  1  1
  8 74  1  0
  8 75  1  0
  9 76  1  0
 11 77  1  1
 13 78  1  1
 14 79  1  1
 15 80  1  0
 15 81  1  0
 16 82  1  0
 18 83  1  1
 19 84  1  0
 20 85  1  6
 21 86  1  0
 22 87  1  6
 23 88  1  0
 24 89  1  6
 25 90  1  0
 26 91  1  1
 27 92  1  0
 28 93  1  6
 29 94  1  0
 30 95  1  1
 31 96  1  0
 32 97  1  6
 33 98  1  0
 34 99  1  6
 35100  1  0
 37101  1  0
 37102  1  0
 38103  1  0
 39104  1  6
 41105  1  6
 43106  1  1
 44107  1  0
 44108  1  0
 45109  1  0
 46110  1  6
 48111  1  6
 50112  1  1
 51113  1  0
 51114  1  0
 52115  1  0
 53116  1  1
 54117  1  0
 55118  1  1
 56119  1  0
 57120  1  6
 58121  1  0
 59122  1  1
 60123  1  0
 61124  1  6
 62125  1  0
 63126  1  1
 64127  1  0
 65128  1  6
 66129  1  0
M  END
$$$$
