
     RDKit          3D

 28 29  0  0  0  0  0  0  0  0999 V2000
   -4.1227   -1.3273    1.2057 N   0  0  0  0  0  0  0  0  0  0  0  0
   -3.0293   -0.4441    0.9426 C   0  0  0  0  0  0  0  0  0  0  0  0
   -2.5561   -0.2768   -0.3666 C   0  0  0  0  0  0  0  0  0  0  0  0
   -1.4868    0.5863   -0.6234 C   0  0  0  0  0  0  0  0  0  0  0  0
   -0.8782    1.2868    0.4266 C   0  0  0  0  0  0  0  0  0  0  0  0
   -1.3537    1.1244    1.7350 C   0  0  0  0  0  0  0  0  0  0  0  0
   -2.4237    0.2617    1.9920 C   0  0  0  0  0  0  0  0  0  0  0  0
    0.4760    2.3628    0.0971 S   0  0  0  0  0  6  0  0  0  0  0  0
    1.3076    2.5650    1.3332 O   0  0  0  0  0  0  0  0  0  0  0  0
   -0.0609    3.6919   -0.3530 O   0  0  0  0  0  0  0  0  0  0  0  0
    1.4759    1.6964   -1.1555 N   0  0  0  0  0  0  0  0  0  0  0  0
    2.0887    0.3987   -1.0949 C   0  0  0  0  0  0  0  0  0  0  0  0
    2.0356   -0.4006    0.0622 C   0  0  0  0  0  0  0  0  0  0  0  0
    2.6466   -1.6562    0.0580 C   0  0  0  0  0  0  0  0  0  0  0  0
    3.3057   -2.1063   -1.0858 C   0  0  0  0  0  0  0  0  0  0  0  0
    3.3454   -1.2881   -2.2153 C   0  0  0  0  0  0  0  0  0  0  0  0
    2.7436   -0.0690   -2.1942 N   0  0  0  0  0  0  0  0  0  0  0  0
   -4.5803   -1.8571    0.4306 H   0  0  0  0  0  0  0  0  0  0  0  0
   -4.4823   -1.4582    2.1775 H   0  0  0  0  0  0  0  0  0  0  0  0
   -3.0155   -0.8145   -1.1865 H   0  0  0  0  0  0  0  0  0  0  0  0
   -1.1322    0.7062   -1.6392 H   0  0  0  0  0  0  0  0  0  0  0  0
   -0.8975    1.6628    2.5557 H   0  0  0  0  0  0  0  0  0  0  0  0
   -2.7803    0.1432    3.0074 H   0  0  0  0  0  0  0  0  0  0  0  0
    1.5909    2.2597   -2.0273 H   0  0  0  0  0  0  0  0  0  0  0  0
    1.5367   -0.0688    0.9609 H   0  0  0  0  0  0  0  0  0  0  0  0
    2.6104   -2.2793    0.9424 H   0  0  0  0  0  0  0  0  0  0  0  0
    3.7823   -3.0779   -1.0966 H   0  0  0  0  0  0  0  0  0  0  0  0
    3.8541   -1.6216   -3.1098 H   0  0  0  0  0  0  0  0  0  0  0  0
  1  2  1  0
  2  3  2  0
  3  4  1  0
  4  5  2  0
  5  6  1  0
  6  7  2  0
  5  8  1  0
  8  9  2  0
  8 10  2  0
  8 11  1  0
 11 12  1  0
 12 13  2  0
 13 14  1  0
 14 15  2  0
 15 16  1  0
 16 17  2  0
  7  2  1  0
 17 12  1  0
  1 18  1  0
  1 19  1  0
  3 20  1  0
  4 21  1  0
  6 22  1  0
  7 23  1  0
 11 24  1  0
 13 25  1  0
 14 26  1  0
 15 27  1  0
 16 28  1  0
M  END
$$$$
