
     RDKit          3D

 62 64  0  0  0  0  0  0  0  0999 V2000
   -4.7885   -2.0095    0.4792 C   0  0  0  0  0  0  0  0  0  0  0  0
   -4.3601   -0.6836    0.9391 N   0  0  0  0  0  0  0  0  0  0  0  0
   -2.9304   -0.3913    0.7012 C   0  0  2  0  0  0  0  0  0  0  0  0
   -2.6423   -0.0835   -0.7854 C   0  0  0  0  0  0  0  0  0  0  0  0
   -3.4454    1.0970   -1.2674 C   0  0  0  0  0  0  0  0  0  0  0  0
   -4.6737    0.9046   -1.9219 C   0  0  0  0  0  0  0  0  0  0  0  0
   -5.4276    2.0050   -2.3418 C   0  0  0  0  0  0  0  0  0  0  0  0
   -4.9646    3.3025   -2.1067 C   0  0  0  0  0  0  0  0  0  0  0  0
   -3.7477    3.5022   -1.4489 C   0  0  0  0  0  0  0  0  0  0  0  0
   -2.9909    2.4049   -1.0269 C   0  0  0  0  0  0  0  0  0  0  0  0
   -2.0139   -1.4429    1.2957 C   0  0  0  0  0  0  0  0  0  0  0  0
   -1.9672   -1.5723    2.5484 O   0  0  0  0  0  0  0  0  0  0  0  0
   -1.1657   -2.2609    0.4776 N   0  0  0  0  0  0  0  0  0  0  0  0
   -1.6450   -3.4570   -0.1932 C   0  0  0  0  0  0  0  0  0  0  0  0
   -0.4011   -4.1467   -0.7368 C   0  0  0  0  0  0  0  0  0  0  0  0
    0.7665   -3.5807    0.0668 C   0  0  0  0  0  0  0  0  0  0  0  0
    0.2831   -2.2273    0.5987 C   0  0  1  0  0  0  0  0  0  0  0  0
    0.8221   -1.0609   -0.1873 C   0  0  0  0  0  0  0  0  0  0  0  0
    0.9841   -1.1613   -1.4348 O   0  0  0  0  0  0  0  0  0  0  0  0
    1.0477    0.1940    0.4711 N   0  0  0  0  0  0  0  0  0  0  0  0
    1.4813    1.3998   -0.2377 C   0  0  0  0  0  0  0  0  0  0  0  0
    3.0145    1.5733   -0.2037 C   0  0  1  0  0  0  0  0  0  0  0  0
    3.5402    1.8310    1.2345 C   0  0  0  0  0  0  0  0  0  0  0  0
    4.9493    1.2608    1.4902 C   0  0  0  0  0  0  0  0  0  0  0  0
    5.8749    1.3511    0.2568 C   0  0  2  0  0  0  0  0  0  0  0  0
    6.2607    2.7383   -0.0231 N   0  0  0  0  0  0  0  0  0  0  0  0
    5.2548    0.6922   -1.0047 C   0  0  0  0  0  0  0  0  0  0  0  0
    3.7489    0.4021   -0.8803 C   0  0  0  0  0  0  0  0  0  0  0  0
   -4.2935   -2.8152    1.0616 H   0  0  0  0  0  0  0  0  0  0  0  0
   -5.8840   -2.1065    0.6297 H   0  0  0  0  0  0  0  0  0  0  0  0
   -4.5912   -2.1427   -0.6028 H   0  0  0  0  0  0  0  0  0  0  0  0
   -4.5440   -0.6283    1.9686 H   0  0  0  0  0  0  0  0  0  0  0  0
   -2.6930    0.5473    1.2522 H   0  0  0  0  0  0  0  0  0  0  0  0
   -2.8420   -0.9638   -1.4281 H   0  0  0  0  0  0  0  0  0  0  0  0
   -1.5649    0.1540   -0.9086 H   0  0  0  0  0  0  0  0  0  0  0  0
   -5.0473   -0.0947   -2.1063 H   0  0  0  0  0  0  0  0  0  0  0  0
   -6.3720    1.8517   -2.8478 H   0  0  0  0  0  0  0  0  0  0  0  0
   -5.5498    4.1530   -2.4317 H   0  0  0  0  0  0  0  0  0  0  0  0
   -3.3921    4.5075   -1.2636 H   0  0  0  0  0  0  0  0  0  0  0  0
   -2.0525    2.5728   -0.5124 H   0  0  0  0  0  0  0  0  0  0  0  0
   -2.3390   -3.1985   -1.0189 H   0  0  0  0  0  0  0  0  0  0  0  0
   -2.1591   -4.1165    0.5395 H   0  0  0  0  0  0  0  0  0  0  0  0
   -0.4694   -5.2513   -0.6325 H   0  0  0  0  0  0  0  0  0  0  0  0
   -0.2702   -3.8868   -1.8103 H   0  0  0  0  0  0  0  0  0  0  0  0
    1.6900   -3.5075   -0.5489 H   0  0  0  0  0  0  0  0  0  0  0  0
    0.9741   -4.2577    0.9249 H   0  0  0  0  0  0  0  0  0  0  0  0
    0.5799   -2.1307    1.6670 H   0  0  0  0  0  0  0  0  0  0  0  0
    0.8119    0.2765    1.4857 H   0  0  0  0  0  0  0  0  0  0  0  0
    1.0088    2.2859    0.2397 H   0  0  0  0  0  0  0  0  0  0  0  0
    1.1215    1.3809   -1.2896 H   0  0  0  0  0  0  0  0  0  0  0  0
    3.2334    2.4820   -0.8086 H   0  0  0  0  0  0  0  0  0  0  0  0
    3.5517    2.9274    1.4197 H   0  0  0  0  0  0  0  0  0  0  0  0
    2.8595    1.3930    1.9948 H   0  0  0  0  0  0  0  0  0  0  0  0
    5.4112    1.7860    2.3543 H   0  0  0  0  0  0  0  0  0  0  0  0
    4.8540    0.1906    1.7789 H   0  0  0  0  0  0  0  0  0  0  0  0
    6.8058    0.7924    0.5032 H   0  0  0  0  0  0  0  0  0  0  0  0
    6.7518    3.1285    0.8140 H   0  0  0  0  0  0  0  0  0  0  0  0
    5.4085    3.3206   -0.1859 H   0  0  0  0  0  0  0  0  0  0  0  0
    5.4235    1.3384   -1.8945 H   0  0  0  0  0  0  0  0  0  0  0  0
    5.7748   -0.2689   -1.2115 H   0  0  0  0  0  0  0  0  0  0  0  0
    3.3333    0.2272   -1.8965 H   0  0  0  0  0  0  0  0  0  0  0  0
    3.6061   -0.5276   -0.2871 H   0  0  0  0  0  0  0  0  0  0  0  0
  1  2  1  0
  2  3  1  0
  3  4  1  0
  4  5  1  0
  5  6  2  0
  6  7  1  0
  7  8  2  0
  8  9  1  0
  9 10  2  0
  3 11  1  0
 11 12  2  0
 11 13  1  0
 13 14  1  0
 14 15  1  0
 15 16  1  0
 16 17  1  0
 17 18  1  0
 18 19  2  0
 18 20  1  0
 20 21  1  0
 21 22  1  0
 22 23  1  0
 23 24  1  0
 24 25  1  0
 25 26  1  0
 25 27  1  0
 27 28  1  0
 10  5  1  0
 17 13  1  0
 28 22  1  0
  1 29  1  0
  1 30  1  0
  1 31  1  0
  2 32  1  0
  3 33  1  1
  4 34  1  0
  4 35  1  0
  6 36  1  0
  7 37  1  0
  8 38  1  0
  9 39  1  0
 10 40  1  0
 14 41  1  0
 14 42  1  0
 15 43  1  0
 15 44  1  0
 16 45  1  0
 16 46  1  0
 17 47  1  1
 20 48  1  0
 21 49  1  0
 21 50  1  0
 22 51  1  6
 23 52  1  0
 23 53  1  0
 24 54  1  0
 24 55  1  0
 25 56  1  1
 26 57  1  0
 26 58  1  0
 27 59  1  0
 27 60  1  0
 28 61  1  0
 28 62  1  0
M  END
$$$$
