
     RDKit          3D

 30 31  0  0  0  0  0  0  0  0999 V2000
   -3.6346    1.6302   -0.2829 C   0  0  0  0  0  0  0  0  0  0  0  0
   -3.8847    0.1258   -0.1607 C   0  0  0  0  0  0  0  0  0  0  0  0
   -2.5916   -0.7036   -0.2606 C   0  0  0  0  0  0  0  0  0  0  0  0
   -1.9645   -0.5130   -1.5737 N   0  0  0  0  0  0  0  0  0  0  0  0
   -0.5456   -0.5176   -1.7502 C   0  0  0  0  0  0  0  0  0  0  0  0
   -0.0632   -0.5471   -2.9145 O   0  0  0  0  0  0  0  0  0  0  0  0
    0.3352   -0.4713   -0.5731 C   0  0  0  0  0  0  0  0  0  0  0  0
    1.7337   -0.4919   -0.7002 C   0  0  0  0  0  0  0  0  0  0  0  0
    2.5549   -0.4235    0.4360 C   0  0  0  0  0  0  0  0  0  0  0  0
    1.9622   -0.3271    1.7109 C   0  0  0  0  0  0  0  0  0  0  0  0
    2.9270   -0.2288    3.1804 Cl  0  0  0  0  0  0  0  0  0  0  0  0
    0.5686   -0.3064    1.8325 C   0  0  0  0  0  0  0  0  0  0  0  0
   -0.2485   -0.3844    0.6971 C   0  0  0  0  0  0  0  0  0  0  0  0
   -1.6772   -0.3591    0.8368 N   0  0  0  0  0  0  0  0  0  0  0  0
    4.3124   -0.4480    0.2459 S   0  0  0  0  0  6  0  0  0  0  0  0
    4.9796    1.0227    0.8633 N   0  0  0  0  0  0  0  0  0  0  0  0
    4.8813   -1.6179    0.9983 O   0  0  0  0  0  0  0  0  0  0  0  0
    4.6812   -0.5807   -1.2057 O   0  0  0  0  0  0  0  0  0  0  0  0
   -3.1758    1.8718   -1.2648 H   0  0  0  0  0  0  0  0  0  0  0  0
   -4.6002    2.1725   -0.2038 H   0  0  0  0  0  0  0  0  0  0  0  0
   -2.9665    1.9830    0.5308 H   0  0  0  0  0  0  0  0  0  0  0  0
   -4.5867   -0.1897   -0.9629 H   0  0  0  0  0  0  0  0  0  0  0  0
   -4.3791   -0.0799    0.8135 H   0  0  0  0  0  0  0  0  0  0  0  0
   -2.8626   -1.7767   -0.1601 H   0  0  0  0  0  0  0  0  0  0  0  0
   -2.5666   -0.5643   -2.4268 H   0  0  0  0  0  0  0  0  0  0  0  0
    2.1814   -0.5578   -1.6834 H   0  0  0  0  0  0  0  0  0  0  0  0
    0.1194   -0.2321    2.8152 H   0  0  0  0  0  0  0  0  0  0  0  0
   -2.0798   -0.2839    1.7991 H   0  0  0  0  0  0  0  0  0  0  0  0
    6.0062    0.9974    0.6719 H   0  0  0  0  0  0  0  0  0  0  0  0
    4.5842    1.8014    0.2901 H   0  0  0  0  0  0  0  0  0  0  0  0
  1  2  1  0
  2  3  1  0
  3  4  1  0
  4  5  1  0
  5  6  2  0
  5  7  1  0
  7  8  2  0
  8  9  1  0
  9 10  2  0
 10 11  1  0
 10 12  1  0
 12 13  2  0
 13 14  1  0
  9 15  1  0
 15 16  1  0
 15 17  2  0
 15 18  2  0
 14  3  1  0
 13  7  1  0
  1 19  1  0
  1 20  1  0
  1 21  1  0
  2 22  1  0
  2 23  1  0
  3 24  1  0
  4 25  1  0
  8 26  1  0
 12 27  1  0
 14 28  1  0
 16 29  1  0
 16 30  1  0
M  END
$$$$
