
     RDKit          3D

 60 63  0  0  0  0  0  0  0  0999 V2000
   -4.1027   -1.4648   -2.6554 C   0  0  0  0  0  0  0  0  0  0  0  0
   -3.8397   -1.8991   -1.2078 C   0  0  0  0  0  0  0  0  0  0  0  0
   -4.7321   -3.0691   -0.7840 C   0  0  0  0  0  0  0  0  0  0  0  0
   -3.9349   -0.7819   -0.2553 N   0  0  0  0  0  0  0  0  0  0  0  0
   -4.8401    0.3383   -0.3415 C   0  0  0  0  0  0  0  0  0  0  0  0
   -4.3977    1.6344    0.0057 C   0  0  0  0  0  0  0  0  0  0  0  0
   -5.2786    2.6728    0.0112 N   0  0  0  0  0  0  0  0  0  0  0  0
   -6.5857    2.5127   -0.3186 C   0  0  0  0  0  0  0  0  0  0  0  0
   -7.0652    1.2539   -0.6728 C   0  0  0  0  0  0  0  0  0  0  0  0
   -6.1935    0.1651   -0.6763 C   0  0  0  0  0  0  0  0  0  0  0  0
   -3.0250    1.8824    0.3435 N   0  0  0  0  0  0  0  0  0  0  0  0
   -1.9823    1.7481   -0.6820 C   0  0  0  0  0  0  0  0  0  0  0  0
   -0.7148    1.1347   -0.0730 C   0  0  0  0  0  0  0  0  0  0  0  0
   -0.4161    1.7052    1.2514 N   0  0  0  0  0  0  0  0  0  0  0  0
   -1.2237    2.8189    1.7638 C   0  0  0  0  0  0  0  0  0  0  0  0
   -2.7121    2.4768    1.6501 C   0  0  0  0  0  0  0  0  0  0  0  0
    0.4905    1.0162    2.1303 C   0  0  0  0  0  0  0  0  0  0  0  0
    0.1425    0.7751    3.3177 O   0  0  0  0  0  0  0  0  0  0  0  0
    1.8196    0.5735    1.6719 C   0  0  0  0  0  0  0  0  0  0  0  0
    2.5395    1.1237    0.6118 C   0  0  0  0  0  0  0  0  0  0  0  0
    3.7277    0.4269    0.5897 C   0  0  0  0  0  0  0  0  0  0  0  0
    3.6906   -0.4844    1.6088 C   0  0  0  0  0  0  0  0  0  0  0  0
    2.5328   -0.4020    2.2843 N   0  0  0  0  0  0  0  0  0  0  0  0
    4.7580   -1.3405    1.8619 C   0  0  0  0  0  0  0  0  0  0  0  0
    5.8902   -1.2475    1.0323 C   0  0  0  0  0  0  0  0  0  0  0  0
    5.9374   -0.3050   -0.0329 C   0  0  0  0  0  0  0  0  0  0  0  0
    7.0842   -0.1847   -0.8942 N   0  0  0  0  0  0  0  0  0  0  0  0
    8.4187   -1.2947   -0.9182 S   0  0  0  0  0  6  0  0  0  0  0  0
    7.8649   -2.9120   -1.4162 C   0  0  0  0  0  0  0  0  0  0  0  0
    9.4335   -0.8107   -1.9151 O   0  0  0  0  0  0  0  0  0  0  0  0
    9.0655   -1.3538    0.4370 O   0  0  0  0  0  0  0  0  0  0  0  0
    4.8331    0.5504   -0.2474 C   0  0  0  0  0  0  0  0  0  0  0  0
   -5.1673   -1.2001   -2.8152 H   0  0  0  0  0  0  0  0  0  0  0  0
   -3.8459   -2.2941   -3.3484 H   0  0  0  0  0  0  0  0  0  0  0  0
   -3.4695   -0.5900   -2.9121 H   0  0  0  0  0  0  0  0  0  0  0  0
   -2.7923   -2.2752   -1.1748 H   0  0  0  0  0  0  0  0  0  0  0  0
   -4.5608   -3.3069    0.2874 H   0  0  0  0  0  0  0  0  0  0  0  0
   -5.8061   -2.8509   -0.9355 H   0  0  0  0  0  0  0  0  0  0  0  0
   -4.4789   -3.9692   -1.3839 H   0  0  0  0  0  0  0  0  0  0  0  0
   -3.1669   -0.7197    0.4505 H   0  0  0  0  0  0  0  0  0  0  0  0
   -7.2529    3.3640   -0.3034 H   0  0  0  0  0  0  0  0  0  0  0  0
   -8.1083    1.1196   -0.9288 H   0  0  0  0  0  0  0  0  0  0  0  0
   -6.5918   -0.8059   -0.9167 H   0  0  0  0  0  0  0  0  0  0  0  0
   -2.3292    1.1141   -1.5255 H   0  0  0  0  0  0  0  0  0  0  0  0
   -1.7479    2.7543   -1.0919 H   0  0  0  0  0  0  0  0  0  0  0  0
    0.1337    1.3038   -0.7659 H   0  0  0  0  0  0  0  0  0  0  0  0
   -0.8658    0.0379    0.0276 H   0  0  0  0  0  0  0  0  0  0  0  0
   -0.9708    3.0546    2.8207 H   0  0  0  0  0  0  0  0  0  0  0  0
   -1.0081    3.7272    1.1605 H   0  0  0  0  0  0  0  0  0  0  0  0
   -2.9781    1.7505    2.4482 H   0  0  0  0  0  0  0  0  0  0  0  0
   -3.3094    3.4019    1.8016 H   0  0  0  0  0  0  0  0  0  0  0  0
    2.2541    1.9454   -0.0313 H   0  0  0  0  0  0  0  0  0  0  0  0
    2.2458   -0.9723    3.1113 H   0  0  0  0  0  0  0  0  0  0  0  0
    4.7211   -2.0539    2.6752 H   0  0  0  0  0  0  0  0  0  0  0  0
    6.7207   -1.9054    1.2359 H   0  0  0  0  0  0  0  0  0  0  0  0
    7.1013    0.5818   -1.6039 H   0  0  0  0  0  0  0  0  0  0  0  0
    7.3785   -2.8451   -2.4110 H   0  0  0  0  0  0  0  0  0  0  0  0
    8.7345   -3.5982   -1.4782 H   0  0  0  0  0  0  0  0  0  0  0  0
    7.1377   -3.3110   -0.6811 H   0  0  0  0  0  0  0  0  0  0  0  0
    4.8381    1.2838   -1.0442 H   0  0  0  0  0  0  0  0  0  0  0  0
  1  2  1  0
  2  3  1  0
  2  4  1  0
  4  5  1  0
  5  6  2  0
  6  7  1  0
  7  8  2  0
  8  9  1  0
  9 10  2  0
  6 11  1  0
 11 12  1  0
 12 13  1  0
 13 14  1  0
 14 15  1  0
 15 16  1  0
 14 17  1  0
 17 18  2  0
 17 19  1  0
 19 20  2  0
 20 21  1  0
 21 22  2  0
 22 23  1  0
 22 24  1  0
 24 25  2  0
 25 26  1  0
 26 27  1  0
 27 28  1  0
 28 29  1  0
 28 30  2  0
 28 31  2  0
 26 32  2  0
 10  5  1  0
 16 11  1  0
 23 19  1  0
 32 21  1  0
  1 33  1  0
  1 34  1  0
  1 35  1  0
  2 36  1  0
  3 37  1  0
  3 38  1  0
  3 39  1  0
  4 40  1  0
  8 41  1  0
  9 42  1  0
 10 43  1  0
 12 44  1  0
 12 45  1  0
 13 46  1  0
 13 47  1  0
 15 48  1  0
 15 49  1  0
 16 50  1  0
 16 51  1  0
 20 52  1  0
 23 53  1  0
 24 54  1  0
 25 55  1  0
 27 56  1  0
 29 57  1  0
 29 58  1  0
 29 59  1  0
 32 60  1  0
M  END
$$$$
