
     RDKit          3D

 43 46  0  0  0  0  0  0  0  0999 V2000
   -4.8964    0.1408    1.5396 O   0  0  0  0  0  0  0  0  0  0  0  0
   -5.1154   -0.0386    0.1678 C   0  0  0  0  0  0  0  0  0  0  0  0
   -4.1106    0.7872   -0.6317 C   0  0  0  0  0  0  0  0  0  0  0  0
   -2.7451    0.3459   -0.3553 N   0  0  0  0  0  0  0  0  0  0  0  0
   -2.1154   -0.7103   -1.0964 C   0  0  0  0  0  0  0  0  0  0  0  0
   -2.8671   -1.5428   -1.8782 N   0  0  0  0  0  0  0  0  0  0  0  0
   -2.3188   -2.6145   -2.5278 C   0  0  0  0  0  0  0  0  0  0  0  0
   -0.9911   -2.8958   -2.3964 N   0  0  0  0  0  0  0  0  0  0  0  0
   -0.2293   -2.0779   -1.6319 C   0  0  0  0  0  0  0  0  0  0  0  0
   -0.7423   -0.9781   -1.0005 C   0  0  0  0  0  0  0  0  0  0  0  0
    0.3266   -0.3634   -0.3574 C   0  0  0  0  0  0  0  0  0  0  0  0
    1.4423   -1.1690   -0.6330 C   0  0  0  0  0  0  0  0  0  0  0  0
    1.0857   -2.2188   -1.4100 N   0  0  0  0  0  0  0  0  0  0  0  0
    2.8377   -0.9298   -0.2011 C   0  0  0  0  0  0  0  0  0  0  0  0
    3.3946    0.3616   -0.2260 C   0  0  0  0  0  0  0  0  0  0  0  0
    4.7159    0.5683    0.1814 C   0  0  0  0  0  0  0  0  0  0  0  0
    5.4954   -0.5105    0.6056 C   0  0  0  0  0  0  0  0  0  0  0  0
    4.9565   -1.7993    0.6174 C   0  0  0  0  0  0  0  0  0  0  0  0
    3.6352   -2.0106    0.2113 C   0  0  0  0  0  0  0  0  0  0  0  0
    0.3154    0.8878    0.4229 C   0  0  0  0  0  0  0  0  0  0  0  0
   -0.1120    2.0872   -0.1694 C   0  0  0  0  0  0  0  0  0  0  0  0
   -0.0962    3.2773    0.5641 C   0  0  0  0  0  0  0  0  0  0  0  0
    0.3551    3.2786    1.8871 C   0  0  0  0  0  0  0  0  0  0  0  0
    0.7930    2.0899    2.4781 C   0  0  0  0  0  0  0  0  0  0  0  0
    0.7765    0.8972    1.7487 C   0  0  0  0  0  0  0  0  0  0  0  0
   -5.5715   -0.4213    2.0013 H   0  0  0  0  0  0  0  0  0  0  0  0
   -5.0117   -1.1146   -0.0963 H   0  0  0  0  0  0  0  0  0  0  0  0
   -6.1443    0.2947   -0.0932 H   0  0  0  0  0  0  0  0  0  0  0  0
   -4.2110    1.8590   -0.3552 H   0  0  0  0  0  0  0  0  0  0  0  0
   -4.3306    0.6994   -1.7179 H   0  0  0  0  0  0  0  0  0  0  0  0
   -2.3022    0.6908    0.5236 H   0  0  0  0  0  0  0  0  0  0  0  0
   -2.9453   -3.2515   -3.1366 H   0  0  0  0  0  0  0  0  0  0  0  0
    1.7074   -2.9661   -1.7919 H   0  0  0  0  0  0  0  0  0  0  0  0
    2.8185    1.2068   -0.5787 H   0  0  0  0  0  0  0  0  0  0  0  0
    5.1379    1.5648    0.1613 H   0  0  0  0  0  0  0  0  0  0  0  0
    6.5185   -0.3487    0.9196 H   0  0  0  0  0  0  0  0  0  0  0  0
    5.5623   -2.6353    0.9423 H   0  0  0  0  0  0  0  0  0  0  0  0
    3.2309   -3.0151    0.2342 H   0  0  0  0  0  0  0  0  0  0  0  0
   -0.4544    2.0991   -1.1969 H   0  0  0  0  0  0  0  0  0  0  0  0
   -0.4303    4.1991    0.1059 H   0  0  0  0  0  0  0  0  0  0  0  0
    0.3686    4.2010    2.4531 H   0  0  0  0  0  0  0  0  0  0  0  0
    1.1465    2.0930    3.5010 H   0  0  0  0  0  0  0  0  0  0  0  0
    1.1205   -0.0175    2.2157 H   0  0  0  0  0  0  0  0  0  0  0  0
  1  2  1  0
  2  3  1  0
  3  4  1  0
  4  5  1  0
  5  6  2  0
  6  7  1  0
  7  8  2  0
  8  9  1  0
  9 10  2  0
 10 11  1  0
 11 12  2  0
 12 13  1  0
 12 14  1  0
 14 15  2  0
 15 16  1  0
 16 17  2  0
 17 18  1  0
 18 19  2  0
 11 20  1  0
 20 21  2  0
 21 22  1  0
 22 23  2  0
 23 24  1  0
 24 25  2  0
 10  5  1  0
 19 14  1  0
 25 20  1  0
 13  9  1  0
  1 26  1  0
  2 27  1  0
  2 28  1  0
  3 29  1  0
  3 30  1  0
  4 31  1  0
  7 32  1  0
 13 33  1  0
 15 34  1  0
 16 35  1  0
 17 36  1  0
 18 37  1  0
 19 38  1  0
 21 39  1  0
 22 40  1  0
 23 41  1  0
 24 42  1  0
 25 43  1  0
M  END
$$$$
