
     RDKit          3D

 60 62  0  0  0  0  0  0  0  0999 V2000
   -3.3240   -3.1322    0.2153 O   0  0  0  0  0  0  0  0  0  0  0  0
   -3.7142   -2.5633    1.4343 C   0  0  0  0  0  0  0  0  0  0  0  0
   -4.3642   -1.1890    1.2154 C   0  0  1  0  0  0  0  0  0  0  0  0
   -3.4183   -0.2689    0.6751 O   0  0  0  0  0  0  0  0  0  0  0  0
   -3.5437   -0.1068   -0.7281 C   0  0  2  0  0  0  0  0  0  0  0  0
   -2.4695    0.6714   -1.2150 O   0  0  0  0  0  0  0  0  0  0  0  0
   -1.0493   -0.2805   -1.2610 P   0  0  0  0  0  5  0  0  0  0  0  0
    0.2383    0.6761   -1.8053 O   0  0  0  0  0  0  0  0  0  0  0  0
   -1.2373   -1.4180   -2.2402 O   0  0  0  0  0  0  0  0  0  0  0  0
   -0.7082   -0.9348    0.2738 O   0  0  0  0  0  0  0  0  0  0  0  0
   -0.1377    0.3312    1.2563 P   0  0  0  0  0  5  0  0  0  0  0  0
   -1.2028    1.6510    1.1995 O   0  0  0  0  0  0  0  0  0  0  0  0
   -0.0485   -0.1796    2.6777 O   0  0  0  0  0  0  0  0  0  0  0  0
    1.4143    0.7902    0.7202 O   0  0  0  0  0  0  0  0  0  0  0  0
    1.8562    1.8839    1.4886 C   0  0  0  0  0  0  0  0  0  0  0  0
    3.2549    2.3082    1.0226 C   0  0  1  0  0  0  0  0  0  0  0  0
    4.1563    1.2332    1.2046 O   0  0  0  0  0  0  0  0  0  0  0  0
    4.8213    1.0219   -0.0220 C   0  0  2  0  0  0  0  0  0  0  0  0
    3.9546    1.5865   -1.1345 C   0  0  2  0  0  0  0  0  0  0  0  0
    4.7380    1.9927   -2.2266 O   0  0  0  0  0  0  0  0  0  0  0  0
    3.2653    2.7442   -0.4505 C   0  0  2  0  0  0  0  0  0  0  0  0
    4.0144    3.9275   -0.5829 O   0  0  0  0  0  0  0  0  0  0  0  0
    5.0885   -0.4158   -0.2396 N   0  0  0  0  0  0  0  0  0  0  0  0
    4.1753   -1.3499    0.1709 C   0  0  0  0  0  0  0  0  0  0  0  0
    4.3922   -2.7056   -0.0577 C   0  0  0  0  0  0  0  0  0  0  0  0
    5.5495   -3.0921   -0.7241 C   0  0  0  0  0  0  0  0  0  0  0  0
    5.7724   -4.3125   -0.9440 O   0  0  0  0  0  0  0  0  0  0  0  0
    6.4353   -2.1505   -1.1408 N   0  0  0  0  0  0  0  0  0  0  0  0
    6.2136   -0.8257   -0.9141 C   0  0  0  0  0  0  0  0  0  0  0  0
    7.0533    0.0172   -1.3350 O   0  0  0  0  0  0  0  0  0  0  0  0
   -4.8781    0.6099   -1.0572 C   0  0  2  0  0  0  0  0  0  0  0  0
   -4.7536    2.0065   -0.9373 O   0  0  0  0  0  0  0  0  0  0  0  0
   -6.0470    0.0976   -0.1752 C   0  0  1  0  0  0  0  0  0  0  0  0
   -7.2151    0.0132   -0.9514 O   0  0  0  0  0  0  0  0  0  0  0  0
   -5.7070   -1.2802    0.4270 C   0  0  2  0  0  0  0  0  0  0  0  0
   -6.7454   -1.7496    1.2525 O   0  0  0  0  0  0  0  0  0  0  0  0
   -2.8982   -3.9998    0.4399 H   0  0  0  0  0  0  0  0  0  0  0  0
   -2.8225   -2.4395    2.0893 H   0  0  0  0  0  0  0  0  0  0  0  0
   -4.4355   -3.2368    1.9491 H   0  0  0  0  0  0  0  0  0  0  0  0
   -4.6092   -0.8019    2.2288 H   0  0  0  0  0  0  0  0  0  0  0  0
   -3.5670   -1.0953   -1.2455 H   0  0  0  0  0  0  0  0  0  0  0  0
   -0.0990    1.1102   -2.6290 H   0  0  0  0  0  0  0  0  0  0  0  0
   -1.1304    2.0840    2.0872 H   0  0  0  0  0  0  0  0  0  0  0  0
    1.9196    1.6081    2.5658 H   0  0  0  0  0  0  0  0  0  0  0  0
    1.1719    2.7549    1.3741 H   0  0  0  0  0  0  0  0  0  0  0  0
    3.5815    3.1526    1.6700 H   0  0  0  0  0  0  0  0  0  0  0  0
    5.7788    1.5901    0.0291 H   0  0  0  0  0  0  0  0  0  0  0  0
    3.1983    0.8304   -1.4531 H   0  0  0  0  0  0  0  0  0  0  0  0
    4.1059    2.1862   -2.9670 H   0  0  0  0  0  0  0  0  0  0  0  0
    2.2355    2.8885   -0.8575 H   0  0  0  0  0  0  0  0  0  0  0  0
    3.7411    4.3465   -1.4404 H   0  0  0  0  0  0  0  0  0  0  0  0
    3.2672   -1.0544    0.6790 H   0  0  0  0  0  0  0  0  0  0  0  0
    3.6688   -3.4399    0.2749 H   0  0  0  0  0  0  0  0  0  0  0  0
    7.2996   -2.4482   -1.6491 H   0  0  0  0  0  0  0  0  0  0  0  0
   -5.1073    0.3892   -2.1237 H   0  0  0  0  0  0  0  0  0  0  0  0
   -4.4418    2.2013   -0.0145 H   0  0  0  0  0  0  0  0  0  0  0  0
   -6.2070    0.8160    0.6647 H   0  0  0  0  0  0  0  0  0  0  0  0
   -7.9832    0.0260   -0.3224 H   0  0  0  0  0  0  0  0  0  0  0  0
   -5.5989   -2.0020   -0.4125 H   0  0  0  0  0  0  0  0  0  0  0  0
   -6.8981   -1.0738    1.9637 H   0  0  0  0  0  0  0  0  0  0  0  0
  1  2  1  0
  2  3  1  0
  3  4  1  0
  4  5  1  0
  5  6  1  0
  6  7  1  0
  7  8  1  0
  7  9  2  0
  7 10  1  0
 10 11  1  0
 11 12  1  0
 11 13  2  0
 11 14  1  0
 14 15  1  0
 15 16  1  0
 16 17  1  0
 17 18  1  0
 18 19  1  0
 19 20  1  0
 19 21  1  0
 21 22  1  0
 18 23  1  0
 23 24  1  0
 24 25  2  0
 25 26  1  0
 26 27  2  0
 26 28  1  0
 28 29  1  0
 29 30  2  0
  5 31  1  0
 31 32  1  0
 31 33  1  0
 33 34  1  0
 33 35  1  0
 35 36  1  0
 35  3  1  0
 21 16  1  0
 29 23  1  0
  1 37  1  0
  2 38  1  0
  2 39  1  0
  3 40  1  1
  5 41  1  6
  8 42  1  0
 12 43  1  0
 15 44  1  0
 15 45  1  0
 16 46  1  1
 18 47  1  1
 19 48  1  6
 20 49  1  0
 21 50  1  6
 22 51  1  0
 24 52  1  0
 25 53  1  0
 28 54  1  0
 31 55  1  6
 32 56  1  0
 33 57  1  1
 34 58  1  0
 35 59  1  6
 36 60  1  0
M  END
$$$$
