
     RDKit          3D

 36 38  0  0  0  0  0  0  0  0999 V2000
    6.1215    1.7279   -1.2259 C   0  0  0  0  0  0  0  0  0  0  0  0
    4.7125    1.5261   -1.1904 O   0  0  0  0  0  0  0  0  0  0  0  0
    4.0574    0.6660   -0.2963 C   0  0  0  0  0  0  0  0  0  0  0  0
    4.7495   -0.0909    0.6648 C   0  0  0  0  0  0  0  0  0  0  0  0
    4.0505   -0.9266    1.5371 C   0  0  0  0  0  0  0  0  0  0  0  0
    2.6543   -1.0244    1.4641 C   0  0  0  0  0  0  0  0  0  0  0  0
    1.9735   -1.8281    2.3778 O   0  0  0  0  0  0  0  0  0  0  0  0
    1.9500   -0.2886    0.4876 C   0  0  0  0  0  0  0  0  0  0  0  0
    2.6640    0.5636   -0.3734 C   0  0  0  0  0  0  0  0  0  0  0  0
    0.4765   -0.3718    0.3577 C   0  0  0  0  0  0  0  0  0  0  0  0
   -0.2806    0.6734   -0.0753 N   0  0  0  0  0  0  0  0  0  0  0  0
   -1.5253    0.1653   -0.0755 C   0  0  0  0  0  0  0  0  0  0  0  0
   -1.5073   -1.1318    0.3327 C   0  0  0  0  0  0  0  0  0  0  0  0
   -0.2486   -1.4936    0.6081 N   0  0  0  0  0  0  0  0  0  0  0  0
   -2.6635   -1.9009    0.4094 C   0  0  0  0  0  0  0  0  0  0  0  0
   -3.8792   -1.2879    0.0542 C   0  0  0  0  0  0  0  0  0  0  0  0
   -3.9133    0.0678   -0.3735 C   0  0  0  0  0  0  0  0  0  0  0  0
   -2.7063    0.8068   -0.4383 C   0  0  0  0  0  0  0  0  0  0  0  0
   -5.2056    0.6990   -0.7409 C   0  0  0  0  0  0  0  0  0  0  0  0
   -6.3927    0.3716   -0.0088 N   0  0  0  0  0  0  0  0  0  0  0  0
   -5.2749    1.5438   -1.7270 N   0  0  0  0  0  4  0  0  0  0  0  0
    6.4733    2.1364   -0.2550 H   0  0  0  0  0  0  0  0  0  0  0  0
    6.3634    2.4566   -2.0264 H   0  0  0  0  0  0  0  0  0  0  0  0
    6.6389    0.7707   -1.4482 H   0  0  0  0  0  0  0  0  0  0  0  0
    5.8261   -0.0358    0.7506 H   0  0  0  0  0  0  0  0  0  0  0  0
    4.5965   -1.4922    2.2815 H   0  0  0  0  0  0  0  0  0  0  0  0
    2.4629   -2.3566    3.0906 H   0  0  0  0  0  0  0  0  0  0  0  0
    2.1392    1.1431   -1.1236 H   0  0  0  0  0  0  0  0  0  0  0  0
    0.0860   -2.4385    0.8991 H   0  0  0  0  0  0  0  0  0  0  0  0
   -2.6300   -2.9345    0.7286 H   0  0  0  0  0  0  0  0  0  0  0  0
   -4.7878   -1.8750    0.0937 H   0  0  0  0  0  0  0  0  0  0  0  0
   -2.6886    1.8458   -0.7417 H   0  0  0  0  0  0  0  0  0  0  0  0
   -6.3518   -0.2309    0.8427 H   0  0  0  0  0  0  0  0  0  0  0  0
   -7.3173    0.7719   -0.2837 H   0  0  0  0  0  0  0  0  0  0  0  0
   -6.1833    1.9910   -1.9836 H   0  0  0  0  0  0  0  0  0  0  0  0
   -4.4400    1.7814   -2.3076 H   0  0  0  0  0  0  0  0  0  0  0  0
  1  2  1  0
  2  3  1  0
  3  4  2  0
  4  5  1  0
  5  6  2  0
  6  7  1  0
  6  8  1  0
  8  9  2  0
  8 10  1  0
 10 11  2  0
 11 12  1  0
 12 13  2  0
 13 14  1  0
 13 15  1  0
 15 16  2  0
 16 17  1  0
 17 18  2  0
 17 19  1  0
 19 20  1  0
 19 21  2  3
  9  3  1  0
 14 10  1  0
 18 12  1  0
  1 22  1  0
  1 23  1  0
  1 24  1  0
  4 25  1  0
  5 26  1  0
  7 27  1  0
  9 28  1  0
 14 29  1  0
 15 30  1  0
 16 31  1  0
 18 32  1  0
 20 33  1  0
 20 34  1  0
 21 35  1  0
 21 36  1  0
M  CHG  1  21   1
M  END
$$$$
