
     RDKit          3D

143148  0  0  0  0  0  0  0  0999 V2000
    2.3212   -0.9917    0.1338 C   0  0  0  0  0  0  0  0  0  0  0  0
    2.0716   -0.0915   -0.8539 C   0  0  0  0  0  0  0  0  0  0  0  0
    3.0948    0.9172   -1.3319 C   0  0  0  0  0  0  0  0  0  0  0  0
    0.7079   -0.1583   -1.5411 C   0  0  1  0  0  0  0  0  0  0  0  0
    0.3247    1.1113   -2.0761 O   0  0  0  0  0  0  0  0  0  0  0  0
   -0.1137    2.1827   -1.2893 C   0  0  0  0  0  0  0  0  0  0  0  0
   -0.2384    2.0554   -0.0400 O   0  0  0  0  0  0  0  0  0  0  0  0
   -0.4745    3.4801   -1.9581 C   0  0  2  0  0  0  0  0  0  0  0  0
    0.2941    4.6516   -1.3200 C   0  0  0  0  0  0  0  0  0  0  0  0
   -0.0998    5.9962   -1.9572 C   0  0  0  0  0  0  0  0  0  0  0  0
   -1.6011    6.1050   -2.3038 C   0  0  0  0  0  0  0  0  0  0  0  0
   -2.4464    5.0467   -1.5900 C   0  0  0  0  0  0  0  0  0  0  0  0
   -1.9323    3.7045   -1.9016 N   0  0  0  0  0  0  0  0  0  0  0  0
   -2.8088    2.7293   -2.4963 C   0  0  0  0  0  0  0  0  0  0  0  0
   -2.5225    2.2749   -3.6369 O   0  0  0  0  0  0  0  0  0  0  0  0
   -4.0362    2.2256   -1.8254 C   0  0  0  0  0  0  0  0  0  0  0  0
   -4.8415    1.5524   -2.5257 O   0  0  0  0  0  0  0  0  0  0  0  0
   -4.3934    2.4541   -0.3620 C   0  0  2  0  0  0  0  0  0  0  0  0
   -3.2462    2.9083    0.3180 O   0  0  0  0  0  0  0  0  0  0  0  0
   -4.7657    1.1710    0.1457 O   0  0  0  0  0  0  0  0  0  0  0  0
   -5.6592    1.2234    1.2458 C   0  0  1  0  0  0  0  0  0  0  0  0
   -7.0528    1.7412    0.8073 C   0  0  2  0  0  0  0  0  0  0  0  0
   -6.9273    2.8010   -0.3086 C   0  0  0  0  0  0  0  0  0  0  0  0
   -5.5619    3.5138   -0.3147 C   0  0  1  0  0  0  0  0  0  0  0  0
   -5.4611    4.5407    0.8314 C   0  0  0  0  0  0  0  0  0  0  0  0
   -7.6978    2.3138    1.9352 O   0  0  0  0  0  0  0  0  0  0  0  0
   -9.0790    2.0260    1.9215 C   0  0  0  0  0  0  0  0  0  0  0  0
   -5.7211   -0.1737    1.9193 C   0  0  2  0  0  0  0  0  0  0  0  0
   -6.0375   -1.3143    0.9073 C   0  0  0  0  0  0  0  0  0  0  0  0
   -5.1613   -2.5792    1.1281 C   0  0  1  0  0  0  0  0  0  0  0  0
   -5.9012   -3.8425    0.6570 C   0  0  0  0  0  0  0  0  0  0  0  0
   -3.7180   -2.4938    0.5258 C   0  0  2  0  0  0  0  0  0  0  0  0
   -3.1709   -1.2119    0.6955 O   0  0  0  0  0  0  0  0  0  0  0  0
   -3.6094   -2.9025   -0.9465 C   0  0  0  0  0  0  0  0  0  0  0  0
   -4.1879   -1.9869   -1.9992 C   0  0  0  0  0  0  0  0  0  0  0  0
   -2.9936   -4.0776   -1.2428 C   0  0  0  0  0  0  0  0  0  0  0  0
   -2.5262   -4.5867   -2.5979 C   0  0  1  0  0  0  0  0  0  0  0  0
   -3.5932   -4.6661   -3.7165 C   0  0  0  0  0  0  0  0  0  0  0  0
   -4.7931   -5.5218   -3.3086 C   0  0  0  0  0  0  0  0  0  0  0  0
   -1.2065   -3.9333   -2.9866 C   0  0  0  0  0  0  0  0  0  0  0  0
   -0.1800   -4.3891   -2.5037 O   0  0  0  0  0  0  0  0  0  0  0  0
   -1.0857   -2.7493   -3.9205 C   0  0  0  0  0  0  0  0  0  0  0  0
   -0.8016   -1.4212   -3.1672 C   0  0  2  0  0  0  0  0  0  0  0  0
   -1.1966   -0.3196   -3.9484 O   0  0  0  0  0  0  0  0  0  0  0  0
    0.6610   -1.2461   -2.6523 C   0  0  1  0  0  0  0  0  0  0  0  0
    1.6588   -0.9458   -3.7884 C   0  0  0  0  0  0  0  0  0  0  0  0
   -6.7125   -0.1842    2.9382 O   0  0  0  0  0  0  0  0  0  0  0  0
   -6.1453    0.0658    4.2058 C   0  0  0  0  0  0  0  0  0  0  0  0
    3.5262   -1.0866    1.0589 C   0  0  2  0  0  0  0  0  0  0  0  0
    3.5702    0.0482    2.0960 C   0  0  0  0  0  0  0  0  0  0  0  0
    4.6937   -0.2020    3.1116 C   0  0  0  0  0  0  0  0  0  0  0  0
    6.0577   -0.3759    2.4193 C   0  0  1  0  0  0  0  0  0  0  0  0
    7.0294   -0.6751    3.4261 O   0  0  0  0  0  0  0  0  0  0  0  0
    8.4195   -0.5007    3.3201 C   0  0  0  0  0  0  0  0  0  0  0  0
    9.2312   -1.0543    4.3379 C   0  0  0  0  0  0  0  0  0  0  0  0
   10.6307   -0.9254    4.3001 C   0  0  0  0  0  0  0  0  0  0  0  0
   11.1932   -0.2305    3.2295 C   0  0  0  0  0  0  0  0  0  0  0  0
   12.4952    0.0141    2.9882 N   0  0  0  0  0  0  0  0  0  0  0  0
   13.6366   -0.3962    3.8002 C   0  0  0  0  0  0  0  0  0  0  0  0
   12.5410    0.7242    1.8359 C   0  0  0  0  0  0  0  0  0  0  0  0
   11.2574    0.9317    1.3416 C   0  0  0  0  0  0  0  0  0  0  0  0
   10.4153    0.3157    2.2439 C   0  0  0  0  0  0  0  0  0  0  0  0
    9.0269    0.2078    2.2524 C   0  0  0  0  0  0  0  0  0  0  0  0
    5.9994   -1.5202    1.3765 C   0  0  1  0  0  0  0  0  0  0  0  0
    4.8838   -1.2442    0.3507 C   0  0  0  0  0  0  0  0  0  0  0  0
    7.2390   -1.5904    0.6916 O   0  0  0  0  0  0  0  0  0  0  0  0
    7.6490   -2.9300    0.5306 C   0  0  0  0  0  0  0  0  0  0  0  0
    1.5438   -1.7233    0.3453 H   0  0  0  0  0  0  0  0  0  0  0  0
    3.4682    1.5415   -0.5004 H   0  0  0  0  0  0  0  0  0  0  0  0
    3.9309    0.3968   -1.8381 H   0  0  0  0  0  0  0  0  0  0  0  0
    2.6728    1.6094   -2.0870 H   0  0  0  0  0  0  0  0  0  0  0  0
   -0.0480   -0.4367   -0.7705 H   0  0  0  0  0  0  0  0  0  0  0  0
   -0.1662    3.4178   -3.0259 H   0  0  0  0  0  0  0  0  0  0  0  0
    0.0718    4.6942   -0.2305 H   0  0  0  0  0  0  0  0  0  0  0  0
    1.3893    4.4955   -1.4359 H   0  0  0  0  0  0  0  0  0  0  0  0
    0.4945    6.1462   -2.8851 H   0  0  0  0  0  0  0  0  0  0  0  0
    0.1777    6.8132   -1.2560 H   0  0  0  0  0  0  0  0  0  0  0  0
   -1.9754    7.1177   -2.0393 H   0  0  0  0  0  0  0  0  0  0  0  0
   -1.7326    5.9760   -3.4008 H   0  0  0  0  0  0  0  0  0  0  0  0
   -3.5029    5.1536   -1.9154 H   0  0  0  0  0  0  0  0  0  0  0  0
   -2.3982    5.2202   -0.4944 H   0  0  0  0  0  0  0  0  0  0  0  0
   -3.3710    2.7656    1.2896 H   0  0  0  0  0  0  0  0  0  0  0  0
   -5.2541    1.8996    2.0255 H   0  0  0  0  0  0  0  0  0  0  0  0
   -7.6196    0.8775    0.3804 H   0  0  0  0  0  0  0  0  0  0  0  0
   -7.0594    2.2955   -1.2902 H   0  0  0  0  0  0  0  0  0  0  0  0
   -7.7491    3.5468   -0.2371 H   0  0  0  0  0  0  0  0  0  0  0  0
   -5.5375    4.1292   -1.2426 H   0  0  0  0  0  0  0  0  0  0  0  0
   -6.2942    5.2718    0.7562 H   0  0  0  0  0  0  0  0  0  0  0  0
   -5.5115    4.0704    1.8312 H   0  0  0  0  0  0  0  0  0  0  0  0
   -4.5135    5.1125    0.7549 H   0  0  0  0  0  0  0  0  0  0  0  0
   -9.5575    2.3676    0.9769 H   0  0  0  0  0  0  0  0  0  0  0  0
   -9.2552    0.9384    2.0736 H   0  0  0  0  0  0  0  0  0  0  0  0
   -9.5619    2.5672    2.7606 H   0  0  0  0  0  0  0  0  0  0  0  0
   -4.7023   -0.3536    2.3371 H   0  0  0  0  0  0  0  0  0  0  0  0
   -5.9555   -0.9758   -0.1406 H   0  0  0  0  0  0  0  0  0  0  0  0
   -7.1108   -1.5855    1.0234 H   0  0  0  0  0  0  0  0  0  0  0  0
   -5.0440   -2.7023    2.2292 H   0  0  0  0  0  0  0  0  0  0  0  0
   -6.1890   -3.7561   -0.4118 H   0  0  0  0  0  0  0  0  0  0  0  0
   -6.8244   -3.9907    1.2571 H   0  0  0  0  0  0  0  0  0  0  0  0
   -5.2590   -4.7391    0.7904 H   0  0  0  0  0  0  0  0  0  0  0  0
   -3.1058   -3.1927    1.1447 H   0  0  0  0  0  0  0  0  0  0  0  0
   -2.1928   -1.2889    0.5403 H   0  0  0  0  0  0  0  0  0  0  0  0
   -4.3111   -0.9608   -1.6060 H   0  0  0  0  0  0  0  0  0  0  0  0
   -3.5309   -1.8819   -2.8740 H   0  0  0  0  0  0  0  0  0  0  0  0
   -5.1759   -2.3704   -2.3271 H   0  0  0  0  0  0  0  0  0  0  0  0
   -2.6760   -4.7033   -0.4121 H   0  0  0  0  0  0  0  0  0  0  0  0
   -2.2589   -5.6544   -2.4204 H   0  0  0  0  0  0  0  0  0  0  0  0
   -3.1283   -5.1332   -4.6122 H   0  0  0  0  0  0  0  0  0  0  0  0
   -3.9635   -3.6772   -4.0364 H   0  0  0  0  0  0  0  0  0  0  0  0
   -5.5007   -5.5990   -4.1608 H   0  0  0  0  0  0  0  0  0  0  0  0
   -4.4639   -6.5451   -3.0289 H   0  0  0  0  0  0  0  0  0  0  0  0
   -5.3265   -5.0612   -2.4513 H   0  0  0  0  0  0  0  0  0  0  0  0
   -0.2936   -2.9589   -4.6676 H   0  0  0  0  0  0  0  0  0  0  0  0
   -2.0179   -2.6313   -4.5058 H   0  0  0  0  0  0  0  0  0  0  0  0
   -1.4523   -1.4211   -2.2700 H   0  0  0  0  0  0  0  0  0  0  0  0
   -0.7843   -0.4175   -4.8458 H   0  0  0  0  0  0  0  0  0  0  0  0
    0.9764   -2.2014   -2.1834 H   0  0  0  0  0  0  0  0  0  0  0  0
    1.5036    0.0738   -4.1997 H   0  0  0  0  0  0  0  0  0  0  0  0
    2.6998   -1.0214   -3.4131 H   0  0  0  0  0  0  0  0  0  0  0  0
    1.5616   -1.6805   -4.6119 H   0  0  0  0  0  0  0  0  0  0  0  0
   -6.9627    0.1267    4.9530 H   0  0  0  0  0  0  0  0  0  0  0  0
   -5.4723   -0.7670    4.5066 H   0  0  0  0  0  0  0  0  0  0  0  0
   -5.5988    1.0340    4.2238 H   0  0  0  0  0  0  0  0  0  0  0  0
    3.3669   -2.0271    1.6355 H   0  0  0  0  0  0  0  0  0  0  0  0
    3.7392    1.0299    1.6127 H   0  0  0  0  0  0  0  0  0  0  0  0
    2.6003    0.0971    2.6375 H   0  0  0  0  0  0  0  0  0  0  0  0
    4.4575   -1.1101    3.7096 H   0  0  0  0  0  0  0  0  0  0  0  0
    4.7456    0.6589    3.8131 H   0  0  0  0  0  0  0  0  0  0  0  0
    6.2987    0.5888    1.9231 H   0  0  0  0  0  0  0  0  0  0  0  0
    8.7711   -1.5910    5.1577 H   0  0  0  0  0  0  0  0  0  0  0  0
   11.2463   -1.3546    5.0797 H   0  0  0  0  0  0  0  0  0  0  0  0
   13.6594   -1.5033    3.8808 H   0  0  0  0  0  0  0  0  0  0  0  0
   13.5507    0.0448    4.8155 H   0  0  0  0  0  0  0  0  0  0  0  0
   14.5871   -0.0517    3.3398 H   0  0  0  0  0  0  0  0  0  0  0  0
   13.4535    1.0767    1.3726 H   0  0  0  0  0  0  0  0  0  0  0  0
   10.9807    1.4635    0.4408 H   0  0  0  0  0  0  0  0  0  0  0  0
    8.4556    0.6598    1.4551 H   0  0  0  0  0  0  0  0  0  0  0  0
    5.7519   -2.4604    1.9312 H   0  0  0  0  0  0  0  0  0  0  0  0
    5.1587   -0.3200   -0.1910 H   0  0  0  0  0  0  0  0  0  0  0  0
    4.8288   -2.0819   -0.3779 H   0  0  0  0  0  0  0  0  0  0  0  0
    7.8809   -3.3905    1.5163 H   0  0  0  0  0  0  0  0  0  0  0  0
    6.8800   -3.5268   -0.0084 H   0  0  0  0  0  0  0  0  0  0  0  0
    8.5776   -2.9455   -0.0759 H   0  0  0  0  0  0  0  0  0  0  0  0
  1  2  2  0
  2  3  1  0
  2  4  1  0
  4  5  1  0
  5  6  1  0
  6  7  2  0
  6  8  1  0
  8  9  1  0
  9 10  1  0
 10 11  1  0
 11 12  1  0
 12 13  1  0
 13 14  1  0
 14 15  2  0
 14 16  1  0
 16 17  2  0
 16 18  1  0
 18 19  1  1
 18 20  1  0
 20 21  1  0
 21 22  1  0
 22 23  1  0
 23 24  1  0
 24 25  1  0
 22 26  1  0
 26 27  1  0
 21 28  1  0
 28 29  1  0
 29 30  1  0
 30 31  1  0
 30 32  1  0
 32 33  1  0
 32 34  1  0
 34 35  1  0
 34 36  2  0
 36 37  1  0
 37 38  1  0
 38 39  1  0
 37 40  1  0
 40 41  2  0
 40 42  1  0
 42 43  1  0
 43 44  1  0
 43 45  1  0
 45 46  1  0
 28 47  1  0
 47 48  1  0
  1 49  1  0
 49 50  1  0
 50 51  1  0
 51 52  1  0
 52 53  1  0
 53 54  1  0
 54 55  2  0
 55 56  1  0
 56 57  2  0
 57 58  1  0
 58 59  1  0
 58 60  1  0
 60 61  2  0
 61 62  1  0
 62 63  2  0
 52 64  1  0
 64 65  1  0
 64 66  1  0
 66 67  1  0
 45  4  1  0
 65 49  1  0
 13  8  1  0
 24 18  1  0
 63 54  1  0
 62 57  1  0
  1 68  1  0
  3 69  1  0
  3 70  1  0
  3 71  1  0
  4 72  1  1
  8 73  1  6
  9 74  1  0
  9 75  1  0
 10 76  1  0
 10 77  1  0
 11 78  1  0
 11 79  1  0
 12 80  1  0
 12 81  1  0
 19 82  1  0
 21 83  1  1
 22 84  1  6
 23 85  1  0
 23 86  1  0
 24 87  1  6
 25 88  1  0
 25 89  1  0
 25 90  1  0
 27 91  1  0
 27 92  1  0
 27 93  1  0
 28 94  1  1
 29 95  1  0
 29 96  1  0
 30 97  1  1
 31 98  1  0
 31 99  1  0
 31100  1  0
 32101  1  1
 33102  1  0
 35103  1  0
 35104  1  0
 35105  1  0
 36106  1  0
 37107  1  1
 38108  1  0
 38109  1  0
 39110  1  0
 39111  1  0
 39112  1  0
 42113  1  0
 42114  1  0
 43115  1  1
 44116  1  0
 45117  1  1
 46118  1  0
 46119  1  0
 46120  1  0
 48121  1  0
 48122  1  0
 48123  1  0
 49124  1  1
 50125  1  0
 50126  1  0
 51127  1  0
 51128  1  0
 52129  1  6
 55130  1  0
 56131  1  0
 59132  1  0
 59133  1  0
 59134  1  0
 60135  1  0
 61136  1  0
 63137  1  0
 64138  1  1
 65139  1  0
 65140  1  0
 67141  1  0
 67142  1  0
 67143  1  0
M  END
$$$$
