
     RDKit          3D

 48 50  0  0  0  0  0  0  0  0999 V2000
    4.0231   -0.9239    0.0824 C   0  0  0  0  0  0  0  0  0  0  0  0
    4.0067   -0.4849    1.4851 N   0  0  0  0  0  0  0  0  0  0  0  0
    4.3014    0.9530    1.5988 C   0  0  0  0  0  0  0  0  0  0  0  0
    2.7837   -0.8916    2.2173 C   0  0  0  0  0  0  0  0  0  0  0  0
    1.4603   -0.3256    1.6489 C   0  0  0  0  0  0  0  0  0  0  0  0
    0.8752   -1.1908    0.5582 C   0  0  0  0  0  0  0  0  0  0  0  0
   -0.3042   -0.9343   -0.0446 C   0  0  0  0  0  0  0  0  0  0  0  0
   -0.8494   -1.8975   -1.0354 C   0  0  0  0  0  0  0  0  0  0  0  0
    0.0060   -2.3210   -2.0735 C   0  0  0  0  0  0  0  0  0  0  0  0
   -0.4345   -3.2128   -3.0493 C   0  0  0  0  0  0  0  0  0  0  0  0
   -1.7381   -3.6954   -3.0134 C   0  0  0  0  0  0  0  0  0  0  0  0
   -2.6062   -3.2873   -2.0020 C   0  0  0  0  0  0  0  0  0  0  0  0
   -2.1895   -2.3919   -0.9981 C   0  0  0  0  0  0  0  0  0  0  0  0
   -3.2470   -2.0343    0.0380 C   0  0  0  0  0  0  0  0  0  0  0  0
   -2.7987   -1.2317    1.1245 O   0  0  0  0  0  0  0  0  0  0  0  0
   -2.3359    0.0635    0.9232 C   0  0  0  0  0  0  0  0  0  0  0  0
   -1.1044    0.2533    0.3031 C   0  0  0  0  0  0  0  0  0  0  0  0
   -0.6478    1.5538    0.0397 C   0  0  0  0  0  0  0  0  0  0  0  0
   -1.4043    2.6643    0.4494 C   0  0  0  0  0  0  0  0  0  0  0  0
   -0.9273    4.0577    0.1487 C   0  0  0  0  0  0  0  0  0  0  0  0
   -1.4013    4.4807   -1.2043 C   0  0  0  0  0  0  0  0  0  0  0  0
   -0.6454    4.1717   -2.3308 O   0  0  0  0  0  0  0  0  0  0  0  0
   -2.5030    5.0795   -1.3292 O   0  0  0  0  0  0  0  0  0  0  0  0
   -2.6329    2.4593    1.0994 C   0  0  0  0  0  0  0  0  0  0  0  0
   -3.0937    1.1615    1.3401 C   0  0  0  0  0  0  0  0  0  0  0  0
    3.2766   -0.3685   -0.5259 H   0  0  0  0  0  0  0  0  0  0  0  0
    5.0303   -0.7501   -0.3530 H   0  0  0  0  0  0  0  0  0  0  0  0
    3.8212   -2.0142    0.0176 H   0  0  0  0  0  0  0  0  0  0  0  0
    4.1847    1.2982    2.6485 H   0  0  0  0  0  0  0  0  0  0  0  0
    3.6487    1.5623    0.9377 H   0  0  0  0  0  0  0  0  0  0  0  0
    5.3571    1.1370    1.3070 H   0  0  0  0  0  0  0  0  0  0  0  0
    2.8768   -0.5606    3.2752 H   0  0  0  0  0  0  0  0  0  0  0  0
    2.7361   -2.0016    2.2693 H   0  0  0  0  0  0  0  0  0  0  0  0
    1.6061    0.7076    1.2840 H   0  0  0  0  0  0  0  0  0  0  0  0
    0.7210   -0.2799    2.4781 H   0  0  0  0  0  0  0  0  0  0  0  0
    1.4004   -2.1018    0.2969 H   0  0  0  0  0  0  0  0  0  0  0  0
    1.0207   -1.9461   -2.1378 H   0  0  0  0  0  0  0  0  0  0  0  0
    0.2362   -3.5256   -3.8391 H   0  0  0  0  0  0  0  0  0  0  0  0
   -2.0798   -4.3855   -3.7740 H   0  0  0  0  0  0  0  0  0  0  0  0
   -3.6180   -3.6756   -2.0010 H   0  0  0  0  0  0  0  0  0  0  0  0
   -4.0853   -1.5105   -0.4713 H   0  0  0  0  0  0  0  0  0  0  0  0
   -3.6571   -2.9751    0.4632 H   0  0  0  0  0  0  0  0  0  0  0  0
    0.2922    1.7006   -0.4791 H   0  0  0  0  0  0  0  0  0  0  0  0
   -1.3001    4.7693    0.9176 H   0  0  0  0  0  0  0  0  0  0  0  0
    0.1832    4.0975    0.1791 H   0  0  0  0  0  0  0  0  0  0  0  0
   -0.9611    4.4354   -3.2565 H   0  0  0  0  0  0  0  0  0  0  0  0
   -3.2364    3.3031    1.4105 H   0  0  0  0  0  0  0  0  0  0  0  0
   -4.0462    1.0089    1.8313 H   0  0  0  0  0  0  0  0  0  0  0  0
  1  2  1  0
  2  3  1  0
  2  4  1  0
  4  5  1  0
  5  6  1  0
  6  7  2  0
  7  8  1  0
  8  9  2  0
  9 10  1  0
 10 11  2  0
 11 12  1  0
 12 13  2  0
 13 14  1  0
 14 15  1  0
 15 16  1  0
 16 17  2  0
 17 18  1  0
 18 19  2  0
 19 20  1  0
 20 21  1  0
 21 22  1  0
 21 23  2  0
 19 24  1  0
 24 25  2  0
 17  7  1  0
 13  8  1  0
 25 16  1  0
  1 26  1  0
  1 27  1  0
  1 28  1  0
  3 29  1  0
  3 30  1  0
  3 31  1  0
  4 32  1  0
  4 33  1  0
  5 34  1  0
  5 35  1  0
  6 36  1  0
  9 37  1  0
 10 38  1  0
 11 39  1  0
 12 40  1  0
 14 41  1  0
 14 42  1  0
 18 43  1  0
 20 44  1  0
 20 45  1  0
 22 46  1  0
 24 47  1  0
 25 48  1  0
M  END
$$$$
