
     RDKit          3D

 40 43  0  0  0  0  0  0  0  0999 V2000
    1.3054   -2.5185    2.6500 C   0  0  0  0  0  0  0  0  0  0  0  0
    1.5774   -1.8069    1.4044 N   0  0  0  0  0  0  0  0  0  0  0  0
    2.7592   -1.7645    0.7534 C   0  0  0  0  0  0  0  0  0  0  0  0
    2.6595   -0.9732   -0.3863 C   0  0  0  0  0  0  0  0  0  0  0  0
    3.8111   -0.6794   -1.3031 C   0  0  0  0  0  0  0  0  0  0  0  0
    4.5993    0.5527   -0.8469 C   0  0  0  0  0  0  0  0  0  0  0  0
    3.8066    1.7086   -0.8896 O   0  0  0  0  0  0  0  0  0  0  0  0
    1.3477   -0.4976   -0.4101 C   0  0  0  0  0  0  0  0  0  0  0  0
    0.7233   -1.0370    0.7030 C   0  0  0  0  0  0  0  0  0  0  0  0
   -0.6200   -0.7668    1.0168 C   0  0  0  0  0  0  0  0  0  0  0  0
   -1.3624    0.0768    0.1632 C   0  0  0  0  0  0  0  0  0  0  0  0
   -0.7123    0.6311   -0.9611 C   0  0  0  0  0  0  0  0  0  0  0  0
    0.6214    0.3565   -1.2576 C   0  0  0  0  0  0  0  0  0  0  0  0
    0.9500    1.1220   -2.4694 C   0  0  0  0  0  0  0  0  0  0  0  0
    2.0581    1.1543   -3.0599 O   0  0  0  0  0  0  0  0  0  0  0  0
   -0.1810    1.8669   -2.9103 N   0  0  0  0  0  0  0  0  0  0  0  0
   -1.2047    1.5679   -1.9707 C   0  0  0  0  0  0  0  0  0  0  0  0
   -2.3574    2.0726   -2.0121 O   0  0  0  0  0  0  0  0  0  0  0  0
   -2.7762    0.3691    0.4655 C   0  0  0  0  0  0  0  0  0  0  0  0
   -3.0883    1.1623    1.5809 C   0  0  0  0  0  0  0  0  0  0  0  0
   -4.4197    1.4543    1.8885 C   0  0  0  0  0  0  0  0  0  0  0  0
   -5.4490    0.9509    1.0902 C   0  0  0  0  0  0  0  0  0  0  0  0
   -5.1499    0.1493   -0.0145 C   0  0  0  0  0  0  0  0  0  0  0  0
   -3.8188   -0.1491   -0.3310 C   0  0  0  0  0  0  0  0  0  0  0  0
   -3.4925   -1.1982   -1.7068 Cl  0  0  0  0  0  0  0  0  0  0  0  0
    2.1909   -3.1124    2.9622 H   0  0  0  0  0  0  0  0  0  0  0  0
    1.0624   -1.7893    3.4511 H   0  0  0  0  0  0  0  0  0  0  0  0
    0.4478   -3.2092    2.5077 H   0  0  0  0  0  0  0  0  0  0  0  0
    3.6555   -2.2718    1.0883 H   0  0  0  0  0  0  0  0  0  0  0  0
    4.5011   -1.5510   -1.2926 H   0  0  0  0  0  0  0  0  0  0  0  0
    3.4732   -0.5827   -2.3498 H   0  0  0  0  0  0  0  0  0  0  0  0
    5.0092    0.3905    0.1771 H   0  0  0  0  0  0  0  0  0  0  0  0
    5.4625    0.6946   -1.5308 H   0  0  0  0  0  0  0  0  0  0  0  0
    3.3162    1.7534   -0.0276 H   0  0  0  0  0  0  0  0  0  0  0  0
   -1.0803   -1.2024    1.8949 H   0  0  0  0  0  0  0  0  0  0  0  0
   -0.2384    2.5115   -3.7296 H   0  0  0  0  0  0  0  0  0  0  0  0
   -2.2991    1.5607    2.2071 H   0  0  0  0  0  0  0  0  0  0  0  0
   -4.6536    2.0713    2.7465 H   0  0  0  0  0  0  0  0  0  0  0  0
   -6.4797    1.1775    1.3306 H   0  0  0  0  0  0  0  0  0  0  0  0
   -5.9548   -0.2451   -0.6215 H   0  0  0  0  0  0  0  0  0  0  0  0
  1  2  1  0
  2  3  1  0
  3  4  2  0
  4  5  1  0
  5  6  1  0
  6  7  1  0
  4  8  1  0
  8  9  2  0
  9 10  1  0
 10 11  2  0
 11 12  1  0
 12 13  2  0
 13 14  1  0
 14 15  2  0
 14 16  1  0
 16 17  1  0
 17 18  2  0
 11 19  1  0
 19 20  2  0
 20 21  1  0
 21 22  2  0
 22 23  1  0
 23 24  2  0
 24 25  1  0
  9  2  1  0
 17 12  1  0
 24 19  1  0
 13  8  1  0
  1 26  1  0
  1 27  1  0
  1 28  1  0
  3 29  1  0
  5 30  1  0
  5 31  1  0
  6 32  1  0
  6 33  1  0
  7 34  1  0
 10 35  1  0
 16 36  1  0
 20 37  1  0
 21 38  1  0
 22 39  1  0
 23 40  1  0
M  END
$$$$
