
     RDKit          3D

 39 42  0  0  0  0  0  0  0  0999 V2000
    1.4096    0.8004    1.1906 C   0  0  1  0  0  0  0  0  0  0  0  0
    1.5895    2.1003    0.6392 O   0  0  0  0  0  0  0  0  0  0  0  0
    0.8746    2.2440   -0.5893 C   0  0  0  0  0  0  0  0  0  0  0  0
    1.1407    3.5180   -1.0931 O   0  0  0  0  0  1  0  0  0  0  0  0
    1.3088    1.2817   -1.5589 O   0  0  0  0  0  0  0  0  0  0  0  0
    1.1156   -0.0520   -1.0949 C   0  0  0  0  0  0  0  0  0  0  0  0
   -0.4121   -0.2827   -0.8886 C   0  0  0  0  0  0  0  0  0  0  0  0
   -0.8941   -1.7294   -0.6301 C   0  0  0  0  0  0  0  0  0  0  0  0
   -0.6042   -2.5310   -1.7468 O   0  0  0  0  0  0  0  0  0  0  0  0
   -2.3445   -1.7429   -0.4021 N   0  0  0  0  0  4  0  0  0  0  0  0
   -2.9981   -0.7538    0.1482 C   0  0  0  0  0  0  0  0  0  0  0  0
   -4.3969   -0.8866    0.4154 N   0  0  0  0  0  0  0  0  0  0  0  0
   -2.3388    0.4853    0.4627 N   0  0  0  0  0  0  0  0  0  0  0  0
   -0.9138    0.7005    0.2005 C   0  0  0  0  0  0  0  0  0  0  0  0
   -0.0956    0.5749    1.5185 C   0  0  0  0  0  0  0  0  0  0  0  0
   -0.3142   -0.6610    2.1472 O   0  0  0  0  0  0  0  0  0  0  0  0
   -0.6565    2.1311   -0.3243 C   0  0  2  0  0  0  0  0  0  0  0  0
   -1.4489    2.4272   -1.4546 O   0  0  0  0  0  0  0  0  0  0  0  0
    1.9549   -0.2514    0.1923 C   0  0  0  0  0  0  0  0  0  0  0  0
    1.8039   -1.5598    0.6861 O   0  0  0  0  0  0  0  0  0  0  0  0
    3.4626   -0.0042   -0.0916 C   0  0  0  0  0  0  0  0  0  0  0  0
    3.9582   -0.9362   -1.0163 O   0  0  0  0  0  0  0  0  0  0  0  0
    1.9886    0.7444    2.1382 H   0  0  0  0  0  0  0  0  0  0  0  0
    1.4762   -0.7464   -1.8833 H   0  0  0  0  0  0  0  0  0  0  0  0
   -0.8980   -0.0117   -1.8529 H   0  0  0  0  0  0  0  0  0  0  0  0
   -0.4267   -2.1738    0.2692 H   0  0  0  0  0  0  0  0  0  0  0  0
    0.3246   -2.8629   -1.6337 H   0  0  0  0  0  0  0  0  0  0  0  0
   -2.8562   -2.6288   -0.6180 H   0  0  0  0  0  0  0  0  0  0  0  0
   -4.9067   -1.7696    0.1898 H   0  0  0  0  0  0  0  0  0  0  0  0
   -4.9300   -0.0970    0.8420 H   0  0  0  0  0  0  0  0  0  0  0  0
   -2.8699    1.2173    0.9868 H   0  0  0  0  0  0  0  0  0  0  0  0
   -0.4246    1.3803    2.2178 H   0  0  0  0  0  0  0  0  0  0  0  0
    0.0835   -0.5956    3.0544 H   0  0  0  0  0  0  0  0  0  0  0  0
   -0.9306    2.8687    0.4632 H   0  0  0  0  0  0  0  0  0  0  0  0
   -0.9331    2.2325   -2.2788 H   0  0  0  0  0  0  0  0  0  0  0  0
    2.2834   -1.6134    1.5542 H   0  0  0  0  0  0  0  0  0  0  0  0
    4.0450   -0.0596    0.8572 H   0  0  0  0  0  0  0  0  0  0  0  0
    3.6281    1.0131   -0.5045 H   0  0  0  0  0  0  0  0  0  0  0  0
    4.1458   -1.7700   -0.5115 H   0  0  0  0  0  0  0  0  0  0  0  0
  1  2  1  0
  2  3  1  0
  3  4  1  0
  3  5  1  0
  5  6  1  0
  6  7  1  0
  7  8  1  0
  8  9  1  0
  8 10  1  0
 10 11  2  0
 11 12  1  0
 11 13  1  0
 13 14  1  0
 14 15  1  0
 15 16  1  0
 14 17  1  0
 17 18  1  0
  6 19  1  0
 19 20  1  0
 19 21  1  0
 21 22  1  0
 15  1  1  0
 19  1  1  0
 17  3  1  0
 14  7  1  0
  1 23  1  1
  6 24  1  0
  7 25  1  0
  8 26  1  0
  9 27  1  0
 10 28  1  0
 12 29  1  0
 12 30  1  0
 13 31  1  0
 15 32  1  0
 16 33  1  0
 17 34  1  1
 18 35  1  0
 20 36  1  0
 21 37  1  0
 21 38  1  0
 22 39  1  0
M  CHG  2   4  -1  10   1
M  END
$$$$
