
     RDKit          3D

 48 51  0  0  0  0  0  0  0  0999 V2000
   -4.9968   -2.1542    0.3120 C   0  0  0  0  0  0  0  0  0  0  0  0
   -4.3534   -0.7819    0.1117 C   0  0  0  0  0  0  0  0  0  0  0  0
   -2.8200   -0.8862    0.2140 C   0  0  0  0  0  0  0  0  0  0  0  0
   -2.2152    0.4409    0.0497 N   0  0  0  0  0  0  0  0  0  0  0  0
   -2.9997    1.6292    0.4044 C   0  0  0  0  0  0  0  0  0  0  0  0
   -4.0232    1.2733    1.4885 C   0  0  0  0  0  0  0  0  0  0  0  0
   -4.9194    0.1685    1.0935 N   0  0  0  0  0  0  0  0  0  0  0  0
   -0.8427    0.5674   -0.3776 C   0  0  0  0  0  0  0  0  0  0  0  0
   -0.4855    1.4862   -1.3683 C   0  0  0  0  0  0  0  0  0  0  0  0
   -1.4592    2.2336   -1.9504 F   0  0  0  0  0  0  0  0  0  0  0  0
    0.8510    1.6085   -1.7977 C   0  0  0  0  0  0  0  0  0  0  0  0
    1.1526    2.6279   -2.8767 C   0  0  0  0  0  0  0  0  0  0  0  0
    1.8616    0.7716   -1.2176 C   0  0  0  0  0  0  0  0  0  0  0  0
    3.2194    0.7836   -1.6425 C   0  0  0  0  0  0  0  0  0  0  0  0
    3.6032    1.5623   -2.5550 O   0  0  0  0  0  0  0  0  0  0  0  0
    4.1577   -0.0873   -1.0597 C   0  0  0  0  0  0  0  0  0  0  0  0
    3.7389   -0.9305   -0.0280 C   0  0  0  0  0  0  0  0  0  0  0  0
    2.4586   -0.9079    0.4416 N   0  0  0  0  0  0  0  0  0  0  0  0
    2.1300   -1.8163    1.5592 C   0  0  0  0  0  0  0  0  0  0  0  0
    3.0708   -1.7395    2.7619 C   0  0  0  0  0  0  0  0  0  0  0  0
    1.7000   -1.1008    2.8370 C   0  0  0  0  0  0  0  0  0  0  0  0
    1.4975   -0.1333   -0.1760 C   0  0  0  0  0  0  0  0  0  0  0  0
    0.1417   -0.2331    0.2011 C   0  0  0  0  0  0  0  0  0  0  0  0
    5.5796   -0.1349   -1.5070 C   0  0  0  0  0  0  0  0  0  0  0  0
    6.0218    0.6393   -2.5769 O   0  0  0  0  0  0  0  0  0  0  0  0
    6.4057   -0.8851   -0.9193 O   0  0  0  0  0  0  0  0  0  0  0  0
   -6.0984   -2.0761    0.1925 H   0  0  0  0  0  0  0  0  0  0  0  0
   -4.7745   -2.5419    1.3293 H   0  0  0  0  0  0  0  0  0  0  0  0
   -4.6137   -2.8741   -0.4426 H   0  0  0  0  0  0  0  0  0  0  0  0
   -4.6012   -0.4364   -0.9189 H   0  0  0  0  0  0  0  0  0  0  0  0
   -2.4469   -1.5671   -0.5830 H   0  0  0  0  0  0  0  0  0  0  0  0
   -2.5325   -1.3029    1.2039 H   0  0  0  0  0  0  0  0  0  0  0  0
   -2.3311    2.4279    0.7942 H   0  0  0  0  0  0  0  0  0  0  0  0
   -3.5296    2.0107   -0.4944 H   0  0  0  0  0  0  0  0  0  0  0  0
   -4.6225    2.1768    1.7378 H   0  0  0  0  0  0  0  0  0  0  0  0
   -3.4800    0.9760    2.4115 H   0  0  0  0  0  0  0  0  0  0  0  0
   -5.7908    0.5800    0.6826 H   0  0  0  0  0  0  0  0  0  0  0  0
    1.9107    3.3526   -2.5129 H   0  0  0  0  0  0  0  0  0  0  0  0
    1.5112    2.1144   -3.7934 H   0  0  0  0  0  0  0  0  0  0  0  0
    0.2659    3.2268   -3.1685 H   0  0  0  0  0  0  0  0  0  0  0  0
    4.4555   -1.6127    0.4157 H   0  0  0  0  0  0  0  0  0  0  0  0
    1.6563   -2.7957    1.3352 H   0  0  0  0  0  0  0  0  0  0  0  0
    3.8903   -0.9908    2.7197 H   0  0  0  0  0  0  0  0  0  0  0  0
    3.1540   -2.6795    3.3469 H   0  0  0  0  0  0  0  0  0  0  0  0
    1.7167    0.0095    2.7952 H   0  0  0  0  0  0  0  0  0  0  0  0
    0.9679   -1.6655    3.4518 H   0  0  0  0  0  0  0  0  0  0  0  0
   -0.1706   -0.9385    0.9560 H   0  0  0  0  0  0  0  0  0  0  0  0
    6.9877    0.6053   -2.8806 H   0  0  0  0  0  0  0  0  0  0  0  0
  1  2  1  0
  2  3  1  0
  3  4  1  0
  4  5  1  0
  5  6  1  0
  6  7  1  0
  4  8  1  0
  8  9  2  0
  9 10  1  0
  9 11  1  0
 11 12  1  0
 11 13  2  0
 13 14  1  0
 14 15  2  0
 14 16  1  0
 16 17  2  0
 17 18  1  0
 18 19  1  0
 19 20  1  0
 20 21  1  0
 18 22  1  0
 22 23  2  0
 16 24  1  0
 24 25  1  0
 24 26  2  0
  7  2  1  0
 23  8  1  0
 22 13  1  0
 21 19  1  0
  1 27  1  0
  1 28  1  0
  1 29  1  0
  2 30  1  0
  3 31  1  0
  3 32  1  0
  5 33  1  0
  5 34  1  0
  6 35  1  0
  6 36  1  0
  7 37  1  0
 12 38  1  0
 12 39  1  0
 12 40  1  0
 17 41  1  0
 19 42  1  0
 20 43  1  0
 20 44  1  0
 21 45  1  0
 21 46  1  0
 23 47  1  0
 25 48  1  0
M  END
$$$$
