
     RDKit          3D

 54 57  0  0  0  0  0  0  0  0999 V2000
    6.0628    2.8359   -0.9553 C   0  0  0  0  0  0  0  0  0  0  0  0
    6.6350    1.1552   -1.0524 S   0  0  0  0  0  6  0  0  0  0  0  0
    7.6788    0.9174    0.0026 O   0  0  0  0  0  0  0  0  0  0  0  0
    7.2490    0.9099   -2.4022 O   0  0  0  0  0  0  0  0  0  0  0  0
    5.2779    0.0615   -0.8066 C   0  0  0  0  0  0  0  0  0  0  0  0
    4.5107   -0.3660   -1.8984 C   0  0  0  0  0  0  0  0  0  0  0  0
    3.4219   -1.2204   -1.7022 C   0  0  0  0  0  0  0  0  0  0  0  0
    3.0885   -1.6566   -0.4100 C   0  0  0  0  0  0  0  0  0  0  0  0
    1.8960   -2.5502   -0.1857 C   0  0  0  0  0  0  0  0  0  0  0  0
    0.7990   -1.8040    0.4643 N   0  0  0  0  0  0  0  0  0  0  0  0
    0.2453   -0.7582   -0.4343 C   0  0  0  0  0  0  0  0  0  0  0  0
   -1.2102   -0.3580   -0.1062 C   0  0  0  0  0  0  0  0  0  0  0  0
   -1.5580   -0.6646    1.2875 N   0  0  0  0  0  0  0  0  0  0  0  0
   -1.1875   -1.9612    1.8662 C   0  0  0  0  0  0  0  0  0  0  0  0
   -0.2481   -2.7256    0.9352 C   0  0  0  0  0  0  0  0  0  0  0  0
   -2.3635    0.2429    2.0624 C   0  0  0  0  0  0  0  0  0  0  0  0
   -3.4019    1.0506    1.6304 C   0  0  0  0  0  0  0  0  0  0  0  0
   -3.8383    1.7650    2.6850 N   0  0  0  0  0  0  0  0  0  0  0  0
   -3.1268    1.4567    3.7590 N   0  0  0  0  0  0  0  0  0  0  0  0
   -2.2169    0.5264    3.4067 C   0  0  0  0  0  0  0  0  0  0  0  0
   -4.0648    1.0405    0.3118 C   0  0  0  0  0  0  0  0  0  0  0  0
   -4.5252   -0.1786   -0.2097 C   0  0  0  0  0  0  0  0  0  0  0  0
   -5.1891   -0.2252   -1.4394 C   0  0  0  0  0  0  0  0  0  0  0  0
   -5.7336   -1.7842   -2.0433 Cl  0  0  0  0  0  0  0  0  0  0  0  0
   -5.4106    0.9628   -2.1595 C   0  0  0  0  0  0  0  0  0  0  0  0
   -6.0732    0.9647   -3.3875 O   0  0  0  0  0  0  0  0  0  0  0  0
   -4.9570    2.1793   -1.6403 C   0  0  0  0  0  0  0  0  0  0  0  0
   -4.2795    2.2302   -0.4173 C   0  0  0  0  0  0  0  0  0  0  0  0
   -3.8139    3.4680    0.0308 O   0  0  0  0  0  0  0  0  0  0  0  0
    3.8499   -1.2152    0.6832 C   0  0  0  0  0  0  0  0  0  0  0  0
    4.9385   -0.3610    0.4856 C   0  0  0  0  0  0  0  0  0  0  0  0
    5.2971    3.0126   -1.7386 H   0  0  0  0  0  0  0  0  0  0  0  0
    6.9155    3.5287   -1.1100 H   0  0  0  0  0  0  0  0  0  0  0  0
    5.6159    3.0182    0.0437 H   0  0  0  0  0  0  0  0  0  0  0  0
    4.7506   -0.0335   -2.9003 H   0  0  0  0  0  0  0  0  0  0  0  0
    2.8357   -1.5354   -2.5565 H   0  0  0  0  0  0  0  0  0  0  0  0
    1.5508   -3.0092   -1.1403 H   0  0  0  0  0  0  0  0  0  0  0  0
    2.2297   -3.3876    0.4670 H   0  0  0  0  0  0  0  0  0  0  0  0
    0.8836    0.1473   -0.3428 H   0  0  0  0  0  0  0  0  0  0  0  0
    0.2802   -1.0787   -1.5005 H   0  0  0  0  0  0  0  0  0  0  0  0
   -1.3406    0.7261   -0.3168 H   0  0  0  0  0  0  0  0  0  0  0  0
   -1.8963   -0.9202   -0.7753 H   0  0  0  0  0  0  0  0  0  0  0  0
   -0.6629   -1.7983    2.8323 H   0  0  0  0  0  0  0  0  0  0  0  0
   -2.1022   -2.5633    2.0551 H   0  0  0  0  0  0  0  0  0  0  0  0
   -0.8156   -3.1506    0.0759 H   0  0  0  0  0  0  0  0  0  0  0  0
    0.1935   -3.5693    1.5109 H   0  0  0  0  0  0  0  0  0  0  0  0
   -4.6379    2.4366    2.6882 H   0  0  0  0  0  0  0  0  0  0  0  0
   -1.4894    0.1004    4.0840 H   0  0  0  0  0  0  0  0  0  0  0  0
   -4.3727   -1.0966    0.3460 H   0  0  0  0  0  0  0  0  0  0  0  0
   -6.4263    0.1206   -3.8201 H   0  0  0  0  0  0  0  0  0  0  0  0
   -5.1215    3.0928   -2.1985 H   0  0  0  0  0  0  0  0  0  0  0  0
   -3.2493    3.5751    0.8635 H   0  0  0  0  0  0  0  0  0  0  0  0
    3.5955   -1.5287    1.6883 H   0  0  0  0  0  0  0  0  0  0  0  0
    5.5115   -0.0250    1.3404 H   0  0  0  0  0  0  0  0  0  0  0  0
  1  2  1  0
  2  3  2  0
  2  4  2  0
  2  5  1  0
  5  6  2  0
  6  7  1  0
  7  8  2  0
  8  9  1  0
  9 10  1  0
 10 11  1  0
 11 12  1  0
 12 13  1  0
 13 14  1  0
 14 15  1  0
 13 16  1  0
 16 17  2  0
 17 18  1  0
 18 19  1  0
 19 20  2  0
 17 21  1  0
 21 22  2  0
 22 23  1  0
 23 24  1  0
 23 25  2  0
 25 26  1  0
 25 27  1  0
 27 28  2  0
 28 29  1  0
  8 30  1  0
 30 31  2  0
 31  5  1  0
 15 10  1  0
 20 16  1  0
 28 21  1  0
  1 32  1  0
  1 33  1  0
  1 34  1  0
  6 35  1  0
  7 36  1  0
  9 37  1  0
  9 38  1  0
 11 39  1  0
 11 40  1  0
 12 41  1  0
 12 42  1  0
 14 43  1  0
 14 44  1  0
 15 45  1  0
 15 46  1  0
 18 47  1  0
 20 48  1  0
 22 49  1  0
 26 50  1  0
 27 51  1  0
 29 52  1  0
 30 53  1  0
 31 54  1  0
M  END
$$$$
