
     RDKit          3D

 26 26  0  0  0  0  0  0  0  0999 V2000
   -4.1462    0.5983   -0.5774 C   0  0  0  0  0  0  0  0  0  0  0  0
   -3.8607   -0.6692    0.2209 C   0  0  0  0  0  0  0  0  0  0  0  0
   -2.7649   -1.3886   -0.3451 O   0  0  0  0  0  0  0  0  0  0  0  0
   -1.4095   -1.0374   -0.2302 C   0  0  0  0  0  0  0  0  0  0  0  0
   -0.9621    0.0286    0.5739 C   0  0  0  0  0  0  0  0  0  0  0  0
    0.4006    0.3332    0.6486 C   0  0  0  0  0  0  0  0  0  0  0  0
    1.3384   -0.4134   -0.0858 C   0  0  0  0  0  0  0  0  0  0  0  0
    2.7474   -0.1359   -0.0080 N   0  0  0  0  0  0  0  0  0  0  0  0
    3.3024    1.1784    0.1547 C   0  0  0  0  0  0  0  0  0  0  0  0
    4.7633    1.3404    0.4220 C   0  0  0  0  0  0  0  0  0  0  0  0
    2.5872    2.2037   -0.0079 O   0  0  0  0  0  0  0  0  0  0  0  0
    0.8920   -1.4909   -0.8635 C   0  0  0  0  0  0  0  0  0  0  0  0
   -0.4701   -1.7942   -0.9392 C   0  0  0  0  0  0  0  0  0  0  0  0
   -3.2774    1.2872   -0.5462 H   0  0  0  0  0  0  0  0  0  0  0  0
   -5.0284    1.1182   -0.1483 H   0  0  0  0  0  0  0  0  0  0  0  0
   -4.3621    0.3374   -1.6350 H   0  0  0  0  0  0  0  0  0  0  0  0
   -4.7609   -1.3178    0.1796 H   0  0  0  0  0  0  0  0  0  0  0  0
   -3.6717   -0.4337    1.2896 H   0  0  0  0  0  0  0  0  0  0  0  0
   -1.6526    0.6225    1.1551 H   0  0  0  0  0  0  0  0  0  0  0  0
    0.7198    1.1343    1.3016 H   0  0  0  0  0  0  0  0  0  0  0  0
    3.4133   -0.9272   -0.1609 H   0  0  0  0  0  0  0  0  0  0  0  0
    5.1094    0.5513    1.1221 H   0  0  0  0  0  0  0  0  0  0  0  0
    5.3249    1.2554   -0.5313 H   0  0  0  0  0  0  0  0  0  0  0  0
    4.9651    2.3331    0.8774 H   0  0  0  0  0  0  0  0  0  0  0  0
    1.6010   -2.0905   -1.4207 H   0  0  0  0  0  0  0  0  0  0  0  0
   -0.7983   -2.6233   -1.5534 H   0  0  0  0  0  0  0  0  0  0  0  0
  1  2  1  0
  2  3  1  0
  3  4  1  0
  4  5  2  0
  5  6  1  0
  6  7  2  0
  7  8  1  0
  8  9  1  0
  9 10  1  0
  9 11  2  0
  7 12  1  0
 12 13  2  0
 13  4  1  0
  1 14  1  0
  1 15  1  0
  1 16  1  0
  2 17  1  0
  2 18  1  0
  5 19  1  0
  6 20  1  0
  8 21  1  0
 10 22  1  0
 10 23  1  0
 10 24  1  0
 12 25  1  0
 13 26  1  0
M  END
$$$$
