
     RDKit          3D

 62 62  0  0  0  0  0  0  0  0999 V2000
   -2.8445    0.2023    3.1979 C   0  0  0  0  0  0  0  0  0  0  0  0
   -3.5694   -0.1992    1.9168 C   0  0  0  0  0  0  0  0  0  0  0  0
   -4.6810    0.8023    1.5700 C   0  0  0  0  0  0  0  0  0  0  0  0
   -5.5526    0.3506    0.3825 C   0  0  0  0  0  0  0  0  0  0  0  0
   -4.7884    0.1039   -0.9310 C   0  0  0  0  0  0  0  0  0  0  0  0
   -4.0738    1.3605   -1.4551 C   0  0  0  0  0  0  0  0  0  0  0  0
   -3.4062    1.1107   -2.8160 C   0  0  0  0  0  0  0  0  0  0  0  0
   -2.4212    0.0073   -2.7272 N   0  0  0  0  0  0  0  0  0  0  0  0
   -2.2753   -0.6945   -4.0218 C   0  0  0  0  0  0  0  0  0  0  0  0
   -3.3286   -1.7916   -4.1481 C   0  0  0  0  0  0  0  0  0  0  0  0
   -1.1138    0.4791   -2.2160 C   0  0  0  0  0  0  0  0  0  0  0  0
   -0.4718   -0.6155   -1.3564 C   0  0  0  0  0  0  0  0  0  0  0  0
    0.7957   -0.1053   -0.6575 C   0  0  0  0  0  0  0  0  0  0  0  0
    1.4300   -1.1899    0.2273 C   0  0  0  0  0  0  0  0  0  0  0  0
    0.5456   -1.5345    1.2637 O   0  0  0  0  0  0  0  0  0  0  0  0
    2.7371   -0.6886    0.8025 C   0  0  0  0  0  0  0  0  0  0  0  0
    2.7467    0.2242    1.8698 C   0  0  0  0  0  0  0  0  0  0  0  0
    3.9560    0.7060    2.3774 C   0  0  0  0  0  0  0  0  0  0  0  0
    5.1793    0.2921    1.8278 C   0  0  0  0  0  0  0  0  0  0  0  0
    6.4037    0.8131    2.3773 N   0  0  0  0  0  0  0  0  0  0  0  0
    7.9897    0.2356    1.9709 S   0  0  0  0  0  6  0  0  0  0  0  0
    8.1658   -1.4695    2.4521 C   0  0  0  0  0  0  0  0  0  0  0  0
    9.0079    1.0494    2.7184 O   0  0  0  0  0  0  0  0  0  0  0  0
    8.2346    0.3943    0.4966 O   0  0  0  0  0  0  0  0  0  0  0  0
    5.1674   -0.6067    0.7449 C   0  0  0  0  0  0  0  0  0  0  0  0
    3.9575   -1.0889    0.2370 C   0  0  0  0  0  0  0  0  0  0  0  0
   -3.5511    0.2129    4.0549 H   0  0  0  0  0  0  0  0  0  0  0  0
   -2.3896    1.2094    3.0836 H   0  0  0  0  0  0  0  0  0  0  0  0
   -2.0369   -0.5292    3.4124 H   0  0  0  0  0  0  0  0  0  0  0  0
   -4.0027   -1.2143    2.0495 H   0  0  0  0  0  0  0  0  0  0  0  0
   -2.8228   -0.2340    1.0968 H   0  0  0  0  0  0  0  0  0  0  0  0
   -4.2416    1.8016    1.3656 H   0  0  0  0  0  0  0  0  0  0  0  0
   -5.3489    0.9177    2.4518 H   0  0  0  0  0  0  0  0  0  0  0  0
   -6.0793   -0.5875    0.6635 H   0  0  0  0  0  0  0  0  0  0  0  0
   -6.3346    1.1206    0.2046 H   0  0  0  0  0  0  0  0  0  0  0  0
   -4.0631   -0.7255   -0.7939 H   0  0  0  0  0  0  0  0  0  0  0  0
   -5.5229   -0.2333   -1.6947 H   0  0  0  0  0  0  0  0  0  0  0  0
   -3.3083    1.6944   -0.7265 H   0  0  0  0  0  0  0  0  0  0  0  0
   -4.8133    2.1828   -1.5691 H   0  0  0  0  0  0  0  0  0  0  0  0
   -4.2130    0.8755   -3.5449 H   0  0  0  0  0  0  0  0  0  0  0  0
   -2.9220    2.0474   -3.1744 H   0  0  0  0  0  0  0  0  0  0  0  0
   -2.3552    0.0130   -4.8782 H   0  0  0  0  0  0  0  0  0  0  0  0
   -1.2825   -1.1911   -4.1019 H   0  0  0  0  0  0  0  0  0  0  0  0
   -3.1739   -2.3500   -5.0953 H   0  0  0  0  0  0  0  0  0  0  0  0
   -3.2408   -2.4998   -3.2968 H   0  0  0  0  0  0  0  0  0  0  0  0
   -4.3513   -1.3616   -4.1563 H   0  0  0  0  0  0  0  0  0  0  0  0
   -0.4317    0.7674   -3.0485 H   0  0  0  0  0  0  0  0  0  0  0  0
   -1.2322    1.3836   -1.5799 H   0  0  0  0  0  0  0  0  0  0  0  0
   -1.2074   -0.9484   -0.5931 H   0  0  0  0  0  0  0  0  0  0  0  0
   -0.2156   -1.4885   -1.9942 H   0  0  0  0  0  0  0  0  0  0  0  0
    1.5295    0.2130   -1.4312 H   0  0  0  0  0  0  0  0  0  0  0  0
    0.5432    0.7795   -0.0317 H   0  0  0  0  0  0  0  0  0  0  0  0
    1.6182   -2.0893   -0.4057 H   0  0  0  0  0  0  0  0  0  0  0  0
    0.8826   -2.3819    1.6568 H   0  0  0  0  0  0  0  0  0  0  0  0
    1.8169    0.5650    2.3083 H   0  0  0  0  0  0  0  0  0  0  0  0
    3.9389    1.4054    3.2039 H   0  0  0  0  0  0  0  0  0  0  0  0
    6.3500    1.5455    3.1203 H   0  0  0  0  0  0  0  0  0  0  0  0
    9.1998   -1.8098    2.2377 H   0  0  0  0  0  0  0  0  0  0  0  0
    7.4501   -2.1020    1.8898 H   0  0  0  0  0  0  0  0  0  0  0  0
    7.9647   -1.5687    3.5387 H   0  0  0  0  0  0  0  0  0  0  0  0
    6.0822   -0.9357    0.2766 H   0  0  0  0  0  0  0  0  0  0  0  0
    3.9742   -1.7735   -0.6020 H   0  0  0  0  0  0  0  0  0  0  0  0
  1  2  1  0
  2  3  1  0
  3  4  1  0
  4  5  1  0
  5  6  1  0
  6  7  1  0
  7  8  1  0
  8  9  1  0
  9 10  1  0
  8 11  1  0
 11 12  1  0
 12 13  1  0
 13 14  1  0
 14 15  1  0
 14 16  1  0
 16 17  2  0
 17 18  1  0
 18 19  2  0
 19 20  1  0
 20 21  1  0
 21 22  1  0
 21 23  2  0
 21 24  2  0
 19 25  1  0
 25 26  2  0
 26 16  1  0
  1 27  1  0
  1 28  1  0
  1 29  1  0
  2 30  1  0
  2 31  1  0
  3 32  1  0
  3 33  1  0
  4 34  1  0
  4 35  1  0
  5 36  1  0
  5 37  1  0
  6 38  1  0
  6 39  1  0
  7 40  1  0
  7 41  1  0
  9 42  1  0
  9 43  1  0
 10 44  1  0
 10 45  1  0
 10 46  1  0
 11 47  1  0
 11 48  1  0
 12 49  1  0
 12 50  1  0
 13 51  1  0
 13 52  1  0
 14 53  1  0
 15 54  1  0
 17 55  1  0
 18 56  1  0
 20 57  1  0
 22 58  1  0
 22 59  1  0
 22 60  1  0
 25 61  1  0
 26 62  1  0
M  END
$$$$
