
     RDKit          3D

 31 32  0  0  0  0  0  0  0  0999 V2000
   -2.2871    1.6438    1.5361 C   0  0  0  0  0  0  0  0  0  0  0  0
   -2.2372    0.4536    0.6367 C   0  0  0  0  0  0  0  0  0  0  0  0
   -3.0359   -0.6699    0.6891 C   0  0  0  0  0  0  0  0  0  0  0  0
   -4.1078   -0.9544    1.6899 C   0  0  0  0  0  0  0  0  0  0  0  0
   -2.6712   -1.5222   -0.2888 N   0  0  0  0  0  0  0  0  0  0  0  0
   -1.6657   -0.8609   -0.9015 C   0  0  0  0  0  0  0  0  0  0  0  0
   -0.9555   -1.3905   -2.0212 N   0  0  0  0  0  0  0  0  0  0  0  0
    0.3515   -0.5178   -2.7456 S   0  0  0  0  0  6  0  0  0  0  0  0
   -0.1818    0.7232   -3.4052 O   0  0  0  0  0  0  0  0  0  0  0  0
    1.0068   -1.3748   -3.7919 O   0  0  0  0  0  0  0  0  0  0  0  0
    1.5401   -0.1058   -1.5135 C   0  0  0  0  0  0  0  0  0  0  0  0
    1.6652    1.2132   -1.0543 C   0  0  0  0  0  0  0  0  0  0  0  0
    2.5928    1.5247   -0.0556 C   0  0  0  0  0  0  0  0  0  0  0  0
    3.4019    0.5205    0.4946 C   0  0  0  0  0  0  0  0  0  0  0  0
    4.3497    0.8390    1.5168 N   0  0  0  0  0  0  0  0  0  0  0  0
    3.2730   -0.7988    0.0377 C   0  0  0  0  0  0  0  0  0  0  0  0
    2.3445   -1.1104   -0.9600 C   0  0  0  0  0  0  0  0  0  0  0  0
   -1.4038    0.3091   -0.3612 O   0  0  0  0  0  0  0  0  0  0  0  0
   -3.2567    2.1680    1.4073 H   0  0  0  0  0  0  0  0  0  0  0  0
   -2.1800    1.3201    2.5924 H   0  0  0  0  0  0  0  0  0  0  0  0
   -1.4605    2.3415    1.2862 H   0  0  0  0  0  0  0  0  0  0  0  0
   -3.6489   -1.1338    2.6844 H   0  0  0  0  0  0  0  0  0  0  0  0
   -4.6840   -1.8543    1.3882 H   0  0  0  0  0  0  0  0  0  0  0  0
   -4.8010   -0.0899    1.7555 H   0  0  0  0  0  0  0  0  0  0  0  0
   -1.2155   -2.3268   -2.4028 H   0  0  0  0  0  0  0  0  0  0  0  0
    1.0421    1.9990   -1.4610 H   0  0  0  0  0  0  0  0  0  0  0  0
    2.6789    2.5468    0.2912 H   0  0  0  0  0  0  0  0  0  0  0  0
    4.4520    1.8186    1.8645 H   0  0  0  0  0  0  0  0  0  0  0  0
    4.9560    0.0977    1.9335 H   0  0  0  0  0  0  0  0  0  0  0  0
    3.8889   -1.5847    0.4565 H   0  0  0  0  0  0  0  0  0  0  0  0
    2.2490   -2.1346   -1.2981 H   0  0  0  0  0  0  0  0  0  0  0  0
  1  2  1  0
  2  3  2  0
  3  4  1  0
  3  5  1  0
  5  6  2  0
  6  7  1  0
  7  8  1  0
  8  9  2  0
  8 10  2  0
  8 11  1  0
 11 12  2  0
 12 13  1  0
 13 14  2  0
 14 15  1  0
 14 16  1  0
 16 17  2  0
  6 18  1  0
 18  2  1  0
 17 11  1  0
  1 19  1  0
  1 20  1  0
  1 21  1  0
  4 22  1  0
  4 23  1  0
  4 24  1  0
  7 25  1  0
 12 26  1  0
 13 27  1  0
 15 28  1  0
 15 29  1  0
 16 30  1  0
 17 31  1  0
M  END
$$$$
