
     RDKit          3D

 51 52  0  0  0  0  0  0  0  0999 V2000
   -3.6136   -0.6040    0.2578 C   0  0  1  0  0  0  0  0  0  0  0  0
   -3.1913   -0.8110   -1.2146 C   0  0  0  0  0  0  0  0  0  0  0  0
   -2.9041   -2.2782   -1.5363 C   0  0  0  0  0  0  0  0  0  0  0  0
   -3.7623    0.8934    0.6040 C   0  0  0  0  0  0  0  0  0  0  0  0
   -2.4416    1.6212    0.5554 C   0  0  0  0  0  0  0  0  0  0  0  0
   -1.4901    1.4192    1.5649 C   0  0  0  0  0  0  0  0  0  0  0  0
   -0.2365    2.0489    1.5049 C   0  0  0  0  0  0  0  0  0  0  0  0
    0.7970    1.7578    2.5630 C   0  0  0  0  0  0  0  0  0  0  0  0
    1.8494    0.9075    2.0120 N   0  0  0  0  0  0  0  0  0  0  0  0
    1.6121   -0.4588    1.6370 C   0  0  0  0  0  0  0  0  0  0  0  0
    0.5778   -1.0481    2.0540 O   0  0  0  0  0  0  0  0  0  0  0  0
    2.5658   -1.1819    0.7622 C   0  0  0  0  0  0  0  0  0  0  0  0
    2.6855   -2.5838    0.8277 C   0  0  0  0  0  0  0  0  0  0  0  0
    1.9627   -3.3036    1.7234 F   0  0  0  0  0  0  0  0  0  0  0  0
    3.5775   -3.2570   -0.0132 C   0  0  0  0  0  0  0  0  0  0  0  0
    4.3475   -2.5514   -0.9520 C   0  0  0  0  0  0  0  0  0  0  0  0
    4.2413   -1.1524   -1.0045 C   0  0  0  0  0  0  0  0  0  0  0  0
    3.3523   -0.4761   -0.1651 C   0  0  0  0  0  0  0  0  0  0  0  0
    5.3429   -3.2757   -1.8232 C   0  0  0  0  0  0  0  0  0  0  0  0
    5.5224   -2.6064   -3.0215 F   0  0  0  0  0  0  0  0  0  0  0  0
    6.5552   -3.3507   -1.1633 F   0  0  0  0  0  0  0  0  0  0  0  0
    4.9033   -4.5575   -2.1061 F   0  0  0  0  0  0  0  0  0  0  0  0
    0.0725    2.8904    0.4174 C   0  0  0  0  0  0  0  0  0  0  0  0
    1.3415    3.4910    0.3631 O   0  0  0  0  0  0  0  0  0  0  0  0
    1.7937    4.3304   -0.6940 C   0  0  0  0  0  0  0  0  0  0  0  0
   -0.8916    3.0996   -0.5871 C   0  0  0  0  0  0  0  0  0  0  0  0
   -2.1346    2.4677   -0.5186 C   0  0  0  0  0  0  0  0  0  0  0  0
   -4.9133   -1.3089    0.5433 C   0  0  0  0  0  0  0  0  0  0  0  0
   -6.0617   -0.9750   -0.1697 O   0  0  0  0  0  0  0  0  0  0  0  0
   -4.9651   -2.2002    1.4328 O   0  0  0  0  0  0  0  0  0  0  0  0
   -2.8256   -1.0383    0.9143 H   0  0  0  0  0  0  0  0  0  0  0  0
   -2.2626   -0.2380   -1.4218 H   0  0  0  0  0  0  0  0  0  0  0  0
   -3.9818   -0.4322   -1.8990 H   0  0  0  0  0  0  0  0  0  0  0  0
   -2.1168   -2.6745   -0.8601 H   0  0  0  0  0  0  0  0  0  0  0  0
   -3.8238   -2.8909   -1.4293 H   0  0  0  0  0  0  0  0  0  0  0  0
   -2.5468   -2.3645   -2.5841 H   0  0  0  0  0  0  0  0  0  0  0  0
   -4.1770    0.9957    1.6316 H   0  0  0  0  0  0  0  0  0  0  0  0
   -4.4946    1.3702   -0.0851 H   0  0  0  0  0  0  0  0  0  0  0  0
   -1.7215    0.7550    2.3893 H   0  0  0  0  0  0  0  0  0  0  0  0
    1.2396    2.7151    2.9143 H   0  0  0  0  0  0  0  0  0  0  0  0
    0.3454    1.2662    3.4522 H   0  0  0  0  0  0  0  0  0  0  0  0
    2.8023    1.3186    1.8925 H   0  0  0  0  0  0  0  0  0  0  0  0
    3.6683   -4.3327    0.0730 H   0  0  0  0  0  0  0  0  0  0  0  0
    4.8435   -0.5800   -1.6989 H   0  0  0  0  0  0  0  0  0  0  0  0
    3.2697    0.5991   -0.2591 H   0  0  0  0  0  0  0  0  0  0  0  0
    2.8333    4.6527   -0.4807 H   0  0  0  0  0  0  0  0  0  0  0  0
    1.7845    3.7729   -1.6544 H   0  0  0  0  0  0  0  0  0  0  0  0
    1.1500    5.2323   -0.7676 H   0  0  0  0  0  0  0  0  0  0  0  0
   -0.6859    3.7403   -1.4335 H   0  0  0  0  0  0  0  0  0  0  0  0
   -2.8534    2.6286   -1.3125 H   0  0  0  0  0  0  0  0  0  0  0  0
   -6.9415   -1.4418    0.0144 H   0  0  0  0  0  0  0  0  0  0  0  0
  1  2  1  0
  2  3  1  0
  1  4  1  0
  4  5  1  0
  5  6  2  0
  6  7  1  0
  7  8  1  0
  8  9  1  0
  9 10  1  0
 10 11  2  0
 10 12  1  0
 12 13  2  0
 13 14  1  0
 13 15  1  0
 15 16  2  0
 16 17  1  0
 17 18  2  0
 16 19  1  0
 19 20  1  0
 19 21  1  0
 19 22  1  0
  7 23  2  0
 23 24  1  0
 24 25  1  0
 23 26  1  0
 26 27  2  0
  1 28  1  0
 28 29  1  0
 28 30  2  0
 27  5  1  0
 18 12  1  0
  1 31  1  1
  2 32  1  0
  2 33  1  0
  3 34  1  0
  3 35  1  0
  3 36  1  0
  4 37  1  0
  4 38  1  0
  6 39  1  0
  8 40  1  0
  8 41  1  0
  9 42  1  0
 15 43  1  0
 17 44  1  0
 18 45  1  0
 25 46  1  0
 25 47  1  0
 25 48  1  0
 26 49  1  0
 27 50  1  0
 29 51  1  0
M  END
$$$$
