
     RDKit          3D

 71 72  0  0  0  0  0  0  0  0999 V2000
   -7.5153    3.3204   -2.3513 C   0  0  0  0  0  0  0  0  0  0  0  0
   -7.0751    2.9089   -0.9480 C   0  0  0  0  0  0  0  0  0  0  0  0
   -6.2373    4.0167   -0.3027 C   0  0  0  0  0  0  0  0  0  0  0  0
   -6.3126    1.7056   -1.0370 O   0  0  0  0  0  0  0  0  0  0  0  0
   -6.0319    0.8866    0.0623 C   0  0  0  0  0  0  0  0  0  0  0  0
   -6.5325    1.1301    1.1942 O   0  0  0  0  0  0  0  0  0  0  0  0
   -5.1056   -0.2772   -0.1065 C   0  0  0  0  0  0  0  0  0  0  0  0
   -3.6594    0.1795   -0.3559 C   0  0  0  0  0  0  0  0  0  0  0  0
   -3.0451    0.9530    0.8238 C   0  0  0  0  0  0  0  0  0  0  0  0
   -2.9319    0.1006    2.0641 C   0  0  0  0  0  0  0  0  0  0  0  0
   -1.8919   -0.7066    2.3382 C   0  0  0  0  0  0  0  0  0  0  0  0
   -0.6683   -0.8178    1.4598 C   0  0  0  0  0  0  0  0  0  0  0  0
    0.3295   -1.8743    1.9860 C   0  0  1  0  0  0  0  0  0  0  0  0
   -0.2173   -3.3069    1.9926 C   0  0  1  0  0  0  0  0  0  0  0  0
   -0.9979   -3.5544    0.8499 O   0  0  0  0  0  0  0  0  0  0  0  0
    1.0286   -4.1795    1.9716 C   0  0  0  0  0  0  0  0  0  0  0  0
    2.0660   -3.4100    1.1488 C   0  0  1  0  0  0  0  0  0  0  0  0
    2.1366   -3.9225   -0.1607 O   0  0  0  0  0  0  0  0  0  0  0  0
    1.6307   -1.9217    1.1515 C   0  0  2  0  0  0  0  0  0  0  0  0
    2.7049   -0.9688    1.7439 C   0  0  0  0  0  0  0  0  0  0  0  0
    3.7292   -0.4464    0.7174 C   0  0  0  0  0  0  0  0  0  0  0  0
    4.8268   -1.4741    0.3375 C   0  0  1  0  0  0  0  0  0  0  0  0
    4.3823   -2.3972   -0.6244 O   0  0  0  0  0  0  0  0  0  0  0  0
    6.1565   -0.8151   -0.1071 C   0  0  0  0  0  0  0  0  0  0  0  0
    6.1693   -0.2035   -1.5227 C   0  0  0  0  0  0  0  0  0  0  0  0
    5.2706    0.9986   -1.6649 C   0  0  0  0  0  0  0  0  0  0  0  0
    5.5457    2.1791   -0.9531 C   0  0  0  0  0  0  0  0  0  0  0  0
    4.7062    3.2901   -1.0787 C   0  0  0  0  0  0  0  0  0  0  0  0
    3.5933    3.2356   -1.9218 C   0  0  0  0  0  0  0  0  0  0  0  0
    3.3211    2.0718   -2.6455 C   0  0  0  0  0  0  0  0  0  0  0  0
    4.1579    0.9583   -2.5236 C   0  0  0  0  0  0  0  0  0  0  0  0
   -8.1318    4.2436   -2.3075 H   0  0  0  0  0  0  0  0  0  0  0  0
   -8.1262    2.5110   -2.8043 H   0  0  0  0  0  0  0  0  0  0  0  0
   -6.6305    3.5031   -2.9983 H   0  0  0  0  0  0  0  0  0  0  0  0
   -7.9879    2.7326   -0.3363 H   0  0  0  0  0  0  0  0  0  0  0  0
   -5.9553    3.7311    0.7321 H   0  0  0  0  0  0  0  0  0  0  0  0
   -5.3089    4.1900   -0.8881 H   0  0  0  0  0  0  0  0  0  0  0  0
   -6.8194    4.9617   -0.2552 H   0  0  0  0  0  0  0  0  0  0  0  0
   -5.4479   -0.8728   -0.9795 H   0  0  0  0  0  0  0  0  0  0  0  0
   -5.1520   -0.9406    0.7842 H   0  0  0  0  0  0  0  0  0  0  0  0
   -3.6322    0.8265   -1.2600 H   0  0  0  0  0  0  0  0  0  0  0  0
   -3.0406   -0.7148   -0.5794 H   0  0  0  0  0  0  0  0  0  0  0  0
   -2.0502    1.3490    0.5299 H   0  0  0  0  0  0  0  0  0  0  0  0
   -3.6744    1.8385    1.0557 H   0  0  0  0  0  0  0  0  0  0  0  0
   -3.7557    0.1331    2.7714 H   0  0  0  0  0  0  0  0  0  0  0  0
   -1.9348   -1.2872    3.2556 H   0  0  0  0  0  0  0  0  0  0  0  0
   -0.9667   -1.0676    0.4206 H   0  0  0  0  0  0  0  0  0  0  0  0
   -0.1621    0.1710    1.4388 H   0  0  0  0  0  0  0  0  0  0  0  0
    0.5833   -1.6190    3.0420 H   0  0  0  0  0  0  0  0  0  0  0  0
   -0.8135   -3.4931    2.9165 H   0  0  0  0  0  0  0  0  0  0  0  0
   -1.5021   -4.3912    1.0258 H   0  0  0  0  0  0  0  0  0  0  0  0
    0.8232   -5.1895    1.5534 H   0  0  0  0  0  0  0  0  0  0  0  0
    1.4021   -4.3023    3.0128 H   0  0  0  0  0  0  0  0  0  0  0  0
    3.0627   -3.5467    1.6210 H   0  0  0  0  0  0  0  0  0  0  0  0
    1.2370   -3.8414   -0.5730 H   0  0  0  0  0  0  0  0  0  0  0  0
    1.4007   -1.6022    0.1093 H   0  0  0  0  0  0  0  0  0  0  0  0
    2.1911   -0.0680    2.1467 H   0  0  0  0  0  0  0  0  0  0  0  0
    3.2196   -1.4360    2.6117 H   0  0  0  0  0  0  0  0  0  0  0  0
    4.2190    0.4394    1.1779 H   0  0  0  0  0  0  0  0  0  0  0  0
    3.1931   -0.0776   -0.1806 H   0  0  0  0  0  0  0  0  0  0  0  0
    5.0746   -2.0498    1.2558 H   0  0  0  0  0  0  0  0  0  0  0  0
    3.9529   -1.8933   -1.3628 H   0  0  0  0  0  0  0  0  0  0  0  0
    6.9425   -1.6016   -0.0851 H   0  0  0  0  0  0  0  0  0  0  0  0
    6.4684   -0.0525    0.6389 H   0  0  0  0  0  0  0  0  0  0  0  0
    5.9189   -0.9829   -2.2740 H   0  0  0  0  0  0  0  0  0  0  0  0
    7.2085    0.1177   -1.7520 H   0  0  0  0  0  0  0  0  0  0  0  0
    6.4067    2.2374   -0.2992 H   0  0  0  0  0  0  0  0  0  0  0  0
    4.9192    4.1940   -0.5228 H   0  0  0  0  0  0  0  0  0  0  0  0
    2.9441    4.0963   -2.0171 H   0  0  0  0  0  0  0  0  0  0  0  0
    2.4606    2.0320   -3.3009 H   0  0  0  0  0  0  0  0  0  0  0  0
    3.9309    0.0634   -3.0893 H   0  0  0  0  0  0  0  0  0  0  0  0
  1  2  1  0
  2  3  1  0
  2  4  1  0
  4  5  1  0
  5  6  2  0
  5  7  1  0
  7  8  1  0
  8  9  1  0
  9 10  1  0
 10 11  2  0
 11 12  1  0
 12 13  1  0
 13 14  1  0
 14 15  1  0
 14 16  1  0
 16 17  1  0
 17 18  1  0
 17 19  1  0
 19 20  1  0
 20 21  1  0
 21 22  1  0
 22 23  1  0
 22 24  1  0
 24 25  1  0
 25 26  1  0
 26 27  2  0
 27 28  1  0
 28 29  2  0
 29 30  1  0
 30 31  2  0
 19 13  1  0
 31 26  1  0
  1 32  1  0
  1 33  1  0
  1 34  1  0
  2 35  1  0
  3 36  1  0
  3 37  1  0
  3 38  1  0
  7 39  1  0
  7 40  1  0
  8 41  1  0
  8 42  1  0
  9 43  1  0
  9 44  1  0
 10 45  1  0
 11 46  1  0
 12 47  1  0
 12 48  1  0
 13 49  1  1
 14 50  1  1
 15 51  1  0
 16 52  1  0
 16 53  1  0
 17 54  1  1
 18 55  1  0
 19 56  1  6
 20 57  1  0
 20 58  1  0
 21 59  1  0
 21 60  1  0
 22 61  1  1
 23 62  1  0
 24 63  1  0
 24 64  1  0
 25 65  1  0
 25 66  1  0
 27 67  1  0
 28 68  1  0
 29 69  1  0
 30 70  1  0
 31 71  1  0
M  END
$$$$
