
     RDKit          3D

 49 50  0  0  0  0  0  0  0  0999 V2000
   -2.2238   -4.1489    1.2721 C   0  0  0  0  0  0  0  0  0  0  0  0
   -2.0740   -3.6684   -0.1744 C   0  0  0  0  0  0  0  0  0  0  0  0
   -1.5961   -2.2631   -0.2282 N   0  0  0  0  0  4  0  0  0  0  0  0
   -0.2371   -1.9920   -0.2437 C   0  0  0  0  0  0  0  0  0  0  0  0
    0.7963   -3.1103   -0.1720 C   0  0  0  0  0  0  0  0  0  0  0  0
    0.2203   -0.6566   -0.3850 C   0  0  0  0  0  0  0  0  0  0  0  0
    1.6674   -0.3523   -0.5218 C   0  0  0  0  0  0  0  0  0  0  0  0
    2.3542   -0.9426   -1.4004 O   0  0  0  0  0  0  0  0  0  0  0  0
    2.2526    0.6113    0.3078 O   0  0  0  0  0  0  0  0  0  0  0  0
    3.6323    0.9694    0.2534 C   0  0  0  0  0  0  0  0  0  0  0  0
    4.4815   -0.1048    0.9377 C   0  0  0  0  0  0  0  0  0  0  0  0
    3.8172    2.3197    0.9420 C   0  0  0  0  0  0  0  0  0  0  0  0
   -0.7105    0.3991   -0.3928 C   0  0  0  0  0  0  0  0  0  0  0  0
   -0.2381    1.8064   -0.4705 C   0  0  0  0  0  0  0  0  0  0  0  0
    0.1989    2.3192   -1.7027 C   0  0  0  0  0  0  0  0  0  0  0  0
    0.6562    3.6361   -1.7955 C   0  0  0  0  0  0  0  0  0  0  0  0
    0.6823    4.4496   -0.6607 C   0  0  0  0  0  0  0  0  0  0  0  0
    0.2562    3.9468    0.5714 C   0  0  0  0  0  0  0  0  0  0  0  0
   -0.2021    2.6281    0.6751 C   0  0  0  0  0  0  0  0  0  0  0  0
   -0.6927    2.0226    2.2531 Cl  0  0  0  0  0  0  0  0  0  0  0  0
   -2.0873    0.1170   -0.3309 C   0  0  0  0  0  0  0  0  0  0  0  0
   -3.0768    1.2292   -0.3263 C   0  0  0  0  0  0  0  0  0  0  0  0
   -2.9587    2.2799   -1.2317 O   0  0  0  0  0  0  0  0  0  0  0  0
   -4.0281    1.2280    0.5009 O   0  0  0  0  0  0  0  0  0  0  0  0
   -2.5164   -1.2302   -0.2752 C   0  0  0  0  0  0  0  0  0  0  0  0
   -3.9731   -1.5055   -0.3660 C   0  0  0  0  0  0  0  0  0  0  0  0
   -4.6460   -2.1026    0.6940 O   0  0  0  0  0  0  0  0  0  0  0  0
   -4.6093   -1.1730   -1.4019 O   0  0  0  0  0  0  0  0  0  0  0  0
   -2.5488   -5.2105    1.2786 H   0  0  0  0  0  0  0  0  0  0  0  0
   -1.2682   -4.0676    1.8266 H   0  0  0  0  0  0  0  0  0  0  0  0
   -2.9785   -3.5463    1.8131 H   0  0  0  0  0  0  0  0  0  0  0  0
   -3.0425   -3.7944   -0.7012 H   0  0  0  0  0  0  0  0  0  0  0  0
   -1.3976   -4.3477   -0.7335 H   0  0  0  0  0  0  0  0  0  0  0  0
    1.0387   -3.4566   -1.1982 H   0  0  0  0  0  0  0  0  0  0  0  0
    1.7269   -2.7755    0.3307 H   0  0  0  0  0  0  0  0  0  0  0  0
    0.4640   -3.9744    0.4293 H   0  0  0  0  0  0  0  0  0  0  0  0
    3.9535    1.0753   -0.8068 H   0  0  0  0  0  0  0  0  0  0  0  0
    5.5550    0.1799    0.9129 H   0  0  0  0  0  0  0  0  0  0  0  0
    4.1635   -0.2339    1.9944 H   0  0  0  0  0  0  0  0  0  0  0  0
    4.3675   -1.0755    0.4117 H   0  0  0  0  0  0  0  0  0  0  0  0
    3.2144    3.0913    0.4185 H   0  0  0  0  0  0  0  0  0  0  0  0
    3.4832    2.2652    2.0003 H   0  0  0  0  0  0  0  0  0  0  0  0
    4.8842    2.6273    0.9103 H   0  0  0  0  0  0  0  0  0  0  0  0
    0.1835    1.6975   -2.5894 H   0  0  0  0  0  0  0  0  0  0  0  0
    0.9911    4.0260   -2.7479 H   0  0  0  0  0  0  0  0  0  0  0  0
    1.0387    5.4688   -0.7344 H   0  0  0  0  0  0  0  0  0  0  0  0
    0.2896    4.5815    1.4477 H   0  0  0  0  0  0  0  0  0  0  0  0
   -3.6229    3.0445   -1.2310 H   0  0  0  0  0  0  0  0  0  0  0  0
   -5.6406   -2.2867    0.6407 H   0  0  0  0  0  0  0  0  0  0  0  0
  1  2  1  0
  2  3  1  0
  3  4  2  0
  4  5  1  0
  4  6  1  0
  6  7  1  0
  7  8  2  0
  7  9  1  0
  9 10  1  0
 10 11  1  0
 10 12  1  0
  6 13  2  0
 13 14  1  0
 14 15  2  0
 15 16  1  0
 16 17  2  0
 17 18  1  0
 18 19  2  0
 19 20  1  0
 13 21  1  0
 21 22  1  0
 22 23  1  0
 22 24  2  0
 21 25  2  0
 25 26  1  0
 26 27  1  0
 26 28  2  0
 25  3  1  0
 19 14  1  0
  1 29  1  0
  1 30  1  0
  1 31  1  0
  2 32  1  0
  2 33  1  0
  5 34  1  0
  5 35  1  0
  5 36  1  0
 10 37  1  0
 11 38  1  0
 11 39  1  0
 11 40  1  0
 12 41  1  0
 12 42  1  0
 12 43  1  0
 15 44  1  0
 16 45  1  0
 17 46  1  0
 18 47  1  0
 23 48  1  0
 27 49  1  0
M  CHG  1   3   1
M  END
$$$$
