
     RDKit          3D

 54 57  0  0  0  0  0  0  0  0999 V2000
    0.8473    3.0535   -0.3024 C   0  0  0  0  0  0  0  0  0  0  0  0
    0.0152    1.9018   -0.2051 O   0  0  0  0  0  0  0  0  0  0  0  0
    0.4455    0.6244    0.1878 C   0  0  0  0  0  0  0  0  0  0  0  0
   -0.4828   -0.4468    0.2484 C   0  0  0  0  0  0  0  0  0  0  0  0
   -1.8500   -0.3250   -0.0603 O   0  0  0  0  0  0  0  0  0  0  0  0
   -2.5225    0.8561   -0.4906 C   0  0  0  0  0  0  0  0  0  0  0  0
   -4.0094    0.5511   -0.7244 C   0  0  0  0  0  0  0  0  0  0  0  0
   -4.7939    1.8477   -1.0268 C   0  0  0  0  0  0  0  0  0  0  0  0
   -6.1438    1.5733   -1.7183 C   0  0  0  0  0  0  0  0  0  0  0  0
   -6.5966    0.1970   -1.4449 N   0  0  0  0  0  0  0  0  0  0  0  0
   -7.9777    0.0087   -1.9136 C   0  0  0  0  0  0  0  0  0  0  0  0
   -5.6991   -0.7887   -2.0895 C   0  0  0  0  0  0  0  0  0  0  0  0
   -4.2043   -0.4664   -1.8631 C   0  0  0  0  0  0  0  0  0  0  0  0
   -0.0413   -1.7177    0.6321 C   0  0  0  0  0  0  0  0  0  0  0  0
    1.2946   -1.9478    0.9622 C   0  0  0  0  0  0  0  0  0  0  0  0
    1.6957   -3.1971    1.3118 N   0  0  0  0  0  0  0  0  0  0  0  0
    2.9883   -3.4525    1.6312 C   0  0  0  0  0  0  0  0  0  0  0  0
    3.9036   -2.4516    1.6147 N   0  0  0  0  0  0  0  0  0  0  0  0
    3.5655   -1.1783    1.2716 C   0  0  0  0  0  0  0  0  0  0  0  0
    4.5675   -0.1479    1.3268 N   0  0  0  0  0  0  0  0  0  0  0  0
    5.9596   -0.3874    1.0521 C   0  0  0  0  0  0  0  0  0  0  0  0
    6.9418    0.4121    1.6639 C   0  0  0  0  0  0  0  0  0  0  0  0
    6.5883    1.3866    2.5395 F   0  0  0  0  0  0  0  0  0  0  0  0
    8.2967    0.2008    1.3876 C   0  0  0  0  0  0  0  0  0  0  0  0
    8.6837   -0.7994    0.4911 C   0  0  0  0  0  0  0  0  0  0  0  0
   10.5347   -1.0826    0.1150 Br  0  0  0  0  0  0  0  0  0  0  0  0
    7.7140   -1.5869   -0.1355 C   0  0  0  0  0  0  0  0  0  0  0  0
    6.3587   -1.3805    0.1376 C   0  0  0  0  0  0  0  0  0  0  0  0
    2.2256   -0.8910    0.9258 C   0  0  0  0  0  0  0  0  0  0  0  0
    1.7956    0.3861    0.5237 C   0  0  0  0  0  0  0  0  0  0  0  0
    1.2911    3.2894    0.6878 H   0  0  0  0  0  0  0  0  0  0  0  0
    1.6477    2.8846   -1.0533 H   0  0  0  0  0  0  0  0  0  0  0  0
    0.2322    3.9167   -0.6292 H   0  0  0  0  0  0  0  0  0  0  0  0
   -2.4366    1.6339    0.2994 H   0  0  0  0  0  0  0  0  0  0  0  0
   -2.0671    1.2259   -1.4354 H   0  0  0  0  0  0  0  0  0  0  0  0
   -4.4181    0.1061    0.2115 H   0  0  0  0  0  0  0  0  0  0  0  0
   -4.1953    2.5202   -1.6806 H   0  0  0  0  0  0  0  0  0  0  0  0
   -4.9710    2.3864   -0.0699 H   0  0  0  0  0  0  0  0  0  0  0  0
   -6.0404    1.7338   -2.8165 H   0  0  0  0  0  0  0  0  0  0  0  0
   -6.8879    2.3097   -1.3400 H   0  0  0  0  0  0  0  0  0  0  0  0
   -8.0676    0.2214   -3.0024 H   0  0  0  0  0  0  0  0  0  0  0  0
   -8.6634    0.6818   -1.3557 H   0  0  0  0  0  0  0  0  0  0  0  0
   -8.3092   -1.0343   -1.7193 H   0  0  0  0  0  0  0  0  0  0  0  0
   -5.9124   -1.7928   -1.6614 H   0  0  0  0  0  0  0  0  0  0  0  0
   -5.8898   -0.8448   -3.1861 H   0  0  0  0  0  0  0  0  0  0  0  0
   -3.7756   -0.0489   -2.8015 H   0  0  0  0  0  0  0  0  0  0  0  0
   -3.6570   -1.4072   -1.6351 H   0  0  0  0  0  0  0  0  0  0  0  0
   -0.7497   -2.5370    0.6690 H   0  0  0  0  0  0  0  0  0  0  0  0
    3.2886   -4.4539    1.9067 H   0  0  0  0  0  0  0  0  0  0  0  0
    4.2949    0.7866    1.7052 H   0  0  0  0  0  0  0  0  0  0  0  0
    9.0459    0.8155    1.8698 H   0  0  0  0  0  0  0  0  0  0  0  0
    8.0090   -2.3545   -0.8394 H   0  0  0  0  0  0  0  0  0  0  0  0
    5.6240   -1.9836   -0.3795 H   0  0  0  0  0  0  0  0  0  0  0  0
    2.5077    1.1935    0.4536 H   0  0  0  0  0  0  0  0  0  0  0  0
  1  2  1  0
  2  3  1  0
  3  4  2  0
  4  5  1  0
  5  6  1  0
  6  7  1  0
  7  8  1  0
  8  9  1  0
  9 10  1  0
 10 11  1  0
 10 12  1  0
 12 13  1  0
  4 14  1  0
 14 15  2  0
 15 16  1  0
 16 17  2  0
 17 18  1  0
 18 19  2  0
 19 20  1  0
 20 21  1  0
 21 22  2  0
 22 23  1  0
 22 24  1  0
 24 25  2  0
 25 26  1  0
 25 27  1  0
 27 28  2  0
 19 29  1  0
 29 30  2  0
 30  3  1  0
 13  7  1  0
 29 15  1  0
 28 21  1  0
  1 31  1  0
  1 32  1  0
  1 33  1  0
  6 34  1  0
  6 35  1  0
  7 36  1  0
  8 37  1  0
  8 38  1  0
  9 39  1  0
  9 40  1  0
 11 41  1  0
 11 42  1  0
 11 43  1  0
 12 44  1  0
 12 45  1  0
 13 46  1  0
 13 47  1  0
 14 48  1  0
 17 49  1  0
 20 50  1  0
 24 51  1  0
 27 52  1  0
 28 53  1  0
 30 54  1  0
M  END
$$$$
