
     RDKit          3D

 74 78  0  0  0  0  0  0  0  0999 V2000
   -6.8738    5.6979   -4.0056 N   0  0  0  0  0  0  0  0  0  0  0  0
   -5.9235    4.8410   -3.3665 C   0  0  0  0  0  0  0  0  0  0  0  0
   -4.6942    5.0618   -3.5382 O   0  0  0  0  0  0  0  0  0  0  0  0
   -6.3530    3.7155   -2.5002 C   0  0  0  0  0  0  0  0  0  0  0  0
   -5.4756    3.1907   -1.5350 C   0  0  0  0  0  0  0  0  0  0  0  0
   -5.8354    2.1343   -0.7357 N   0  0  0  0  0  4  0  0  0  0  0  0
   -7.1024    1.6138   -0.8401 C   0  0  0  0  0  0  0  0  0  0  0  0
   -7.9997    2.0967   -1.7917 C   0  0  0  0  0  0  0  0  0  0  0  0
   -7.6225    3.1399   -2.6294 C   0  0  0  0  0  0  0  0  0  0  0  0
   -4.8529    1.6675    0.2790 C   0  0  2  0  0  0  0  0  0  0  0  0
   -3.5179    1.2725   -0.3562 C   0  0  0  0  0  0  0  0  0  0  0  0
   -2.8393    0.3150    0.6358 C   0  0  2  0  0  0  0  0  0  0  0  0
   -2.1868   -0.8777   -0.0799 C   0  0  0  0  0  0  0  0  0  0  0  0
   -1.4981   -1.6622    0.8647 O   0  0  0  0  0  0  0  0  0  0  0  0
   -0.8470   -3.0241    0.0687 P   0  0  0  0  0  5  0  0  0  0  0  0
   -0.0232   -2.5540   -1.3354 O   0  0  0  0  0  0  0  0  0  0  0  0
   -1.9757   -3.9544   -0.3157 O   0  0  0  0  0  0  0  0  0  0  0  0
    0.2121   -3.8684    1.1003 O   0  0  0  0  0  0  0  0  0  0  0  0
    1.2899   -2.7344    1.7716 P   0  0  0  0  0  5  0  0  0  0  0  0
    0.4539   -1.6966    2.8154 O   0  0  0  0  0  0  0  0  0  0  0  0
    2.3315   -3.4757    2.5812 O   0  0  0  0  0  0  0  0  0  0  0  0
    2.0423   -1.8091    0.5492 O   0  0  0  0  0  0  0  0  0  0  0  0
    2.9863   -2.6187   -0.1125 C   0  0  0  0  0  0  0  0  0  0  0  0
    3.5715   -1.8432   -1.2994 C   0  0  1  0  0  0  0  0  0  0  0  0
    4.0716   -0.5994   -0.8480 O   0  0  0  0  0  0  0  0  0  0  0  0
    5.4608   -0.5747   -1.0934 C   0  0  2  0  0  0  0  0  0  0  0  0
    5.9324   -1.9914   -1.3755 C   0  0  2  0  0  0  0  0  0  0  0  0
    7.0233   -1.9941   -2.2595 O   0  0  0  0  0  0  0  0  0  0  0  0
    4.7034   -2.6256   -1.9749 C   0  0  2  0  0  0  0  0  0  0  0  0
    4.6727   -2.4176   -3.3648 O   0  0  0  0  0  0  0  0  0  0  0  0
    6.1732   -0.0058    0.0530 N   0  0  0  0  0  0  0  0  0  0  0  0
    7.3549    0.6633    0.0296 C   0  0  0  0  0  0  0  0  0  0  0  0
    7.8155    0.9923    1.2684 N   0  0  0  0  0  0  0  0  0  0  0  0
    6.8684    0.4872    2.0811 C   0  0  0  0  0  0  0  0  0  0  0  0
    6.7973    0.4975    3.4698 C   0  0  0  0  0  0  0  0  0  0  0  0
    5.7230   -0.1137    4.0535 N   0  0  0  0  0  0  0  0  0  0  0  0
    4.7489   -0.7188    3.3002 C   0  0  0  0  0  0  0  0  0  0  0  0
    4.8314   -0.7240    1.9359 N   0  0  0  0  0  0  0  0  0  0  0  0
    5.8952   -0.1140    1.3598 C   0  0  0  0  0  0  0  0  0  0  0  0
    7.8042    1.1169    4.2702 N   0  0  0  0  0  0  0  0  0  0  0  0
   -3.9310   -0.1263    1.6348 C   0  0  1  0  0  0  0  0  0  0  0  0
   -3.6832    0.4361    2.8990 O   0  0  0  0  0  0  0  0  0  0  0  0
   -5.2461    0.4122    1.0656 C   0  0  1  0  0  0  0  0  0  0  0  0
   -6.1670    0.7242    2.0792 O   0  0  0  0  0  0  0  0  0  0  0  0
   -7.8908    5.6590   -3.7770 H   0  0  0  0  0  0  0  0  0  0  0  0
   -6.5447    6.4456   -4.6560 H   0  0  0  0  0  0  0  0  0  0  0  0
   -4.4996    3.6463   -1.4170 H   0  0  0  0  0  0  0  0  0  0  0  0
   -7.4532    0.8242   -0.1931 H   0  0  0  0  0  0  0  0  0  0  0  0
   -8.9877    1.6626   -1.8770 H   0  0  0  0  0  0  0  0  0  0  0  0
   -8.3226    3.4814   -3.3795 H   0  0  0  0  0  0  0  0  0  0  0  0
   -4.6687    2.4941    1.0040 H   0  0  0  0  0  0  0  0  0  0  0  0
   -2.8781    2.1636   -0.5359 H   0  0  0  0  0  0  0  0  0  0  0  0
   -3.7105    0.7695   -1.3310 H   0  0  0  0  0  0  0  0  0  0  0  0
   -2.0387    0.8745    1.1723 H   0  0  0  0  0  0  0  0  0  0  0  0
   -1.4753   -0.4777   -0.8374 H   0  0  0  0  0  0  0  0  0  0  0  0
   -2.9810   -1.4703   -0.5913 H   0  0  0  0  0  0  0  0  0  0  0  0
    0.2784   -3.4021   -1.7484 H   0  0  0  0  0  0  0  0  0  0  0  0
    1.1120   -0.9964    3.0553 H   0  0  0  0  0  0  0  0  0  0  0  0
    2.5130   -3.5495   -0.5018 H   0  0  0  0  0  0  0  0  0  0  0  0
    3.8140   -2.8902    0.5804 H   0  0  0  0  0  0  0  0  0  0  0  0
    2.7494   -1.6537   -2.0250 H   0  0  0  0  0  0  0  0  0  0  0  0
    5.6370    0.0664   -1.9873 H   0  0  0  0  0  0  0  0  0  0  0  0
    6.1979   -2.5066   -0.4215 H   0  0  0  0  0  0  0  0  0  0  0  0
    7.3633   -2.9265   -2.2804 H   0  0  0  0  0  0  0  0  0  0  0  0
    4.6798   -3.7181   -1.7490 H   0  0  0  0  0  0  0  0  0  0  0  0
    3.9648   -3.0144   -3.7231 H   0  0  0  0  0  0  0  0  0  0  0  0
    7.8883    0.9023   -0.8814 H   0  0  0  0  0  0  0  0  0  0  0  0
    3.9103   -1.1956    3.7886 H   0  0  0  0  0  0  0  0  0  0  0  0
    7.7255    1.1080    5.3112 H   0  0  0  0  0  0  0  0  0  0  0  0
    8.6279    1.5850    3.8311 H   0  0  0  0  0  0  0  0  0  0  0  0
   -4.0032   -1.2361    1.7277 H   0  0  0  0  0  0  0  0  0  0  0  0
   -2.9499   -0.0960    3.3054 H   0  0  0  0  0  0  0  0  0  0  0  0
   -5.6598   -0.3598    0.3742 H   0  0  0  0  0  0  0  0  0  0  0  0
   -6.5134   -0.1417    2.4190 H   0  0  0  0  0  0  0  0  0  0  0  0
  1  2  1  0
  2  3  2  0
  2  4  1  0
  4  5  2  0
  5  6  1  0
  6  7  2  0
  7  8  1  0
  8  9  2  0
  6 10  1  0
 10 11  1  0
 11 12  1  0
 12 13  1  0
 13 14  1  0
 14 15  1  0
 15 16  1  0
 15 17  2  0
 15 18  1  0
 18 19  1  0
 19 20  1  0
 19 21  2  0
 19 22  1  0
 22 23  1  0
 23 24  1  0
 24 25  1  0
 25 26  1  0
 26 27  1  0
 27 28  1  0
 27 29  1  0
 29 30  1  0
 26 31  1  0
 31 32  1  0
 32 33  2  0
 33 34  1  0
 34 35  2  0
 35 36  1  0
 36 37  2  0
 37 38  1  0
 38 39  2  0
 35 40  1  0
 12 41  1  0
 41 42  1  0
 41 43  1  0
 43 44  1  0
  9  4  1  0
 43 10  1  0
 29 24  1  0
 39 31  1  0
 39 34  1  0
  1 45  1  0
  1 46  1  0
  5 47  1  0
  7 48  1  0
  8 49  1  0
  9 50  1  0
 10 51  1  1
 11 52  1  0
 11 53  1  0
 12 54  1  1
 13 55  1  0
 13 56  1  0
 16 57  1  0
 20 58  1  0
 23 59  1  0
 23 60  1  0
 24 61  1  6
 26 62  1  6
 27 63  1  1
 28 64  1  0
 29 65  1  6
 30 66  1  0
 32 67  1  0
 37 68  1  0
 40 69  1  0
 40 70  1  0
 41 71  1  1
 42 72  1  0
 43 73  1  6
 44 74  1  0
M  CHG  1   6   1
M  END
$$$$
