
     RDKit          3D

 46 48  0  0  0  0  0  0  0  0999 V2000
   -5.4478    2.0839    1.7493 C   0  0  0  0  0  0  0  0  0  0  0  0
   -5.2766    0.8529    0.9179 C   0  0  0  0  0  0  0  0  0  0  0  0
   -6.3535    0.0756    0.6266 N   0  0  0  0  0  0  0  0  0  0  0  0
   -6.2222   -1.0585   -0.1110 C   0  0  0  0  0  0  0  0  0  0  0  0
   -7.3665   -1.8580   -0.4003 N   0  0  0  0  0  0  0  0  0  0  0  0
   -4.9980   -1.4324   -0.5683 N   0  0  0  0  0  0  0  0  0  0  0  0
   -3.8920   -0.6848   -0.3096 C   0  0  0  0  0  0  0  0  0  0  0  0
   -2.5521   -1.1485   -0.7963 C   0  0  0  0  0  0  0  0  0  0  0  0
   -1.9174   -1.9810    0.2272 N   0  0  0  0  0  0  0  0  0  0  0  0
   -0.4200   -2.6195   -0.3803 S   0  0  0  0  0  6  0  0  0  0  0  0
   -0.6911   -3.4993   -1.5693 O   0  0  0  0  0  0  0  0  0  0  0  0
    0.2327   -3.4514    0.6875 O   0  0  0  0  0  0  0  0  0  0  0  0
    0.6673   -1.3071   -0.8296 C   0  0  0  0  0  0  0  0  0  0  0  0
    1.2899   -0.5477    0.1701 C   0  0  0  0  0  0  0  0  0  0  0  0
    2.1504    0.5076   -0.1674 C   0  0  0  0  0  0  0  0  0  0  0  0
    2.7624    1.2811    0.8789 N   0  0  0  0  0  0  0  0  0  0  0  0
    3.9333    2.0879    0.6975 C   0  0  0  0  0  0  0  0  0  0  0  0
    5.0927    1.5745    0.2655 C   0  0  0  0  0  0  0  0  0  0  0  0
    5.3847    0.1395   -0.0440 C   0  0  0  0  0  0  0  0  0  0  0  0
    6.9056    0.1137   -0.3270 C   0  0  0  0  0  0  0  0  0  0  0  0
    7.3605    1.4589   -0.2128 O   0  0  0  0  0  0  0  0  0  0  0  0
    6.3304    2.3031    0.1353 C   0  0  0  0  0  0  0  0  0  0  0  0
    6.4754    3.5409    0.3161 O   0  0  0  0  0  0  0  0  0  0  0  0
    2.3553    0.8188   -1.5241 C   0  0  0  0  0  0  0  0  0  0  0  0
    1.7302    0.0661   -2.5214 C   0  0  0  0  0  0  0  0  0  0  0  0
    0.8889   -0.9943   -2.1774 C   0  0  0  0  0  0  0  0  0  0  0  0
   -4.0097    0.4788    0.4593 C   0  0  0  0  0  0  0  0  0  0  0  0
   -6.5252    2.2894    1.9245 H   0  0  0  0  0  0  0  0  0  0  0  0
   -5.0003    2.9569    1.2289 H   0  0  0  0  0  0  0  0  0  0  0  0
   -4.9453    1.9446    2.7294 H   0  0  0  0  0  0  0  0  0  0  0  0
   -8.3094   -1.5775   -0.0505 H   0  0  0  0  0  0  0  0  0  0  0  0
   -7.2721   -2.7314   -0.9647 H   0  0  0  0  0  0  0  0  0  0  0  0
   -2.6957   -1.7349   -1.7303 H   0  0  0  0  0  0  0  0  0  0  0  0
   -1.9149   -0.2678   -1.0362 H   0  0  0  0  0  0  0  0  0  0  0  0
   -1.6753   -1.3700    1.0416 H   0  0  0  0  0  0  0  0  0  0  0  0
    1.1098   -0.7804    1.2125 H   0  0  0  0  0  0  0  0  0  0  0  0
    2.2635    1.3609    1.7933 H   0  0  0  0  0  0  0  0  0  0  0  0
    3.9000    3.1214    1.0195 H   0  0  0  0  0  0  0  0  0  0  0  0
    5.1342   -0.5047    0.8264 H   0  0  0  0  0  0  0  0  0  0  0  0
    4.8258   -0.1936   -0.9425 H   0  0  0  0  0  0  0  0  0  0  0  0
    7.4316   -0.5211    0.4176 H   0  0  0  0  0  0  0  0  0  0  0  0
    7.1107   -0.2648   -1.3512 H   0  0  0  0  0  0  0  0  0  0  0  0
    2.9906    1.6462   -1.8119 H   0  0  0  0  0  0  0  0  0  0  0  0
    1.8927    0.3100   -3.5633 H   0  0  0  0  0  0  0  0  0  0  0  0
    0.4044   -1.5615   -2.9614 H   0  0  0  0  0  0  0  0  0  0  0  0
   -3.1377    1.0772    0.6959 H   0  0  0  0  0  0  0  0  0  0  0  0
  1  2  1  0
  2  3  2  0
  3  4  1  0
  4  5  1  0
  4  6  2  0
  6  7  1  0
  7  8  1  0
  8  9  1  0
  9 10  1  0
 10 11  2  0
 10 12  2  0
 10 13  1  0
 13 14  2  0
 14 15  1  0
 15 16  1  0
 16 17  1  0
 17 18  2  0
 18 19  1  0
 19 20  1  0
 20 21  1  0
 21 22  1  0
 22 23  2  0
 15 24  2  0
 24 25  1  0
 25 26  2  0
  7 27  2  0
 27  2  1  0
 26 13  1  0
 22 18  1  0
  1 28  1  0
  1 29  1  0
  1 30  1  0
  5 31  1  0
  5 32  1  0
  8 33  1  0
  8 34  1  0
  9 35  1  0
 14 36  1  0
 16 37  1  0
 17 38  1  0
 19 39  1  0
 19 40  1  0
 20 41  1  0
 20 42  1  0
 24 43  1  0
 25 44  1  0
 26 45  1  0
 27 46  1  0
M  END
$$$$
