
     RDKit          3D

 43 43  0  0  0  0  0  0  0  0999 V2000
   -3.0652    0.2440   -1.9597 C   0  0  1  0  0  0  0  0  0  0  0  0
   -2.4936    1.4713   -2.6720 C   0  0  0  0  0  0  0  0  0  0  0  0
   -3.8897   -0.4434   -2.8679 O   0  0  0  0  0  0  0  0  0  0  0  0
   -1.9538   -0.6991   -1.4378 C   0  0  1  0  0  0  0  0  0  0  0  0
   -1.1309   -0.0249   -0.4306 N   0  0  0  0  0  0  0  0  0  0  0  0
    0.0124    0.5807   -0.5995 C   0  0  0  0  0  0  0  0  0  0  0  0
    0.6352    0.6808   -1.8474 O   0  0  0  0  0  0  0  0  0  0  0  0
    0.7002    1.1919    0.5899 C   0  0  2  0  0  0  0  0  0  0  0  0
    0.9543    0.1375    1.6892 C   0  0  0  0  0  0  0  0  0  0  0  0
    1.8411   -0.9780    1.1958 C   0  0  0  0  0  0  0  0  0  0  0  0
    1.2807   -2.1809    0.7410 C   0  0  0  0  0  0  0  0  0  0  0  0
    2.0941   -3.1991    0.2331 C   0  0  0  0  0  0  0  0  0  0  0  0
    1.1420   -4.9672   -0.4429 I   0  0  0  0  0  0  0  0  0  0  0  0
    3.4914   -3.0182    0.1774 C   0  0  0  0  0  0  0  0  0  0  0  0
    4.3374   -4.0104   -0.3203 O   0  0  0  0  0  0  0  0  0  0  0  0
    4.0507   -1.8129    0.6292 C   0  0  0  0  0  0  0  0  0  0  0  0
    6.1396   -1.4926    0.5542 I   0  0  0  0  0  0  0  0  0  0  0  0
    3.2294   -0.7985    1.1302 C   0  0  0  0  0  0  0  0  0  0  0  0
   -0.1404    2.2718    1.1083 N   0  0  0  0  0  0  0  0  0  0  0  0
    0.2364    3.2372    1.8975 C   0  0  0  0  0  0  0  0  0  0  0  0
   -0.7721    4.2472    2.3313 C   0  0  0  0  0  0  0  0  0  0  0  0
    1.5574    3.3765    2.3333 O   0  0  0  0  0  0  0  0  0  0  0  0
   -2.5679   -1.9065   -0.7893 C   0  0  0  0  0  0  0  0  0  0  0  0
   -3.2727   -1.7736    0.4039 O   0  0  0  0  0  0  0  0  0  0  0  0
   -2.4569   -3.0402   -1.3289 O   0  0  0  0  0  0  0  0  0  0  0  0
   -3.6683    0.6135   -1.0953 H   0  0  0  0  0  0  0  0  0  0  0  0
   -1.8623    1.1643   -3.5324 H   0  0  0  0  0  0  0  0  0  0  0  0
   -3.3255    2.0992   -3.0559 H   0  0  0  0  0  0  0  0  0  0  0  0
   -1.8959    2.0920   -1.9727 H   0  0  0  0  0  0  0  0  0  0  0  0
   -4.6197   -0.8635   -2.3422 H   0  0  0  0  0  0  0  0  0  0  0  0
   -1.3341   -1.0610   -2.2847 H   0  0  0  0  0  0  0  0  0  0  0  0
    0.2473    0.3194   -2.7064 H   0  0  0  0  0  0  0  0  0  0  0  0
    1.6696    1.6102    0.2400 H   0  0  0  0  0  0  0  0  0  0  0  0
   -0.0147   -0.2718    2.0521 H   0  0  0  0  0  0  0  0  0  0  0  0
    1.4359    0.6154    2.5683 H   0  0  0  0  0  0  0  0  0  0  0  0
    0.2078   -2.3247    0.7728 H   0  0  0  0  0  0  0  0  0  0  0  0
    4.0014   -4.9016   -0.6602 H   0  0  0  0  0  0  0  0  0  0  0  0
    3.6719    0.1320    1.4638 H   0  0  0  0  0  0  0  0  0  0  0  0
   -0.3528    4.8864    3.1364 H   0  0  0  0  0  0  0  0  0  0  0  0
   -1.0511    4.8881    1.4690 H   0  0  0  0  0  0  0  0  0  0  0  0
   -1.6790    3.7354    2.7171 H   0  0  0  0  0  0  0  0  0  0  0  0
    2.3051    2.7522    2.0621 H   0  0  0  0  0  0  0  0  0  0  0  0
   -3.6947   -2.5790    0.8503 H   0  0  0  0  0  0  0  0  0  0  0  0
  1  2  1  0
  1  3  1  0
  1  4  1  0
  4  5  1  0
  5  6  2  3
  6  7  1  0
  6  8  1  0
  8  9  1  0
  9 10  1  0
 10 11  2  0
 11 12  1  0
 12 13  1  0
 12 14  2  0
 14 15  1  0
 14 16  1  0
 16 17  1  0
 16 18  2  0
  8 19  1  0
 19 20  2  3
 20 21  1  0
 20 22  1  0
  4 23  1  0
 23 24  1  0
 23 25  2  0
 18 10  1  0
  1 26  1  1
  2 27  1  0
  2 28  1  0
  2 29  1  0
  3 30  1  0
  4 31  1  6
  7 32  1  0
  8 33  1  6
  9 34  1  0
  9 35  1  0
 11 36  1  0
 15 37  1  0
 18 38  1  0
 21 39  1  0
 21 40  1  0
 21 41  1  0
 22 42  1  0
 24 43  1  0
M  END
$$$$
