
     RDKit          3D

 45 44  0  0  0  0  0  0  0  0999 V2000
   -5.1488   -0.4953    0.0074 C   0  0  2  0  0  0  0  0  0  0  0  0
   -6.3075   -0.4345    0.7996 O   0  0  0  0  0  0  0  0  0  0  0  0
   -3.9028   -0.5726    0.9193 C   0  0  0  0  0  0  0  0  0  0  0  0
   -2.5994   -0.7911    0.1358 C   0  0  0  0  0  0  0  0  0  0  0  0
   -1.4188   -1.0220    1.0869 C   0  0  0  0  0  0  0  0  0  0  0  0
   -0.1136   -1.2212    0.3070 C   0  0  0  0  0  0  0  0  0  0  0  0
    1.0712   -1.4312    1.2613 C   0  0  0  0  0  0  0  0  0  0  0  0
    2.3690   -1.8268    0.5329 C   0  0  0  0  0  0  0  0  0  0  0  0
    2.8817   -0.8044   -0.4984 C   0  0  0  0  0  0  0  0  0  0  0  0
    3.2587    0.5467    0.1323 C   0  0  0  0  0  0  0  0  0  0  0  0
    3.7796    1.5649   -0.8989 C   0  0  0  0  0  0  0  0  0  0  0  0
    5.1073    1.1843   -1.5786 C   0  0  0  0  0  0  0  0  0  0  0  0
    6.2652    1.0362   -0.5925 C   0  0  0  0  0  0  0  0  0  0  0  0
   -5.1372    0.7071   -0.9571 C   0  0  0  0  0  0  0  0  0  0  0  0
   -5.0537    2.0221   -0.2415 C   0  0  0  0  0  0  0  0  0  0  0  0
   -3.8234    2.6554   -0.0961 O   0  0  0  0  0  0  0  0  0  0  0  0
   -6.0910    2.5406    0.2515 O   0  0  0  0  0  0  0  0  0  0  0  0
   -5.1856   -1.4179   -0.6189 H   0  0  0  0  0  0  0  0  0  0  0  0
   -6.4659   -1.3492    1.1524 H   0  0  0  0  0  0  0  0  0  0  0  0
   -4.0406   -1.4262    1.6191 H   0  0  0  0  0  0  0  0  0  0  0  0
   -3.8213    0.3483    1.5364 H   0  0  0  0  0  0  0  0  0  0  0  0
   -2.7112   -1.6737   -0.5316 H   0  0  0  0  0  0  0  0  0  0  0  0
   -2.3842    0.1026   -0.4877 H   0  0  0  0  0  0  0  0  0  0  0  0
   -1.6176   -1.9234    1.7078 H   0  0  0  0  0  0  0  0  0  0  0  0
   -1.3133   -0.1437    1.7617 H   0  0  0  0  0  0  0  0  0  0  0  0
    0.0686   -0.3208   -0.3179 H   0  0  0  0  0  0  0  0  0  0  0  0
   -0.2147   -2.1058   -0.3596 H   0  0  0  0  0  0  0  0  0  0  0  0
    0.8217   -2.2530    1.9679 H   0  0  0  0  0  0  0  0  0  0  0  0
    1.2335   -0.5195    1.8737 H   0  0  0  0  0  0  0  0  0  0  0  0
    2.2040   -2.7964    0.0142 H   0  0  0  0  0  0  0  0  0  0  0  0
    3.1623   -1.9987    1.2928 H   0  0  0  0  0  0  0  0  0  0  0  0
    2.1307   -0.6564   -1.3027 H   0  0  0  0  0  0  0  0  0  0  0  0
    3.7820   -1.2494   -0.9706 H   0  0  0  0  0  0  0  0  0  0  0  0
    2.3555    0.9944    0.5968 H   0  0  0  0  0  0  0  0  0  0  0  0
    4.0045    0.3980    0.9413 H   0  0  0  0  0  0  0  0  0  0  0  0
    3.0069    1.7092   -1.6853 H   0  0  0  0  0  0  0  0  0  0  0  0
    3.9090    2.5454   -0.3906 H   0  0  0  0  0  0  0  0  0  0  0  0
    5.3671    1.9907   -2.2983 H   0  0  0  0  0  0  0  0  0  0  0  0
    4.9951    0.2516   -2.1692 H   0  0  0  0  0  0  0  0  0  0  0  0
    6.1340    0.1277    0.0313 H   0  0  0  0  0  0  0  0  0  0  0  0
    7.2172    0.9316   -1.1544 H   0  0  0  0  0  0  0  0  0  0  0  0
    6.3369    1.9310    0.0617 H   0  0  0  0  0  0  0  0  0  0  0  0
   -6.0687    0.6890   -1.5639 H   0  0  0  0  0  0  0  0  0  0  0  0
   -4.2944    0.6195   -1.6741 H   0  0  0  0  0  0  0  0  0  0  0  0
   -3.7479    3.5369    0.3970 H   0  0  0  0  0  0  0  0  0  0  0  0
  1  2  1  0
  1  3  1  0
  3  4  1  0
  4  5  1  0
  5  6  1  0
  6  7  1  0
  7  8  1  0
  8  9  1  0
  9 10  1  0
 10 11  1  0
 11 12  1  0
 12 13  1  0
  1 14  1  0
 14 15  1  0
 15 16  1  0
 15 17  2  0
  1 18  1  6
  2 19  1  0
  3 20  1  0
  3 21  1  0
  4 22  1  0
  4 23  1  0
  5 24  1  0
  5 25  1  0
  6 26  1  0
  6 27  1  0
  7 28  1  0
  7 29  1  0
  8 30  1  0
  8 31  1  0
  9 32  1  0
  9 33  1  0
 10 34  1  0
 10 35  1  0
 11 36  1  0
 11 37  1  0
 12 38  1  0
 12 39  1  0
 13 40  1  0
 13 41  1  0
 13 42  1  0
 14 43  1  0
 14 44  1  0
 16 45  1  0
M  END
$$$$
