
     RDKit          3D

 30 31  0  0  0  0  0  0  0  0999 V2000
   -3.1931   -0.3673   -1.2761 C   0  0  0  0  0  0  0  0  0  0  0  0
   -2.6036    0.0804   -0.0153 N   0  0  0  0  0  0  0  0  0  0  0  0
   -3.4926    0.5525    1.0448 C   0  0  0  0  0  0  0  0  0  0  0  0
   -1.2796   -0.3645    0.3251 C   0  0  0  0  0  0  0  0  0  0  0  0
   -0.1344    0.2631   -0.2210 C   0  0  0  0  0  0  0  0  0  0  0  0
   -0.2620    1.3687   -1.0812 C   0  0  0  0  0  0  0  0  0  0  0  0
    0.8663    1.9817   -1.6177 C   0  0  0  0  0  0  0  0  0  0  0  0
    2.1386    1.5114   -1.3052 C   0  0  0  0  0  0  0  0  0  0  0  0
    2.3096    0.4184   -0.4427 C   0  0  0  0  0  0  0  0  0  0  0  0
    1.1656   -0.2170    0.1127 C   0  0  0  0  0  0  0  0  0  0  0  0
    1.2773   -1.3139    0.9927 C   0  0  0  0  0  0  0  0  0  0  0  0
    0.1406   -1.9158    1.5302 C   0  0  0  0  0  0  0  0  0  0  0  0
   -1.1273   -1.4464    1.2007 C   0  0  0  0  0  0  0  0  0  0  0  0
    3.9611   -0.1179   -0.0826 S   0  0  0  0  0  6  0  0  0  0  0  0
    4.2289   -0.0201    1.5748 O   0  0  0  0  0  0  0  0  0  0  0  0
    4.9623    0.7560   -0.7859 O   0  0  0  0  0  0  0  0  0  0  0  0
    4.1383   -1.5354   -0.5507 O   0  0  0  0  0  0  0  0  0  0  0  0
   -2.4059   -0.5220   -2.0449 H   0  0  0  0  0  0  0  0  0  0  0  0
   -3.9041    0.3963   -1.6563 H   0  0  0  0  0  0  0  0  0  0  0  0
   -3.7333   -1.3242   -1.1166 H   0  0  0  0  0  0  0  0  0  0  0  0
   -4.0522   -0.3041    1.4761 H   0  0  0  0  0  0  0  0  0  0  0  0
   -4.2137    1.2915    0.6362 H   0  0  0  0  0  0  0  0  0  0  0  0
   -2.9069    1.0484    1.8485 H   0  0  0  0  0  0  0  0  0  0  0  0
   -1.2334    1.7695   -1.3412 H   0  0  0  0  0  0  0  0  0  0  0  0
    0.7540    2.8302   -2.2805 H   0  0  0  0  0  0  0  0  0  0  0  0
    2.9939    2.0112   -1.7402 H   0  0  0  0  0  0  0  0  0  0  0  0
    2.2361   -1.7199    1.2789 H   0  0  0  0  0  0  0  0  0  0  0  0
    0.2439   -2.7562    2.2047 H   0  0  0  0  0  0  0  0  0  0  0  0
   -1.9985   -1.9343    1.6194 H   0  0  0  0  0  0  0  0  0  0  0  0
    5.1242   -0.4206    1.7133 H   0  0  0  0  0  0  0  0  0  0  0  0
  1  2  1  0
  2  3  1  0
  2  4  1  0
  4  5  2  0
  5  6  1  0
  6  7  2  0
  7  8  1  0
  8  9  2  0
  9 10  1  0
 10 11  2  0
 11 12  1  0
 12 13  2  0
  9 14  1  0
 14 15  1  0
 14 16  2  0
 14 17  2  0
 13  4  1  0
 10  5  1  0
  1 18  1  0
  1 19  1  0
  1 20  1  0
  3 21  1  0
  3 22  1  0
  3 23  1  0
  6 24  1  0
  7 25  1  0
  8 26  1  0
 11 27  1  0
 12 28  1  0
 13 29  1  0
 15 30  1  0
M  END
$$$$
