
     RDKit          3D

 35 36  0  0  0  0  0  0  0  0999 V2000
    4.8668   -1.5665   -1.4018 N   0  0  0  0  0  0  0  0  0  0  0  0
    3.8495   -0.9028   -0.6521 C   0  0  0  0  0  0  0  0  0  0  0  0
    3.4156   -1.4471    0.5255 N   0  0  0  0  0  0  0  0  0  0  0  0
    2.4514   -0.7990    1.2201 C   0  0  0  0  0  0  0  0  0  0  0  0
    1.9035    0.3612    0.7865 C   0  0  0  0  0  0  0  0  0  0  0  0
    0.9676    0.7507    1.6698 N   0  0  0  0  0  0  0  0  0  0  0  0
    0.0330    1.8749    1.5921 C   0  0  0  0  0  0  0  0  0  0  0  0
   -1.1287    1.5415    0.6562 C   0  0  0  0  0  0  0  0  0  0  0  0
   -1.8629    0.3735    1.1701 N   0  0  0  0  0  0  0  0  0  0  0  0
   -2.6035   -0.3886    0.1444 C   0  0  0  0  0  0  0  0  0  0  0  0
   -1.6341   -1.2106   -0.7315 C   0  0  0  0  0  0  0  0  0  0  0  0
   -2.3225   -2.2115   -1.4326 O   0  0  0  0  0  0  0  0  0  0  0  0
   -3.5448    0.5074   -0.6935 C   0  0  0  0  0  0  0  0  0  0  0  0
   -4.4207   -0.2714   -1.4636 O   0  0  0  0  0  0  0  0  0  0  0  0
    0.9806   -0.2231    2.6169 C   0  0  0  0  0  0  0  0  0  0  0  0
    1.8931   -1.2019    2.3746 N   0  0  0  0  0  0  0  0  0  0  0  0
    2.3311    0.9265   -0.4132 C   0  0  0  0  0  0  0  0  0  0  0  0
    1.8447    2.0042   -0.8473 O   0  0  0  0  0  0  0  0  0  0  0  0
    3.3078    0.2740   -1.1136 N   0  0  0  0  0  0  0  0  0  0  0  0
    5.2108   -1.1682   -2.3035 H   0  0  0  0  0  0  0  0  0  0  0  0
    5.2787   -2.4608   -1.0543 H   0  0  0  0  0  0  0  0  0  0  0  0
   -0.3622    2.1077    2.6052 H   0  0  0  0  0  0  0  0  0  0  0  0
    0.5611    2.7821    1.2299 H   0  0  0  0  0  0  0  0  0  0  0  0
   -1.8068    2.4215    0.5921 H   0  0  0  0  0  0  0  0  0  0  0  0
   -0.7170    1.3552   -0.3563 H   0  0  0  0  0  0  0  0  0  0  0  0
   -2.5401    0.7039    1.8979 H   0  0  0  0  0  0  0  0  0  0  0  0
   -3.2430   -1.1190    0.6904 H   0  0  0  0  0  0  0  0  0  0  0  0
   -1.1242   -0.5593   -1.4709 H   0  0  0  0  0  0  0  0  0  0  0  0
   -0.8438   -1.6701   -0.0937 H   0  0  0  0  0  0  0  0  0  0  0  0
   -2.5103   -2.9378   -0.7822 H   0  0  0  0  0  0  0  0  0  0  0  0
   -2.9556    1.1511   -1.3800 H   0  0  0  0  0  0  0  0  0  0  0  0
   -4.1278    1.1785   -0.0221 H   0  0  0  0  0  0  0  0  0  0  0  0
   -5.1120   -0.6209   -0.8426 H   0  0  0  0  0  0  0  0  0  0  0  0
    0.3175   -0.2338    3.4724 H   0  0  0  0  0  0  0  0  0  0  0  0
    3.6469    0.6787   -2.0157 H   0  0  0  0  0  0  0  0  0  0  0  0
  1  2  1  0
  2  3  2  0
  3  4  1  0
  4  5  2  0
  5  6  1  0
  6  7  1  0
  7  8  1  0
  8  9  1  0
  9 10  1  0
 10 11  1  0
 11 12  1  0
 10 13  1  0
 13 14  1  0
  6 15  1  0
 15 16  2  0
  5 17  1  0
 17 18  2  0
 17 19  1  0
 19  2  1  0
 16  4  1  0
  1 20  1  0
  1 21  1  0
  7 22  1  0
  7 23  1  0
  8 24  1  0
  8 25  1  0
  9 26  1  0
 10 27  1  0
 11 28  1  0
 11 29  1  0
 12 30  1  0
 13 31  1  0
 13 32  1  0
 14 33  1  0
 15 34  1  0
 19 35  1  0
M  END
$$$$
