
     RDKit          3D

 39 41  0  0  0  0  0  0  0  0999 V2000
   -5.6351    1.5517    2.0126 N   0  0  0  0  0  0  0  0  0  0  0  0
   -4.4977    1.3335    1.1748 C   0  0  0  0  0  0  0  0  0  0  0  0
   -3.5014    2.0978    1.2841 O   0  0  0  0  0  0  0  0  0  0  0  0
   -4.4852    0.2361    0.1770 C   0  0  0  0  0  0  0  0  0  0  0  0
   -5.6751   -0.0950   -0.4975 C   0  0  0  0  0  0  0  0  0  0  0  0
   -5.6868   -1.0953   -1.4715 C   0  0  0  0  0  0  0  0  0  0  0  0
   -4.5143   -1.7807   -1.7845 C   0  0  0  0  0  0  0  0  0  0  0  0
   -3.3251   -1.4680   -1.1253 C   0  0  0  0  0  0  0  0  0  0  0  0
   -3.2918   -0.4547   -0.1508 C   0  0  0  0  0  0  0  0  0  0  0  0
   -2.0734   -0.2032    0.5715 N   0  0  0  0  0  0  0  0  0  0  0  0
   -0.7771   -0.1101   -0.0404 C   0  0  0  0  0  0  0  0  0  0  0  0
    0.3311   -0.3052    0.7235 N   0  0  0  0  0  0  0  0  0  0  0  0
    1.5827   -0.1989    0.2022 C   0  0  0  0  0  0  0  0  0  0  0  0
    2.7204   -0.4532    1.0387 N   0  0  0  0  0  0  0  0  0  0  0  0
    4.0778   -0.1560    0.6700 C   0  0  0  0  0  0  0  0  0  0  0  0
    5.1105   -0.9999    1.1079 C   0  0  0  0  0  0  0  0  0  0  0  0
    6.4452   -0.7188    0.7817 C   0  0  0  0  0  0  0  0  0  0  0  0
    7.4717   -1.5613    1.2024 O   0  0  0  0  0  0  0  0  0  0  0  0
    6.7514    0.4185    0.0281 C   0  0  0  0  0  0  0  0  0  0  0  0
    5.7322    1.2772   -0.3908 C   0  0  0  0  0  0  0  0  0  0  0  0
    4.4014    0.9980   -0.0668 C   0  0  0  0  0  0  0  0  0  0  0  0
    1.7383    0.0983   -1.1165 N   0  0  0  0  0  0  0  0  0  0  0  0
    0.6642    0.3177   -1.9166 C   0  0  0  0  0  0  0  0  0  0  0  0
   -0.6241    0.2273   -1.3933 C   0  0  0  0  0  0  0  0  0  0  0  0
   -5.6483    2.3563    2.6779 H   0  0  0  0  0  0  0  0  0  0  0  0
   -6.4382    0.8850    2.0215 H   0  0  0  0  0  0  0  0  0  0  0  0
   -6.5950    0.4372   -0.2913 H   0  0  0  0  0  0  0  0  0  0  0  0
   -6.6074   -1.3373   -1.9867 H   0  0  0  0  0  0  0  0  0  0  0  0
   -4.5281   -2.5614   -2.5342 H   0  0  0  0  0  0  0  0  0  0  0  0
   -2.4304   -2.0307   -1.3601 H   0  0  0  0  0  0  0  0  0  0  0  0
   -2.1264   -0.1216    1.6120 H   0  0  0  0  0  0  0  0  0  0  0  0
    2.5540   -0.9595    1.9379 H   0  0  0  0  0  0  0  0  0  0  0  0
    4.8751   -1.8802    1.6932 H   0  0  0  0  0  0  0  0  0  0  0  0
    7.2834   -2.3929    1.7501 H   0  0  0  0  0  0  0  0  0  0  0  0
    7.7802    0.6412   -0.2249 H   0  0  0  0  0  0  0  0  0  0  0  0
    5.9747    2.1656   -0.9596 H   0  0  0  0  0  0  0  0  0  0  0  0
    3.6322    1.6959   -0.3696 H   0  0  0  0  0  0  0  0  0  0  0  0
    0.8113    0.5669   -2.9589 H   0  0  0  0  0  0  0  0  0  0  0  0
   -1.4772    0.4280   -2.0278 H   0  0  0  0  0  0  0  0  0  0  0  0
  1  2  1  0
  2  3  2  0
  2  4  1  0
  4  5  2  0
  5  6  1  0
  6  7  2  0
  7  8  1  0
  8  9  2  0
  9 10  1  0
 10 11  1  0
 11 12  2  0
 12 13  1  0
 13 14  1  0
 14 15  1  0
 15 16  2  0
 16 17  1  0
 17 18  1  0
 17 19  2  0
 19 20  1  0
 20 21  2  0
 13 22  2  0
 22 23  1  0
 23 24  2  0
  9  4  1  0
 24 11  1  0
 21 15  1  0
  1 25  1  0
  1 26  1  0
  5 27  1  0
  6 28  1  0
  7 29  1  0
  8 30  1  0
 10 31  1  0
 14 32  1  0
 16 33  1  0
 18 34  1  0
 19 35  1  0
 20 36  1  0
 21 37  1  0
 23 38  1  0
 24 39  1  0
M  END
$$$$
