
     RDKit          3D

 18 18  0  0  0  0  0  0  0  0999 V2000
    3.0611   -0.2987   -0.0789 N   0  0  0  0  0  0  0  0  0  0  0  0
    1.6800    0.0719   -0.0486 C   0  0  0  0  0  0  0  0  0  0  0  0
    0.6859   -0.9146    0.0013 C   0  0  0  0  0  0  0  0  0  0  0  0
   -0.6793   -0.5655    0.0316 C   0  0  0  0  0  0  0  0  0  0  0  0
   -1.7081   -1.6371    0.0843 C   0  0  0  0  0  0  0  0  0  0  0  0
   -3.0647   -1.3258    0.1153 O   0  0  0  0  0  0  0  0  0  0  0  0
   -1.3609   -2.8494    0.1017 O   0  0  0  0  0  0  0  0  0  0  0  0
   -1.0333    0.8036    0.0109 C   0  0  0  0  0  0  0  0  0  0  0  0
   -2.3713    1.1963    0.0395 O   0  0  0  0  0  0  0  0  0  0  0  0
   -0.0319    1.7842   -0.0390 C   0  0  0  0  0  0  0  0  0  0  0  0
    1.3147    1.4216   -0.0685 C   0  0  0  0  0  0  0  0  0  0  0  0
    3.8094    0.4290   -0.1160 H   0  0  0  0  0  0  0  0  0  0  0  0
    3.3461   -1.3034   -0.0644 H   0  0  0  0  0  0  0  0  0  0  0  0
    0.9841   -1.9559    0.0162 H   0  0  0  0  0  0  0  0  0  0  0  0
   -3.7661   -2.0559    0.1512 H   0  0  0  0  0  0  0  0  0  0  0  0
   -2.6408    2.1732    0.0252 H   0  0  0  0  0  0  0  0  0  0  0  0
   -0.2986    2.8334   -0.0550 H   0  0  0  0  0  0  0  0  0  0  0  0
    2.0736    2.1930   -0.1070 H   0  0  0  0  0  0  0  0  0  0  0  0
  1  2  1  0
  2  3  2  0
  3  4  1  0
  4  5  1  0
  5  6  1  0
  5  7  2  0
  4  8  2  0
  8  9  1  0
  8 10  1  0
 10 11  2  0
 11  2  1  0
  1 12  1  0
  1 13  1  0
  3 14  1  0
  6 15  1  0
  9 16  1  0
 10 17  1  0
 11 18  1  0
M  END
$$$$
