
     RDKit          3D

 55 59  0  0  0  0  0  0  0  0999 V2000
   -7.9948   -1.0936    1.4068 N   0  0  0  0  0  0  0  0  0  0  0  0
   -6.5522   -1.2947    1.2652 C   0  0  0  0  0  0  0  0  0  0  0  0
   -6.0412   -0.9758   -0.1659 C   0  0  0  0  0  0  0  0  0  0  0  0
   -6.1701    0.5140   -0.5476 C   0  0  0  0  0  0  0  0  0  0  0  0
   -5.1212    1.3807    0.1611 C   0  0  0  0  0  0  0  0  0  0  0  0
   -3.7593    0.8932   -0.1369 N   0  0  0  0  0  0  0  0  0  0  0  0
   -2.7564    1.7867    0.4795 C   0  0  0  0  0  0  0  0  0  0  0  0
   -1.4007    1.5654   -0.1372 C   0  0  0  0  0  0  0  0  0  0  0  0
   -0.3587    0.9820    0.6179 C   0  0  0  0  0  0  0  0  0  0  0  0
    0.8683    0.7802   -0.0089 C   0  0  0  0  0  0  0  0  0  0  0  0
    1.0800    1.1260   -1.3160 C   0  0  0  0  0  0  0  0  0  0  0  0
    2.3365    0.8367   -1.6920 N   0  0  0  0  0  0  0  0  0  0  0  0
    2.9327    0.2937   -0.6008 C   0  0  0  0  0  0  0  0  0  0  0  0
    2.0426    0.2474    0.4741 C   0  0  0  0  0  0  0  0  0  0  0  0
    4.3461   -0.1572   -0.5578 C   0  0  0  0  0  0  0  0  0  0  0  0
    5.0835   -0.0173    0.6282 C   0  0  0  0  0  0  0  0  0  0  0  0
    6.4192   -0.4271    0.6833 C   0  0  0  0  0  0  0  0  0  0  0  0
    7.1717   -0.2858    1.8597 C   0  0  0  0  0  0  0  0  0  0  0  0
    8.5063   -0.7004    1.8908 C   0  0  0  0  0  0  0  0  0  0  0  0
    9.0961   -1.2561    0.7521 C   0  0  0  0  0  0  0  0  0  0  0  0
    8.3546   -1.4004   -0.4242 C   0  0  0  0  0  0  0  0  0  0  0  0
    7.0132   -0.9874   -0.4683 C   0  0  0  0  0  0  0  0  0  0  0  0
    6.2814   -1.1263   -1.6103 N   0  0  0  0  0  0  0  0  0  0  0  0
    4.9770   -0.7361   -1.6796 C   0  0  0  0  0  0  0  0  0  0  0  0
    4.3372   -0.9202   -2.7503 O   0  0  0  0  0  0  0  0  0  0  0  0
    0.0777    1.7042   -2.0916 C   0  0  0  0  0  0  0  0  0  0  0  0
   -1.1757    1.9215   -1.4916 C   0  0  0  0  0  0  0  0  0  0  0  0
   -3.5938   -0.4937    0.3498 C   0  0  0  0  0  0  0  0  0  0  0  0
   -4.5811   -1.4328   -0.3552 C   0  0  0  0  0  0  0  0  0  0  0  0
   -8.4928   -1.5091    0.5865 H   0  0  0  0  0  0  0  0  0  0  0  0
   -8.2021   -0.0701    1.4363 H   0  0  0  0  0  0  0  0  0  0  0  0
   -6.0232   -0.6846    2.0267 H   0  0  0  0  0  0  0  0  0  0  0  0
   -6.3347   -2.3593    1.4981 H   0  0  0  0  0  0  0  0  0  0  0  0
   -6.6598   -1.5636   -0.8802 H   0  0  0  0  0  0  0  0  0  0  0  0
   -6.0213    0.6134   -1.6457 H   0  0  0  0  0  0  0  0  0  0  0  0
   -7.1870    0.8993   -0.3300 H   0  0  0  0  0  0  0  0  0  0  0  0
   -5.3083    1.3992    1.2580 H   0  0  0  0  0  0  0  0  0  0  0  0
   -5.2398    2.4203   -0.2170 H   0  0  0  0  0  0  0  0  0  0  0  0
   -2.7243    1.6464    1.5845 H   0  0  0  0  0  0  0  0  0  0  0  0
   -3.0241    2.8527    0.3030 H   0  0  0  0  0  0  0  0  0  0  0  0
   -0.5029    0.6935    1.6517 H   0  0  0  0  0  0  0  0  0  0  0  0
    2.7642    1.0305   -2.6246 H   0  0  0  0  0  0  0  0  0  0  0  0
    2.2257   -0.1323    1.4709 H   0  0  0  0  0  0  0  0  0  0  0  0
    4.6245    0.4284    1.5032 H   0  0  0  0  0  0  0  0  0  0  0  0
    6.7294    0.1433    2.7509 H   0  0  0  0  0  0  0  0  0  0  0  0
    9.0846   -0.5906    2.7991 H   0  0  0  0  0  0  0  0  0  0  0  0
   10.1298   -1.5756    0.7813 H   0  0  0  0  0  0  0  0  0  0  0  0
    8.8254   -1.8330   -1.2983 H   0  0  0  0  0  0  0  0  0  0  0  0
    6.7235   -1.5505   -2.4584 H   0  0  0  0  0  0  0  0  0  0  0  0
    0.2551    1.9748   -3.1244 H   0  0  0  0  0  0  0  0  0  0  0  0
   -1.9725    2.3634   -2.0769 H   0  0  0  0  0  0  0  0  0  0  0  0
   -2.5689   -0.8577    0.1204 H   0  0  0  0  0  0  0  0  0  0  0  0
   -3.7302   -0.5504    1.4530 H   0  0  0  0  0  0  0  0  0  0  0  0
   -4.4457   -2.4695    0.0225 H   0  0  0  0  0  0  0  0  0  0  0  0
   -4.3435   -1.4454   -1.4420 H   0  0  0  0  0  0  0  0  0  0  0  0
  1  2  1  0
  2  3  1  0
  3  4  1  0
  4  5  1  0
  5  6  1  0
  6  7  1  0
  7  8  1  0
  8  9  2  0
  9 10  1  0
 10 11  2  0
 11 12  1  0
 12 13  1  0
 13 14  2  0
 13 15  1  0
 15 16  2  0
 16 17  1  0
 17 18  2  0
 18 19  1  0
 19 20  2  0
 20 21  1  0
 21 22  2  0
 22 23  1  0
 23 24  1  0
 24 25  2  0
 11 26  1  0
 26 27  2  0
  6 28  1  0
 28 29  1  0
 29  3  1  0
 27  8  1  0
 14 10  1  0
 24 15  1  0
 22 17  1  0
  1 30  1  0
  1 31  1  0
  2 32  1  0
  2 33  1  0
  3 34  1  0
  4 35  1  0
  4 36  1  0
  5 37  1  0
  5 38  1  0
  7 39  1  0
  7 40  1  0
  9 41  1  0
 12 42  1  0
 14 43  1  0
 16 44  1  0
 18 45  1  0
 19 46  1  0
 20 47  1  0
 21 48  1  0
 23 49  1  0
 26 50  1  0
 27 51  1  0
 28 52  1  0
 28 53  1  0
 29 54  1  0
 29 55  1  0
M  END
$$$$
