
     RDKit          3D

 32 33  0  0  0  0  0  0  0  0999 V2000
    0.1691   -1.4431    1.9794 C   0  0  0  0  0  0  0  0  0  0  0  0
    0.1258   -1.0371    0.4863 C   0  0  0  0  0  0  0  0  0  0  0  0
   -0.0045   -2.3363   -0.3449 C   0  0  0  0  0  0  0  0  0  0  0  0
    1.4249   -0.2609    0.1947 C   0  0  0  0  0  0  0  0  0  0  0  0
    2.5084   -0.8197   -0.5233 C   0  0  0  0  0  0  0  0  0  0  0  0
    3.6778   -0.0838   -0.7381 C   0  0  0  0  0  0  0  0  0  0  0  0
    3.7971    1.2109   -0.2331 C   0  0  0  0  0  0  0  0  0  0  0  0
    2.7491    1.7730    0.4948 C   0  0  0  0  0  0  0  0  0  0  0  0
    1.5774    1.0444    0.7139 C   0  0  0  0  0  0  0  0  0  0  0  0
   -1.0888   -0.1558    0.1347 C   0  0  0  0  0  0  0  0  0  0  0  0
   -1.1431    0.4658   -1.1325 C   0  0  0  0  0  0  0  0  0  0  0  0
   -2.2368    1.2523   -1.5021 C   0  0  0  0  0  0  0  0  0  0  0  0
   -3.3073    1.4251   -0.6241 C   0  0  0  0  0  0  0  0  0  0  0  0
   -4.3909    2.2130   -1.0057 O   0  0  0  0  0  0  0  0  0  0  0  0
   -3.2830    0.8024    0.6281 C   0  0  0  0  0  0  0  0  0  0  0  0
   -2.1913    0.0140    1.0041 C   0  0  0  0  0  0  0  0  0  0  0  0
    1.1100   -1.9916    2.2038 H   0  0  0  0  0  0  0  0  0  0  0  0
   -0.6755   -2.1171    2.2393 H   0  0  0  0  0  0  0  0  0  0  0  0
    0.1306   -0.5487    2.6380 H   0  0  0  0  0  0  0  0  0  0  0  0
    0.7675   -3.0810   -0.0540 H   0  0  0  0  0  0  0  0  0  0  0  0
    0.0908   -2.1263   -1.4320 H   0  0  0  0  0  0  0  0  0  0  0  0
   -0.9975   -2.8067   -0.1741 H   0  0  0  0  0  0  0  0  0  0  0  0
    2.4695   -1.8210   -0.9254 H   0  0  0  0  0  0  0  0  0  0  0  0
    4.4961   -0.5215   -1.2953 H   0  0  0  0  0  0  0  0  0  0  0  0
    4.7046    1.7763   -0.4008 H   0  0  0  0  0  0  0  0  0  0  0  0
    2.8452    2.7745    0.8939 H   0  0  0  0  0  0  0  0  0  0  0  0
    0.7831    1.5018    1.2906 H   0  0  0  0  0  0  0  0  0  0  0  0
   -0.3317    0.3426   -1.8390 H   0  0  0  0  0  0  0  0  0  0  0  0
   -2.2530    1.7257   -2.4757 H   0  0  0  0  0  0  0  0  0  0  0  0
   -5.1837    2.3567   -0.3911 H   0  0  0  0  0  0  0  0  0  0  0  0
   -4.1133    0.9253    1.3120 H   0  0  0  0  0  0  0  0  0  0  0  0
   -2.2267   -0.4534    1.9767 H   0  0  0  0  0  0  0  0  0  0  0  0
  1  2  1  0
  2  3  1  0
  2  4  1  0
  4  5  2  0
  5  6  1  0
  6  7  2  0
  7  8  1  0
  8  9  2  0
  2 10  1  0
 10 11  2  0
 11 12  1  0
 12 13  2  0
 13 14  1  0
 13 15  1  0
 15 16  2  0
  9  4  1  0
 16 10  1  0
  1 17  1  0
  1 18  1  0
  1 19  1  0
  3 20  1  0
  3 21  1  0
  3 22  1  0
  5 23  1  0
  6 24  1  0
  7 25  1  0
  8 26  1  0
  9 27  1  0
 11 28  1  0
 12 29  1  0
 14 30  1  0
 15 31  1  0
 16 32  1  0
M  END
$$$$
