
     RDKit          3D

 89 90  0  0  0  0  0  0  0  0999 V2000
    8.7072    1.3458    4.1706 C   0  0  0  0  0  0  0  0  0  0  0  0
    7.8148    2.0603    3.2666 N   0  0  0  0  0  0  0  0  0  0  0  0
    6.9153    1.3708    2.3906 C   0  0  0  0  0  0  0  0  0  0  0  0
    6.8966    0.1096    2.3734 O   0  0  0  0  0  0  0  0  0  0  0  0
    6.0721    2.1220    1.5058 N   0  0  0  0  0  0  0  0  0  0  0  0
    4.9953    1.5497    0.7493 C   0  0  0  0  0  0  0  0  0  0  0  0
    4.7094    2.0700   -0.4044 N   0  0  0  0  0  0  0  0  0  0  0  0
    4.2201    0.4625    1.2981 N   0  0  0  0  0  0  0  0  0  0  0  0
    3.0898   -0.1818    0.6279 C   0  0  0  0  0  0  0  0  0  0  0  0
    1.8334    0.6877    0.7558 C   0  0  0  0  0  0  0  0  0  0  0  0
    0.5252   -0.0522    0.4192 C   0  0  0  0  0  0  0  0  0  0  0  0
    0.2954   -0.4192   -1.0728 C   0  0  2  0  0  0  0  0  0  0  0  0
    1.1460   -1.5520   -1.4677 N   0  0  0  0  0  0  0  0  0  0  0  0
    1.0155   -2.8663   -0.9082 C   0  0  0  0  0  0  0  0  0  0  0  0
    2.0528   -3.4610   -0.5073 O   0  0  0  0  0  0  0  0  0  0  0  0
   -0.3240   -3.5613   -0.8208 C   0  0  1  0  0  0  0  0  0  0  0  0
   -0.1928   -5.0185   -1.2828 C   0  0  0  0  0  0  0  0  0  0  0  0
   -0.8309   -3.5154    0.5558 N   0  0  0  0  0  0  0  0  0  0  0  0
   -2.2244   -3.5902    0.9095 C   0  0  0  0  0  0  0  0  0  0  0  0
   -2.5347   -3.5973    2.1308 O   0  0  0  0  0  0  0  0  0  0  0  0
   -3.3059   -3.6148   -0.1507 C   0  0  0  0  0  0  0  0  0  0  0  0
   -4.7619   -3.7339    0.3609 C   0  0  2  0  0  0  0  0  0  0  0  0
   -5.1356   -2.6178    1.2460 N   0  0  0  0  0  0  0  0  0  0  0  0
   -5.7100   -1.3806    0.7840 C   0  0  0  0  0  0  0  0  0  0  0  0
   -6.4115   -0.6990    1.5786 O   0  0  0  0  0  0  0  0  0  0  0  0
   -5.4251   -0.8204   -0.5890 C   0  0  0  0  0  0  0  0  0  0  0  0
   -4.4396    0.3832   -0.5809 C   0  0  2  0  0  0  0  0  0  0  0  0
   -3.7054    0.4598   -1.8526 N   0  0  0  0  0  0  0  0  0  0  0  0
   -3.0421    1.6594   -2.2636 C   0  0  0  0  0  0  0  0  0  0  0  0
   -3.5744    2.3757   -3.1539 O   0  0  0  0  0  0  0  0  0  0  0  0
   -1.6801    2.0154   -1.7115 C   0  0  2  0  0  0  0  0  0  0  0  0
   -1.5342    3.5359   -1.4949 C   0  0  0  0  0  0  0  0  0  0  0  0
   -0.2844    3.8640   -0.7173 C   0  0  0  0  0  0  0  0  0  0  0  0
    0.8955    4.2335   -1.3848 C   0  0  0  0  0  0  0  0  0  0  0  0
    2.0588    4.5092   -0.6593 C   0  0  0  0  0  0  0  0  0  0  0  0
    2.0536    4.4172    0.7352 C   0  0  0  0  0  0  0  0  0  0  0  0
    0.8859    4.0436    1.4064 C   0  0  0  0  0  0  0  0  0  0  0  0
   -0.2780    3.7617    0.6842 C   0  0  0  0  0  0  0  0  0  0  0  0
   -0.6026    1.4903   -2.5753 N   0  0  0  0  0  0  0  0  0  0  0  0
   -0.5077    1.8789   -3.9885 C   0  0  0  0  0  0  0  0  0  0  0  0
    0.5051    0.7542   -2.0142 C   0  0  0  0  0  0  0  0  0  0  0  0
    1.6793    1.0653   -2.3552 O   0  0  0  0  0  0  0  0  0  0  0  0
   -3.4727    0.3530    0.5737 C   0  0  0  0  0  0  0  0  0  0  0  0
   -3.4502    1.4052    1.4838 O   0  0  0  0  0  0  0  0  0  0  0  0
   -2.6746   -0.6093    0.7130 O   0  0  0  0  0  0  0  0  0  0  0  0
   -5.0025   -5.0722    1.0157 C   0  0  0  0  0  0  0  0  0  0  0  0
   -5.3694   -6.1596    0.2285 O   0  0  0  0  0  0  0  0  0  0  0  0
   -4.8342   -5.2310    2.2550 O   0  0  0  0  0  0  0  0  0  0  0  0
    9.3947    0.6979    3.5870 H   0  0  0  0  0  0  0  0  0  0  0  0
    8.1131    0.7219    4.8712 H   0  0  0  0  0  0  0  0  0  0  0  0
    9.3092    2.0710    4.7578 H   0  0  0  0  0  0  0  0  0  0  0  0
    7.8295    3.1050    3.2648 H   0  0  0  0  0  0  0  0  0  0  0  0
    6.3138    3.1241    1.3340 H   0  0  0  0  0  0  0  0  0  0  0  0
    3.9406    1.7358   -1.0221 H   0  0  0  0  0  0  0  0  0  0  0  0
    4.4167    0.1547    2.2762 H   0  0  0  0  0  0  0  0  0  0  0  0
    2.9039   -1.1639    1.1148 H   0  0  0  0  0  0  0  0  0  0  0  0
    3.3434   -0.3790   -0.4321 H   0  0  0  0  0  0  0  0  0  0  0  0
    1.9287    1.6004    0.1385 H   0  0  0  0  0  0  0  0  0  0  0  0
    1.7573    1.0283    1.8121 H   0  0  0  0  0  0  0  0  0  0  0  0
   -0.3041    0.5965    0.7626 H   0  0  0  0  0  0  0  0  0  0  0  0
    0.4541   -0.9686    1.0428 H   0  0  0  0  0  0  0  0  0  0  0  0
   -0.7631   -0.7358   -1.1814 H   0  0  0  0  0  0  0  0  0  0  0  0
    2.0068   -1.3757   -2.0331 H   0  0  0  0  0  0  0  0  0  0  0  0
   -1.0262   -3.0447   -1.5071 H   0  0  0  0  0  0  0  0  0  0  0  0
   -1.1780   -5.5246   -1.2837 H   0  0  0  0  0  0  0  0  0  0  0  0
    0.2146   -5.0564   -2.3159 H   0  0  0  0  0  0  0  0  0  0  0  0
    0.4833   -5.5845   -0.6065 H   0  0  0  0  0  0  0  0  0  0  0  0
   -0.1376   -3.5267    1.3389 H   0  0  0  0  0  0  0  0  0  0  0  0
   -3.1196   -4.4659   -0.8355 H   0  0  0  0  0  0  0  0  0  0  0  0
   -3.2045   -2.6971   -0.7599 H   0  0  0  0  0  0  0  0  0  0  0  0
   -5.4329   -3.7167   -0.5254 H   0  0  0  0  0  0  0  0  0  0  0  0
   -5.1222   -2.7648    2.2807 H   0  0  0  0  0  0  0  0  0  0  0  0
   -6.3872   -0.4837   -1.0328 H   0  0  0  0  0  0  0  0  0  0  0  0
   -5.0647   -1.6162   -1.2638 H   0  0  0  0  0  0  0  0  0  0  0  0
   -5.0517    1.3070   -0.4757 H   0  0  0  0  0  0  0  0  0  0  0  0
   -3.9255   -0.2217   -2.6136 H   0  0  0  0  0  0  0  0  0  0  0  0
   -1.6081    1.5539   -0.7162 H   0  0  0  0  0  0  0  0  0  0  0  0
   -2.4154    3.9119   -0.9290 H   0  0  0  0  0  0  0  0  0  0  0  0
   -1.5306    4.0717   -2.4687 H   0  0  0  0  0  0  0  0  0  0  0  0
    0.9157    4.3050   -2.4647 H   0  0  0  0  0  0  0  0  0  0  0  0
    2.9659    4.7897   -1.1786 H   0  0  0  0  0  0  0  0  0  0  0  0
    2.9565    4.6252    1.2945 H   0  0  0  0  0  0  0  0  0  0  0  0
    0.8855    3.9620    2.4855 H   0  0  0  0  0  0  0  0  0  0  0  0
   -1.1724    3.4606    1.2153 H   0  0  0  0  0  0  0  0  0  0  0  0
    0.4292    2.4470   -4.1678 H   0  0  0  0  0  0  0  0  0  0  0  0
   -1.3537    2.5224   -4.2997 H   0  0  0  0  0  0  0  0  0  0  0  0
   -0.5083    0.9684   -4.6236 H   0  0  0  0  0  0  0  0  0  0  0  0
   -2.7959    1.4082    2.2572 H   0  0  0  0  0  0  0  0  0  0  0  0
   -5.5192   -7.0728    0.6407 H   0  0  0  0  0  0  0  0  0  0  0  0
  1  2  1  0
  2  3  1  0
  3  4  2  0
  3  5  1  0
  5  6  1  0
  6  7  2  3
  6  8  1  0
  8  9  1  0
  9 10  1  0
 10 11  1  0
 11 12  1  0
 12 13  1  0
 13 14  1  0
 14 15  2  0
 14 16  1  0
 16 17  1  0
 16 18  1  0
 18 19  1  0
 19 20  2  0
 19 21  1  0
 21 22  1  0
 22 23  1  0
 23 24  1  0
 24 25  2  0
 24 26  1  0
 26 27  1  0
 27 28  1  0
 28 29  1  0
 29 30  2  0
 29 31  1  0
 31 32  1  0
 32 33  1  0
 33 34  2  0
 34 35  1  0
 35 36  2  0
 36 37  1  0
 37 38  2  0
 31 39  1  0
 39 40  1  0
 39 41  1  0
 41 42  2  0
 27 43  1  0
 43 44  1  0
 43 45  2  0
 22 46  1  0
 46 47  1  0
 46 48  2  0
 41 12  1  0
 38 33  1  0
  1 49  1  0
  1 50  1  0
  1 51  1  0
  2 52  1  0
  5 53  1  0
  7 54  1  0
  8 55  1  0
  9 56  1  0
  9 57  1  0
 10 58  1  0
 10 59  1  0
 11 60  1  0
 11 61  1  0
 12 62  1  1
 13 63  1  0
 16 64  1  6
 17 65  1  0
 17 66  1  0
 17 67  1  0
 18 68  1  0
 21 69  1  0
 21 70  1  0
 22 71  1  6
 23 72  1  0
 26 73  1  0
 26 74  1  0
 27 75  1  1
 28 76  1  0
 31 77  1  1
 32 78  1  0
 32 79  1  0
 34 80  1  0
 35 81  1  0
 36 82  1  0
 37 83  1  0
 38 84  1  0
 40 85  1  0
 40 86  1  0
 40 87  1  0
 44 88  1  0
 47 89  1  0
M  END
$$$$
