
     RDKit          3D

 25 25  0  0  0  0  0  0  0  0999 V2000
   -3.5517    0.5824   -1.0681 C   0  0  0  0  0  0  0  0  0  0  0  0
   -2.1900    0.3581   -0.4785 C   0  0  0  0  0  0  0  0  0  0  0  0
   -1.3124    1.4353   -0.3056 C   0  0  0  0  0  0  0  0  0  0  0  0
   -0.0489    1.2444    0.2781 C   0  0  0  0  0  0  0  0  0  0  0  0
    0.8632    2.3932    0.4675 C   0  0  0  0  0  0  0  0  0  0  0  0
    0.5478    3.5468    0.0711 O   0  0  0  0  0  0  0  0  0  0  0  0
    0.3348   -0.0486    0.6922 C   0  0  0  0  0  0  0  0  0  0  0  0
    1.6008   -0.2553    1.2444 O   0  0  0  0  0  0  0  0  0  0  0  0
    2.9390   -0.6832    0.2539 P   0  0  0  0  0  5  0  0  0  0  0  0
    4.3188   -0.8268    1.2216 O   0  0  0  0  0  0  0  0  0  0  0  0
    3.1968    0.5146   -0.9140 O   0  0  0  0  0  0  0  0  0  0  0  0
    2.6673   -2.0043   -0.4301 O   0  0  0  0  0  0  0  0  0  0  0  0
   -0.5628   -1.1294    0.5622 C   0  0  0  0  0  0  0  0  0  0  0  0
   -0.1940   -2.4741    1.0555 C   0  0  0  0  0  0  0  0  0  0  0  0
   -0.9672   -3.4572    0.9044 O   0  0  0  0  0  0  0  0  0  0  0  0
   -1.8209   -0.9142   -0.0250 C   0  0  0  0  0  0  0  0  0  0  0  0
   -3.9062   -0.3291   -1.5950 H   0  0  0  0  0  0  0  0  0  0  0  0
   -4.2677    0.8342   -0.2582 H   0  0  0  0  0  0  0  0  0  0  0  0
   -3.5287    1.4148   -1.8034 H   0  0  0  0  0  0  0  0  0  0  0  0
   -1.6199    2.4241   -0.6250 H   0  0  0  0  0  0  0  0  0  0  0  0
    1.8200    2.2586    0.9542 H   0  0  0  0  0  0  0  0  0  0  0  0
    5.0577   -0.9972    0.5844 H   0  0  0  0  0  0  0  0  0  0  0  0
    2.3951    0.4810   -1.4945 H   0  0  0  0  0  0  0  0  0  0  0  0
    0.7497   -2.6329    1.5598 H   0  0  0  0  0  0  0  0  0  0  0  0
   -2.5206   -1.7353   -0.1273 H   0  0  0  0  0  0  0  0  0  0  0  0
  1  2  1  0
  2  3  2  0
  3  4  1  0
  4  5  1  0
  5  6  2  0
  4  7  2  0
  7  8  1  0
  8  9  1  0
  9 10  1  0
  9 11  1  0
  9 12  2  0
  7 13  1  0
 13 14  1  0
 14 15  2  0
 13 16  2  0
 16  2  1  0
  1 17  1  0
  1 18  1  0
  1 19  1  0
  3 20  1  0
  5 21  1  0
 10 22  1  0
 11 23  1  0
 14 24  1  0
 16 25  1  0
M  END
$$$$
