
     RDKit          3D

 45 47  0  0  0  0  0  0  0  0999 V2000
    0.0231    0.7914   -2.5274 C   0  0  0  0  0  0  0  0  0  0  0  0
   -1.1340    1.2229   -1.5958 C   0  0  0  0  0  0  0  0  0  0  0  0
   -0.5616    1.5517   -0.1902 C   0  0  0  0  0  0  0  0  0  0  0  0
   -0.1790    0.3347    0.5480 N   0  0  0  0  0  0  0  0  0  0  0  0
   -1.1240   -0.3482    1.3973 C   0  0  0  0  0  0  0  0  0  0  0  0
   -1.8019    0.3346    2.4208 C   0  0  0  0  0  0  0  0  0  0  0  0
   -2.5964   -0.3715    3.3296 C   0  0  0  0  0  0  0  0  0  0  0  0
   -2.6988   -1.7628    3.2401 C   0  0  0  0  0  0  0  0  0  0  0  0
   -2.0163   -2.4524    2.2342 C   0  0  0  0  0  0  0  0  0  0  0  0
   -1.2408   -1.7478    1.3079 C   0  0  0  0  0  0  0  0  0  0  0  0
   -0.4397   -2.6113   -0.0477 S   0  0  0  0  0  0  0  0  0  0  0  0
    1.1074   -1.7198    0.1554 C   0  0  0  0  0  0  0  0  0  0  0  0
    1.0830   -0.3232    0.3086 C   0  0  0  0  0  0  0  0  0  0  0  0
    2.2933    0.3860    0.3728 C   0  0  0  0  0  0  0  0  0  0  0  0
    3.5278   -0.2883    0.2792 C   0  0  0  0  0  0  0  0  0  0  0  0
    3.5259   -1.6902    0.1469 C   0  0  0  0  0  0  0  0  0  0  0  0
    2.3241   -2.3994    0.0910 C   0  0  0  0  0  0  0  0  0  0  0  0
    4.8184    0.4502    0.3374 C   0  0  0  0  0  0  0  0  0  0  0  0
    4.8732    1.9463    0.4231 C   0  0  0  0  0  0  0  0  0  0  0  0
    5.9061   -0.1881    0.3178 O   0  0  0  0  0  0  0  0  0  0  0  0
   -2.2246    0.2037   -1.5097 N   0  0  0  0  0  0  0  0  0  0  0  0
   -2.5835   -0.3627   -2.8259 C   0  0  0  0  0  0  0  0  0  0  0  0
   -3.4450    0.7868   -0.9155 C   0  0  0  0  0  0  0  0  0  0  0  0
   -0.2918    0.8494   -3.5905 H   0  0  0  0  0  0  0  0  0  0  0  0
    0.8964    1.4691   -2.4176 H   0  0  0  0  0  0  0  0  0  0  0  0
    0.3465   -0.2466   -2.3075 H   0  0  0  0  0  0  0  0  0  0  0  0
   -1.5384    2.1711   -2.0198 H   0  0  0  0  0  0  0  0  0  0  0  0
   -1.2999    2.1418    0.3876 H   0  0  0  0  0  0  0  0  0  0  0  0
    0.3078    2.2338   -0.2895 H   0  0  0  0  0  0  0  0  0  0  0  0
   -1.6885    1.4036    2.5409 H   0  0  0  0  0  0  0  0  0  0  0  0
   -3.1163    0.1582    4.1173 H   0  0  0  0  0  0  0  0  0  0  0  0
   -3.3071   -2.3068    3.9511 H   0  0  0  0  0  0  0  0  0  0  0  0
   -2.1083   -3.5286    2.1627 H   0  0  0  0  0  0  0  0  0  0  0  0
    2.2679    1.4531    0.5386 H   0  0  0  0  0  0  0  0  0  0  0  0
    4.4554   -2.2416    0.0795 H   0  0  0  0  0  0  0  0  0  0  0  0
    2.3410   -3.4750   -0.0304 H   0  0  0  0  0  0  0  0  0  0  0  0
    4.3262    2.3943   -0.4329 H   0  0  0  0  0  0  0  0  0  0  0  0
    5.9256    2.3004    0.3895 H   0  0  0  0  0  0  0  0  0  0  0  0
    4.4185    2.2854    1.3773 H   0  0  0  0  0  0  0  0  0  0  0  0
   -2.7877    0.4415   -3.5673 H   0  0  0  0  0  0  0  0  0  0  0  0
   -3.4811   -1.0144   -2.7475 H   0  0  0  0  0  0  0  0  0  0  0  0
   -1.7720   -1.0219   -3.1976 H   0  0  0  0  0  0  0  0  0  0  0  0
   -3.2621    1.1420    0.1159 H   0  0  0  0  0  0  0  0  0  0  0  0
   -4.2408    0.0155   -0.8294 H   0  0  0  0  0  0  0  0  0  0  0  0
   -3.8279    1.6330   -1.5285 H   0  0  0  0  0  0  0  0  0  0  0  0
  1  2  1  0
  2  3  1  0
  3  4  1  0
  4  5  1  0
  5  6  2  0
  6  7  1  0
  7  8  2  0
  8  9  1  0
  9 10  2  0
 10 11  1  0
 11 12  1  0
 12 13  2  0
 13 14  1  0
 14 15  2  0
 15 16  1  0
 16 17  2  0
 15 18  1  0
 18 19  1  0
 18 20  2  0
  2 21  1  0
 21 22  1  0
 21 23  1  0
 13  4  1  0
 10  5  1  0
 17 12  1  0
  1 24  1  0
  1 25  1  0
  1 26  1  0
  2 27  1  0
  3 28  1  0
  3 29  1  0
  6 30  1  0
  7 31  1  0
  8 32  1  0
  9 33  1  0
 14 34  1  0
 16 35  1  0
 17 36  1  0
 19 37  1  0
 19 38  1  0
 19 39  1  0
 22 40  1  0
 22 41  1  0
 22 42  1  0
 23 43  1  0
 23 44  1  0
 23 45  1  0
M  END
$$$$
