
     RDKit          3D

 49 50  0  0  0  0  0  0  0  0999 V2000
   -2.8673   -1.4976   -2.2593 C   0  0  0  0  0  0  0  0  0  0  0  0
   -3.5113   -1.1621   -0.9174 C   0  0  0  0  0  0  0  0  0  0  0  0
   -2.7872   -0.0461   -0.2695 N   0  0  0  0  0  0  0  0  0  0  0  0
   -3.7010    0.8927    0.4279 C   0  0  0  0  0  0  0  0  0  0  0  0
   -4.4095    0.2908    1.6564 C   0  0  0  0  0  0  0  0  0  0  0  0
   -5.4447    1.1375    2.0762 O   0  0  0  0  0  0  0  0  0  0  0  0
   -1.6612   -0.5314    0.5645 C   0  0  0  0  0  0  0  0  0  0  0  0
   -0.6469    0.5775    0.8832 C   0  0  0  0  0  0  0  0  0  0  0  0
   -0.1299    1.2662   -0.3940 C   0  0  0  0  0  0  0  0  0  0  0  0
    1.0482    2.2351   -0.1442 C   0  0  0  0  0  0  0  0  0  0  0  0
    0.6235    3.4392    0.7082 C   0  0  0  0  0  0  0  0  0  0  0  0
    2.1878    1.5405    0.4738 N   0  0  0  0  0  0  0  0  0  0  0  0
    2.8361    0.4011   -0.1259 C   0  0  0  0  0  0  0  0  0  0  0  0
    3.2667   -0.6953    0.6610 C   0  0  0  0  0  0  0  0  0  0  0  0
    3.0333   -0.7702    2.0498 C   0  0  0  0  0  0  0  0  0  0  0  0
    3.4718   -1.8771    2.7822 C   0  0  0  0  0  0  0  0  0  0  0  0
    4.1405   -2.9252    2.1451 C   0  0  0  0  0  0  0  0  0  0  0  0
    4.6854   -4.3104    3.0733 Cl  0  0  0  0  0  0  0  0  0  0  0  0
    4.3670   -2.8746    0.7676 C   0  0  0  0  0  0  0  0  0  0  0  0
    3.9308   -1.7732    0.0225 C   0  0  0  0  0  0  0  0  0  0  0  0
    4.1402   -1.7482   -1.3196 N   0  0  0  0  0  0  0  0  0  0  0  0
    3.7284   -0.7099   -2.0888 C   0  0  0  0  0  0  0  0  0  0  0  0
    3.0740    0.3767   -1.5107 C   0  0  0  0  0  0  0  0  0  0  0  0
   -3.4521   -2.2950   -2.7645 H   0  0  0  0  0  0  0  0  0  0  0  0
   -2.8546   -0.5971   -2.9094 H   0  0  0  0  0  0  0  0  0  0  0  0
   -1.8276   -1.8589   -2.1203 H   0  0  0  0  0  0  0  0  0  0  0  0
   -3.5239   -2.0679   -0.2699 H   0  0  0  0  0  0  0  0  0  0  0  0
   -4.5715   -0.8928   -1.1240 H   0  0  0  0  0  0  0  0  0  0  0  0
   -4.4700    1.2516   -0.2915 H   0  0  0  0  0  0  0  0  0  0  0  0
   -3.1483    1.8046    0.7343 H   0  0  0  0  0  0  0  0  0  0  0  0
   -4.8515   -0.6944    1.4026 H   0  0  0  0  0  0  0  0  0  0  0  0
   -3.6904    0.1425    2.4920 H   0  0  0  0  0  0  0  0  0  0  0  0
   -5.0144    1.9147    2.5200 H   0  0  0  0  0  0  0  0  0  0  0  0
   -1.1069   -1.3321    0.0275 H   0  0  0  0  0  0  0  0  0  0  0  0
   -2.0234   -0.9933    1.5063 H   0  0  0  0  0  0  0  0  0  0  0  0
    0.2012    0.1119    1.4275 H   0  0  0  0  0  0  0  0  0  0  0  0
   -1.1040    1.3200    1.5682 H   0  0  0  0  0  0  0  0  0  0  0  0
    0.1951    0.4900   -1.1205 H   0  0  0  0  0  0  0  0  0  0  0  0
   -0.9614    1.8272   -0.8735 H   0  0  0  0  0  0  0  0  0  0  0  0
    1.3648    2.6449   -1.1267 H   0  0  0  0  0  0  0  0  0  0  0  0
    1.4524    4.1775    0.7505 H   0  0  0  0  0  0  0  0  0  0  0  0
    0.3820    3.1287    1.7463 H   0  0  0  0  0  0  0  0  0  0  0  0
   -0.2632    3.9371    0.2611 H   0  0  0  0  0  0  0  0  0  0  0  0
    2.5344    1.8759    1.4007 H   0  0  0  0  0  0  0  0  0  0  0  0
    2.5022    0.0071    2.5803 H   0  0  0  0  0  0  0  0  0  0  0  0
    3.2862   -1.9209    3.8480 H   0  0  0  0  0  0  0  0  0  0  0  0
    4.8774   -3.6938    0.2755 H   0  0  0  0  0  0  0  0  0  0  0  0
    3.9158   -0.7245   -3.1542 H   0  0  0  0  0  0  0  0  0  0  0  0
    2.7769    1.2006   -2.1439 H   0  0  0  0  0  0  0  0  0  0  0  0
  1  2  1  0
  2  3  1  0
  3  4  1  0
  4  5  1  0
  5  6  1  0
  3  7  1  0
  7  8  1  0
  8  9  1  0
  9 10  1  0
 10 11  1  0
 10 12  1  0
 12 13  1  0
 13 14  2  0
 14 15  1  0
 15 16  2  0
 16 17  1  0
 17 18  1  0
 17 19  2  0
 19 20  1  0
 20 21  2  0
 21 22  1  0
 22 23  2  0
 23 13  1  0
 20 14  1  0
  1 24  1  0
  1 25  1  0
  1 26  1  0
  2 27  1  0
  2 28  1  0
  4 29  1  0
  4 30  1  0
  5 31  1  0
  5 32  1  0
  6 33  1  0
  7 34  1  0
  7 35  1  0
  8 36  1  0
  8 37  1  0
  9 38  1  0
  9 39  1  0
 10 40  1  0
 11 41  1  0
 11 42  1  0
 11 43  1  0
 12 44  1  0
 15 45  1  0
 16 46  1  0
 19 47  1  0
 22 48  1  0
 23 49  1  0
M  END
$$$$
