
     RDKit          3D

 32 33  0  0  0  0  0  0  0  0999 V2000
    3.6313   -1.5545   -0.8042 C   0  0  0  0  0  0  0  0  0  0  0  0
    2.6242   -0.6708   -0.2019 N   0  0  0  0  0  0  0  0  0  0  0  0
    1.3320   -1.0762   -0.0710 C   0  0  0  0  0  0  0  0  0  0  0  0
    0.3878   -0.3083    0.5212 C   0  0  0  0  0  0  0  0  0  0  0  0
   -0.7811   -0.9759    0.5139 N   0  0  0  0  0  0  0  0  0  0  0  0
   -2.0966   -0.5528    0.9997 C   0  0  0  0  0  0  0  0  0  0  0  0
   -2.7757    0.4140    0.0095 C   0  0  0  0  0  0  0  0  0  0  0  0
   -3.9246    0.9737    0.5952 O   0  0  0  0  0  0  0  0  0  0  0  0
   -3.1283   -0.2758   -1.3211 C   0  0  0  0  0  0  0  0  0  0  0  0
   -3.7331    0.6355   -2.1987 O   0  0  0  0  0  0  0  0  0  0  0  0
   -0.4906   -2.1494   -0.1012 C   0  0  0  0  0  0  0  0  0  0  0  0
    0.8104   -2.2513   -0.4758 N   0  0  0  0  0  0  0  0  0  0  0  0
    0.7190    0.9423    1.0313 C   0  0  0  0  0  0  0  0  0  0  0  0
   -0.1498    1.6523    1.6076 O   0  0  0  0  0  0  0  0  0  0  0  0
    2.0191    1.3757    0.9011 N   0  0  0  0  0  0  0  0  0  0  0  0
    2.4156    2.6789    1.4605 C   0  0  0  0  0  0  0  0  0  0  0  0
    2.9721    0.5576    0.3168 C   0  0  0  0  0  0  0  0  0  0  0  0
    4.1765    0.9367    0.2632 O   0  0  0  0  0  0  0  0  0  0  0  0
    4.3663   -0.9663   -1.3943 H   0  0  0  0  0  0  0  0  0  0  0  0
    3.1649   -2.2827   -1.5015 H   0  0  0  0  0  0  0  0  0  0  0  0
    4.1646   -2.1099   -0.0044 H   0  0  0  0  0  0  0  0  0  0  0  0
   -2.7431   -1.4441    1.1587 H   0  0  0  0  0  0  0  0  0  0  0  0
   -1.9851   -0.0605    1.9890 H   0  0  0  0  0  0  0  0  0  0  0  0
   -2.0730    1.2456   -0.2120 H   0  0  0  0  0  0  0  0  0  0  0  0
   -4.5556    0.2306    0.7864 H   0  0  0  0  0  0  0  0  0  0  0  0
   -3.7948   -1.1517   -1.1450 H   0  0  0  0  0  0  0  0  0  0  0  0
   -2.2009   -0.6501   -1.8026 H   0  0  0  0  0  0  0  0  0  0  0  0
   -4.6930    0.6795   -1.9494 H   0  0  0  0  0  0  0  0  0  0  0  0
   -1.2208   -2.9274   -0.2837 H   0  0  0  0  0  0  0  0  0  0  0  0
    3.2331    3.1385    0.8648 H   0  0  0  0  0  0  0  0  0  0  0  0
    2.7577    2.5455    2.5083 H   0  0  0  0  0  0  0  0  0  0  0  0
    1.5717    3.4012    1.4418 H   0  0  0  0  0  0  0  0  0  0  0  0
  1  2  1  0
  2  3  1  0
  3  4  2  0
  4  5  1  0
  5  6  1  0
  6  7  1  0
  7  8  1  0
  7  9  1  0
  9 10  1  0
  5 11  1  0
 11 12  2  0
  4 13  1  0
 13 14  2  0
 13 15  1  0
 15 16  1  0
 15 17  1  0
 17 18  2  0
 17  2  1  0
 12  3  1  0
  1 19  1  0
  1 20  1  0
  1 21  1  0
  6 22  1  0
  6 23  1  0
  7 24  1  0
  8 25  1  0
  9 26  1  0
  9 27  1  0
 10 28  1  0
 11 29  1  0
 16 30  1  0
 16 31  1  0
 16 32  1  0
M  END
$$$$
