
     RDKit          3D

 32 34  0  0  0  0  0  0  0  0999 V2000
   -2.1152   -0.9137    0.4893 C   0  0  2  0  0  0  0  0  0  0  0  0
   -2.9384   -1.8537   -0.2232 C   0  0  0  0  0  0  0  0  0  0  0  0
   -3.1069   -0.8116   -1.2828 C   0  0  0  0  0  0  0  0  0  0  0  0
   -3.7302   -0.7405   -2.3736 O   0  0  0  0  0  0  0  0  0  0  0  0
   -2.1603    0.0651   -0.5564 N   0  0  0  0  0  0  0  0  0  0  0  0
   -0.9970    0.8245   -0.9849 C   0  0  1  0  0  0  0  0  0  0  0  0
   -1.2951    2.2989   -0.9873 C   0  0  0  0  0  0  0  0  0  0  0  0
   -2.2665    2.8220   -0.1380 O   0  0  0  0  0  0  0  0  0  0  0  0
   -0.6354    3.0695   -1.7347 O   0  0  0  0  0  0  0  0  0  0  0  0
    0.1818    0.3707   -0.0438 C   0  0  2  0  0  0  0  0  0  0  0  0
    0.3773    1.3458    1.1422 C   0  0  0  0  0  0  0  0  0  0  0  0
    1.4940    0.2263   -0.8605 C   0  0  0  0  0  0  0  0  0  0  0  0
    2.6419   -0.1266   -0.0240 N   0  0  0  0  0  0  0  0  0  0  0  0
    3.0928   -1.3600    0.2605 C   0  0  0  0  0  0  0  0  0  0  0  0
    4.1933   -1.1944    1.0708 C   0  0  0  0  0  0  0  0  0  0  0  0
    4.3826    0.1284    1.2512 N   0  0  0  0  0  0  0  0  0  0  0  0
    3.4293    0.7524    0.5747 N   0  0  0  0  0  0  0  0  0  0  0  0
   -0.3743   -1.2262    0.6164 S   0  0  0  0  0  6  0  0  0  0  0  0
    0.0505   -2.3765   -0.2541 O   0  0  0  0  0  0  0  0  0  0  0  0
    0.0454   -1.4583    2.0412 O   0  0  0  0  0  0  0  0  0  0  0  0
   -2.5678   -0.5203    1.4267 H   0  0  0  0  0  0  0  0  0  0  0  0
   -2.4120   -2.7522   -0.6071 H   0  0  0  0  0  0  0  0  0  0  0  0
   -3.8978   -2.0710    0.2934 H   0  0  0  0  0  0  0  0  0  0  0  0
   -0.7769    0.5239   -2.0338 H   0  0  0  0  0  0  0  0  0  0  0  0
   -2.4609    3.8159   -0.1209 H   0  0  0  0  0  0  0  0  0  0  0  0
   -0.5854    1.5164    1.6700 H   0  0  0  0  0  0  0  0  0  0  0  0
    1.0949    0.9366    1.8833 H   0  0  0  0  0  0  0  0  0  0  0  0
    0.7707    2.3229    0.7892 H   0  0  0  0  0  0  0  0  0  0  0  0
    1.7104    1.1882   -1.3750 H   0  0  0  0  0  0  0  0  0  0  0  0
    1.3681   -0.5402   -1.6562 H   0  0  0  0  0  0  0  0  0  0  0  0
    2.6727   -2.2898   -0.0972 H   0  0  0  0  0  0  0  0  0  0  0  0
    4.8144   -1.9726    1.4930 H   0  0  0  0  0  0  0  0  0  0  0  0
  1  2  1  0
  2  3  1  0
  3  4  2  0
  3  5  1  0
  5  6  1  0
  6  7  1  0
  7  8  1  0
  7  9  2  0
  6 10  1  0
 10 11  1  1
 10 12  1  0
 12 13  1  0
 13 14  1  0
 14 15  2  0
 15 16  1  0
 16 17  2  0
 10 18  1  0
 18 19  2  0
 18 20  2  0
  5  1  1  0
 17 13  1  0
 18  1  1  0
  1 21  1  1
  2 22  1  0
  2 23  1  0
  6 24  1  6
  8 25  1  0
 11 26  1  0
 11 27  1  0
 11 28  1  0
 12 29  1  0
 12 30  1  0
 14 31  1  0
 15 32  1  0
M  END
$$$$
