
     RDKit          3D

 16 16  0  0  0  0  0  0  0  0999 V2000
   -2.7185   -0.2772    0.5639 O   0  0  0  0  0  0  0  0  0  0  0  0
   -1.9839    0.2866   -0.4875 C   0  0  0  0  0  0  0  0  0  0  0  0
   -0.5115    0.0944   -0.2497 C   0  0  0  0  0  0  0  0  0  0  0  0
    0.1146   -1.1060   -0.6239 C   0  0  0  0  0  0  0  0  0  0  0  0
    1.4769   -1.2975   -0.3720 C   0  0  0  0  0  0  0  0  0  0  0  0
    2.2191   -0.2983    0.2639 C   0  0  0  0  0  0  0  0  0  0  0  0
    1.5990    0.8924    0.6530 C   0  0  0  0  0  0  0  0  0  0  0  0
    0.2370    1.0879    0.4029 C   0  0  0  0  0  0  0  0  0  0  0  0
   -2.6414    0.3484    1.3312 H   0  0  0  0  0  0  0  0  0  0  0  0
   -2.2795   -0.2101   -1.4362 H   0  0  0  0  0  0  0  0  0  0  0  0
   -2.2296    1.3676   -0.5979 H   0  0  0  0  0  0  0  0  0  0  0  0
   -0.4514   -1.8915   -1.1094 H   0  0  0  0  0  0  0  0  0  0  0  0
    1.9565   -2.2220   -0.6667 H   0  0  0  0  0  0  0  0  0  0  0  0
    3.2730   -0.4485    0.4592 H   0  0  0  0  0  0  0  0  0  0  0  0
    2.1731    1.6627    1.1516 H   0  0  0  0  0  0  0  0  0  0  0  0
   -0.2333    2.0113    0.7176 H   0  0  0  0  0  0  0  0  0  0  0  0
  1  2  1  0
  2  3  1  0
  3  4  2  0
  4  5  1  0
  5  6  2  0
  6  7  1  0
  7  8  2  0
  8  3  1  0
  1  9  1  0
  2 10  1  0
  2 11  1  0
  4 12  1  0
  5 13  1  0
  6 14  1  0
  7 15  1  0
  8 16  1  0
M  END
$$$$
