
     RDKit          3D

 64 66  0  0  0  0  0  0  0  0999 V2000
   -0.3567    0.6075   -1.0331 C   0  0  2  0  0  0  0  0  0  0  0  0
    0.0238    1.8881   -0.2551 C   0  0  0  0  0  0  0  0  0  0  0  0
   -1.1051    2.9478   -0.2282 C   0  0  0  0  0  0  0  0  0  0  0  0
   -0.5661    4.2941    0.2950 C   0  0  0  0  0  0  0  0  0  0  0  0
   -1.6238    5.4133    0.1958 C   0  0  0  0  0  0  0  0  0  0  0  0
   -3.0730    4.9002    0.2991 C   0  0  0  0  0  0  0  0  0  0  0  0
   -3.1646    3.6529    1.1812 C   0  0  0  0  0  0  0  0  0  0  0  0
   -2.3247    2.4885    0.6168 C   0  0  0  0  0  0  0  0  0  0  0  0
   -1.2729   -0.2319   -0.2560 N   0  0  0  0  0  0  0  0  0  0  0  0
   -2.2420   -1.0895   -0.8825 C   0  0  0  0  0  0  0  0  0  0  0  0
   -2.2409   -1.2155   -2.1378 O   0  0  0  0  0  0  0  0  0  0  0  0
   -3.2098   -1.8135   -0.0946 N   0  0  0  0  0  0  0  0  0  0  0  0
   -3.7196   -3.1015   -0.5824 C   0  0  0  0  0  0  0  0  0  0  0  0
   -5.1049   -3.3837    0.0056 C   0  0  0  0  0  0  0  0  0  0  0  0
   -5.0927   -3.2368    1.4115 O   0  0  0  0  0  0  0  0  0  0  0  0
   -4.8508   -1.8838    1.7418 C   0  0  0  0  0  0  0  0  0  0  0  0
   -3.4437   -1.4594    1.3109 C   0  0  0  0  0  0  0  0  0  0  0  0
    0.8766   -0.1871   -1.3716 C   0  0  0  0  0  0  0  0  0  0  0  0
    1.1908   -0.3451   -2.5824 O   0  0  0  0  0  0  0  0  0  0  0  0
    1.6826   -0.7628   -0.3258 N   0  0  0  0  0  0  0  0  0  0  0  0
    2.9413   -1.4935   -0.5581 C   0  0  0  0  0  0  0  0  0  0  0  0
    3.4778   -2.0292    0.7927 C   0  0  0  0  0  0  0  0  0  0  0  0
    4.8938   -2.6070    0.6638 C   0  0  0  0  0  0  0  0  0  0  0  0
    5.8137   -1.5864    0.1278 N   0  0  0  0  0  0  0  0  0  0  0  0
    7.1835   -2.1205    0.0832 C   0  0  0  0  0  0  0  0  0  0  0  0
    5.3906   -1.1746   -1.2240 C   0  0  0  0  0  0  0  0  0  0  0  0
    3.9920   -0.5415   -1.1799 C   0  0  0  0  0  0  0  0  0  0  0  0
    2.6767   -2.6351   -1.4618 C   0  0  0  0  0  0  0  0  0  0  0  0
    2.4699   -3.5280   -2.1684 N   0  0  0  0  0  0  0  0  0  0  0  0
   -0.8495    0.9169   -1.9825 H   0  0  0  0  0  0  0  0  0  0  0  0
    0.9083    2.3414   -0.7567 H   0  0  0  0  0  0  0  0  0  0  0  0
    0.3361    1.6361    0.7824 H   0  0  0  0  0  0  0  0  0  0  0  0
   -1.4445    3.1157   -1.2756 H   0  0  0  0  0  0  0  0  0  0  0  0
   -0.2557    4.1741    1.3570 H   0  0  0  0  0  0  0  0  0  0  0  0
    0.3325    4.6020   -0.2833 H   0  0  0  0  0  0  0  0  0  0  0  0
   -1.4359    6.1524    1.0050 H   0  0  0  0  0  0  0  0  0  0  0  0
   -1.5063    5.9476   -0.7722 H   0  0  0  0  0  0  0  0  0  0  0  0
   -3.4549    4.6536   -0.7162 H   0  0  0  0  0  0  0  0  0  0  0  0
   -3.7214    5.7006    0.7164 H   0  0  0  0  0  0  0  0  0  0  0  0
   -2.8056    3.9089    2.2026 H   0  0  0  0  0  0  0  0  0  0  0  0
   -4.2265    3.3365    1.2697 H   0  0  0  0  0  0  0  0  0  0  0  0
   -1.9889    1.8683    1.4761 H   0  0  0  0  0  0  0  0  0  0  0  0
   -2.9787    1.8545   -0.0208 H   0  0  0  0  0  0  0  0  0  0  0  0
   -1.0997   -0.3342    0.7689 H   0  0  0  0  0  0  0  0  0  0  0  0
   -3.8021   -3.1044   -1.6906 H   0  0  0  0  0  0  0  0  0  0  0  0
   -3.0170   -3.9076   -0.2795 H   0  0  0  0  0  0  0  0  0  0  0  0
   -5.3881   -4.4295   -0.2375 H   0  0  0  0  0  0  0  0  0  0  0  0
   -5.8699   -2.7231   -0.4637 H   0  0  0  0  0  0  0  0  0  0  0  0
   -5.6164   -1.2138    1.2869 H   0  0  0  0  0  0  0  0  0  0  0  0
   -4.9350   -1.7688    2.8430 H   0  0  0  0  0  0  0  0  0  0  0  0
   -2.6890   -1.9694    1.9479 H   0  0  0  0  0  0  0  0  0  0  0  0
   -3.3570   -0.3611    1.4555 H   0  0  0  0  0  0  0  0  0  0  0  0
    1.3433   -0.6473    0.6564 H   0  0  0  0  0  0  0  0  0  0  0  0
    2.7952   -2.8097    1.1966 H   0  0  0  0  0  0  0  0  0  0  0  0
    3.5099   -1.1996    1.5341 H   0  0  0  0  0  0  0  0  0  0  0  0
    4.8792   -3.5135    0.0161 H   0  0  0  0  0  0  0  0  0  0  0  0
    5.2279   -2.9198    1.6779 H   0  0  0  0  0  0  0  0  0  0  0  0
    7.2486   -3.0141   -0.5774 H   0  0  0  0  0  0  0  0  0  0  0  0
    7.8850   -1.3432   -0.2892 H   0  0  0  0  0  0  0  0  0  0  0  0
    7.5182   -2.4006    1.1052 H   0  0  0  0  0  0  0  0  0  0  0  0
    6.0967   -0.4132   -1.6233 H   0  0  0  0  0  0  0  0  0  0  0  0
    5.3930   -2.0408   -1.9249 H   0  0  0  0  0  0  0  0  0  0  0  0
    3.7020   -0.2520   -2.2125 H   0  0  0  0  0  0  0  0  0  0  0  0
    4.0443    0.3912   -0.5753 H   0  0  0  0  0  0  0  0  0  0  0  0
  1  2  1  0
  2  3  1  0
  3  4  1  0
  4  5  1  0
  5  6  1  0
  6  7  1  0
  7  8  1  0
  1  9  1  0
  9 10  1  0
 10 11  2  0
 10 12  1  0
 12 13  1  0
 13 14  1  0
 14 15  1  0
 15 16  1  0
 16 17  1  0
  1 18  1  0
 18 19  2  0
 18 20  1  0
 20 21  1  0
 21 22  1  0
 22 23  1  0
 23 24  1  0
 24 25  1  0
 24 26  1  0
 26 27  1  0
 21 28  1  0
 28 29  3  0
  8  3  1  0
 17 12  1  0
 27 21  1  0
  1 30  1  6
  2 31  1  0
  2 32  1  0
  3 33  1  0
  4 34  1  0
  4 35  1  0
  5 36  1  0
  5 37  1  0
  6 38  1  0
  6 39  1  0
  7 40  1  0
  7 41  1  0
  8 42  1  0
  8 43  1  0
  9 44  1  0
 13 45  1  0
 13 46  1  0
 14 47  1  0
 14 48  1  0
 16 49  1  0
 16 50  1  0
 17 51  1  0
 17 52  1  0
 20 53  1  0
 22 54  1  0
 22 55  1  0
 23 56  1  0
 23 57  1  0
 25 58  1  0
 25 59  1  0
 25 60  1  0
 26 61  1  0
 26 62  1  0
 27 63  1  0
 27 64  1  0
M  END
$$$$
