
     RDKit          3D

 77 81  0  0  0  0  0  0  0  0999 V2000
   -3.8725    2.5954   -2.7324 O   0  0  0  0  0  0  0  0  0  0  0  0
   -4.1828    3.9212   -2.4497 C   0  0  0  0  0  0  0  0  0  0  0  0
   -4.8085    4.6153   -3.2950 O   0  0  0  0  0  0  0  0  0  0  0  0
   -3.7414    4.5315   -1.1538 C   0  0  0  0  0  0  0  0  0  0  0  0
   -2.2441    4.9386   -1.1149 C   0  0  0  0  0  0  0  0  0  0  0  0
   -1.9703    6.2145   -1.9242 C   0  0  0  0  0  0  0  0  0  0  0  0
   -1.3707    4.8992   -2.3787 C   0  0  0  0  0  0  0  0  0  0  0  0
   -1.5351    4.9169    0.2623 C   0  0  0  0  0  0  0  0  0  0  0  0
   -0.1749    3.6881    0.3403 S   0  0  0  0  0  0  0  0  0  0  0  0
   -1.2051    2.1773    0.4596 C   0  0  2  0  0  0  0  0  0  0  0  0
   -1.5172    1.8709    1.9453 C   0  0  0  0  0  0  0  0  0  0  0  0
   -2.5936    0.7876    2.1775 C   0  0  0  0  0  0  0  0  0  0  0  0
   -2.1696   -0.5975    1.7112 C   0  0  0  0  0  0  0  0  0  0  0  0
   -1.0916   -1.1778    2.4107 C   0  0  0  0  0  0  0  0  0  0  0  0
   -0.5829   -2.4203    2.0534 C   0  0  0  0  0  0  0  0  0  0  0  0
   -1.1572   -3.1283    1.0094 C   0  0  0  0  0  0  0  0  0  0  0  0
   -2.2516   -2.6053    0.3244 C   0  0  0  0  0  0  0  0  0  0  0  0
   -2.7871   -1.3278    0.6360 C   0  0  0  0  0  0  0  0  0  0  0  0
   -4.0611   -0.8341   -0.0920 C   0  0  0  0  0  0  0  0  0  0  0  0
   -3.9232    0.5314   -0.3999 O   0  0  0  0  0  0  0  0  0  0  0  0
   -4.3246   -1.5647   -1.4317 C   0  0  0  0  0  0  0  0  0  0  0  0
   -5.2739   -1.0615    0.8368 C   0  0  0  0  0  0  0  0  0  0  0  0
   -0.4729    1.0528   -0.2482 C   0  0  0  0  0  0  0  0  0  0  0  0
   -0.9513    0.5707   -1.4778 C   0  0  0  0  0  0  0  0  0  0  0  0
   -0.3172   -0.4950   -2.1159 C   0  0  0  0  0  0  0  0  0  0  0  0
    0.8177   -1.0784   -1.5516 C   0  0  0  0  0  0  0  0  0  0  0  0
    1.3538   -0.5738   -0.3520 C   0  0  0  0  0  0  0  0  0  0  0  0
    2.5409   -1.1761    0.3016 C   0  0  0  0  0  0  0  0  0  0  0  0
    3.4665   -1.8897   -0.3573 C   0  0  0  0  0  0  0  0  0  0  0  0
    4.6526   -2.4907    0.2909 C   0  0  0  0  0  0  0  0  0  0  0  0
    5.7191   -2.8089   -0.4938 N   0  0  0  0  0  0  0  0  0  0  0  0
    6.8473   -3.3782    0.0081 C   0  0  0  0  0  0  0  0  0  0  0  0
    6.9366   -3.6668    1.3867 C   0  0  0  0  0  0  0  0  0  0  0  0
    8.1018   -4.2541    1.9012 C   0  0  0  0  0  0  0  0  0  0  0  0
    9.1698   -4.5507    1.0482 C   0  0  0  0  0  0  0  0  0  0  0  0
    9.0802   -4.2646   -0.3193 C   0  0  0  0  0  0  0  0  0  0  0  0
   10.4237   -4.6404   -1.3826 Cl  0  0  0  0  0  0  0  0  0  0  0  0
    7.9198   -3.6792   -0.8392 C   0  0  0  0  0  0  0  0  0  0  0  0
    5.8485   -3.3638    2.2121 C   0  0  0  0  0  0  0  0  0  0  0  0
    4.7020   -2.7807    1.6683 C   0  0  0  0  0  0  0  0  0  0  0  0
    0.7078    0.4994    0.2839 C   0  0  0  0  0  0  0  0  0  0  0  0
   -4.1525    2.1705   -3.6081 H   0  0  0  0  0  0  0  0  0  0  0  0
   -3.9506    3.7952   -0.3504 H   0  0  0  0  0  0  0  0  0  0  0  0
   -4.3690    5.4210   -0.9271 H   0  0  0  0  0  0  0  0  0  0  0  0
   -2.7822    6.5676   -2.5960 H   0  0  0  0  0  0  0  0  0  0  0  0
   -1.2019    6.9187   -1.5391 H   0  0  0  0  0  0  0  0  0  0  0  0
   -1.8239    4.5212   -3.3176 H   0  0  0  0  0  0  0  0  0  0  0  0
   -0.2712    4.8648   -2.2294 H   0  0  0  0  0  0  0  0  0  0  0  0
   -1.0996    5.9091    0.5034 H   0  0  0  0  0  0  0  0  0  0  0  0
   -2.2685    4.7085    1.0681 H   0  0  0  0  0  0  0  0  0  0  0  0
   -2.1652    2.3628   -0.0570 H   0  0  0  0  0  0  0  0  0  0  0  0
   -1.8974    2.8010    2.4187 H   0  0  0  0  0  0  0  0  0  0  0  0
   -0.5913    1.6177    2.5004 H   0  0  0  0  0  0  0  0  0  0  0  0
   -3.5571    1.1359    1.7736 H   0  0  0  0  0  0  0  0  0  0  0  0
   -2.7732    0.7271    3.2733 H   0  0  0  0  0  0  0  0  0  0  0  0
   -0.6273   -0.6537    3.2370 H   0  0  0  0  0  0  0  0  0  0  0  0
    0.2595   -2.8363    2.5911 H   0  0  0  0  0  0  0  0  0  0  0  0
   -0.7637   -4.0997    0.7384 H   0  0  0  0  0  0  0  0  0  0  0  0
   -2.6688   -3.2293   -0.4497 H   0  0  0  0  0  0  0  0  0  0  0  0
   -4.8023    0.8804   -0.7036 H   0  0  0  0  0  0  0  0  0  0  0  0
   -4.6347   -2.6192   -1.2710 H   0  0  0  0  0  0  0  0  0  0  0  0
   -5.1507   -1.0703   -1.9871 H   0  0  0  0  0  0  0  0  0  0  0  0
   -3.4191   -1.5324   -2.0753 H   0  0  0  0  0  0  0  0  0  0  0  0
   -6.2140   -0.7294    0.3459 H   0  0  0  0  0  0  0  0  0  0  0  0
   -5.3734   -2.1406    1.0840 H   0  0  0  0  0  0  0  0  0  0  0  0
   -5.1668   -0.5006    1.7872 H   0  0  0  0  0  0  0  0  0  0  0  0
   -1.8281    1.0054   -1.9375 H   0  0  0  0  0  0  0  0  0  0  0  0
   -0.7164   -0.8802   -3.0453 H   0  0  0  0  0  0  0  0  0  0  0  0
    1.2557   -1.9326   -2.0489 H   0  0  0  0  0  0  0  0  0  0  0  0
    2.6762   -0.9708    1.3552 H   0  0  0  0  0  0  0  0  0  0  0  0
    3.4014   -1.9906   -1.4324 H   0  0  0  0  0  0  0  0  0  0  0  0
    8.1857   -4.4829    2.9569 H   0  0  0  0  0  0  0  0  0  0  0  0
   10.0667   -5.0038    1.4509 H   0  0  0  0  0  0  0  0  0  0  0  0
    7.8533   -3.4590   -1.8978 H   0  0  0  0  0  0  0  0  0  0  0  0
    5.8808   -3.5849    3.2724 H   0  0  0  0  0  0  0  0  0  0  0  0
    3.8616   -2.5864    2.3202 H   0  0  0  0  0  0  0  0  0  0  0  0
    1.1206    0.8936    1.2035 H   0  0  0  0  0  0  0  0  0  0  0  0
  1  2  1  0
  2  3  2  0
  2  4  1  0
  4  5  1  0
  5  6  1  0
  6  7  1  0
  5  8  1  0
  8  9  1  0
  9 10  1  0
 10 11  1  0
 11 12  1  0
 12 13  1  0
 13 14  2  0
 14 15  1  0
 15 16  2  0
 16 17  1  0
 17 18  2  0
 18 19  1  0
 19 20  1  0
 19 21  1  0
 19 22  1  0
 10 23  1  0
 23 24  2  0
 24 25  1  0
 25 26  2  0
 26 27  1  0
 27 28  1  0
 28 29  2  0
 29 30  1  0
 30 31  2  0
 31 32  1  0
 32 33  2  0
 33 34  1  0
 34 35  2  0
 35 36  1  0
 36 37  1  0
 36 38  2  0
 33 39  1  0
 39 40  2  0
 27 41  2  0
  7  5  1  0
 18 13  1  0
 41 23  1  0
 40 30  1  0
 38 32  1  0
  1 42  1  0
  4 43  1  0
  4 44  1  0
  6 45  1  0
  6 46  1  0
  7 47  1  0
  7 48  1  0
  8 49  1  0
  8 50  1  0
 10 51  1  6
 11 52  1  0
 11 53  1  0
 12 54  1  0
 12 55  1  0
 14 56  1  0
 15 57  1  0
 16 58  1  0
 17 59  1  0
 20 60  1  0
 21 61  1  0
 21 62  1  0
 21 63  1  0
 22 64  1  0
 22 65  1  0
 22 66  1  0
 24 67  1  0
 25 68  1  0
 26 69  1  0
 28 70  1  0
 29 71  1  0
 34 72  1  0
 35 73  1  0
 38 74  1  0
 39 75  1  0
 40 76  1  0
 41 77  1  0
M  END
$$$$
