
     RDKit          3D

 39 41  0  0  0  0  0  0  0  0999 V2000
   -2.4903   -1.2712    1.1782 C   0  0  0  0  0  0  0  0  0  0  0  0
   -1.8554   -1.0315   -0.1269 N   0  0  0  0  0  0  0  0  0  0  0  0
   -1.4479   -2.3163   -0.7211 C   0  0  0  0  0  0  0  0  0  0  0  0
   -2.7721   -0.2966   -1.0278 C   0  0  0  0  0  0  0  0  0  0  0  0
   -1.9856    0.5996   -1.9921 C   0  0  0  0  0  0  0  0  0  0  0  0
   -1.2420    1.6713   -1.2486 C   0  0  0  0  0  0  0  0  0  0  0  0
   -1.7597    2.8921   -0.8263 C   0  0  0  0  0  0  0  0  0  0  0  0
   -0.8480    3.5599   -0.0834 N   0  0  0  0  0  0  0  0  0  0  0  0
    0.2347    2.7655   -0.0216 C   0  0  0  0  0  0  0  0  0  0  0  0
    0.0321    1.6030   -0.7186 C   0  0  0  0  0  0  0  0  0  0  0  0
    0.9999    0.6008   -0.7729 C   0  0  0  0  0  0  0  0  0  0  0  0
    2.2150    0.8126   -0.0865 C   0  0  0  0  0  0  0  0  0  0  0  0
    3.2606   -0.2662   -0.0726 C   0  0  0  0  0  0  0  0  0  0  0  0
    2.8816   -1.3086    0.8744 N   0  0  0  0  0  0  0  0  0  0  0  0
    2.2118   -2.4399    0.6018 C   0  0  0  0  0  0  0  0  0  0  0  0
    1.9565   -3.1355    1.7263 N   0  0  0  0  0  0  0  0  0  0  0  0
    2.5040   -2.3533    2.6833 C   0  0  0  0  0  0  0  0  0  0  0  0
    3.0622   -1.2351    2.1797 N   0  0  0  0  0  0  0  0  0  0  0  0
    2.4137    2.0130    0.6422 C   0  0  0  0  0  0  0  0  0  0  0  0
    1.4178    3.0055    0.6735 C   0  0  0  0  0  0  0  0  0  0  0  0
   -3.4366   -1.8462    1.0650 H   0  0  0  0  0  0  0  0  0  0  0  0
   -2.7090   -0.3027    1.6772 H   0  0  0  0  0  0  0  0  0  0  0  0
   -1.8003   -1.8310    1.8463 H   0  0  0  0  0  0  0  0  0  0  0  0
   -0.7098   -2.8229   -0.0636 H   0  0  0  0  0  0  0  0  0  0  0  0
   -0.9536   -2.1529   -1.7013 H   0  0  0  0  0  0  0  0  0  0  0  0
   -2.3215   -2.9907   -0.8655 H   0  0  0  0  0  0  0  0  0  0  0  0
   -3.4142   -0.9943   -1.6123 H   0  0  0  0  0  0  0  0  0  0  0  0
   -3.4659    0.3592   -0.4525 H   0  0  0  0  0  0  0  0  0  0  0  0
   -2.6973    1.0800   -2.6977 H   0  0  0  0  0  0  0  0  0  0  0  0
   -1.2792   -0.0032   -2.5996 H   0  0  0  0  0  0  0  0  0  0  0  0
   -2.7568    3.2592   -1.0316 H   0  0  0  0  0  0  0  0  0  0  0  0
   -0.9740    4.4915    0.3713 H   0  0  0  0  0  0  0  0  0  0  0  0
    0.8203   -0.3165   -1.3181 H   0  0  0  0  0  0  0  0  0  0  0  0
    4.2515    0.1496    0.2124 H   0  0  0  0  0  0  0  0  0  0  0  0
    3.3688   -0.6992   -1.0913 H   0  0  0  0  0  0  0  0  0  0  0  0
    1.9045   -2.7497   -0.3888 H   0  0  0  0  0  0  0  0  0  0  0  0
    2.4882   -2.5941    3.7375 H   0  0  0  0  0  0  0  0  0  0  0  0
    3.3342    2.1739    1.1892 H   0  0  0  0  0  0  0  0  0  0  0  0
    1.5619    3.9210    1.2326 H   0  0  0  0  0  0  0  0  0  0  0  0
  1  2  1  0
  2  3  1  0
  2  4  1  0
  4  5  1  0
  5  6  1  0
  6  7  2  0
  7  8  1  0
  8  9  1  0
  9 10  2  0
 10 11  1  0
 11 12  2  0
 12 13  1  0
 13 14  1  0
 14 15  1  0
 15 16  2  0
 16 17  1  0
 17 18  2  0
 12 19  1  0
 19 20  2  0
 10  6  1  0
 18 14  1  0
 20  9  1  0
  1 21  1  0
  1 22  1  0
  1 23  1  0
  3 24  1  0
  3 25  1  0
  3 26  1  0
  4 27  1  0
  4 28  1  0
  5 29  1  0
  5 30  1  0
  7 31  1  0
  8 32  1  0
 11 33  1  0
 13 34  1  0
 13 35  1  0
 15 36  1  0
 17 37  1  0
 19 38  1  0
 20 39  1  0
M  END
$$$$
