
     RDKit          3D

 52 55  0  0  0  0  0  0  0  0999 V2000
    4.2113   -1.4067   -2.0399 C   0  0  2  0  0  0  0  0  0  0  0  0
    3.5082   -0.4209   -2.9623 C   0  0  0  0  0  0  0  0  0  0  0  0
    2.0207   -0.5505   -2.6408 C   0  0  0  0  0  0  0  0  0  0  0  0
    1.8701   -1.5988   -1.6175 N   0  0  0  0  0  0  0  0  0  0  0  0
    0.6865   -2.4500   -1.8369 C   0  0  0  0  0  0  0  0  0  0  0  0
   -0.5667   -1.6806   -1.5450 C   0  0  0  0  0  0  0  0  0  0  0  0
   -1.3038   -1.3128   -2.4994 O   0  0  0  0  0  0  0  0  0  0  0  0
   -0.8755   -1.3058   -0.1935 N   0  0  0  0  0  0  0  0  0  0  0  0
   -2.1122   -0.6909    0.2073 C   0  0  0  0  0  0  0  0  0  0  0  0
   -2.1122    0.2616    1.2396 C   0  0  0  0  0  0  0  0  0  0  0  0
   -0.9488    0.6281    1.8343 F   0  0  0  0  0  0  0  0  0  0  0  0
   -3.3089    0.8531    1.6557 C   0  0  0  0  0  0  0  0  0  0  0  0
   -4.5262    0.4947    1.0554 C   0  0  0  0  0  0  0  0  0  0  0  0
   -4.5303   -0.4775    0.0431 C   0  0  0  0  0  0  0  0  0  0  0  0
   -3.3350   -1.0685   -0.3751 C   0  0  0  0  0  0  0  0  0  0  0  0
   -5.7616    1.0974    1.4914 N   0  0  0  0  0  0  0  0  0  0  0  0
   -6.7737    0.2864    1.9300 C   0  0  0  0  0  0  0  0  0  0  0  0
   -7.9824    0.8295    2.3697 C   0  0  0  0  0  0  0  0  0  0  0  0
   -8.1565    2.2110    2.3584 C   0  0  0  0  0  0  0  0  0  0  0  0
   -7.1269    3.0333    1.9059 C   0  0  0  0  0  0  0  0  0  0  0  0
   -5.9273    2.4613    1.4681 C   0  0  0  0  0  0  0  0  0  0  0  0
   -5.0108    3.2152    1.0397 O   0  0  0  0  0  0  0  0  0  0  0  0
    3.1074   -2.3808   -1.6577 C   0  0  0  0  0  0  0  0  0  0  0  0
    4.7404   -0.7159   -0.8565 N   0  0  0  0  0  0  0  0  0  0  0  0
    5.9357    0.0794   -0.9193 C   0  0  0  0  0  0  0  0  0  0  0  0
    6.5944    0.1348   -1.9932 O   0  0  0  0  0  0  0  0  0  0  0  0
    6.4172    0.8375    0.2514 C   0  0  0  0  0  0  0  0  0  0  0  0
    5.7821    0.9765    1.4859 C   0  0  0  0  0  0  0  0  0  0  0  0
    6.4950    1.7733    2.3902 C   0  0  0  0  0  0  0  0  0  0  0  0
    7.6836    2.2608    1.8700 C   0  0  0  0  0  0  0  0  0  0  0  0
    8.8238    3.2893    2.7112 Cl  0  0  0  0  0  0  0  0  0  0  0  0
    7.8578    1.7121    0.2933 S   0  0  0  0  0  0  0  0  0  0  0  0
    5.0329   -1.9449   -2.5635 H   0  0  0  0  0  0  0  0  0  0  0  0
    3.8615    0.6232   -2.8137 H   0  0  0  0  0  0  0  0  0  0  0  0
    3.6904   -0.7077   -4.0216 H   0  0  0  0  0  0  0  0  0  0  0  0
    1.4607   -0.7846   -3.5751 H   0  0  0  0  0  0  0  0  0  0  0  0
    1.6349    0.4087   -2.2337 H   0  0  0  0  0  0  0  0  0  0  0  0
    0.7170   -3.3199   -1.1441 H   0  0  0  0  0  0  0  0  0  0  0  0
    0.6638   -2.8520   -2.8757 H   0  0  0  0  0  0  0  0  0  0  0  0
   -0.1202   -1.4088    0.5218 H   0  0  0  0  0  0  0  0  0  0  0  0
   -3.2913    1.5842    2.4542 H   0  0  0  0  0  0  0  0  0  0  0  0
   -5.4617   -0.7759   -0.4216 H   0  0  0  0  0  0  0  0  0  0  0  0
   -3.3717   -1.8371   -1.1355 H   0  0  0  0  0  0  0  0  0  0  0  0
   -6.6465   -0.7898    1.9541 H   0  0  0  0  0  0  0  0  0  0  0  0
   -8.7766    0.1826    2.7193 H   0  0  0  0  0  0  0  0  0  0  0  0
   -9.0887    2.6440    2.6975 H   0  0  0  0  0  0  0  0  0  0  0  0
   -7.2624    4.1079    1.8902 H   0  0  0  0  0  0  0  0  0  0  0  0
    3.2985   -2.8580   -0.6720 H   0  0  0  0  0  0  0  0  0  0  0  0
    3.0528   -3.1803   -2.4338 H   0  0  0  0  0  0  0  0  0  0  0  0
    4.2512   -0.8299    0.0585 H   0  0  0  0  0  0  0  0  0  0  0  0
    4.8306    0.5313    1.7387 H   0  0  0  0  0  0  0  0  0  0  0  0
    6.1499    1.9891    3.3927 H   0  0  0  0  0  0  0  0  0  0  0  0
  1  2  1  0
  2  3  1  0
  3  4  1  0
  4  5  1  0
  5  6  1  0
  6  7  2  0
  6  8  1  0
  8  9  1  0
  9 10  2  0
 10 11  1  0
 10 12  1  0
 12 13  2  0
 13 14  1  0
 14 15  2  0
 13 16  1  0
 16 17  1  0
 17 18  2  0
 18 19  1  0
 19 20  2  0
 20 21  1  0
 21 22  2  0
  4 23  1  0
  1 24  1  0
 24 25  1  0
 25 26  2  0
 25 27  1  0
 27 28  2  0
 28 29  1  0
 29 30  2  0
 30 31  1  0
 30 32  1  0
 23  1  1  0
 32 27  1  0
 15  9  1  0
 21 16  1  0
  1 33  1  6
  2 34  1  0
  2 35  1  0
  3 36  1  0
  3 37  1  0
  5 38  1  0
  5 39  1  0
  8 40  1  0
 12 41  1  0
 14 42  1  0
 15 43  1  0
 17 44  1  0
 18 45  1  0
 19 46  1  0
 20 47  1  0
 23 48  1  0
 23 49  1  0
 24 50  1  0
 28 51  1  0
 29 52  1  0
M  END
$$$$
