
     RDKit          3D

 47 48  0  0  0  0  0  0  0  0999 V2000
   -6.6894    1.0113    0.9293 C   0  0  0  0  0  0  0  0  0  0  0  0
   -5.3144    0.3931    1.2193 C   0  0  0  0  0  0  0  0  0  0  0  0
   -5.2775   -1.0652    0.7311 C   0  0  0  0  0  0  0  0  0  0  0  0
   -4.1768    1.2706    0.6308 C   0  0  2  0  0  0  0  0  0  0  0  0
   -4.2566    1.3544   -0.8321 N   0  0  0  0  0  0  0  0  0  0  0  0
   -2.8172    0.7980    1.0836 C   0  0  0  0  0  0  0  0  0  0  0  0
   -2.3426    1.2310    2.1693 O   0  0  0  0  0  0  0  0  0  0  0  0
   -2.1130   -0.1461    0.3250 O   0  0  0  0  0  0  0  0  0  0  0  0
   -0.8012   -0.6080    0.6468 C   0  0  0  0  0  0  0  0  0  0  0  0
    0.2679    0.1679   -0.1397 C   0  0  0  0  0  0  0  0  0  0  0  0
    0.3245    1.6401    0.2935 C   0  0  0  0  0  0  0  0  0  0  0  0
    1.3796    2.2999   -0.3531 O   0  0  0  0  0  0  0  0  0  0  0  0
    1.5348   -0.4192    0.1099 O   0  0  0  0  0  0  0  0  0  0  0  0
    1.9475   -1.2140   -0.9818 C   0  0  0  0  0  0  0  0  0  0  0  0
    3.2312   -1.8286   -0.6635 N   0  0  0  0  0  0  0  0  0  0  0  0
    3.4706   -3.1209   -0.3232 C   0  0  0  0  0  0  0  0  0  0  0  0
    4.7754   -3.3649   -0.0175 N   0  0  0  0  0  0  0  0  0  0  0  0
    5.3472   -2.1556   -0.1746 C   0  0  0  0  0  0  0  0  0  0  0  0
    4.4284   -1.2385   -0.5535 C   0  0  0  0  0  0  0  0  0  0  0  0
    4.7386    0.0677   -0.7519 N   0  0  0  0  0  0  0  0  0  0  0  0
    6.0401    0.4562   -0.5674 C   0  0  0  0  0  0  0  0  0  0  0  0
    6.4170    1.8182   -0.7668 N   0  0  0  0  0  0  0  0  0  0  0  0
    6.9878   -0.4623   -0.1872 N   0  0  0  0  0  0  0  0  0  0  0  0
    6.6666   -1.7735    0.0173 C   0  0  0  0  0  0  0  0  0  0  0  0
    7.5451   -2.6026    0.3716 O   0  0  0  0  0  0  0  0  0  0  0  0
   -6.7367    2.0482    1.3251 H   0  0  0  0  0  0  0  0  0  0  0  0
   -6.8897    1.0342   -0.1632 H   0  0  0  0  0  0  0  0  0  0  0  0
   -7.4880    0.4188    1.4249 H   0  0  0  0  0  0  0  0  0  0  0  0
   -5.1919    0.3762    2.3258 H   0  0  0  0  0  0  0  0  0  0  0  0
   -4.2982   -1.5334    0.9606 H   0  0  0  0  0  0  0  0  0  0  0  0
   -6.0606   -1.6564    1.2520 H   0  0  0  0  0  0  0  0  0  0  0  0
   -5.4663   -1.1284   -0.3610 H   0  0  0  0  0  0  0  0  0  0  0  0
   -4.3120    2.3008    1.0325 H   0  0  0  0  0  0  0  0  0  0  0  0
   -3.9899    0.4401   -1.2629 H   0  0  0  0  0  0  0  0  0  0  0  0
   -3.5597    2.0618   -1.1619 H   0  0  0  0  0  0  0  0  0  0  0  0
   -0.6091   -0.5563    1.7412 H   0  0  0  0  0  0  0  0  0  0  0  0
   -0.7411   -1.6784    0.3581 H   0  0  0  0  0  0  0  0  0  0  0  0
   -0.0221    0.1572   -1.2198 H   0  0  0  0  0  0  0  0  0  0  0  0
   -0.6353    2.1538    0.0619 H   0  0  0  0  0  0  0  0  0  0  0  0
    0.4924    1.7021    1.3901 H   0  0  0  0  0  0  0  0  0  0  0  0
    1.0980    2.4307   -1.2962 H   0  0  0  0  0  0  0  0  0  0  0  0
    2.0700   -0.5892   -1.8954 H   0  0  0  0  0  0  0  0  0  0  0  0
    1.1996   -2.0122   -1.1928 H   0  0  0  0  0  0  0  0  0  0  0  0
    2.7028   -3.8830   -0.2878 H   0  0  0  0  0  0  0  0  0  0  0  0
    4.0071    0.7571   -1.0359 H   0  0  0  0  0  0  0  0  0  0  0  0
    7.4075    2.1169   -0.6261 H   0  0  0  0  0  0  0  0  0  0  0  0
    5.7095    2.5303   -1.0543 H   0  0  0  0  0  0  0  0  0  0  0  0
  1  2  1  0
  2  3  1  0
  2  4  1  0
  4  5  1  0
  4  6  1  0
  6  7  2  0
  6  8  1  0
  8  9  1  0
  9 10  1  0
 10 11  1  0
 11 12  1  0
 10 13  1  0
 13 14  1  0
 14 15  1  0
 15 16  1  0
 16 17  2  0
 17 18  1  0
 18 19  2  0
 19 20  1  0
 20 21  1  0
 21 22  1  0
 21 23  2  0
 23 24  1  0
 24 25  2  0
 19 15  1  0
 24 18  1  0
  1 26  1  0
  1 27  1  0
  1 28  1  0
  2 29  1  0
  3 30  1  0
  3 31  1  0
  3 32  1  0
  4 33  1  1
  5 34  1  0
  5 35  1  0
  9 36  1  0
  9 37  1  0
 10 38  1  0
 11 39  1  0
 11 40  1  0
 12 41  1  0
 14 42  1  0
 14 43  1  0
 16 44  1  0
 20 45  1  0
 22 46  1  0
 22 47  1  0
M  END
$$$$
