
     RDKit          3D

 17 18  0  0  0  0  0  0  0  0999 V2000
    2.8334   -1.6127   -0.4343 O   0  0  0  0  0  1  0  0  0  0  0  0
    2.6003   -0.2699   -0.2459 N   0  0  0  0  0  4  0  0  0  0  0  0
    3.5743    0.5109   -0.2267 O   0  0  0  0  0  0  0  0  0  0  0  0
    1.2612    0.2301   -0.0738 C   0  0  0  0  0  0  0  0  0  0  0  0
    1.0128    1.6115    0.1207 C   0  0  0  0  0  0  0  0  0  0  0  0
   -0.3049    2.0943    0.2890 C   0  0  0  0  0  0  0  0  0  0  0  0
   -1.3980    1.2113    0.2667 C   0  0  0  0  0  0  0  0  0  0  0  0
   -1.1286   -0.1388    0.0745 C   0  0  0  0  0  0  0  0  0  0  0  0
   -1.9531   -1.2350    0.0034 C   0  0  0  0  0  0  0  0  0  0  0  0
   -1.1670   -2.3158   -0.1970 N   0  0  0  0  0  0  0  0  0  0  0  0
    0.1103   -1.9540   -0.2554 N   0  0  0  0  0  0  0  0  0  0  0  0
    0.1436   -0.6184   -0.0897 C   0  0  0  0  0  0  0  0  0  0  0  0
    1.8325    2.3178    0.1430 H   0  0  0  0  0  0  0  0  0  0  0  0
   -0.4742    3.1531    0.4363 H   0  0  0  0  0  0  0  0  0  0  0  0
   -2.4111    1.5704    0.3945 H   0  0  0  0  0  0  0  0  0  0  0  0
   -3.0317   -1.2545    0.0888 H   0  0  0  0  0  0  0  0  0  0  0  0
   -1.4996   -3.3004   -0.2941 H   0  0  0  0  0  0  0  0  0  0  0  0
  1  2  1  0
  2  3  2  0
  2  4  1  0
  4  5  2  0
  5  6  1  0
  6  7  2  0
  7  8  1  0
  8  9  2  0
  9 10  1  0
 10 11  1  0
 11 12  2  0
 12  4  1  0
 12  8  1  0
  5 13  1  0
  6 14  1  0
  7 15  1  0
  9 16  1  0
 10 17  1  0
M  CHG  2   1  -1   2   1
M  END
$$$$
