
     RDKit          3D

 37 39  0  0  0  0  0  0  0  0999 V2000
   -2.5005   -3.1255   -0.0423 C   0  0  0  0  0  0  0  0  0  0  0  0
   -1.2280   -2.4734   -0.5865 C   0  0  0  0  0  0  0  0  0  0  0  0
   -0.9109   -1.1337    0.1236 C   0  0  0  0  0  0  0  0  0  0  0  0
   -1.8927   -0.0425   -0.2658 C   0  0  0  0  0  0  0  0  0  0  0  0
   -1.9478    0.4509   -1.5837 C   0  0  0  0  0  0  0  0  0  0  0  0
   -2.8557    1.4574   -1.9257 C   0  0  0  0  0  0  0  0  0  0  0  0
   -3.7170    1.9824   -0.9599 C   0  0  0  0  0  0  0  0  0  0  0  0
   -3.6724    1.5015    0.3504 C   0  0  0  0  0  0  0  0  0  0  0  0
   -2.7665    0.4951    0.6979 C   0  0  0  0  0  0  0  0  0  0  0  0
    0.5325   -0.6363   -0.0352 C   0  0  0  0  0  0  0  0  0  0  0  0
    1.1102    0.1256    1.0079 C   0  0  0  0  0  0  0  0  0  0  0  0
    0.3371    0.3897    2.1459 O   0  0  0  0  0  0  0  0  0  0  0  0
    2.4343    0.6061    0.8730 C   0  0  0  0  0  0  0  0  0  0  0  0
    3.1190    0.3354   -0.3337 C   0  0  0  0  0  0  0  0  0  0  0  0
    2.5303   -0.3482   -1.3035 O   0  0  0  0  0  0  0  0  0  0  0  0
    1.2972   -0.8266   -1.2127 C   0  0  0  0  0  0  0  0  0  0  0  0
    0.8295   -1.4467   -2.2021 O   0  0  0  0  0  0  0  0  0  0  0  0
    4.4286    0.7907   -0.5223 C   0  0  0  0  0  0  0  0  0  0  0  0
    5.0727    1.5141    0.4813 C   0  0  0  0  0  0  0  0  0  0  0  0
    4.4117    1.7848    1.6793 C   0  0  0  0  0  0  0  0  0  0  0  0
    3.1026    1.3364    1.8805 C   0  0  0  0  0  0  0  0  0  0  0  0
   -2.6839   -4.0824   -0.5749 H   0  0  0  0  0  0  0  0  0  0  0  0
   -3.3763   -2.4611   -0.2005 H   0  0  0  0  0  0  0  0  0  0  0  0
   -2.3942   -3.3410    1.0421 H   0  0  0  0  0  0  0  0  0  0  0  0
   -1.3676   -2.3258   -1.6779 H   0  0  0  0  0  0  0  0  0  0  0  0
   -0.3850   -3.1821   -0.4326 H   0  0  0  0  0  0  0  0  0  0  0  0
   -1.0420   -1.3599    1.2054 H   0  0  0  0  0  0  0  0  0  0  0  0
   -1.2921    0.0594   -2.3484 H   0  0  0  0  0  0  0  0  0  0  0  0
   -2.8914    1.8306   -2.9410 H   0  0  0  0  0  0  0  0  0  0  0  0
   -4.4191    2.7616   -1.2269 H   0  0  0  0  0  0  0  0  0  0  0  0
   -4.3406    1.9089    1.0981 H   0  0  0  0  0  0  0  0  0  0  0  0
   -2.7486    0.1363    1.7194 H   0  0  0  0  0  0  0  0  0  0  0  0
    0.6300    0.9628    2.9230 H   0  0  0  0  0  0  0  0  0  0  0  0
    4.9480    0.5827   -1.4495 H   0  0  0  0  0  0  0  0  0  0  0  0
    6.0860    1.8637    0.3313 H   0  0  0  0  0  0  0  0  0  0  0  0
    4.9165    2.3430    2.4574 H   0  0  0  0  0  0  0  0  0  0  0  0
    2.6462    1.5660    2.8297 H   0  0  0  0  0  0  0  0  0  0  0  0
  1  2  1  0
  2  3  1  0
  3  4  1  0
  4  5  2  0
  5  6  1  0
  6  7  2  0
  7  8  1  0
  8  9  2  0
  3 10  1  0
 10 11  2  0
 11 12  1  0
 11 13  1  0
 13 14  2  0
 14 15  1  0
 15 16  1  0
 16 17  2  0
 14 18  1  0
 18 19  2  0
 19 20  1  0
 20 21  2  0
  9  4  1  0
 16 10  1  0
 21 13  1  0
  1 22  1  0
  1 23  1  0
  1 24  1  0
  2 25  1  0
  2 26  1  0
  3 27  1  0
  5 28  1  0
  6 29  1  0
  7 30  1  0
  8 31  1  0
  9 32  1  0
 12 33  1  0
 18 34  1  0
 19 35  1  0
 20 36  1  0
 21 37  1  0
M  END
$$$$
