
     RDKit          3D

 84 86  0  0  0  0  0  0  0  0999 V2000
    4.8209    0.0488    1.5331 C   0  0  0  0  0  0  0  0  0  0  0  0
    3.9429    1.1773    0.9408 C   0  0  0  0  0  0  0  0  0  0  0  0
    3.6250    0.8361   -0.5344 C   0  0  0  0  0  0  0  0  0  0  0  0
    2.6097    1.2556    1.7330 C   0  0  0  0  0  0  0  0  0  0  0  0
    1.9093    0.0339    1.6453 O   0  0  0  0  0  0  0  0  0  0  0  0
    0.4395    0.1929    2.4960 P   0  0  0  0  0  5  0  0  0  0  0  0
    0.7669    0.5783    4.1115 O   0  0  0  0  0  0  0  0  0  0  0  0
   -0.2971   -1.1281    2.4626 O   0  0  0  0  0  0  0  0  0  0  0  0
   -0.5186    1.4325    1.8232 O   0  0  0  0  0  0  0  0  0  0  0  0
   -0.9797    0.9484    0.2550 P   0  0  0  0  0  5  0  0  0  0  0  0
   -1.8001    2.2283   -0.4895 O   0  0  0  0  0  0  0  0  0  0  0  0
    0.2367    0.6146   -0.5795 O   0  0  0  0  0  0  0  0  0  0  0  0
   -2.0013   -0.4146    0.3191 O   0  0  0  0  0  0  0  0  0  0  0  0
   -3.1502   -0.0729    1.0587 C   0  0  0  0  0  0  0  0  0  0  0  0
   -4.0996   -1.2740    1.1046 C   0  0  1  0  0  0  0  0  0  0  0  0
   -5.2424   -0.9519    1.8635 O   0  0  0  0  0  0  0  0  0  0  0  0
   -6.3500   -1.5917    1.2619 C   0  0  2  0  0  0  0  0  0  0  0  0
   -5.8913   -2.3345    0.0032 C   0  0  2  0  0  0  0  0  0  0  0  0
   -5.7413   -3.7055    0.2748 O   0  0  0  0  0  0  0  0  0  0  0  0
   -4.5533   -1.7011   -0.2856 C   0  0  2  0  0  0  0  0  0  0  0  0
   -3.6350   -2.6278   -0.8361 O   0  0  0  0  0  0  0  0  0  0  0  0
   -3.5557   -2.4350   -2.5311 P   0  0  0  0  0  5  0  0  0  0  0  0
   -2.7377   -3.7622   -3.1874 O   0  0  0  0  0  0  0  0  0  0  0  0
   -2.6985   -1.0229   -2.9082 O   0  0  0  0  0  0  0  0  0  0  0  0
   -4.9458   -2.3700   -3.1264 O   0  0  0  0  0  0  0  0  0  0  0  0
   -7.3678   -0.5950    0.9212 N   0  0  0  0  0  0  0  0  0  0  0  0
   -7.1825    0.6640    0.4433 C   0  0  0  0  0  0  0  0  0  0  0  0
   -8.3448    1.2954    0.1187 N   0  0  0  0  0  0  0  0  0  0  0  0
   -9.2766    0.3664    0.4044 C   0  0  0  0  0  0  0  0  0  0  0  0
   -8.6949   -0.7610    0.8730 C   0  0  0  0  0  0  0  0  0  0  0  0
   -9.4037   -1.8686    1.2002 N   0  0  0  0  0  0  0  0  0  0  0  0
  -10.7628   -1.8242    1.0566 C   0  0  0  0  0  0  0  0  0  0  0  0
  -11.3768   -0.6901    0.5878 N   0  0  0  0  0  0  0  0  0  0  0  0
  -10.6572    0.4222    0.2512 C   0  0  0  0  0  0  0  0  0  0  0  0
  -11.3128    1.5893   -0.2449 N   0  0  0  0  0  0  0  0  0  0  0  0
    4.6611    2.5731    1.0114 C   0  0  1  0  0  0  0  0  0  0  0  0
    4.7963    3.0345    2.3355 O   0  0  0  0  0  0  0  0  0  0  0  0
    5.9964    2.6202    0.2945 C   0  0  0  0  0  0  0  0  0  0  0  0
    7.0486    2.2804    0.9020 O   0  0  0  0  0  0  0  0  0  0  0  0
    6.0635    3.0453   -1.0754 N   0  0  0  0  0  0  0  0  0  0  0  0
    7.3252    3.2050   -1.7978 C   0  0  0  0  0  0  0  0  0  0  0  0
    7.6507    1.9547   -2.6210 C   0  0  0  0  0  0  0  0  0  0  0  0
    8.0311    0.7923   -1.7502 C   0  0  0  0  0  0  0  0  0  0  0  0
    9.0870    0.8539   -1.0633 O   0  0  0  0  0  0  0  0  0  0  0  0
    7.2061   -0.3808   -1.7038 N   0  0  0  0  0  0  0  0  0  0  0  0
    7.5277   -1.5342   -0.8665 C   0  0  0  0  0  0  0  0  0  0  0  0
    8.6411   -2.3624   -1.5047 C   0  0  0  0  0  0  0  0  0  0  0  0
    8.9959   -3.8330   -0.4938 S   0  0  0  0  0  0  0  0  0  0  0  0
    5.0097    0.2078    2.6149 H   0  0  0  0  0  0  0  0  0  0  0  0
    5.7944   -0.0164    1.0077 H   0  0  0  0  0  0  0  0  0  0  0  0
    4.3204   -0.9372    1.4230 H   0  0  0  0  0  0  0  0  0  0  0  0
    2.9865    1.6227   -0.9910 H   0  0  0  0  0  0  0  0  0  0  0  0
    4.5548    0.7519   -1.1313 H   0  0  0  0  0  0  0  0  0  0  0  0
    3.0918   -0.1351   -0.6160 H   0  0  0  0  0  0  0  0  0  0  0  0
    1.9969    2.0869    1.3132 H   0  0  0  0  0  0  0  0  0  0  0  0
    2.8369    1.4864    2.7986 H   0  0  0  0  0  0  0  0  0  0  0  0
   -0.1216    0.7449    4.5162 H   0  0  0  0  0  0  0  0  0  0  0  0
   -1.1834    2.9998   -0.4162 H   0  0  0  0  0  0  0  0  0  0  0  0
   -2.8766    0.1884    2.1060 H   0  0  0  0  0  0  0  0  0  0  0  0
   -3.6849    0.7882    0.5967 H   0  0  0  0  0  0  0  0  0  0  0  0
   -3.5771   -2.1199    1.6080 H   0  0  0  0  0  0  0  0  0  0  0  0
   -6.7798   -2.3070    1.9982 H   0  0  0  0  0  0  0  0  0  0  0  0
   -6.5850   -2.1860   -0.8580 H   0  0  0  0  0  0  0  0  0  0  0  0
   -6.6531   -4.0979    0.2536 H   0  0  0  0  0  0  0  0  0  0  0  0
   -4.7125   -0.7853   -0.9056 H   0  0  0  0  0  0  0  0  0  0  0  0
   -2.6495   -3.5532   -4.1515 H   0  0  0  0  0  0  0  0  0  0  0  0
   -3.3425   -0.2823   -2.7781 H   0  0  0  0  0  0  0  0  0  0  0  0
   -6.2095    1.1193    0.3146 H   0  0  0  0  0  0  0  0  0  0  0  0
  -11.3579   -2.6900    1.3121 H   0  0  0  0  0  0  0  0  0  0  0  0
  -12.3512    1.6018   -0.3523 H   0  0  0  0  0  0  0  0  0  0  0  0
  -10.7690    2.4419   -0.5055 H   0  0  0  0  0  0  0  0  0  0  0  0
    4.0006    3.3090    0.5020 H   0  0  0  0  0  0  0  0  0  0  0  0
    5.4213    2.4323    2.8144 H   0  0  0  0  0  0  0  0  0  0  0  0
    5.1762    3.2478   -1.5889 H   0  0  0  0  0  0  0  0  0  0  0  0
    8.1556    3.4467   -1.0989 H   0  0  0  0  0  0  0  0  0  0  0  0
    7.2270    4.0667   -2.4927 H   0  0  0  0  0  0  0  0  0  0  0  0
    6.7805    1.6949   -3.2617 H   0  0  0  0  0  0  0  0  0  0  0  0
    8.5042    2.1810   -3.2956 H   0  0  0  0  0  0  0  0  0  0  0  0
    6.3236   -0.4067   -2.2620 H   0  0  0  0  0  0  0  0  0  0  0  0
    6.6205   -2.1677   -0.7581 H   0  0  0  0  0  0  0  0  0  0  0  0
    7.8312   -1.1927    0.1468 H   0  0  0  0  0  0  0  0  0  0  0  0
    9.5679   -1.7585   -1.6001 H   0  0  0  0  0  0  0  0  0  0  0  0
    8.3257   -2.6946   -2.5165 H   0  0  0  0  0  0  0  0  0  0  0  0
    9.5235   -3.0730    0.5679 H   0  0  0  0  0  0  0  0  0  0  0  0
  1  2  1  0
  2  3  1  0
  2  4  1  0
  4  5  1  0
  5  6  1  0
  6  7  1  0
  6  8  2  0
  6  9  1  0
  9 10  1  0
 10 11  1  0
 10 12  2  0
 10 13  1  0
 13 14  1  0
 14 15  1  0
 15 16  1  0
 16 17  1  0
 17 18  1  0
 18 19  1  0
 18 20  1  0
 20 21  1  0
 21 22  1  0
 22 23  1  0
 22 24  1  0
 22 25  2  0
 17 26  1  0
 26 27  1  0
 27 28  2  0
 28 29  1  0
 29 30  2  0
 30 31  1  0
 31 32  2  0
 32 33  1  0
 33 34  2  0
 34 35  1  0
  2 36  1  0
 36 37  1  0
 36 38  1  0
 38 39  2  0
 38 40  1  0
 40 41  1  0
 41 42  1  0
 42 43  1  0
 43 44  2  0
 43 45  1  0
 45 46  1  0
 46 47  1  0
 47 48  1  0
 20 15  1  0
 30 26  1  0
 34 29  1  0
  1 49  1  0
  1 50  1  0
  1 51  1  0
  3 52  1  0
  3 53  1  0
  3 54  1  0
  4 55  1  0
  4 56  1  0
  7 57  1  0
 11 58  1  0
 14 59  1  0
 14 60  1  0
 15 61  1  1
 17 62  1  1
 18 63  1  6
 19 64  1  0
 20 65  1  6
 23 66  1  0
 24 67  1  0
 27 68  1  0
 32 69  1  0
 35 70  1  0
 35 71  1  0
 36 72  1  6
 37 73  1  0
 40 74  1  0
 41 75  1  0
 41 76  1  0
 42 77  1  0
 42 78  1  0
 45 79  1  0
 46 80  1  0
 46 81  1  0
 47 82  1  0
 47 83  1  0
 48 84  1  0
M  END
$$$$
