
     RDKit          3D

 48 51  0  0  0  0  0  0  0  0999 V2000
    0.5137   -0.7902   -1.1310 C   0  0  2  0  0  0  0  0  0  0  0  0
    0.7502   -2.1327   -1.8131 C   0  0  0  0  0  0  0  0  0  0  0  0
    2.2567   -2.1811   -2.1040 C   0  0  0  0  0  0  0  0  0  0  0  0
    2.9082   -0.9273   -1.4473 C   0  0  1  0  0  0  0  0  0  0  0  0
    4.1086   -1.2933   -0.7998 O   0  0  0  0  0  0  0  0  0  0  0  0
    3.2289    0.1311   -2.5515 C   0  0  0  0  0  0  0  0  0  0  0  0
    4.0965    1.2138   -2.0621 C   0  0  0  0  0  0  0  0  0  0  0  0
    4.7793    2.0654   -1.6779 N   0  0  0  0  0  0  0  0  0  0  0  0
    1.8238   -0.4813   -0.3987 C   0  0  2  0  0  0  0  0  0  0  0  0
    1.9958   -1.3250    0.9086 C   0  0  0  0  0  0  0  0  0  0  0  0
    1.7782    1.0170   -0.0311 C   0  0  0  0  0  0  0  0  0  0  0  0
    0.5762    1.3675    0.8739 C   0  0  0  0  0  0  0  0  0  0  0  0
   -0.7306    0.6077    0.5991 C   0  0  0  0  0  0  0  0  0  0  0  0
   -1.8934    1.0128    1.1873 C   0  0  0  0  0  0  0  0  0  0  0  0
   -1.9596    2.2578    2.0651 C   0  0  0  0  0  0  0  0  0  0  0  0
   -3.0520    2.1550    3.1331 C   0  0  0  0  0  0  0  0  0  0  0  0
   -4.3414    1.6847    2.5391 C   0  0  0  0  0  0  0  0  0  0  0  0
   -5.4381    2.0834    3.0128 O   0  0  0  0  0  0  0  0  0  0  0  0
   -4.3279    0.6822    1.4675 C   0  0  0  0  0  0  0  0  0  0  0  0
   -3.1898    0.3378    0.8449 C   0  0  0  0  0  0  0  0  0  0  0  0
   -3.2398   -0.7757   -0.1710 C   0  0  0  0  0  0  0  0  0  0  0  0
   -2.0124   -0.7633   -1.0754 C   0  0  0  0  0  0  0  0  0  0  0  0
   -0.7323   -0.6863   -0.2273 C   0  0  1  0  0  0  0  0  0  0  0  0
    0.3764   -0.0438   -1.9485 H   0  0  0  0  0  0  0  0  0  0  0  0
    0.4625   -2.9714   -1.1415 H   0  0  0  0  0  0  0  0  0  0  0  0
    0.1631   -2.2085   -2.7543 H   0  0  0  0  0  0  0  0  0  0  0  0
    2.4332   -2.2282   -3.2010 H   0  0  0  0  0  0  0  0  0  0  0  0
    2.6776   -3.1130   -1.6652 H   0  0  0  0  0  0  0  0  0  0  0  0
    4.7105   -1.6929   -1.4818 H   0  0  0  0  0  0  0  0  0  0  0  0
    2.3060    0.5674   -2.9837 H   0  0  0  0  0  0  0  0  0  0  0  0
    3.7759   -0.3570   -3.3864 H   0  0  0  0  0  0  0  0  0  0  0  0
    1.1859   -1.1557    1.6447 H   0  0  0  0  0  0  0  0  0  0  0  0
    2.0236   -2.4132    0.6918 H   0  0  0  0  0  0  0  0  0  0  0  0
    2.9446   -1.0527    1.4182 H   0  0  0  0  0  0  0  0  0  0  0  0
    1.6874    1.6407   -0.9458 H   0  0  0  0  0  0  0  0  0  0  0  0
    2.7210    1.3127    0.4787 H   0  0  0  0  0  0  0  0  0  0  0  0
    0.3989    2.4588    0.7555 H   0  0  0  0  0  0  0  0  0  0  0  0
    0.8682    1.1921    1.9318 H   0  0  0  0  0  0  0  0  0  0  0  0
   -2.1611    3.1372    1.4158 H   0  0  0  0  0  0  0  0  0  0  0  0
   -1.0086    2.4394    2.6061 H   0  0  0  0  0  0  0  0  0  0  0  0
   -2.7377    1.4312    3.9160 H   0  0  0  0  0  0  0  0  0  0  0  0
   -3.1926    3.1484    3.6121 H   0  0  0  0  0  0  0  0  0  0  0  0
   -5.2633    0.2058    1.1963 H   0  0  0  0  0  0  0  0  0  0  0  0
   -3.2934   -1.7479    0.3659 H   0  0  0  0  0  0  0  0  0  0  0  0
   -4.1480   -0.6802   -0.8062 H   0  0  0  0  0  0  0  0  0  0  0  0
   -2.0684    0.1092   -1.7645 H   0  0  0  0  0  0  0  0  0  0  0  0
   -2.0183   -1.6903   -1.6883 H   0  0  0  0  0  0  0  0  0  0  0  0
   -0.7425   -1.5481    0.4762 H   0  0  0  0  0  0  0  0  0  0  0  0
  1  2  1  0
  2  3  1  0
  3  4  1  0
  4  5  1  1
  4  6  1  0
  6  7  1  0
  7  8  3  0
  4  9  1  0
  9 10  1  1
  9 11  1  0
 11 12  1  0
 12 13  1  0
 13 14  2  0
 14 15  1  0
 15 16  1  0
 16 17  1  0
 17 18  2  0
 17 19  1  0
 19 20  2  0
 20 21  1  0
 21 22  1  0
 22 23  1  0
  9  1  1  0
 23 13  1  0
 23  1  1  0
 20 14  1  0
  1 24  1  6
  2 25  1  0
  2 26  1  0
  3 27  1  0
  3 28  1  0
  5 29  1  0
  6 30  1  0
  6 31  1  0
 10 32  1  0
 10 33  1  0
 10 34  1  0
 11 35  1  0
 11 36  1  0
 12 37  1  0
 12 38  1  0
 15 39  1  0
 15 40  1  0
 16 41  1  0
 16 42  1  0
 19 43  1  0
 21 44  1  0
 21 45  1  0
 22 46  1  0
 22 47  1  0
 23 48  1  1
M  END
$$$$
