
     RDKit          3D

 62 66  0  0  0  0  0  0  0  0999 V2000
    0.3424   -0.8830   -0.1206 C   0  0  2  0  0  0  0  0  0  0  0  0
    1.1454   -2.1604   -0.3231 C   0  0  0  0  0  0  0  0  0  0  0  0
    2.5846   -1.7644    0.0744 C   0  0  1  0  0  0  0  0  0  0  0  0
    3.3738   -1.6108   -1.0674 O   0  0  0  0  0  0  0  0  0  0  0  0
    3.6282   -0.2295   -1.1969 C   0  0  0  0  0  0  0  0  0  0  0  0
    3.1988    0.2219   -2.5961 C   0  0  0  0  0  0  0  0  0  0  0  0
    5.1304    0.0249   -1.0133 C   0  0  0  0  0  0  0  0  0  0  0  0
    2.9059    0.5142   -0.2381 O   0  0  0  0  0  0  0  0  0  0  0  0
    2.5067   -0.3923    0.7535 C   0  0  2  0  0  0  0  0  0  0  0  0
    3.4366   -0.2361    1.9589 C   0  0  0  0  0  0  0  0  0  0  0  0
    3.7951   -1.2162    2.5960 O   0  0  0  0  0  0  0  0  0  0  0  0
    3.9082    1.1231    2.4063 C   0  0  0  0  0  0  0  0  0  0  0  0
    3.6020    1.3235    3.7592 O   0  0  0  0  0  0  0  0  0  0  0  0
    0.9926   -0.2156    1.0965 C   0  0  2  0  0  0  0  0  0  0  0  0
    0.6747   -0.9536    2.4414 C   0  0  0  0  0  0  0  0  0  0  0  0
    0.4910    1.2505    1.1529 C   0  0  0  0  0  0  0  0  0  0  0  0
   -1.0611    1.3515    1.1908 C   0  0  2  0  0  0  0  0  0  0  0  0
   -1.5374    0.9997    2.4620 O   0  0  0  0  0  0  0  0  0  0  0  0
   -1.7592    0.5043    0.0652 C   0  0  1  0  0  0  0  0  0  0  0  0
   -1.1981   -0.9609   -0.0347 C   0  0  1  0  0  0  0  0  0  0  0  0
   -1.7622   -1.6746   -1.2828 C   0  0  0  0  0  0  0  0  0  0  0  0
   -3.2888   -1.6908   -1.2786 C   0  0  0  0  0  0  0  0  0  0  0  0
   -3.8103   -0.2821   -1.1519 C   0  0  0  0  0  0  0  0  0  0  0  0
   -4.6650    0.1905   -2.0735 C   0  0  0  0  0  0  0  0  0  0  0  0
   -5.1396    1.5721   -2.0187 C   0  0  0  0  0  0  0  0  0  0  0  0
   -5.9572    1.9964   -2.8771 O   0  0  0  0  0  0  0  0  0  0  0  0
   -4.6456    2.4619   -0.9717 C   0  0  0  0  0  0  0  0  0  0  0  0
   -3.8020    2.0123   -0.0421 C   0  0  0  0  0  0  0  0  0  0  0  0
   -3.3385    0.5569    0.0478 C   0  0  2  0  0  0  0  0  0  0  0  0
   -3.9888   -0.0392    1.3198 C   0  0  0  0  0  0  0  0  0  0  0  0
    0.5578   -0.2553   -1.0177 H   0  0  0  0  0  0  0  0  0  0  0  0
    1.0911   -2.5079   -1.3783 H   0  0  0  0  0  0  0  0  0  0  0  0
    0.7650   -2.9670    0.3408 H   0  0  0  0  0  0  0  0  0  0  0  0
    3.0212   -2.5582    0.7175 H   0  0  0  0  0  0  0  0  0  0  0  0
    3.7720   -0.3262   -3.3745 H   0  0  0  0  0  0  0  0  0  0  0  0
    2.1199    0.0165   -2.7531 H   0  0  0  0  0  0  0  0  0  0  0  0
    3.3716    1.3123   -2.7215 H   0  0  0  0  0  0  0  0  0  0  0  0
    5.7138   -0.5110   -1.7925 H   0  0  0  0  0  0  0  0  0  0  0  0
    5.4645   -0.3410   -0.0200 H   0  0  0  0  0  0  0  0  0  0  0  0
    5.3499    1.1120   -1.0807 H   0  0  0  0  0  0  0  0  0  0  0  0
    5.0099    1.1738    2.2808 H   0  0  0  0  0  0  0  0  0  0  0  0
    3.4638    1.9343    1.7873 H   0  0  0  0  0  0  0  0  0  0  0  0
    2.6371    1.5515    3.8025 H   0  0  0  0  0  0  0  0  0  0  0  0
    1.1347   -1.9630    2.4735 H   0  0  0  0  0  0  0  0  0  0  0  0
    1.0759   -0.3760    3.3003 H   0  0  0  0  0  0  0  0  0  0  0  0
   -0.4019   -1.0955    2.6331 H   0  0  0  0  0  0  0  0  0  0  0  0
    0.8441    1.8079    0.2579 H   0  0  0  0  0  0  0  0  0  0  0  0
    0.9206    1.7675    2.0368 H   0  0  0  0  0  0  0  0  0  0  0  0
   -1.2990    2.4235    1.0057 H   0  0  0  0  0  0  0  0  0  0  0  0
   -1.3112    1.7466    3.0758 H   0  0  0  0  0  0  0  0  0  0  0  0
   -1.4501    1.0057   -0.8829 H   0  0  0  0  0  0  0  0  0  0  0  0
   -1.4985   -1.5601    0.8451 H   0  0  0  0  0  0  0  0  0  0  0  0
   -1.4044   -2.7265   -1.3088 H   0  0  0  0  0  0  0  0  0  0  0  0
   -1.4059   -1.1693   -2.2083 H   0  0  0  0  0  0  0  0  0  0  0  0
   -3.6576   -2.3037   -0.4290 H   0  0  0  0  0  0  0  0  0  0  0  0
   -3.6406   -2.1797   -2.2138 H   0  0  0  0  0  0  0  0  0  0  0  0
   -4.9957   -0.4366   -2.8931 H   0  0  0  0  0  0  0  0  0  0  0  0
   -4.9725    3.4942   -0.9469 H   0  0  0  0  0  0  0  0  0  0  0  0
   -3.5101    2.7044    0.7371 H   0  0  0  0  0  0  0  0  0  0  0  0
   -5.0769   -0.1966    1.1528 H   0  0  0  0  0  0  0  0  0  0  0  0
   -3.9044    0.6448    2.1890 H   0  0  0  0  0  0  0  0  0  0  0  0
   -3.5468   -1.0155    1.5998 H   0  0  0  0  0  0  0  0  0  0  0  0
  1  2  1  0
  2  3  1  0
  3  4  1  0
  4  5  1  0
  5  6  1  0
  5  7  1  0
  5  8  1  0
  8  9  1  0
  9 10  1  1
 10 11  2  0
 10 12  1  0
 12 13  1  0
  9 14  1  0
 14 15  1  1
 14 16  1  0
 16 17  1  0
 17 18  1  0
 17 19  1  0
 19 20  1  0
 20 21  1  0
 21 22  1  0
 22 23  1  0
 23 24  2  0
 24 25  1  0
 25 26  2  0
 25 27  1  0
 27 28  2  0
 28 29  1  0
 29 30  1  1
 14  1  1  0
 29 19  1  0
 20  1  1  0
 29 23  1  0
  9  3  1  0
  1 31  1  6
  2 32  1  0
  2 33  1  0
  3 34  1  1
  6 35  1  0
  6 36  1  0
  6 37  1  0
  7 38  1  0
  7 39  1  0
  7 40  1  0
 12 41  1  0
 12 42  1  0
 13 43  1  0
 15 44  1  0
 15 45  1  0
 15 46  1  0
 16 47  1  0
 16 48  1  0
 17 49  1  6
 18 50  1  0
 19 51  1  6
 20 52  1  1
 21 53  1  0
 21 54  1  0
 22 55  1  0
 22 56  1  0
 24 57  1  0
 27 58  1  0
 28 59  1  0
 30 60  1  0
 30 61  1  0
 30 62  1  0
M  END
$$$$
