
     RDKit          3D

 69 71  0  0  0  0  0  0  0  0999 V2000
   -2.6323   -0.7633    0.3220 C   0  0  2  0  0  0  0  0  0  0  0  0
   -4.0260   -1.3402   -0.0708 C   0  0  0  0  0  0  0  0  0  0  0  0
   -5.2562   -0.4033    0.0481 C   0  0  0  0  0  0  0  0  0  0  0  0
   -6.5427   -1.2074   -0.1882 C   0  0  0  0  0  0  0  0  0  0  0  0
   -5.2095    0.7781   -0.9299 C   0  0  0  0  0  0  0  0  0  0  0  0
   -2.5972   -0.0771    1.7173 C   0  0  0  0  0  0  0  0  0  0  0  0
   -3.0395    1.3647    1.7407 C   0  0  0  0  0  0  0  0  0  0  0  0
   -2.4092    2.2296    1.0754 O   0  0  0  0  0  0  0  0  0  0  0  0
   -4.1308    1.7747    2.5702 N   0  0  0  0  0  0  0  0  0  0  0  0
   -4.5504    3.0624    2.5667 O   0  0  0  0  0  0  0  0  0  0  0  0
   -1.9402    0.0219   -0.7780 C   0  0  0  0  0  0  0  0  0  0  0  0
   -2.4611    0.1136   -1.9230 O   0  0  0  0  0  0  0  0  0  0  0  0
   -0.6353    0.5760   -0.5492 N   0  0  0  0  0  0  0  0  0  0  0  0
    0.0395    1.4242   -1.5347 C   0  0  1  0  0  0  0  0  0  0  0  0
    0.9807    2.4502   -0.8634 C   0  0  0  0  0  0  0  0  0  0  0  0
    2.1601    1.8367   -0.1629 C   0  0  0  0  0  0  0  0  0  0  0  0
    3.3540    1.4492   -0.7567 C   0  0  0  0  0  0  0  0  0  0  0  0
    4.1629    0.8502    0.1515 N   0  0  0  0  0  0  0  0  0  0  0  0
    5.4576    0.2246   -0.1475 C   0  0  0  0  0  0  0  0  0  0  0  0
    5.3018   -0.8839   -1.1989 C   0  0  0  0  0  0  0  0  0  0  0  0
    4.3751   -2.0259   -0.7228 C   0  0  0  0  0  0  0  0  0  0  0  0
    3.5178   -2.6127   -1.8692 C   0  0  0  0  0  0  0  0  0  0  0  0
    2.0428   -2.8227   -1.4775 C   0  0  0  0  0  0  0  0  0  0  0  0
    1.2514   -1.5134   -1.2872 C   0  0  0  0  0  0  0  0  0  0  0  0
    1.1595   -0.7395   -2.5286 N   0  0  0  0  0  0  0  0  0  0  0  0
    0.7217    0.6315   -2.6396 C   0  0  0  0  0  0  0  0  0  0  0  0
    0.9148    1.2241   -3.7354 O   0  0  0  0  0  0  0  0  0  0  0  0
    3.4932    0.8751    1.3268 C   0  0  0  0  0  0  0  0  0  0  0  0
    2.2673    1.4775    1.1681 C   0  0  0  0  0  0  0  0  0  0  0  0
    1.3713    1.6183    2.2294 C   0  0  0  0  0  0  0  0  0  0  0  0
    1.7515    1.1131    3.4835 C   0  0  0  0  0  0  0  0  0  0  0  0
    3.0038    0.4863    3.6510 C   0  0  0  0  0  0  0  0  0  0  0  0
    3.8904    0.3600    2.5669 C   0  0  0  0  0  0  0  0  0  0  0  0
   -1.9923   -1.6666    0.4386 H   0  0  0  0  0  0  0  0  0  0  0  0
   -4.2075   -2.2114    0.5981 H   0  0  0  0  0  0  0  0  0  0  0  0
   -3.9785   -1.7619   -1.0992 H   0  0  0  0  0  0  0  0  0  0  0  0
   -5.3191   -0.0096    1.0806 H   0  0  0  0  0  0  0  0  0  0  0  0
   -6.5535   -1.6387   -1.2125 H   0  0  0  0  0  0  0  0  0  0  0  0
   -6.6223   -2.0343    0.5495 H   0  0  0  0  0  0  0  0  0  0  0  0
   -7.4341   -0.5556   -0.0645 H   0  0  0  0  0  0  0  0  0  0  0  0
   -6.1314    1.3905   -0.8336 H   0  0  0  0  0  0  0  0  0  0  0  0
   -4.3535    1.4438   -0.7072 H   0  0  0  0  0  0  0  0  0  0  0  0
   -5.1332    0.4169   -1.9776 H   0  0  0  0  0  0  0  0  0  0  0  0
   -1.5628   -0.1169    2.1207 H   0  0  0  0  0  0  0  0  0  0  0  0
   -3.2142   -0.6712    2.4254 H   0  0  0  0  0  0  0  0  0  0  0  0
   -4.6061    1.0878    3.1973 H   0  0  0  0  0  0  0  0  0  0  0  0
   -5.2567    3.0966    1.8718 H   0  0  0  0  0  0  0  0  0  0  0  0
   -0.1535    0.3504    0.3463 H   0  0  0  0  0  0  0  0  0  0  0  0
   -0.7441    2.0426   -2.0282 H   0  0  0  0  0  0  0  0  0  0  0  0
    0.3973    3.0579   -0.1390 H   0  0  0  0  0  0  0  0  0  0  0  0
    1.3571    3.1563   -1.6354 H   0  0  0  0  0  0  0  0  0  0  0  0
    3.5953    1.5665   -1.8054 H   0  0  0  0  0  0  0  0  0  0  0  0
    6.1490    1.0004   -0.5410 H   0  0  0  0  0  0  0  0  0  0  0  0
    5.9240   -0.1997    0.7640 H   0  0  0  0  0  0  0  0  0  0  0  0
    6.3040   -1.3040   -1.4327 H   0  0  0  0  0  0  0  0  0  0  0  0
    4.9302   -0.4146   -2.1340 H   0  0  0  0  0  0  0  0  0  0  0  0
    5.0025   -2.8347   -0.2881 H   0  0  0  0  0  0  0  0  0  0  0  0
    3.7302   -1.6883    0.1129 H   0  0  0  0  0  0  0  0  0  0  0  0
    3.9437   -3.6001   -2.1518 H   0  0  0  0  0  0  0  0  0  0  0  0
    3.5631   -1.9936   -2.7886 H   0  0  0  0  0  0  0  0  0  0  0  0
    1.9960   -3.4142   -0.5370 H   0  0  0  0  0  0  0  0  0  0  0  0
    1.5458   -3.4271   -2.2675 H   0  0  0  0  0  0  0  0  0  0  0  0
    1.7188   -0.9030   -0.4933 H   0  0  0  0  0  0  0  0  0  0  0  0
    0.2298   -1.7926   -0.9590 H   0  0  0  0  0  0  0  0  0  0  0  0
    1.4744   -1.1928   -3.4162 H   0  0  0  0  0  0  0  0  0  0  0  0
    0.4082    2.0932    2.0970 H   0  0  0  0  0  0  0  0  0  0  0  0
    1.0773    1.2024    4.3253 H   0  0  0  0  0  0  0  0  0  0  0  0
    3.2840    0.0982    4.6216 H   0  0  0  0  0  0  0  0  0  0  0  0
    4.8452   -0.1249    2.7087 H   0  0  0  0  0  0  0  0  0  0  0  0
  1  2  1  0
  2  3  1  0
  3  4  1  0
  3  5  1  0
  1  6  1  0
  6  7  1  0
  7  8  2  0
  7  9  1  0
  9 10  1  0
  1 11  1  0
 11 12  2  0
 11 13  1  0
 13 14  1  0
 14 15  1  0
 15 16  1  0
 16 17  2  0
 17 18  1  0
 18 19  1  0
 19 20  1  0
 20 21  1  0
 21 22  1  0
 22 23  1  0
 23 24  1  0
 24 25  1  0
 25 26  1  0
 26 27  2  0
 18 28  1  0
 28 29  2  0
 29 30  1  0
 30 31  2  0
 31 32  1  0
 32 33  2  0
 26 14  1  0
 33 28  1  0
 29 16  1  0
  1 34  1  1
  2 35  1  0
  2 36  1  0
  3 37  1  0
  4 38  1  0
  4 39  1  0
  4 40  1  0
  5 41  1  0
  5 42  1  0
  5 43  1  0
  6 44  1  0
  6 45  1  0
  9 46  1  0
 10 47  1  0
 13 48  1  0
 14 49  1  6
 15 50  1  0
 15 51  1  0
 17 52  1  0
 19 53  1  0
 19 54  1  0
 20 55  1  0
 20 56  1  0
 21 57  1  0
 21 58  1  0
 22 59  1  0
 22 60  1  0
 23 61  1  0
 23 62  1  0
 24 63  1  0
 24 64  1  0
 25 65  1  0
 30 66  1  0
 31 67  1  0
 32 68  1  0
 33 69  1  0
M  END
$$$$
