
     RDKit          3D

 37 39  0  0  0  0  0  0  0  0999 V2000
    0.4013    0.1820   -1.4541 C   0  0  2  0  0  0  0  0  0  0  0  0
    1.7976    0.3595   -0.8562 C   0  0  0  0  0  0  0  0  0  0  0  0
    1.8167   -0.2270    0.4804 N   0  0  0  0  0  0  0  0  0  0  0  0
    2.8583   -0.3359    1.2553 C   0  0  0  0  0  0  0  0  0  0  0  0
    2.7087   -0.9273    2.5066 O   0  0  0  0  0  0  0  0  0  0  0  0
    4.2344    0.1187    0.8431 C   0  0  0  0  0  0  0  0  0  0  0  0
    5.0089   -1.0244    0.1963 C   0  0  0  0  0  0  0  0  0  0  0  0
    0.0130    1.1996   -2.5150 C   0  0  0  0  0  0  0  0  0  0  0  0
   -0.5933    1.2890   -1.1144 C   0  0  1  0  0  0  0  0  0  0  0  0
   -2.0212    0.8289   -0.9906 C   0  0  0  0  0  0  0  0  0  0  0  0
   -2.4199   -0.0266    0.0489 C   0  0  0  0  0  0  0  0  0  0  0  0
   -1.6003   -0.6491    1.1276 C   0  0  0  0  0  0  0  0  0  0  0  0
   -2.6510   -1.4325    1.9503 C   0  0  0  0  0  0  0  0  0  0  0  0
   -3.8995   -1.2141    1.2960 O   0  0  0  0  0  0  0  0  0  0  0  0
   -3.7285   -0.3887    0.2068 C   0  0  0  0  0  0  0  0  0  0  0  0
   -4.7270    0.0674   -0.6502 C   0  0  0  0  0  0  0  0  0  0  0  0
   -4.3648    0.9388   -1.6885 C   0  0  0  0  0  0  0  0  0  0  0  0
   -3.0216    1.3296   -1.8512 C   0  0  0  0  0  0  0  0  0  0  0  0
   -0.0040   -0.8396   -1.6229 H   0  0  0  0  0  0  0  0  0  0  0  0
    2.0809    1.4336   -0.7944 H   0  0  0  0  0  0  0  0  0  0  0  0
    2.5240   -0.1670   -1.5099 H   0  0  0  0  0  0  0  0  0  0  0  0
    1.8054   -1.2592    2.8241 H   0  0  0  0  0  0  0  0  0  0  0  0
    4.1897    0.9830    0.1487 H   0  0  0  0  0  0  0  0  0  0  0  0
    4.7852    0.4569    1.7469 H   0  0  0  0  0  0  0  0  0  0  0  0
    4.4893   -1.3801   -0.7181 H   0  0  0  0  0  0  0  0  0  0  0  0
    5.1129   -1.8706    0.9089 H   0  0  0  0  0  0  0  0  0  0  0  0
    6.0232   -0.6724   -0.0867 H   0  0  0  0  0  0  0  0  0  0  0  0
   -0.6420    0.7807   -3.3087 H   0  0  0  0  0  0  0  0  0  0  0  0
    0.7725    1.9800   -2.7344 H   0  0  0  0  0  0  0  0  0  0  0  0
   -0.2286    2.1272   -0.4827 H   0  0  0  0  0  0  0  0  0  0  0  0
   -0.8470   -1.3411    0.6961 H   0  0  0  0  0  0  0  0  0  0  0  0
   -1.1086    0.1337    1.7441 H   0  0  0  0  0  0  0  0  0  0  0  0
   -2.7017   -1.0483    2.9915 H   0  0  0  0  0  0  0  0  0  0  0  0
   -2.4170   -2.5185    1.9598 H   0  0  0  0  0  0  0  0  0  0  0  0
   -5.7577   -0.2303   -0.5091 H   0  0  0  0  0  0  0  0  0  0  0  0
   -5.1228    1.3215   -2.3595 H   0  0  0  0  0  0  0  0  0  0  0  0
   -2.7655    2.0225   -2.6428 H   0  0  0  0  0  0  0  0  0  0  0  0
  1  2  1  0
  2  3  1  0
  3  4  2  3
  4  5  1  0
  4  6  1  0
  6  7  1  0
  1  8  1  0
  8  9  1  0
  9 10  1  0
 10 11  2  0
 11 12  1  0
 12 13  1  0
 13 14  1  0
 14 15  1  0
 15 16  2  0
 16 17  1  0
 17 18  2  0
  9  1  1  0
 18 10  1  0
 15 11  1  0
  1 19  1  6
  2 20  1  0
  2 21  1  0
  5 22  1  0
  6 23  1  0
  6 24  1  0
  7 25  1  0
  7 26  1  0
  7 27  1  0
  8 28  1  0
  8 29  1  0
  9 30  1  1
 12 31  1  0
 12 32  1  0
 13 33  1  0
 13 34  1  0
 16 35  1  0
 17 36  1  0
 18 37  1  0
M  END
$$$$
