
     RDKit          3D

 44 46  0  0  0  0  0  0  0  0999 V2000
    5.7440   -2.6737   -0.6675 C   0  0  0  0  0  0  0  0  0  0  0  0
    5.1745   -2.0369    0.4716 O   0  0  0  0  0  0  0  0  0  0  0  0
    4.1083   -1.1264    0.4209 C   0  0  0  0  0  0  0  0  0  0  0  0
    3.4928   -0.7507   -0.7870 C   0  0  0  0  0  0  0  0  0  0  0  0
    2.4167    0.1495   -0.7914 C   0  0  0  0  0  0  0  0  0  0  0  0
    1.7941    0.4966   -2.0890 C   0  0  0  0  0  0  0  0  0  0  0  0
    0.4773    0.4422   -2.3459 C   0  0  0  0  0  0  0  0  0  0  0  0
   -0.5510   -0.0672   -1.4031 C   0  0  0  0  0  0  0  0  0  0  0  0
   -1.7441    0.6584   -1.1504 C   0  0  0  0  0  0  0  0  0  0  0  0
   -1.8442    2.0853   -1.6501 C   0  0  0  0  0  0  0  0  0  0  0  0
   -2.7529    0.0633   -0.3312 C   0  0  0  0  0  0  0  0  0  0  0  0
   -4.0601    0.5871   -0.1141 C   0  0  0  0  0  0  0  0  0  0  0  0
   -4.6378    1.5989   -0.9427 N   0  0  0  0  0  0  0  0  0  0  0  0
   -4.8580    0.0227    0.8307 N   0  0  0  0  0  0  0  0  0  0  0  0
   -4.4729   -1.0669    1.5374 C   0  0  0  0  0  0  0  0  0  0  0  0
   -5.3420   -1.6249    2.5200 N   0  0  0  0  0  0  0  0  0  0  0  0
   -3.2822   -1.6539    1.2730 N   0  0  0  0  0  0  0  0  0  0  0  0
   -2.4291   -1.1328    0.3567 C   0  0  0  0  0  0  0  0  0  0  0  0
   -1.2636   -1.7765    0.1085 N   0  0  0  0  0  0  0  0  0  0  0  0
   -0.3529   -1.3013   -0.7712 C   0  0  0  0  0  0  0  0  0  0  0  0
    1.9819    0.7286    0.4203 C   0  0  0  0  0  0  0  0  0  0  0  0
    0.9585    1.6901    0.3912 O   0  0  0  0  0  0  0  0  0  0  0  0
    0.3563    2.2680    1.5441 C   0  0  0  0  0  0  0  0  0  0  0  0
    2.5971    0.3410    1.6253 C   0  0  0  0  0  0  0  0  0  0  0  0
    3.6464   -0.5795    1.6204 C   0  0  0  0  0  0  0  0  0  0  0  0
    6.5675   -3.3391   -0.3368 H   0  0  0  0  0  0  0  0  0  0  0  0
    6.1586   -1.9134   -1.3626 H   0  0  0  0  0  0  0  0  0  0  0  0
    4.9769   -3.2878   -1.1850 H   0  0  0  0  0  0  0  0  0  0  0  0
    3.8309   -1.1690   -1.7262 H   0  0  0  0  0  0  0  0  0  0  0  0
    2.4551    0.7957   -2.8934 H   0  0  0  0  0  0  0  0  0  0  0  0
    0.1358    0.7989   -3.3101 H   0  0  0  0  0  0  0  0  0  0  0  0
   -0.8457    2.5677   -1.6944 H   0  0  0  0  0  0  0  0  0  0  0  0
   -2.2817    2.1041   -2.6695 H   0  0  0  0  0  0  0  0  0  0  0  0
   -2.4277    2.7192   -0.9526 H   0  0  0  0  0  0  0  0  0  0  0  0
   -5.5012    2.0928   -0.6251 H   0  0  0  0  0  0  0  0  0  0  0  0
   -4.3996    1.6656   -1.9551 H   0  0  0  0  0  0  0  0  0  0  0  0
   -6.2696   -1.1871    2.7151 H   0  0  0  0  0  0  0  0  0  0  0  0
   -5.0583   -2.4755    3.0550 H   0  0  0  0  0  0  0  0  0  0  0  0
    0.5405   -1.8818   -0.9613 H   0  0  0  0  0  0  0  0  0  0  0  0
   -0.4467    2.9623    1.2223 H   0  0  0  0  0  0  0  0  0  0  0  0
    1.1106    2.8404    2.1238 H   0  0  0  0  0  0  0  0  0  0  0  0
   -0.0944    1.4738    2.1762 H   0  0  0  0  0  0  0  0  0  0  0  0
    2.2803    0.7555    2.5724 H   0  0  0  0  0  0  0  0  0  0  0  0
    4.1115   -0.8629    2.5562 H   0  0  0  0  0  0  0  0  0  0  0  0
  1  2  1  0
  2  3  1  0
  3  4  2  0
  4  5  1  0
  5  6  1  0
  6  7  2  0
  7  8  1  0
  8  9  2  0
  9 10  1  0
  9 11  1  0
 11 12  2  0
 12 13  1  0
 12 14  1  0
 14 15  2  0
 15 16  1  0
 15 17  1  0
 17 18  2  0
 18 19  1  0
 19 20  2  0
  5 21  2  0
 21 22  1  0
 22 23  1  0
 21 24  1  0
 24 25  2  0
 25  3  1  0
 20  8  1  0
 18 11  1  0
  1 26  1  0
  1 27  1  0
  1 28  1  0
  4 29  1  0
  6 30  1  0
  7 31  1  0
 10 32  1  0
 10 33  1  0
 10 34  1  0
 13 35  1  0
 13 36  1  0
 16 37  1  0
 16 38  1  0
 20 39  1  0
 23 40  1  0
 23 41  1  0
 23 42  1  0
 24 43  1  0
 25 44  1  0
M  END
$$$$
