
     RDKit          3D

121120  0  0  0  0  0  0  0  0999 V2000
   -1.9311    0.3378    1.3454 C   0  0  2  0  0  0  0  0  0  0  0  0
   -1.9740    0.3677    2.8788 C   0  0  0  0  0  0  0  0  0  0  0  0
   -3.2401   -0.0982    3.3391 O   0  0  0  0  0  0  0  0  0  0  0  0
   -3.5241   -0.3046    4.6931 C   0  0  0  0  0  0  0  0  0  0  0  0
   -2.6025   -0.2452    5.5517 O   0  0  0  0  0  0  0  0  0  0  0  0
   -4.9367   -0.5256    5.1557 C   0  0  0  0  0  0  0  0  0  0  0  0
   -5.9016   -0.9318    4.0312 C   0  0  0  0  0  0  0  0  0  0  0  0
   -5.6663   -2.3734    3.5493 C   0  0  0  0  0  0  0  0  0  0  0  0
   -6.6713   -2.7862    2.4509 C   0  0  0  0  0  0  0  0  0  0  0  0
   -6.0639   -2.8374    1.0367 C   0  0  0  0  0  0  0  0  0  0  0  0
   -5.5277   -1.4943    0.5150 C   0  0  0  0  0  0  0  0  0  0  0  0
   -6.6440   -0.4965    0.1710 C   0  0  0  0  0  0  0  0  0  0  0  0
   -6.0962    0.8872   -0.2229 C   0  0  0  0  0  0  0  0  0  0  0  0
   -5.1692    0.8975   -1.4556 C   0  0  0  0  0  0  0  0  0  0  0  0
   -5.7830    0.3016   -2.7343 C   0  0  0  0  0  0  0  0  0  0  0  0
   -7.0398    1.0577   -3.1983 C   0  0  0  0  0  0  0  0  0  0  0  0
   -7.5025    0.6326   -4.6011 C   0  0  0  0  0  0  0  0  0  0  0  0
   -8.1140   -0.7791   -4.6168 C   0  0  0  0  0  0  0  0  0  0  0  0
   -8.5929   -1.1971   -6.0159 C   0  0  0  0  0  0  0  0  0  0  0  0
   -9.8662   -0.4704   -6.4485 C   0  0  0  0  0  0  0  0  0  0  0  0
   -1.6173   -1.0702    0.8114 C   0  0  0  0  0  0  0  0  0  0  0  0
   -2.4420   -2.0332    1.4217 O   0  0  0  0  0  0  0  0  0  0  0  0
   -2.0764   -3.5564    0.7476 P   0  0  0  0  0  5  0  0  0  0  0  0
   -2.7149   -3.6354   -0.8225 O   0  0  0  0  0  0  0  0  0  0  0  0
   -2.7358   -4.6201    1.5956 O   0  0  0  0  0  0  0  0  0  0  0  0
   -0.3863   -3.8201    0.7732 O   0  0  0  0  0  0  0  0  0  0  0  0
    0.1166   -3.7522   -0.5408 C   0  0  0  0  0  0  0  0  0  0  0  0
    1.6430   -3.7550   -0.5016 C   0  0  0  0  0  0  0  0  0  0  0  0
    2.1424   -2.5267    0.1106 N   0  0  0  0  0  0  0  0  0  0  0  0
   -0.9126    1.2334    0.9001 O   0  0  0  0  0  0  0  0  0  0  0  0
   -0.7926    1.6638   -0.4253 C   0  0  0  0  0  0  0  0  0  0  0  0
   -1.7581    1.5577   -1.2294 O   0  0  0  0  0  0  0  0  0  0  0  0
    0.5250    2.1759   -0.9082 C   0  0  0  0  0  0  0  0  0  0  0  0
    1.3051    1.0397   -1.5827 C   0  0  0  0  0  0  0  0  0  0  0  0
    2.6850    1.4816   -2.1003 C   0  0  0  0  0  0  0  0  0  0  0  0
    3.6964    1.8654   -1.0043 C   0  0  0  0  0  0  0  0  0  0  0  0
    4.0186    0.7026   -0.0499 C   0  0  0  0  0  0  0  0  0  0  0  0
    5.1924    1.0265    0.8995 C   0  0  0  0  0  0  0  0  0  0  0  0
    6.5088    0.3277    0.5108 C   0  0  0  0  0  0  0  0  0  0  0  0
    7.1511    0.8432   -0.7904 C   0  0  0  0  0  0  0  0  0  0  0  0
    7.5912    2.3221   -0.7615 C   0  0  0  0  0  0  0  0  0  0  0  0
    8.5781    2.6905    0.3607 C   0  0  0  0  0  0  0  0  0  0  0  0
    9.8967    1.9074    0.2800 C   0  0  0  0  0  0  0  0  0  0  0  0
   10.9078    2.4257    1.3100 C   0  0  0  0  0  0  0  0  0  0  0  0
   12.2239    1.6376    1.2337 C   0  0  0  0  0  0  0  0  0  0  0  0
   13.2203    2.0448    2.3300 C   0  0  0  0  0  0  0  0  0  0  0  0
   13.8068    3.4386    2.1082 C   0  0  0  0  0  0  0  0  0  0  0  0
   -2.9177    0.6779    0.9588 H   0  0  0  0  0  0  0  0  0  0  0  0
   -1.1543   -0.2564    3.2992 H   0  0  0  0  0  0  0  0  0  0  0  0
   -1.8335    1.4125    3.2324 H   0  0  0  0  0  0  0  0  0  0  0  0
   -4.9491   -1.2958    5.9575 H   0  0  0  0  0  0  0  0  0  0  0  0
   -5.2992    0.4250    5.6020 H   0  0  0  0  0  0  0  0  0  0  0  0
   -6.9374   -0.8588    4.4296 H   0  0  0  0  0  0  0  0  0  0  0  0
   -5.8261   -0.2128    3.1888 H   0  0  0  0  0  0  0  0  0  0  0  0
   -4.6199   -2.4998    3.1974 H   0  0  0  0  0  0  0  0  0  0  0  0
   -5.7963   -3.0544    4.4192 H   0  0  0  0  0  0  0  0  0  0  0  0
   -7.0326   -3.8117    2.6845 H   0  0  0  0  0  0  0  0  0  0  0  0
   -7.5755   -2.1416    2.4615 H   0  0  0  0  0  0  0  0  0  0  0  0
   -6.8307   -3.2224    0.3295 H   0  0  0  0  0  0  0  0  0  0  0  0
   -5.2333   -3.5747    1.0371 H   0  0  0  0  0  0  0  0  0  0  0  0
   -4.8313   -1.0449    1.2487 H   0  0  0  0  0  0  0  0  0  0  0  0
   -4.9424   -1.7096   -0.4037 H   0  0  0  0  0  0  0  0  0  0  0  0
   -7.2841   -0.9044   -0.6396 H   0  0  0  0  0  0  0  0  0  0  0  0
   -7.2962   -0.3502    1.0567 H   0  0  0  0  0  0  0  0  0  0  0  0
   -6.9512    1.5737   -0.3996 H   0  0  0  0  0  0  0  0  0  0  0  0
   -5.5328    1.3052    0.6400 H   0  0  0  0  0  0  0  0  0  0  0  0
   -4.2353    0.3457   -1.2192 H   0  0  0  0  0  0  0  0  0  0  0  0
   -4.8678    1.9483   -1.6582 H   0  0  0  0  0  0  0  0  0  0  0  0
   -5.0124    0.3554   -3.5341 H   0  0  0  0  0  0  0  0  0  0  0  0
   -6.0108   -0.7716   -2.5733 H   0  0  0  0  0  0  0  0  0  0  0  0
   -7.8701    0.9020   -2.4765 H   0  0  0  0  0  0  0  0  0  0  0  0
   -6.8141    2.1462   -3.2260 H   0  0  0  0  0  0  0  0  0  0  0  0
   -6.6492    0.6862   -5.3122 H   0  0  0  0  0  0  0  0  0  0  0  0
   -8.2662    1.3654   -4.9362 H   0  0  0  0  0  0  0  0  0  0  0  0
   -7.3458   -1.5131   -4.2949 H   0  0  0  0  0  0  0  0  0  0  0  0
   -8.9592   -0.8373   -3.8963 H   0  0  0  0  0  0  0  0  0  0  0  0
   -8.8056   -2.2882   -6.0020 H   0  0  0  0  0  0  0  0  0  0  0  0
   -7.7900   -1.0218   -6.7645 H   0  0  0  0  0  0  0  0  0  0  0  0
   -9.6695    0.6093   -6.6102 H   0  0  0  0  0  0  0  0  0  0  0  0
  -10.2284   -0.9009   -7.4059 H   0  0  0  0  0  0  0  0  0  0  0  0
  -10.6628   -0.5919   -5.6841 H   0  0  0  0  0  0  0  0  0  0  0  0
   -0.5463   -1.2833    1.0300 H   0  0  0  0  0  0  0  0  0  0  0  0
   -1.7755   -1.0617   -0.2911 H   0  0  0  0  0  0  0  0  0  0  0  0
   -2.7607   -4.6019   -1.0339 H   0  0  0  0  0  0  0  0  0  0  0  0
   -0.2106   -2.8254   -1.0653 H   0  0  0  0  0  0  0  0  0  0  0  0
   -0.2178   -4.6424   -1.1184 H   0  0  0  0  0  0  0  0  0  0  0  0
    2.0265   -3.8243   -1.5431 H   0  0  0  0  0  0  0  0  0  0  0  0
    2.0073   -4.6418    0.0640 H   0  0  0  0  0  0  0  0  0  0  0  0
    1.9320   -2.5586    1.1347 H   0  0  0  0  0  0  0  0  0  0  0  0
    3.1844   -2.5296    0.0239 H   0  0  0  0  0  0  0  0  0  0  0  0
    0.3615    3.0065   -1.6286 H   0  0  0  0  0  0  0  0  0  0  0  0
    1.0873    2.5702   -0.0369 H   0  0  0  0  0  0  0  0  0  0  0  0
    1.4082    0.1779   -0.8900 H   0  0  0  0  0  0  0  0  0  0  0  0
    0.7167    0.6782   -2.4549 H   0  0  0  0  0  0  0  0  0  0  0  0
    3.1151    0.6543   -2.7062 H   0  0  0  0  0  0  0  0  0  0  0  0
    2.5540    2.3481   -2.7845 H   0  0  0  0  0  0  0  0  0  0  0  0
    4.6244    2.1906   -1.5160 H   0  0  0  0  0  0  0  0  0  0  0  0
    3.3286    2.7381   -0.4253 H   0  0  0  0  0  0  0  0  0  0  0  0
    3.1217    0.5032    0.5749 H   0  0  0  0  0  0  0  0  0  0  0  0
    4.2260   -0.2213   -0.6327 H   0  0  0  0  0  0  0  0  0  0  0  0
    4.9213    0.6597    1.9140 H   0  0  0  0  0  0  0  0  0  0  0  0
    5.3422    2.1217    1.0067 H   0  0  0  0  0  0  0  0  0  0  0  0
    6.3174   -0.7621    0.4007 H   0  0  0  0  0  0  0  0  0  0  0  0
    7.2316    0.4236    1.3476 H   0  0  0  0  0  0  0  0  0  0  0  0
    6.4427    0.6958   -1.6323 H   0  0  0  0  0  0  0  0  0  0  0  0
    8.0309    0.2075   -1.0252 H   0  0  0  0  0  0  0  0  0  0  0  0
    6.6998    2.9764   -0.6735 H   0  0  0  0  0  0  0  0  0  0  0  0
    8.0597    2.5641   -1.7403 H   0  0  0  0  0  0  0  0  0  0  0  0
    8.7998    3.7764    0.2682 H   0  0  0  0  0  0  0  0  0  0  0  0
    8.1047    2.5424    1.3542 H   0  0  0  0  0  0  0  0  0  0  0  0
    9.7029    0.8317    0.4795 H   0  0  0  0  0  0  0  0  0  0  0  0
   10.3265    2.0097   -0.7407 H   0  0  0  0  0  0  0  0  0  0  0  0
   11.1050    3.5008    1.1111 H   0  0  0  0  0  0  0  0  0  0  0  0
   10.4751    2.3260    2.3299 H   0  0  0  0  0  0  0  0  0  0  0  0
   12.0022    0.5549    1.3580 H   0  0  0  0  0  0  0  0  0  0  0  0
   12.6893    1.7732    0.2326 H   0  0  0  0  0  0  0  0  0  0  0  0
   12.7315    2.0003    3.3276 H   0  0  0  0  0  0  0  0  0  0  0  0
   14.0565    1.3124    2.3333 H   0  0  0  0  0  0  0  0  0  0  0  0
   13.0266    4.2180    2.2302 H   0  0  0  0  0  0  0  0  0  0  0  0
   14.6028    3.6272    2.8591 H   0  0  0  0  0  0  0  0  0  0  0  0
   14.2532    3.5161    1.0940 H   0  0  0  0  0  0  0  0  0  0  0  0
  1  2  1  0
  2  3  1  0
  3  4  1  0
  4  5  2  0
  4  6  1  0
  6  7  1  0
  7  8  1  0
  8  9  1  0
  9 10  1  0
 10 11  1  0
 11 12  1  0
 12 13  1  0
 13 14  1  0
 14 15  1  0
 15 16  1  0
 16 17  1  0
 17 18  1  0
 18 19  1  0
 19 20  1  0
  1 21  1  0
 21 22  1  0
 22 23  1  0
 23 24  1  0
 23 25  2  0
 23 26  1  0
 26 27  1  0
 27 28  1  0
 28 29  1  0
  1 30  1  0
 30 31  1  0
 31 32  2  0
 31 33  1  0
 33 34  1  0
 34 35  1  0
 35 36  1  0
 36 37  1  0
 37 38  1  0
 38 39  1  0
 39 40  1  0
 40 41  1  0
 41 42  1  0
 42 43  1  0
 43 44  1  0
 44 45  1  0
 45 46  1  0
 46 47  1  0
  1 48  1  6
  2 49  1  0
  2 50  1  0
  6 51  1  0
  6 52  1  0
  7 53  1  0
  7 54  1  0
  8 55  1  0
  8 56  1  0
  9 57  1  0
  9 58  1  0
 10 59  1  0
 10 60  1  0
 11 61  1  0
 11 62  1  0
 12 63  1  0
 12 64  1  0
 13 65  1  0
 13 66  1  0
 14 67  1  0
 14 68  1  0
 15 69  1  0
 15 70  1  0
 16 71  1  0
 16 72  1  0
 17 73  1  0
 17 74  1  0
 18 75  1  0
 18 76  1  0
 19 77  1  0
 19 78  1  0
 20 79  1  0
 20 80  1  0
 20 81  1  0
 21 82  1  0
 21 83  1  0
 24 84  1  0
 27 85  1  0
 27 86  1  0
 28 87  1  0
 28 88  1  0
 29 89  1  0
 29 90  1  0
 33 91  1  0
 33 92  1  0
 34 93  1  0
 34 94  1  0
 35 95  1  0
 35 96  1  0
 36 97  1  0
 36 98  1  0
 37 99  1  0
 37100  1  0
 38101  1  0
 38102  1  0
 39103  1  0
 39104  1  0
 40105  1  0
 40106  1  0
 41107  1  0
 41108  1  0
 42109  1  0
 42110  1  0
 43111  1  0
 43112  1  0
 44113  1  0
 44114  1  0
 45115  1  0
 45116  1  0
 46117  1  0
 46118  1  0
 47119  1  0
 47120  1  0
 47121  1  0
M  END
$$$$
