
     RDKit          3D

 59 61  0  0  0  0  0  0  0  0999 V2000
    0.1700    1.2758    0.5843 C   0  0  2  0  0  0  0  0  0  0  0  0
    0.8888    0.7370   -0.6790 C   0  0  0  0  0  0  0  0  0  0  0  0
    2.1034   -0.5275   -0.3053 S   0  0  0  0  0  6  0  0  0  0  0  0
    1.4289   -1.8018    0.1188 O   0  0  0  0  0  0  0  0  0  0  0  0
    3.0101   -0.0530    0.7959 O   0  0  0  0  0  0  0  0  0  0  0  0
    3.0685   -0.8375   -1.7736 C   0  0  0  0  0  0  0  0  0  0  0  0
    4.0830   -1.9160   -1.5161 C   0  0  0  0  0  0  0  0  0  0  0  0
    5.3553   -1.5884   -1.0183 C   0  0  0  0  0  0  0  0  0  0  0  0
    6.2863   -2.5961   -0.7477 C   0  0  0  0  0  0  0  0  0  0  0  0
    5.9515   -3.9357   -0.9637 C   0  0  0  0  0  0  0  0  0  0  0  0
    4.6837   -4.2702   -1.4476 C   0  0  0  0  0  0  0  0  0  0  0  0
    3.7497   -3.2657   -1.7197 C   0  0  0  0  0  0  0  0  0  0  0  0
   -0.5773    0.2592    1.3639 N   0  0  0  0  0  0  0  0  0  0  0  0
   -1.5024   -0.6448    0.6342 C   0  0  1  0  0  0  0  0  0  0  0  0
   -1.8621   -1.8202    1.5305 C   0  0  0  0  0  0  0  0  0  0  0  0
   -1.7401   -3.1392    1.0569 C   0  0  0  0  0  0  0  0  0  0  0  0
   -2.0812   -4.2197    1.8756 C   0  0  0  0  0  0  0  0  0  0  0  0
   -2.5529   -3.9972    3.1757 C   0  0  0  0  0  0  0  0  0  0  0  0
   -2.8956   -5.0666    4.0000 O   0  0  0  0  0  0  0  0  0  0  0  0
   -2.6824   -2.6893    3.6518 C   0  0  0  0  0  0  0  0  0  0  0  0
   -2.3421   -1.6063    2.8362 C   0  0  0  0  0  0  0  0  0  0  0  0
   -2.7928    0.0728    0.1798 C   0  0  0  0  0  0  0  0  0  0  0  0
   -3.7788   -0.8510   -0.1261 F   0  0  0  0  0  0  0  0  0  0  0  0
   -2.5515    0.8116   -0.9614 F   0  0  0  0  0  0  0  0  0  0  0  0
   -3.2640    0.9090    1.1765 F   0  0  0  0  0  0  0  0  0  0  0  0
   -0.6795    2.5087    0.3579 C   0  0  0  0  0  0  0  0  0  0  0  0
   -1.1874    3.0715    1.3661 O   0  0  0  0  0  0  0  0  0  0  0  0
   -0.8858    3.0782   -0.9477 N   0  0  0  0  0  0  0  0  0  0  0  0
   -1.6539    4.3065   -1.1462 C   0  0  0  0  0  0  0  0  0  0  0  0
   -3.1724    4.1859   -1.3216 C   0  0  0  0  0  0  0  0  0  0  0  0
   -3.7838    3.6870   -0.0954 N   0  0  0  0  0  0  0  0  0  0  0  0
   -0.9485    5.3246   -2.0307 C   0  0  0  0  0  0  0  0  0  0  0  0
   -1.0698    5.5682   -0.5298 C   0  0  0  0  0  0  0  0  0  0  0  0
    0.9888    1.6446    1.2430 H   0  0  0  0  0  0  0  0  0  0  0  0
    1.4468    1.5748   -1.1495 H   0  0  0  0  0  0  0  0  0  0  0  0
    0.1744    0.3596   -1.4378 H   0  0  0  0  0  0  0  0  0  0  0  0
    3.5737    0.1029   -2.0813 H   0  0  0  0  0  0  0  0  0  0  0  0
    2.3868   -1.1374   -2.5980 H   0  0  0  0  0  0  0  0  0  0  0  0
    5.6239   -0.5548   -0.8380 H   0  0  0  0  0  0  0  0  0  0  0  0
    7.2663   -2.3386   -0.3672 H   0  0  0  0  0  0  0  0  0  0  0  0
    6.6727   -4.7145   -0.7524 H   0  0  0  0  0  0  0  0  0  0  0  0
    4.4233   -5.3083   -1.6088 H   0  0  0  0  0  0  0  0  0  0  0  0
    2.7676   -3.5387   -2.0855 H   0  0  0  0  0  0  0  0  0  0  0  0
    0.1277   -0.3190    1.8803 H   0  0  0  0  0  0  0  0  0  0  0  0
   -1.0109   -1.0551   -0.2694 H   0  0  0  0  0  0  0  0  0  0  0  0
   -1.3812   -3.3334    0.0538 H   0  0  0  0  0  0  0  0  0  0  0  0
   -1.9799   -5.2293    1.4980 H   0  0  0  0  0  0  0  0  0  0  0  0
   -2.8133   -6.0260    3.6842 H   0  0  0  0  0  0  0  0  0  0  0  0
   -3.0478   -2.5117    4.6553 H   0  0  0  0  0  0  0  0  0  0  0  0
   -2.4493   -0.6011    3.2238 H   0  0  0  0  0  0  0  0  0  0  0  0
   -0.5721    2.5743   -1.8053 H   0  0  0  0  0  0  0  0  0  0  0  0
   -3.3760    3.4732   -2.1497 H   0  0  0  0  0  0  0  0  0  0  0  0
   -3.6258    5.1664   -1.5922 H   0  0  0  0  0  0  0  0  0  0  0  0
   -3.7215    4.4390    0.6290 H   0  0  0  0  0  0  0  0  0  0  0  0
   -4.8013    3.5377   -0.2840 H   0  0  0  0  0  0  0  0  0  0  0  0
   -1.6022    5.9858   -2.6387 H   0  0  0  0  0  0  0  0  0  0  0  0
    0.0815    5.0575   -2.3508 H   0  0  0  0  0  0  0  0  0  0  0  0
   -0.1165    5.4322    0.0241 H   0  0  0  0  0  0  0  0  0  0  0  0
   -1.8104    6.3499   -0.2574 H   0  0  0  0  0  0  0  0  0  0  0  0
  1  2  1  0
  2  3  1  0
  3  4  2  0
  3  5  2  0
  3  6  1  0
  6  7  1  0
  7  8  2  0
  8  9  1  0
  9 10  2  0
 10 11  1  0
 11 12  2  0
  1 13  1  0
 13 14  1  0
 14 15  1  0
 15 16  2  0
 16 17  1  0
 17 18  2  0
 18 19  1  0
 18 20  1  0
 20 21  2  0
 14 22  1  0
 22 23  1  0
 22 24  1  0
 22 25  1  0
  1 26  1  0
 26 27  2  0
 26 28  1  0
 28 29  1  0
 29 30  1  0
 30 31  1  0
 29 32  1  0
 32 33  1  0
 12  7  1  0
 21 15  1  0
 33 29  1  0
  1 34  1  1
  2 35  1  0
  2 36  1  0
  6 37  1  0
  6 38  1  0
  8 39  1  0
  9 40  1  0
 10 41  1  0
 11 42  1  0
 12 43  1  0
 13 44  1  0
 14 45  1  6
 16 46  1  0
 17 47  1  0
 19 48  1  0
 20 49  1  0
 21 50  1  0
 28 51  1  0
 30 52  1  0
 30 53  1  0
 31 54  1  0
 31 55  1  0
 32 56  1  0
 32 57  1  0
 33 58  1  0
 33 59  1  0
M  END
$$$$
