
     RDKit          3D

 42 44  0  0  0  0  0  0  0  0999 V2000
   -6.0346   -0.8078   -2.8165 O   0  0  0  0  0  0  0  0  0  0  0  0
   -6.5077   -1.2207   -1.5732 C   0  0  0  0  0  0  0  0  0  0  0  0
   -7.6708   -1.6992   -1.4910 O   0  0  0  0  0  0  0  0  0  0  0  0
   -5.6469   -1.0948   -0.3690 C   0  0  0  0  0  0  0  0  0  0  0  0
   -4.3532   -0.5549   -0.5026 C   0  0  0  0  0  0  0  0  0  0  0  0
   -3.5099   -0.4187    0.6058 C   0  0  0  0  0  0  0  0  0  0  0  0
   -3.9605   -0.8266    1.8706 C   0  0  0  0  0  0  0  0  0  0  0  0
   -5.2394   -1.3633    2.0194 C   0  0  0  0  0  0  0  0  0  0  0  0
   -6.0878   -1.5017    0.9119 C   0  0  0  0  0  0  0  0  0  0  0  0
   -7.3616   -2.0418    1.0905 O   0  0  0  0  0  0  0  0  0  0  0  0
   -2.2026    0.1364    0.4172 N   0  0  0  0  0  0  0  0  0  0  0  0
   -1.3848    0.2883    1.3806 N   0  0  0  0  0  0  0  0  0  0  0  0
   -0.0779    0.8432    1.1908 C   0  0  0  0  0  0  0  0  0  0  0  0
    0.3734    1.2542   -0.0767 C   0  0  0  0  0  0  0  0  0  0  0  0
    1.6557    1.7904   -0.2265 C   0  0  0  0  0  0  0  0  0  0  0  0
    2.5012    1.9184    0.8830 C   0  0  0  0  0  0  0  0  0  0  0  0
    2.0509    1.5145    2.1469 C   0  0  0  0  0  0  0  0  0  0  0  0
    0.7683    0.9788    2.2979 C   0  0  0  0  0  0  0  0  0  0  0  0
    4.1190    2.5831    0.6817 S   0  0  0  0  0  6  0  0  0  0  0  0
    4.0322    4.0828    0.6547 O   0  0  0  0  0  0  0  0  0  0  0  0
    5.0078    2.1618    1.8185 O   0  0  0  0  0  0  0  0  0  0  0  0
    4.8058    2.0192   -0.8063 N   0  0  0  0  0  0  0  0  0  0  0  0
    4.9506    0.6224   -1.0911 C   0  0  0  0  0  0  0  0  0  0  0  0
    4.5792   -0.3109   -0.1697 N   0  0  0  0  0  0  0  0  0  0  0  0
    4.6958   -1.6442   -0.4091 C   0  0  0  0  0  0  0  0  0  0  0  0
    5.2091   -2.0931   -1.6277 C   0  0  0  0  0  0  0  0  0  0  0  0
    5.5985   -1.1591   -2.5892 C   0  0  0  0  0  0  0  0  0  0  0  0
    5.4706    0.2061   -2.3243 C   0  0  0  0  0  0  0  0  0  0  0  0
   -6.6108   -0.8880   -3.6459 H   0  0  0  0  0  0  0  0  0  0  0  0
   -3.9902   -0.2353   -1.4718 H   0  0  0  0  0  0  0  0  0  0  0  0
   -3.3262   -0.7311    2.7425 H   0  0  0  0  0  0  0  0  0  0  0  0
   -5.5729   -1.6735    3.0016 H   0  0  0  0  0  0  0  0  0  0  0  0
   -7.6921   -2.3379    2.0016 H   0  0  0  0  0  0  0  0  0  0  0  0
   -0.2621    1.1613   -0.9480 H   0  0  0  0  0  0  0  0  0  0  0  0
    1.9902    2.1029   -1.2077 H   0  0  0  0  0  0  0  0  0  0  0  0
    2.6900    1.6123    3.0149 H   0  0  0  0  0  0  0  0  0  0  0  0
    0.4319    0.6680    3.2792 H   0  0  0  0  0  0  0  0  0  0  0  0
    5.0995    2.7287   -1.5144 H   0  0  0  0  0  0  0  0  0  0  0  0
    4.3894   -2.3552    0.3464 H   0  0  0  0  0  0  0  0  0  0  0  0
    5.3040   -3.1531   -1.8243 H   0  0  0  0  0  0  0  0  0  0  0  0
    5.9979   -1.4924   -3.5383 H   0  0  0  0  0  0  0  0  0  0  0  0
    5.7708    0.9308   -3.0706 H   0  0  0  0  0  0  0  0  0  0  0  0
  1  2  1  0
  2  3  2  0
  2  4  1  0
  4  5  2  0
  5  6  1  0
  6  7  2  0
  7  8  1  0
  8  9  2  0
  9 10  1  0
  6 11  1  0
 11 12  2  0
 12 13  1  0
 13 14  2  0
 14 15  1  0
 15 16  2  0
 16 17  1  0
 17 18  2  0
 16 19  1  0
 19 20  2  0
 19 21  2  0
 19 22  1  0
 22 23  1  0
 23 24  2  0
 24 25  1  0
 25 26  2  0
 26 27  1  0
 27 28  2  0
  9  4  1  0
 18 13  1  0
 28 23  1  0
  1 29  1  0
  5 30  1  0
  7 31  1  0
  8 32  1  0
 10 33  1  0
 14 34  1  0
 15 35  1  0
 17 36  1  0
 18 37  1  0
 22 38  1  0
 25 39  1  0
 26 40  1  0
 27 41  1  0
 28 42  1  0
M  END
$$$$
