
     RDKit          3D

 26 28  0  0  0  0  0  0  0  0999 V2000
   -3.0378    0.3702    1.2316 C   0  0  0  0  0  0  0  0  0  0  0  0
   -1.5641    0.7524    1.3958 C   0  0  0  0  0  0  0  0  0  0  0  0
   -0.7493    0.0651    0.3872 N   0  0  0  0  0  0  0  0  0  0  0  0
   -1.0506   -1.3423    0.0993 C   0  0  0  0  0  0  0  0  0  0  0  0
   -2.5665   -1.5555    0.0438 C   0  0  0  0  0  0  0  0  0  0  0  0
   -3.1914   -1.0354    1.2009 O   0  0  0  0  0  0  0  0  0  0  0  0
    0.4667    0.6837   -0.0821 C   0  0  0  0  0  0  0  0  0  0  0  0
    1.6491   -0.0306   -0.2980 C   0  0  0  0  0  0  0  0  0  0  0  0
    1.9198   -1.3336   -0.0968 N   0  0  0  0  0  0  0  0  0  0  0  0
    3.2321   -1.4275   -0.4455 C   0  0  0  0  0  0  0  0  0  0  0  0
    3.7749   -0.2491   -0.8392 N   0  0  0  0  0  0  0  0  0  0  0  0
    2.7586    0.6114   -0.7335 C   0  0  0  0  0  0  0  0  0  0  0  0
    2.7881    1.9429   -0.9742 N   0  0  0  0  0  0  0  0  0  0  0  0
    1.6412    2.6555   -0.7677 C   0  0  0  0  0  0  0  0  0  0  0  0
    0.5039    2.0302   -0.3254 N   0  0  0  0  0  0  0  0  0  0  0  0
   -3.6073    0.7688    2.0974 H   0  0  0  0  0  0  0  0  0  0  0  0
   -3.4633    0.8430    0.3167 H   0  0  0  0  0  0  0  0  0  0  0  0
   -1.2146    0.4548    2.4080 H   0  0  0  0  0  0  0  0  0  0  0  0
   -1.4709    1.8558    1.3037 H   0  0  0  0  0  0  0  0  0  0  0  0
   -0.6202   -1.6396   -0.8816 H   0  0  0  0  0  0  0  0  0  0  0  0
   -0.6156   -1.9819    0.8975 H   0  0  0  0  0  0  0  0  0  0  0  0
   -2.7705   -2.6457   -0.0080 H   0  0  0  0  0  0  0  0  0  0  0  0
   -2.9901   -1.1015   -0.8815 H   0  0  0  0  0  0  0  0  0  0  0  0
    3.7903   -2.3534   -0.4039 H   0  0  0  0  0  0  0  0  0  0  0  0
    4.7566   -0.0588   -1.1392 H   0  0  0  0  0  0  0  0  0  0  0  0
    1.6312    3.7212   -0.9500 H   0  0  0  0  0  0  0  0  0  0  0  0
  1  2  1  0
  2  3  1  0
  3  4  1  0
  4  5  1  0
  5  6  1  0
  3  7  1  0
  7  8  2  0
  8  9  1  0
  9 10  2  0
 10 11  1  0
 11 12  1  0
 12 13  2  0
 13 14  1  0
 14 15  2  0
  6  1  1  0
 15  7  1  0
 12  8  1  0
  1 16  1  0
  1 17  1  0
  2 18  1  0
  2 19  1  0
  4 20  1  0
  4 21  1  0
  5 22  1  0
  5 23  1  0
 10 24  1  0
 11 25  1  0
 14 26  1  0
M  END
$$$$
