
     RDKit          3D

 63 65  0  0  0  0  0  0  0  0999 V2000
    3.3003    2.9881   -3.0398 C   0  0  0  0  0  0  0  0  0  0  0  0
    4.1838    2.1624   -2.4651 C   0  0  0  0  0  0  0  0  0  0  0  0
    4.0351    0.6846   -2.5416 C   0  0  0  0  0  0  0  0  0  0  0  0
    2.8798    0.0308   -2.3030 C   0  0  0  0  0  0  0  0  0  0  0  0
    1.6705    0.6745   -1.7391 C   0  0  0  0  0  0  0  0  0  0  0  0
    0.4547    0.0947   -1.7437 C   0  0  0  0  0  0  0  0  0  0  0  0
    0.1882   -1.2223   -2.4587 C   0  0  0  0  0  0  0  0  0  0  0  0
   -1.3214   -1.4941   -2.6655 C   0  0  0  0  0  0  0  0  0  0  0  0
   -2.2066   -1.2869   -1.4051 C   0  0  0  0  0  0  0  0  0  0  0  0
   -1.6221   -0.2613   -0.3867 C   0  0  2  0  0  0  0  0  0  0  0  0
   -0.8151   -1.0249    0.7158 C   0  0  0  0  0  0  0  0  0  0  0  0
   -2.6741    0.6750    0.2528 C   0  0  2  0  0  0  0  0  0  0  0  0
   -1.8821    1.9276    0.6799 C   0  0  0  0  0  0  0  0  0  0  0  0
   -0.5757    1.9141   -0.1316 C   0  0  0  0  0  0  0  0  0  0  0  0
   -0.7533    0.7666   -1.1274 C   0  0  1  0  0  0  0  0  0  0  0  0
   -3.4285    0.0785    1.3704 C   0  0  0  0  0  0  0  0  0  0  0  0
   -4.0445   -0.4109    2.2834 C   0  0  0  0  0  0  0  0  0  0  0  0
   -4.7631   -0.9859    3.3528 C   0  0  0  0  0  0  0  0  0  0  0  0
   -5.3761   -1.4780    4.2668 C   0  0  0  0  0  0  0  0  0  0  0  0
   -6.1265   -2.0805    5.3863 C   0  0  0  0  0  0  0  0  0  0  0  0
   -5.8667   -3.5909    5.4034 C   0  0  0  0  0  0  0  0  0  0  0  0
   -7.5051   -1.8677    5.2029 O   0  0  0  0  0  0  0  0  0  0  0  0
   -5.6660   -1.4563    6.7141 C   0  0  0  0  0  0  0  0  0  0  0  0
    5.2726   -0.0917   -2.9240 C   0  0  0  0  0  0  0  0  0  0  0  0
    6.4986    0.4104   -2.1385 C   0  0  1  0  0  0  0  0  0  0  0  0
    7.6566   -0.2309   -2.6047 O   0  0  0  0  0  0  0  0  0  0  0  0
    6.6689    1.9314   -2.3027 C   0  0  0  0  0  0  0  0  0  0  0  0
    5.4306    2.7072   -1.8115 C   0  0  2  0  0  0  0  0  0  0  0  0
    5.2993    2.5869   -0.4190 O   0  0  0  0  0  0  0  0  0  0  0  0
    2.4417    2.6038   -3.5757 H   0  0  0  0  0  0  0  0  0  0  0  0
    3.4325    4.0620   -3.0021 H   0  0  0  0  0  0  0  0  0  0  0  0
    2.8577   -1.0414   -2.4542 H   0  0  0  0  0  0  0  0  0  0  0  0
    1.7863    1.6448   -1.2774 H   0  0  0  0  0  0  0  0  0  0  0  0
    0.6619   -1.2014   -3.4643 H   0  0  0  0  0  0  0  0  0  0  0  0
    0.6423   -2.0585   -1.8867 H   0  0  0  0  0  0  0  0  0  0  0  0
   -1.6848   -0.8106   -3.4647 H   0  0  0  0  0  0  0  0  0  0  0  0
   -1.4574   -2.5297   -3.0453 H   0  0  0  0  0  0  0  0  0  0  0  0
   -3.2113   -0.9590   -1.7499 H   0  0  0  0  0  0  0  0  0  0  0  0
   -2.3677   -2.2706   -0.9121 H   0  0  0  0  0  0  0  0  0  0  0  0
   -0.4064   -0.3355    1.4829 H   0  0  0  0  0  0  0  0  0  0  0  0
   -1.4659   -1.7568    1.2394 H   0  0  0  0  0  0  0  0  0  0  0  0
    0.0321   -1.5974    0.2917 H   0  0  0  0  0  0  0  0  0  0  0  0
   -3.4133    0.9868   -0.5193 H   0  0  0  0  0  0  0  0  0  0  0  0
   -1.6436    1.9107    1.7672 H   0  0  0  0  0  0  0  0  0  0  0  0
   -2.4687    2.8467    0.4612 H   0  0  0  0  0  0  0  0  0  0  0  0
    0.2861    1.7257    0.5453 H   0  0  0  0  0  0  0  0  0  0  0  0
   -0.4204    2.8801   -0.6601 H   0  0  0  0  0  0  0  0  0  0  0  0
   -1.3392    1.1873   -1.9797 H   0  0  0  0  0  0  0  0  0  0  0  0
   -6.4286   -4.0685    6.2347 H   0  0  0  0  0  0  0  0  0  0  0  0
   -6.2029   -4.0518    4.4491 H   0  0  0  0  0  0  0  0  0  0  0  0
   -4.7839   -3.8052    5.5385 H   0  0  0  0  0  0  0  0  0  0  0  0
   -7.6669   -0.8869    5.1942 H   0  0  0  0  0  0  0  0  0  0  0  0
   -5.8278   -0.3566    6.7054 H   0  0  0  0  0  0  0  0  0  0  0  0
   -4.5849   -1.6503    6.8865 H   0  0  0  0  0  0  0  0  0  0  0  0
   -6.2433   -1.8859    7.5607 H   0  0  0  0  0  0  0  0  0  0  0  0
    5.1458   -1.1790   -2.7255 H   0  0  0  0  0  0  0  0  0  0  0  0
    5.4482    0.0353   -4.0145 H   0  0  0  0  0  0  0  0  0  0  0  0
    6.3584    0.1840   -1.0550 H   0  0  0  0  0  0  0  0  0  0  0  0
    7.6358   -1.1566   -2.2459 H   0  0  0  0  0  0  0  0  0  0  0  0
    7.5636    2.2663   -1.7338 H   0  0  0  0  0  0  0  0  0  0  0  0
    6.8470    2.1698   -3.3750 H   0  0  0  0  0  0  0  0  0  0  0  0
    5.5691    3.7817   -2.0794 H   0  0  0  0  0  0  0  0  0  0  0  0
    5.9964    3.1660   -0.0132 H   0  0  0  0  0  0  0  0  0  0  0  0
  1  2  2  0
  2  3  1  0
  3  4  2  0
  4  5  1  0
  5  6  2  0
  6  7  1  0
  7  8  1  0
  8  9  1  0
  9 10  1  0
 10 11  1  1
 10 12  1  0
 12 13  1  0
 13 14  1  0
 14 15  1  0
 12 16  1  0
 16 17  3  0
 17 18  1  0
 18 19  3  0
 19 20  1  0
 20 21  1  0
 20 22  1  0
 20 23  1  0
  3 24  1  0
 24 25  1  0
 25 26  1  0
 25 27  1  0
 27 28  1  0
 28 29  1  0
 28  2  1  0
 15  6  1  0
 15 10  1  0
  1 30  1  0
  1 31  1  0
  4 32  1  0
  5 33  1  0
  7 34  1  0
  7 35  1  0
  8 36  1  0
  8 37  1  0
  9 38  1  0
  9 39  1  0
 11 40  1  0
 11 41  1  0
 11 42  1  0
 12 43  1  6
 13 44  1  0
 13 45  1  0
 14 46  1  0
 14 47  1  0
 15 48  1  6
 21 49  1  0
 21 50  1  0
 21 51  1  0
 22 52  1  0
 23 53  1  0
 23 54  1  0
 23 55  1  0
 24 56  1  0
 24 57  1  0
 25 58  1  1
 26 59  1  0
 27 60  1  0
 27 61  1  0
 28 62  1  1
 29 63  1  0
M  END
$$$$
