
     RDKit          3D

106110  0  0  0  0  0  0  0  0999 V2000
   -3.3985   -1.8308   -0.5606 C   0  0  1  0  0  0  0  0  0  0  0  0
   -3.8931   -1.2509    0.7972 C   0  0  1  0  0  0  0  0  0  0  0  0
   -3.7583    0.1527    0.7671 O   0  0  0  0  0  0  0  0  0  0  0  0
   -5.3695   -1.6549    1.2752 C   0  0  2  0  0  0  0  0  0  0  0  0
   -6.3945   -0.5638    0.7782 C   0  0  0  0  0  0  0  0  0  0  0  0
   -7.8752   -0.9546    0.6913 C   0  0  0  0  0  0  0  0  0  0  0  0
   -5.2962   -1.6299    2.8568 C   0  0  0  0  0  0  0  0  0  0  0  0
   -6.5611   -1.9439    3.7004 C   0  0  0  0  0  0  0  0  0  0  0  0
   -7.3236   -0.6965    4.1882 C   0  0  0  0  0  0  0  0  0  0  0  0
   -6.6403   -0.0149    5.3747 C   0  0  0  0  0  0  0  0  0  0  0  0
   -5.7427   -3.1202    0.8281 C   0  0  0  0  0  0  0  0  0  0  0  0
   -5.9863   -3.4442   -0.9347 S   0  0  0  0  0  6  0  0  0  0  0  0
   -7.4356   -3.7712   -1.1658 O   0  0  0  0  0  0  0  0  0  0  0  0
   -5.1703   -4.6435   -1.3286 O   0  0  0  0  0  0  0  0  0  0  0  0
   -5.5056   -2.0854   -1.9515 C   0  0  0  0  0  0  0  0  0  0  0  0
   -6.3495   -1.6626   -2.9847 C   0  0  0  0  0  0  0  0  0  0  0  0
   -6.0342   -0.5348   -3.7421 C   0  0  0  0  0  0  0  0  0  0  0  0
   -4.8718    0.2105   -3.4729 C   0  0  0  0  0  0  0  0  0  0  0  0
   -4.0253   -0.2224   -2.4341 C   0  0  0  0  0  0  0  0  0  0  0  0
   -4.3089   -1.3894   -1.6962 C   0  0  0  0  0  0  0  0  0  0  0  0
   -4.5542    1.3976   -4.2442 N   0  0  0  0  0  0  0  0  0  0  0  0
   -5.6128    2.1430   -4.9356 C   0  0  0  0  0  0  0  0  0  0  0  0
   -3.1685    1.8713   -4.3471 C   0  0  0  0  0  0  0  0  0  0  0  0
   -1.9196   -1.6016   -0.8981 C   0  0  0  0  0  0  0  0  0  0  0  0
   -1.4015   -2.2244   -2.0503 C   0  0  0  0  0  0  0  0  0  0  0  0
   -0.0698   -2.0448   -2.4248 C   0  0  0  0  0  0  0  0  0  0  0  0
    0.7778   -1.2586   -1.6460 C   0  0  0  0  0  0  0  0  0  0  0  0
    0.3028   -0.6600   -0.4683 C   0  0  0  0  0  0  0  0  0  0  0  0
    1.1538    0.1661    0.3454 N   0  0  0  0  0  0  0  0  0  0  0  0
    2.5573   -0.0668    0.5353 C   0  0  0  0  0  0  0  0  0  0  0  0
    3.0701   -1.1703    0.2026 O   0  0  0  0  0  0  0  0  0  0  0  0
    3.3678    0.9498    1.1417 N   0  0  0  0  0  0  0  0  0  0  0  0
    4.8214    0.8358    1.2711 C   0  0  2  0  0  0  0  0  0  0  0  0
    5.2272    1.5540    2.4239 O   0  0  0  0  0  0  0  0  0  0  0  0
    6.6138    1.3783    2.6631 C   0  0  2  0  0  0  0  0  0  0  0  0
    6.9641    2.0316    4.0061 C   0  0  0  0  0  0  0  0  0  0  0  0
    6.6438    3.4030    3.9713 O   0  0  0  0  0  0  0  0  0  0  0  0
    7.0684    4.0947    5.4591 S   0  0  0  0  0  6  0  0  0  0  0  0
    6.6716    5.7272    5.4310 O   0  0  0  0  0  0  0  0  0  0  0  0
    6.3078    3.4331    6.5746 O   0  0  0  0  0  0  0  0  0  0  0  0
    8.5458    3.9544    5.7026 O   0  0  0  0  0  0  0  0  0  0  0  0
    7.4431    1.9881    1.5026 C   0  0  1  0  0  0  0  0  0  0  0  0
    8.8231    1.8245    1.7199 O   0  0  0  0  0  0  0  0  0  0  0  0
    7.0262    1.3532    0.1613 C   0  0  2  0  0  0  0  0  0  0  0  0
    7.6225    2.0765   -0.9061 O   0  0  0  0  0  0  0  0  0  0  0  0
    8.6553    1.3372   -1.5303 C   0  0  0  0  0  0  0  0  0  0  0  0
    8.0828    0.3865   -2.5479 C   0  0  0  0  0  0  0  0  0  0  0  0
    7.5132    0.8846   -3.7310 C   0  0  0  0  0  0  0  0  0  0  0  0
    6.9421    0.0097   -4.6603 C   0  0  0  0  0  0  0  0  0  0  0  0
    6.9327   -1.3658   -4.4132 C   0  0  0  0  0  0  0  0  0  0  0  0
    7.4940   -1.8685   -3.2362 C   0  0  0  0  0  0  0  0  0  0  0  0
    8.0663   -0.9970   -2.3043 C   0  0  0  0  0  0  0  0  0  0  0  0
    5.4961    1.4199    0.0129 C   0  0  1  0  0  0  0  0  0  0  0  0
    5.0969    0.6868   -1.1169 O   0  0  0  0  0  0  0  0  0  0  0  0
   -1.0441   -0.8235   -0.1079 C   0  0  0  0  0  0  0  0  0  0  0  0
   -3.4385   -2.9334   -0.4661 H   0  0  0  0  0  0  0  0  0  0  0  0
   -3.1660   -1.6675    1.5354 H   0  0  0  0  0  0  0  0  0  0  0  0
   -3.5470    0.4531    1.6887 H   0  0  0  0  0  0  0  0  0  0  0  0
   -6.3111    0.3332    1.4276 H   0  0  0  0  0  0  0  0  0  0  0  0
   -6.1162   -0.1876   -0.2240 H   0  0  0  0  0  0  0  0  0  0  0  0
   -8.4851   -0.0333    0.5798 H   0  0  0  0  0  0  0  0  0  0  0  0
   -8.2365   -1.4867    1.5855 H   0  0  0  0  0  0  0  0  0  0  0  0
   -8.0663   -1.5750   -0.2025 H   0  0  0  0  0  0  0  0  0  0  0  0
   -4.5345   -2.3799    3.1682 H   0  0  0  0  0  0  0  0  0  0  0  0
   -4.8849   -0.6552    3.1896 H   0  0  0  0  0  0  0  0  0  0  0  0
   -7.2591   -2.6203    3.1805 H   0  0  0  0  0  0  0  0  0  0  0  0
   -6.2472   -2.5222    4.5978 H   0  0  0  0  0  0  0  0  0  0  0  0
   -8.3389   -1.0113    4.5134 H   0  0  0  0  0  0  0  0  0  0  0  0
   -7.4558    0.0399    3.3724 H   0  0  0  0  0  0  0  0  0  0  0  0
   -7.2627    0.8383    5.7176 H   0  0  0  0  0  0  0  0  0  0  0  0
   -6.5271   -0.7276    6.2190 H   0  0  0  0  0  0  0  0  0  0  0  0
   -5.6425    0.3769    5.0898 H   0  0  0  0  0  0  0  0  0  0  0  0
   -6.6751   -3.4547    1.3156 H   0  0  0  0  0  0  0  0  0  0  0  0
   -4.9538   -3.8129    1.1921 H   0  0  0  0  0  0  0  0  0  0  0  0
   -7.2646   -2.1984   -3.2008 H   0  0  0  0  0  0  0  0  0  0  0  0
   -6.7096   -0.2483   -4.5362 H   0  0  0  0  0  0  0  0  0  0  0  0
   -3.1460    0.3542   -2.1842 H   0  0  0  0  0  0  0  0  0  0  0  0
   -6.4671    2.3130   -4.2463 H   0  0  0  0  0  0  0  0  0  0  0  0
   -5.9563    1.5739   -5.8245 H   0  0  0  0  0  0  0  0  0  0  0  0
   -5.2548    3.1377   -5.2758 H   0  0  0  0  0  0  0  0  0  0  0  0
   -2.8585    2.3424   -3.3910 H   0  0  0  0  0  0  0  0  0  0  0  0
   -3.0539    2.6212   -5.1583 H   0  0  0  0  0  0  0  0  0  0  0  0
   -2.4938    1.0203   -4.5812 H   0  0  0  0  0  0  0  0  0  0  0  0
   -2.0401   -2.8412   -2.6712 H   0  0  0  0  0  0  0  0  0  0  0  0
    0.3043   -2.5109   -3.3273 H   0  0  0  0  0  0  0  0  0  0  0  0
    1.7964   -1.1042   -1.9761 H   0  0  0  0  0  0  0  0  0  0  0  0
    0.7133    0.9416    0.8902 H   0  0  0  0  0  0  0  0  0  0  0  0
    2.9196    1.8615    1.3876 H   0  0  0  0  0  0  0  0  0  0  0  0
    5.0902   -0.2413    1.3818 H   0  0  0  0  0  0  0  0  0  0  0  0
    6.8525    0.2928    2.7614 H   0  0  0  0  0  0  0  0  0  0  0  0
    6.3768    1.5182    4.8003 H   0  0  0  0  0  0  0  0  0  0  0  0
    8.0477    1.8801    4.2109 H   0  0  0  0  0  0  0  0  0  0  0  0
    7.0829    6.0734    4.5990 H   0  0  0  0  0  0  0  0  0  0  0  0
    7.2323    3.0793    1.4485 H   0  0  0  0  0  0  0  0  0  0  0  0
    9.0019    0.8508    1.7980 H   0  0  0  0  0  0  0  0  0  0  0  0
    7.3048    0.2705    0.1794 H   0  0  0  0  0  0  0  0  0  0  0  0
    9.3081    0.8134   -0.7941 H   0  0  0  0  0  0  0  0  0  0  0  0
    9.3197    2.0541   -2.0573 H   0  0  0  0  0  0  0  0  0  0  0  0
    7.5051    1.9496   -3.9280 H   0  0  0  0  0  0  0  0  0  0  0  0
    6.5033    0.3985   -5.5700 H   0  0  0  0  0  0  0  0  0  0  0  0
    6.4885   -2.0416   -5.1325 H   0  0  0  0  0  0  0  0  0  0  0  0
    7.4828   -2.9336   -3.0442 H   0  0  0  0  0  0  0  0  0  0  0  0
    8.4904   -1.4002   -1.3932 H   0  0  0  0  0  0  0  0  0  0  0  0
    5.1804    2.4866   -0.0888 H   0  0  0  0  0  0  0  0  0  0  0  0
    5.1924    1.2887   -1.9003 H   0  0  0  0  0  0  0  0  0  0  0  0
   -1.3776   -0.3503    0.8018 H   0  0  0  0  0  0  0  0  0  0  0  0
  1  2  1  0
  2  3  1  0
  2  4  1  0
  4  5  1  6
  5  6  1  0
  4  7  1  0
  7  8  1  0
  8  9  1  0
  9 10  1  0
  4 11  1  0
 11 12  1  0
 12 13  2  0
 12 14  2  0
 12 15  1  0
 15 16  2  0
 16 17  1  0
 17 18  2  0
 18 19  1  0
 19 20  2  0
 18 21  1  0
 21 22  1  0
 21 23  1  0
  1 24  1  0
 24 25  2  0
 25 26  1  0
 26 27  2  0
 27 28  1  0
 28 29  1  0
 29 30  1  0
 30 31  2  0
 30 32  1  0
 32 33  1  0
 33 34  1  0
 34 35  1  0
 35 36  1  0
 36 37  1  0
 37 38  1  0
 38 39  1  0
 38 40  2  0
 38 41  2  0
 35 42  1  0
 42 43  1  0
 42 44  1  0
 44 45  1  0
 45 46  1  0
 46 47  1  0
 47 48  2  0
 48 49  1  0
 49 50  2  0
 50 51  1  0
 51 52  2  0
 44 53  1  0
 53 54  1  0
 28 55  2  0
 20  1  1  0
 55 24  1  0
 20 15  1  0
 53 33  1  0
 52 47  1  0
  1 56  1  1
  2 57  1  1
  3 58  1  0
  5 59  1  0
  5 60  1  0
  6 61  1  0
  6 62  1  0
  6 63  1  0
  7 64  1  0
  7 65  1  0
  8 66  1  0
  8 67  1  0
  9 68  1  0
  9 69  1  0
 10 70  1  0
 10 71  1  0
 10 72  1  0
 11 73  1  0
 11 74  1  0
 16 75  1  0
 17 76  1  0
 19 77  1  0
 22 78  1  0
 22 79  1  0
 22 80  1  0
 23 81  1  0
 23 82  1  0
 23 83  1  0
 25 84  1  0
 26 85  1  0
 27 86  1  0
 29 87  1  0
 32 88  1  0
 33 89  1  1
 35 90  1  1
 36 91  1  0
 36 92  1  0
 39 93  1  0
 42 94  1  6
 43 95  1  0
 44 96  1  1
 46 97  1  0
 46 98  1  0
 48 99  1  0
 49100  1  0
 50101  1  0
 51102  1  0
 52103  1  0
 53104  1  6
 54105  1  0
 55106  1  0
M  END
$$$$
