
     RDKit          3D

 45 48  0  0  0  0  0  0  0  0999 V2000
    0.7016    2.8127   -0.2721 C   0  0  0  0  0  0  0  0  0  0  0  0
   -0.0688    2.4540    0.8742 O   0  0  0  0  0  0  0  0  0  0  0  0
   -0.8171    1.2753    0.9620 C   0  0  0  0  0  0  0  0  0  0  0  0
   -1.4765    0.9382    2.1333 C   0  0  0  0  0  0  0  0  0  0  0  0
   -1.5342    1.5798    3.3050 N   0  0  0  0  0  0  0  0  0  0  0  0
   -2.3074    0.7719    4.0744 C   0  0  0  0  0  0  0  0  0  0  0  0
   -2.7348   -0.3505    3.4325 N   0  0  0  0  0  0  0  0  0  0  0  0
   -2.1896   -0.2058    2.2133 C   0  0  0  0  0  0  0  0  0  0  0  0
   -2.2975   -1.0630    1.1707 N   0  0  0  0  0  0  0  0  0  0  0  0
   -1.6670   -0.7430   -0.0037 C   0  0  0  0  0  0  0  0  0  0  0  0
   -1.7223   -1.6297   -1.1300 N   0  0  0  0  0  0  0  0  0  0  0  0
   -2.6285   -2.7399   -1.2412 C   0  0  0  0  0  0  0  0  0  0  0  0
   -3.9479   -2.6612   -0.7576 C   0  0  0  0  0  0  0  0  0  0  0  0
   -4.8172   -3.7473   -0.9013 C   0  0  0  0  0  0  0  0  0  0  0  0
   -4.3840   -4.9123   -1.5395 C   0  0  0  0  0  0  0  0  0  0  0  0
   -3.0833   -4.9897   -2.0437 C   0  0  0  0  0  0  0  0  0  0  0  0
   -2.2114   -3.9056   -1.9027 C   0  0  0  0  0  0  0  0  0  0  0  0
   -0.9293    0.4119   -0.0932 N   0  0  0  0  0  0  0  0  0  0  0  0
    1.9913    1.9748   -0.3601 C   0  0  0  0  0  0  0  0  0  0  0  0
    2.8967    2.2088    0.8646 C   0  0  0  0  0  0  0  0  0  0  0  0
    4.1333    1.2860    0.8436 C   0  0  0  0  0  0  0  0  0  0  0  0
    4.5779    0.8841   -0.5767 C   0  0  0  0  0  0  0  0  0  0  0  0
    4.2645    1.9823   -1.5970 C   0  0  0  0  0  0  0  0  0  0  0  0
    2.7526    2.2812   -1.6754 C   0  0  0  0  0  0  0  0  0  0  0  0
    0.9634    3.8899   -0.1954 H   0  0  0  0  0  0  0  0  0  0  0  0
    0.0901    2.6802   -1.1918 H   0  0  0  0  0  0  0  0  0  0  0  0
   -1.0880    2.4857    3.5704 H   0  0  0  0  0  0  0  0  0  0  0  0
   -2.5591    0.9965    5.1024 H   0  0  0  0  0  0  0  0  0  0  0  0
   -1.0019   -1.5048   -1.8771 H   0  0  0  0  0  0  0  0  0  0  0  0
   -4.3150   -1.7556   -0.2934 H   0  0  0  0  0  0  0  0  0  0  0  0
   -5.8303   -3.6821   -0.5258 H   0  0  0  0  0  0  0  0  0  0  0  0
   -5.0588   -5.7511   -1.6513 H   0  0  0  0  0  0  0  0  0  0  0  0
   -2.7511   -5.8891   -2.5461 H   0  0  0  0  0  0  0  0  0  0  0  0
   -1.2064   -3.9765   -2.2995 H   0  0  0  0  0  0  0  0  0  0  0  0
    1.7061    0.8994   -0.3721 H   0  0  0  0  0  0  0  0  0  0  0  0
    2.3314    2.0274    1.8045 H   0  0  0  0  0  0  0  0  0  0  0  0
    3.2310    3.2702    0.8736 H   0  0  0  0  0  0  0  0  0  0  0  0
    4.9716    1.8031    1.3595 H   0  0  0  0  0  0  0  0  0  0  0  0
    3.9127    0.3608    1.4195 H   0  0  0  0  0  0  0  0  0  0  0  0
    4.0560   -0.0502   -0.8802 H   0  0  0  0  0  0  0  0  0  0  0  0
    5.6694    0.6743   -0.5783 H   0  0  0  0  0  0  0  0  0  0  0  0
    4.6353    1.6760   -2.5990 H   0  0  0  0  0  0  0  0  0  0  0  0
    4.8105    2.9070   -1.3063 H   0  0  0  0  0  0  0  0  0  0  0  0
    2.3027    1.6753   -2.4924 H   0  0  0  0  0  0  0  0  0  0  0  0
    2.6294    3.3506   -1.9565 H   0  0  0  0  0  0  0  0  0  0  0  0
  1  2  1  0
  2  3  1  0
  3  4  2  0
  4  5  1  0
  5  6  1  0
  6  7  2  0
  7  8  1  0
  8  9  2  0
  9 10  1  0
 10 11  1  0
 11 12  1  0
 12 13  2  0
 13 14  1  0
 14 15  2  0
 15 16  1  0
 16 17  2  0
 10 18  2  0
  1 19  1  0
 19 20  1  0
 20 21  1  0
 21 22  1  0
 22 23  1  0
 23 24  1  0
 18  3  1  0
 24 19  1  0
  8  4  1  0
 17 12  1  0
  1 25  1  0
  1 26  1  0
  5 27  1  0
  6 28  1  0
 11 29  1  0
 13 30  1  0
 14 31  1  0
 15 32  1  0
 16 33  1  0
 17 34  1  0
 19 35  1  0
 20 36  1  0
 20 37  1  0
 21 38  1  0
 21 39  1  0
 22 40  1  0
 22 41  1  0
 23 42  1  0
 23 43  1  0
 24 44  1  0
 24 45  1  0
M  END
$$$$
