
     RDKit          3D

 87 87  0  0  0  0  0  0  0  0999 V2000
   -6.8828    3.0513   -0.0966 C   0  0  1  0  0  0  0  0  0  0  0  0
   -6.5603    3.5310   -1.4422 N   0  0  0  0  0  0  0  0  0  0  0  0
   -5.8237    2.0451    0.3975 C   0  0  0  0  0  0  0  0  0  0  0  0
   -4.3995    2.6226    0.4347 C   0  0  0  0  0  0  0  0  0  0  0  0
   -3.4295    1.5778    0.8886 C   0  0  0  0  0  0  0  0  0  0  0  0
   -3.1332    1.4969    2.2510 O   0  0  0  0  0  0  0  0  0  0  0  0
   -2.9296    0.7596    0.0039 N   0  0  0  0  0  0  0  0  0  0  0  0
   -1.9937   -0.3557    0.1915 C   0  0  1  0  0  0  0  0  0  0  0  0
   -0.5817    0.1456    0.5583 C   0  0  0  0  0  0  0  0  0  0  0  0
    0.1417    1.1252   -0.7563 S   0  0  0  0  0  6  0  0  0  0  0  0
    0.2508    0.2958   -2.0054 O   0  0  0  0  0  0  0  0  0  0  0  0
   -0.7234    2.3222   -1.0342 O   0  0  0  0  0  0  0  0  0  0  0  0
    1.7650    1.7008   -0.2786 C   0  0  0  0  0  0  0  0  0  0  0  0
    2.7277    0.5390   -0.0551 C   0  0  0  0  0  0  0  0  0  0  0  0
    4.0039    1.0568    0.2377 O   0  0  0  0  0  0  0  0  0  0  0  0
    5.1485   -0.2146    0.1921 P   0  0  0  0  0  5  0  0  0  0  0  0
    4.5290   -1.4819    0.7478 O   0  0  0  0  0  0  0  0  0  0  0  0
    6.5326    0.2340    1.2070 N   0  0  0  0  0  0  0  0  0  0  0  0
    6.1811    0.1178    2.6412 C   0  0  0  0  0  0  0  0  0  0  0  0
    6.6145   -1.2430    3.1872 C   0  0  0  0  0  0  0  0  0  0  0  0
    8.3855   -1.4300    3.0919 Cl  0  0  0  0  0  0  0  0  0  0  0  0
    6.9782    1.5989    0.8639 C   0  0  0  0  0  0  0  0  0  0  0  0
    8.4602    1.7744    1.1950 C   0  0  0  0  0  0  0  0  0  0  0  0
    9.0178    3.3847    0.6756 Cl  0  0  0  0  0  0  0  0  0  0  0  0
    5.7461   -0.4850   -1.4662 N   0  0  0  0  0  0  0  0  0  0  0  0
    5.3748   -1.8299   -1.9576 C   0  0  0  0  0  0  0  0  0  0  0  0
    6.3659   -2.8818   -1.4548 C   0  0  0  0  0  0  0  0  0  0  0  0
    8.0058   -2.5488   -2.0714 Cl  0  0  0  0  0  0  0  0  0  0  0  0
    5.2857    0.5797   -2.3829 C   0  0  0  0  0  0  0  0  0  0  0  0
    6.2751    0.7770   -3.5356 C   0  0  0  0  0  0  0  0  0  0  0  0
    7.8863    1.2400   -2.9261 Cl  0  0  0  0  0  0  0  0  0  0  0  0
   -2.5354   -1.3837    1.1712 C   0  0  0  0  0  0  0  0  0  0  0  0
   -1.8647   -1.5947    2.3750 O   0  0  0  0  0  0  0  0  0  0  0  0
   -3.6086   -2.0856    0.9287 N   0  0  0  0  0  0  0  0  0  0  0  0
   -4.4365   -2.0555   -0.2821 C   0  0  1  0  0  0  0  0  0  0  0  0
   -3.7514   -2.7655   -1.4146 C   0  0  0  0  0  0  0  0  0  0  0  0
   -3.8363   -2.2480   -2.7032 O   0  0  0  0  0  0  0  0  0  0  0  0
   -3.1290   -3.8429   -1.2107 O   0  0  0  0  0  0  0  0  0  0  0  0
   -5.7694   -2.7100   -0.0042 C   0  0  0  0  0  0  0  0  0  0  0  0
   -5.8379   -3.9656    0.6298 C   0  0  0  0  0  0  0  0  0  0  0  0
   -7.0755   -4.5711    0.8670 C   0  0  0  0  0  0  0  0  0  0  0  0
   -8.2543   -3.9358    0.4691 C   0  0  0  0  0  0  0  0  0  0  0  0
   -8.1977   -2.6950   -0.1702 C   0  0  0  0  0  0  0  0  0  0  0  0
   -6.9628   -2.0850   -0.4105 C   0  0  0  0  0  0  0  0  0  0  0  0
   -7.0166    4.2081    0.8563 C   0  0  0  0  0  0  0  0  0  0  0  0
   -6.2755    5.3705    0.6600 O   0  0  0  0  0  0  0  0  0  0  0  0
   -7.7733    4.1100    1.8592 O   0  0  0  0  0  0  0  0  0  0  0  0
   -7.8620    2.5208   -0.1344 H   0  0  0  0  0  0  0  0  0  0  0  0
   -7.3455    4.1395   -1.7711 H   0  0  0  0  0  0  0  0  0  0  0  0
   -6.5424    2.7091   -2.0893 H   0  0  0  0  0  0  0  0  0  0  0  0
   -5.8397    1.1603   -0.2757 H   0  0  0  0  0  0  0  0  0  0  0  0
   -6.1049    1.6901    1.4141 H   0  0  0  0  0  0  0  0  0  0  0  0
   -4.3537    3.4815    1.1373 H   0  0  0  0  0  0  0  0  0  0  0  0
   -4.1045    2.9859   -0.5738 H   0  0  0  0  0  0  0  0  0  0  0  0
   -2.5088    0.8157    2.6533 H   0  0  0  0  0  0  0  0  0  0  0  0
   -1.8926   -0.8698   -0.7867 H   0  0  0  0  0  0  0  0  0  0  0  0
    0.0771   -0.7313    0.7320 H   0  0  0  0  0  0  0  0  0  0  0  0
   -0.5930    0.7541    1.4839 H   0  0  0  0  0  0  0  0  0  0  0  0
    1.6770    2.2983    0.6537 H   0  0  0  0  0  0  0  0  0  0  0  0
    2.1593    2.3569   -1.0838 H   0  0  0  0  0  0  0  0  0  0  0  0
    2.3651   -0.0657    0.8044 H   0  0  0  0  0  0  0  0  0  0  0  0
    2.7418   -0.0875   -0.9755 H   0  0  0  0  0  0  0  0  0  0  0  0
    6.6874    0.8946    3.2560 H   0  0  0  0  0  0  0  0  0  0  0  0
    5.0905    0.2595    2.8145 H   0  0  0  0  0  0  0  0  0  0  0  0
    6.1362   -2.0674    2.6209 H   0  0  0  0  0  0  0  0  0  0  0  0
    6.3075   -1.3275    4.2510 H   0  0  0  0  0  0  0  0  0  0  0  0
    6.3685    2.3675    1.3915 H   0  0  0  0  0  0  0  0  0  0  0  0
    6.8748    1.7859   -0.2245 H   0  0  0  0  0  0  0  0  0  0  0  0
    8.6368    1.6775    2.2857 H   0  0  0  0  0  0  0  0  0  0  0  0
    9.0573    1.0022    0.6648 H   0  0  0  0  0  0  0  0  0  0  0  0
    4.3384   -2.1010   -1.6591 H   0  0  0  0  0  0  0  0  0  0  0  0
    5.3895   -1.8732   -3.0678 H   0  0  0  0  0  0  0  0  0  0  0  0
    6.0506   -3.8847   -1.8123 H   0  0  0  0  0  0  0  0  0  0  0  0
    6.3971   -2.9019   -0.3463 H   0  0  0  0  0  0  0  0  0  0  0  0
    4.2783    0.3462   -2.7944 H   0  0  0  0  0  0  0  0  0  0  0  0
    5.2096    1.5584   -1.8635 H   0  0  0  0  0  0  0  0  0  0  0  0
    6.3718   -0.1440   -4.1450 H   0  0  0  0  0  0  0  0  0  0  0  0
    5.9054    1.5875   -4.1986 H   0  0  0  0  0  0  0  0  0  0  0  0
   -2.1992   -2.2721    3.0502 H   0  0  0  0  0  0  0  0  0  0  0  0
   -4.6144   -1.0021   -0.5791 H   0  0  0  0  0  0  0  0  0  0  0  0
   -3.3902   -2.7177   -3.4820 H   0  0  0  0  0  0  0  0  0  0  0  0
   -4.9338   -4.4746    0.9397 H   0  0  0  0  0  0  0  0  0  0  0  0
   -7.1205   -5.5347    1.3578 H   0  0  0  0  0  0  0  0  0  0  0  0
   -9.2114   -4.4065    0.6531 H   0  0  0  0  0  0  0  0  0  0  0  0
   -9.1115   -2.2061   -0.4824 H   0  0  0  0  0  0  0  0  0  0  0  0
   -6.9394   -1.1265   -0.9138 H   0  0  0  0  0  0  0  0  0  0  0  0
   -6.3463    6.1472    1.3064 H   0  0  0  0  0  0  0  0  0  0  0  0
  1  2  1  0
  1  3  1  0
  3  4  1  0
  4  5  1  0
  5  6  1  0
  5  7  2  3
  7  8  1  0
  8  9  1  0
  9 10  1  0
 10 11  2  0
 10 12  2  0
 10 13  1  0
 13 14  1  0
 14 15  1  0
 15 16  1  0
 16 17  2  0
 16 18  1  0
 18 19  1  0
 19 20  1  0
 20 21  1  0
 18 22  1  0
 22 23  1  0
 23 24  1  0
 16 25  1  0
 25 26  1  0
 26 27  1  0
 27 28  1  0
 25 29  1  0
 29 30  1  0
 30 31  1  0
  8 32  1  0
 32 33  1  0
 32 34  2  3
 34 35  1  0
 35 36  1  0
 36 37  1  0
 36 38  2  0
 35 39  1  0
 39 40  2  0
 40 41  1  0
 41 42  2  0
 42 43  1  0
 43 44  2  0
  1 45  1  0
 45 46  1  0
 45 47  2  0
 44 39  1  0
  1 48  1  6
  2 49  1  0
  2 50  1  0
  3 51  1  0
  3 52  1  0
  4 53  1  0
  4 54  1  0
  6 55  1  0
  8 56  1  6
  9 57  1  0
  9 58  1  0
 13 59  1  0
 13 60  1  0
 14 61  1  0
 14 62  1  0
 19 63  1  0
 19 64  1  0
 20 65  1  0
 20 66  1  0
 22 67  1  0
 22 68  1  0
 23 69  1  0
 23 70  1  0
 26 71  1  0
 26 72  1  0
 27 73  1  0
 27 74  1  0
 29 75  1  0
 29 76  1  0
 30 77  1  0
 30 78  1  0
 33 79  1  0
 35 80  1  6
 37 81  1  0
 40 82  1  0
 41 83  1  0
 42 84  1  0
 43 85  1  0
 44 86  1  0
 46 87  1  0
M  END
$$$$
