
     RDKit          3D

 55 58  0  0  0  0  0  0  0  0999 V2000
    5.0341   -0.1184    0.4501 C   0  0  2  0  0  0  0  0  0  0  0  0
    4.5965   -1.5353    0.8465 C   0  0  0  0  0  0  0  0  0  0  0  0
    3.0990   -1.6747    0.7540 C   0  0  0  0  0  0  0  0  0  0  0  0
    2.5013   -2.1407   -0.4274 C   0  0  0  0  0  0  0  0  0  0  0  0
    1.1093   -2.2015   -0.5388 C   0  0  0  0  0  0  0  0  0  0  0  0
    0.2941   -1.7871    0.5310 C   0  0  0  0  0  0  0  0  0  0  0  0
   -1.1053   -1.8143    0.4648 O   0  0  0  0  0  0  0  0  0  0  0  0
   -1.8541   -2.2109   -0.6810 C   0  0  0  0  0  0  0  0  0  0  0  0
   -3.3441   -2.0269   -0.4082 C   0  0  0  0  0  0  0  0  0  0  0  0
   -3.6454   -0.6163   -0.1410 N   0  0  0  0  0  0  0  0  0  0  0  0
   -3.8755    0.3614   -1.0543 C   0  0  0  0  0  0  0  0  0  0  0  0
   -4.0309    1.5894   -0.4411 C   0  0  0  0  0  0  0  0  0  0  0  0
   -4.2611    2.7572   -1.1659 C   0  0  0  0  0  0  0  0  0  0  0  0
   -4.3346    2.6544   -2.5658 C   0  0  0  0  0  0  0  0  0  0  0  0
   -4.1713    1.4047   -3.2022 C   0  0  0  0  0  0  0  0  0  0  0  0
   -3.9356    0.2415   -2.4468 C   0  0  0  0  0  0  0  0  0  0  0  0
   -3.8772    1.3708    0.9088 C   0  0  0  0  0  0  0  0  0  0  0  0
   -3.6359    0.0188    1.0597 C   0  0  0  0  0  0  0  0  0  0  0  0
   -3.3938   -0.5297    2.3241 C   0  0  0  0  0  0  0  0  0  0  0  0
   -3.4130    0.3326    3.4354 C   0  0  0  0  0  0  0  0  0  0  0  0
   -3.6659    1.7117    3.2710 C   0  0  0  0  0  0  0  0  0  0  0  0
   -3.8992    2.2468    1.9925 C   0  0  0  0  0  0  0  0  0  0  0  0
    0.8928   -1.3220    1.7070 C   0  0  0  0  0  0  0  0  0  0  0  0
    2.2843   -1.2605    1.8188 C   0  0  0  0  0  0  0  0  0  0  0  0
    4.6924    0.1103   -0.9087 O   0  0  0  0  0  0  0  0  0  0  0  0
    4.2841    1.4479   -1.1255 C   0  0  0  0  0  0  0  0  0  0  0  0
    2.7761    1.5834   -0.9332 C   0  0  0  0  0  0  0  0  0  0  0  0
    6.5187    0.0208    0.6246 C   0  0  0  0  0  0  0  0  0  0  0  0
    7.0251    0.6809    1.7398 O   0  0  0  0  0  0  0  0  0  0  0  0
    7.3079   -0.4847   -0.2185 O   0  0  0  0  0  0  0  0  0  0  0  0
    4.5300    0.5889    1.1529 H   0  0  0  0  0  0  0  0  0  0  0  0
    5.0896   -2.2837    0.1866 H   0  0  0  0  0  0  0  0  0  0  0  0
    4.9227   -1.7517    1.8883 H   0  0  0  0  0  0  0  0  0  0  0  0
    3.1134   -2.4454   -1.2672 H   0  0  0  0  0  0  0  0  0  0  0  0
    0.6780   -2.5645   -1.4616 H   0  0  0  0  0  0  0  0  0  0  0  0
   -1.5625   -1.5915   -1.5570 H   0  0  0  0  0  0  0  0  0  0  0  0
   -1.6535   -3.2806   -0.9060 H   0  0  0  0  0  0  0  0  0  0  0  0
   -3.9275   -2.3802   -1.2846 H   0  0  0  0  0  0  0  0  0  0  0  0
   -3.6497   -2.6581    0.4526 H   0  0  0  0  0  0  0  0  0  0  0  0
   -4.3748    3.7134   -0.6720 H   0  0  0  0  0  0  0  0  0  0  0  0
   -4.5121    3.5411   -3.1604 H   0  0  0  0  0  0  0  0  0  0  0  0
   -4.2243    1.3414   -4.2813 H   0  0  0  0  0  0  0  0  0  0  0  0
   -3.8019   -0.7112   -2.9407 H   0  0  0  0  0  0  0  0  0  0  0  0
   -3.1899   -1.5830    2.4579 H   0  0  0  0  0  0  0  0  0  0  0  0
   -3.2288   -0.0646    4.4251 H   0  0  0  0  0  0  0  0  0  0  0  0
   -3.6746    2.3631    4.1352 H   0  0  0  0  0  0  0  0  0  0  0  0
   -4.0831    3.3047    1.8578 H   0  0  0  0  0  0  0  0  0  0  0  0
    0.2749   -0.9958    2.5342 H   0  0  0  0  0  0  0  0  0  0  0  0
    2.7271   -0.8785    2.7304 H   0  0  0  0  0  0  0  0  0  0  0  0
    4.5222    1.7113   -2.1774 H   0  0  0  0  0  0  0  0  0  0  0  0
    4.8294    2.1809   -0.4859 H   0  0  0  0  0  0  0  0  0  0  0  0
    2.2431    0.8664   -1.5931 H   0  0  0  0  0  0  0  0  0  0  0  0
    2.4575    2.6152   -1.1912 H   0  0  0  0  0  0  0  0  0  0  0  0
    2.4979    1.3790    0.1216 H   0  0  0  0  0  0  0  0  0  0  0  0
    8.0242    0.7734    1.8793 H   0  0  0  0  0  0  0  0  0  0  0  0
  1  2  1  0
  2  3  1  0
  3  4  2  0
  4  5  1  0
  5  6  2  0
  6  7  1  0
  7  8  1  0
  8  9  1  0
  9 10  1  0
 10 11  1  0
 11 12  1  0
 12 13  2  0
 13 14  1  0
 14 15  2  0
 15 16  1  0
 12 17  1  0
 17 18  2  0
 18 19  1  0
 19 20  2  0
 20 21  1  0
 21 22  2  0
  6 23  1  0
 23 24  2  0
  1 25  1  0
 25 26  1  0
 26 27  1  0
  1 28  1  0
 28 29  1  0
 28 30  2  0
 24  3  1  0
 18 10  1  0
 16 11  2  0
 22 17  1  0
  1 31  1  1
  2 32  1  0
  2 33  1  0
  4 34  1  0
  5 35  1  0
  8 36  1  0
  8 37  1  0
  9 38  1  0
  9 39  1  0
 13 40  1  0
 14 41  1  0
 15 42  1  0
 16 43  1  0
 19 44  1  0
 20 45  1  0
 21 46  1  0
 22 47  1  0
 23 48  1  0
 24 49  1  0
 26 50  1  0
 26 51  1  0
 27 52  1  0
 27 53  1  0
 27 54  1  0
 29 55  1  0
M  END
$$$$
