
     RDKit          3D

153153  0  0  0  0  0  0  0  0999 V2000
   -1.6892    3.4121   -1.6119 C   0  0  0  0  0  0  0  0  0  0  0  0
   -1.3640    2.9366   -0.1981 C   0  0  0  0  0  0  0  0  0  0  0  0
    0.0394    2.3082   -0.0658 C   0  0  0  0  0  0  0  0  0  0  0  0
    0.2493    0.9578   -0.7948 C   0  0  2  0  0  0  0  0  0  0  0  0
    0.4578    1.1439   -2.2380 N   0  0  0  0  0  0  0  0  0  0  0  0
    0.8380    0.0671   -3.1083 C   0  0  0  0  0  0  0  0  0  0  0  0
    0.8436   -1.1204   -2.6847 O   0  0  0  0  0  0  0  0  0  0  0  0
    1.1926    0.3441   -4.5489 C   0  0  1  0  0  0  0  0  0  0  0  0
    2.2793   -0.5428   -4.9846 N   0  0  0  0  0  0  0  0  0  0  0  0
    3.6077   -0.4248   -4.4529 C   0  0  0  0  0  0  0  0  0  0  0  0
    3.8992    0.5435   -3.6990 O   0  0  0  0  0  0  0  0  0  0  0  0
    4.6328   -1.4970   -4.7391 C   0  0  2  0  0  0  0  0  0  0  0  0
    4.5312   -2.5587   -3.7286 N   0  0  0  0  0  0  0  0  0  0  0  0
    4.7456   -2.3714   -2.3189 C   0  0  0  0  0  0  0  0  0  0  0  0
    5.0738   -1.2417   -1.8659 O   0  0  0  0  0  0  0  0  0  0  0  0
    4.5231   -3.5251   -1.3694 C   0  0  1  0  0  0  0  0  0  0  0  0
    5.2877   -3.3376   -0.1273 N   0  0  0  0  0  0  0  0  0  0  0  0
    6.7203   -3.2618   -0.1096 C   0  0  0  0  0  0  0  0  0  0  0  0
    7.3822   -3.4431   -1.1676 O   0  0  0  0  0  0  0  0  0  0  0  0
    7.4358   -2.9295    1.1632 C   0  0  0  0  0  0  0  0  0  0  0  0
    7.1978   -1.5310    1.5143 N   0  0  0  0  0  0  0  0  0  0  0  0
    6.1430   -1.1191    2.3969 C   0  0  0  0  0  0  0  0  0  0  0  0
    5.4482   -1.9768    3.0061 O   0  0  0  0  0  0  0  0  0  0  0  0
    5.8330    0.3358    2.5788 C   0  0  0  0  0  0  0  0  0  0  0  0
    4.7707    0.7481    1.6515 N   0  0  0  0  0  0  0  0  0  0  0  0
    3.3686    0.5676    2.0442 C   0  0  0  0  0  0  0  0  0  0  0  0
    5.1044    1.2614    0.3425 C   0  0  0  0  0  0  0  0  0  0  0  0
    4.0461    1.7460   -0.6023 C   0  0  0  0  0  0  0  0  0  0  0  0
    6.3068    1.2915   -0.0365 O   0  0  0  0  0  0  0  0  0  0  0  0
    3.0037   -3.7203   -1.1014 C   0  0  0  0  0  0  0  0  0  0  0  0
    2.7273   -5.0392   -0.3663 C   0  0  0  0  0  0  0  0  0  0  0  0
    2.3636   -2.5442   -0.3443 C   0  0  0  0  0  0  0  0  0  0  0  0
    6.0880   -0.9507   -4.8548 C   0  0  1  0  0  0  0  0  0  0  0  0
    7.0895   -2.0922   -5.1051 C   0  0  0  0  0  0  0  0  0  0  0  0
    6.2435    0.1701   -5.9183 C   0  0  0  0  0  0  0  0  0  0  0  0
    5.8437   -0.2324   -7.3406 C   0  0  0  0  0  0  0  0  0  0  0  0
   -0.0419    0.2346   -5.4776 C   0  0  1  0  0  0  0  0  0  0  0  0
   -0.7819   -1.1087   -5.3626 C   0  0  0  0  0  0  0  0  0  0  0  0
   -0.9300    1.2832   -5.1851 O   0  0  0  0  0  0  0  0  0  0  0  0
   -0.8661   -0.0150   -0.5028 C   0  0  0  0  0  0  0  0  0  0  0  0
   -1.7686   -0.2222   -1.3601 O   0  0  0  0  0  0  0  0  0  0  0  0
   -0.9239   -0.6598    0.7783 N   0  0  0  0  0  0  0  0  0  0  0  0
   -1.9902   -1.6038    1.1314 C   0  0  1  0  0  0  0  0  0  0  0  0
   -1.6187   -2.4423    2.3928 C   0  0  1  0  0  0  0  0  0  0  0  0
   -2.7405   -3.4474    2.7309 C   0  0  0  0  0  0  0  0  0  0  0  0
   -0.2733   -3.1858    2.1837 C   0  0  0  0  0  0  0  0  0  0  0  0
    0.2121   -3.9325    3.4273 C   0  0  0  0  0  0  0  0  0  0  0  0
   -3.2655   -0.8298    1.3486 C   0  0  0  0  0  0  0  0  0  0  0  0
   -4.3240   -1.2158    0.7823 O   0  0  0  0  0  0  0  0  0  0  0  0
   -3.2776    0.3193    2.2112 N   0  0  0  0  0  0  0  0  0  0  0  0
   -4.5000    1.0447    2.5635 C   0  0  1  0  0  0  0  0  0  0  0  0
   -4.7252    1.0049    4.0911 C   0  0  0  0  0  0  0  0  0  0  0  0
   -4.8028   -0.4180    4.6724 C   0  0  0  0  0  0  0  0  0  0  0  0
   -6.0324   -1.1980    4.1852 C   0  0  0  0  0  0  0  0  0  0  0  0
   -6.1362   -2.4802    4.8800 N   0  0  0  0  0  0  0  0  0  0  0  0
   -6.5734   -2.6747    6.0919 C   0  0  0  0  0  0  0  0  0  0  0  0
   -6.5881   -4.0028    6.6146 N   0  0  0  0  0  0  0  0  0  0  0  0
   -7.0482   -1.5964    6.9094 N   0  0  0  0  0  0  0  0  0  0  0  0
   -4.3901    2.4676    2.0673 C   0  0  0  0  0  0  0  0  0  0  0  0
   -3.7370    3.3097    2.7433 O   0  0  0  0  0  0  0  0  0  0  0  0
   -4.9716    2.8702    0.8115 N   0  0  0  0  0  0  0  0  0  0  0  0
   -5.3419    1.9409   -0.2437 C   0  0  0  0  0  0  0  0  0  0  0  0
   -5.5615    2.7882   -1.4897 C   0  0  0  0  0  0  0  0  0  0  0  0
   -5.6959    4.2292   -1.0045 C   0  0  0  0  0  0  0  0  0  0  0  0
   -5.0676    4.2616    0.3906 C   0  0  1  0  0  0  0  0  0  0  0  0
   -5.9053    5.0650    1.3520 C   0  0  0  0  0  0  0  0  0  0  0  0
   -6.9598    4.5650    1.8322 O   0  0  0  0  0  0  0  0  0  0  0  0
   -5.5275    6.4064    1.6867 N   0  0  0  0  0  0  0  0  0  0  0  0
   -6.3151    7.2079    2.6225 C   0  0  0  0  0  0  0  0  0  0  0  0
   -5.6967    8.5886    2.8149 C   0  0  0  0  0  0  0  0  0  0  0  0
   -1.8587    2.5460   -2.2846 H   0  0  0  0  0  0  0  0  0  0  0  0
   -2.6174    4.0183   -1.5947 H   0  0  0  0  0  0  0  0  0  0  0  0
   -0.8698    4.0480   -2.0085 H   0  0  0  0  0  0  0  0  0  0  0  0
   -2.1449    2.2264    0.1439 H   0  0  0  0  0  0  0  0  0  0  0  0
   -1.4109    3.8169    0.4789 H   0  0  0  0  0  0  0  0  0  0  0  0
    0.2264    2.1430    1.0181 H   0  0  0  0  0  0  0  0  0  0  0  0
    0.8075    3.0378   -0.4034 H   0  0  0  0  0  0  0  0  0  0  0  0
    1.1795    0.5139   -0.3839 H   0  0  0  0  0  0  0  0  0  0  0  0
    0.4895    2.1106   -2.6311 H   0  0  0  0  0  0  0  0  0  0  0  0
    1.5622    1.3909   -4.6280 H   0  0  0  0  0  0  0  0  0  0  0  0
    2.0963   -1.2838   -5.6976 H   0  0  0  0  0  0  0  0  0  0  0  0
    4.3732   -1.9536   -5.7185 H   0  0  0  0  0  0  0  0  0  0  0  0
    4.2524   -3.5107   -4.0582 H   0  0  0  0  0  0  0  0  0  0  0  0
    4.9023   -4.4443   -1.8688 H   0  0  0  0  0  0  0  0  0  0  0  0
    4.7936   -3.2833    0.7893 H   0  0  0  0  0  0  0  0  0  0  0  0
    8.5282   -3.0911    1.0369 H   0  0  0  0  0  0  0  0  0  0  0  0
    7.0926   -3.6065    1.9743 H   0  0  0  0  0  0  0  0  0  0  0  0
    7.7508   -0.8007    1.0119 H   0  0  0  0  0  0  0  0  0  0  0  0
    6.7486    0.9467    2.4254 H   0  0  0  0  0  0  0  0  0  0  0  0
    5.5160    0.5173    3.6290 H   0  0  0  0  0  0  0  0  0  0  0  0
    2.8572    1.5517    2.0865 H   0  0  0  0  0  0  0  0  0  0  0  0
    3.2867    0.0902    3.0438 H   0  0  0  0  0  0  0  0  0  0  0  0
    2.8531   -0.0867    1.3132 H   0  0  0  0  0  0  0  0  0  0  0  0
    3.4549    0.8842   -0.9701 H   0  0  0  0  0  0  0  0  0  0  0  0
    4.5081    2.2557   -1.4742 H   0  0  0  0  0  0  0  0  0  0  0  0
    3.3773    2.4691   -0.0925 H   0  0  0  0  0  0  0  0  0  0  0  0
    2.4936   -3.7921   -2.0886 H   0  0  0  0  0  0  0  0  0  0  0  0
    3.1809   -5.0366    0.6471 H   0  0  0  0  0  0  0  0  0  0  0  0
    1.6319   -5.1935   -0.2610 H   0  0  0  0  0  0  0  0  0  0  0  0
    3.1412   -5.8939   -0.9424 H   0  0  0  0  0  0  0  0  0  0  0  0
    2.6396   -1.5753   -0.8058 H   0  0  0  0  0  0  0  0  0  0  0  0
    1.2579   -2.6347   -0.3858 H   0  0  0  0  0  0  0  0  0  0  0  0
    2.6713   -2.5294    0.7211 H   0  0  0  0  0  0  0  0  0  0  0  0
    6.3719   -0.4917   -3.8835 H   0  0  0  0  0  0  0  0  0  0  0  0
    6.7941   -2.6968   -5.9880 H   0  0  0  0  0  0  0  0  0  0  0  0
    7.1346   -2.7641   -4.2219 H   0  0  0  0  0  0  0  0  0  0  0  0
    8.1105   -1.6866   -5.2692 H   0  0  0  0  0  0  0  0  0  0  0  0
    5.6403    1.0542   -5.6216 H   0  0  0  0  0  0  0  0  0  0  0  0
    7.3024    0.5091   -5.9341 H   0  0  0  0  0  0  0  0  0  0  0  0
    6.4127   -1.1215   -7.6804 H   0  0  0  0  0  0  0  0  0  0  0  0
    4.7549   -0.4360   -7.4031 H   0  0  0  0  0  0  0  0  0  0  0  0
    6.0704    0.6054   -8.0332 H   0  0  0  0  0  0  0  0  0  0  0  0
    0.3189    0.3445   -6.5274 H   0  0  0  0  0  0  0  0  0  0  0  0
   -1.5689   -1.1668   -6.1440 H   0  0  0  0  0  0  0  0  0  0  0  0
   -1.2745   -1.2027   -4.3718 H   0  0  0  0  0  0  0  0  0  0  0  0
   -0.0913   -1.9642   -5.5072 H   0  0  0  0  0  0  0  0  0  0  0  0
   -1.5351    1.3765   -5.9669 H   0  0  0  0  0  0  0  0  0  0  0  0
   -0.2482   -0.3496    1.5132 H   0  0  0  0  0  0  0  0  0  0  0  0
   -2.1314   -2.3101    0.2816 H   0  0  0  0  0  0  0  0  0  0  0  0
   -1.5049   -1.7481    3.2556 H   0  0  0  0  0  0  0  0  0  0  0  0
   -3.7173   -2.9370    2.8503 H   0  0  0  0  0  0  0  0  0  0  0  0
   -2.5367   -3.9549    3.6957 H   0  0  0  0  0  0  0  0  0  0  0  0
   -2.8356   -4.2109    1.9296 H   0  0  0  0  0  0  0  0  0  0  0  0
    0.5188   -2.4544    1.9297 H   0  0  0  0  0  0  0  0  0  0  0  0
   -0.3577   -3.9014    1.3367 H   0  0  0  0  0  0  0  0  0  0  0  0
    0.1881   -3.2668    4.3161 H   0  0  0  0  0  0  0  0  0  0  0  0
   -0.4093   -4.8321    3.6157 H   0  0  0  0  0  0  0  0  0  0  0  0
    1.2580   -4.2711    3.2681 H   0  0  0  0  0  0  0  0  0  0  0  0
   -2.3770    0.6401    2.6344 H   0  0  0  0  0  0  0  0  0  0  0  0
   -5.3855    0.5808    2.0848 H   0  0  0  0  0  0  0  0  0  0  0  0
   -3.8866    1.5293    4.6003 H   0  0  0  0  0  0  0  0  0  0  0  0
   -5.6601    1.5534    4.3417 H   0  0  0  0  0  0  0  0  0  0  0  0
   -3.8791   -0.9832    4.4250 H   0  0  0  0  0  0  0  0  0  0  0  0
   -4.8382   -0.3305    5.7788 H   0  0  0  0  0  0  0  0  0  0  0  0
   -6.9661   -0.6089    4.3100 H   0  0  0  0  0  0  0  0  0  0  0  0
   -5.9200   -1.4131    3.1033 H   0  0  0  0  0  0  0  0  0  0  0  0
   -6.2485   -4.8042    6.0372 H   0  0  0  0  0  0  0  0  0  0  0  0
   -6.9371   -4.1896    7.5807 H   0  0  0  0  0  0  0  0  0  0  0  0
   -7.3824   -1.7900    7.8792 H   0  0  0  0  0  0  0  0  0  0  0  0
   -7.0886   -0.6094    6.5756 H   0  0  0  0  0  0  0  0  0  0  0  0
   -6.2787    1.4117    0.0340 H   0  0  0  0  0  0  0  0  0  0  0  0
   -4.5254    1.2091   -0.4218 H   0  0  0  0  0  0  0  0  0  0  0  0
   -6.4691    2.4625   -2.0430 H   0  0  0  0  0  0  0  0  0  0  0  0
   -4.6802    2.7010   -2.1620 H   0  0  0  0  0  0  0  0  0  0  0  0
   -6.7761    4.4967   -0.9710 H   0  0  0  0  0  0  0  0  0  0  0  0
   -5.1776    4.9320   -1.6926 H   0  0  0  0  0  0  0  0  0  0  0  0
   -4.0426    4.6885    0.3298 H   0  0  0  0  0  0  0  0  0  0  0  0
   -4.6675    6.8102    1.2497 H   0  0  0  0  0  0  0  0  0  0  0  0
   -7.3487    7.3243    2.2310 H   0  0  0  0  0  0  0  0  0  0  0  0
   -6.3605    6.6905    3.6051 H   0  0  0  0  0  0  0  0  0  0  0  0
   -5.6588    9.1287    1.8450 H   0  0  0  0  0  0  0  0  0  0  0  0
   -6.3111    9.1768    3.5286 H   0  0  0  0  0  0  0  0  0  0  0  0
   -4.6678    8.4927    3.2223 H   0  0  0  0  0  0  0  0  0  0  0  0
  1  2  1  0
  2  3  1  0
  3  4  1  0
  4  5  1  0
  5  6  1  0
  6  7  2  0
  6  8  1  0
  8  9  1  0
  9 10  1  0
 10 11  2  0
 10 12  1  0
 12 13  1  0
 13 14  1  0
 14 15  2  0
 14 16  1  0
 16 17  1  0
 17 18  1  0
 18 19  2  0
 18 20  1  0
 20 21  1  0
 21 22  1  0
 22 23  2  0
 22 24  1  0
 24 25  1  0
 25 26  1  0
 25 27  1  0
 27 28  1  0
 27 29  2  0
 16 30  1  0
 30 31  1  0
 30 32  1  0
 12 33  1  0
 33 34  1  0
 33 35  1  0
 35 36  1  0
  8 37  1  0
 37 38  1  0
 37 39  1  0
  4 40  1  0
 40 41  2  0
 40 42  1  0
 42 43  1  0
 43 44  1  0
 44 45  1  0
 44 46  1  0
 46 47  1  0
 43 48  1  0
 48 49  2  0
 48 50  1  0
 50 51  1  0
 51 52  1  0
 52 53  1  0
 53 54  1  0
 54 55  1  0
 55 56  2  3
 56 57  1  0
 56 58  1  0
 51 59  1  0
 59 60  2  0
 59 61  1  0
 61 62  1  0
 62 63  1  0
 63 64  1  0
 64 65  1  0
 65 66  1  0
 66 67  2  0
 66 68  1  0
 68 69  1  0
 69 70  1  0
 65 61  1  0
  1 71  1  0
  1 72  1  0
  1 73  1  0
  2 74  1  0
  2 75  1  0
  3 76  1  0
  3 77  1  0
  4 78  1  1
  5 79  1  0
  8 80  1  1
  9 81  1  0
 12 82  1  6
 13 83  1  0
 16 84  1  6
 17 85  1  0
 20 86  1  0
 20 87  1  0
 21 88  1  0
 24 89  1  0
 24 90  1  0
 26 91  1  0
 26 92  1  0
 26 93  1  0
 28 94  1  0
 28 95  1  0
 28 96  1  0
 30 97  1  0
 31 98  1  0
 31 99  1  0
 31100  1  0
 32101  1  0
 32102  1  0
 32103  1  0
 33104  1  1
 34105  1  0
 34106  1  0
 34107  1  0
 35108  1  0
 35109  1  0
 36110  1  0
 36111  1  0
 36112  1  0
 37113  1  6
 38114  1  0
 38115  1  0
 38116  1  0
 39117  1  0
 42118  1  0
 43119  1  6
 44120  1  1
 45121  1  0
 45122  1  0
 45123  1  0
 46124  1  0
 46125  1  0
 47126  1  0
 47127  1  0
 47128  1  0
 50129  1  0
 51130  1  6
 52131  1  0
 52132  1  0
 53133  1  0
 53134  1  0
 54135  1  0
 54136  1  0
 57137  1  0
 57138  1  0
 58139  1  0
 58140  1  0
 62141  1  0
 62142  1  0
 63143  1  0
 63144  1  0
 64145  1  0
 64146  1  0
 65147  1  6
 68148  1  0
 69149  1  0
 69150  1  0
 70151  1  0
 70152  1  0
 70153  1  0
M  END
$$$$
