
     RDKit          3D

 56 60  0  0  0  0  0  0  0  0999 V2000
   -3.7252    1.6602   -5.0266 N   0  0  0  0  0  0  0  0  0  0  0  0
   -3.4164    1.2312   -3.9972 C   0  0  0  0  0  0  0  0  0  0  0  0
   -3.0332    0.6991   -2.7208 C   0  0  0  0  0  0  0  0  0  0  0  0
   -3.9948    0.3357   -1.8198 N   0  0  0  0  0  0  0  0  0  0  0  0
   -3.5906   -0.1605   -0.6256 C   0  0  0  0  0  0  0  0  0  0  0  0
   -2.2857   -0.3031   -0.2983 C   0  0  0  0  0  0  0  0  0  0  0  0
   -2.1629   -0.7973    0.9480 N   0  0  0  0  0  0  0  0  0  0  0  0
   -3.4578   -0.9411    1.3432 C   0  0  0  0  0  0  0  0  0  0  0  0
   -4.3576   -0.5638    0.3949 N   0  0  0  0  0  0  0  0  0  0  0  0
   -5.8231   -0.5374    0.4879 C   0  0  0  0  0  0  0  0  0  0  0  0
   -6.2921    0.4946    1.5211 C   0  0  0  0  0  0  0  0  0  0  0  0
   -7.3130   -0.2145    2.3962 C   0  0  0  0  0  0  0  0  0  0  0  0
   -6.9560   -1.6869    2.3229 C   0  0  0  0  0  0  0  0  0  0  0  0
   -6.3837   -1.8953    0.9304 C   0  0  0  0  0  0  0  0  0  0  0  0
   -1.2958    0.0551   -1.2075 C   0  0  0  0  0  0  0  0  0  0  0  0
    0.0976   -0.0551   -0.8760 N   0  0  0  0  0  0  0  0  0  0  0  0
    1.1582    0.0919   -1.8366 C   0  0  0  0  0  0  0  0  0  0  0  0
    1.0380   -0.4582   -3.1256 C   0  0  0  0  0  0  0  0  0  0  0  0
    2.0800   -0.3379   -4.0461 C   0  0  0  0  0  0  0  0  0  0  0  0
    3.2555    0.3209   -3.6882 C   0  0  0  0  0  0  0  0  0  0  0  0
    3.3973    0.8555   -2.4060 C   0  0  0  0  0  0  0  0  0  0  0  0
    2.3537    0.7394   -1.4647 C   0  0  0  0  0  0  0  0  0  0  0  0
    2.4545    1.2659   -0.1644 O   0  0  0  0  0  0  0  0  0  0  0  0
    3.6250    1.8444    0.4130 C   0  0  0  0  0  0  0  0  0  0  0  0
    4.6341    0.7556    0.7895 C   0  0  0  0  0  0  0  0  0  0  0  0
    5.8905    1.3613    1.4190 C   0  0  0  0  0  0  0  0  0  0  0  0
    6.8377    0.3054    1.7657 N   0  0  0  0  0  0  0  0  0  0  0  0
    7.7725   -0.2342    0.9675 C   0  0  0  0  0  0  0  0  0  0  0  0
    8.3883   -1.2480    1.6666 C   0  0  0  0  0  0  0  0  0  0  0  0
    7.8346   -1.3542    2.8928 N   0  0  0  0  0  0  0  0  0  0  0  0
    6.8875   -0.3931    2.9159 C   0  0  0  0  0  0  0  0  0  0  0  0
   -1.7039    0.5627   -2.4112 N   0  0  0  0  0  0  0  0  0  0  0  0
   -3.7380   -1.3114    2.3207 H   0  0  0  0  0  0  0  0  0  0  0  0
   -6.2565   -0.2805   -0.5052 H   0  0  0  0  0  0  0  0  0  0  0  0
   -5.4472    0.8428    2.1555 H   0  0  0  0  0  0  0  0  0  0  0  0
   -6.7462    1.3798    1.0249 H   0  0  0  0  0  0  0  0  0  0  0  0
   -7.2818    0.1578    3.4431 H   0  0  0  0  0  0  0  0  0  0  0  0
   -8.3334   -0.0589    1.9810 H   0  0  0  0  0  0  0  0  0  0  0  0
   -6.1798   -1.9198    3.0850 H   0  0  0  0  0  0  0  0  0  0  0  0
   -7.8463   -2.3288    2.4981 H   0  0  0  0  0  0  0  0  0  0  0  0
   -7.2025   -2.2009    0.2418 H   0  0  0  0  0  0  0  0  0  0  0  0
   -5.6149   -2.6986    0.9326 H   0  0  0  0  0  0  0  0  0  0  0  0
    0.3558   -0.1761    0.1296 H   0  0  0  0  0  0  0  0  0  0  0  0
    0.1473   -1.0018   -3.4126 H   0  0  0  0  0  0  0  0  0  0  0  0
    1.9788   -0.7632   -5.0363 H   0  0  0  0  0  0  0  0  0  0  0  0
    4.0620    0.4127   -4.4043 H   0  0  0  0  0  0  0  0  0  0  0  0
    4.3224    1.3575   -2.1625 H   0  0  0  0  0  0  0  0  0  0  0  0
    3.3211    2.3834    1.3355 H   0  0  0  0  0  0  0  0  0  0  0  0
    4.0714    2.5939   -0.2748 H   0  0  0  0  0  0  0  0  0  0  0  0
    4.9228    0.1771   -0.1134 H   0  0  0  0  0  0  0  0  0  0  0  0
    4.1603    0.0559    1.5121 H   0  0  0  0  0  0  0  0  0  0  0  0
    5.6180    1.9311    2.3345 H   0  0  0  0  0  0  0  0  0  0  0  0
    6.3677    2.0673    0.7041 H   0  0  0  0  0  0  0  0  0  0  0  0
    7.9827    0.0769   -0.0478 H   0  0  0  0  0  0  0  0  0  0  0  0
    9.1868   -1.8800    1.3017 H   0  0  0  0  0  0  0  0  0  0  0  0
    6.2362   -0.2145    3.7619 H   0  0  0  0  0  0  0  0  0  0  0  0
  1  2  3  0
  2  3  1  0
  3  4  2  0
  4  5  1  0
  5  6  2  0
  6  7  1  0
  7  8  2  0
  8  9  1  0
  9 10  1  0
 10 11  1  0
 11 12  1  0
 12 13  1  0
 13 14  1  0
  6 15  1  0
 15 16  1  0
 16 17  1  0
 17 18  2  0
 18 19  1  0
 19 20  2  0
 20 21  1  0
 21 22  2  0
 22 23  1  0
 23 24  1  0
 24 25  1  0
 25 26  1  0
 26 27  1  0
 27 28  1  0
 28 29  2  0
 29 30  1  0
 30 31  2  0
 15 32  2  0
 32  3  1  0
  9  5  1  0
 14 10  1  0
 22 17  1  0
 31 27  1  0
  8 33  1  0
 10 34  1  0
 11 35  1  0
 11 36  1  0
 12 37  1  0
 12 38  1  0
 13 39  1  0
 13 40  1  0
 14 41  1  0
 14 42  1  0
 16 43  1  0
 18 44  1  0
 19 45  1  0
 20 46  1  0
 21 47  1  0
 24 48  1  0
 24 49  1  0
 25 50  1  0
 25 51  1  0
 26 52  1  0
 26 53  1  0
 28 54  1  0
 29 55  1  0
 31 56  1  0
M  END
$$$$
