
     RDKit          3D

 49 52  0  0  0  0  0  0  0  0999 V2000
    7.1952   -0.2780    1.7871 N   0  0  0  0  0  0  0  0  0  0  0  0
    6.9881    0.8477    0.8794 C   0  0  0  0  0  0  0  0  0  0  0  0
    5.6830    0.7115    0.1371 C   0  0  0  0  0  0  0  0  0  0  0  0
    4.5003    1.2310    0.6839 C   0  0  0  0  0  0  0  0  0  0  0  0
    3.2843    1.0762    0.0121 C   0  0  0  0  0  0  0  0  0  0  0  0
    3.2289    0.3813   -1.2076 C   0  0  0  0  0  0  0  0  0  0  0  0
    4.4154   -0.1342   -1.7551 C   0  0  0  0  0  0  0  0  0  0  0  0
    5.6311    0.0203   -1.0825 C   0  0  0  0  0  0  0  0  0  0  0  0
    1.9466    0.2209   -1.9304 C   0  0  0  0  0  0  0  0  0  0  0  0
    1.9509    0.2280   -3.1919 O   0  0  0  0  0  0  0  0  0  0  0  0
    0.6976    0.0608   -1.2298 N   0  0  0  0  0  0  0  0  0  0  0  0
    0.6295   -0.7084    0.0226 C   0  0  0  0  0  0  0  0  0  0  0  0
   -0.6222   -1.5900    0.0211 C   0  0  0  0  0  0  0  0  0  0  0  0
   -1.9306   -0.7663   -0.1435 C   0  0  0  0  0  0  0  0  0  0  0  0
   -1.6837    0.6009   -0.8385 C   0  0  0  0  0  0  0  0  0  0  0  0
   -0.5413    0.5414   -1.8584 C   0  0  0  0  0  0  0  0  0  0  0  0
   -2.5151   -0.5155    1.1816 N   0  0  0  0  0  0  0  0  0  0  0  0
   -3.9289   -0.3293    1.3165 C   0  0  0  0  0  0  0  0  0  0  0  0
   -4.4549    0.3305    2.4350 C   0  0  0  0  0  0  0  0  0  0  0  0
   -5.8266    0.5719    2.5228 C   0  0  0  0  0  0  0  0  0  0  0  0
   -6.6743    0.1703    1.4886 C   0  0  0  0  0  0  0  0  0  0  0  0
   -6.1607   -0.5004    0.3732 C   0  0  0  0  0  0  0  0  0  0  0  0
   -7.0087   -0.8114   -0.6379 F   0  0  0  0  0  0  0  0  0  0  0  0
   -4.7805   -0.7869    0.2963 C   0  0  0  0  0  0  0  0  0  0  0  0
   -4.1607   -1.5530   -0.8189 C   0  0  0  0  0  0  0  0  0  0  0  0
   -4.9375   -2.4026   -1.6680 N   0  0  0  0  0  0  0  0  0  0  0  0
   -2.8662   -1.5533   -0.9621 N   0  0  0  0  0  0  0  0  0  0  0  0
    7.1851   -1.1648    1.2319 H   0  0  0  0  0  0  0  0  0  0  0  0
    6.3970   -0.3176    2.4624 H   0  0  0  0  0  0  0  0  0  0  0  0
    7.0008    1.7946    1.4619 H   0  0  0  0  0  0  0  0  0  0  0  0
    7.8347    0.8985    0.1604 H   0  0  0  0  0  0  0  0  0  0  0  0
    4.5206    1.7614    1.6279 H   0  0  0  0  0  0  0  0  0  0  0  0
    2.3921    1.5166    0.4373 H   0  0  0  0  0  0  0  0  0  0  0  0
    4.3990   -0.6708   -2.6958 H   0  0  0  0  0  0  0  0  0  0  0  0
    6.5320   -0.3999   -1.5123 H   0  0  0  0  0  0  0  0  0  0  0  0
    1.5217   -1.3637    0.1287 H   0  0  0  0  0  0  0  0  0  0  0  0
    0.5970   -0.0142    0.8892 H   0  0  0  0  0  0  0  0  0  0  0  0
   -0.5198   -2.3122   -0.8200 H   0  0  0  0  0  0  0  0  0  0  0  0
   -0.6535   -2.1926    0.9554 H   0  0  0  0  0  0  0  0  0  0  0  0
   -2.6109    0.9555   -1.3397 H   0  0  0  0  0  0  0  0  0  0  0  0
   -1.4173    1.3669   -0.0760 H   0  0  0  0  0  0  0  0  0  0  0  0
   -0.8191   -0.1339   -2.6965 H   0  0  0  0  0  0  0  0  0  0  0  0
   -0.3803    1.5630   -2.2671 H   0  0  0  0  0  0  0  0  0  0  0  0
   -1.8868   -0.2187    1.9634 H   0  0  0  0  0  0  0  0  0  0  0  0
   -3.8005    0.6731    3.2266 H   0  0  0  0  0  0  0  0  0  0  0  0
   -6.2306    1.0904    3.3827 H   0  0  0  0  0  0  0  0  0  0  0  0
   -7.7330    0.3882    1.5478 H   0  0  0  0  0  0  0  0  0  0  0  0
   -5.8952   -2.7180   -1.4038 H   0  0  0  0  0  0  0  0  0  0  0  0
   -4.4919   -2.8561   -2.4966 H   0  0  0  0  0  0  0  0  0  0  0  0
  1  2  1  0
  2  3  1  0
  3  4  2  0
  4  5  1  0
  5  6  2  0
  6  7  1  0
  7  8  2  0
  6  9  1  0
  9 10  2  0
  9 11  1  0
 11 12  1  0
 12 13  1  0
 13 14  1  0
 14 15  1  0
 15 16  1  0
 14 17  1  0
 17 18  1  0
 18 19  2  0
 19 20  1  0
 20 21  2  0
 21 22  1  0
 22 23  1  0
 22 24  2  0
 24 25  1  0
 25 26  1  0
 25 27  2  0
  8  3  1  0
 16 11  1  0
 24 18  1  0
 27 14  1  0
  1 28  1  0
  1 29  1  0
  2 30  1  0
  2 31  1  0
  4 32  1  0
  5 33  1  0
  7 34  1  0
  8 35  1  0
 12 36  1  0
 12 37  1  0
 13 38  1  0
 13 39  1  0
 15 40  1  0
 15 41  1  0
 16 42  1  0
 16 43  1  0
 17 44  1  0
 19 45  1  0
 20 46  1  0
 21 47  1  0
 26 48  1  0
 26 49  1  0
M  END
$$$$
