
     RDKit          3D

 48 49  0  0  0  0  0  0  0  0999 V2000
   -2.2438   -0.7903    1.2232 C   0  0  2  0  0  0  0  0  0  0  0  0
   -1.1052   -1.5333    1.8359 N   0  0  0  0  0  0  0  0  0  0  0  0
   -0.3530   -0.7947    2.8790 C   0  0  0  0  0  0  0  0  0  0  0  0
   -0.4136    0.7196    2.7143 C   0  0  0  0  0  0  0  0  0  0  0  0
   -2.0791    1.3307    3.1088 S   0  0  0  0  0  0  0  0  0  0  0  0
   -3.0873    0.0358    2.2630 C   0  0  0  0  0  0  0  0  0  0  0  0
   -4.2185    0.8010    1.5433 C   0  0  0  0  0  0  0  0  0  0  0  0
   -3.7231   -0.8651    3.3440 C   0  0  0  0  0  0  0  0  0  0  0  0
    0.0047   -2.1344    0.6095 S   0  0  0  0  0  6  0  0  0  0  0  0
   -0.7200   -3.0159   -0.3693 O   0  0  0  0  0  0  0  0  0  0  0  0
    1.0694   -2.9704    1.2647 O   0  0  0  0  0  0  0  0  0  0  0  0
    0.7729   -0.8117   -0.2698 C   0  0  0  0  0  0  0  0  0  0  0  0
    0.1813   -0.2998   -1.4319 C   0  0  0  0  0  0  0  0  0  0  0  0
    0.7795    0.7604   -2.1179 C   0  0  0  0  0  0  0  0  0  0  0  0
    1.9768    1.3213   -1.6578 C   0  0  0  0  0  0  0  0  0  0  0  0
    2.5341    2.3862   -2.3853 O   0  0  0  0  0  0  0  0  0  0  0  0
    3.7624    3.0427   -2.0753 C   0  0  0  0  0  0  0  0  0  0  0  0
    4.8995    2.1602   -2.3577 C   0  0  0  0  0  0  0  0  0  0  0  0
    5.8312    1.4307   -2.5870 C   0  0  0  0  0  0  0  0  0  0  0  0
    6.9603    0.5430   -2.8639 C   0  0  0  0  0  0  0  0  0  0  0  0
    2.5725    0.8028   -0.4913 C   0  0  0  0  0  0  0  0  0  0  0  0
    1.9737   -0.2584    0.1937 C   0  0  0  0  0  0  0  0  0  0  0  0
   -3.1286   -1.7573    0.4622 C   0  0  0  0  0  0  0  0  0  0  0  0
   -3.4345   -2.8686    0.9741 O   0  0  0  0  0  0  0  0  0  0  0  0
   -3.6290   -1.4139   -0.8336 N   0  0  0  0  0  0  0  0  0  0  0  0
   -4.4165   -2.2772   -1.5180 O   0  0  0  0  0  0  0  0  0  0  0  0
   -1.8410   -0.0604    0.4881 H   0  0  0  0  0  0  0  0  0  0  0  0
    0.7147   -1.0995    2.9120 H   0  0  0  0  0  0  0  0  0  0  0  0
   -0.7503   -1.0679    3.8777 H   0  0  0  0  0  0  0  0  0  0  0  0
   -0.1295    1.0267    1.6874 H   0  0  0  0  0  0  0  0  0  0  0  0
    0.3018    1.1930    3.4192 H   0  0  0  0  0  0  0  0  0  0  0  0
   -3.8016    1.4436    0.7382 H   0  0  0  0  0  0  0  0  0  0  0  0
   -4.9592    0.1066    1.0932 H   0  0  0  0  0  0  0  0  0  0  0  0
   -4.7659    1.4529    2.2582 H   0  0  0  0  0  0  0  0  0  0  0  0
   -4.5062   -1.5210    2.9095 H   0  0  0  0  0  0  0  0  0  0  0  0
   -2.9703   -1.5114    3.8352 H   0  0  0  0  0  0  0  0  0  0  0  0
   -4.2075   -0.2442    4.1281 H   0  0  0  0  0  0  0  0  0  0  0  0
   -0.7461   -0.7158   -1.8038 H   0  0  0  0  0  0  0  0  0  0  0  0
    0.3101    1.1495   -3.0125 H   0  0  0  0  0  0  0  0  0  0  0  0
    3.7770    3.3662   -1.0133 H   0  0  0  0  0  0  0  0  0  0  0  0
    3.8534    3.9463   -2.7123 H   0  0  0  0  0  0  0  0  0  0  0  0
    7.8862    0.9768   -2.4334 H   0  0  0  0  0  0  0  0  0  0  0  0
    7.0807    0.4287   -3.9609 H   0  0  0  0  0  0  0  0  0  0  0  0
    6.7702   -0.4502   -2.4074 H   0  0  0  0  0  0  0  0  0  0  0  0
    3.4953    1.2107   -0.1037 H   0  0  0  0  0  0  0  0  0  0  0  0
    2.4431   -0.6411    1.0907 H   0  0  0  0  0  0  0  0  0  0  0  0
   -3.3783   -0.4988   -1.2704 H   0  0  0  0  0  0  0  0  0  0  0  0
   -5.3425   -2.0342   -1.2608 H   0  0  0  0  0  0  0  0  0  0  0  0
  1  2  1  0
  2  3  1  0
  3  4  1  0
  4  5  1  0
  5  6  1  0
  6  7  1  0
  6  8  1  0
  2  9  1  0
  9 10  2  0
  9 11  2  0
  9 12  1  0
 12 13  2  0
 13 14  1  0
 14 15  2  0
 15 16  1  0
 16 17  1  0
 17 18  1  0
 18 19  3  0
 19 20  1  0
 15 21  1  0
 21 22  2  0
  1 23  1  0
 23 24  2  0
 23 25  1  0
 25 26  1  0
  6  1  1  0
 22 12  1  0
  1 27  1  6
  3 28  1  0
  3 29  1  0
  4 30  1  0
  4 31  1  0
  7 32  1  0
  7 33  1  0
  7 34  1  0
  8 35  1  0
  8 36  1  0
  8 37  1  0
 13 38  1  0
 14 39  1  0
 17 40  1  0
 17 41  1  0
 20 42  1  0
 20 43  1  0
 20 44  1  0
 21 45  1  0
 22 46  1  0
 25 47  1  0
 26 48  1  0
M  END
$$$$
