
     RDKit          3D

 18 17  0  0  0  0  0  0  0  0999 V2000
   -2.2472   -0.1570    0.0581 C   0  0  0  0  0  0  0  0  0  0  0  0
   -0.8412   -0.7452    0.2122 C   0  0  0  0  0  0  0  0  0  0  0  0
    0.2686    0.3174    0.4310 C   0  0  0  0  0  0  0  0  0  0  0  0
   -0.0221    1.0937    1.5713 O   0  0  0  0  0  0  0  0  0  0  0  0
    1.5935   -0.3764    0.6784 C   0  0  0  0  0  0  0  0  0  0  0  0
    2.1919   -1.1558   -0.2345 C   0  0  0  0  0  0  0  0  0  0  0  0
    3.7270   -1.9281    0.1265 Cl  0  0  0  0  0  0  0  0  0  0  0  0
    0.4068    1.1928   -0.7572 C   0  0  0  0  0  0  0  0  0  0  0  0
    0.5184    1.9049   -1.7240 C   0  0  0  0  0  0  0  0  0  0  0  0
   -2.9620   -0.9723   -0.1814 H   0  0  0  0  0  0  0  0  0  0  0  0
   -2.2777    0.5861   -0.7661 H   0  0  0  0  0  0  0  0  0  0  0  0
   -2.5787    0.3213    1.0033 H   0  0  0  0  0  0  0  0  0  0  0  0
   -0.8531   -1.4463    1.0758 H   0  0  0  0  0  0  0  0  0  0  0  0
   -0.6187   -1.3441   -0.6981 H   0  0  0  0  0  0  0  0  0  0  0  0
   -0.7496    1.7325    1.3491 H   0  0  0  0  0  0  0  0  0  0  0  0
    2.0824   -0.2355    1.6391 H   0  0  0  0  0  0  0  0  0  0  0  0
    1.7457   -1.3173   -1.2107 H   0  0  0  0  0  0  0  0  0  0  0  0
    0.6161    2.5294   -2.5726 H   0  0  0  0  0  0  0  0  0  0  0  0
  1  2  1  0
  2  3  1  0
  3  4  1  0
  3  5  1  0
  5  6  2  0
  6  7  1  0
  3  8  1  0
  8  9  3  0
  1 10  1  0
  1 11  1  0
  1 12  1  0
  2 13  1  0
  2 14  1  0
  4 15  1  0
  5 16  1  0
  6 17  1  0
  9 18  1  0
M  END
$$$$
