
     RDKit          3D

 24 25  0  0  0  0  0  0  0  0999 V2000
    3.4093   -1.6115    0.8827 O   0  0  0  0  0  0  0  0  0  0  0  0
    4.0379   -1.5618   -0.3575 C   0  0  0  0  0  0  0  0  0  0  0  0
    4.8127   -2.4911   -0.7093 O   0  0  0  0  0  0  0  0  0  0  0  0
    3.7664   -0.4227   -1.2856 C   0  0  0  0  0  0  0  0  0  0  0  0
    2.5998   -0.9283   -2.5942 S   0  0  0  0  0  0  0  0  0  0  0  0
    1.1703   -0.9376   -1.5157 C   0  0  0  0  0  0  0  0  0  0  0  0
    0.3977    0.1392   -1.2845 N   0  0  0  0  0  0  0  0  0  0  0  0
   -0.5146   -0.3696   -0.4276 C   0  0  0  0  0  0  0  0  0  0  0  0
   -0.2994   -1.6753   -0.1648 N   0  0  0  0  0  0  0  0  0  0  0  0
    0.7518   -1.9885   -0.8580 O   0  0  0  0  0  0  0  0  0  0  0  0
   -1.6223    0.4163    0.1570 C   0  0  0  0  0  0  0  0  0  0  0  0
   -1.7785    1.7764   -0.1652 C   0  0  0  0  0  0  0  0  0  0  0  0
   -2.8261    2.5181    0.3890 C   0  0  0  0  0  0  0  0  0  0  0  0
   -3.7263    1.9121    1.2682 C   0  0  0  0  0  0  0  0  0  0  0  0
   -3.5812    0.5609    1.5962 C   0  0  0  0  0  0  0  0  0  0  0  0
   -4.7124   -0.1990    2.7009 Cl  0  0  0  0  0  0  0  0  0  0  0  0
   -2.5338   -0.1854    1.0436 C   0  0  0  0  0  0  0  0  0  0  0  0
    3.5713   -2.3848    1.5166 H   0  0  0  0  0  0  0  0  0  0  0  0
    3.3620    0.4455   -0.7223 H   0  0  0  0  0  0  0  0  0  0  0  0
    4.7175   -0.1058   -1.7628 H   0  0  0  0  0  0  0  0  0  0  0  0
   -1.0924    2.2668   -0.8444 H   0  0  0  0  0  0  0  0  0  0  0  0
   -2.9399    3.5644    0.1362 H   0  0  0  0  0  0  0  0  0  0  0  0
   -4.5351    2.4926    1.6935 H   0  0  0  0  0  0  0  0  0  0  0  0
   -2.4348   -1.2310    1.3077 H   0  0  0  0  0  0  0  0  0  0  0  0
  1  2  1  0
  2  3  2  0
  2  4  1  0
  4  5  1  0
  5  6  1  0
  6  7  2  0
  7  8  1  0
  8  9  2  0
  9 10  1  0
  8 11  1  0
 11 12  2  0
 12 13  1  0
 13 14  2  0
 14 15  1  0
 15 16  1  0
 15 17  2  0
 10  6  1  0
 17 11  1  0
  1 18  1  0
  4 19  1  0
  4 20  1  0
 12 21  1  0
 13 22  1  0
 14 23  1  0
 17 24  1  0
M  END
$$$$
