
     RDKit          3D

 58 60  0  0  0  0  0  0  0  0999 V2000
   -3.0333    1.0497    5.7638 N   0  0  0  0  0  0  0  0  0  0  0  0
   -3.0059    0.7472    4.3710 C   0  0  0  0  0  0  0  0  0  0  0  0
   -3.8148   -0.2254    3.8709 N   0  0  0  0  0  0  0  0  0  0  0  0
   -3.8016   -0.5257    2.5476 C   0  0  0  0  0  0  0  0  0  0  0  0
   -4.5984   -1.5095    2.0552 N   0  0  0  0  0  0  0  0  0  0  0  0
   -4.5856   -1.8268    0.7327 C   0  0  0  0  0  0  0  0  0  0  0  0
   -3.7468   -1.1194   -0.1426 C   0  0  0  0  0  0  0  0  0  0  0  0
   -3.6481   -1.4900   -1.5973 C   0  0  0  0  0  0  0  0  0  0  0  0
   -2.5142   -2.5158   -1.8400 C   0  0  0  0  0  0  0  0  0  0  0  0
   -2.4654   -3.0059   -3.3029 C   0  0  0  0  0  0  0  0  0  0  0  0
   -2.2325   -1.9256   -4.2729 C   0  0  0  0  0  0  0  0  0  0  0  0
   -2.0430   -1.0428   -5.0718 C   0  0  0  0  0  0  0  0  0  0  0  0
   -1.1531   -2.0226   -1.3620 C   0  0  0  0  0  0  0  0  0  0  0  0
   -0.6555   -0.7589   -1.7305 C   0  0  0  0  0  0  0  0  0  0  0  0
    0.5594   -0.2964   -1.2208 C   0  0  0  0  0  0  0  0  0  0  0  0
    1.3119   -1.0887   -0.3387 C   0  0  0  0  0  0  0  0  0  0  0  0
    0.8403   -2.3699   -0.0081 C   0  0  0  0  0  0  0  0  0  0  0  0
   -0.3791   -2.8303   -0.5119 C   0  0  0  0  0  0  0  0  0  0  0  0
    2.5880   -0.5972    0.2323 C   0  0  0  0  0  0  0  0  0  0  0  0
    3.4603   -1.4313    0.6003 O   0  0  0  0  0  0  0  0  0  0  0  0
    2.8323    0.8105    0.4011 N   0  0  0  0  0  0  0  0  0  0  0  0
    4.1333    1.3257    0.8498 C   0  0  1  0  0  0  0  0  0  0  0  0
    5.1994    1.2266   -0.2665 C   0  0  0  0  0  0  0  0  0  0  0  0
    4.9888    2.1621   -1.4717 C   0  0  0  0  0  0  0  0  0  0  0  0
    3.7595    1.8288   -2.2589 C   0  0  0  0  0  0  0  0  0  0  0  0
    2.7172    2.7472   -2.3362 O   0  0  0  0  0  0  0  0  0  0  0  0
    3.6720    0.7240   -2.8590 O   0  0  0  0  0  0  0  0  0  0  0  0
    4.0196    2.7266    1.3959 C   0  0  0  0  0  0  0  0  0  0  0  0
    4.8035    3.1036    2.4819 O   0  0  0  0  0  0  0  0  0  0  0  0
    3.2569    3.5721    0.8540 O   0  0  0  0  0  0  0  0  0  0  0  0
   -2.9456   -0.1386    0.3560 N   0  0  0  0  0  0  0  0  0  0  0  0
   -2.9500    0.1738    1.6778 C   0  0  0  0  0  0  0  0  0  0  0  0
   -2.1155    1.1656    2.2099 C   0  0  0  0  0  0  0  0  0  0  0  0
   -1.2068    1.8961    1.3816 N   0  0  0  0  0  0  0  0  0  0  0  0
   -2.1660    1.4281    3.5438 N   0  0  0  0  0  0  0  0  0  0  0  0
   -3.6731    0.5305    6.4051 H   0  0  0  0  0  0  0  0  0  0  0  0
   -2.4137    1.7933    6.1555 H   0  0  0  0  0  0  0  0  0  0  0  0
   -5.2174   -2.6265    0.3684 H   0  0  0  0  0  0  0  0  0  0  0  0
   -3.4870   -0.5691   -2.1965 H   0  0  0  0  0  0  0  0  0  0  0  0
   -4.6152   -1.9232   -1.9352 H   0  0  0  0  0  0  0  0  0  0  0  0
   -2.7877   -3.4127   -1.2383 H   0  0  0  0  0  0  0  0  0  0  0  0
   -3.4263   -3.5019   -3.5579 H   0  0  0  0  0  0  0  0  0  0  0  0
   -1.6594   -3.7626   -3.4144 H   0  0  0  0  0  0  0  0  0  0  0  0
   -1.8762   -0.2670   -5.7717 H   0  0  0  0  0  0  0  0  0  0  0  0
   -1.2153   -0.1133   -2.3925 H   0  0  0  0  0  0  0  0  0  0  0  0
    0.9076    0.6792   -1.5276 H   0  0  0  0  0  0  0  0  0  0  0  0
    1.4031   -3.0082    0.6618 H   0  0  0  0  0  0  0  0  0  0  0  0
   -0.7274   -3.8134   -0.2205 H   0  0  0  0  0  0  0  0  0  0  0  0
    2.0350    1.4732    0.2746 H   0  0  0  0  0  0  0  0  0  0  0  0
    4.4792    0.6902    1.6951 H   0  0  0  0  0  0  0  0  0  0  0  0
    5.2663    0.1769   -0.6255 H   0  0  0  0  0  0  0  0  0  0  0  0
    6.1894    1.4668    0.1799 H   0  0  0  0  0  0  0  0  0  0  0  0
    5.8664    2.0694   -2.1470 H   0  0  0  0  0  0  0  0  0  0  0  0
    4.9520    3.2208   -1.1400 H   0  0  0  0  0  0  0  0  0  0  0  0
    1.8856    2.5458   -2.8782 H   0  0  0  0  0  0  0  0  0  0  0  0
    4.7571    4.0444    2.8546 H   0  0  0  0  0  0  0  0  0  0  0  0
   -1.1410    1.7200    0.3546 H   0  0  0  0  0  0  0  0  0  0  0  0
   -0.5833    2.6206    1.8016 H   0  0  0  0  0  0  0  0  0  0  0  0
  1  2  1  0
  2  3  2  0
  3  4  1  0
  4  5  2  0
  5  6  1  0
  6  7  2  0
  7  8  1  0
  8  9  1  0
  9 10  1  0
 10 11  1  0
 11 12  3  0
  9 13  1  0
 13 14  2  0
 14 15  1  0
 15 16  2  0
 16 17  1  0
 17 18  2  0
 16 19  1  0
 19 20  2  0
 19 21  1  0
 21 22  1  0
 22 23  1  0
 23 24  1  0
 24 25  1  0
 25 26  1  0
 25 27  2  0
 22 28  1  0
 28 29  1  0
 28 30  2  0
  7 31  1  0
 31 32  2  0
 32 33  1  0
 33 34  1  0
 33 35  2  0
 35  2  1  0
 32  4  1  0
 18 13  1  0
  1 36  1  0
  1 37  1  0
  6 38  1  0
  8 39  1  0
  8 40  1  0
  9 41  1  0
 10 42  1  0
 10 43  1  0
 12 44  1  0
 14 45  1  0
 15 46  1  0
 17 47  1  0
 18 48  1  0
 21 49  1  0
 22 50  1  1
 23 51  1  0
 23 52  1  0
 24 53  1  0
 24 54  1  0
 26 55  1  0
 29 56  1  0
 34 57  1  0
 34 58  1  0
M  END
$$$$
