
     RDKit          3D

 37 39  0  0  0  0  0  0  0  0999 V2000
   -2.1313   -1.6031    0.6972 C   0  0  2  0  0  0  0  0  0  0  0  0
   -0.8354   -2.2221    0.1500 C   0  0  0  0  0  0  0  0  0  0  0  0
   -0.3227   -1.4713   -0.9368 O   0  0  0  0  0  0  0  0  0  0  0  0
    0.1718   -0.1980   -0.5258 C   0  0  1  0  0  0  0  0  0  0  0  0
    1.5839   -0.3378    0.0909 C   0  0  0  0  0  0  0  0  0  0  0  0
    2.4092   -1.0598   -0.7927 O   0  0  0  0  0  0  0  0  0  0  0  0
    3.9548   -1.2007   -0.1094 S   0  0  0  0  0  6  0  0  0  0  0  0
    3.9019   -2.1658    1.3264 N   0  0  0  0  0  0  0  0  0  0  0  0
    4.5153    0.1580    0.2096 O   0  0  0  0  0  0  0  0  0  0  0  0
    4.8567   -1.8718   -1.1057 O   0  0  0  0  0  0  0  0  0  0  0  0
    0.2860    0.6035   -1.6659 O   0  0  0  0  0  0  0  0  0  0  0  0
   -0.2943    1.8549   -1.3624 C   0  0  0  0  0  0  0  0  0  0  0  0
    0.7883    2.9393   -1.4183 C   0  0  0  0  0  0  0  0  0  0  0  0
   -1.3749    2.1635   -2.4059 C   0  0  0  0  0  0  0  0  0  0  0  0
   -0.8750    1.8586   -0.0767 O   0  0  0  0  0  0  0  0  0  0  0  0
   -0.7882    0.5521    0.4042 C   0  0  1  0  0  0  0  0  0  0  0  0
   -2.1938   -0.0794    0.4255 C   0  0  2  0  0  0  0  0  0  0  0  0
   -2.9917    0.5648    1.3832 O   0  0  0  0  0  0  0  0  0  0  0  0
   -3.0193   -0.5168    2.6547 S   0  0  0  0  0  6  0  0  0  0  0  0
   -4.4353   -0.8500    3.0300 O   0  0  0  0  0  0  0  0  0  0  0  0
   -2.2779    0.0452    3.8344 O   0  0  0  0  0  0  0  0  0  0  0  0
   -2.2389   -1.8697    2.0693 O   0  0  0  0  0  0  0  0  0  0  0  0
   -2.9958   -2.0817    0.1830 H   0  0  0  0  0  0  0  0  0  0  0  0
   -0.0811   -2.3432    0.9557 H   0  0  0  0  0  0  0  0  0  0  0  0
   -1.0558   -3.2493   -0.2100 H   0  0  0  0  0  0  0  0  0  0  0  0
    1.5209   -0.8482    1.0744 H   0  0  0  0  0  0  0  0  0  0  0  0
    2.0010    0.6767    0.2675 H   0  0  0  0  0  0  0  0  0  0  0  0
    3.5665   -1.5546    2.1041 H   0  0  0  0  0  0  0  0  0  0  0  0
    3.1737   -2.8996    1.1764 H   0  0  0  0  0  0  0  0  0  0  0  0
    1.5527    2.7664   -0.6337 H   0  0  0  0  0  0  0  0  0  0  0  0
    1.2928    2.9337   -2.4084 H   0  0  0  0  0  0  0  0  0  0  0  0
    0.3418    3.9425   -1.2475 H   0  0  0  0  0  0  0  0  0  0  0  0
   -0.9258    2.2359   -3.4198 H   0  0  0  0  0  0  0  0  0  0  0  0
   -2.1364    1.3575   -2.4261 H   0  0  0  0  0  0  0  0  0  0  0  0
   -1.8824    3.1228   -2.1674 H   0  0  0  0  0  0  0  0  0  0  0  0
   -0.3955    0.5795    1.4453 H   0  0  0  0  0  0  0  0  0  0  0  0
   -2.6656    0.0680   -0.5692 H   0  0  0  0  0  0  0  0  0  0  0  0
  1  2  1  0
  2  3  1  0
  3  4  1  0
  4  5  1  1
  5  6  1  0
  6  7  1  0
  7  8  1  0
  7  9  2  0
  7 10  2  0
  4 11  1  0
 11 12  1  0
 12 13  1  0
 12 14  1  0
 12 15  1  0
 15 16  1  0
 16 17  1  0
 17 18  1  0
 18 19  1  0
 19 20  2  0
 19 21  2  0
 19 22  1  0
 17  1  1  0
 22  1  1  0
 16  4  1  0
  1 23  1  6
  2 24  1  0
  2 25  1  0
  5 26  1  0
  5 27  1  0
  8 28  1  0
  8 29  1  0
 13 30  1  0
 13 31  1  0
 13 32  1  0
 14 33  1  0
 14 34  1  0
 14 35  1  0
 16 36  1  1
 17 37  1  6
M  END
$$$$
