
     RDKit          3D

 41 42  0  0  0  0  0  0  0  0999 V2000
   -0.5068   -0.0475   -1.1693 C   0  0  1  0  0  0  0  0  0  0  0  0
    0.8870   -0.7230   -1.0799 C   0  0  0  0  0  0  0  0  0  0  0  0
    1.6553   -0.2404    0.0902 N   0  0  0  0  0  0  0  0  0  0  0  0
    3.0432   -0.7412    0.0354 C   0  0  0  0  0  0  0  0  0  0  0  0
    3.9423   -0.0008    1.0328 C   0  0  0  0  0  0  0  0  0  0  0  0
    5.2924   -0.3835    0.8453 O   0  0  0  0  0  0  0  0  0  0  0  0
    5.9819    0.5910    0.0935 C   0  0  0  0  0  0  0  0  0  0  0  0
    0.8545   -0.7491    1.5653 S   0  0  0  0  0  6  0  0  0  0  0  0
    1.3017   -2.1240    1.9792 O   0  0  0  0  0  0  0  0  0  0  0  0
    1.1355    0.2381    2.6626 O   0  0  0  0  0  0  0  0  0  0  0  0
   -0.8558   -0.7734    1.2332 C   0  0  0  0  0  0  0  0  0  0  0  0
   -1.3730   -0.5120   -0.0214 C   0  0  0  0  0  0  0  0  0  0  0  0
   -2.7589   -0.7096   -0.0888 C   0  0  0  0  0  0  0  0  0  0  0  0
   -3.2989   -1.1262    1.1225 C   0  0  0  0  0  0  0  0  0  0  0  0
   -2.0760   -1.2723    2.2736 S   0  0  0  0  0  0  0  0  0  0  0  0
   -4.9881   -1.4980    1.4038 S   0  0  0  0  0  6  0  0  0  0  0  0
   -5.3162   -3.1163    0.8930 N   0  0  0  0  0  0  0  0  0  0  0  0
   -5.2967   -1.3568    2.8681 O   0  0  0  0  0  0  0  0  0  0  0  0
   -5.8475   -0.5391    0.6292 O   0  0  0  0  0  0  0  0  0  0  0  0
   -0.3583    1.4214   -1.1427 N   0  0  0  0  0  0  0  0  0  0  0  0
   -1.5762    2.1036   -1.6033 C   0  0  0  0  0  0  0  0  0  0  0  0
   -1.3813    3.6151   -1.5569 C   0  0  0  0  0  0  0  0  0  0  0  0
   -0.9708   -0.3730   -2.1289 H   0  0  0  0  0  0  0  0  0  0  0  0
    0.7720   -1.8309   -1.0437 H   0  0  0  0  0  0  0  0  0  0  0  0
    1.4341   -0.4833   -2.0189 H   0  0  0  0  0  0  0  0  0  0  0  0
    3.4638   -0.5651   -0.9791 H   0  0  0  0  0  0  0  0  0  0  0  0
    3.0855   -1.8373    0.2199 H   0  0  0  0  0  0  0  0  0  0  0  0
    3.6567   -0.2944    2.0636 H   0  0  0  0  0  0  0  0  0  0  0  0
    3.7708    1.1004    0.9584 H   0  0  0  0  0  0  0  0  0  0  0  0
    5.4862    0.7793   -0.8846 H   0  0  0  0  0  0  0  0  0  0  0  0
    6.0759    1.5381    0.6691 H   0  0  0  0  0  0  0  0  0  0  0  0
    7.0062    0.2191   -0.1140 H   0  0  0  0  0  0  0  0  0  0  0  0
   -3.3451   -0.5596   -0.9861 H   0  0  0  0  0  0  0  0  0  0  0  0
   -4.7258   -3.7471    1.4802 H   0  0  0  0  0  0  0  0  0  0  0  0
   -6.3110   -3.3187    1.1391 H   0  0  0  0  0  0  0  0  0  0  0  0
    0.4068    1.6833   -1.8093 H   0  0  0  0  0  0  0  0  0  0  0  0
   -2.4322    1.8544   -0.9422 H   0  0  0  0  0  0  0  0  0  0  0  0
   -1.8235    1.8018   -2.6459 H   0  0  0  0  0  0  0  0  0  0  0  0
   -2.3170    4.1227   -1.8732 H   0  0  0  0  0  0  0  0  0  0  0  0
   -0.5619    3.9190   -2.2425 H   0  0  0  0  0  0  0  0  0  0  0  0
   -1.1310    3.9353   -0.5231 H   0  0  0  0  0  0  0  0  0  0  0  0
  1  2  1  0
  2  3  1  0
  3  4  1  0
  4  5  1  0
  5  6  1  0
  6  7  1  0
  3  8  1  0
  8  9  2  0
  8 10  2  0
  8 11  1  0
 11 12  2  0
 12 13  1  0
 13 14  2  0
 14 15  1  0
 14 16  1  0
 16 17  1  0
 16 18  2  0
 16 19  2  0
  1 20  1  0
 20 21  1  0
 21 22  1  0
 12  1  1  0
 15 11  1  0
  1 23  1  6
  2 24  1  0
  2 25  1  0
  4 26  1  0
  4 27  1  0
  5 28  1  0
  5 29  1  0
  7 30  1  0
  7 31  1  0
  7 32  1  0
 13 33  1  0
 17 34  1  0
 17 35  1  0
 20 36  1  0
 21 37  1  0
 21 38  1  0
 22 39  1  0
 22 40  1  0
 22 41  1  0
M  END
$$$$
