
     RDKit          3D

 70 74  0  0  0  0  0  0  0  0999 V2000
    0.6986    0.1712   -0.8272 C   0  0  0  0  0  0  0  0  0  0  0  0
    0.0252    1.1071    0.2298 C   0  0  2  0  0  0  0  0  0  0  0  0
   -0.4370    0.2709    1.4448 C   0  0  0  0  0  0  0  0  0  0  0  0
   -1.6189   -0.6621    1.0770 C   0  0  0  0  0  0  0  0  0  0  0  0
   -2.7987    0.1067    0.4090 C   0  0  1  0  0  0  0  0  0  0  0  0
   -2.3137    0.9662   -0.8070 C   0  0  1  0  0  0  0  0  0  0  0  0
   -3.4793    1.7261   -1.5062 C   0  0  0  0  0  0  0  0  0  0  0  0
   -4.8403    1.6062   -0.8076 C   0  0  0  0  0  0  0  0  0  0  0  0
   -5.1684    0.1851   -0.4002 C   0  0  0  0  0  0  0  0  0  0  0  0
   -6.4616   -0.1612   -0.2801 C   0  0  0  0  0  0  0  0  0  0  0  0
   -6.8719   -1.4166    0.3664 C   0  0  0  0  0  0  0  0  0  0  0  0
   -8.0852   -1.7535    0.3492 O   0  0  0  0  0  0  0  0  0  0  0  0
   -5.8708   -2.3015    1.0469 C   0  0  0  0  0  0  0  0  0  0  0  0
   -4.5333   -1.5789    1.2790 C   0  0  0  0  0  0  0  0  0  0  0  0
   -4.0509   -0.7678    0.0372 C   0  0  2  0  0  0  0  0  0  0  0  0
   -3.7417   -1.7436   -1.1283 C   0  0  0  0  0  0  0  0  0  0  0  0
   -1.1866    1.8954   -0.3023 C   0  0  2  0  0  0  0  0  0  0  0  0
   -0.5788    2.9312   -1.2413 C   0  0  0  0  0  0  0  0  0  0  0  0
    0.7735    3.2755   -0.5917 C   0  0  0  0  0  0  0  0  0  0  0  0
    0.9824    2.2726    0.5622 C   0  0  2  0  0  0  0  0  0  0  0  0
    2.3538    1.8753    0.6361 O   0  0  0  0  0  0  0  0  0  0  0  0
    2.9383    1.3262    1.7823 C   0  0  0  0  0  0  0  0  0  0  0  0
    2.2882    1.2323    2.8588 O   0  0  0  0  0  0  0  0  0  0  0  0
    4.3458    0.8247    1.7180 C   0  0  0  0  0  0  0  0  0  0  0  0
    4.3965   -0.5267    0.9923 C   0  0  0  0  0  0  0  0  0  0  0  0
    5.8218   -1.1295    0.9724 C   0  0  0  0  0  0  0  0  0  0  0  0
    6.7296   -0.4469   -0.0541 C   0  0  0  0  0  0  0  0  0  0  0  0
    6.5938   -1.2431   -1.3489 C   0  0  0  0  0  0  0  0  0  0  0  0
    5.9288   -2.5689   -0.9886 C   0  0  0  0  0  0  0  0  0  0  0  0
    5.7983   -2.5908    0.5272 C   0  0  0  0  0  0  0  0  0  0  0  0
    1.5733   -0.3417   -0.3767 H   0  0  0  0  0  0  0  0  0  0  0  0
    1.0606    0.7349   -1.7113 H   0  0  0  0  0  0  0  0  0  0  0  0
    0.0319   -0.6304   -1.1940 H   0  0  0  0  0  0  0  0  0  0  0  0
    0.4037   -0.3466    1.8277 H   0  0  0  0  0  0  0  0  0  0  0  0
   -0.7564    0.9447    2.2705 H   0  0  0  0  0  0  0  0  0  0  0  0
   -1.9597   -1.1271    2.0248 H   0  0  0  0  0  0  0  0  0  0  0  0
   -1.2663   -1.4835    0.4225 H   0  0  0  0  0  0  0  0  0  0  0  0
   -3.1458    0.8193    1.1941 H   0  0  0  0  0  0  0  0  0  0  0  0
   -1.8804    0.3007   -1.5772 H   0  0  0  0  0  0  0  0  0  0  0  0
   -3.2542    2.8058   -1.6195 H   0  0  0  0  0  0  0  0  0  0  0  0
   -3.5935    1.3286   -2.5393 H   0  0  0  0  0  0  0  0  0  0  0  0
   -4.8427    2.2452    0.1018 H   0  0  0  0  0  0  0  0  0  0  0  0
   -5.6176    2.0043   -1.4972 H   0  0  0  0  0  0  0  0  0  0  0  0
   -7.2393    0.5264   -0.5922 H   0  0  0  0  0  0  0  0  0  0  0  0
   -6.2779   -2.6285    2.0281 H   0  0  0  0  0  0  0  0  0  0  0  0
   -5.7137   -3.2132    0.4329 H   0  0  0  0  0  0  0  0  0  0  0  0
   -4.6517   -0.8910    2.1460 H   0  0  0  0  0  0  0  0  0  0  0  0
   -3.7843   -2.3499    1.5588 H   0  0  0  0  0  0  0  0  0  0  0  0
   -2.9378   -2.4557   -0.8508 H   0  0  0  0  0  0  0  0  0  0  0  0
   -3.4421   -1.2064   -2.0496 H   0  0  0  0  0  0  0  0  0  0  0  0
   -4.6384   -2.3343   -1.4063 H   0  0  0  0  0  0  0  0  0  0  0  0
   -1.6256    2.4868    0.5393 H   0  0  0  0  0  0  0  0  0  0  0  0
   -1.2149    3.8396   -1.3147 H   0  0  0  0  0  0  0  0  0  0  0  0
   -0.4331    2.5034   -2.2571 H   0  0  0  0  0  0  0  0  0  0  0  0
    1.5852    3.1879   -1.3471 H   0  0  0  0  0  0  0  0  0  0  0  0
    0.7670    4.3155   -0.1984 H   0  0  0  0  0  0  0  0  0  0  0  0
    0.6789    2.7696    1.5130 H   0  0  0  0  0  0  0  0  0  0  0  0
    4.7486    0.7149    2.7487 H   0  0  0  0  0  0  0  0  0  0  0  0
    4.9618    1.5783    1.1859 H   0  0  0  0  0  0  0  0  0  0  0  0
    4.0200   -0.4099   -0.0480 H   0  0  0  0  0  0  0  0  0  0  0  0
    3.7129   -1.2253    1.5245 H   0  0  0  0  0  0  0  0  0  0  0  0
    6.2656   -1.0611    1.9910 H   0  0  0  0  0  0  0  0  0  0  0  0
    6.4812    0.6223   -0.2187 H   0  0  0  0  0  0  0  0  0  0  0  0
    7.7827   -0.5044    0.3004 H   0  0  0  0  0  0  0  0  0  0  0  0
    7.5933   -1.4148   -1.8051 H   0  0  0  0  0  0  0  0  0  0  0  0
    5.9611   -0.6862   -2.0747 H   0  0  0  0  0  0  0  0  0  0  0  0
    6.5323   -3.4317   -1.3456 H   0  0  0  0  0  0  0  0  0  0  0  0
    4.9181   -2.6213   -1.4506 H   0  0  0  0  0  0  0  0  0  0  0  0
    6.6789   -3.1165    0.9596 H   0  0  0  0  0  0  0  0  0  0  0  0
    4.8808   -3.1304    0.8487 H   0  0  0  0  0  0  0  0  0  0  0  0
  2  1  1  6
  2  3  1  0
  3  4  1  0
  4  5  1  0
  5  6  1  0
  6  7  1  0
  7  8  1  0
  8  9  1  0
  9 10  2  0
 10 11  1  0
 11 12  2  0
 11 13  1  0
 13 14  1  0
 14 15  1  0
 15 16  1  6
  6 17  1  0
 17 18  1  0
 18 19  1  0
 19 20  1  0
 20 21  1  0
 21 22  1  0
 22 23  2  0
 22 24  1  0
 24 25  1  0
 25 26  1  0
 26 27  1  0
 27 28  1  0
 28 29  1  0
 29 30  1  0
 17  2  1  0
 30 26  1  0
 20  2  1  0
 15  5  1  0
 15  9  1  0
  1 31  1  0
  1 32  1  0
  1 33  1  0
  3 34  1  0
  3 35  1  0
  4 36  1  0
  4 37  1  0
  5 38  1  1
  6 39  1  6
  7 40  1  0
  7 41  1  0
  8 42  1  0
  8 43  1  0
 10 44  1  0
 13 45  1  0
 13 46  1  0
 14 47  1  0
 14 48  1  0
 16 49  1  0
 16 50  1  0
 16 51  1  0
 17 52  1  1
 18 53  1  0
 18 54  1  0
 19 55  1  0
 19 56  1  0
 20 57  1  1
 24 58  1  0
 24 59  1  0
 25 60  1  0
 25 61  1  0
 26 62  1  0
 27 63  1  0
 27 64  1  0
 28 65  1  0
 28 66  1  0
 29 67  1  0
 29 68  1  0
 30 69  1  0
 30 70  1  0
M  END
$$$$
