
     RDKit          3D

 45 47  0  0  0  0  0  0  0  0999 V2000
   -6.4668   -0.9396    0.6175 C   0  0  0  0  0  0  0  0  0  0  0  0
   -5.0965   -0.6521    0.1992 N   0  0  0  0  0  0  0  0  0  0  0  0
   -4.5420    0.6769    0.2890 C   0  0  0  0  0  0  0  0  0  0  0  0
   -5.4020    1.8148    0.4020 N   0  0  0  0  0  0  0  0  0  0  0  0
   -3.2531    0.8781    0.2503 N   0  0  0  0  0  0  0  0  0  0  0  0
   -2.1856   -0.1358    0.2010 C   0  0  1  0  0  0  0  0  0  0  0  0
   -2.0390   -0.7239    1.6279 C   0  0  0  0  0  0  0  0  0  0  0  0
   -2.5334   -1.2469   -0.8150 C   0  0  0  0  0  0  0  0  0  0  0  0
   -4.1384   -1.9264   -0.4725 S   0  0  0  0  0  6  0  0  0  0  0  0
   -4.0156   -3.0546    0.5131 O   0  0  0  0  0  0  0  0  0  0  0  0
   -4.7624   -2.4231   -1.7460 O   0  0  0  0  0  0  0  0  0  0  0  0
   -0.8852    0.5388   -0.2718 C   0  0  0  0  0  0  0  0  0  0  0  0
    0.3819    0.1126    0.1930 C   0  0  0  0  0  0  0  0  0  0  0  0
    1.5678    0.6917   -0.2826 C   0  0  0  0  0  0  0  0  0  0  0  0
    2.8297    0.2549    0.2523 N   0  0  0  0  0  0  0  0  0  0  0  0
    4.0484    0.2029   -0.5097 C   0  0  0  0  0  0  0  0  0  0  0  0
    4.0084    0.2760   -1.7686 O   0  0  0  0  0  0  0  0  0  0  0  0
    5.3485    0.0250    0.1729 C   0  0  0  0  0  0  0  0  0  0  0  0
    6.5429   -0.0914   -0.5593 C   0  0  0  0  0  0  0  0  0  0  0  0
    7.7525   -0.2535    0.1196 C   0  0  0  0  0  0  0  0  0  0  0  0
    7.7664   -0.2972    1.5143 C   0  0  0  0  0  0  0  0  0  0  0  0
    8.9350   -0.4541    2.1836 F   0  0  0  0  0  0  0  0  0  0  0  0
    6.5638   -0.1769    2.2127 C   0  0  0  0  0  0  0  0  0  0  0  0
    5.3959   -0.0197    1.5343 N   0  0  0  0  0  0  0  0  0  0  0  0
    1.4963    1.7200   -1.2328 C   0  0  0  0  0  0  0  0  0  0  0  0
    0.2625    2.1220   -1.7388 C   0  0  0  0  0  0  0  0  0  0  0  0
   -0.9174    1.5296   -1.2839 C   0  0  0  0  0  0  0  0  0  0  0  0
   -2.0871    1.9187   -1.8523 F   0  0  0  0  0  0  0  0  0  0  0  0
   -7.1839   -0.4428   -0.0685 H   0  0  0  0  0  0  0  0  0  0  0  0
   -6.6655   -2.0319    0.5924 H   0  0  0  0  0  0  0  0  0  0  0  0
   -6.6268   -0.5801    1.6558 H   0  0  0  0  0  0  0  0  0  0  0  0
   -4.9943    2.7740    0.4702 H   0  0  0  0  0  0  0  0  0  0  0  0
   -6.4408    1.7240    0.4036 H   0  0  0  0  0  0  0  0  0  0  0  0
   -3.0288   -0.9847    2.0575 H   0  0  0  0  0  0  0  0  0  0  0  0
   -1.5732    0.0217    2.3078 H   0  0  0  0  0  0  0  0  0  0  0  0
   -1.4287   -1.6517    1.6266 H   0  0  0  0  0  0  0  0  0  0  0  0
   -1.7740   -2.0583   -0.7905 H   0  0  0  0  0  0  0  0  0  0  0  0
   -2.5544   -0.8261   -1.8436 H   0  0  0  0  0  0  0  0  0  0  0  0
    0.4692   -0.6835    0.9176 H   0  0  0  0  0  0  0  0  0  0  0  0
    2.8373   -0.1320    1.2231 H   0  0  0  0  0  0  0  0  0  0  0  0
    6.5425   -0.0582   -1.6416 H   0  0  0  0  0  0  0  0  0  0  0  0
    8.6771   -0.3448   -0.4358 H   0  0  0  0  0  0  0  0  0  0  0  0
    6.5571   -0.2079    3.2941 H   0  0  0  0  0  0  0  0  0  0  0  0
    2.3914    2.2188   -1.5797 H   0  0  0  0  0  0  0  0  0  0  0  0
    0.2202    2.8969   -2.4937 H   0  0  0  0  0  0  0  0  0  0  0  0
  1  2  1  0
  2  3  1  0
  3  4  1  0
  3  5  2  0
  5  6  1  0
  6  7  1  1
  6  8  1  0
  8  9  1  0
  9 10  2  0
  9 11  2  0
  6 12  1  0
 12 13  2  0
 13 14  1  0
 14 15  1  0
 15 16  1  0
 16 17  2  0
 16 18  1  0
 18 19  2  0
 19 20  1  0
 20 21  2  0
 21 22  1  0
 21 23  1  0
 23 24  2  0
 14 25  2  0
 25 26  1  0
 26 27  2  0
 27 28  1  0
  9  2  1  0
 27 12  1  0
 24 18  1  0
  1 29  1  0
  1 30  1  0
  1 31  1  0
  4 32  1  0
  4 33  1  0
  7 34  1  0
  7 35  1  0
  7 36  1  0
  8 37  1  0
  8 38  1  0
 13 39  1  0
 15 40  1  0
 19 41  1  0
 20 42  1  0
 23 43  1  0
 25 44  1  0
 26 45  1  0
M  END
$$$$
