
     RDKit          3D

 16 15  0  0  0  0  0  0  0  0999 V2000
   -1.3300    0.9889   -0.9930 C   0  0  0  0  0  0  0  0  0  0  0  0
   -0.5344   -0.1345   -0.3177 C   0  0  0  0  0  0  0  0  0  0  0  0
   -1.3691   -0.8126    0.7722 C   0  0  0  0  0  0  0  0  0  0  0  0
    0.7551    0.3929    0.2698 C   0  0  0  0  0  0  0  0  0  0  0  0
    0.7393    1.4491    0.9590 O   0  0  0  0  0  0  0  0  0  0  0  0
    2.0291   -0.3272    0.1033 C   0  0  0  0  0  0  0  0  0  0  0  0
    3.1940    0.1960    0.6564 O   0  0  0  0  0  0  0  0  0  0  0  0
    2.0745   -1.4152   -0.5312 O   0  0  0  0  0  0  0  0  0  0  0  0
   -1.6400    1.7574   -0.2523 H   0  0  0  0  0  0  0  0  0  0  0  0
   -0.7118    1.4744   -1.7783 H   0  0  0  0  0  0  0  0  0  0  0  0
   -2.2405    0.5739   -1.4759 H   0  0  0  0  0  0  0  0  0  0  0  0
   -0.3094   -0.8926   -1.0993 H   0  0  0  0  0  0  0  0  0  0  0  0
   -2.2998   -1.2335    0.3352 H   0  0  0  0  0  0  0  0  0  0  0  0
   -0.7935   -1.6457    1.2297 H   0  0  0  0  0  0  0  0  0  0  0  0
   -1.6431   -0.0861    1.5676 H   0  0  0  0  0  0  0  0  0  0  0  0
    4.0796   -0.2852    0.5545 H   0  0  0  0  0  0  0  0  0  0  0  0
  1  2  1  0
  2  3  1  0
  2  4  1  0
  4  5  2  0
  4  6  1  0
  6  7  1  0
  6  8  2  0
  1  9  1  0
  1 10  1  0
  1 11  1  0
  2 12  1  0
  3 13  1  0
  3 14  1  0
  3 15  1  0
  7 16  1  0
M  END
$$$$
