
     RDKit          3D

 66 67  0  0  0  0  0  0  0  0999 V2000
   -6.9329   -1.4853    1.2662 C   0  0  0  0  0  0  0  0  0  0  0  0
   -5.9421   -2.0684    0.2598 C   0  0  0  0  0  0  0  0  0  0  0  0
   -6.3670   -1.8026   -1.2002 C   0  0  0  0  0  0  0  0  0  0  0  0
   -5.4622   -0.7976   -1.9289 C   0  0  0  0  0  0  0  0  0  0  0  0
   -5.6852    0.8860   -1.3572 S   0  0  0  0  0  6  0  0  0  0  0  0
   -7.1531    1.2061   -1.3135 O   0  0  0  0  0  0  0  0  0  0  0  0
   -5.0165    1.8201   -2.3267 O   0  0  0  0  0  0  0  0  0  0  0  0
   -5.0099    1.0892    0.2353 N   0  0  0  0  0  0  0  0  0  0  0  0
   -3.5374    1.1354    0.2085 C   0  0  1  0  0  0  0  0  0  0  0  0
   -3.0146    2.5887    0.1326 C   0  0  0  0  0  0  0  0  0  0  0  0
   -1.5270    2.6283   -0.1104 C   0  0  0  0  0  0  0  0  0  0  0  0
   -0.6342    2.7737    0.9620 C   0  0  0  0  0  0  0  0  0  0  0  0
    0.7448    2.7666    0.7364 C   0  0  0  0  0  0  0  0  0  0  0  0
    1.2548    2.6026   -0.5566 C   0  0  0  0  0  0  0  0  0  0  0  0
    2.6492    2.5926   -0.7203 O   0  0  0  0  0  0  0  0  0  0  0  0
    3.3434    2.2415   -1.9185 C   0  0  0  0  0  0  0  0  0  0  0  0
    3.2612    0.7325   -2.2014 C   0  0  0  0  0  0  0  0  0  0  0  0
    3.6383   -0.1461   -0.9960 C   0  0  0  0  0  0  0  0  0  0  0  0
    5.1137    0.0215   -0.5814 C   0  0  0  0  0  0  0  0  0  0  0  0
    5.6029   -0.9617    0.5089 C   0  0  0  0  0  0  0  0  0  0  0  0
    5.6703   -2.4198    0.0194 C   0  0  0  0  0  0  0  0  0  0  0  0
    6.2130   -3.3253    1.1355 C   0  0  0  0  0  0  0  0  0  0  0  0
    5.3977   -3.2221    2.3555 N   0  0  0  0  0  0  0  0  0  0  0  0
    5.3609   -1.8402    2.8584 C   0  0  0  0  0  0  0  0  0  0  0  0
    4.7842   -0.8776    1.8097 C   0  0  0  0  0  0  0  0  0  0  0  0
    0.3592    2.4585   -1.6337 C   0  0  0  0  0  0  0  0  0  0  0  0
   -1.0204    2.4656   -1.4086 C   0  0  0  0  0  0  0  0  0  0  0  0
   -3.0133    0.4529    1.4396 C   0  0  0  0  0  0  0  0  0  0  0  0
   -2.0111   -0.5057    1.3255 O   0  0  0  0  0  0  0  0  0  0  0  0
   -3.4584    0.7630    2.5777 O   0  0  0  0  0  0  0  0  0  0  0  0
   -6.5641   -1.6653    2.2979 H   0  0  0  0  0  0  0  0  0  0  0  0
   -7.9239   -1.9743    1.1537 H   0  0  0  0  0  0  0  0  0  0  0  0
   -7.0514   -0.3929    1.1178 H   0  0  0  0  0  0  0  0  0  0  0  0
   -5.8915   -3.1662    0.4291 H   0  0  0  0  0  0  0  0  0  0  0  0
   -4.9271   -1.6669    0.4661 H   0  0  0  0  0  0  0  0  0  0  0  0
   -7.4275   -1.4743   -1.2659 H   0  0  0  0  0  0  0  0  0  0  0  0
   -6.3068   -2.7636   -1.7566 H   0  0  0  0  0  0  0  0  0  0  0  0
   -5.7110   -0.8224   -3.0111 H   0  0  0  0  0  0  0  0  0  0  0  0
   -4.3974   -1.0949   -1.8272 H   0  0  0  0  0  0  0  0  0  0  0  0
   -5.4030    1.9666    0.6482 H   0  0  0  0  0  0  0  0  0  0  0  0
   -3.1502    0.5720   -0.6696 H   0  0  0  0  0  0  0  0  0  0  0  0
   -3.2667    3.1353    1.0685 H   0  0  0  0  0  0  0  0  0  0  0  0
   -3.5247    3.1301   -0.6918 H   0  0  0  0  0  0  0  0  0  0  0  0
   -1.0052    2.8858    1.9733 H   0  0  0  0  0  0  0  0  0  0  0  0
    1.4227    2.8776    1.5733 H   0  0  0  0  0  0  0  0  0  0  0  0
    4.4077    2.5347   -1.8066 H   0  0  0  0  0  0  0  0  0  0  0  0
    2.9489    2.8196   -2.7806 H   0  0  0  0  0  0  0  0  0  0  0  0
    3.9226    0.4887   -3.0611 H   0  0  0  0  0  0  0  0  0  0  0  0
    2.2255    0.4757   -2.5080 H   0  0  0  0  0  0  0  0  0  0  0  0
    2.9686    0.0970   -0.1447 H   0  0  0  0  0  0  0  0  0  0  0  0
    3.4457   -1.1992   -1.2844 H   0  0  0  0  0  0  0  0  0  0  0  0
    5.2642    1.0536   -0.1984 H   0  0  0  0  0  0  0  0  0  0  0  0
    5.7616   -0.0935   -1.4780 H   0  0  0  0  0  0  0  0  0  0  0  0
    6.6447   -0.6505    0.7532 H   0  0  0  0  0  0  0  0  0  0  0  0
    6.3390   -2.4911   -0.8657 H   0  0  0  0  0  0  0  0  0  0  0  0
    4.6642   -2.7869   -0.2723 H   0  0  0  0  0  0  0  0  0  0  0  0
    6.2069   -4.3791    0.7827 H   0  0  0  0  0  0  0  0  0  0  0  0
    7.2688   -3.0588    1.3636 H   0  0  0  0  0  0  0  0  0  0  0  0
    4.4206   -3.5315    2.1389 H   0  0  0  0  0  0  0  0  0  0  0  0
    4.7287   -1.8027    3.7716 H   0  0  0  0  0  0  0  0  0  0  0  0
    6.3846   -1.5175    3.1508 H   0  0  0  0  0  0  0  0  0  0  0  0
    4.8126    0.1597    2.2083 H   0  0  0  0  0  0  0  0  0  0  0  0
    3.7244   -1.1543    1.6247 H   0  0  0  0  0  0  0  0  0  0  0  0
    0.7132    2.3424   -2.6476 H   0  0  0  0  0  0  0  0  0  0  0  0
   -1.6956    2.3408   -2.2463 H   0  0  0  0  0  0  0  0  0  0  0  0
   -1.6371   -0.9663    2.1464 H   0  0  0  0  0  0  0  0  0  0  0  0
  1  2  1  0
  2  3  1  0
  3  4  1  0
  4  5  1  0
  5  6  2  0
  5  7  2  0
  5  8  1  0
  8  9  1  0
  9 10  1  0
 10 11  1  0
 11 12  2  0
 12 13  1  0
 13 14  2  0
 14 15  1  0
 15 16  1  0
 16 17  1  0
 17 18  1  0
 18 19  1  0
 19 20  1  0
 20 21  1  0
 21 22  1  0
 22 23  1  0
 23 24  1  0
 24 25  1  0
 14 26  1  0
 26 27  2  0
  9 28  1  0
 28 29  1  0
 28 30  2  0
 27 11  1  0
 25 20  1  0
  1 31  1  0
  1 32  1  0
  1 33  1  0
  2 34  1  0
  2 35  1  0
  3 36  1  0
  3 37  1  0
  4 38  1  0
  4 39  1  0
  8 40  1  0
  9 41  1  6
 10 42  1  0
 10 43  1  0
 12 44  1  0
 13 45  1  0
 16 46  1  0
 16 47  1  0
 17 48  1  0
 17 49  1  0
 18 50  1  0
 18 51  1  0
 19 52  1  0
 19 53  1  0
 20 54  1  0
 21 55  1  0
 21 56  1  0
 22 57  1  0
 22 58  1  0
 23 59  1  0
 24 60  1  0
 24 61  1  0
 25 62  1  0
 25 63  1  0
 26 64  1  0
 27 65  1  0
 29 66  1  0
M  END
$$$$
