
     RDKit          3D

 40 42  0  0  0  0  0  0  0  0999 V2000
    3.6836   -0.4422    0.6265 C   0  0  1  0  0  0  0  0  0  0  0  0
    4.7720   -0.9649    1.5830 C   0  0  0  0  0  0  0  0  0  0  0  0
    4.2077   -1.5892    2.7062 O   0  0  0  0  0  0  0  0  0  0  0  0
    2.8474   -1.6041    0.0602 C   0  0  0  0  0  0  0  0  0  0  0  0
    1.6436   -1.1057   -0.6962 C   0  0  0  0  0  0  0  0  0  0  0  0
    0.9431   -1.9855   -1.5348 C   0  0  0  0  0  0  0  0  0  0  0  0
   -0.2104   -1.5616   -2.1985 C   0  0  0  0  0  0  0  0  0  0  0  0
   -0.6828   -0.2555   -2.0253 C   0  0  0  0  0  0  0  0  0  0  0  0
    0.0097    0.6272   -1.1872 C   0  0  0  0  0  0  0  0  0  0  0  0
    1.1579    0.2041   -0.5011 C   0  0  0  0  0  0  0  0  0  0  0  0
    1.9188    1.1879    0.3535 C   0  0  0  0  0  0  0  0  0  0  0  0
    2.7989    0.5106    1.3162 N   0  0  0  0  0  0  0  0  0  0  0  0
   -2.1444    0.2792   -2.8493 S   0  0  0  0  0  6  0  0  0  0  0  0
   -3.0207   -0.8936   -3.1907 O   0  0  0  0  0  0  0  0  0  0  0  0
   -1.7532    0.9844   -4.1170 O   0  0  0  0  0  0  0  0  0  0  0  0
   -3.0329    1.3739   -1.8366 N   0  0  0  0  0  0  0  0  0  0  0  0
   -3.3992    1.0885   -0.4747 C   0  0  0  0  0  0  0  0  0  0  0  0
   -3.2957   -0.2071    0.0685 C   0  0  0  0  0  0  0  0  0  0  0  0
   -3.6499   -0.4456    1.3999 C   0  0  0  0  0  0  0  0  0  0  0  0
   -4.1159    0.6005    2.2012 C   0  0  0  0  0  0  0  0  0  0  0  0
   -4.5586    0.2979    3.8713 Cl  0  0  0  0  0  0  0  0  0  0  0  0
   -4.2312    1.8874    1.6685 C   0  0  0  0  0  0  0  0  0  0  0  0
   -3.8770    2.1296    0.3380 C   0  0  0  0  0  0  0  0  0  0  0  0
    4.2030    0.0678   -0.2186 H   0  0  0  0  0  0  0  0  0  0  0  0
    5.4084   -1.7024    1.0487 H   0  0  0  0  0  0  0  0  0  0  0  0
    5.4374   -0.1276    1.8960 H   0  0  0  0  0  0  0  0  0  0  0  0
    3.9651   -0.8682    3.3438 H   0  0  0  0  0  0  0  0  0  0  0  0
    3.4849   -2.2192   -0.6123 H   0  0  0  0  0  0  0  0  0  0  0  0
    2.4850   -2.2529    0.8869 H   0  0  0  0  0  0  0  0  0  0  0  0
    1.2894   -3.0026   -1.6712 H   0  0  0  0  0  0  0  0  0  0  0  0
   -0.7356   -2.2540   -2.8437 H   0  0  0  0  0  0  0  0  0  0  0  0
   -0.3466    1.6429   -1.0646 H   0  0  0  0  0  0  0  0  0  0  0  0
    2.5142    1.8569   -0.3077 H   0  0  0  0  0  0  0  0  0  0  0  0
    1.1985    1.8191    0.9180 H   0  0  0  0  0  0  0  0  0  0  0  0
    3.3890    1.2516    1.7632 H   0  0  0  0  0  0  0  0  0  0  0  0
   -3.2284    2.3236   -2.2255 H   0  0  0  0  0  0  0  0  0  0  0  0
   -2.9495   -1.0396   -0.5264 H   0  0  0  0  0  0  0  0  0  0  0  0
   -3.5635   -1.4451    1.8068 H   0  0  0  0  0  0  0  0  0  0  0  0
   -4.5936    2.7009    2.2839 H   0  0  0  0  0  0  0  0  0  0  0  0
   -3.9684    3.1329   -0.0587 H   0  0  0  0  0  0  0  0  0  0  0  0
  1  2  1  0
  2  3  1  0
  1  4  1  0
  4  5  1  0
  5  6  2  0
  6  7  1  0
  7  8  2  0
  8  9  1  0
  9 10  2  0
 10 11  1  0
 11 12  1  0
  8 13  1  0
 13 14  2  0
 13 15  2  0
 13 16  1  0
 16 17  1  0
 17 18  2  0
 18 19  1  0
 19 20  2  0
 20 21  1  0
 20 22  1  0
 22 23  2  0
 12  1  1  0
 23 17  1  0
 10  5  1  0
  1 24  1  6
  2 25  1  0
  2 26  1  0
  3 27  1  0
  4 28  1  0
  4 29  1  0
  6 30  1  0
  7 31  1  0
  9 32  1  0
 11 33  1  0
 11 34  1  0
 12 35  1  0
 16 36  1  0
 18 37  1  0
 19 38  1  0
 22 39  1  0
 23 40  1  0
M  END
$$$$
