
     RDKit          3D

 25 25  0  0  0  0  0  0  0  0999 V2000
    3.2605   -0.4575   -0.0370 C   0  0  0  0  0  0  0  0  0  0  0  0
    1.8601    0.1590   -0.1848 C   0  0  2  0  0  0  0  0  0  0  0  0
    1.6540    1.2075    0.8190 N   0  0  0  0  0  0  0  0  0  0  0  0
    0.7557   -0.9226   -0.0586 C   0  0  2  0  0  0  0  0  0  0  0  0
    0.9171   -1.9463   -1.0108 O   0  0  0  0  0  0  0  0  0  0  0  0
   -0.6367   -0.3257   -0.1624 C   0  0  0  0  0  0  0  0  0  0  0  0
   -1.5097   -0.3745    0.9400 C   0  0  0  0  0  0  0  0  0  0  0  0
   -2.7942    0.1816    0.8558 C   0  0  0  0  0  0  0  0  0  0  0  0
   -3.6612    0.1344    1.9453 O   0  0  0  0  0  0  0  0  0  0  0  0
   -3.2120    0.7905   -0.3309 C   0  0  0  0  0  0  0  0  0  0  0  0
   -2.3525    0.8470   -1.4301 C   0  0  0  0  0  0  0  0  0  0  0  0
   -1.0716    0.2939   -1.3493 C   0  0  0  0  0  0  0  0  0  0  0  0
    3.3660   -0.9598    0.9484 H   0  0  0  0  0  0  0  0  0  0  0  0
    4.0354    0.3338   -0.1192 H   0  0  0  0  0  0  0  0  0  0  0  0
    3.4432   -1.2010   -0.8414 H   0  0  0  0  0  0  0  0  0  0  0  0
    1.7996    0.6243   -1.1937 H   0  0  0  0  0  0  0  0  0  0  0  0
    1.8252    0.8137    1.7733 H   0  0  0  0  0  0  0  0  0  0  0  0
    2.3553    1.9677    0.6621 H   0  0  0  0  0  0  0  0  0  0  0  0
    0.8704   -1.3966    0.9415 H   0  0  0  0  0  0  0  0  0  0  0  0
    0.9826   -1.5265   -1.9076 H   0  0  0  0  0  0  0  0  0  0  0  0
   -1.1945   -0.8414    1.8651 H   0  0  0  0  0  0  0  0  0  0  0  0
   -3.3896   -0.2992    2.8200 H   0  0  0  0  0  0  0  0  0  0  0  0
   -4.2027    1.2214   -0.4004 H   0  0  0  0  0  0  0  0  0  0  0  0
   -2.6789    1.3217   -2.3465 H   0  0  0  0  0  0  0  0  0  0  0  0
   -0.4214    0.3544   -2.2121 H   0  0  0  0  0  0  0  0  0  0  0  0
  1  2  1  0
  2  3  1  0
  2  4  1  0
  4  5  1  0
  4  6  1  0
  6  7  2  0
  7  8  1  0
  8  9  1  0
  8 10  2  0
 10 11  1  0
 11 12  2  0
 12  6  1  0
  1 13  1  0
  1 14  1  0
  1 15  1  0
  2 16  1  6
  3 17  1  0
  3 18  1  0
  4 19  1  1
  5 20  1  0
  7 21  1  0
  9 22  1  0
 10 23  1  0
 11 24  1  0
 12 25  1  0
M  END
$$$$
