
     RDKit          3D

 44 48  0  0  0  0  0  0  0  0999 V2000
    5.2743   -1.7981   -1.4455 C   0  0  0  0  0  0  0  0  0  0  0  0
    4.0516   -0.8950   -1.2595 C   0  0  0  0  0  0  0  0  0  0  0  0
    3.6939   -0.6244    0.2302 C   0  0  1  0  0  0  0  0  0  0  0  0
    3.4996   -1.8283    0.9434 O   0  0  0  0  0  0  0  0  0  0  0  0
    4.8232    0.1283    0.9031 C   0  0  0  0  0  0  0  0  0  0  0  0
    5.7704   -0.5005    1.4467 O   0  0  0  0  0  0  0  0  0  0  0  0
    4.8302    1.5240    0.9339 O   0  0  0  0  0  0  0  0  0  0  0  0
    3.8686    2.3011    0.2287 C   0  0  0  0  0  0  0  0  0  0  0  0
    2.5120    1.6463    0.2852 C   0  0  0  0  0  0  0  0  0  0  0  0
    2.4234    0.2261    0.2871 C   0  0  0  0  0  0  0  0  0  0  0  0
    1.1485   -0.3792    0.2492 C   0  0  0  0  0  0  0  0  0  0  0  0
    0.0250    0.4399    0.2416 C   0  0  0  0  0  0  0  0  0  0  0  0
    0.1273    1.7857    0.2447 N   0  0  0  0  0  0  0  0  0  0  0  0
   -1.2043    2.4058    0.2083 C   0  0  0  0  0  0  0  0  0  0  0  0
   -2.1108    1.2095    0.1833 C   0  0  0  0  0  0  0  0  0  0  0  0
   -1.3647    0.0632    0.2025 C   0  0  0  0  0  0  0  0  0  0  0  0
   -1.9204   -1.1698    0.1787 N   0  0  0  0  0  0  0  0  0  0  0  0
   -3.2800   -1.2915    0.1372 C   0  0  0  0  0  0  0  0  0  0  0  0
   -3.8470   -2.5674    0.1111 C   0  0  0  0  0  0  0  0  0  0  0  0
   -5.2303   -2.7199    0.0660 C   0  0  0  0  0  0  0  0  0  0  0  0
   -6.0622   -1.6007    0.0484 C   0  0  0  0  0  0  0  0  0  0  0  0
   -5.5303   -0.3009    0.0759 C   0  0  0  0  0  0  0  0  0  0  0  0
   -6.4465    0.8055    0.0617 N   0  0  0  0  0  0  0  0  0  0  0  0
   -4.1197   -0.1288    0.1185 C   0  0  0  0  0  0  0  0  0  0  0  0
   -3.4996    1.1472    0.1401 C   0  0  0  0  0  0  0  0  0  0  0  0
    1.3302    2.4191    0.2528 C   0  0  0  0  0  0  0  0  0  0  0  0
    1.3810    3.6792    0.2247 O   0  0  0  0  0  0  0  0  0  0  0  0
    6.1915   -1.2992   -1.0697 H   0  0  0  0  0  0  0  0  0  0  0  0
    5.1365   -2.7650   -0.9181 H   0  0  0  0  0  0  0  0  0  0  0  0
    5.4153   -2.0072   -2.5269 H   0  0  0  0  0  0  0  0  0  0  0  0
    4.2406    0.0664   -1.7852 H   0  0  0  0  0  0  0  0  0  0  0  0
    3.1858   -1.3771   -1.7650 H   0  0  0  0  0  0  0  0  0  0  0  0
    3.0298   -2.4786    0.3590 H   0  0  0  0  0  0  0  0  0  0  0  0
    3.8442    3.3164    0.6772 H   0  0  0  0  0  0  0  0  0  0  0  0
    4.1803    2.3946   -0.8329 H   0  0  0  0  0  0  0  0  0  0  0  0
    1.0235   -1.4525    0.2143 H   0  0  0  0  0  0  0  0  0  0  0  0
   -1.3284    3.0115   -0.7148 H   0  0  0  0  0  0  0  0  0  0  0  0
   -1.3780    3.0123    1.1226 H   0  0  0  0  0  0  0  0  0  0  0  0
   -3.2137   -3.4461    0.1246 H   0  0  0  0  0  0  0  0  0  0  0  0
   -5.6620   -3.7123    0.0453 H   0  0  0  0  0  0  0  0  0  0  0  0
   -7.1346   -1.7481    0.0150 H   0  0  0  0  0  0  0  0  0  0  0  0
   -6.1493    1.8014    0.1138 H   0  0  0  0  0  0  0  0  0  0  0  0
   -7.4756    0.6330    0.0129 H   0  0  0  0  0  0  0  0  0  0  0  0
   -4.0491    2.0742    0.1215 H   0  0  0  0  0  0  0  0  0  0  0  0
  1  2  1  0
  2  3  1  0
  3  4  1  1
  3  5  1  0
  5  6  2  0
  5  7  1  0
  7  8  1  0
  8  9  1  0
  9 10  2  0
 10 11  1  0
 11 12  2  0
 12 13  1  0
 13 14  1  0
 14 15  1  0
 15 16  2  0
 16 17  1  0
 17 18  2  0
 18 19  1  0
 19 20  2  0
 20 21  1  0
 21 22  2  0
 22 23  1  0
 22 24  1  0
 24 25  2  0
 13 26  1  0
 26 27  2  0
 10  3  1  0
 16 12  1  0
 24 18  1  0
 26  9  1  0
 25 15  1  0
  1 28  1  0
  1 29  1  0
  1 30  1  0
  2 31  1  0
  2 32  1  0
  4 33  1  0
  8 34  1  0
  8 35  1  0
 11 36  1  0
 14 37  1  0
 14 38  1  0
 19 39  1  0
 20 40  1  0
 21 41  1  0
 23 42  1  0
 23 43  1  0
 25 44  1  0
M  END
$$$$
