
     RDKit          3D

 30 29  0  0  0  0  0  0  0  0999 V2000
    1.1156   -1.7047    0.9357 C   0  0  0  0  0  0  0  0  0  0  0  0
    1.3521   -1.4138    2.0979 O   0  0  0  0  0  0  0  0  0  0  0  0
    1.1046   -0.6455   -0.1348 C   0  0  2  0  0  0  0  0  0  0  0  0
    2.4154    0.0112   -0.1794 N   0  0  0  0  0  0  0  0  0  0  0  0
    3.5663   -0.6179   -0.7599 C   0  0  0  0  0  0  0  0  0  0  0  0
    4.8849    0.0840   -0.7464 C   0  0  0  0  0  0  0  0  0  0  0  0
    3.4788   -1.7708   -1.2629 O   0  0  0  0  0  0  0  0  0  0  0  0
   -0.0193    0.3992    0.1119 C   0  0  1  0  0  0  0  0  0  0  0  0
    0.0671    1.4553   -0.8156 O   0  0  0  0  0  0  0  0  0  0  0  0
   -1.4423   -0.2301    0.1017 C   0  0  2  0  0  0  0  0  0  0  0  0
   -1.6766   -0.9279   -1.0987 O   0  0  0  0  0  0  0  0  0  0  0  0
   -2.5539    0.8239    0.3654 C   0  0  2  0  0  0  0  0  0  0  0  0
   -2.3121    1.5192    1.5643 O   0  0  0  0  0  0  0  0  0  0  0  0
   -3.9513    0.1768    0.4011 C   0  0  0  0  0  0  0  0  0  0  0  0
   -4.9317    1.1414    0.6737 O   0  0  0  0  0  0  0  0  0  0  0  0
    0.9164   -2.7386    0.6736 H   0  0  0  0  0  0  0  0  0  0  0  0
    0.9170   -1.1361   -1.1156 H   0  0  0  0  0  0  0  0  0  0  0  0
    2.5347    0.9531    0.2591 H   0  0  0  0  0  0  0  0  0  0  0  0
    4.7659    1.1106   -1.1516 H   0  0  0  0  0  0  0  0  0  0  0  0
    5.2609    0.1438    0.2961 H   0  0  0  0  0  0  0  0  0  0  0  0
    5.6253   -0.4628   -1.3682 H   0  0  0  0  0  0  0  0  0  0  0  0
    0.1500    0.8379    1.1201 H   0  0  0  0  0  0  0  0  0  0  0  0
    0.0936    1.0623   -1.7263 H   0  0  0  0  0  0  0  0  0  0  0  0
   -1.4903   -0.9729    0.9277 H   0  0  0  0  0  0  0  0  0  0  0  0
   -1.7928   -0.2603   -1.8233 H   0  0  0  0  0  0  0  0  0  0  0  0
   -2.5451    1.5656   -0.4629 H   0  0  0  0  0  0  0  0  0  0  0  0
   -2.3185    0.8549    2.3027 H   0  0  0  0  0  0  0  0  0  0  0  0
   -4.1731   -0.3256   -0.5678 H   0  0  0  0  0  0  0  0  0  0  0  0
   -3.9867   -0.5970    1.1975 H   0  0  0  0  0  0  0  0  0  0  0  0
   -5.0548    1.6649   -0.1610 H   0  0  0  0  0  0  0  0  0  0  0  0
  1  2  2  0
  1  3  1  0
  3  4  1  0
  4  5  1  0
  5  6  1  0
  5  7  2  0
  3  8  1  0
  8  9  1  0
  8 10  1  0
 10 11  1  0
 10 12  1  0
 12 13  1  0
 12 14  1  0
 14 15  1  0
  1 16  1  0
  3 17  1  6
  4 18  1  0
  6 19  1  0
  6 20  1  0
  6 21  1  0
  8 22  1  1
  9 23  1  0
 10 24  1  1
 11 25  1  0
 12 26  1  6
 13 27  1  0
 14 28  1  0
 14 29  1  0
 15 30  1  0
M  END
$$$$
