
     RDKit          3D

 21 22  0  0  0  0  0  0  0  0999 V2000
   -3.2191    0.9842    0.0087 C   0  0  0  0  0  0  0  0  0  0  0  0
   -1.8939    0.2933    0.0590 C   0  0  0  0  0  0  0  0  0  0  0  0
   -0.7567    0.9988   -0.1761 N   0  0  0  0  0  0  0  0  0  0  0  0
    0.4661    0.4089   -0.1279 C   0  0  0  0  0  0  0  0  0  0  0  0
    0.5638   -0.9667    0.1761 C   0  0  0  0  0  0  0  0  0  0  0  0
    1.8286   -1.5791    0.2263 C   0  0  0  0  0  0  0  0  0  0  0  0
    2.9799   -0.8283   -0.0235 C   0  0  0  0  0  0  0  0  0  0  0  0
    2.8817    0.5327   -0.3238 C   0  0  0  0  0  0  0  0  0  0  0  0
    1.6314    1.1584   -0.3779 C   0  0  0  0  0  0  0  0  0  0  0  0
    1.5707    2.5192   -0.6807 O   0  0  0  0  0  0  0  0  0  0  0  0
   -0.6242   -1.6768    0.4211 C   0  0  0  0  0  0  0  0  0  0  0  0
   -0.5932   -2.9070    0.6991 O   0  0  0  0  0  0  0  0  0  0  0  0
   -1.8223   -1.0334    0.3593 N   0  0  0  0  0  0  0  0  0  0  0  0
   -3.6647    1.0057    1.0250 H   0  0  0  0  0  0  0  0  0  0  0  0
   -3.1035    2.0268   -0.3567 H   0  0  0  0  0  0  0  0  0  0  0  0
   -3.8998    0.4389   -0.6781 H   0  0  0  0  0  0  0  0  0  0  0  0
    1.9295   -2.6324    0.4574 H   0  0  0  0  0  0  0  0  0  0  0  0
    3.9521   -1.3026    0.0159 H   0  0  0  0  0  0  0  0  0  0  0  0
    3.7810    1.1043   -0.5153 H   0  0  0  0  0  0  0  0  0  0  0  0
    0.6939    3.0234   -0.7335 H   0  0  0  0  0  0  0  0  0  0  0  0
   -2.7014   -1.5684    0.5457 H   0  0  0  0  0  0  0  0  0  0  0  0
  1  2  1  0
  2  3  2  0
  3  4  1  0
  4  5  2  0
  5  6  1  0
  6  7  2  0
  7  8  1  0
  8  9  2  0
  9 10  1  0
  5 11  1  0
 11 12  2  0
 11 13  1  0
 13  2  1  0
  9  4  1  0
  1 14  1  0
  1 15  1  0
  1 16  1  0
  6 17  1  0
  7 18  1  0
  8 19  1  0
 10 20  1  0
 13 21  1  0
M  END
$$$$
