
     RDKit          3D

 41 42  0  0  0  0  0  0  0  0999 V2000
    4.6016   -1.1162   -0.1409 C   0  0  0  0  0  0  0  0  0  0  0  0
    4.0956    0.3296   -0.2685 C   0  0  0  0  0  0  0  0  0  0  0  0
    5.2778    1.2563   -0.5774 C   0  0  0  0  0  0  0  0  0  0  0  0
    3.4342    0.7865    0.9714 N   0  0  0  0  0  0  0  0  0  0  0  0
    2.2474    0.0102    1.3829 C   0  0  0  0  0  0  0  0  0  0  0  0
    1.1109   -0.0581    0.3313 C   0  0  0  0  0  0  0  0  0  0  0  0
    0.6254    1.3447   -0.0872 C   0  0  0  0  0  0  0  0  0  0  0  0
   -0.5696    1.2452   -1.0408 C   0  0  0  0  0  0  0  0  0  0  0  0
   -1.6693    0.3928   -0.4642 C   0  0  0  0  0  0  0  0  0  0  0  0
   -2.9913    0.5721   -0.8907 C   0  0  0  0  0  0  0  0  0  0  0  0
   -4.0317   -0.2342   -0.3893 C   0  0  0  0  0  0  0  0  0  0  0  0
   -5.4596    0.0193   -0.8291 C   0  0  0  0  0  0  0  0  0  0  0  0
   -5.6657    1.3668   -1.1669 O   0  0  0  0  0  0  0  0  0  0  0  0
   -3.7116   -1.2961    0.4970 C   0  0  0  0  0  0  0  0  0  0  0  0
   -2.3827   -1.4655    0.9183 C   0  0  0  0  0  0  0  0  0  0  0  0
   -1.3629   -0.6354    0.4402 C   0  0  0  0  0  0  0  0  0  0  0  0
   -0.0095   -0.8311    0.8818 N   0  0  0  0  0  0  0  0  0  0  0  0
   -4.7100   -2.2173    0.9706 N   0  0  0  0  0  4  0  0  0  0  0  0
   -4.5889   -2.7774    2.2216 O   0  0  0  0  0  1  0  0  0  0  0  0
   -5.5761   -2.6674    0.1925 O   0  0  0  0  0  0  0  0  0  0  0  0
    5.2004   -1.2375    0.7871 H   0  0  0  0  0  0  0  0  0  0  0  0
    3.7512   -1.8285   -0.1241 H   0  0  0  0  0  0  0  0  0  0  0  0
    5.2338   -1.3853   -1.0141 H   0  0  0  0  0  0  0  0  0  0  0  0
    3.3996    0.3976   -1.1314 H   0  0  0  0  0  0  0  0  0  0  0  0
    6.0152    1.2358    0.2537 H   0  0  0  0  0  0  0  0  0  0  0  0
    4.9206    2.2995   -0.7123 H   0  0  0  0  0  0  0  0  0  0  0  0
    5.7817    0.9434   -1.5170 H   0  0  0  0  0  0  0  0  0  0  0  0
    3.1645    1.7932    0.8792 H   0  0  0  0  0  0  0  0  0  0  0  0
    2.5565   -1.0170    1.6693 H   0  0  0  0  0  0  0  0  0  0  0  0
    1.8399    0.4678    2.3112 H   0  0  0  0  0  0  0  0  0  0  0  0
    1.4730   -0.5984   -0.5686 H   0  0  0  0  0  0  0  0  0  0  0  0
    0.3292    1.9265    0.8137 H   0  0  0  0  0  0  0  0  0  0  0  0
    1.4351    1.8959   -0.6099 H   0  0  0  0  0  0  0  0  0  0  0  0
   -0.9469    2.2711   -1.2450 H   0  0  0  0  0  0  0  0  0  0  0  0
   -0.2395    0.8002   -2.0044 H   0  0  0  0  0  0  0  0  0  0  0  0
   -3.2043    1.3526   -1.6104 H   0  0  0  0  0  0  0  0  0  0  0  0
   -6.1552   -0.2144    0.0035 H   0  0  0  0  0  0  0  0  0  0  0  0
   -5.7086   -0.6528   -1.6827 H   0  0  0  0  0  0  0  0  0  0  0  0
   -5.5758    1.4368   -2.1532 H   0  0  0  0  0  0  0  0  0  0  0  0
   -2.1341   -2.2676    1.6023 H   0  0  0  0  0  0  0  0  0  0  0  0
    0.1998   -1.6435    1.5063 H   0  0  0  0  0  0  0  0  0  0  0  0
  1  2  1  0
  2  3  1  0
  2  4  1  0
  4  5  1  0
  5  6  1  0
  6  7  1  0
  7  8  1  0
  8  9  1  0
  9 10  2  0
 10 11  1  0
 11 12  1  0
 12 13  1  0
 11 14  2  0
 14 15  1  0
 15 16  2  0
 16 17  1  0
 14 18  1  0
 18 19  1  0
 18 20  2  0
 17  6  1  0
 16  9  1  0
  1 21  1  0
  1 22  1  0
  1 23  1  0
  2 24  1  0
  3 25  1  0
  3 26  1  0
  3 27  1  0
  4 28  1  0
  5 29  1  0
  5 30  1  0
  6 31  1  0
  7 32  1  0
  7 33  1  0
  8 34  1  0
  8 35  1  0
 10 36  1  0
 12 37  1  0
 12 38  1  0
 13 39  1  0
 15 40  1  0
 17 41  1  0
M  CHG  2  18   1  19  -1
M  END
$$$$
