
     RDKit          3D

 37 37  0  0  0  0  0  0  0  0999 V2000
   -3.1708   -2.1623   -0.4815 C   0  0  0  0  0  0  0  0  0  0  0  0
   -3.3102   -0.7827   -1.1156 C   0  0  0  0  0  0  0  0  0  0  0  0
   -2.7077    0.2449   -0.2572 N   0  0  0  0  0  0  0  0  0  0  0  0
   -3.5311    1.2829    0.3756 C   0  0  0  0  0  0  0  0  0  0  0  0
   -3.5225    1.1252    1.8920 C   0  0  0  0  0  0  0  0  0  0  0  0
   -1.2783    0.3536   -0.1965 C   0  0  0  0  0  0  0  0  0  0  0  0
   -0.5934    1.1258   -1.1420 C   0  0  0  0  0  0  0  0  0  0  0  0
    0.8012    1.2369   -1.0955 C   0  0  0  0  0  0  0  0  0  0  0  0
    1.4377    2.0123   -2.0670 O   0  0  0  0  0  0  0  0  0  0  0  0
    1.5250    0.5595   -0.0889 C   0  0  0  0  0  0  0  0  0  0  0  0
    2.9942    0.7007    0.0133 C   0  0  0  0  0  0  0  0  0  0  0  0
    3.8600   -0.3344    0.0123 C   0  0  0  0  0  0  0  0  0  0  0  0
    3.3895   -1.7621   -0.1414 C   0  0  0  0  0  0  0  0  0  0  0  0
    5.3092   -0.0765    0.1966 C   0  0  0  0  0  0  0  0  0  0  0  0
    5.7925    1.2271    0.2878 O   0  0  0  0  0  0  0  0  0  0  0  0
    6.1196   -1.0387    0.2788 O   0  0  0  0  0  0  0  0  0  0  0  0
    0.8269   -0.1966    0.8688 C   0  0  0  0  0  0  0  0  0  0  0  0
   -0.5636   -0.3047    0.8099 C   0  0  0  0  0  0  0  0  0  0  0  0
   -3.6199   -2.1620    0.5343 H   0  0  0  0  0  0  0  0  0  0  0  0
   -3.6966   -2.9147   -1.1063 H   0  0  0  0  0  0  0  0  0  0  0  0
   -2.1007   -2.4490   -0.4105 H   0  0  0  0  0  0  0  0  0  0  0  0
   -4.3900   -0.5802   -1.2816 H   0  0  0  0  0  0  0  0  0  0  0  0
   -2.8155   -0.7784   -2.1112 H   0  0  0  0  0  0  0  0  0  0  0  0
   -4.5832    1.2270    0.0228 H   0  0  0  0  0  0  0  0  0  0  0  0
   -3.1434    2.2886    0.1032 H   0  0  0  0  0  0  0  0  0  0  0  0
   -4.2064    1.8713    2.3485 H   0  0  0  0  0  0  0  0  0  0  0  0
   -2.5006    1.2923    2.2924 H   0  0  0  0  0  0  0  0  0  0  0  0
   -3.8648    0.1061    2.1711 H   0  0  0  0  0  0  0  0  0  0  0  0
   -1.1471    1.6395   -1.9183 H   0  0  0  0  0  0  0  0  0  0  0  0
    2.4437    2.1119   -2.1186 H   0  0  0  0  0  0  0  0  0  0  0  0
    3.3731    1.7142    0.0657 H   0  0  0  0  0  0  0  0  0  0  0  0
    4.1768   -2.3894   -0.6093 H   0  0  0  0  0  0  0  0  0  0  0  0
    3.1458   -2.1850    0.8551 H   0  0  0  0  0  0  0  0  0  0  0  0
    2.4984   -1.8266   -0.8009 H   0  0  0  0  0  0  0  0  0  0  0  0
    6.7810    1.4079    0.4159 H   0  0  0  0  0  0  0  0  0  0  0  0
    1.3582   -0.6907    1.6725 H   0  0  0  0  0  0  0  0  0  0  0  0
   -1.0872   -0.8938    1.5523 H   0  0  0  0  0  0  0  0  0  0  0  0
  1  2  1  0
  2  3  1  0
  3  4  1  0
  4  5  1  0
  3  6  1  0
  6  7  2  0
  7  8  1  0
  8  9  1  0
  8 10  2  0
 10 11  1  0
 11 12  2  0
 12 13  1  0
 12 14  1  0
 14 15  1  0
 14 16  2  0
 10 17  1  0
 17 18  2  0
 18  6  1  0
  1 19  1  0
  1 20  1  0
  1 21  1  0
  2 22  1  0
  2 23  1  0
  4 24  1  0
  4 25  1  0
  5 26  1  0
  5 27  1  0
  5 28  1  0
  7 29  1  0
  9 30  1  0
 11 31  1  0
 13 32  1  0
 13 33  1  0
 13 34  1  0
 15 35  1  0
 17 36  1  0
 18 37  1  0
M  END
$$$$
