
     RDKit          3D

 22 21  0  0  0  0  0  0  0  0999 V2000
   -1.6194    0.6101   -1.0678 C   0  0  0  0  0  0  0  0  0  0  0  0
   -0.9620    0.4869    0.3154 C   0  0  0  0  0  0  0  0  0  0  0  0
   -2.0451    0.3896    1.3978 C   0  0  0  0  0  0  0  0  0  0  0  0
   -0.0179   -0.7384    0.4042 C   0  0  0  0  0  0  0  0  0  0  0  0
    1.2253   -0.6541   -0.5148 C   0  0  2  0  0  0  0  0  0  0  0  0
    2.0334   -1.8712   -0.4096 N   0  0  0  0  0  0  0  0  0  0  0  0
    2.0773    0.5399   -0.1865 C   0  0  0  0  0  0  0  0  0  0  0  0
    2.2149    1.5671   -1.1150 O   0  0  0  0  0  0  0  0  0  0  0  0
    2.6556    0.6224    0.9308 O   0  0  0  0  0  0  0  0  0  0  0  0
   -2.3677    1.4314   -1.0667 H   0  0  0  0  0  0  0  0  0  0  0  0
   -0.8638    0.8589   -1.8406 H   0  0  0  0  0  0  0  0  0  0  0  0
   -2.1303   -0.3364   -1.3464 H   0  0  0  0  0  0  0  0  0  0  0  0
   -0.3819    1.4150    0.5111 H   0  0  0  0  0  0  0  0  0  0  0  0
   -2.6669   -0.5196    1.2495 H   0  0  0  0  0  0  0  0  0  0  0  0
   -2.7036    1.2839    1.3661 H   0  0  0  0  0  0  0  0  0  0  0  0
   -1.5792    0.3454    2.4054 H   0  0  0  0  0  0  0  0  0  0  0  0
   -0.5922   -1.6570    0.1509 H   0  0  0  0  0  0  0  0  0  0  0  0
    0.3283   -0.8519    1.4558 H   0  0  0  0  0  0  0  0  0  0  0  0
    0.8923   -0.5661   -1.5708 H   0  0  0  0  0  0  0  0  0  0  0  0
    2.2570   -2.0590    0.5955 H   0  0  0  0  0  0  0  0  0  0  0  0
    1.4676   -2.6797   -0.7570 H   0  0  0  0  0  0  0  0  0  0  0  0
    2.7783    2.3829   -0.9074 H   0  0  0  0  0  0  0  0  0  0  0  0
  1  2  1  0
  2  3  1  0
  2  4  1  0
  4  5  1  0
  5  6  1  0
  5  7  1  0
  7  8  1  0
  7  9  2  0
  1 10  1  0
  1 11  1  0
  1 12  1  0
  2 13  1  0
  3 14  1  0
  3 15  1  0
  3 16  1  0
  4 17  1  0
  4 18  1  0
  5 19  1  6
  6 20  1  0
  6 21  1  0
  8 22  1  0
M  END
$$$$
