
     RDKit          3D

 58 61  0  0  0  0  0  0  0  0999 V2000
   -5.6669    3.0934   -2.2816 C   0  0  0  0  0  0  0  0  0  0  0  0
   -4.7250    2.4262   -1.4477 O   0  0  0  0  0  0  0  0  0  0  0  0
   -5.0121    1.2971   -0.6635 C   0  0  0  0  0  0  0  0  0  0  0  0
   -3.9785    0.7463    0.1078 C   0  0  0  0  0  0  0  0  0  0  0  0
   -2.7138    1.3583    0.0545 O   0  0  0  0  0  0  0  0  0  0  0  0
   -1.5275    0.8766    0.6861 C   0  0  0  0  0  0  0  0  0  0  0  0
   -0.9511   -0.3164   -0.0867 C   0  0  0  0  0  0  0  0  0  0  0  0
    0.2893   -0.8978    0.6027 C   0  0  0  0  0  0  0  0  0  0  0  0
    1.3752    0.1081    0.6672 N   0  0  0  0  0  0  0  0  0  0  0  0
    2.1736    0.0262    1.9060 C   0  0  0  0  0  0  0  0  0  0  0  0
    3.1320   -1.1771    1.9088 C   0  0  0  0  0  0  0  0  0  0  0  0
    4.0304   -1.2224    0.6576 C   0  0  0  0  0  0  0  0  0  0  0  0
    3.1997   -1.0513   -0.6246 C   0  0  0  0  0  0  0  0  0  0  0  0
    2.2318    0.1427   -0.5388 C   0  0  0  0  0  0  0  0  0  0  0  0
    5.1758   -0.2356    0.7069 C   0  0  0  0  0  0  0  0  0  0  0  0
    5.1839    0.9301    1.3996 N   0  0  0  0  0  0  0  0  0  0  0  0
    6.3195    1.5305    1.1568 O   0  0  0  0  0  0  0  0  0  0  0  0
    7.0428    0.8132    0.3339 C   0  0  0  0  0  0  0  0  0  0  0  0
    6.3623   -0.3237    0.0092 C   0  0  0  0  0  0  0  0  0  0  0  0
    6.8841   -1.2748   -0.8658 C   0  0  0  0  0  0  0  0  0  0  0  0
    8.1594   -1.0266   -1.4088 C   0  0  0  0  0  0  0  0  0  0  0  0
    8.8680    0.1504   -1.0685 C   0  0  0  0  0  0  0  0  0  0  0  0
   10.0947    0.3759   -1.5995 F   0  0  0  0  0  0  0  0  0  0  0  0
    8.3051    1.0905   -0.1830 C   0  0  0  0  0  0  0  0  0  0  0  0
   -4.2376   -0.3821    0.9067 C   0  0  0  0  0  0  0  0  0  0  0  0
   -5.5090   -0.9565    0.9300 C   0  0  0  0  0  0  0  0  0  0  0  0
   -6.5544   -0.4192    0.1605 C   0  0  0  0  0  0  0  0  0  0  0  0
   -6.2941    0.7127   -0.6351 C   0  0  0  0  0  0  0  0  0  0  0  0
   -7.9038   -1.0471    0.1992 C   0  0  0  0  0  0  0  0  0  0  0  0
   -9.0523   -0.5123   -0.6032 C   0  0  0  0  0  0  0  0  0  0  0  0
   -8.1019   -2.0600    0.9242 O   0  0  0  0  0  0  0  0  0  0  0  0
   -6.5093    3.4823   -1.6713 H   0  0  0  0  0  0  0  0  0  0  0  0
   -5.1667    3.9482   -2.7810 H   0  0  0  0  0  0  0  0  0  0  0  0
   -6.0462    2.3993   -3.0610 H   0  0  0  0  0  0  0  0  0  0  0  0
   -1.7271    0.6174    1.7477 H   0  0  0  0  0  0  0  0  0  0  0  0
   -0.7825    1.7001    0.6834 H   0  0  0  0  0  0  0  0  0  0  0  0
   -0.7018    0.0012   -1.1211 H   0  0  0  0  0  0  0  0  0  0  0  0
   -1.7163   -1.1173   -0.1628 H   0  0  0  0  0  0  0  0  0  0  0  0
   -0.0158   -1.2308    1.6201 H   0  0  0  0  0  0  0  0  0  0  0  0
    0.6065   -1.8120    0.0607 H   0  0  0  0  0  0  0  0  0  0  0  0
    2.7415    0.9705    2.0302 H   0  0  0  0  0  0  0  0  0  0  0  0
    1.5069   -0.0322    2.7940 H   0  0  0  0  0  0  0  0  0  0  0  0
    2.5299   -2.1110    1.9531 H   0  0  0  0  0  0  0  0  0  0  0  0
    3.7591   -1.1498    2.8265 H   0  0  0  0  0  0  0  0  0  0  0  0
    4.4857   -2.2371    0.6269 H   0  0  0  0  0  0  0  0  0  0  0  0
    2.6342   -1.9860   -0.8189 H   0  0  0  0  0  0  0  0  0  0  0  0
    3.8713   -0.9111   -1.4997 H   0  0  0  0  0  0  0  0  0  0  0  0
    2.8207    1.0858   -0.5352 H   0  0  0  0  0  0  0  0  0  0  0  0
    1.6071    0.1697   -1.4567 H   0  0  0  0  0  0  0  0  0  0  0  0
    6.3333   -2.1705   -1.1212 H   0  0  0  0  0  0  0  0  0  0  0  0
    8.5994   -1.7418   -2.0916 H   0  0  0  0  0  0  0  0  0  0  0  0
    8.8324    1.9969    0.0841 H   0  0  0  0  0  0  0  0  0  0  0  0
   -3.4657   -0.8272    1.5178 H   0  0  0  0  0  0  0  0  0  0  0  0
   -5.6723   -1.8254    1.5555 H   0  0  0  0  0  0  0  0  0  0  0  0
   -7.0850    1.1410   -1.2325 H   0  0  0  0  0  0  0  0  0  0  0  0
   -9.9646   -1.1229   -0.4330 H   0  0  0  0  0  0  0  0  0  0  0  0
   -8.8050   -0.5463   -1.6849 H   0  0  0  0  0  0  0  0  0  0  0  0
   -9.2694    0.5335   -0.3006 H   0  0  0  0  0  0  0  0  0  0  0  0
  1  2  1  0
  2  3  1  0
  3  4  2  0
  4  5  1  0
  5  6  1  0
  6  7  1  0
  7  8  1  0
  8  9  1  0
  9 10  1  0
 10 11  1  0
 11 12  1  0
 12 13  1  0
 13 14  1  0
 12 15  1  0
 15 16  2  0
 16 17  1  0
 17 18  1  0
 18 19  2  0
 19 20  1  0
 20 21  2  0
 21 22  1  0
 22 23  1  0
 22 24  2  0
  4 25  1  0
 25 26  2  0
 26 27  1  0
 27 28  2  0
 27 29  1  0
 29 30  1  0
 29 31  2  0
 28  3  1  0
 14  9  1  0
 19 15  1  0
 24 18  1  0
  1 32  1  0
  1 33  1  0
  1 34  1  0
  6 35  1  0
  6 36  1  0
  7 37  1  0
  7 38  1  0
  8 39  1  0
  8 40  1  0
 10 41  1  0
 10 42  1  0
 11 43  1  0
 11 44  1  0
 12 45  1  0
 13 46  1  0
 13 47  1  0
 14 48  1  0
 14 49  1  0
 20 50  1  0
 21 51  1  0
 24 52  1  0
 25 53  1  0
 26 54  1  0
 28 55  1  0
 30 56  1  0
 30 57  1  0
 30 58  1  0
M  END
$$$$
