
     RDKit          3D

 34 37  0  0  0  0  0  0  0  0999 V2000
   -4.2415   -2.0520    1.3925 C   0  0  0  0  0  0  0  0  0  0  0  0
   -3.1635   -1.3780    0.6811 N   0  0  0  0  0  0  0  0  0  0  0  0
   -1.8724   -1.6134    0.8812 N   0  0  0  0  0  0  0  0  0  0  0  0
   -1.1601   -0.7528    0.1094 C   0  0  0  0  0  0  0  0  0  0  0  0
   -2.0498    0.0514   -0.5991 C   0  0  0  0  0  0  0  0  0  0  0  0
   -1.9521    1.0710   -1.5523 C   0  0  0  0  0  0  0  0  0  0  0  0
   -0.7120    1.4563   -2.1468 N   0  0  0  0  0  0  0  0  0  0  0  0
   -3.1144    1.6500   -1.9781 N   0  0  0  0  0  0  0  0  0  0  0  0
   -4.3366    1.2403   -1.5137 C   0  0  0  0  0  0  0  0  0  0  0  0
   -4.4285    0.2128   -0.6196 N   0  0  0  0  0  0  0  0  0  0  0  0
   -3.2807   -0.3642   -0.1896 C   0  0  0  0  0  0  0  0  0  0  0  0
    0.3074   -0.6502    0.1817 C   0  0  0  0  0  0  0  0  0  0  0  0
    0.9260    0.5888    0.4136 C   0  0  0  0  0  0  0  0  0  0  0  0
    2.3223    0.6754    0.5173 C   0  0  0  0  0  0  0  0  0  0  0  0
    2.9488    1.9133    0.7299 C   0  0  0  0  0  0  0  0  0  0  0  0
    4.3410    1.9868    0.8313 C   0  0  0  0  0  0  0  0  0  0  0  0
    5.1164    0.8291    0.7233 C   0  0  0  0  0  0  0  0  0  0  0  0
    4.5049   -0.4103    0.5138 C   0  0  0  0  0  0  0  0  0  0  0  0
    3.1079   -0.4978    0.4096 C   0  0  0  0  0  0  0  0  0  0  0  0
    2.4815   -1.7358    0.2065 C   0  0  0  0  0  0  0  0  0  0  0  0
    1.0900   -1.8109    0.1026 C   0  0  0  0  0  0  0  0  0  0  0  0
   -5.0819   -2.2622    0.6976 H   0  0  0  0  0  0  0  0  0  0  0  0
   -4.6010   -1.4061    2.2205 H   0  0  0  0  0  0  0  0  0  0  0  0
   -3.8775   -3.0135    1.8122 H   0  0  0  0  0  0  0  0  0  0  0  0
   -0.6773    2.2832   -2.7832 H   0  0  0  0  0  0  0  0  0  0  0  0
    0.1315    0.8466   -2.0927 H   0  0  0  0  0  0  0  0  0  0  0  0
   -5.2359    1.7218   -1.8722 H   0  0  0  0  0  0  0  0  0  0  0  0
    0.3189    1.4813    0.5164 H   0  0  0  0  0  0  0  0  0  0  0  0
    2.3637    2.8213    0.8157 H   0  0  0  0  0  0  0  0  0  0  0  0
    4.8203    2.9435    0.9942 H   0  0  0  0  0  0  0  0  0  0  0  0
    6.1939    0.8925    0.8031 H   0  0  0  0  0  0  0  0  0  0  0  0
    5.1216   -1.2977    0.4344 H   0  0  0  0  0  0  0  0  0  0  0  0
    3.0668   -2.6445    0.1305 H   0  0  0  0  0  0  0  0  0  0  0  0
    0.6222   -2.7760   -0.0505 H   0  0  0  0  0  0  0  0  0  0  0  0
  1  2  1  0
  2  3  1  0
  3  4  2  0
  4  5  1  0
  5  6  2  0
  6  7  1  0
  6  8  1  0
  8  9  2  0
  9 10  1  0
 10 11  2  0
  4 12  1  0
 12 13  2  0
 13 14  1  0
 14 15  2  0
 15 16  1  0
 16 17  2  0
 17 18  1  0
 18 19  2  0
 19 20  1  0
 20 21  2  0
 11  2  1  0
 21 12  1  0
 11  5  1  0
 19 14  1  0
  1 22  1  0
  1 23  1  0
  1 24  1  0
  7 25  1  0
  7 26  1  0
  9 27  1  0
 13 28  1  0
 15 29  1  0
 16 30  1  0
 17 31  1  0
 18 32  1  0
 20 33  1  0
 21 34  1  0
M  END
$$$$
