
     RDKit          3D

 31 32  0  0  0  0  0  0  0  0999 V2000
    0.5836    2.4280    0.0654 C   0  0  0  0  0  0  0  0  0  0  0  0
    0.9625    1.1528    0.8267 C   0  0  0  0  0  0  0  0  0  0  0  0
    0.4417   -0.1688    0.1716 C   0  0  0  0  0  0  0  0  0  0  0  0
    1.0743   -0.3662   -1.2460 C   0  0  0  0  0  0  0  0  0  0  0  0
    2.6067   -0.4580   -1.2385 C   0  0  0  0  0  0  0  0  0  0  0  0
    3.0814   -1.4676   -0.2384 C   0  0  0  0  0  0  0  0  0  0  0  0
    4.2457   -1.9383   -0.3362 O   0  0  0  0  0  0  0  0  0  0  0  0
    2.2400   -1.8773    0.8442 N   0  0  0  0  0  0  0  0  0  0  0  0
    0.9262   -1.3347    1.0307 C   0  0  0  0  0  0  0  0  0  0  0  0
    0.2088   -1.7990    1.9578 O   0  0  0  0  0  0  0  0  0  0  0  0
   -1.1117   -0.1506    0.1179 C   0  0  0  0  0  0  0  0  0  0  0  0
   -1.8569    0.0729    1.3020 C   0  0  0  0  0  0  0  0  0  0  0  0
   -3.2533    0.1107    1.2841 C   0  0  0  0  0  0  0  0  0  0  0  0
   -3.9438   -0.0697    0.0883 C   0  0  0  0  0  0  0  0  0  0  0  0
   -3.2392   -0.2879   -1.0933 C   0  0  0  0  0  0  0  0  0  0  0  0
   -1.8418   -0.3276   -1.0855 C   0  0  0  0  0  0  0  0  0  0  0  0
    1.1121    2.4793   -0.9082 H   0  0  0  0  0  0  0  0  0  0  0  0
    0.8872    3.3141    0.6618 H   0  0  0  0  0  0  0  0  0  0  0  0
   -0.5120    2.4829   -0.1024 H   0  0  0  0  0  0  0  0  0  0  0  0
    0.5784    1.2469    1.8635 H   0  0  0  0  0  0  0  0  0  0  0  0
    2.0668    1.1280    0.9389 H   0  0  0  0  0  0  0  0  0  0  0  0
    0.7736    0.4516   -1.9344 H   0  0  0  0  0  0  0  0  0  0  0  0
    0.7001   -1.3201   -1.6818 H   0  0  0  0  0  0  0  0  0  0  0  0
    3.0590    0.5305   -1.0159 H   0  0  0  0  0  0  0  0  0  0  0  0
    2.9516   -0.7582   -2.2518 H   0  0  0  0  0  0  0  0  0  0  0  0
    2.5852   -2.6104    1.5042 H   0  0  0  0  0  0  0  0  0  0  0  0
   -1.3638    0.2122    2.2537 H   0  0  0  0  0  0  0  0  0  0  0  0
   -3.8009    0.2800    2.2023 H   0  0  0  0  0  0  0  0  0  0  0  0
   -5.0257   -0.0394    0.0770 H   0  0  0  0  0  0  0  0  0  0  0  0
   -3.7777   -0.4249   -2.0224 H   0  0  0  0  0  0  0  0  0  0  0  0
   -1.3579   -0.4913   -2.0356 H   0  0  0  0  0  0  0  0  0  0  0  0
  1  2  1  0
  2  3  1  0
  3  4  1  0
  4  5  1  0
  5  6  1  0
  6  7  2  0
  6  8  1  0
  8  9  1  0
  9 10  2  0
  3 11  1  0
 11 12  2  0
 12 13  1  0
 13 14  2  0
 14 15  1  0
 15 16  2  0
  9  3  1  0
 16 11  1  0
  1 17  1  0
  1 18  1  0
  1 19  1  0
  2 20  1  0
  2 21  1  0
  4 22  1  0
  4 23  1  0
  5 24  1  0
  5 25  1  0
  8 26  1  0
 12 27  1  0
 13 28  1  0
 14 29  1  0
 15 30  1  0
 16 31  1  0
M  END
$$$$
