
     RDKit          3D

 40 43  0  0  0  0  0  0  0  0999 V2000
    5.5933    0.1454    1.7323 N   0  0  0  0  0  0  0  0  0  0  0  0
    5.0736    1.2650    0.5196 S   0  0  0  0  0  6  0  0  0  0  0  0
    4.9637    2.6313    1.1355 O   0  0  0  0  0  0  0  0  0  0  0  0
    6.0934    1.2908   -0.5845 O   0  0  0  0  0  0  0  0  0  0  0  0
    3.5018    0.7940   -0.1393 C   0  0  0  0  0  0  0  0  0  0  0  0
    2.9047    1.5218   -1.1898 C   0  0  0  0  0  0  0  0  0  0  0  0
    3.6777    2.9356   -1.8992 Cl  0  0  0  0  0  0  0  0  0  0  0  0
    1.6586    1.1284   -1.6919 C   0  0  0  0  0  0  0  0  0  0  0  0
    0.9898    0.0226   -1.1528 C   0  0  0  0  0  0  0  0  0  0  0  0
   -0.2932   -0.3615   -1.6694 N   0  0  0  0  0  0  0  0  0  0  0  0
   -1.2644   -1.1462   -0.8964 C   0  0  0  0  0  0  0  0  0  0  0  0
   -0.6748   -2.4060   -0.4118 N   0  0  0  0  0  0  0  0  0  0  0  0
    0.7814   -2.1326    0.4993 S   0  0  0  0  0  6  0  0  0  0  0  0
    1.6869   -3.3230    0.3514 O   0  0  0  0  0  0  0  0  0  0  0  0
    0.4386   -1.9406    1.9498 O   0  0  0  0  0  0  0  0  0  0  0  0
    1.5872   -0.7060   -0.1188 C   0  0  0  0  0  0  0  0  0  0  0  0
    2.8323   -0.3205    0.3891 C   0  0  0  0  0  0  0  0  0  0  0  0
   -1.8554   -0.3014    0.2640 C   0  0  0  0  0  0  0  0  0  0  0  0
   -2.9892   -1.0237    1.0437 C   0  0  0  0  0  0  0  0  0  0  0  0
   -4.1465   -0.0047    0.9693 C   0  0  0  0  0  0  0  0  0  0  0  0
   -3.3991    1.3142    1.0320 C   0  0  0  0  0  0  0  0  0  0  0  0
   -2.5603    1.0041   -0.1939 C   0  0  0  0  0  0  0  0  0  0  0  0
   -3.6630    0.6529   -1.1620 C   0  0  0  0  0  0  0  0  0  0  0  0
   -4.6149    0.0375   -0.4608 C   0  0  0  0  0  0  0  0  0  0  0  0
    5.8267   -0.7485    1.2443 H   0  0  0  0  0  0  0  0  0  0  0  0
    6.4885    0.5139    2.1247 H   0  0  0  0  0  0  0  0  0  0  0  0
    1.2023    1.6933   -2.4955 H   0  0  0  0  0  0  0  0  0  0  0  0
   -0.5943    0.0095   -2.5993 H   0  0  0  0  0  0  0  0  0  0  0  0
   -2.0987   -1.4211   -1.5794 H   0  0  0  0  0  0  0  0  0  0  0  0
   -0.4098   -2.9763   -1.2480 H   0  0  0  0  0  0  0  0  0  0  0  0
    3.2741   -0.8962    1.1913 H   0  0  0  0  0  0  0  0  0  0  0  0
   -1.0448   -0.0176    0.9705 H   0  0  0  0  0  0  0  0  0  0  0  0
   -2.6891   -1.1918    2.1014 H   0  0  0  0  0  0  0  0  0  0  0  0
   -3.2808   -1.9967    0.5889 H   0  0  0  0  0  0  0  0  0  0  0  0
   -4.9510   -0.1406    1.7226 H   0  0  0  0  0  0  0  0  0  0  0  0
   -2.7992    1.4385    1.9638 H   0  0  0  0  0  0  0  0  0  0  0  0
   -4.0636    2.2004    0.8953 H   0  0  0  0  0  0  0  0  0  0  0  0
   -1.8844    1.8203   -0.5268 H   0  0  0  0  0  0  0  0  0  0  0  0
   -3.7195    0.9153   -2.2129 H   0  0  0  0  0  0  0  0  0  0  0  0
   -5.5786   -0.2795   -0.8444 H   0  0  0  0  0  0  0  0  0  0  0  0
  1  2  1  0
  2  3  2  0
  2  4  2  0
  2  5  1  0
  5  6  2  0
  6  7  1  0
  6  8  1  0
  8  9  2  0
  9 10  1  0
 10 11  1  0
 11 12  1  0
 12 13  1  0
 13 14  2  0
 13 15  2  0
 13 16  1  0
 16 17  2  0
 11 18  1  0
 18 19  1  0
 19 20  1  0
 20 21  1  0
 21 22  1  0
 22 23  1  0
 23 24  2  0
 17  5  1  0
 22 18  1  0
 16  9  1  0
 24 20  1  0
  1 25  1  0
  1 26  1  0
  8 27  1  0
 10 28  1  0
 11 29  1  0
 12 30  1  0
 17 31  1  0
 18 32  1  0
 19 33  1  0
 19 34  1  0
 20 35  1  0
 21 36  1  0
 21 37  1  0
 22 38  1  0
 23 39  1  0
 24 40  1  0
M  END
$$$$
