
     RDKit          3D

 65 65  0  0  0  0  0  0  0  0999 V2000
   -2.7009   -0.6176    3.8921 C   0  0  0  0  0  0  0  0  0  0  0  0
   -1.3832    0.1460    3.8160 C   0  0  0  0  0  0  0  0  0  0  0  0
   -0.9570    0.2826    2.4621 O   0  0  0  0  0  0  0  0  0  0  0  0
   -0.4155   -0.7696    1.7135 C   0  0  0  0  0  0  0  0  0  0  0  0
   -0.1650   -1.8741    2.2732 O   0  0  0  0  0  0  0  0  0  0  0  0
   -0.0134   -0.5508    0.2621 C   0  0  0  0  0  0  0  0  0  0  0  0
    1.5187   -0.2546    0.2148 C   0  0  0  0  0  0  0  0  0  0  0  0
    1.9756    0.9647    1.0389 C   0  0  0  0  0  0  0  0  0  0  0  0
    3.4299    1.0983    0.9791 N   0  0  0  0  0  0  0  0  0  0  0  0
    4.1151    1.6012   -0.1733 C   0  0  0  0  0  0  0  0  0  0  0  0
    3.4604    1.9797   -1.1824 O   0  0  0  0  0  0  0  0  0  0  0  0
    5.5161    1.6688   -0.1531 O   0  0  0  0  0  0  0  0  0  0  0  0
    6.3600    2.1333   -1.2176 C   0  0  0  0  0  0  0  0  0  0  0  0
    6.0648    3.6109   -1.5392 C   0  0  0  0  0  0  0  0  0  0  0  0
    7.8124    2.0124   -0.7315 C   0  0  0  0  0  0  0  0  0  0  0  0
    6.1813    1.2580   -2.4730 C   0  0  0  0  0  0  0  0  0  0  0  0
   -0.8083    0.6286   -0.3891 C   0  0  0  0  0  0  0  0  0  0  0  0
   -2.2903    0.3627   -0.5690 C   0  0  0  0  0  0  0  0  0  0  0  0
   -2.7558   -0.3186   -1.7054 C   0  0  0  0  0  0  0  0  0  0  0  0
   -4.1164   -0.5960   -1.8579 C   0  0  0  0  0  0  0  0  0  0  0  0
   -5.0427   -0.1860   -0.8873 C   0  0  0  0  0  0  0  0  0  0  0  0
   -6.4356   -0.4959   -1.0727 N   0  0  0  0  0  0  0  0  0  0  0  0
   -7.6795   -0.0874    0.0652 S   0  0  0  0  0  6  0  0  0  0  0  0
   -7.7449    1.5822    0.2539 O   0  0  0  0  0  0  0  0  0  0  0  0
   -7.3932   -0.7484    1.3845 O   0  0  0  0  0  0  0  0  0  0  0  0
   -9.0012   -0.5767   -0.4564 O   0  0  0  0  0  0  0  0  0  0  0  0
   -4.5803    0.5237    0.2363 C   0  0  0  0  0  0  0  0  0  0  0  0
   -3.2189    0.8003    0.3881 C   0  0  0  0  0  0  0  0  0  0  0  0
   -0.2872   -1.8221   -0.5319 C   0  0  0  0  0  0  0  0  0  0  0  0
    0.3857   -2.0817   -1.5688 O   0  0  0  0  0  0  0  0  0  0  0  0
   -1.3581   -2.6510   -0.1674 O   0  0  0  0  0  0  0  0  0  0  0  0
   -1.7073   -3.8412   -0.8696 C   0  0  0  0  0  0  0  0  0  0  0  0
   -0.7316   -4.9644   -0.5400 C   0  0  0  0  0  0  0  0  0  0  0  0
   -3.0290   -0.6899    4.9503 H   0  0  0  0  0  0  0  0  0  0  0  0
   -3.4830   -0.0862    3.3104 H   0  0  0  0  0  0  0  0  0  0  0  0
   -2.5795   -1.6432    3.4855 H   0  0  0  0  0  0  0  0  0  0  0  0
   -0.6027   -0.3695    4.4167 H   0  0  0  0  0  0  0  0  0  0  0  0
   -1.5330    1.1598    4.2431 H   0  0  0  0  0  0  0  0  0  0  0  0
    1.8311   -0.0976   -0.8408 H   0  0  0  0  0  0  0  0  0  0  0  0
    2.0720   -1.1469    0.5858 H   0  0  0  0  0  0  0  0  0  0  0  0
    1.5090    1.8994    0.6649 H   0  0  0  0  0  0  0  0  0  0  0  0
    1.6786    0.8343    2.1008 H   0  0  0  0  0  0  0  0  0  0  0  0
    3.9911    0.8633    1.8284 H   0  0  0  0  0  0  0  0  0  0  0  0
    5.0550    3.7359   -1.9803 H   0  0  0  0  0  0  0  0  0  0  0  0
    6.8026    4.0065   -2.2703 H   0  0  0  0  0  0  0  0  0  0  0  0
    6.1200    4.2229   -0.6135 H   0  0  0  0  0  0  0  0  0  0  0  0
    8.5248    2.3573   -1.5121 H   0  0  0  0  0  0  0  0  0  0  0  0
    8.0478    0.9557   -0.4801 H   0  0  0  0  0  0  0  0  0  0  0  0
    7.9651    2.6259    0.1825 H   0  0  0  0  0  0  0  0  0  0  0  0
    5.1708    1.3817   -2.9128 H   0  0  0  0  0  0  0  0  0  0  0  0
    6.3214    0.1862   -2.2158 H   0  0  0  0  0  0  0  0  0  0  0  0
    6.9240    1.5358   -3.2519 H   0  0  0  0  0  0  0  0  0  0  0  0
   -0.3709    0.8571   -1.3865 H   0  0  0  0  0  0  0  0  0  0  0  0
   -0.6853    1.5552    0.2106 H   0  0  0  0  0  0  0  0  0  0  0  0
   -2.0624   -0.6467   -2.4698 H   0  0  0  0  0  0  0  0  0  0  0  0
   -4.4493   -1.1356   -2.7357 H   0  0  0  0  0  0  0  0  0  0  0  0
   -6.7314   -1.0095   -1.9331 H   0  0  0  0  0  0  0  0  0  0  0  0
   -8.4383    1.7342    0.9447 H   0  0  0  0  0  0  0  0  0  0  0  0
   -5.2601    0.8719    1.0000 H   0  0  0  0  0  0  0  0  0  0  0  0
   -2.8949    1.3680    1.2495 H   0  0  0  0  0  0  0  0  0  0  0  0
   -2.7266   -4.1495   -0.5554 H   0  0  0  0  0  0  0  0  0  0  0  0
   -1.7269   -3.6530   -1.9651 H   0  0  0  0  0  0  0  0  0  0  0  0
   -0.7137   -5.1403    0.5564 H   0  0  0  0  0  0  0  0  0  0  0  0
    0.2909   -4.7025   -0.8832 H   0  0  0  0  0  0  0  0  0  0  0  0
   -1.0508   -5.8977   -1.0497 H   0  0  0  0  0  0  0  0  0  0  0  0
  1  2  1  0
  2  3  1  0
  3  4  1  0
  4  5  2  0
  4  6  1  0
  6  7  1  0
  7  8  1  0
  8  9  1  0
  9 10  1  0
 10 11  2  0
 10 12  1  0
 12 13  1  0
 13 14  1  0
 13 15  1  0
 13 16  1  0
  6 17  1  0
 17 18  1  0
 18 19  2  0
 19 20  1  0
 20 21  2  0
 21 22  1  0
 22 23  1  0
 23 24  1  0
 23 25  2  0
 23 26  2  0
 21 27  1  0
 27 28  2  0
  6 29  1  0
 29 30  2  0
 29 31  1  0
 31 32  1  0
 32 33  1  0
 28 18  1  0
  1 34  1  0
  1 35  1  0
  1 36  1  0
  2 37  1  0
  2 38  1  0
  7 39  1  0
  7 40  1  0
  8 41  1  0
  8 42  1  0
  9 43  1  0
 14 44  1  0
 14 45  1  0
 14 46  1  0
 15 47  1  0
 15 48  1  0
 15 49  1  0
 16 50  1  0
 16 51  1  0
 16 52  1  0
 17 53  1  0
 17 54  1  0
 19 55  1  0
 20 56  1  0
 22 57  1  0
 24 58  1  0
 27 59  1  0
 28 60  1  0
 32 61  1  0
 32 62  1  0
 33 63  1  0
 33 64  1  0
 33 65  1  0
M  END
$$$$
