
     RDKit          3D

 32 32  0  0  0  0  0  0  0  0999 V2000
   -0.9622    0.1307    0.1883 C   0  0  1  0  0  0  0  0  0  0  0  0
   -1.2949    1.5006   -0.0427 O   0  0  0  0  0  0  0  0  0  0  0  0
   -2.5029    2.0796    0.3626 C   0  0  0  0  0  0  0  0  0  0  0  0
   -2.7729    3.5108    0.0458 C   0  0  0  0  0  0  0  0  0  0  0  0
   -3.3800    1.3956    0.9568 O   0  0  0  0  0  0  0  0  0  0  0  0
   -1.7801   -0.7808   -0.6893 C   0  0  0  0  0  0  0  0  0  0  0  0
   -2.3304   -0.3342   -1.7339 O   0  0  0  0  0  0  0  0  0  0  0  0
   -1.8881   -2.1332   -0.3529 O   0  0  0  0  0  0  0  0  0  0  0  0
   -2.6162   -3.0633   -1.1451 C   0  0  0  0  0  0  0  0  0  0  0  0
    0.5312   -0.0574   -0.0326 C   0  0  0  0  0  0  0  0  0  0  0  0
    1.0193   -0.2471   -1.3428 C   0  0  0  0  0  0  0  0  0  0  0  0
    2.3740   -0.4786   -1.5786 C   0  0  0  0  0  0  0  0  0  0  0  0
    3.2791   -0.5067   -0.5161 C   0  0  0  0  0  0  0  0  0  0  0  0
    4.6666   -0.7541   -0.7600 N   0  0  0  0  0  0  0  0  0  0  0  0
    2.8241   -0.2680    0.7850 C   0  0  0  0  0  0  0  0  0  0  0  0
    1.4657   -0.0083    1.0413 C   0  0  0  0  0  0  0  0  0  0  0  0
    1.0848    0.3416    2.4296 C   0  0  0  0  0  0  0  0  0  0  0  0
    1.7497   -0.2502    3.5002 O   0  0  0  0  0  0  0  0  0  0  0  0
    0.2028    1.2132    2.6555 O   0  0  0  0  0  0  0  0  0  0  0  0
   -1.2254   -0.1428    1.2312 H   0  0  0  0  0  0  0  0  0  0  0  0
   -1.8155    4.0550   -0.0944 H   0  0  0  0  0  0  0  0  0  0  0  0
   -3.3693    3.5763   -0.8878 H   0  0  0  0  0  0  0  0  0  0  0  0
   -3.3368    3.9855    0.8762 H   0  0  0  0  0  0  0  0  0  0  0  0
   -3.6819   -2.7571   -1.2078 H   0  0  0  0  0  0  0  0  0  0  0  0
   -2.5571   -4.0667   -0.6758 H   0  0  0  0  0  0  0  0  0  0  0  0
   -2.1800   -3.1167   -2.1651 H   0  0  0  0  0  0  0  0  0  0  0  0
    0.3484   -0.2305   -2.1918 H   0  0  0  0  0  0  0  0  0  0  0  0
    2.7178   -0.6399   -2.5927 H   0  0  0  0  0  0  0  0  0  0  0  0
    5.0171   -0.9252   -1.7289 H   0  0  0  0  0  0  0  0  0  0  0  0
    5.3538   -0.7700    0.0264 H   0  0  0  0  0  0  0  0  0  0  0  0
    3.5421   -0.2516    1.5967 H   0  0  0  0  0  0  0  0  0  0  0  0
    1.5172   -0.0065    4.4556 H   0  0  0  0  0  0  0  0  0  0  0  0
  1  2  1  0
  2  3  1  0
  3  4  1  0
  3  5  2  0
  1  6  1  0
  6  7  2  0
  6  8  1  0
  8  9  1  0
  1 10  1  0
 10 11  2  0
 11 12  1  0
 12 13  2  0
 13 14  1  0
 13 15  1  0
 15 16  2  0
 16 17  1  0
 17 18  1  0
 17 19  2  0
 16 10  1  0
  1 20  1  1
  4 21  1  0
  4 22  1  0
  4 23  1  0
  9 24  1  0
  9 25  1  0
  9 26  1  0
 11 27  1  0
 12 28  1  0
 14 29  1  0
 14 30  1  0
 15 31  1  0
 18 32  1  0
M  END
$$$$
