
     RDKit          3D

 29 30  0  0  0  0  0  0  0  0999 V2000
    5.3518    0.1437   -0.0896 C   0  0  0  0  0  0  0  0  0  0  0  0
    4.6489   -1.5135   -0.3558 S   0  0  0  0  0  0  0  0  0  0  0  0
    2.9807   -1.0044    0.0632 C   0  0  0  0  0  0  0  0  0  0  0  0
    2.1203   -0.5328   -0.9336 C   0  0  0  0  0  0  0  0  0  0  0  0
    0.8190   -0.1383   -0.6092 C   0  0  0  0  0  0  0  0  0  0  0  0
    0.3582   -0.2248    0.7174 C   0  0  0  0  0  0  0  0  0  0  0  0
    1.2348   -0.6880    1.7145 C   0  0  0  0  0  0  0  0  0  0  0  0
    2.5355   -1.0822    1.3869 C   0  0  0  0  0  0  0  0  0  0  0  0
   -1.0118    0.2069    1.0791 C   0  0  0  0  0  0  0  0  0  0  0  0
   -1.2114    0.7215    2.2127 O   0  0  0  0  0  0  0  0  0  0  0  0
   -2.1555    0.0336    0.1560 C   0  0  0  0  0  0  0  0  0  0  0  0
   -3.3511    0.7415    0.1593 C   0  0  0  0  0  0  0  0  0  0  0  0
   -3.7405    1.8570    1.0771 C   0  0  0  0  0  0  0  0  0  0  0  0
   -4.1540    0.2409   -0.7997 N   0  0  0  0  0  0  0  0  0  0  0  0
   -3.4397   -0.7514   -1.3609 C   0  0  0  0  0  0  0  0  0  0  0  0
   -3.8707   -1.4687   -2.3019 O   0  0  0  0  0  0  0  0  0  0  0  0
   -2.2230   -0.9087   -0.8076 N   0  0  0  0  0  0  0  0  0  0  0  0
    6.4419    0.1119   -0.2922 H   0  0  0  0  0  0  0  0  0  0  0  0
    5.1902    0.4619    0.9616 H   0  0  0  0  0  0  0  0  0  0  0  0
    4.8787    0.8738   -0.7791 H   0  0  0  0  0  0  0  0  0  0  0  0
    2.4616   -0.4624   -1.9586 H   0  0  0  0  0  0  0  0  0  0  0  0
    0.1809    0.2509   -1.3923 H   0  0  0  0  0  0  0  0  0  0  0  0
    0.9092   -0.7560    2.7453 H   0  0  0  0  0  0  0  0  0  0  0  0
    3.1972   -1.4445    2.1634 H   0  0  0  0  0  0  0  0  0  0  0  0
   -2.9310    2.6156    1.1137 H   0  0  0  0  0  0  0  0  0  0  0  0
   -3.9196    1.4555    2.0961 H   0  0  0  0  0  0  0  0  0  0  0  0
   -4.6688    2.3464    0.7148 H   0  0  0  0  0  0  0  0  0  0  0  0
   -5.1216    0.5466   -1.0473 H   0  0  0  0  0  0  0  0  0  0  0  0
   -1.5102   -1.6320   -1.0517 H   0  0  0  0  0  0  0  0  0  0  0  0
  1  2  1  0
  2  3  1  0
  3  4  2  0
  4  5  1  0
  5  6  2  0
  6  7  1  0
  7  8  2  0
  6  9  1  0
  9 10  2  0
  9 11  1  0
 11 12  2  0
 12 13  1  0
 12 14  1  0
 14 15  1  0
 15 16  2  0
 15 17  1  0
  8  3  1  0
 17 11  1  0
  1 18  1  0
  1 19  1  0
  1 20  1  0
  4 21  1  0
  5 22  1  0
  7 23  1  0
  8 24  1  0
 13 25  1  0
 13 26  1  0
 13 27  1  0
 14 28  1  0
 17 29  1  0
M  END
$$$$
