
     RDKit          3D

 62 65  0  0  0  0  0  0  0  0999 V2000
    7.1556   -1.2560    0.3860 C   0  0  0  0  0  0  0  0  0  0  0  0
    5.9639   -2.1636    0.0326 C   0  0  2  0  0  0  0  0  0  0  0  0
    6.0217   -2.3786   -1.3610 O   0  0  0  0  0  0  0  0  0  0  0  0
    4.6560   -1.4522    0.4190 C   0  0  0  0  0  0  0  0  0  0  0  0
    4.3826   -1.1334    1.7657 C   0  0  0  0  0  0  0  0  0  0  0  0
    3.2023   -0.4779    2.1243 C   0  0  0  0  0  0  0  0  0  0  0  0
    2.2691   -0.1031    1.1475 C   0  0  0  0  0  0  0  0  0  0  0  0
    2.5315   -0.4123   -0.1948 C   0  0  0  0  0  0  0  0  0  0  0  0
    3.7108   -1.0684   -0.5567 C   0  0  0  0  0  0  0  0  0  0  0  0
    1.0194    0.5913    1.5401 C   0  0  0  0  0  0  0  0  0  0  0  0
    0.5341    0.3831    2.6854 O   0  0  0  0  0  0  0  0  0  0  0  0
    0.3447    1.5024    0.6482 N   0  0  0  0  0  0  0  0  0  0  0  0
    1.1216    2.4332   -0.1913 C   0  0  0  0  0  0  0  0  0  0  0  0
    1.0439    3.8814    0.2722 C   0  0  0  0  0  0  0  0  0  0  0  0
    2.3186    3.0912    0.4903 C   0  0  0  0  0  0  0  0  0  0  0  0
   -1.0827    1.2516    0.3628 C   0  0  0  0  0  0  0  0  0  0  0  0
   -1.2388    0.3213   -0.8599 C   0  0  0  0  0  0  0  0  0  0  0  0
   -2.6511    0.3917   -1.4707 C   0  0  0  0  0  0  0  0  0  0  0  0
   -3.6282    0.8418   -0.4595 N   0  0  0  0  0  0  0  0  0  0  0  0
   -5.0224    0.6328   -0.9096 C   0  0  0  0  0  0  0  0  0  0  0  0
   -5.5818   -0.6493   -0.2731 C   0  0  0  0  0  0  0  0  0  0  0  0
   -6.0944   -0.5294    1.1571 C   0  0  0  0  0  0  0  0  0  0  0  0
   -7.0804   -0.6774    0.0045 C   0  0  0  0  0  0  0  0  0  0  0  0
   -4.9797   -1.9725   -0.6471 C   0  0  0  0  0  0  0  0  0  0  0  0
   -5.3804   -2.6303   -1.8480 N   0  0  0  0  0  0  0  0  0  0  0  0
   -4.0861   -2.4843    0.0788 O   0  0  0  0  0  0  0  0  0  0  0  0
   -3.3820    2.2553   -0.0904 C   0  0  0  0  0  0  0  0  0  0  0  0
   -1.8846    2.5501    0.1601 C   0  0  0  0  0  0  0  0  0  0  0  0
    6.1042   -3.5336    0.7585 C   0  0  0  0  0  0  0  0  0  0  0  0
    6.3472   -3.3758    2.1116 F   0  0  0  0  0  0  0  0  0  0  0  0
    4.9464   -4.2770    0.6030 F   0  0  0  0  0  0  0  0  0  0  0  0
    7.1579   -4.2472    0.2130 F   0  0  0  0  0  0  0  0  0  0  0  0
    8.1091   -1.7300    0.0682 H   0  0  0  0  0  0  0  0  0  0  0  0
    7.0628   -0.2820   -0.1413 H   0  0  0  0  0  0  0  0  0  0  0  0
    7.2133   -1.0579    1.4770 H   0  0  0  0  0  0  0  0  0  0  0  0
    5.3583   -3.0796   -1.5974 H   0  0  0  0  0  0  0  0  0  0  0  0
    5.0853   -1.3764    2.5492 H   0  0  0  0  0  0  0  0  0  0  0  0
    3.0278   -0.2465    3.1680 H   0  0  0  0  0  0  0  0  0  0  0  0
    1.8192   -0.1603   -0.9687 H   0  0  0  0  0  0  0  0  0  0  0  0
    3.8714   -1.2691   -1.6069 H   0  0  0  0  0  0  0  0  0  0  0  0
    1.1855    2.2570   -1.2855 H   0  0  0  0  0  0  0  0  0  0  0  0
    0.4798    4.0681    1.2105 H   0  0  0  0  0  0  0  0  0  0  0  0
    1.1132    4.6312   -0.5437 H   0  0  0  0  0  0  0  0  0  0  0  0
    3.1423    3.3750   -0.1978 H   0  0  0  0  0  0  0  0  0  0  0  0
    2.4970    2.8426    1.5578 H   0  0  0  0  0  0  0  0  0  0  0  0
   -1.5418    0.7357    1.2376 H   0  0  0  0  0  0  0  0  0  0  0  0
   -0.5034    0.5855   -1.6491 H   0  0  0  0  0  0  0  0  0  0  0  0
   -1.0231   -0.7219   -0.5406 H   0  0  0  0  0  0  0  0  0  0  0  0
   -2.9166   -0.6157   -1.8578 H   0  0  0  0  0  0  0  0  0  0  0  0
   -2.6494    1.0907   -2.3388 H   0  0  0  0  0  0  0  0  0  0  0  0
   -5.0913    0.5493   -2.0179 H   0  0  0  0  0  0  0  0  0  0  0  0
   -5.6709    1.4957   -0.6310 H   0  0  0  0  0  0  0  0  0  0  0  0
   -6.0097   -1.4417    1.7859 H   0  0  0  0  0  0  0  0  0  0  0  0
   -6.0722    0.4911    1.5962 H   0  0  0  0  0  0  0  0  0  0  0  0
   -7.5665   -1.6762   -0.0316 H   0  0  0  0  0  0  0  0  0  0  0  0
   -7.6420    0.2544   -0.2199 H   0  0  0  0  0  0  0  0  0  0  0  0
   -4.9512   -3.5429   -2.1180 H   0  0  0  0  0  0  0  0  0  0  0  0
   -6.1002   -2.2028   -2.4720 H   0  0  0  0  0  0  0  0  0  0  0  0
   -3.7552    2.9397   -0.8866 H   0  0  0  0  0  0  0  0  0  0  0  0
   -3.9468    2.4800    0.8411 H   0  0  0  0  0  0  0  0  0  0  0  0
   -1.7817    3.2000    1.0556 H   0  0  0  0  0  0  0  0  0  0  0  0
   -1.4821    3.1021   -0.7172 H   0  0  0  0  0  0  0  0  0  0  0  0
  1  2  1  0
  2  3  1  6
  2  4  1  0
  4  5  2  0
  5  6  1  0
  6  7  2  0
  7  8  1  0
  8  9  2  0
  7 10  1  0
 10 11  2  0
 10 12  1  0
 12 13  1  0
 13 14  1  0
 14 15  1  0
 12 16  1  0
 16 17  1  0
 17 18  1  0
 18 19  1  0
 19 20  1  0
 20 21  1  0
 21 22  1  0
 22 23  1  0
 21 24  1  0
 24 25  1  0
 24 26  2  0
 19 27  1  0
 27 28  1  0
  2 29  1  0
 29 30  1  0
 29 31  1  0
 29 32  1  0
  9  4  1  0
 15 13  1  0
 28 16  1  0
 23 21  1  0
  1 33  1  0
  1 34  1  0
  1 35  1  0
  3 36  1  0
  5 37  1  0
  6 38  1  0
  8 39  1  0
  9 40  1  0
 13 41  1  0
 14 42  1  0
 14 43  1  0
 15 44  1  0
 15 45  1  0
 16 46  1  0
 17 47  1  0
 17 48  1  0
 18 49  1  0
 18 50  1  0
 20 51  1  0
 20 52  1  0
 22 53  1  0
 22 54  1  0
 23 55  1  0
 23 56  1  0
 25 57  1  0
 25 58  1  0
 27 59  1  0
 27 60  1  0
 28 61  1  0
 28 62  1  0
M  END
$$$$
