
     RDKit          3D

 48 51  0  0  0  0  0  0  0  0999 V2000
    1.2523   -0.0471   -0.7114 C   0  0  2  0  0  0  0  0  0  0  0  0
    2.1360   -0.3085   -1.9254 C   0  0  0  0  0  0  0  0  0  0  0  0
    3.5672   -0.3674   -1.3580 C   0  0  0  0  0  0  0  0  0  0  0  0
    3.4484   -0.3234    0.1931 C   0  0  1  0  0  0  0  0  0  0  0  0
    4.3537   -1.2148    0.8018 O   0  0  0  0  0  0  0  0  0  0  0  0
    3.7349    1.0508    0.6757 C   0  0  0  0  0  0  0  0  0  0  0  0
    3.9706    2.1675    1.0650 C   0  0  0  0  0  0  0  0  0  0  0  0
    1.9694   -0.7502    0.4526 C   0  0  2  0  0  0  0  0  0  0  0  0
    1.8764   -2.3128    0.3834 C   0  0  0  0  0  0  0  0  0  0  0  0
    1.3229   -0.2650    1.7774 C   0  0  0  0  0  0  0  0  0  0  0  0
   -0.2036   -0.5241    1.7977 C   0  0  0  0  0  0  0  0  0  0  0  0
   -0.9351    0.0415    0.5456 C   0  0  2  0  0  0  0  0  0  0  0  0
   -2.4411   -0.3480    0.4889 C   0  0  1  0  0  0  0  0  0  0  0  0
   -3.2650   -0.0430    1.7653 C   0  0  0  0  0  0  0  0  0  0  0  0
   -3.5415    1.4516    1.9313 C   0  0  0  0  0  0  0  0  0  0  0  0
   -4.1573    1.9997    0.6793 C   0  0  0  0  0  0  0  0  0  0  0  0
   -4.9234    2.9974    0.7413 O   0  0  0  0  0  0  0  0  0  0  0  0
   -3.8066    1.4285   -0.6310 C   0  0  0  0  0  0  0  0  0  0  0  0
   -3.0367    0.3308   -0.7321 C   0  0  0  0  0  0  0  0  0  0  0  0
   -2.4276   -0.0453   -2.0538 C   0  0  0  0  0  0  0  0  0  0  0  0
   -0.9246    0.2694   -2.0110 C   0  0  0  0  0  0  0  0  0  0  0  0
   -0.2450   -0.4050   -0.7925 C   0  0  1  0  0  0  0  0  0  0  0  0
    1.2967    1.0563   -0.5398 H   0  0  0  0  0  0  0  0  0  0  0  0
    1.8659   -1.2743   -2.4058 H   0  0  0  0  0  0  0  0  0  0  0  0
    2.0374    0.5087   -2.6730 H   0  0  0  0  0  0  0  0  0  0  0  0
    4.1799    0.4725   -1.7562 H   0  0  0  0  0  0  0  0  0  0  0  0
    4.0490   -1.3153   -1.6849 H   0  0  0  0  0  0  0  0  0  0  0  0
    5.2660   -0.9842    0.4819 H   0  0  0  0  0  0  0  0  0  0  0  0
    4.1764    3.1475    1.4067 H   0  0  0  0  0  0  0  0  0  0  0  0
    2.3348   -2.7157   -0.5430 H   0  0  0  0  0  0  0  0  0  0  0  0
    0.8413   -2.6971    0.4279 H   0  0  0  0  0  0  0  0  0  0  0  0
    2.4116   -2.7649    1.2454 H   0  0  0  0  0  0  0  0  0  0  0  0
    1.7983   -0.7757    2.6427 H   0  0  0  0  0  0  0  0  0  0  0  0
    1.4760    0.8267    1.9154 H   0  0  0  0  0  0  0  0  0  0  0  0
   -0.4140   -1.6079    1.9093 H   0  0  0  0  0  0  0  0  0  0  0  0
   -0.5963   -0.0251    2.7083 H   0  0  0  0  0  0  0  0  0  0  0  0
   -0.8686    1.1520    0.6127 H   0  0  0  0  0  0  0  0  0  0  0  0
   -2.5012   -1.4487    0.3328 H   0  0  0  0  0  0  0  0  0  0  0  0
   -4.2425   -0.5688    1.6822 H   0  0  0  0  0  0  0  0  0  0  0  0
   -2.7806   -0.4476    2.6761 H   0  0  0  0  0  0  0  0  0  0  0  0
   -2.5952    1.9930    2.1435 H   0  0  0  0  0  0  0  0  0  0  0  0
   -4.2314    1.6034    2.7894 H   0  0  0  0  0  0  0  0  0  0  0  0
   -4.1445    1.9416   -1.5236 H   0  0  0  0  0  0  0  0  0  0  0  0
   -2.9006    0.4995   -2.9001 H   0  0  0  0  0  0  0  0  0  0  0  0
   -2.5755   -1.1332   -2.2275 H   0  0  0  0  0  0  0  0  0  0  0  0
   -0.4628   -0.0975   -2.9527 H   0  0  0  0  0  0  0  0  0  0  0  0
   -0.7805    1.3718   -1.9650 H   0  0  0  0  0  0  0  0  0  0  0  0
   -0.3639   -1.4995   -0.9311 H   0  0  0  0  0  0  0  0  0  0  0  0
  1  2  1  0
  2  3  1  0
  3  4  1  0
  4  5  1  0
  4  6  1  1
  6  7  3  0
  4  8  1  0
  8  9  1  6
  8 10  1  0
 10 11  1  0
 11 12  1  0
 12 13  1  0
 13 14  1  0
 14 15  1  0
 15 16  1  0
 16 17  2  0
 16 18  1  0
 18 19  2  0
 19 20  1  0
 20 21  1  0
 21 22  1  0
  8  1  1  0
 22 12  1  0
 22  1  1  0
 19 13  1  0
  1 23  1  1
  2 24  1  0
  2 25  1  0
  3 26  1  0
  3 27  1  0
  5 28  1  0
  7 29  1  0
  9 30  1  0
  9 31  1  0
  9 32  1  0
 10 33  1  0
 10 34  1  0
 11 35  1  0
 11 36  1  0
 12 37  1  1
 13 38  1  6
 14 39  1  0
 14 40  1  0
 15 41  1  0
 15 42  1  0
 18 43  1  0
 20 44  1  0
 20 45  1  0
 21 46  1  0
 21 47  1  0
 22 48  1  6
M  END
$$$$
