
     RDKit          3D

 28 27  0  0  0  0  0  0  0  0999 V2000
   -0.1765   -0.6751   -0.3578 C   0  0  2  0  0  0  0  0  0  0  0  0
    1.0629   -0.9744    0.5285 C   0  0  0  0  0  0  0  0  0  0  0  0
    2.2098    0.0758    0.5591 C   0  0  0  0  0  0  0  0  0  0  0  0
    2.5105    0.7084   -0.8060 C   0  0  0  0  0  0  0  0  0  0  0  0
    2.0220    1.1461    1.6452 C   0  0  0  0  0  0  0  0  0  0  0  0
   -1.0006    0.5294    0.1406 C   0  0  0  0  0  0  0  0  0  0  0  0
   -2.2388    0.6799   -0.6322 N   0  0  0  0  0  0  0  0  0  0  0  0
   -2.1590    1.0701   -1.9279 O   0  0  0  0  0  0  0  0  0  0  0  0
   -3.5261    0.3517   -0.0919 C   0  0  0  0  0  0  0  0  0  0  0  0
   -3.6512   -0.0490    1.0958 O   0  0  0  0  0  0  0  0  0  0  0  0
   -1.0415   -1.9089   -0.4067 C   0  0  0  0  0  0  0  0  0  0  0  0
   -1.5879   -2.4267    0.7647 O   0  0  0  0  0  0  0  0  0  0  0  0
   -1.2762   -2.4723   -1.5094 O   0  0  0  0  0  0  0  0  0  0  0  0
    0.1630   -0.4607   -1.3946 H   0  0  0  0  0  0  0  0  0  0  0  0
    1.5125   -1.9215    0.1524 H   0  0  0  0  0  0  0  0  0  0  0  0
    0.7324   -1.1914    1.5684 H   0  0  0  0  0  0  0  0  0  0  0  0
    3.1277   -0.4830    0.8513 H   0  0  0  0  0  0  0  0  0  0  0  0
    1.6930    1.3880   -1.1238 H   0  0  0  0  0  0  0  0  0  0  0  0
    3.4494    1.2998   -0.7498 H   0  0  0  0  0  0  0  0  0  0  0  0
    2.6479   -0.0835   -1.5727 H   0  0  0  0  0  0  0  0  0  0  0  0
    1.2142    1.8589    1.3982 H   0  0  0  0  0  0  0  0  0  0  0  0
    1.7960    0.6709    2.6233 H   0  0  0  0  0  0  0  0  0  0  0  0
    2.9610    1.7285    1.7613 H   0  0  0  0  0  0  0  0  0  0  0  0
   -0.4159    1.4583    0.0043 H   0  0  0  0  0  0  0  0  0  0  0  0
   -1.2165    0.4256    1.2262 H   0  0  0  0  0  0  0  0  0  0  0  0
   -2.2297    2.0587   -1.9021 H   0  0  0  0  0  0  0  0  0  0  0  0
   -4.4075    0.4482   -0.7120 H   0  0  0  0  0  0  0  0  0  0  0  0
   -2.1749   -3.2518    0.7437 H   0  0  0  0  0  0  0  0  0  0  0  0
  1  2  1  0
  2  3  1  0
  3  4  1  0
  3  5  1  0
  1  6  1  0
  6  7  1  0
  7  8  1  0
  7  9  1  0
  9 10  2  0
  1 11  1  0
 11 12  1  0
 11 13  2  0
  1 14  1  6
  2 15  1  0
  2 16  1  0
  3 17  1  0
  4 18  1  0
  4 19  1  0
  4 20  1  0
  5 21  1  0
  5 22  1  0
  5 23  1  0
  6 24  1  0
  6 25  1  0
  8 26  1  0
  9 27  1  0
 12 28  1  0
M  END
$$$$
