
     RDKit          3D

 51 53  0  0  0  0  0  0  0  0999 V2000
   -6.8469    3.1377    1.6538 C   0  0  0  0  0  0  0  0  0  0  0  0
   -5.8093    2.3961    1.0206 O   0  0  0  0  0  0  0  0  0  0  0  0
   -5.9424    1.0803    0.5451 C   0  0  0  0  0  0  0  0  0  0  0  0
   -4.8306    0.4514   -0.0613 C   0  0  0  0  0  0  0  0  0  0  0  0
   -3.5466    1.1811   -0.2193 C   0  0  0  0  0  0  0  0  0  0  0  0
   -3.5647    2.4073   -0.5130 O   0  0  0  0  0  0  0  0  0  0  0  0
   -2.2439    0.5134    0.0115 C   0  0  0  0  0  0  0  0  0  0  0  0
   -2.0857   -0.3249    1.1246 C   0  0  0  0  0  0  0  0  0  0  0  0
   -0.8839   -0.8969    1.3876 N   0  0  0  0  0  0  0  0  0  0  0  0
    0.1885   -0.6772    0.5853 C   0  0  0  0  0  0  0  0  0  0  0  0
    1.4438   -1.2972    0.8925 N   0  0  0  0  0  0  0  0  0  0  0  0
    2.6476   -1.0844    0.0816 C   0  0  0  0  0  0  0  0  0  0  0  0
    3.2014    0.3415    0.3046 C   0  0  0  0  0  0  0  0  0  0  0  0
    4.7038    0.4468   -0.0172 C   0  0  0  0  0  0  0  0  0  0  0  0
    5.0847   -0.5758   -1.0037 N   0  0  0  0  0  0  0  0  0  0  0  0
    4.9961   -1.9348   -0.4285 C   0  0  0  0  0  0  0  0  0  0  0  0
    3.7189   -2.1351    0.4185 C   0  0  0  0  0  0  0  0  0  0  0  0
    6.6956   -0.2729   -1.6086 S   0  0  0  0  0  6  0  0  0  0  0  0
    7.8707   -0.0208   -0.2895 C   0  0  0  0  0  0  0  0  0  0  0  0
    7.1466   -1.4383   -2.4445 O   0  0  0  0  0  0  0  0  0  0  0  0
    6.6709    0.9570   -2.4718 O   0  0  0  0  0  0  0  0  0  0  0  0
    0.0579    0.1194   -0.5082 N   0  0  0  0  0  0  0  0  0  0  0  0
   -1.1219    0.7173   -0.8212 C   0  0  0  0  0  0  0  0  0  0  0  0
   -1.1986    1.4961   -2.0197 N   0  0  0  0  0  0  0  0  0  0  0  0
   -4.9549   -0.8736   -0.5292 C   0  0  0  0  0  0  0  0  0  0  0  0
   -3.9192   -1.4904   -1.1540 F   0  0  0  0  0  0  0  0  0  0  0  0
   -6.1622   -1.5625   -0.3879 C   0  0  0  0  0  0  0  0  0  0  0  0
   -6.2753   -2.8347   -0.8438 F   0  0  0  0  0  0  0  0  0  0  0  0
   -7.2565   -0.9424    0.2125 C   0  0  0  0  0  0  0  0  0  0  0  0
   -7.1526    0.3699    0.6743 C   0  0  0  0  0  0  0  0  0  0  0  0
   -6.4619    4.1429    1.9215 H   0  0  0  0  0  0  0  0  0  0  0  0
   -7.7065    3.2596    0.9614 H   0  0  0  0  0  0  0  0  0  0  0  0
   -7.1722    2.6232    2.5826 H   0  0  0  0  0  0  0  0  0  0  0  0
   -2.9136   -0.5088    1.7976 H   0  0  0  0  0  0  0  0  0  0  0  0
    1.4815   -1.9455    1.7122 H   0  0  0  0  0  0  0  0  0  0  0  0
    2.3838   -1.2097   -0.9932 H   0  0  0  0  0  0  0  0  0  0  0  0
    2.6388    1.0500   -0.3414 H   0  0  0  0  0  0  0  0  0  0  0  0
    3.0418    0.6529    1.3605 H   0  0  0  0  0  0  0  0  0  0  0  0
    4.9117    1.4651   -0.4133 H   0  0  0  0  0  0  0  0  0  0  0  0
    5.2912    0.3174    0.9202 H   0  0  0  0  0  0  0  0  0  0  0  0
    5.8805   -2.1614    0.2062 H   0  0  0  0  0  0  0  0  0  0  0  0
    4.9846   -2.6683   -1.2635 H   0  0  0  0  0  0  0  0  0  0  0  0
    3.3133   -3.1561    0.2462 H   0  0  0  0  0  0  0  0  0  0  0  0
    3.9805   -2.0535    1.4972 H   0  0  0  0  0  0  0  0  0  0  0  0
    7.6126    0.8987    0.2747 H   0  0  0  0  0  0  0  0  0  0  0  0
    7.8676   -0.8905    0.3977 H   0  0  0  0  0  0  0  0  0  0  0  0
    8.8864    0.0957   -0.7203 H   0  0  0  0  0  0  0  0  0  0  0  0
   -2.1067    1.8183   -2.4187 H   0  0  0  0  0  0  0  0  0  0  0  0
   -0.3337    1.6732   -2.5774 H   0  0  0  0  0  0  0  0  0  0  0  0
   -8.1909   -1.4786    0.3182 H   0  0  0  0  0  0  0  0  0  0  0  0
   -8.0199    0.8221    1.1352 H   0  0  0  0  0  0  0  0  0  0  0  0
  1  2  1  0
  2  3  1  0
  3  4  2  0
  4  5  1  0
  5  6  2  0
  5  7  1  0
  7  8  2  0
  8  9  1  0
  9 10  2  0
 10 11  1  0
 11 12  1  0
 12 13  1  0
 13 14  1  0
 14 15  1  0
 15 16  1  0
 16 17  1  0
 15 18  1  0
 18 19  1  0
 18 20  2  0
 18 21  2  0
 10 22  1  0
 22 23  2  0
 23 24  1  0
  4 25  1  0
 25 26  1  0
 25 27  2  0
 27 28  1  0
 27 29  1  0
 29 30  2  0
 30  3  1  0
 23  7  1  0
 17 12  1  0
  1 31  1  0
  1 32  1  0
  1 33  1  0
  8 34  1  0
 11 35  1  0
 12 36  1  0
 13 37  1  0
 13 38  1  0
 14 39  1  0
 14 40  1  0
 16 41  1  0
 16 42  1  0
 17 43  1  0
 17 44  1  0
 19 45  1  0
 19 46  1  0
 19 47  1  0
 24 48  1  0
 24 49  1  0
 29 50  1  0
 30 51  1  0
M  END
$$$$
