
     RDKit          3D

 59 63  0  0  0  0  0  0  0  0999 V2000
    2.2175    0.6629   -1.0103 C   0  0  1  0  0  0  0  0  0  0  0  0
    1.1516   -0.3018   -1.5772 C   0  0  0  0  0  0  0  0  0  0  0  0
    1.3692   -1.5997   -0.7913 C   0  0  0  0  0  0  0  0  0  0  0  0
    2.5214   -1.2673    0.1759 C   0  0  2  0  0  0  0  0  0  0  0  0
    1.9405   -0.7185    1.5123 C   0  0  0  0  0  0  0  0  0  0  0  0
    1.1089    0.5846    1.3407 C   0  0  1  0  0  0  0  0  0  0  0  0
    1.5630    1.4759    0.1437 C   0  0  0  0  0  0  0  0  0  0  0  0
   -0.2705    0.2330    1.2047 O   0  0  0  0  0  0  0  0  0  0  0  0
   -1.3268    1.1232    1.4434 C   0  0  0  0  0  0  0  0  0  0  0  0
   -1.0867    2.3230    1.7542 O   0  0  0  0  0  0  0  0  0  0  0  0
   -2.7735    0.6556    1.3527 C   0  0  0  0  0  0  0  0  0  0  0  0
   -3.4228    1.0083    2.5576 O   0  0  0  0  0  0  0  0  0  0  0  0
   -3.5175    1.3556    0.2112 C   0  0  0  0  0  0  0  0  0  0  0  0
   -4.9278    1.3860    0.2228 C   0  0  0  0  0  0  0  0  0  0  0  0
   -5.6396    1.9745   -0.8262 C   0  0  0  0  0  0  0  0  0  0  0  0
   -4.9592    2.5253   -1.9127 C   0  0  0  0  0  0  0  0  0  0  0  0
   -3.5653    2.4801   -1.9575 C   0  0  0  0  0  0  0  0  0  0  0  0
   -2.8469    1.8934   -0.9119 C   0  0  0  0  0  0  0  0  0  0  0  0
   -2.8432   -0.8617    1.1248 C   0  0  0  0  0  0  0  0  0  0  0  0
   -2.4170   -1.4117   -0.1038 C   0  0  0  0  0  0  0  0  0  0  0  0
   -2.4535   -2.7907   -0.3240 C   0  0  0  0  0  0  0  0  0  0  0  0
   -2.9170   -3.6467    0.6744 C   0  0  0  0  0  0  0  0  0  0  0  0
   -3.3473   -3.1248    1.8944 C   0  0  0  0  0  0  0  0  0  0  0  0
   -3.3127   -1.7456    2.1224 C   0  0  0  0  0  0  0  0  0  0  0  0
    3.3069   -0.2201   -0.5128 N   0  0  0  0  0  4  0  0  0  0  0  0
    4.3493    0.4235    0.3251 C   0  0  0  0  0  0  0  0  0  0  0  0
    5.3714    1.0261   -0.6219 C   0  0  0  0  0  0  0  0  0  0  0  0
    5.2727    0.1871   -1.8824 C   0  0  0  0  0  0  0  0  0  0  0  0
    4.1101   -0.7703   -1.6396 C   0  0  0  0  0  0  0  0  0  0  0  0
    2.5767    1.3638   -1.7978 H   0  0  0  0  0  0  0  0  0  0  0  0
    1.3149   -0.4734   -2.6627 H   0  0  0  0  0  0  0  0  0  0  0  0
    0.1150    0.0782   -1.4583 H   0  0  0  0  0  0  0  0  0  0  0  0
    0.4476   -1.9252   -0.2637 H   0  0  0  0  0  0  0  0  0  0  0  0
    1.6808   -2.4125   -1.4831 H   0  0  0  0  0  0  0  0  0  0  0  0
    3.1299   -2.1746    0.3923 H   0  0  0  0  0  0  0  0  0  0  0  0
    2.7697   -0.5336    2.2278 H   0  0  0  0  0  0  0  0  0  0  0  0
    1.3130   -1.5029    1.9903 H   0  0  0  0  0  0  0  0  0  0  0  0
    1.2239    1.1729    2.2788 H   0  0  0  0  0  0  0  0  0  0  0  0
    2.2464    2.2757    0.4932 H   0  0  0  0  0  0  0  0  0  0  0  0
    0.6935    2.0360   -0.2623 H   0  0  0  0  0  0  0  0  0  0  0  0
   -2.8494    0.7355    3.3228 H   0  0  0  0  0  0  0  0  0  0  0  0
   -5.4804    0.9464    1.0438 H   0  0  0  0  0  0  0  0  0  0  0  0
   -6.7214    1.9967   -0.7995 H   0  0  0  0  0  0  0  0  0  0  0  0
   -5.5126    2.9778   -2.7253 H   0  0  0  0  0  0  0  0  0  0  0  0
   -3.0395    2.8933   -2.8086 H   0  0  0  0  0  0  0  0  0  0  0  0
   -1.7695    1.8533   -0.9943 H   0  0  0  0  0  0  0  0  0  0  0  0
   -2.0496   -0.7734   -0.8943 H   0  0  0  0  0  0  0  0  0  0  0  0
   -2.1182   -3.1955   -1.2702 H   0  0  0  0  0  0  0  0  0  0  0  0
   -2.9438   -4.7150    0.5024 H   0  0  0  0  0  0  0  0  0  0  0  0
   -3.7092   -3.7907    2.6673 H   0  0  0  0  0  0  0  0  0  0  0  0
   -3.6596   -1.3849    3.0803 H   0  0  0  0  0  0  0  0  0  0  0  0
    4.8682   -0.3518    0.9362 H   0  0  0  0  0  0  0  0  0  0  0  0
    3.9801    1.1824    1.0383 H   0  0  0  0  0  0  0  0  0  0  0  0
    5.1010    2.0820   -0.8436 H   0  0  0  0  0  0  0  0  0  0  0  0
    6.3937    0.9900   -0.1860 H   0  0  0  0  0  0  0  0  0  0  0  0
    5.0613    0.8372   -2.7598 H   0  0  0  0  0  0  0  0  0  0  0  0
    6.2152   -0.3747   -2.0634 H   0  0  0  0  0  0  0  0  0  0  0  0
    3.5334   -0.9069   -2.5789 H   0  0  0  0  0  0  0  0  0  0  0  0
    4.5341   -1.7654   -1.3707 H   0  0  0  0  0  0  0  0  0  0  0  0
  1  2  1  0
  2  3  1  0
  3  4  1  0
  4  5  1  0
  5  6  1  0
  6  7  1  0
  6  8  1  0
  8  9  1  0
  9 10  2  0
  9 11  1  0
 11 12  1  0
 11 13  1  0
 13 14  2  0
 14 15  1  0
 15 16  2  0
 16 17  1  0
 17 18  2  0
 11 19  1  0
 19 20  2  0
 20 21  1  0
 21 22  2  0
 22 23  1  0
 23 24  2  0
  4 25  1  0
 25 26  1  0
 26 27  1  0
 27 28  1  0
 28 29  1  0
  7  1  1  0
 18 13  1  0
 24 19  1  0
 29 25  1  0
 25  1  1  0
  1 30  1  6
  2 31  1  0
  2 32  1  0
  3 33  1  0
  3 34  1  0
  4 35  1  1
  5 36  1  0
  5 37  1  0
  6 38  1  1
  7 39  1  0
  7 40  1  0
 12 41  1  0
 14 42  1  0
 15 43  1  0
 16 44  1  0
 17 45  1  0
 18 46  1  0
 20 47  1  0
 21 48  1  0
 22 49  1  0
 23 50  1  0
 24 51  1  0
 26 52  1  0
 26 53  1  0
 27 54  1  0
 27 55  1  0
 28 56  1  0
 28 57  1  0
 29 58  1  0
 29 59  1  0
M  CHG  1  25   1
M  END
$$$$
