
     RDKit          3D

 54 56  0  0  0  0  0  0  0  0999 V2000
   -2.2782   -0.2612    0.9103 C   0  0  2  0  0  0  0  0  0  0  0  0
   -3.5769    0.4172    0.8799 N   0  0  0  0  0  0  0  0  0  0  0  0
   -1.1339    0.7684    0.8255 C   0  0  0  0  0  0  0  0  0  0  0  0
   -1.1611    1.5899   -0.4400 C   0  0  0  0  0  0  0  0  0  0  0  0
   -0.5006    1.1374   -1.5945 C   0  0  0  0  0  0  0  0  0  0  0  0
   -0.5186    1.9035   -2.7634 C   0  0  0  0  0  0  0  0  0  0  0  0
   -1.1980    3.1241   -2.7898 C   0  0  0  0  0  0  0  0  0  0  0  0
   -1.8647    3.5777   -1.6484 C   0  0  0  0  0  0  0  0  0  0  0  0
   -1.8504    2.8133   -0.4778 C   0  0  0  0  0  0  0  0  0  0  0  0
   -2.1978   -1.2858   -0.2036 C   0  0  0  0  0  0  0  0  0  0  0  0
   -2.7898   -1.0475   -1.2922 O   0  0  0  0  0  0  0  0  0  0  0  0
   -1.4832   -2.5297   -0.0546 N   0  0  0  0  0  0  0  0  0  0  0  0
   -1.8104   -3.6984   -0.8569 C   0  0  0  0  0  0  0  0  0  0  0  0
   -0.8646   -4.8008   -0.3962 C   0  0  0  0  0  0  0  0  0  0  0  0
   -0.2941   -4.3232    0.9356 C   0  0  0  0  0  0  0  0  0  0  0  0
   -0.4238   -2.8003    0.9129 C   0  0  1  0  0  0  0  0  0  0  0  0
    0.8738   -2.1709    0.4705 C   0  0  0  0  0  0  0  0  0  0  0  0
    1.1923   -2.1826   -0.7503 O   0  0  0  0  0  0  0  0  0  0  0  0
    1.7705   -1.6154    1.4432 N   0  0  0  0  0  0  0  0  0  0  0  0
    3.0550   -1.0206    1.0792 C   0  0  0  0  0  0  0  0  0  0  0  0
    2.8484    0.3128    0.4119 C   0  0  0  0  0  0  0  0  0  0  0  0
    2.3729    1.4045    1.1565 C   0  0  0  0  0  0  0  0  0  0  0  0
    2.1548    2.6465    0.5396 C   0  0  0  0  0  0  0  0  0  0  0  0
    1.5804    3.7871    1.3257 C   0  0  0  0  0  0  0  0  0  0  0  0
    2.4019    2.7878   -0.8340 C   0  0  0  0  0  0  0  0  0  0  0  0
    2.8813    1.7061   -1.5771 C   0  0  0  0  0  0  0  0  0  0  0  0
    3.1009    0.4721   -0.9598 C   0  0  0  0  0  0  0  0  0  0  0  0
   -2.1937   -0.7852    1.8864 H   0  0  0  0  0  0  0  0  0  0  0  0
   -4.3261   -0.2996    1.0216 H   0  0  0  0  0  0  0  0  0  0  0  0
   -3.6346    1.0596    1.7038 H   0  0  0  0  0  0  0  0  0  0  0  0
   -0.1623    0.2481    0.9071 H   0  0  0  0  0  0  0  0  0  0  0  0
   -1.1858    1.4434    1.7078 H   0  0  0  0  0  0  0  0  0  0  0  0
    0.0341    0.1966   -1.5867 H   0  0  0  0  0  0  0  0  0  0  0  0
   -0.0016    1.5528   -3.6471 H   0  0  0  0  0  0  0  0  0  0  0  0
   -1.2087    3.7177   -3.6946 H   0  0  0  0  0  0  0  0  0  0  0  0
   -2.3923    4.5224   -1.6705 H   0  0  0  0  0  0  0  0  0  0  0  0
   -2.3692    3.1778    0.4000 H   0  0  0  0  0  0  0  0  0  0  0  0
   -1.6629   -3.4810   -1.9372 H   0  0  0  0  0  0  0  0  0  0  0  0
   -2.8661   -3.9934   -0.6715 H   0  0  0  0  0  0  0  0  0  0  0  0
   -1.3946   -5.7716   -0.2844 H   0  0  0  0  0  0  0  0  0  0  0  0
   -0.0388   -4.9172   -1.1322 H   0  0  0  0  0  0  0  0  0  0  0  0
   -0.9172   -4.7309    1.7623 H   0  0  0  0  0  0  0  0  0  0  0  0
    0.7530   -4.6715    1.0797 H   0  0  0  0  0  0  0  0  0  0  0  0
   -0.7068   -2.4439    1.9250 H   0  0  0  0  0  0  0  0  0  0  0  0
    1.5103   -1.6534    2.4545 H   0  0  0  0  0  0  0  0  0  0  0  0
    3.6205   -1.7206    0.4260 H   0  0  0  0  0  0  0  0  0  0  0  0
    3.6630   -0.8703    1.9976 H   0  0  0  0  0  0  0  0  0  0  0  0
    2.1571    1.2812    2.2113 H   0  0  0  0  0  0  0  0  0  0  0  0
    1.9420    3.7579    2.3755 H   0  0  0  0  0  0  0  0  0  0  0  0
    0.4728    3.7166    1.3225 H   0  0  0  0  0  0  0  0  0  0  0  0
    1.8821    4.7610    0.8849 H   0  0  0  0  0  0  0  0  0  0  0  0
    2.2135    3.7310   -1.3317 H   0  0  0  0  0  0  0  0  0  0  0  0
    3.0672    1.8201   -2.6371 H   0  0  0  0  0  0  0  0  0  0  0  0
    3.4592   -0.3596   -1.5535 H   0  0  0  0  0  0  0  0  0  0  0  0
  1  2  1  0
  1  3  1  0
  3  4  1  0
  4  5  2  0
  5  6  1  0
  6  7  2  0
  7  8  1  0
  8  9  2  0
  1 10  1  0
 10 11  2  0
 10 12  1  0
 12 13  1  0
 13 14  1  0
 14 15  1  0
 15 16  1  0
 16 17  1  0
 17 18  2  0
 17 19  1  0
 19 20  1  0
 20 21  1  0
 21 22  2  0
 22 23  1  0
 23 24  1  0
 23 25  2  0
 25 26  1  0
 26 27  2  0
  9  4  1  0
 16 12  1  0
 27 21  1  0
  1 28  1  1
  2 29  1  0
  2 30  1  0
  3 31  1  0
  3 32  1  0
  5 33  1  0
  6 34  1  0
  7 35  1  0
  8 36  1  0
  9 37  1  0
 13 38  1  0
 13 39  1  0
 14 40  1  0
 14 41  1  0
 15 42  1  0
 15 43  1  0
 16 44  1  1
 19 45  1  0
 20 46  1  0
 20 47  1  0
 22 48  1  0
 24 49  1  0
 24 50  1  0
 24 51  1  0
 25 52  1  0
 26 53  1  0
 27 54  1  0
M  END
$$$$
