
     RDKit          3D

 63 65  0  0  0  0  0  0  0  0999 V2000
   -4.0635    2.9065    4.4735 C   0  0  0  0  0  0  0  0  0  0  0  0
   -3.1772    2.1216    3.4955 C   0  0  0  0  0  0  0  0  0  0  0  0
   -2.5121    0.9508    4.2373 C   0  0  0  0  0  0  0  0  0  0  0  0
   -3.9992    1.6082    2.5057 F   0  0  0  0  0  0  0  0  0  0  0  0
   -2.1333    3.0854    2.8656 C   0  0  0  0  0  0  0  0  0  0  0  0
   -1.1198    2.4336    1.8853 C   0  0  2  0  0  0  0  0  0  0  0  0
   -0.1732    3.4391    1.3416 N   0  0  0  0  0  0  0  0  0  0  0  0
    1.2399    3.0237    1.4706 C   0  0  1  0  0  0  0  0  0  0  0  0
    1.5176    1.7871    0.6318 C   0  0  0  0  0  0  0  0  0  0  0  0
    2.0859    0.6488    1.2260 C   0  0  0  0  0  0  0  0  0  0  0  0
    2.2913   -0.5139    0.4792 C   0  0  0  0  0  0  0  0  0  0  0  0
    1.9375   -0.5609   -0.8799 C   0  0  0  0  0  0  0  0  0  0  0  0
    1.3939    0.5869   -1.4810 C   0  0  0  0  0  0  0  0  0  0  0  0
    1.1844    1.7483   -0.7333 C   0  0  0  0  0  0  0  0  0  0  0  0
    2.1188   -1.8086   -1.6627 C   0  0  0  0  0  0  0  0  0  0  0  0
    3.2818   -2.5850   -1.5121 C   0  0  0  0  0  0  0  0  0  0  0  0
    3.4471   -3.7637   -2.2452 C   0  0  0  0  0  0  0  0  0  0  0  0
    2.4507   -4.1883   -3.1329 C   0  0  0  0  0  0  0  0  0  0  0  0
    1.2929   -3.4173   -3.2925 C   0  0  0  0  0  0  0  0  0  0  0  0
    1.1261   -2.2376   -2.5622 C   0  0  0  0  0  0  0  0  0  0  0  0
    2.6668   -5.6645   -4.0671 S   0  0  0  0  0  6  0  0  0  0  0  0
    3.4619   -5.2758   -5.6092 C   0  0  0  0  0  0  0  0  0  0  0  0
    1.3301   -6.2974   -4.3357 O   0  0  0  0  0  0  0  0  0  0  0  0
    3.5143   -6.6369   -3.2955 O   0  0  0  0  0  0  0  0  0  0  0  0
    2.1854    4.1735    1.0696 C   0  0  0  0  0  0  0  0  0  0  0  0
    1.8755    4.6477   -0.1928 F   0  0  0  0  0  0  0  0  0  0  0  0
    2.0685    5.2137    1.9748 F   0  0  0  0  0  0  0  0  0  0  0  0
    3.4985    3.7349    1.0773 F   0  0  0  0  0  0  0  0  0  0  0  0
   -1.8262    1.7781    0.7280 C   0  0  0  0  0  0  0  0  0  0  0  0
   -2.6104    2.4582    0.0107 O   0  0  0  0  0  0  0  0  0  0  0  0
   -1.5848    0.3980    0.4204 N   0  0  0  0  0  0  0  0  0  0  0  0
   -2.2629   -0.2772   -0.6829 C   0  0  0  0  0  0  0  0  0  0  0  0
   -3.6589   -0.7813   -0.3697 C   0  0  0  0  0  0  0  0  0  0  0  0
   -2.4968   -1.7650   -0.4942 C   0  0  0  0  0  0  0  0  0  0  0  0
   -2.0074    0.1936   -2.0511 C   0  0  0  0  0  0  0  0  0  0  0  0
   -1.8071    0.5655   -3.1284 N   0  0  0  0  0  0  0  0  0  0  0  0
   -3.4582    3.3192    5.3094 H   0  0  0  0  0  0  0  0  0  0  0  0
   -4.8515    2.2470    4.8964 H   0  0  0  0  0  0  0  0  0  0  0  0
   -4.5666    3.7467    3.9484 H   0  0  0  0  0  0  0  0  0  0  0  0
   -2.0301    0.2550    3.5196 H   0  0  0  0  0  0  0  0  0  0  0  0
   -1.7501    1.3225    4.9556 H   0  0  0  0  0  0  0  0  0  0  0  0
   -3.2723    0.3647    4.7969 H   0  0  0  0  0  0  0  0  0  0  0  0
   -1.5547    3.5632    3.6877 H   0  0  0  0  0  0  0  0  0  0  0  0
   -2.6731    3.9002    2.3332 H   0  0  0  0  0  0  0  0  0  0  0  0
   -0.5711    1.6551    2.4592 H   0  0  0  0  0  0  0  0  0  0  0  0
   -0.2917    4.3548    1.8356 H   0  0  0  0  0  0  0  0  0  0  0  0
    1.4514    2.8041    2.5432 H   0  0  0  0  0  0  0  0  0  0  0  0
    2.3507    0.6513    2.2760 H   0  0  0  0  0  0  0  0  0  0  0  0
    2.7007   -1.3863    0.9728 H   0  0  0  0  0  0  0  0  0  0  0  0
    1.1293    0.5860   -2.5308 H   0  0  0  0  0  0  0  0  0  0  0  0
    0.7357    2.6076   -1.2144 H   0  0  0  0  0  0  0  0  0  0  0  0
    4.0712   -2.2712   -0.8405 H   0  0  0  0  0  0  0  0  0  0  0  0
    4.3545   -4.3413   -2.1233 H   0  0  0  0  0  0  0  0  0  0  0  0
    0.5179   -3.7287   -3.9813 H   0  0  0  0  0  0  0  0  0  0  0  0
    0.2134   -1.6702   -2.6884 H   0  0  0  0  0  0  0  0  0  0  0  0
    4.4517   -4.8154   -5.4103 H   0  0  0  0  0  0  0  0  0  0  0  0
    2.8329   -4.5628   -6.1812 H   0  0  0  0  0  0  0  0  0  0  0  0
    3.5990   -6.2039   -6.2014 H   0  0  0  0  0  0  0  0  0  0  0  0
   -0.8734   -0.1330    0.9715 H   0  0  0  0  0  0  0  0  0  0  0  0
   -3.9993   -0.6228    0.6759 H   0  0  0  0  0  0  0  0  0  0  0  0
   -4.3646   -0.8127   -1.2275 H   0  0  0  0  0  0  0  0  0  0  0  0
   -2.1652   -2.1862    0.4789 H   0  0  0  0  0  0  0  0  0  0  0  0
   -2.5226   -2.3712   -1.4253 H   0  0  0  0  0  0  0  0  0  0  0  0
  1  2  1  0
  2  3  1  0
  2  4  1  0
  2  5  1  0
  5  6  1  0
  6  7  1  0
  7  8  1  0
  8  9  1  0
  9 10  2  0
 10 11  1  0
 11 12  2  0
 12 13  1  0
 13 14  2  0
 12 15  1  0
 15 16  2  0
 16 17  1  0
 17 18  2  0
 18 19  1  0
 19 20  2  0
 18 21  1  0
 21 22  1  0
 21 23  2  0
 21 24  2  0
  8 25  1  0
 25 26  1  0
 25 27  1  0
 25 28  1  0
  6 29  1  0
 29 30  2  0
 29 31  1  0
 31 32  1  0
 32 33  1  0
 33 34  1  0
 32 35  1  0
 35 36  3  0
 14  9  1  0
 20 15  1  0
 34 32  1  0
  1 37  1  0
  1 38  1  0
  1 39  1  0
  3 40  1  0
  3 41  1  0
  3 42  1  0
  5 43  1  0
  5 44  1  0
  6 45  1  1
  7 46  1  0
  8 47  1  1
 10 48  1  0
 11 49  1  0
 13 50  1  0
 14 51  1  0
 16 52  1  0
 17 53  1  0
 19 54  1  0
 20 55  1  0
 22 56  1  0
 22 57  1  0
 22 58  1  0
 31 59  1  0
 33 60  1  0
 33 61  1  0
 34 62  1  0
 34 63  1  0
M  END
$$$$
