
     RDKit          3D

 86 93  0  0  0  0  0  0  0  0999 V2000
   -1.7960   -1.8395    0.4998 C   0  0  2  0  0  0  0  0  0  0  0  0
   -0.7758   -2.8364   -0.0559 C   0  0  0  0  0  0  0  0  0  0  0  0
   -1.5888   -4.0867   -0.3993 C   0  0  0  0  0  0  0  0  0  0  0  0
   -3.0302   -3.6174   -0.5828 C   0  0  0  0  0  0  0  0  0  0  0  0
   -3.0862   -2.3015    0.0244 N   0  0  0  0  0  0  0  0  0  0  0  0
   -4.2665   -1.4828    0.0789 C   0  0  0  0  0  0  0  0  0  0  0  0
   -5.4001   -2.0079   -0.0877 O   0  0  0  0  0  0  0  0  0  0  0  0
   -4.1519    0.0060    0.3533 C   0  0  2  0  0  0  0  0  0  0  0  0
   -4.7065    0.8469   -0.8135 C   0  0  0  0  0  0  0  0  0  0  0  0
   -6.2094    0.7732   -0.9131 C   0  0  0  0  0  0  0  0  0  0  0  0
   -7.0126    1.4506    0.0200 C   0  0  0  0  0  0  0  0  0  0  0  0
   -8.4063    1.3749   -0.0634 C   0  0  0  0  0  0  0  0  0  0  0  0
   -9.0076    0.6238   -1.0770 C   0  0  0  0  0  0  0  0  0  0  0  0
   -8.2161   -0.0527   -2.0092 C   0  0  0  0  0  0  0  0  0  0  0  0
   -6.8220    0.0205   -1.9298 C   0  0  0  0  0  0  0  0  0  0  0  0
   -2.7462    0.3680    0.5784 N   0  0  0  0  0  0  0  0  0  0  0  0
   -2.2597    1.4233    1.3485 C   0  0  0  0  0  0  0  0  0  0  0  0
   -2.9873    2.3462    1.8040 O   0  0  0  0  0  0  0  0  0  0  0  0
   -0.7839    1.3439    1.4530 C   0  0  1  0  0  0  0  0  0  0  0  0
   -0.4220    0.1820    0.7064 O   0  0  0  0  0  0  0  0  0  0  0  0
   -1.5962   -0.3672    0.0948 C   0  0  1  0  0  0  0  0  0  0  0  0
   -1.5418   -0.2285   -1.3053 O   0  0  0  0  0  0  0  0  0  0  0  0
   -0.2151    2.5672    0.8627 N   0  0  0  0  0  0  0  0  0  0  0  0
    0.8289    2.7973    0.1072 C   0  0  0  0  0  0  0  0  0  0  0  0
    1.1299    4.1284   -0.1800 O   0  0  0  0  0  0  0  0  0  0  0  0
    1.7270    1.7170   -0.4856 C   0  0  1  0  0  0  0  0  0  0  0  0
    2.5479    2.2697   -1.6687 C   0  0  0  0  0  0  0  0  0  0  0  0
    3.3785    1.2119   -2.2862 N   0  0  0  0  0  0  0  0  0  0  0  0
    4.0371    1.7696   -3.4844 C   0  0  0  0  0  0  0  0  0  0  0  0
    4.3649    0.7007   -1.2960 C   0  0  2  0  0  0  0  0  0  0  0  0
    5.3641   -0.3284   -1.9304 C   0  0  0  0  0  0  0  0  0  0  0  0
    6.1838   -0.9657   -0.8523 C   0  0  0  0  0  0  0  0  0  0  0  0
    7.3895   -1.6594   -0.8849 C   0  0  0  0  0  0  0  0  0  0  0  0
    7.6847   -2.1279    0.3580 N   0  0  0  0  0  0  0  0  0  0  0  0
    6.6642   -1.7421    1.1499 C   0  0  0  0  0  0  0  0  0  0  0  0
    6.4473   -2.0154    2.4990 C   0  0  0  0  0  0  0  0  0  0  0  0
    5.2419   -1.5502    3.0719 C   0  0  0  0  0  0  0  0  0  0  0  0
    4.2933   -0.8386    2.2903 C   0  0  0  0  0  0  0  0  0  0  0  0
    4.5641   -0.5538    0.9291 C   0  0  0  0  0  0  0  0  0  0  0  0
    5.7522   -1.0445    0.4280 C   0  0  0  0  0  0  0  0  0  0  0  0
    3.5977    0.0691   -0.0749 C   0  0  1  0  0  0  0  0  0  0  0  0
    2.6754    1.1198    0.5641 C   0  0  0  0  0  0  0  0  0  0  0  0
   -0.3053    1.2131    2.9379 C   0  0  0  0  0  0  0  0  0  0  0  0
   -0.6846   -0.1347    3.5685 C   0  0  0  0  0  0  0  0  0  0  0  0
   -0.7833    2.3676    3.8375 C   0  0  0  0  0  0  0  0  0  0  0  0
   -1.8003   -1.9148    1.6078 H   0  0  0  0  0  0  0  0  0  0  0  0
    0.0111   -3.0634    0.6961 H   0  0  0  0  0  0  0  0  0  0  0  0
   -0.2846   -2.4680   -0.9787 H   0  0  0  0  0  0  0  0  0  0  0  0
   -1.2042   -4.5801   -1.3183 H   0  0  0  0  0  0  0  0  0  0  0  0
   -1.5371   -4.8051    0.4482 H   0  0  0  0  0  0  0  0  0  0  0  0
   -3.2798   -3.5393   -1.6632 H   0  0  0  0  0  0  0  0  0  0  0  0
   -3.7387   -4.3084   -0.0771 H   0  0  0  0  0  0  0  0  0  0  0  0
   -4.7240    0.2248    1.2817 H   0  0  0  0  0  0  0  0  0  0  0  0
   -4.2330    0.5231   -1.7667 H   0  0  0  0  0  0  0  0  0  0  0  0
   -4.4220    1.9117   -0.6656 H   0  0  0  0  0  0  0  0  0  0  0  0
   -6.5585    2.0352    0.8107 H   0  0  0  0  0  0  0  0  0  0  0  0
   -9.0202    1.8982    0.6582 H   0  0  0  0  0  0  0  0  0  0  0  0
  -10.0865    0.5657   -1.1398 H   0  0  0  0  0  0  0  0  0  0  0  0
   -8.6830   -0.6352   -2.7928 H   0  0  0  0  0  0  0  0  0  0  0  0
   -6.2215   -0.5132   -2.6560 H   0  0  0  0  0  0  0  0  0  0  0  0
   -0.6060   -0.3701   -1.5950 H   0  0  0  0  0  0  0  0  0  0  0  0
    0.5654    4.8864    0.1858 H   0  0  0  0  0  0  0  0  0  0  0  0
    1.1020    0.9148   -0.9136 H   0  0  0  0  0  0  0  0  0  0  0  0
    3.1900    3.1166   -1.3300 H   0  0  0  0  0  0  0  0  0  0  0  0
    1.8277    2.6662   -2.4204 H   0  0  0  0  0  0  0  0  0  0  0  0
    4.8421    2.4863   -3.2075 H   0  0  0  0  0  0  0  0  0  0  0  0
    4.4582    0.9529   -4.1061 H   0  0  0  0  0  0  0  0  0  0  0  0
    3.3025    2.2911   -4.1360 H   0  0  0  0  0  0  0  0  0  0  0  0
    4.9793    1.5501   -0.9118 H   0  0  0  0  0  0  0  0  0  0  0  0
    6.0579    0.1794   -2.6328 H   0  0  0  0  0  0  0  0  0  0  0  0
    4.8020   -1.1183   -2.4730 H   0  0  0  0  0  0  0  0  0  0  0  0
    8.0030   -1.8261   -1.7604 H   0  0  0  0  0  0  0  0  0  0  0  0
    8.5171   -2.6952    0.6325 H   0  0  0  0  0  0  0  0  0  0  0  0
    7.1643   -2.5795    3.0811 H   0  0  0  0  0  0  0  0  0  0  0  0
    5.0295   -1.7587    4.1124 H   0  0  0  0  0  0  0  0  0  0  0  0
    3.3640   -0.5365    2.7511 H   0  0  0  0  0  0  0  0  0  0  0  0
    2.9596   -0.7575   -0.4619 H   0  0  0  0  0  0  0  0  0  0  0  0
    3.2791    1.9228    1.0429 H   0  0  0  0  0  0  0  0  0  0  0  0
    2.0697    0.6162    1.3335 H   0  0  0  0  0  0  0  0  0  0  0  0
    0.8007    1.2687    2.9522 H   0  0  0  0  0  0  0  0  0  0  0  0
   -0.1742   -0.9634    3.0349 H   0  0  0  0  0  0  0  0  0  0  0  0
   -0.3532   -0.1708    4.6283 H   0  0  0  0  0  0  0  0  0  0  0  0
   -1.7837   -0.2912    3.5359 H   0  0  0  0  0  0  0  0  0  0  0  0
   -0.2325    2.3455    4.8023 H   0  0  0  0  0  0  0  0  0  0  0  0
   -1.8662    2.2799    4.0644 H   0  0  0  0  0  0  0  0  0  0  0  0
   -0.5871    3.3498    3.3586 H   0  0  0  0  0  0  0  0  0  0  0  0
  1  2  1  0
  2  3  1  0
  3  4  1  0
  4  5  1  0
  5  6  1  0
  6  7  2  0
  6  8  1  0
  8  9  1  0
  9 10  1  0
 10 11  2  0
 11 12  1  0
 12 13  2  0
 13 14  1  0
 14 15  2  0
  8 16  1  0
 16 17  1  0
 17 18  2  0
 17 19  1  0
 19 20  1  0
 20 21  1  0
 21 22  1  6
 19 23  1  0
 23 24  2  3
 24 25  1  0
 24 26  1  0
 26 27  1  0
 27 28  1  0
 28 29  1  0
 28 30  1  0
 30 31  1  0
 31 32  1  0
 32 33  2  0
 33 34  1  0
 34 35  1  0
 35 36  2  0
 36 37  1  0
 37 38  2  0
 38 39  1  0
 39 40  2  0
 39 41  1  0
 41 42  1  0
 19 43  1  1
 43 44  1  0
 43 45  1  0
  5  1  1  0
 15 10  1  0
 21 16  1  0
 42 26  1  0
 21  1  1  0
 41 30  1  0
 40 32  1  0
 40 35  1  0
  1 46  1  1
  2 47  1  0
  2 48  1  0
  3 49  1  0
  3 50  1  0
  4 51  1  0
  4 52  1  0
  8 53  1  1
  9 54  1  0
  9 55  1  0
 11 56  1  0
 12 57  1  0
 13 58  1  0
 14 59  1  0
 15 60  1  0
 22 61  1  0
 25 62  1  0
 26 63  1  6
 27 64  1  0
 27 65  1  0
 29 66  1  0
 29 67  1  0
 29 68  1  0
 30 69  1  1
 31 70  1  0
 31 71  1  0
 33 72  1  0
 34 73  1  0
 36 74  1  0
 37 75  1  0
 38 76  1  0
 41 77  1  6
 42 78  1  0
 42 79  1  0
 43 80  1  0
 44 81  1  0
 44 82  1  0
 44 83  1  0
 45 84  1  0
 45 85  1  0
 45 86  1  0
M  END
$$$$
