
     RDKit          3D

 53 56  0  0  0  0  0  0  0  0999 V2000
   -5.9730    2.4781   -0.6826 C   0  0  0  0  0  0  0  0  0  0  0  0
   -6.1154    2.0326    0.7711 C   0  0  0  0  0  0  0  0  0  0  0  0
   -6.0399    0.5064    0.9283 C   0  0  0  0  0  0  0  0  0  0  0  0
   -4.7038   -0.0105    0.5654 N   0  0  0  0  0  0  0  0  0  0  0  0
   -4.4790   -0.5633   -0.6878 C   0  0  0  0  0  0  0  0  0  0  0  0
   -5.4248   -0.6317   -1.5229 O   0  0  0  0  0  0  0  0  0  0  0  0
   -3.2297   -1.0336   -1.0388 N   0  0  0  0  0  0  0  0  0  0  0  0
   -2.9617   -1.5870   -2.3765 C   0  0  0  0  0  0  0  0  0  0  0  0
   -2.5661   -0.4747   -3.3417 C   0  0  0  0  0  0  0  0  0  0  0  0
   -2.2265   -0.9138   -0.1272 C   0  0  0  0  0  0  0  0  0  0  0  0
   -2.4228   -0.3765    1.0943 C   0  0  0  0  0  0  0  0  0  0  0  0
   -1.2703   -0.3736    1.7757 N   0  0  0  0  0  0  0  0  0  0  0  0
   -0.3865   -0.9286    0.9076 C   0  0  0  0  0  0  0  0  0  0  0  0
   -0.9392   -1.2768   -0.2855 N   0  0  0  0  0  0  0  0  0  0  0  0
    1.0363   -1.1324    1.2146 C   0  0  0  0  0  0  0  0  0  0  0  0
    1.9933   -1.6756    0.3848 C   0  0  0  0  0  0  0  0  0  0  0  0
    3.1644   -1.6712    1.0486 N   0  0  0  0  0  0  0  0  0  0  0  0
    4.4532   -2.0924    0.5110 C   0  0  0  0  0  0  0  0  0  0  0  0
    5.0924   -0.9526   -0.2321 C   0  0  0  0  0  0  0  0  0  0  0  0
    4.8667   -0.7906   -1.6069 C   0  0  0  0  0  0  0  0  0  0  0  0
    5.4389    0.2837   -2.2909 C   0  0  0  0  0  0  0  0  0  0  0  0
    6.2229    1.2154   -1.6061 C   0  0  0  0  0  0  0  0  0  0  0  0
    6.4236    1.0941   -0.2199 C   0  0  0  0  0  0  0  0  0  0  0  0
    5.8673   -0.0060    0.4573 C   0  0  0  0  0  0  0  0  0  0  0  0
    7.3003    2.0769    0.5150 C   0  0  0  0  0  0  0  0  0  0  0  0
    7.2582    3.3208   -0.0911 F   0  0  0  0  0  0  0  0  0  0  0  0
    8.6038    1.6169    0.5086 F   0  0  0  0  0  0  0  0  0  0  0  0
    6.8790    2.2207    1.8256 F   0  0  0  0  0  0  0  0  0  0  0  0
    3.0052   -1.1379    2.2505 N   0  0  0  0  0  0  0  0  0  0  0  0
    1.7054   -0.8062    2.3804 C   0  0  0  0  0  0  0  0  0  0  0  0
   -3.6699    0.0883    1.4701 C   0  0  0  0  0  0  0  0  0  0  0  0
   -3.8407    0.5918    2.6145 O   0  0  0  0  0  0  0  0  0  0  0  0
   -4.9594    2.2368   -1.0661 H   0  0  0  0  0  0  0  0  0  0  0  0
   -6.7379    1.9818   -1.3169 H   0  0  0  0  0  0  0  0  0  0  0  0
   -6.1175    3.5770   -0.7483 H   0  0  0  0  0  0  0  0  0  0  0  0
   -5.3250    2.5179    1.3827 H   0  0  0  0  0  0  0  0  0  0  0  0
   -7.0996    2.3802    1.1530 H   0  0  0  0  0  0  0  0  0  0  0  0
   -6.8416    0.0267    0.3256 H   0  0  0  0  0  0  0  0  0  0  0  0
   -6.2712    0.2434    1.9839 H   0  0  0  0  0  0  0  0  0  0  0  0
   -3.8569   -2.1170   -2.7686 H   0  0  0  0  0  0  0  0  0  0  0  0
   -2.1463   -2.3419   -2.3320 H   0  0  0  0  0  0  0  0  0  0  0  0
   -1.6475    0.0349   -2.9811 H   0  0  0  0  0  0  0  0  0  0  0  0
   -2.3671   -0.9043   -4.3460 H   0  0  0  0  0  0  0  0  0  0  0  0
   -3.3866    0.2691   -3.4257 H   0  0  0  0  0  0  0  0  0  0  0  0
   -1.0975   -0.0197    2.7428 H   0  0  0  0  0  0  0  0  0  0  0  0
    1.8526   -2.0330   -0.6276 H   0  0  0  0  0  0  0  0  0  0  0  0
    4.3131   -2.9663   -0.1628 H   0  0  0  0  0  0  0  0  0  0  0  0
    5.1130   -2.4268    1.3413 H   0  0  0  0  0  0  0  0  0  0  0  0
    4.2531   -1.4992   -2.1496 H   0  0  0  0  0  0  0  0  0  0  0  0
    5.2757    0.3940   -3.3552 H   0  0  0  0  0  0  0  0  0  0  0  0
    6.6691    2.0321   -2.1595 H   0  0  0  0  0  0  0  0  0  0  0  0
    6.0349   -0.1287    1.5207 H   0  0  0  0  0  0  0  0  0  0  0  0
    1.2814   -0.3479    3.2636 H   0  0  0  0  0  0  0  0  0  0  0  0
  1  2  1  0
  2  3  1  0
  3  4  1  0
  4  5  1  0
  5  6  2  0
  5  7  1  0
  7  8  1  0
  8  9  1  0
  7 10  1  0
 10 11  2  0
 11 12  1  0
 12 13  1  0
 13 14  2  0
 13 15  1  0
 15 16  2  0
 16 17  1  0
 17 18  1  0
 18 19  1  0
 19 20  2  0
 20 21  1  0
 21 22  2  0
 22 23  1  0
 23 24  2  0
 23 25  1  0
 25 26  1  0
 25 27  1  0
 25 28  1  0
 17 29  1  0
 29 30  2  0
 11 31  1  0
 31 32  2  0
 31  4  1  0
 14 10  1  0
 30 15  1  0
 24 19  1  0
  1 33  1  0
  1 34  1  0
  1 35  1  0
  2 36  1  0
  2 37  1  0
  3 38  1  0
  3 39  1  0
  8 40  1  0
  8 41  1  0
  9 42  1  0
  9 43  1  0
  9 44  1  0
 12 45  1  0
 16 46  1  0
 18 47  1  0
 18 48  1  0
 20 49  1  0
 21 50  1  0
 22 51  1  0
 24 52  1  0
 30 53  1  0
M  END
$$$$
