
     RDKit          3D

 33 35  0  0  0  0  0  0  0  0999 V2000
   -2.4873    2.4419    0.5317 C   0  0  2  0  0  0  0  0  0  0  0  0
   -2.9192    1.3425    1.3003 O   0  0  0  0  0  0  0  0  0  0  0  0
   -3.2530    2.5158   -0.8001 C   0  0  0  0  0  0  0  0  0  0  0  0
   -2.3591    1.8278   -1.8332 C   0  0  0  0  0  0  0  0  0  0  0  0
   -1.0419    1.7630   -1.2220 N   0  0  0  0  0  0  0  0  0  0  0  0
   -0.2550    0.5740   -1.2031 C   0  0  0  0  0  0  0  0  0  0  0  0
   -0.0459   -0.1317   -2.2257 O   0  0  0  0  0  0  0  0  0  0  0  0
    0.2614    0.2664    0.0828 N   0  0  0  0  0  0  0  0  0  0  0  0
   -0.1811    1.3477    0.8942 C   0  0  0  0  0  0  0  0  0  0  0  0
    0.1141    1.4694    2.1129 O   0  0  0  0  0  0  0  0  0  0  0  0
   -1.0133    2.3271    0.1177 C   0  0  2  0  0  0  0  0  0  0  0  0
    1.3172   -0.6601    0.3785 C   0  0  0  0  0  0  0  0  0  0  0  0
    1.1381   -2.0542    0.2061 C   0  0  0  0  0  0  0  0  0  0  0  0
   -0.1952   -2.6127   -0.2309 C   0  0  0  0  0  0  0  0  0  0  0  0
    2.2302   -2.9258    0.4327 C   0  0  0  0  0  0  0  0  0  0  0  0
    2.0656   -4.6656    0.1535 Cl  0  0  0  0  0  0  0  0  0  0  0  0
    3.4619   -2.4077    0.8773 C   0  0  0  0  0  0  0  0  0  0  0  0
    3.6092   -1.0336    1.0829 C   0  0  0  0  0  0  0  0  0  0  0  0
    2.5477   -0.1676    0.8320 C   0  0  0  0  0  0  0  0  0  0  0  0
    4.5883   -3.2735    1.1273 C   0  0  0  0  0  0  0  0  0  0  0  0
    5.4923   -3.9677    1.3281 N   0  0  0  0  0  0  0  0  0  0  0  0
   -2.6484    3.3703    1.1214 H   0  0  0  0  0  0  0  0  0  0  0  0
   -2.8269    0.5240    0.7446 H   0  0  0  0  0  0  0  0  0  0  0  0
   -4.2504    2.0288   -0.7345 H   0  0  0  0  0  0  0  0  0  0  0  0
   -3.3926    3.5818   -1.0857 H   0  0  0  0  0  0  0  0  0  0  0  0
   -2.3134    2.4117   -2.7770 H   0  0  0  0  0  0  0  0  0  0  0  0
   -2.7415    0.8045   -2.0440 H   0  0  0  0  0  0  0  0  0  0  0  0
   -0.5198    3.3231    0.0937 H   0  0  0  0  0  0  0  0  0  0  0  0
   -0.4406   -3.5298    0.3440 H   0  0  0  0  0  0  0  0  0  0  0  0
   -1.0261   -1.9006   -0.0487 H   0  0  0  0  0  0  0  0  0  0  0  0
   -0.1590   -2.8584   -1.3127 H   0  0  0  0  0  0  0  0  0  0  0  0
    4.5537   -0.6278    1.4256 H   0  0  0  0  0  0  0  0  0  0  0  0
    2.6899    0.8968    0.9714 H   0  0  0  0  0  0  0  0  0  0  0  0
  1  2  1  0
  1  3  1  0
  3  4  1  0
  4  5  1  0
  5  6  1  0
  6  7  2  0
  6  8  1  0
  8  9  1  0
  9 10  2  0
  9 11  1  0
  8 12  1  0
 12 13  2  0
 13 14  1  0
 13 15  1  0
 15 16  1  0
 15 17  2  0
 17 18  1  0
 18 19  2  0
 17 20  1  0
 20 21  3  0
 11  1  1  0
 19 12  1  0
 11  5  1  0
  1 22  1  1
  2 23  1  0
  3 24  1  0
  3 25  1  0
  4 26  1  0
  4 27  1  0
 11 28  1  6
 14 29  1  0
 14 30  1  0
 14 31  1  0
 18 32  1  0
 19 33  1  0
M  END
$$$$
