
     RDKit          3D

 19 18  0  0  0  0  0  0  0  0999 V2000
    3.6871    0.8886    1.5824 O   0  0  0  0  0  0  0  0  0  0  0  0
    2.7071    0.2034    0.9463 N   0  0  0  0  0  0  0  0  0  0  0  0
    1.9315    0.8272   -0.0804 C   0  0  0  0  0  0  0  0  0  0  0  0
    2.1500    2.0288   -0.3918 O   0  0  0  0  0  0  0  0  0  0  0  0
    0.8277    0.0728   -0.7578 C   0  0  0  0  0  0  0  0  0  0  0  0
   -0.4572    0.1425    0.0722 C   0  0  0  0  0  0  0  0  0  0  0  0
   -1.5917   -0.6258   -0.6096 C   0  0  0  0  0  0  0  0  0  0  0  0
   -3.1165   -0.5380    0.3803 P   0  0  0  0  0  5  0  0  0  0  0  0
   -4.3472   -1.3810   -0.4157 O   0  0  0  0  0  1  0  0  0  0  0  0
   -3.5795    1.0771    0.5728 O   0  0  0  0  0  1  0  0  0  0  0  0
   -2.8819   -1.1598    1.7380 O   0  0  0  0  0  0  0  0  0  0  0  0
    4.5089    0.6983    1.0618 H   0  0  0  0  0  0  0  0  0  0  0  0
    2.5049   -0.7811    1.2312 H   0  0  0  0  0  0  0  0  0  0  0  0
    1.1362   -0.9871   -0.8893 H   0  0  0  0  0  0  0  0  0  0  0  0
    0.6486    0.5062   -1.7664 H   0  0  0  0  0  0  0  0  0  0  0  0
   -0.7559    1.2068    0.1975 H   0  0  0  0  0  0  0  0  0  0  0  0
   -0.2692   -0.2942    1.0780 H   0  0  0  0  0  0  0  0  0  0  0  0
   -1.7948   -0.1916   -1.6118 H   0  0  0  0  0  0  0  0  0  0  0  0
   -1.3083   -1.6930   -0.7320 H   0  0  0  0  0  0  0  0  0  0  0  0
  1  2  1  0
  2  3  1  0
  3  4  2  0
  3  5  1  0
  5  6  1  0
  6  7  1  0
  7  8  1  0
  8  9  1  0
  8 10  1  0
  8 11  2  0
  1 12  1  0
  2 13  1  0
  5 14  1  0
  5 15  1  0
  6 16  1  0
  6 17  1  0
  7 18  1  0
  7 19  1  0
M  CHG  2   9  -1  10  -1
M  END
$$$$
