
     RDKit          3D

 42 43  0  0  0  0  0  0  0  0999 V2000
   -5.7531   -0.1944   -0.9259 C   0  0  0  0  0  0  0  0  0  0  0  0
   -4.3998    0.5327   -0.9957 C   0  0  0  0  0  0  0  0  0  0  0  0
   -4.6110    2.0182   -1.2907 C   0  0  0  0  0  0  0  0  0  0  0  0
   -3.6457    0.3972    0.2649 N   0  0  0  0  0  0  0  0  0  0  0  0
   -2.8985   -0.8698    0.3581 C   0  0  0  0  0  0  0  0  0  0  0  0
   -1.4082   -0.6507    0.0571 C   0  0  0  0  0  0  0  0  0  0  0  0
   -1.2587   -0.1557   -1.2485 O   0  0  0  0  0  0  0  0  0  0  0  0
   -0.7711    0.3218    1.0666 C   0  0  0  0  0  0  0  0  0  0  0  0
    0.6360    0.4296    0.8510 O   0  0  0  0  0  0  0  0  0  0  0  0
    1.5870   -0.5390    1.2084 C   0  0  0  0  0  0  0  0  0  0  0  0
    1.2761   -1.7086    1.9463 C   0  0  0  0  0  0  0  0  0  0  0  0
    2.2869   -2.6407    2.2718 C   0  0  0  0  0  0  0  0  0  0  0  0
    3.6167   -2.4220    1.8717 C   0  0  0  0  0  0  0  0  0  0  0  0
    3.8931   -1.2637    1.1517 C   0  0  0  0  0  0  0  0  0  0  0  0
    2.9175   -0.3568    0.8326 C   0  0  0  0  0  0  0  0  0  0  0  0
    3.4273    0.6425    0.1547 O   0  0  0  0  0  0  0  0  0  0  0  0
    4.7217    0.4123    0.0203 C   0  0  0  0  0  0  0  0  0  0  0  0
    5.0754   -0.7869    0.6350 C   0  0  0  0  0  0  0  0  0  0  0  0
    5.6422    1.3144   -0.6868 C   0  0  0  0  0  0  0  0  0  0  0  0
    5.1335    2.5762   -1.3067 C   0  0  0  0  0  0  0  0  0  0  0  0
    6.8660    1.0257   -0.7724 O   0  0  0  0  0  0  0  0  0  0  0  0
   -6.3910    0.2375   -0.1252 H   0  0  0  0  0  0  0  0  0  0  0  0
   -5.6051   -1.2743   -0.7184 H   0  0  0  0  0  0  0  0  0  0  0  0
   -6.2863   -0.1004   -1.8959 H   0  0  0  0  0  0  0  0  0  0  0  0
   -3.8164    0.1111   -1.8452 H   0  0  0  0  0  0  0  0  0  0  0  0
   -5.1455    2.1480   -2.2560 H   0  0  0  0  0  0  0  0  0  0  0  0
   -5.2033    2.4966   -0.4812 H   0  0  0  0  0  0  0  0  0  0  0  0
   -3.6279    2.5304   -1.3634 H   0  0  0  0  0  0  0  0  0  0  0  0
   -4.2982    0.4778    1.0807 H   0  0  0  0  0  0  0  0  0  0  0  0
   -3.3003   -1.6458   -0.3312 H   0  0  0  0  0  0  0  0  0  0  0  0
   -2.9944   -1.2864    1.3862 H   0  0  0  0  0  0  0  0  0  0  0  0
   -0.9096   -1.6436    0.1382 H   0  0  0  0  0  0  0  0  0  0  0  0
   -0.3254   -0.3499   -1.5261 H   0  0  0  0  0  0  0  0  0  0  0  0
   -1.2162    1.3304    0.9307 H   0  0  0  0  0  0  0  0  0  0  0  0
   -0.9777    0.0114    2.1133 H   0  0  0  0  0  0  0  0  0  0  0  0
    0.2667   -1.9100    2.2753 H   0  0  0  0  0  0  0  0  0  0  0  0
    2.0361   -3.5302    2.8350 H   0  0  0  0  0  0  0  0  0  0  0  0
    4.3975   -3.1304    2.1170 H   0  0  0  0  0  0  0  0  0  0  0  0
    6.0554   -1.2424    0.6942 H   0  0  0  0  0  0  0  0  0  0  0  0
    5.9610    3.1316   -1.7974 H   0  0  0  0  0  0  0  0  0  0  0  0
    4.6836    3.2222   -0.5239 H   0  0  0  0  0  0  0  0  0  0  0  0
    4.3635    2.3341   -2.0689 H   0  0  0  0  0  0  0  0  0  0  0  0
  1  2  1  0
  2  3  1  0
  2  4  1  0
  4  5  1  0
  5  6  1  0
  6  7  1  0
  6  8  1  0
  8  9  1  0
  9 10  1  0
 10 11  2  0
 11 12  1  0
 12 13  2  0
 13 14  1  0
 14 15  2  0
 15 16  1  0
 16 17  1  0
 17 18  2  0
 17 19  1  0
 19 20  1  0
 19 21  2  0
 15 10  1  0
 18 14  1  0
  1 22  1  0
  1 23  1  0
  1 24  1  0
  2 25  1  0
  3 26  1  0
  3 27  1  0
  3 28  1  0
  4 29  1  0
  5 30  1  0
  5 31  1  0
  6 32  1  0
  7 33  1  0
  8 34  1  0
  8 35  1  0
 11 36  1  0
 12 37  1  0
 13 38  1  0
 18 39  1  0
 20 40  1  0
 20 41  1  0
 20 42  1  0
M  END
$$$$
