
     RDKit          3D

 43 44  0  0  0  0  0  0  0  0999 V2000
   -6.6032    0.9084    1.3648 N   0  0  0  0  0  0  0  0  0  0  0  0
   -5.3123    0.2538    1.5511 C   0  0  0  0  0  0  0  0  0  0  0  0
   -5.0877   -0.7921    0.4519 C   0  0  0  0  0  0  0  0  0  0  0  0
   -3.7259   -1.5049    0.5914 C   0  0  0  0  0  0  0  0  0  0  0  0
   -2.6621   -1.0017   -0.3989 C   0  0  0  0  0  0  0  0  0  0  0  0
   -2.2346    0.4494   -0.1296 C   0  0  0  0  0  0  0  0  0  0  0  0
   -1.0653    0.8745   -1.0247 C   0  0  0  0  0  0  0  0  0  0  0  0
    0.1443    0.1212   -0.6843 N   0  0  0  0  0  0  0  0  0  0  0  0
    1.4093    0.5002   -1.8154 S   0  0  0  0  0  6  0  0  0  0  0  0
    1.5729    1.9887   -1.9568 O   0  0  0  0  0  0  0  0  0  0  0  0
    1.0386   -0.0597   -3.1610 O   0  0  0  0  0  0  0  0  0  0  0  0
    2.9340   -0.2249   -1.2626 C   0  0  0  0  0  0  0  0  0  0  0  0
    3.4239   -1.3343   -1.9680 C   0  0  0  0  0  0  0  0  0  0  0  0
    4.6122   -1.9528   -1.5930 C   0  0  0  0  0  0  0  0  0  0  0  0
    5.3375   -1.4822   -0.5034 C   0  0  0  0  0  0  0  0  0  0  0  0
    4.8792   -0.3788    0.2387 C   0  0  0  0  0  0  0  0  0  0  0  0
    3.6604    0.2608   -0.1385 C   0  0  0  0  0  0  0  0  0  0  0  0
    3.2115    1.3600    0.6248 C   0  0  0  0  0  0  0  0  0  0  0  0
    3.9434    1.8165    1.7197 C   0  0  0  0  0  0  0  0  0  0  0  0
    5.1334    1.1928    2.0803 C   0  0  0  0  0  0  0  0  0  0  0  0
    5.6088    0.1003    1.3525 C   0  0  0  0  0  0  0  0  0  0  0  0
    7.1234   -0.6331    1.8797 Cl  0  0  0  0  0  0  0  0  0  0  0  0
   -6.5403    1.5190    0.5176 H   0  0  0  0  0  0  0  0  0  0  0  0
   -6.7566    1.5469    2.1788 H   0  0  0  0  0  0  0  0  0  0  0  0
   -5.3026   -0.2513    2.5421 H   0  0  0  0  0  0  0  0  0  0  0  0
   -4.5025    1.0147    1.5426 H   0  0  0  0  0  0  0  0  0  0  0  0
   -5.1845   -0.3175   -0.5492 H   0  0  0  0  0  0  0  0  0  0  0  0
   -5.8973   -1.5508    0.5310 H   0  0  0  0  0  0  0  0  0  0  0  0
   -3.8801   -2.5872    0.3872 H   0  0  0  0  0  0  0  0  0  0  0  0
   -3.3370   -1.4353    1.6313 H   0  0  0  0  0  0  0  0  0  0  0  0
   -1.7760   -1.6672   -0.3094 H   0  0  0  0  0  0  0  0  0  0  0  0
   -3.0455   -1.0940   -1.4388 H   0  0  0  0  0  0  0  0  0  0  0  0
   -3.0886    1.1276   -0.3402 H   0  0  0  0  0  0  0  0  0  0  0  0
   -1.9466    0.5712    0.9376 H   0  0  0  0  0  0  0  0  0  0  0  0
   -0.8867    1.9639   -0.8824 H   0  0  0  0  0  0  0  0  0  0  0  0
   -1.3431    0.7015   -2.0881 H   0  0  0  0  0  0  0  0  0  0  0  0
    0.4632    0.4245    0.2636 H   0  0  0  0  0  0  0  0  0  0  0  0
    2.8845   -1.7312   -2.8178 H   0  0  0  0  0  0  0  0  0  0  0  0
    4.9741   -2.8062   -2.1523 H   0  0  0  0  0  0  0  0  0  0  0  0
    6.2558   -1.9935   -0.2481 H   0  0  0  0  0  0  0  0  0  0  0  0
    2.2953    1.8805    0.3968 H   0  0  0  0  0  0  0  0  0  0  0  0
    3.5840    2.6609    2.2938 H   0  0  0  0  0  0  0  0  0  0  0  0
    5.6889    1.5613    2.9336 H   0  0  0  0  0  0  0  0  0  0  0  0
  1  2  1  0
  2  3  1  0
  3  4  1  0
  4  5  1  0
  5  6  1  0
  6  7  1  0
  7  8  1  0
  8  9  1  0
  9 10  2  0
  9 11  2  0
  9 12  1  0
 12 13  2  0
 13 14  1  0
 14 15  2  0
 15 16  1  0
 16 17  2  0
 17 18  1  0
 18 19  2  0
 19 20  1  0
 20 21  2  0
 21 22  1  0
 17 12  1  0
 21 16  1  0
  1 23  1  0
  1 24  1  0
  2 25  1  0
  2 26  1  0
  3 27  1  0
  3 28  1  0
  4 29  1  0
  4 30  1  0
  5 31  1  0
  5 32  1  0
  6 33  1  0
  6 34  1  0
  7 35  1  0
  7 36  1  0
  8 37  1  0
 13 38  1  0
 14 39  1  0
 15 40  1  0
 18 41  1  0
 19 42  1  0
 20 43  1  0
M  END
$$$$
