
     RDKit          3D

 29 30  0  0  0  0  0  0  0  0999 V2000
    5.6376   -0.3630    1.2535 O   0  0  0  0  0  0  0  0  0  0  0  0
    4.6994    0.6217    1.5525 C   0  0  0  0  0  0  0  0  0  0  0  0
    5.0165    1.5591    2.3339 O   0  0  0  0  0  0  0  0  0  0  0  0
    3.3454    0.5666    0.9586 C   0  0  0  0  0  0  0  0  0  0  0  0
    2.3911    1.5559    1.2542 C   0  0  0  0  0  0  0  0  0  0  0  0
    1.1135    1.4985    0.6901 C   0  0  0  0  0  0  0  0  0  0  0  0
    0.7639    0.4576   -0.1761 C   0  0  0  0  0  0  0  0  0  0  0  0
   -0.5309    0.4459   -0.7142 O   0  0  0  0  0  0  0  0  0  0  0  0
   -1.0303   -0.5586   -1.5941 C   0  0  0  0  0  0  0  0  0  0  0  0
   -2.4812   -0.2535   -1.9551 C   0  0  0  0  0  0  0  0  0  0  0  0
   -3.3223   -0.2761   -0.7607 N   0  0  0  0  0  0  0  0  0  0  0  0
   -3.6189    0.7609    0.0389 C   0  0  0  0  0  0  0  0  0  0  0  0
   -4.3752    0.2826    1.0852 C   0  0  0  0  0  0  0  0  0  0  0  0
   -4.5435   -1.0497    0.9508 N   0  0  0  0  0  0  0  0  0  0  0  0
   -3.8827   -1.3569   -0.1851 C   0  0  0  0  0  0  0  0  0  0  0  0
    1.7155   -0.5347   -0.4753 C   0  0  0  0  0  0  0  0  0  0  0  0
    2.9940   -0.4789    0.0879 C   0  0  0  0  0  0  0  0  0  0  0  0
    6.5674   -0.3348    1.6547 H   0  0  0  0  0  0  0  0  0  0  0  0
    2.6306    2.3746    1.9214 H   0  0  0  0  0  0  0  0  0  0  0  0
    0.3896    2.2677    0.9281 H   0  0  0  0  0  0  0  0  0  0  0  0
   -0.4226   -0.5746   -2.5246 H   0  0  0  0  0  0  0  0  0  0  0  0
   -0.9737   -1.5545   -1.1029 H   0  0  0  0  0  0  0  0  0  0  0  0
   -2.8462   -1.0112   -2.6822 H   0  0  0  0  0  0  0  0  0  0  0  0
   -2.5429    0.7438   -2.4430 H   0  0  0  0  0  0  0  0  0  0  0  0
   -3.3004    1.7833   -0.1191 H   0  0  0  0  0  0  0  0  0  0  0  0
   -4.7730    0.8675    1.9035 H   0  0  0  0  0  0  0  0  0  0  0  0
   -3.8054   -2.3618   -0.5798 H   0  0  0  0  0  0  0  0  0  0  0  0
    1.4782   -1.3525   -1.1419 H   0  0  0  0  0  0  0  0  0  0  0  0
    3.7067   -1.2556   -0.1595 H   0  0  0  0  0  0  0  0  0  0  0  0
  1  2  1  0
  2  3  2  0
  2  4  1  0
  4  5  2  0
  5  6  1  0
  6  7  2  0
  7  8  1  0
  8  9  1  0
  9 10  1  0
 10 11  1  0
 11 12  1  0
 12 13  2  0
 13 14  1  0
 14 15  2  0
  7 16  1  0
 16 17  2  0
 17  4  1  0
 15 11  1  0
  1 18  1  0
  5 19  1  0
  6 20  1  0
  9 21  1  0
  9 22  1  0
 10 23  1  0
 10 24  1  0
 12 25  1  0
 13 26  1  0
 15 27  1  0
 16 28  1  0
 17 29  1  0
M  END
$$$$
