
     RDKit          3D

 76 81  0  0  0  0  0  0  0  0999 V2000
   -8.3089   -2.3320    2.7823 C   0  0  0  0  0  0  0  0  0  0  0  0
   -7.5618   -1.7813    1.7029 O   0  0  0  0  0  0  0  0  0  0  0  0
   -6.4101   -0.9975    1.8616 C   0  0  0  0  0  0  0  0  0  0  0  0
   -5.8679   -0.6744    3.1187 C   0  0  0  0  0  0  0  0  0  0  0  0
   -4.6790    0.0695    3.2058 C   0  0  0  0  0  0  0  0  0  0  0  0
   -4.0119    0.5373    2.0476 C   0  0  0  0  0  0  0  0  0  0  0  0
   -2.6620    1.1478    2.2487 C   0  0  0  0  0  0  0  0  0  0  0  0
   -1.7045    1.3597    1.3666 N   0  0  0  0  0  4  0  0  0  0  0  0
   -0.3743    1.7178    1.9082 C   0  0  0  0  0  0  0  0  0  0  0  0
    0.3423    0.4947    2.5099 C   0  0  0  0  0  0  0  0  0  0  0  0
    0.5650   -0.6492    1.5060 C   0  0  0  0  0  0  0  0  0  0  0  0
    1.6496   -0.3234    0.4688 C   0  0  0  0  0  0  0  0  0  0  0  0
    1.8698   -1.5095   -0.4820 C   0  0  0  0  0  0  0  0  0  0  0  0
    2.8350   -1.1774   -1.6307 C   0  0  0  0  0  0  0  0  0  0  0  0
    4.2853   -1.0114   -1.1548 C   0  0  0  0  0  0  0  0  0  0  0  0
    5.2340   -0.8182   -2.3412 C   0  0  0  0  0  0  0  0  0  0  0  0
    6.6051   -0.6428   -1.8699 N   0  0  0  0  0  0  0  0  0  0  0  0
    7.4890   -1.6797   -1.4352 C   0  0  0  0  0  0  0  0  0  0  0  0
    7.3058   -2.9062   -1.6555 O   0  0  0  0  0  0  0  0  0  0  0  0
    8.5994   -1.1082   -0.6817 C   0  0  0  0  0  0  0  0  0  0  0  0
    8.4030    0.2551   -0.6181 C   0  0  0  0  0  0  0  0  0  0  0  0
    9.2915    1.0895    0.0577 C   0  0  0  0  0  0  0  0  0  0  0  0
   10.4091    0.5006    0.6762 C   0  0  0  0  0  0  0  0  0  0  0  0
   10.6102   -0.8956    0.6111 C   0  0  0  0  0  0  0  0  0  0  0  0
    9.6958   -1.7166   -0.0731 C   0  0  0  0  0  0  0  0  0  0  0  0
    7.1669    0.5569   -1.3310 C   0  0  0  0  0  0  0  0  0  0  0  0
    6.6427    1.6969   -1.4408 O   0  0  0  0  0  0  0  0  0  0  0  0
   -1.8595    1.4981   -0.0970 C   0  0  0  0  0  0  0  0  0  0  0  0
   -2.7606    0.4622   -0.7752 C   0  0  0  0  0  0  0  0  0  0  0  0
   -4.2587    0.7256   -0.5544 C   0  0  1  0  0  0  0  0  0  0  0  0
   -4.6283    2.1946   -0.7331 C   0  0  0  0  0  0  0  0  0  0  0  0
   -4.9840    2.6830   -1.9279 C   0  0  0  0  0  0  0  0  0  0  0  0
   -5.1517    1.7506   -3.0967 C   0  0  2  0  0  0  0  0  0  0  0  0
   -5.8383    2.3810   -4.1485 O   0  0  0  0  0  0  0  0  0  0  0  0
   -5.8961    0.4929   -2.6278 C   0  0  0  0  0  0  0  0  0  0  0  0
   -5.1582   -0.2069   -1.4616 C   0  0  2  0  0  0  0  0  0  0  0  0
   -6.1082   -0.7795   -0.5698 O   0  0  0  0  0  0  0  0  0  0  0  0
   -5.7565   -0.5122    0.7339 C   0  0  0  0  0  0  0  0  0  0  0  0
   -4.6377    0.2830    0.8140 C   0  0  0  0  0  0  0  0  0  0  0  0
   -7.6707   -3.0198    3.3764 H   0  0  0  0  0  0  0  0  0  0  0  0
   -8.6998   -1.5189    3.4298 H   0  0  0  0  0  0  0  0  0  0  0  0
   -9.1664   -2.9054    2.3746 H   0  0  0  0  0  0  0  0  0  0  0  0
   -6.3337   -1.0201    4.0314 H   0  0  0  0  0  0  0  0  0  0  0  0
   -4.2618    0.2479    4.1897 H   0  0  0  0  0  0  0  0  0  0  0  0
   -2.4032    1.2668    3.2971 H   0  0  0  0  0  0  0  0  0  0  0  0
    0.2753    2.1839    1.1367 H   0  0  0  0  0  0  0  0  0  0  0  0
   -0.4828    2.4968    2.6962 H   0  0  0  0  0  0  0  0  0  0  0  0
    1.3197    0.8168    2.9305 H   0  0  0  0  0  0  0  0  0  0  0  0
   -0.2592    0.1053    3.3592 H   0  0  0  0  0  0  0  0  0  0  0  0
   -0.3894   -0.9024    0.9973 H   0  0  0  0  0  0  0  0  0  0  0  0
    0.8820   -1.5492    2.0772 H   0  0  0  0  0  0  0  0  0  0  0  0
    1.3512    0.5645   -0.1255 H   0  0  0  0  0  0  0  0  0  0  0  0
    2.5957   -0.0905    1.0019 H   0  0  0  0  0  0  0  0  0  0  0  0
    2.2494   -2.3862    0.0874 H   0  0  0  0  0  0  0  0  0  0  0  0
    0.8928   -1.7962   -0.9300 H   0  0  0  0  0  0  0  0  0  0  0  0
    2.7915   -2.0108   -2.3658 H   0  0  0  0  0  0  0  0  0  0  0  0
    2.4986   -0.2530   -2.1498 H   0  0  0  0  0  0  0  0  0  0  0  0
    4.3642   -0.1256   -0.4896 H   0  0  0  0  0  0  0  0  0  0  0  0
    4.5961   -1.9132   -0.5834 H   0  0  0  0  0  0  0  0  0  0  0  0
    5.1868   -1.7028   -3.0128 H   0  0  0  0  0  0  0  0  0  0  0  0
    4.9296    0.0759   -2.9277 H   0  0  0  0  0  0  0  0  0  0  0  0
    9.1269    2.1580    0.1070 H   0  0  0  0  0  0  0  0  0  0  0  0
   11.1181    1.1217    1.2078 H   0  0  0  0  0  0  0  0  0  0  0  0
   11.4724   -1.3376    1.0932 H   0  0  0  0  0  0  0  0  0  0  0  0
    9.8394   -2.7880   -0.1236 H   0  0  0  0  0  0  0  0  0  0  0  0
   -0.8682    1.3802   -0.5853 H   0  0  0  0  0  0  0  0  0  0  0  0
   -2.1617    2.5380   -0.3355 H   0  0  0  0  0  0  0  0  0  0  0  0
   -2.4811   -0.5594   -0.4331 H   0  0  0  0  0  0  0  0  0  0  0  0
   -2.5559    0.5013   -1.8676 H   0  0  0  0  0  0  0  0  0  0  0  0
   -4.5589    2.8754    0.1116 H   0  0  0  0  0  0  0  0  0  0  0  0
   -5.2309    3.7361   -2.0266 H   0  0  0  0  0  0  0  0  0  0  0  0
   -4.1460    1.4579   -3.4675 H   0  0  0  0  0  0  0  0  0  0  0  0
   -6.7335    2.6470   -3.8093 H   0  0  0  0  0  0  0  0  0  0  0  0
   -6.0053   -0.2152   -3.4779 H   0  0  0  0  0  0  0  0  0  0  0  0
   -6.9201    0.7805   -2.2991 H   0  0  0  0  0  0  0  0  0  0  0  0
   -4.5422   -1.0344   -1.8805 H   0  0  0  0  0  0  0  0  0  0  0  0
  1  2  1  0
  2  3  1  0
  3  4  2  0
  4  5  1  0
  5  6  2  0
  6  7  1  0
  7  8  2  0
  8  9  1  0
  9 10  1  0
 10 11  1  0
 11 12  1  0
 12 13  1  0
 13 14  1  0
 14 15  1  0
 15 16  1  0
 16 17  1  0
 17 18  1  0
 18 19  2  0
 18 20  1  0
 20 21  2  0
 21 22  1  0
 22 23  2  0
 23 24  1  0
 24 25  2  0
 21 26  1  0
 26 27  2  0
  8 28  1  0
 28 29  1  0
 30 29  1  6
 30 31  1  0
 31 32  2  0
 32 33  1  0
 33 34  1  0
 33 35  1  0
 35 36  1  0
 36 37  1  0
 37 38  1  0
 38 39  2  0
 38  3  1  0
 39  6  1  0
 26 17  1  0
 36 30  1  0
 25 20  1  0
 39 30  1  0
  1 40  1  0
  1 41  1  0
  1 42  1  0
  4 43  1  0
  5 44  1  0
  7 45  1  0
  9 46  1  0
  9 47  1  0
 10 48  1  0
 10 49  1  0
 11 50  1  0
 11 51  1  0
 12 52  1  0
 12 53  1  0
 13 54  1  0
 13 55  1  0
 14 56  1  0
 14 57  1  0
 15 58  1  0
 15 59  1  0
 16 60  1  0
 16 61  1  0
 22 62  1  0
 23 63  1  0
 24 64  1  0
 25 65  1  0
 28 66  1  0
 28 67  1  0
 29 68  1  0
 29 69  1  0
 31 70  1  0
 32 71  1  0
 33 72  1  6
 34 73  1  0
 35 74  1  0
 35 75  1  0
 36 76  1  6
M  CHG  1   8   1
M  END
$$$$
