
     RDKit          3D

 52 54  0  0  0  0  0  0  0  0999 V2000
    2.0700   -2.6988    2.8310 C   0  0  0  0  0  0  0  0  0  0  0  0
    2.9874   -1.6116    2.8527 O   0  0  0  0  0  0  0  0  0  0  0  0
    3.0108   -0.6254    1.8628 C   0  0  0  0  0  0  0  0  0  0  0  0
    3.9116    0.4343    1.9669 C   0  0  0  0  0  0  0  0  0  0  0  0
    3.9122    1.4133    0.9728 C   0  0  0  0  0  0  0  0  0  0  0  0
    4.8059    2.4843    1.0619 O   0  0  0  0  0  0  0  0  0  0  0  0
    4.8560    3.5262    0.0945 C   0  0  0  0  0  0  0  0  0  0  0  0
    3.0409    1.3154   -0.0686 N   0  0  0  0  0  0  0  0  0  0  0  0
    2.1660    0.2805   -0.1593 C   0  0  0  0  0  0  0  0  0  0  0  0
    1.2731    0.2340   -1.2368 O   0  0  0  0  0  0  0  0  0  0  0  0
    0.2108   -0.7189   -1.3811 C   0  0  2  0  0  0  0  0  0  0  0  0
    0.3595   -1.3042   -2.7573 C   0  0  0  0  0  0  0  0  0  0  0  0
    0.3130   -0.4804   -3.8784 O   0  0  0  0  0  0  0  0  0  0  0  0
    0.5618   -2.5407   -2.8982 O   0  0  0  0  0  0  0  0  0  0  0  0
   -1.1805   -0.0268   -1.1066 C   0  0  0  0  0  0  0  0  0  0  0  0
   -1.4143    0.8837   -2.1848 O   0  0  0  0  0  0  0  0  0  0  0  0
   -2.7292    1.4150   -2.2074 C   0  0  0  0  0  0  0  0  0  0  0  0
   -0.9862    0.7450    0.2237 C   0  0  0  0  0  0  0  0  0  0  0  0
   -0.8186    2.1489    0.2459 C   0  0  0  0  0  0  0  0  0  0  0  0
   -0.5282    2.8169    1.4390 C   0  0  0  0  0  0  0  0  0  0  0  0
   -0.3691    2.1004    2.6250 C   0  0  0  0  0  0  0  0  0  0  0  0
   -0.4888    0.7115    2.6200 C   0  0  0  0  0  0  0  0  0  0  0  0
   -0.7792    0.0377    1.4314 C   0  0  0  0  0  0  0  0  0  0  0  0
   -2.3296   -1.0850   -1.0217 C   0  0  0  0  0  0  0  0  0  0  0  0
   -2.5853   -1.9584   -2.1053 C   0  0  0  0  0  0  0  0  0  0  0  0
   -3.6287   -2.8871   -2.0601 C   0  0  0  0  0  0  0  0  0  0  0  0
   -4.4789   -2.9334   -0.9588 C   0  0  0  0  0  0  0  0  0  0  0  0
   -4.3114   -2.0236    0.0815 C   0  0  0  0  0  0  0  0  0  0  0  0
   -3.2703   -1.0922    0.0411 C   0  0  0  0  0  0  0  0  0  0  0  0
    2.1618   -0.6829    0.8015 N   0  0  0  0  0  0  0  0  0  0  0  0
    2.2501   -3.3456    3.7139 H   0  0  0  0  0  0  0  0  0  0  0  0
    2.2137   -3.3002    1.9084 H   0  0  0  0  0  0  0  0  0  0  0  0
    1.0278   -2.3172    2.8716 H   0  0  0  0  0  0  0  0  0  0  0  0
    4.5948    0.4976    2.8045 H   0  0  0  0  0  0  0  0  0  0  0  0
    3.8772    4.0493    0.0483 H   0  0  0  0  0  0  0  0  0  0  0  0
    5.1055    3.1072   -0.9033 H   0  0  0  0  0  0  0  0  0  0  0  0
    5.6399    4.2555    0.3844 H   0  0  0  0  0  0  0  0  0  0  0  0
    0.3380   -1.5521   -0.6541 H   0  0  0  0  0  0  0  0  0  0  0  0
    0.4210   -0.8639   -4.8097 H   0  0  0  0  0  0  0  0  0  0  0  0
   -2.7090    2.3822   -2.7496 H   0  0  0  0  0  0  0  0  0  0  0  0
   -3.1414    1.6086   -1.1928 H   0  0  0  0  0  0  0  0  0  0  0  0
   -3.4060    0.7333   -2.7641 H   0  0  0  0  0  0  0  0  0  0  0  0
   -0.8856    2.7372   -0.6585 H   0  0  0  0  0  0  0  0  0  0  0  0
   -0.4094    3.8928    1.4400 H   0  0  0  0  0  0  0  0  0  0  0  0
   -0.1363    2.6205    3.5451 H   0  0  0  0  0  0  0  0  0  0  0  0
   -0.3404    0.1530    3.5351 H   0  0  0  0  0  0  0  0  0  0  0  0
   -0.8305   -1.0435    1.4492 H   0  0  0  0  0  0  0  0  0  0  0  0
   -2.0252   -1.9002   -3.0219 H   0  0  0  0  0  0  0  0  0  0  0  0
   -3.7935   -3.5555   -2.8956 H   0  0  0  0  0  0  0  0  0  0  0  0
   -5.2912   -3.6481   -0.9295 H   0  0  0  0  0  0  0  0  0  0  0  0
   -5.0037   -2.0243    0.9138 H   0  0  0  0  0  0  0  0  0  0  0  0
   -3.2382   -0.3644    0.8371 H   0  0  0  0  0  0  0  0  0  0  0  0
  1  2  1  0
  2  3  1  0
  3  4  2  0
  4  5  1  0
  5  6  1  0
  6  7  1  0
  5  8  2  0
  8  9  1  0
  9 10  1  0
 10 11  1  0
 11 12  1  0
 12 13  1  0
 12 14  2  0
 11 15  1  0
 15 16  1  0
 16 17  1  0
 15 18  1  0
 18 19  2  0
 19 20  1  0
 20 21  2  0
 21 22  1  0
 22 23  2  0
 15 24  1  0
 24 25  2  0
 25 26  1  0
 26 27  2  0
 27 28  1  0
 28 29  2  0
  9 30  2  0
 30  3  1  0
 23 18  1  0
 29 24  1  0
  1 31  1  0
  1 32  1  0
  1 33  1  0
  4 34  1  0
  7 35  1  0
  7 36  1  0
  7 37  1  0
 11 38  1  1
 13 39  1  0
 17 40  1  0
 17 41  1  0
 17 42  1  0
 19 43  1  0
 20 44  1  0
 21 45  1  0
 22 46  1  0
 23 47  1  0
 25 48  1  0
 26 49  1  0
 27 50  1  0
 28 51  1  0
 29 52  1  0
M  END
$$$$
