
     RDKit          3D

 33 34  0  0  0  0  0  0  0  0999 V2000
   -5.8415    1.0475   -1.1134 C   0  0  0  0  0  0  0  0  0  0  0  0
   -4.4223    0.9708   -1.0250 O   0  0  0  0  0  0  0  0  0  0  0  0
   -3.7218    0.1208   -0.1536 C   0  0  0  0  0  0  0  0  0  0  0  0
   -2.3118    0.1446   -0.1675 C   0  0  0  0  0  0  0  0  0  0  0  0
   -1.6412    1.0068   -1.0384 O   0  0  0  0  0  0  0  0  0  0  0  0
   -1.5784   -0.7024    0.6998 C   0  0  0  0  0  0  0  0  0  0  0  0
   -0.0958   -0.7286    0.7369 C   0  0  0  0  0  0  0  0  0  0  0  0
    0.6166    0.0083   -0.0619 N   0  0  0  0  0  0  0  0  0  0  0  0
    2.0522    0.0769   -0.1128 C   0  0  0  0  0  0  0  0  0  0  0  0
    2.6449    0.6972   -1.2201 C   0  0  0  0  0  0  0  0  0  0  0  0
    4.0352    0.8018   -1.3189 C   0  0  0  0  0  0  0  0  0  0  0  0
    4.8566    0.2825   -0.3084 C   0  0  0  0  0  0  0  0  0  0  0  0
    6.3468    0.4309   -0.3944 C   0  0  0  0  0  0  0  0  0  0  0  0
    4.2690   -0.3090    0.8190 C   0  0  0  0  0  0  0  0  0  0  0  0
    2.8781   -0.4148    0.9187 C   0  0  0  0  0  0  0  0  0  0  0  0
   -2.2742   -1.5579    1.5688 C   0  0  0  0  0  0  0  0  0  0  0  0
   -3.6677   -1.5797    1.5812 C   0  0  0  0  0  0  0  0  0  0  0  0
   -4.3904   -0.7485    0.7278 C   0  0  0  0  0  0  0  0  0  0  0  0
   -6.2592    0.0634   -1.4139 H   0  0  0  0  0  0  0  0  0  0  0  0
   -6.1164    1.7991   -1.8815 H   0  0  0  0  0  0  0  0  0  0  0  0
   -6.2684    1.3637   -0.1383 H   0  0  0  0  0  0  0  0  0  0  0  0
   -2.1277    1.6278   -1.6735 H   0  0  0  0  0  0  0  0  0  0  0  0
    0.3821   -1.4057    1.4316 H   0  0  0  0  0  0  0  0  0  0  0  0
    2.0243    1.0990   -2.0114 H   0  0  0  0  0  0  0  0  0  0  0  0
    4.4703    1.2883   -2.1833 H   0  0  0  0  0  0  0  0  0  0  0  0
    6.6809    0.4216   -1.4538 H   0  0  0  0  0  0  0  0  0  0  0  0
    6.6496    1.3913    0.0725 H   0  0  0  0  0  0  0  0  0  0  0  0
    6.8546   -0.4046    0.1329 H   0  0  0  0  0  0  0  0  0  0  0  0
    4.8880   -0.6839    1.6250 H   0  0  0  0  0  0  0  0  0  0  0  0
    2.4646   -0.8579    1.8127 H   0  0  0  0  0  0  0  0  0  0  0  0
   -1.7364   -2.2144    2.2423 H   0  0  0  0  0  0  0  0  0  0  0  0
   -4.1904   -2.2451    2.2564 H   0  0  0  0  0  0  0  0  0  0  0  0
   -5.4704   -0.7894    0.7617 H   0  0  0  0  0  0  0  0  0  0  0  0
  1  2  1  0
  2  3  1  0
  3  4  2  0
  4  5  1  0
  4  6  1  0
  6  7  1  0
  7  8  2  0
  8  9  1  0
  9 10  2  0
 10 11  1  0
 11 12  2  0
 12 13  1  0
 12 14  1  0
 14 15  2  0
  6 16  2  0
 16 17  1  0
 17 18  2  0
 18  3  1  0
 15  9  1  0
  1 19  1  0
  1 20  1  0
  1 21  1  0
  5 22  1  0
  7 23  1  0
 10 24  1  0
 11 25  1  0
 13 26  1  0
 13 27  1  0
 13 28  1  0
 14 29  1  0
 15 30  1  0
 16 31  1  0
 17 32  1  0
 18 33  1  0
M  END
$$$$
