
     RDKit          3D

 46 49  0  0  0  0  0  0  0  0999 V2000
   -5.3724    0.3136   -2.0735 C   0  0  0  0  0  0  0  0  0  0  0  0
   -4.8313    0.4888   -0.7318 N   0  0  0  0  0  0  0  0  0  0  0  0
   -4.8180   -0.5835    0.2211 C   0  0  0  0  0  0  0  0  0  0  0  0
   -5.2787   -1.7128   -0.0998 O   0  0  0  0  0  0  0  0  0  0  0  0
   -4.2711   -0.3711    1.5799 C   0  0  0  0  0  0  0  0  0  0  0  0
   -3.4519   -1.3349    2.2169 C   0  0  0  0  0  0  0  0  0  0  0  0
   -2.9395   -2.8542    1.3960 S   0  0  0  0  0  0  0  0  0  0  0  0
   -1.4899   -2.0876    0.6706 C   0  0  0  0  0  0  0  0  0  0  0  0
   -0.2740   -2.0483    1.3964 C   0  0  0  0  0  0  0  0  0  0  0  0
    0.8681   -1.4366    0.8460 C   0  0  0  0  0  0  0  0  0  0  0  0
    0.7521   -0.8833   -0.4282 C   0  0  0  0  0  0  0  0  0  0  0  0
   -0.4172   -0.9278   -1.1322 C   0  0  0  0  0  0  0  0  0  0  0  0
   -0.2520   -0.3267   -2.3210 N   0  0  0  0  0  0  0  0  0  0  0  0
    1.0010    0.1073   -2.4031 N   0  0  0  0  0  0  0  0  0  0  0  0
    1.6413   -0.2213   -1.2527 C   0  0  0  0  0  0  0  0  0  0  0  0
    3.0518    0.0855   -0.9546 C   0  0  0  0  0  0  0  0  0  0  0  0
    3.8258    0.7513   -1.8223 C   0  0  0  0  0  0  0  0  0  0  0  0
    5.2436    1.0983   -1.5754 C   0  0  0  0  0  0  0  0  0  0  0  0
    6.0285    0.4678   -0.5894 C   0  0  0  0  0  0  0  0  0  0  0  0
    7.3633    0.8462   -0.4286 C   0  0  0  0  0  0  0  0  0  0  0  0
    7.9109    1.8349   -1.2456 C   0  0  0  0  0  0  0  0  0  0  0  0
    7.1123    2.4305   -2.2220 C   0  0  0  0  0  0  0  0  0  0  0  0
    5.8145    2.0511   -2.3645 N   0  0  0  0  0  0  0  0  0  0  0  0
   -1.5652   -1.5259   -0.6204 C   0  0  0  0  0  0  0  0  0  0  0  0
   -2.9773   -1.0957    3.5141 C   0  0  0  0  0  0  0  0  0  0  0  0
   -3.2954    0.0905    4.1770 C   0  0  0  0  0  0  0  0  0  0  0  0
   -4.0911    1.0489    3.5497 C   0  0  0  0  0  0  0  0  0  0  0  0
   -4.5763    0.8216    2.2599 C   0  0  0  0  0  0  0  0  0  0  0  0
   -4.8220   -0.4953   -2.5988 H   0  0  0  0  0  0  0  0  0  0  0  0
   -6.4499    0.0526   -2.0133 H   0  0  0  0  0  0  0  0  0  0  0  0
   -5.2623    1.2556   -2.6509 H   0  0  0  0  0  0  0  0  0  0  0  0
   -4.4022    1.4086   -0.4838 H   0  0  0  0  0  0  0  0  0  0  0  0
   -0.2193   -2.4845    2.3855 H   0  0  0  0  0  0  0  0  0  0  0  0
    1.7982   -1.3992    1.3973 H   0  0  0  0  0  0  0  0  0  0  0  0
   -0.9712   -0.2078   -3.0686 H   0  0  0  0  0  0  0  0  0  0  0  0
    3.4388   -0.2257    0.0043 H   0  0  0  0  0  0  0  0  0  0  0  0
    3.3933    1.0997   -2.7530 H   0  0  0  0  0  0  0  0  0  0  0  0
    5.6365   -0.3205    0.0370 H   0  0  0  0  0  0  0  0  0  0  0  0
    7.9751    0.3675    0.3252 H   0  0  0  0  0  0  0  0  0  0  0  0
    8.9450    2.1318   -1.1280 H   0  0  0  0  0  0  0  0  0  0  0  0
    7.5238    3.1942   -2.8684 H   0  0  0  0  0  0  0  0  0  0  0  0
   -2.4805   -1.5546   -1.1969 H   0  0  0  0  0  0  0  0  0  0  0  0
   -2.3484   -1.8265    4.0067 H   0  0  0  0  0  0  0  0  0  0  0  0
   -2.9211    0.2686    5.1768 H   0  0  0  0  0  0  0  0  0  0  0  0
   -4.3374    1.9679    4.0657 H   0  0  0  0  0  0  0  0  0  0  0  0
   -5.2085    1.5716    1.8009 H   0  0  0  0  0  0  0  0  0  0  0  0
  1  2  1  0
  2  3  1  0
  3  4  2  0
  3  5  1  0
  5  6  2  0
  6  7  1  0
  7  8  1  0
  8  9  2  0
  9 10  1  0
 10 11  2  0
 11 12  1  0
 12 13  1  0
 13 14  1  0
 14 15  2  0
 15 16  1  0
 16 17  2  0
 17 18  1  0
 18 19  2  0
 19 20  1  0
 20 21  2  0
 21 22  1  0
 22 23  2  0
 12 24  2  0
  6 25  1  0
 25 26  2  0
 26 27  1  0
 27 28  2  0
 28  5  1  0
 24  8  1  0
 15 11  1  0
 23 18  1  0
  1 29  1  0
  1 30  1  0
  1 31  1  0
  2 32  1  0
  9 33  1  0
 10 34  1  0
 13 35  1  0
 16 36  1  0
 17 37  1  0
 19 38  1  0
 20 39  1  0
 21 40  1  0
 22 41  1  0
 24 42  1  0
 25 43  1  0
 26 44  1  0
 27 45  1  0
 28 46  1  0
M  END
$$$$
