
     RDKit          3D

118125  0  0  0  0  0  0  0  0999 V2000
    9.1959    1.6008    1.2160 C   0  0  1  0  0  0  0  0  0  0  0  0
    8.2954    2.7647    0.7562 C   0  0  0  0  0  0  0  0  0  0  0  0
    7.2484    2.1810   -0.1892 C   0  0  0  0  0  0  0  0  0  0  0  0
    7.8059    0.8319   -0.6726 C   0  0  2  0  0  0  0  0  0  0  0  0
    8.7005    1.1308   -1.7251 O   0  0  0  0  0  0  0  0  0  0  0  0
    6.6937   -0.1564   -1.2001 C   0  0  2  0  0  0  0  0  0  0  0  0
    5.8336    0.5122   -2.2885 C   0  0  0  0  0  0  0  0  0  0  0  0
    4.8644   -0.4880   -2.9063 C   0  0  0  0  0  0  0  0  0  0  0  0
    3.9234   -1.1208   -1.8618 C   0  0  2  0  0  0  0  0  0  0  0  0
    2.8096   -0.1523   -1.4123 C   0  0  0  0  0  0  0  0  0  0  0  0
    1.6915   -0.8967   -0.6427 C   0  0  2  0  0  0  0  0  0  0  0  0
    2.2081   -2.1800    0.0534 C   0  0  0  0  0  0  0  0  0  0  0  0
    3.6519   -2.0148    0.5422 C   0  0  0  0  0  0  0  0  0  0  0  0
    4.6770   -1.7382   -0.6217 C   0  0  1  0  0  0  0  0  0  0  0  0
    5.2878   -3.0982   -1.0625 C   0  0  0  0  0  0  0  0  0  0  0  0
    5.7884   -0.7429   -0.0844 C   0  0  1  0  0  0  0  0  0  0  0  0
    6.6682   -1.3671    1.0188 C   0  0  0  0  0  0  0  0  0  0  0  0
    7.6140   -0.3260    1.6154 C   0  0  0  0  0  0  0  0  0  0  0  0
    8.5921    0.3049    0.5711 C   0  0  2  0  0  0  0  0  0  0  0  0
    9.6672   -0.7546    0.1961 C   0  0  0  0  0  0  0  0  0  0  0  0
    0.6647   -1.2434   -1.5605 O   0  0  0  0  0  0  0  0  0  0  0  0
   -0.6195   -1.2005   -0.9616 C   0  0  1  0  0  0  0  0  0  0  0  0
   -1.1841    0.2450   -1.0491 C   0  0  0  0  0  0  0  0  0  0  0  0
   -2.3402    0.3260   -2.0545 C   0  0  2  0  0  0  0  0  0  0  0  0
   -2.8764    1.6238   -2.0732 O   0  0  0  0  0  0  0  0  0  0  0  0
   -3.4350   -0.7078   -1.6984 C   0  0  2  0  0  0  0  0  0  0  0  0
   -4.2578   -0.2005   -0.6553 O   0  0  0  0  0  0  0  0  0  0  0  0
   -5.4911    0.3131   -1.1352 C   0  0  1  0  0  0  0  0  0  0  0  0
   -6.5357   -0.8178   -1.2937 C   0  0  0  0  0  0  0  0  0  0  0  0
   -7.9329   -0.3172   -0.9329 C   0  0  2  0  0  0  0  0  0  0  0  0
   -8.3096    0.7327   -1.7895 O   0  0  0  0  0  0  0  0  0  0  0  0
   -7.9331    0.1596    0.5288 C   0  0  2  0  0  0  0  0  0  0  0  0
   -9.0771    0.9744    0.7400 O   0  0  0  0  0  0  0  0  0  0  0  0
   -9.5812    0.8330    2.0574 C   0  0  1  0  0  0  0  0  0  0  0  0
  -10.4301    2.0706    2.4232 C   0  0  0  0  0  0  0  0  0  0  0  0
  -11.6176    1.6743    3.2989 C   0  0  2  0  0  0  0  0  0  0  0  0
  -11.1662    1.1018    4.5014 O   0  0  0  0  0  0  0  0  0  0  0  0
  -12.4897    0.6731    2.5275 C   0  0  2  0  0  0  0  0  0  0  0  0
  -13.3701    0.0400    3.4217 O   0  0  0  0  0  0  0  0  0  0  0  0
  -11.6258   -0.3815    1.7686 C   0  0  1  0  0  0  0  0  0  0  0  0
  -11.7417   -0.2530    0.2411 C   0  0  0  0  0  0  0  0  0  0  0  0
  -10.2706   -0.4082    2.2011 O   0  0  0  0  0  0  0  0  0  0  0  0
   -6.6327    0.9547    0.8682 C   0  0  1  0  0  0  0  0  0  0  0  0
   -5.7282    0.2168    1.8697 C   0  0  0  0  0  0  0  0  0  0  0  0
   -5.9190    1.3756   -0.2885 O   0  0  0  0  0  0  0  0  0  0  0  0
   -2.7849   -2.0344   -1.2065 C   0  0  1  0  0  0  0  0  0  0  0  0
   -3.5542   -3.2542   -1.7152 C   0  0  0  0  0  0  0  0  0  0  0  0
   -1.4423   -2.1318   -1.6489 O   0  0  0  0  0  0  0  0  0  0  0  0
   10.6742    1.8501    0.9399 C   0  0  0  0  0  0  0  0  0  0  0  0
   11.6366    1.4250    1.7547 C   0  0  0  0  0  0  0  0  0  0  0  0
   12.8939    1.7549    1.1347 C   0  0  0  0  0  0  0  0  0  0  0  0
   14.0315    1.5056    1.6110 O   0  0  0  0  0  0  0  0  0  0  0  0
   12.6822    2.3818   -0.0749 O   0  0  0  0  0  0  0  0  0  0  0  0
   11.2807    2.4915   -0.2937 C   0  0  0  0  0  0  0  0  0  0  0  0
    9.1055    1.5439    2.3263 H   0  0  0  0  0  0  0  0  0  0  0  0
    8.8551    3.5661    0.2345 H   0  0  0  0  0  0  0  0  0  0  0  0
    7.7920    3.2349    1.6299 H   0  0  0  0  0  0  0  0  0  0  0  0
    7.0597    2.8733   -1.0394 H   0  0  0  0  0  0  0  0  0  0  0  0
    6.2961    2.0585    0.3656 H   0  0  0  0  0  0  0  0  0  0  0  0
    8.9715    0.2876   -2.1719 H   0  0  0  0  0  0  0  0  0  0  0  0
    7.2218   -1.0122   -1.6731 H   0  0  0  0  0  0  0  0  0  0  0  0
    6.4872    0.9075   -3.0959 H   0  0  0  0  0  0  0  0  0  0  0  0
    5.2602    1.3667   -1.8705 H   0  0  0  0  0  0  0  0  0  0  0  0
    5.4444   -1.2873   -3.4166 H   0  0  0  0  0  0  0  0  0  0  0  0
    4.2690    0.0211   -3.6953 H   0  0  0  0  0  0  0  0  0  0  0  0
    3.4013   -1.9372   -2.4123 H   0  0  0  0  0  0  0  0  0  0  0  0
    3.2415    0.6373   -0.7607 H   0  0  0  0  0  0  0  0  0  0  0  0
    2.3684    0.3664   -2.2920 H   0  0  0  0  0  0  0  0  0  0  0  0
    1.3311   -0.1878    0.1424 H   0  0  0  0  0  0  0  0  0  0  0  0
    1.5546   -2.4185    0.9202 H   0  0  0  0  0  0  0  0  0  0  0  0
    2.1580   -3.0447   -0.6442 H   0  0  0  0  0  0  0  0  0  0  0  0
    3.9369   -2.9205    1.1212 H   0  0  0  0  0  0  0  0  0  0  0  0
    3.6448   -1.1797    1.2771 H   0  0  0  0  0  0  0  0  0  0  0  0
    6.0674   -2.9675   -1.8389 H   0  0  0  0  0  0  0  0  0  0  0  0
    5.7361   -3.6456   -0.2082 H   0  0  0  0  0  0  0  0  0  0  0  0
    4.5007   -3.7614   -1.4807 H   0  0  0  0  0  0  0  0  0  0  0  0
    5.2512    0.1120    0.3771 H   0  0  0  0  0  0  0  0  0  0  0  0
    7.2613   -2.2167    0.6266 H   0  0  0  0  0  0  0  0  0  0  0  0
    6.0307   -1.7589    1.8391 H   0  0  0  0  0  0  0  0  0  0  0  0
    8.1941   -0.8012    2.4372 H   0  0  0  0  0  0  0  0  0  0  0  0
    6.9907    0.4623    2.0941 H   0  0  0  0  0  0  0  0  0  0  0  0
   10.1774   -1.1296    1.1088 H   0  0  0  0  0  0  0  0  0  0  0  0
   10.4450   -0.3428   -0.4775 H   0  0  0  0  0  0  0  0  0  0  0  0
    9.2145   -1.6179   -0.3313 H   0  0  0  0  0  0  0  0  0  0  0  0
   -0.5716   -1.5138    0.1109 H   0  0  0  0  0  0  0  0  0  0  0  0
   -0.3884    0.9630   -1.3462 H   0  0  0  0  0  0  0  0  0  0  0  0
   -1.5524    0.5560   -0.0464 H   0  0  0  0  0  0  0  0  0  0  0  0
   -1.9437    0.0764   -3.0678 H   0  0  0  0  0  0  0  0  0  0  0  0
   -2.2271    2.1962   -2.5597 H   0  0  0  0  0  0  0  0  0  0  0  0
   -4.0040   -0.9170   -2.6373 H   0  0  0  0  0  0  0  0  0  0  0  0
   -5.3667    0.7844   -2.1382 H   0  0  0  0  0  0  0  0  0  0  0  0
   -6.5280   -1.2006   -2.3376 H   0  0  0  0  0  0  0  0  0  0  0  0
   -6.2815   -1.6707   -0.6277 H   0  0  0  0  0  0  0  0  0  0  0  0
   -8.6595   -1.1573   -1.0321 H   0  0  0  0  0  0  0  0  0  0  0  0
   -8.5409    0.3205   -2.6627 H   0  0  0  0  0  0  0  0  0  0  0  0
   -7.9730   -0.7704    1.1488 H   0  0  0  0  0  0  0  0  0  0  0  0
   -8.7436    0.8215    2.7938 H   0  0  0  0  0  0  0  0  0  0  0  0
   -9.8026    2.8209    2.9529 H   0  0  0  0  0  0  0  0  0  0  0  0
  -10.8124    2.5613    1.5006 H   0  0  0  0  0  0  0  0  0  0  0  0
  -12.2294    2.5794    3.5232 H   0  0  0  0  0  0  0  0  0  0  0  0
  -10.8247    1.8467    5.0621 H   0  0  0  0  0  0  0  0  0  0  0  0
  -13.0917    1.2628    1.7946 H   0  0  0  0  0  0  0  0  0  0  0  0
  -14.0962   -0.3593    2.8744 H   0  0  0  0  0  0  0  0  0  0  0  0
  -12.0379   -1.3872    2.0045 H   0  0  0  0  0  0  0  0  0  0  0  0
  -12.7837   -0.4709   -0.0763 H   0  0  0  0  0  0  0  0  0  0  0  0
  -11.4842    0.7706   -0.1004 H   0  0  0  0  0  0  0  0  0  0  0  0
  -11.0669   -0.9832   -0.2526 H   0  0  0  0  0  0  0  0  0  0  0  0
   -6.9369    1.8886    1.3898 H   0  0  0  0  0  0  0  0  0  0  0  0
   -6.2429    0.1303    2.8502 H   0  0  0  0  0  0  0  0  0  0  0  0
   -5.4839   -0.8067    1.5183 H   0  0  0  0  0  0  0  0  0  0  0  0
   -4.7854    0.7846    2.0184 H   0  0  0  0  0  0  0  0  0  0  0  0
   -2.8231   -2.0823   -0.0913 H   0  0  0  0  0  0  0  0  0  0  0  0
   -3.5378   -3.2895   -2.8256 H   0  0  0  0  0  0  0  0  0  0  0  0
   -3.0849   -4.1823   -1.3253 H   0  0  0  0  0  0  0  0  0  0  0  0
   -4.6068   -3.2223   -1.3668 H   0  0  0  0  0  0  0  0  0  0  0  0
   11.4957    0.9004    2.6911 H   0  0  0  0  0  0  0  0  0  0  0  0
   11.0067    3.5629   -0.3745 H   0  0  0  0  0  0  0  0  0  0  0  0
   11.0071    1.9419   -1.2149 H   0  0  0  0  0  0  0  0  0  0  0  0
  1  2  1  0
  2  3  1  0
  3  4  1  0
  4  5  1  6
  4  6  1  0
  6  7  1  0
  7  8  1  0
  8  9  1  0
  9 10  1  0
 10 11  1  0
 11 12  1  0
 12 13  1  0
 13 14  1  0
 14 15  1  6
 14 16  1  0
 16 17  1  0
 17 18  1  0
 18 19  1  0
 19 20  1  6
 11 21  1  0
 21 22  1  0
 22 23  1  0
 23 24  1  0
 24 25  1  0
 24 26  1  0
 26 27  1  0
 27 28  1  0
 28 29  1  0
 29 30  1  0
 30 31  1  0
 30 32  1  0
 32 33  1  0
 33 34  1  0
 34 35  1  0
 35 36  1  0
 36 37  1  0
 36 38  1  0
 38 39  1  0
 38 40  1  0
 40 41  1  0
 40 42  1  0
 32 43  1  0
 43 44  1  0
 43 45  1  0
 26 46  1  0
 46 47  1  0
 46 48  1  0
  1 49  1  0
 49 50  2  0
 50 51  1  0
 51 52  2  0
 51 53  1  0
 53 54  1  0
 19  1  1  0
 48 22  1  0
 54 49  1  0
 19  4  1  0
 45 28  1  0
 16  6  1  0
 42 34  1  0
 14  9  1  0
  1 55  1  1
  2 56  1  0
  2 57  1  0
  3 58  1  0
  3 59  1  0
  5 60  1  0
  6 61  1  6
  7 62  1  0
  7 63  1  0
  8 64  1  0
  8 65  1  0
  9 66  1  6
 10 67  1  0
 10 68  1  0
 11 69  1  1
 12 70  1  0
 12 71  1  0
 13 72  1  0
 13 73  1  0
 15 74  1  0
 15 75  1  0
 15 76  1  0
 16 77  1  1
 17 78  1  0
 17 79  1  0
 18 80  1  0
 18 81  1  0
 20 82  1  0
 20 83  1  0
 20 84  1  0
 22 85  1  1
 23 86  1  0
 23 87  1  0
 24 88  1  6
 25 89  1  0
 26 90  1  6
 28 91  1  6
 29 92  1  0
 29 93  1  0
 30 94  1  1
 31 95  1  0
 32 96  1  1
 34 97  1  1
 35 98  1  0
 35 99  1  0
 36100  1  1
 37101  1  0
 38102  1  6
 39103  1  0
 40104  1  1
 41105  1  0
 41106  1  0
 41107  1  0
 43108  1  1
 44109  1  0
 44110  1  0
 44111  1  0
 46112  1  1
 47113  1  0
 47114  1  0
 47115  1  0
 50116  1  0
 54117  1  0
 54118  1  0
M  END
$$$$
