
     RDKit          3D

 55 59  0  0  0  0  0  0  0  0999 V2000
    4.3155    3.9065   -0.1731 C   0  0  0  0  0  0  0  0  0  0  0  0
    3.6700    2.7354   -0.7885 N   0  0  0  0  0  0  0  0  0  0  0  0
    4.3832    2.3815   -2.0289 C   0  0  0  0  0  0  0  0  0  0  0  0
    3.6572    1.6004    0.1607 C   0  0  0  0  0  0  0  0  0  0  0  0
    2.5159    0.6310   -0.1720 C   0  0  0  0  0  0  0  0  0  0  0  0
    2.4090   -0.4815    0.8752 C   0  0  0  0  0  0  0  0  0  0  0  0
    1.3144   -1.3887    0.5313 N   0  0  0  0  0  0  0  0  0  0  0  0
    0.0248   -1.2427    0.9140 C   0  0  0  0  0  0  0  0  0  0  0  0
   -0.7717   -2.2078    0.3059 C   0  0  0  0  0  0  0  0  0  0  0  0
    0.0811   -2.9585   -0.4831 C   0  0  0  0  0  0  0  0  0  0  0  0
    1.3403   -2.4285   -0.3293 C   0  0  0  0  0  0  0  0  0  0  0  0
    2.4326   -2.9257   -1.0470 C   0  0  0  0  0  0  0  0  0  0  0  0
    2.2093   -3.9946   -1.9325 C   0  0  0  0  0  0  0  0  0  0  0  0
    0.9140   -4.5298   -2.0961 C   0  0  0  0  0  0  0  0  0  0  0  0
   -0.1709   -4.0039   -1.3733 C   0  0  0  0  0  0  0  0  0  0  0  0
   -2.2334   -2.3483    0.4440 C   0  0  0  0  0  0  0  0  0  0  0  0
   -3.1300   -1.3537    0.4699 C   0  0  0  0  0  0  0  0  0  0  0  0
   -4.4493   -1.9549    0.6857 C   0  0  0  0  0  0  0  0  0  0  0  0
   -5.5450   -1.3347    0.6958 O   0  0  0  0  0  0  0  0  0  0  0  0
   -4.3462   -3.3633    0.8226 N   0  0  0  0  0  0  0  0  0  0  0  0
   -2.9555   -3.6021    0.6754 C   0  0  0  0  0  0  0  0  0  0  0  0
   -2.4305   -4.7412    0.7848 O   0  0  0  0  0  0  0  0  0  0  0  0
   -2.8633    0.0765    0.2201 C   0  0  0  0  0  0  0  0  0  0  0  0
   -2.0309    0.6054   -0.7641 C   0  0  0  0  0  0  0  0  0  0  0  0
   -2.0309    1.9560   -0.7083 N   0  0  0  0  0  0  0  0  0  0  0  0
   -2.8534    2.2861    0.3020 C   0  0  0  0  0  0  0  0  0  0  0  0
   -3.3824    1.1663    0.8941 C   0  0  0  0  0  0  0  0  0  0  0  0
   -4.2284    1.2549    2.0011 C   0  0  0  0  0  0  0  0  0  0  0  0
   -4.5524    2.5372    2.4802 C   0  0  0  0  0  0  0  0  0  0  0  0
   -4.0210    3.6888    1.8594 C   0  0  0  0  0  0  0  0  0  0  0  0
   -3.1550    3.5687    0.7577 C   0  0  0  0  0  0  0  0  0  0  0  0
    4.3359    4.7576   -0.8879 H   0  0  0  0  0  0  0  0  0  0  0  0
    3.7328    4.2427    0.7113 H   0  0  0  0  0  0  0  0  0  0  0  0
    5.3566    3.6720    0.1439 H   0  0  0  0  0  0  0  0  0  0  0  0
    3.8848    1.5321   -2.5390 H   0  0  0  0  0  0  0  0  0  0  0  0
    4.3619    3.2360   -2.7393 H   0  0  0  0  0  0  0  0  0  0  0  0
    5.4434    2.1112   -1.8247 H   0  0  0  0  0  0  0  0  0  0  0  0
    3.4865    1.9672    1.1989 H   0  0  0  0  0  0  0  0  0  0  0  0
    4.6318    1.0603    0.1599 H   0  0  0  0  0  0  0  0  0  0  0  0
    1.5564    1.1928   -0.2071 H   0  0  0  0  0  0  0  0  0  0  0  0
    2.6863    0.1681   -1.1663 H   0  0  0  0  0  0  0  0  0  0  0  0
    3.3643   -1.0458    0.9356 H   0  0  0  0  0  0  0  0  0  0  0  0
    2.2196   -0.0370    1.8772 H   0  0  0  0  0  0  0  0  0  0  0  0
   -0.3252   -0.4654    1.5819 H   0  0  0  0  0  0  0  0  0  0  0  0
    3.4222   -2.5027   -0.9390 H   0  0  0  0  0  0  0  0  0  0  0  0
    3.0349   -4.4019   -2.5015 H   0  0  0  0  0  0  0  0  0  0  0  0
    0.7522   -5.3425   -2.7922 H   0  0  0  0  0  0  0  0  0  0  0  0
   -1.1696   -4.3907   -1.5236 H   0  0  0  0  0  0  0  0  0  0  0  0
   -5.1092   -4.0565    0.9872 H   0  0  0  0  0  0  0  0  0  0  0  0
   -1.4615    0.0334   -1.4854 H   0  0  0  0  0  0  0  0  0  0  0  0
   -1.4932    2.6066   -1.3231 H   0  0  0  0  0  0  0  0  0  0  0  0
   -4.6140    0.3712    2.4910 H   0  0  0  0  0  0  0  0  0  0  0  0
   -5.2076    2.6413    3.3352 H   0  0  0  0  0  0  0  0  0  0  0  0
   -4.2745    4.6700    2.2391 H   0  0  0  0  0  0  0  0  0  0  0  0
   -2.7320    4.4450    0.2838 H   0  0  0  0  0  0  0  0  0  0  0  0
  1  2  1  0
  2  3  1  0
  2  4  1  0
  4  5  1  0
  5  6  1  0
  6  7  1  0
  7  8  1  0
  8  9  2  0
  9 10  1  0
 10 11  2  0
 11 12  1  0
 12 13  2  0
 13 14  1  0
 14 15  2  0
  9 16  1  0
 16 17  2  0
 17 18  1  0
 18 19  2  0
 18 20  1  0
 20 21  1  0
 21 22  2  0
 17 23  1  0
 23 24  2  0
 24 25  1  0
 25 26  1  0
 26 27  2  0
 27 28  1  0
 28 29  2  0
 29 30  1  0
 30 31  2  0
 11  7  1  0
 21 16  1  0
 27 23  1  0
 15 10  1  0
 31 26  1  0
  1 32  1  0
  1 33  1  0
  1 34  1  0
  3 35  1  0
  3 36  1  0
  3 37  1  0
  4 38  1  0
  4 39  1  0
  5 40  1  0
  5 41  1  0
  6 42  1  0
  6 43  1  0
  8 44  1  0
 12 45  1  0
 13 46  1  0
 14 47  1  0
 15 48  1  0
 20 49  1  0
 24 50  1  0
 25 51  1  0
 28 52  1  0
 29 53  1  0
 30 54  1  0
 31 55  1  0
M  END
$$$$
