
     RDKit          3D

 42 44  0  0  0  0  0  0  0  0999 V2000
    0.6567    1.2087    2.3615 C   0  0  1  0  0  0  0  0  0  0  0  0
    1.0136    2.1908    1.2394 C   0  0  0  0  0  0  0  0  0  0  0  0
    0.9867    1.5291   -0.0218 O   0  0  0  0  0  0  0  0  0  0  0  0
    1.3031    2.1710   -1.2210 C   0  0  0  0  0  0  0  0  0  0  0  0
    1.6024    3.3961   -1.2369 O   0  0  0  0  0  0  0  0  0  0  0  0
    1.3361    1.3804   -2.4861 C   0  0  0  0  0  0  0  0  0  0  0  0
    2.9010    0.4627   -2.5963 P   0  0  0  0  0  5  0  0  0  0  0  0
    4.2008    1.5460   -2.5638 O   0  0  0  0  0  0  0  0  0  0  0  0
    3.0306   -0.6022   -1.2874 O   0  0  0  0  0  0  0  0  0  0  0  0
    2.9332   -0.3224   -3.8880 O   0  0  0  0  0  0  0  0  0  0  0  0
   -0.6728    0.7586    2.1849 O   0  0  0  0  0  0  0  0  0  0  0  0
   -0.6584   -0.6511    2.2286 C   0  0  1  0  0  0  0  0  0  0  0  0
   -1.6472   -1.2068    1.3015 N   0  0  0  0  0  0  0  0  0  0  0  0
   -2.2451   -2.4237    1.3838 C   0  0  0  0  0  0  0  0  0  0  0  0
   -3.0481   -2.7061    0.3208 N   0  0  0  0  0  0  0  0  0  0  0  0
   -2.9211   -1.6077   -0.4470 C   0  0  0  0  0  0  0  0  0  0  0  0
   -3.4977   -1.3189   -1.6788 C   0  0  0  0  0  0  0  0  0  0  0  0
   -4.3846   -2.2308   -2.3268 N   0  0  0  0  0  0  0  0  0  0  0  0
   -3.1841   -0.1222   -2.2598 N   0  0  0  0  0  0  0  0  0  0  0  0
   -2.3304    0.7641   -1.6534 C   0  0  0  0  0  0  0  0  0  0  0  0
   -1.7671    0.4672   -0.4438 N   0  0  0  0  0  0  0  0  0  0  0  0
   -2.0817   -0.7186    0.1311 C   0  0  0  0  0  0  0  0  0  0  0  0
    0.7395   -1.1286    1.8758 C   0  0  2  0  0  0  0  0  0  0  0  0
    1.0257   -2.3564    2.4934 O   0  0  0  0  0  0  0  0  0  0  0  0
    1.6071   -0.0016    2.3915 C   0  0  2  0  0  0  0  0  0  0  0  0
    2.0805   -0.2484    3.6963 O   0  0  0  0  0  0  0  0  0  0  0  0
    0.7146    1.7648    3.3235 H   0  0  0  0  0  0  0  0  0  0  0  0
    0.2822    3.0282    1.2361 H   0  0  0  0  0  0  0  0  0  0  0  0
    2.0285    2.6077    1.4215 H   0  0  0  0  0  0  0  0  0  0  0  0
    0.4924    0.6599   -2.4982 H   0  0  0  0  0  0  0  0  0  0  0  0
    1.2414    2.0539   -3.3642 H   0  0  0  0  0  0  0  0  0  0  0  0
    4.0416    2.1568   -3.3272 H   0  0  0  0  0  0  0  0  0  0  0  0
    2.2463   -1.2015   -1.3697 H   0  0  0  0  0  0  0  0  0  0  0  0
   -0.9176   -0.9662    3.2653 H   0  0  0  0  0  0  0  0  0  0  0  0
   -2.0897   -3.1112    2.2053 H   0  0  0  0  0  0  0  0  0  0  0  0
   -4.8019   -1.9880   -3.2525 H   0  0  0  0  0  0  0  0  0  0  0  0
   -4.6280   -3.1472   -1.8892 H   0  0  0  0  0  0  0  0  0  0  0  0
   -2.0979    1.7028   -2.1372 H   0  0  0  0  0  0  0  0  0  0  0  0
    0.8441   -1.2116    0.7681 H   0  0  0  0  0  0  0  0  0  0  0  0
    1.8807   -2.6730    2.1009 H   0  0  0  0  0  0  0  0  0  0  0  0
    2.4876    0.1336    1.7247 H   0  0  0  0  0  0  0  0  0  0  0  0
    1.2967   -0.3677    4.2947 H   0  0  0  0  0  0  0  0  0  0  0  0
  1  2  1  0
  2  3  1  0
  3  4  1  0
  4  5  2  0
  4  6  1  0
  6  7  1  0
  7  8  1  0
  7  9  1  0
  7 10  2  0
  1 11  1  0
 11 12  1  0
 12 13  1  0
 13 14  1  0
 14 15  2  0
 15 16  1  0
 16 17  2  0
 17 18  1  0
 17 19  1  0
 19 20  2  0
 20 21  1  0
 21 22  2  0
 12 23  1  0
 23 24  1  0
 23 25  1  0
 25 26  1  0
 25  1  1  0
 22 13  1  0
 22 16  1  0
  1 27  1  1
  2 28  1  0
  2 29  1  0
  6 30  1  0
  6 31  1  0
  8 32  1  0
  9 33  1  0
 12 34  1  1
 14 35  1  0
 18 36  1  0
 18 37  1  0
 20 38  1  0
 23 39  1  6
 24 40  1  0
 25 41  1  6
 26 42  1  0
M  END
$$$$
