
     RDKit          3D

 67 71  0  0  0  0  0  0  0  0999 V2000
   -8.0888   -1.4171   -3.4151 F   0  0  0  0  0  0  0  0  0  0  0  0
   -7.0306   -1.3351   -2.5708 C   0  0  0  0  0  0  0  0  0  0  0  0
   -6.4760   -0.0875   -2.2621 C   0  0  0  0  0  0  0  0  0  0  0  0
   -7.0109    1.0230   -2.8314 F   0  0  0  0  0  0  0  0  0  0  0  0
   -5.3769    0.0078   -1.3797 C   0  0  0  0  0  0  0  0  0  0  0  0
   -4.8407   -1.1803   -0.8415 C   0  0  0  0  0  0  0  0  0  0  0  0
   -5.4004   -2.4212   -1.1557 C   0  0  0  0  0  0  0  0  0  0  0  0
   -6.4951   -2.4987   -2.0166 C   0  0  0  0  0  0  0  0  0  0  0  0
   -4.7563    1.3645   -1.0668 C   0  0  2  0  0  0  0  0  0  0  0  0
   -3.4556    1.6011   -1.8768 C   0  0  0  0  0  0  0  0  0  0  0  0
   -2.1876    0.8656   -1.3940 C   0  0  0  0  0  0  0  0  0  0  0  0
   -1.7874    1.0960    0.0835 C   0  0  1  0  0  0  0  0  0  0  0  0
   -0.3304    0.9711    0.2179 N   0  0  0  0  0  0  0  0  0  0  0  0
    0.3091   -0.2387    0.6547 C   0  0  0  0  0  0  0  0  0  0  0  0
   -0.3591   -1.1245    1.2552 O   0  0  0  0  0  0  0  0  0  0  0  0
    1.7176   -0.4348    0.4367 N   0  0  0  0  0  0  0  0  0  0  0  0
    2.2864   -0.2021   -0.8950 C   0  0  0  0  0  0  0  0  0  0  0  0
    3.7493    0.2787   -0.8221 C   0  0  0  0  0  0  0  0  0  0  0  0
    4.6159   -0.3367    0.3096 C   0  0  0  0  0  0  0  0  0  0  0  0
    3.8447   -0.5821    1.6181 C   0  0  0  0  0  0  0  0  0  0  0  0
    2.4920   -1.2417    1.3809 C   0  0  0  0  0  0  0  0  0  0  0  0
    5.3830   -1.5330   -0.0984 N   0  0  0  0  0  0  0  0  0  0  0  0
    4.9972   -2.6355   -0.8072 C   0  0  0  0  0  0  0  0  0  0  0  0
    3.8555   -2.7859   -1.3091 O   0  0  0  0  0  0  0  0  0  0  0  0
    5.9600   -3.5828   -0.9110 N   0  0  0  0  0  0  0  0  0  0  0  0
    6.9821   -3.0637   -0.2210 C   0  0  0  0  0  0  0  0  0  0  0  0
    6.6458   -1.8417    0.2795 C   0  0  0  0  0  0  0  0  0  0  0  0
    7.5410   -1.1322    1.0835 C   0  0  0  0  0  0  0  0  0  0  0  0
    8.7939   -1.7214    1.3317 C   0  0  0  0  0  0  0  0  0  0  0  0
    9.0980   -2.9882    0.7830 C   0  0  0  0  0  0  0  0  0  0  0  0
    8.1812   -3.6505    0.0153 N   0  0  0  0  0  0  0  0  0  0  0  0
   -2.2671    2.4326    0.6131 C   0  0  0  0  0  0  0  0  0  0  0  0
   -1.4296    3.3366    0.8856 O   0  0  0  0  0  0  0  0  0  0  0  0
   -3.6818    2.6909    0.7665 N   0  0  0  0  0  0  0  0  0  0  0  0
   -4.1541    3.9941    1.2569 C   0  0  0  0  0  0  0  0  0  0  0  0
   -4.1767    4.0302    2.7858 C   0  0  0  0  0  0  0  0  0  0  0  0
   -5.0082    3.0377    3.2724 F   0  0  0  0  0  0  0  0  0  0  0  0
   -4.6503    5.2585    3.2087 F   0  0  0  0  0  0  0  0  0  0  0  0
   -2.9031    3.8440    3.2914 F   0  0  0  0  0  0  0  0  0  0  0  0
   -4.6601    1.6358    0.4571 C   0  0  0  0  0  0  0  0  0  0  0  0
   -3.9880   -1.1573   -0.1788 H   0  0  0  0  0  0  0  0  0  0  0  0
   -4.9818   -3.3252   -0.7325 H   0  0  0  0  0  0  0  0  0  0  0  0
   -6.9249   -3.4624   -2.2582 H   0  0  0  0  0  0  0  0  0  0  0  0
   -5.4512    2.1508   -1.4365 H   0  0  0  0  0  0  0  0  0  0  0  0
   -3.2417    2.6928   -1.9020 H   0  0  0  0  0  0  0  0  0  0  0  0
   -3.6390    1.3139   -2.9358 H   0  0  0  0  0  0  0  0  0  0  0  0
   -1.3556    1.2068   -2.0491 H   0  0  0  0  0  0  0  0  0  0  0  0
   -2.2923   -0.2239   -1.5803 H   0  0  0  0  0  0  0  0  0  0  0  0
   -2.2668    0.3109    0.7009 H   0  0  0  0  0  0  0  0  0  0  0  0
    0.2695    1.7428   -0.1516 H   0  0  0  0  0  0  0  0  0  0  0  0
    1.7014    0.5617   -1.4487 H   0  0  0  0  0  0  0  0  0  0  0  0
    2.1961   -1.1262   -1.4947 H   0  0  0  0  0  0  0  0  0  0  0  0
    4.2416    0.1181   -1.8055 H   0  0  0  0  0  0  0  0  0  0  0  0
    3.7180    1.3799   -0.6625 H   0  0  0  0  0  0  0  0  0  0  0  0
    5.3579    0.4570    0.5444 H   0  0  0  0  0  0  0  0  0  0  0  0
    3.6726    0.3942    2.1234 H   0  0  0  0  0  0  0  0  0  0  0  0
    4.4506   -1.2102    2.3070 H   0  0  0  0  0  0  0  0  0  0  0  0
    1.9672   -1.3151    2.3588 H   0  0  0  0  0  0  0  0  0  0  0  0
    2.6219   -2.2703    0.9833 H   0  0  0  0  0  0  0  0  0  0  0  0
    5.9079   -4.5100   -1.3888 H   0  0  0  0  0  0  0  0  0  0  0  0
    7.2953   -0.1712    1.5130 H   0  0  0  0  0  0  0  0  0  0  0  0
    9.5217   -1.2082    1.9465 H   0  0  0  0  0  0  0  0  0  0  0  0
   10.0603   -3.4422    0.9780 H   0  0  0  0  0  0  0  0  0  0  0  0
   -5.1782    4.1982    0.8746 H   0  0  0  0  0  0  0  0  0  0  0  0
   -3.5066    4.8099    0.8686 H   0  0  0  0  0  0  0  0  0  0  0  0
   -4.4112    0.7262    1.0374 H   0  0  0  0  0  0  0  0  0  0  0  0
   -5.6707    1.9261    0.8213 H   0  0  0  0  0  0  0  0  0  0  0  0
  1  2  1  0
  2  3  2  0
  3  4  1  0
  3  5  1  0
  5  6  2  0
  6  7  1  0
  7  8  2  0
  5  9  1  0
  9 10  1  0
 10 11  1  0
 11 12  1  0
 12 13  1  0
 13 14  1  0
 14 15  2  0
 14 16  1  0
 16 17  1  0
 17 18  1  0
 18 19  1  0
 19 20  1  0
 20 21  1  0
 19 22  1  0
 22 23  1  0
 23 24  2  0
 23 25  1  0
 25 26  1  0
 26 27  2  0
 27 28  1  0
 28 29  2  0
 29 30  1  0
 30 31  2  0
 12 32  1  0
 32 33  2  0
 32 34  1  0
 34 35  1  0
 35 36  1  0
 36 37  1  0
 36 38  1  0
 36 39  1  0
 34 40  1  0
  8  2  1  0
 40  9  1  0
 21 16  1  0
 27 22  1  0
 31 26  1  0
  6 41  1  0
  7 42  1  0
  8 43  1  0
  9 44  1  6
 10 45  1  0
 10 46  1  0
 11 47  1  0
 11 48  1  0
 12 49  1  1
 13 50  1  0
 17 51  1  0
 17 52  1  0
 18 53  1  0
 18 54  1  0
 19 55  1  0
 20 56  1  0
 20 57  1  0
 21 58  1  0
 21 59  1  0
 25 60  1  0
 28 61  1  0
 29 62  1  0
 30 63  1  0
 35 64  1  0
 35 65  1  0
 40 66  1  0
 40 67  1  0
M  END
$$$$
