
     RDKit          3D

 42 44  0  0  0  0  0  0  0  0999 V2000
   -3.9178    3.6571   -0.1101 C   0  0  0  0  0  0  0  0  0  0  0  0
   -3.8448    2.2409    0.0148 O   0  0  0  0  0  0  0  0  0  0  0  0
   -2.6663    1.4879   -0.1187 C   0  0  0  0  0  0  0  0  0  0  0  0
   -1.4216    2.0955   -0.3701 C   0  0  0  0  0  0  0  0  0  0  0  0
   -0.2623    1.3233   -0.4681 C   0  0  0  0  0  0  0  0  0  0  0  0
   -0.3201   -0.0698   -0.3051 C   0  0  0  0  0  0  0  0  0  0  0  0
    0.8560   -0.8887   -0.4253 N   0  0  0  0  0  0  0  0  0  0  0  0
    2.1667   -0.4821   -0.0029 C   0  0  0  0  0  0  0  0  0  0  0  0
    2.3102    0.5331    0.7318 O   0  0  0  0  0  0  0  0  0  0  0  0
    3.3036   -1.2853   -0.3548 N   0  0  0  0  0  0  0  0  0  0  0  0
    4.6688   -0.8770   -0.1575 C   0  0  0  0  0  0  0  0  0  0  0  0
    5.0603    0.4646   -0.3267 C   0  0  0  0  0  0  0  0  0  0  0  0
    6.3969    0.8374   -0.1548 C   0  0  0  0  0  0  0  0  0  0  0  0
    7.3560   -0.1235    0.1744 C   0  0  0  0  0  0  0  0  0  0  0  0
    8.6517    0.2401    0.3390 F   0  0  0  0  0  0  0  0  0  0  0  0
    6.9809   -1.4611    0.3241 C   0  0  0  0  0  0  0  0  0  0  0  0
    5.6453   -1.8401    0.1523 C   0  0  0  0  0  0  0  0  0  0  0  0
    5.2999   -3.1435    0.3041 F   0  0  0  0  0  0  0  0  0  0  0  0
   -1.5617   -0.6798   -0.0841 C   0  0  0  0  0  0  0  0  0  0  0  0
   -2.7323    0.0875    0.0142 C   0  0  0  0  0  0  0  0  0  0  0  0
   -4.0247   -0.5879    0.2536 C   0  0  0  0  0  0  0  0  0  0  0  0
   -5.1369   -0.5422   -0.5646 C   0  0  0  0  0  0  0  0  0  0  0  0
   -5.3378    0.3445   -2.2452 Br  0  0  0  0  0  0  0  0  0  0  0  0
   -6.0663   -1.3553    0.0521 C   0  0  0  0  0  0  0  0  0  0  0  0
   -5.5386   -1.8604    1.1851 N   0  0  0  0  0  0  0  0  0  0  0  0
   -4.3075   -1.3870    1.3049 N   0  0  0  0  0  0  0  0  0  0  0  0
   -3.4191   -1.7378    2.4079 C   0  0  0  0  0  0  0  0  0  0  0  0
   -4.9687    3.9797    0.0375 H   0  0  0  0  0  0  0  0  0  0  0  0
   -3.2851    4.1419    0.6631 H   0  0  0  0  0  0  0  0  0  0  0  0
   -3.5899    3.9680   -1.1245 H   0  0  0  0  0  0  0  0  0  0  0  0
   -1.3386    3.1665   -0.4938 H   0  0  0  0  0  0  0  0  0  0  0  0
    0.6738    1.8157   -0.6951 H   0  0  0  0  0  0  0  0  0  0  0  0
    0.7393   -1.8687   -0.7691 H   0  0  0  0  0  0  0  0  0  0  0  0
    3.1233   -2.2501   -0.7131 H   0  0  0  0  0  0  0  0  0  0  0  0
    4.3413    1.2194   -0.6159 H   0  0  0  0  0  0  0  0  0  0  0  0
    6.6895    1.8713   -0.2859 H   0  0  0  0  0  0  0  0  0  0  0  0
    7.7261   -2.2060    0.5724 H   0  0  0  0  0  0  0  0  0  0  0  0
   -1.6153   -1.7581    0.0067 H   0  0  0  0  0  0  0  0  0  0  0  0
   -7.0602   -1.5800   -0.3106 H   0  0  0  0  0  0  0  0  0  0  0  0
   -4.0146   -2.0710    3.2841 H   0  0  0  0  0  0  0  0  0  0  0  0
   -2.8140   -0.8566    2.7092 H   0  0  0  0  0  0  0  0  0  0  0  0
   -2.7451   -2.5627    2.0967 H   0  0  0  0  0  0  0  0  0  0  0  0
  1  2  1  0
  2  3  1  0
  3  4  2  0
  4  5  1  0
  5  6  2  0
  6  7  1  0
  7  8  1  0
  8  9  2  0
  8 10  1  0
 10 11  1  0
 11 12  2  0
 12 13  1  0
 13 14  2  0
 14 15  1  0
 14 16  1  0
 16 17  2  0
 17 18  1  0
  6 19  1  0
 19 20  2  0
 20 21  1  0
 21 22  2  0
 22 23  1  0
 22 24  1  0
 24 25  2  0
 25 26  1  0
 26 27  1  0
 20  3  1  0
 26 21  1  0
 17 11  1  0
  1 28  1  0
  1 29  1  0
  1 30  1  0
  4 31  1  0
  5 32  1  0
  7 33  1  0
 10 34  1  0
 12 35  1  0
 13 36  1  0
 16 37  1  0
 19 38  1  0
 24 39  1  0
 27 40  1  0
 27 41  1  0
 27 42  1  0
M  END
$$$$
