
     RDKit          3D

 50 54  0  0  0  0  0  0  0  0999 V2000
   -8.6998    2.0264   -2.0399 F   0  0  0  0  0  0  0  0  0  0  0  0
   -7.7384    1.3511   -1.3632 C   0  0  0  0  0  0  0  0  0  0  0  0
   -6.7194    2.0517   -0.7113 C   0  0  0  0  0  0  0  0  0  0  0  0
   -5.7273    1.3571   -0.0124 C   0  0  0  0  0  0  0  0  0  0  0  0
   -5.7456   -0.0478    0.0360 C   0  0  0  0  0  0  0  0  0  0  0  0
   -6.7774   -0.7438   -0.6169 C   0  0  0  0  0  0  0  0  0  0  0  0
   -7.7676   -0.0457   -1.3150 C   0  0  0  0  0  0  0  0  0  0  0  0
   -4.7296   -0.7676    0.7632 N   0  0  0  0  0  0  0  0  0  0  0  0
   -5.1170   -1.5993    1.7765 C   0  0  0  0  0  0  0  0  0  0  0  0
   -4.1722   -2.2981    2.5232 C   0  0  0  0  0  0  0  0  0  0  0  0
   -2.8213   -2.1564    2.2252 C   0  0  0  0  0  0  0  0  0  0  0  0
   -2.4129   -1.3261    1.1724 C   0  0  0  0  0  0  0  0  0  0  0  0
   -0.9668   -1.2023    0.8627 C   0  0  0  0  0  0  0  0  0  0  0  0
   -0.1220   -1.3452    1.7888 O   0  0  0  0  0  0  0  0  0  0  0  0
   -0.5181   -0.9928   -0.4864 N   0  0  0  0  0  0  0  0  0  0  0  0
    0.7836   -0.4850   -0.8265 C   0  0  0  0  0  0  0  0  0  0  0  0
    1.3722   -0.8573   -2.0435 C   0  0  0  0  0  0  0  0  0  0  0  0
    2.6285   -0.3628   -2.4037 C   0  0  0  0  0  0  0  0  0  0  0  0
    3.3169    0.5109   -1.5559 C   0  0  0  0  0  0  0  0  0  0  0  0
    4.5773    0.9775   -1.9549 O   0  0  0  0  0  0  0  0  0  0  0  0
    5.6422    1.2594   -1.0884 C   0  0  0  0  0  0  0  0  0  0  0  0
    6.4692    2.3691   -1.3401 C   0  0  0  0  0  0  0  0  0  0  0  0
    7.5472    2.6586   -0.4748 C   0  0  0  0  0  0  0  0  0  0  0  0
    7.8098    1.8573    0.6001 N   0  0  0  0  0  0  0  0  0  0  0  0
    7.0187    0.7799    0.8283 C   0  0  0  0  0  0  0  0  0  0  0  0
    5.9629    0.4623    0.0191 C   0  0  0  0  0  0  0  0  0  0  0  0
    5.4311   -0.7165    0.5063 C   0  0  0  0  0  0  0  0  0  0  0  0
    6.2063   -1.0396    1.6169 C   0  0  0  0  0  0  0  0  0  0  0  0
    7.1785   -0.1195    1.8099 N   0  0  0  0  0  0  0  0  0  0  0  0
    2.7107    0.9258   -0.3542 C   0  0  0  0  0  0  0  0  0  0  0  0
    3.3111    1.8403    0.4480 F   0  0  0  0  0  0  0  0  0  0  0  0
    1.4539    0.4292    0.0055 C   0  0  0  0  0  0  0  0  0  0  0  0
   -3.3997   -0.6181    0.4496 C   0  0  0  0  0  0  0  0  0  0  0  0
   -3.0564    0.1613   -0.4829 O   0  0  0  0  0  0  0  0  0  0  0  0
   -6.6989    3.1334   -0.7443 H   0  0  0  0  0  0  0  0  0  0  0  0
   -4.9498    1.9106    0.4988 H   0  0  0  0  0  0  0  0  0  0  0  0
   -6.8071   -1.8258   -0.5897 H   0  0  0  0  0  0  0  0  0  0  0  0
   -8.5570   -0.5886   -1.8186 H   0  0  0  0  0  0  0  0  0  0  0  0
   -6.1659   -1.7133    2.0256 H   0  0  0  0  0  0  0  0  0  0  0  0
   -4.4871   -2.9472    3.3302 H   0  0  0  0  0  0  0  0  0  0  0  0
   -2.0949   -2.7106    2.8070 H   0  0  0  0  0  0  0  0  0  0  0  0
   -1.1319   -1.3305   -1.2622 H   0  0  0  0  0  0  0  0  0  0  0  0
    0.8603   -1.5404   -2.7097 H   0  0  0  0  0  0  0  0  0  0  0  0
    3.0751   -0.6695   -3.3410 H   0  0  0  0  0  0  0  0  0  0  0  0
    6.2741    3.0095   -2.1907 H   0  0  0  0  0  0  0  0  0  0  0  0
    8.1747    3.5187   -0.6664 H   0  0  0  0  0  0  0  0  0  0  0  0
    4.6043   -1.2883    0.1079 H   0  0  0  0  0  0  0  0  0  0  0  0
    6.0711   -1.9133    2.2407 H   0  0  0  0  0  0  0  0  0  0  0  0
    7.9105   -0.1222    2.5544 H   0  0  0  0  0  0  0  0  0  0  0  0
    0.9940    0.7836    0.9185 H   0  0  0  0  0  0  0  0  0  0  0  0
  1  2  1  0
  2  3  2  0
  3  4  1  0
  4  5  2  0
  5  6  1  0
  6  7  2  0
  5  8  1  0
  8  9  1  0
  9 10  2  0
 10 11  1  0
 11 12  2  0
 12 13  1  0
 13 14  2  0
 13 15  1  0
 15 16  1  0
 16 17  2  0
 17 18  1  0
 18 19  2  0
 19 20  1  0
 20 21  1  0
 21 22  2  0
 22 23  1  0
 23 24  2  0
 24 25  1  0
 25 26  2  0
 26 27  1  0
 27 28  2  0
 28 29  1  0
 19 30  1  0
 30 31  1  0
 30 32  2  0
 12 33  1  0
 33 34  2  0
  7  2  1  0
 33  8  1  0
 32 16  1  0
 26 21  1  0
 29 25  1  0
  3 35  1  0
  4 36  1  0
  6 37  1  0
  7 38  1  0
  9 39  1  0
 10 40  1  0
 11 41  1  0
 15 42  1  0
 17 43  1  0
 18 44  1  0
 22 45  1  0
 23 46  1  0
 27 47  1  0
 28 48  1  0
 29 49  1  0
 32 50  1  0
M  END
$$$$
