
     RDKit          3D

 30 29  0  0  0  0  0  0  0  0999 V2000
    5.7618    0.5158   -0.9111 O   0  0  0  0  0  0  0  0  0  0  0  0
    4.5669    1.2153   -1.0472 C   0  0  0  0  0  0  0  0  0  0  0  0
    4.4067    2.0070   -2.0144 O   0  0  0  0  0  0  0  0  0  0  0  0
    3.4565    0.9900   -0.0706 C   0  0  0  0  0  0  0  0  0  0  0  0
    2.5755   -0.1773   -0.5215 C   0  0  0  0  0  0  0  0  0  0  0  0
    1.4528   -0.4049    0.4558 C   0  0  0  0  0  0  0  0  0  0  0  0
    1.7064   -0.8373    1.5707 O   0  0  0  0  0  0  0  0  0  0  0  0
    0.0236   -0.1085    0.0857 C   0  0  0  0  0  0  0  0  0  0  0  0
   -0.7869   -1.4032   -0.0272 C   0  0  0  0  0  0  0  0  0  0  0  0
   -2.2080   -1.1147   -0.4364 C   0  0  0  0  0  0  0  0  0  0  0  0
   -2.4321   -0.6826   -1.5577 O   0  0  0  0  0  0  0  0  0  0  0  0
   -3.3624   -1.3850    0.4972 C   0  0  0  0  0  0  0  0  0  0  0  0
   -4.1559   -0.1115    0.8145 C   0  0  0  0  0  0  0  0  0  0  0  0
   -3.3291    0.8825    1.5708 C   0  0  0  0  0  0  0  0  0  0  0  0
   -2.8140    1.9968    0.9161 O   0  0  0  0  0  0  0  0  0  0  0  0
   -3.0788    0.6974    2.7919 O   0  0  0  0  0  0  0  0  0  0  0  0
    6.5175    0.6448   -1.5732 H   0  0  0  0  0  0  0  0  0  0  0  0
    2.8433    1.9143    0.0127 H   0  0  0  0  0  0  0  0  0  0  0  0
    3.8932    0.7717    0.9282 H   0  0  0  0  0  0  0  0  0  0  0  0
    2.1680    0.0374   -1.5336 H   0  0  0  0  0  0  0  0  0  0  0  0
    3.1835   -1.1057   -0.5924 H   0  0  0  0  0  0  0  0  0  0  0  0
   -0.0173    0.4424   -0.8791 H   0  0  0  0  0  0  0  0  0  0  0  0
   -0.4183    0.5459    0.8674 H   0  0  0  0  0  0  0  0  0  0  0  0
   -0.3247   -2.0701   -0.7875 H   0  0  0  0  0  0  0  0  0  0  0  0
   -0.7656   -1.9361    0.9480 H   0  0  0  0  0  0  0  0  0  0  0  0
   -3.0083   -1.8433    1.4459 H   0  0  0  0  0  0  0  0  0  0  0  0
   -4.0419   -2.1183    0.0122 H   0  0  0  0  0  0  0  0  0  0  0  0
   -4.5294    0.3488   -0.1259 H   0  0  0  0  0  0  0  0  0  0  0  0
   -5.0423   -0.3817    1.4280 H   0  0  0  0  0  0  0  0  0  0  0  0
   -2.2403    2.6701    1.4097 H   0  0  0  0  0  0  0  0  0  0  0  0
  1  2  1  0
  2  3  2  0
  2  4  1  0
  4  5  1  0
  5  6  1  0
  6  7  2  0
  6  8  1  0
  8  9  1  0
  9 10  1  0
 10 11  2  0
 10 12  1  0
 12 13  1  0
 13 14  1  0
 14 15  1  0
 14 16  2  0
  1 17  1  0
  4 18  1  0
  4 19  1  0
  5 20  1  0
  5 21  1  0
  8 22  1  0
  8 23  1  0
  9 24  1  0
  9 25  1  0
 12 26  1  0
 12 27  1  0
 13 28  1  0
 13 29  1  0
 15 30  1  0
M  END
$$$$
