
     RDKit          3D

 55 54  0  0  0  0  0  0  0  0999 V2000
   -3.4479   -4.6257    0.3978 C   0  0  0  0  0  0  0  0  0  0  0  0
   -2.4970   -3.5179    0.8688 C   0  0  0  0  0  0  0  0  0  0  0  0
   -1.3237   -4.1331    1.6463 C   0  0  0  0  0  0  0  0  0  0  0  0
   -2.0162   -2.6852   -0.3445 C   0  0  0  0  0  0  0  0  0  0  0  0
   -1.1635   -1.4533    0.0338 C   0  0  2  0  0  0  0  0  0  0  0  0
   -1.7930   -0.6155    1.0657 N   0  0  0  0  0  0  0  0  0  0  0  0
   -3.1027   -0.0226    0.9731 C   0  0  0  0  0  0  0  0  0  0  0  0
   -3.8459   -0.2604   -0.0164 O   0  0  0  0  0  0  0  0  0  0  0  0
   -3.5886    0.9292    2.0341 C   0  0  1  0  0  0  0  0  0  0  0  0
   -3.1619    0.4960    3.3004 O   0  0  0  0  0  0  0  0  0  0  0  0
   -3.1107    2.3662    1.7534 C   0  0  0  0  0  0  0  0  0  0  0  0
   -1.6198    2.5048    1.8370 C   0  0  0  0  0  0  0  0  0  0  0  0
   -0.8503    2.4290    0.6804 O   0  0  0  0  0  0  0  0  0  0  0  0
   -1.0613    2.6607    2.9557 O   0  0  0  0  0  0  0  0  0  0  0  0
   -0.8144   -0.6391   -1.1874 C   0  0  0  0  0  0  0  0  0  0  0  0
   -1.6579    0.1584   -1.6796 O   0  0  0  0  0  0  0  0  0  0  0  0
    0.4630   -0.8084   -1.8193 N   0  0  0  0  0  0  0  0  0  0  0  0
    0.9095    0.0323   -2.9292 C   0  0  0  0  0  0  0  0  0  0  0  0
    1.2297    1.4601   -2.4587 C   0  0  0  0  0  0  0  0  0  0  0  0
    2.2632    1.5227   -1.3210 C   0  0  0  0  0  0  0  0  0  0  0  0
    3.6550    1.0444   -1.7571 C   0  0  0  0  0  0  0  0  0  0  0  0
    4.6368    1.2905   -0.7001 N   0  0  0  0  0  0  0  0  0  0  0  0
    5.1732    2.5827   -0.3554 C   0  0  0  0  0  0  0  0  0  0  0  0
    6.0377    2.6922    0.7791 N   0  0  0  0  0  0  0  0  0  0  0  0
    4.9013    3.6436   -1.0575 N   0  0  0  0  0  4  0  0  0  0  0  0
   -4.3219   -4.1843   -0.1271 H   0  0  0  0  0  0  0  0  0  0  0  0
   -3.8283   -5.2028    1.2677 H   0  0  0  0  0  0  0  0  0  0  0  0
   -2.9268   -5.3216   -0.2946 H   0  0  0  0  0  0  0  0  0  0  0  0
   -3.0699   -2.8638    1.5614 H   0  0  0  0  0  0  0  0  0  0  0  0
   -1.7020   -4.7977    2.4522 H   0  0  0  0  0  0  0  0  0  0  0  0
   -0.7185   -3.3399    2.1319 H   0  0  0  0  0  0  0  0  0  0  0  0
   -0.6724   -4.7273    0.9700 H   0  0  0  0  0  0  0  0  0  0  0  0
   -2.8980   -2.3580   -0.9352 H   0  0  0  0  0  0  0  0  0  0  0  0
   -1.4152   -3.3378   -1.0167 H   0  0  0  0  0  0  0  0  0  0  0  0
   -0.2042   -1.8295    0.4509 H   0  0  0  0  0  0  0  0  0  0  0  0
   -1.2245   -0.4182    1.9201 H   0  0  0  0  0  0  0  0  0  0  0  0
   -4.7037    0.9263    2.0089 H   0  0  0  0  0  0  0  0  0  0  0  0
   -3.6982    0.9953    3.9705 H   0  0  0  0  0  0  0  0  0  0  0  0
   -3.5797    3.0570    2.4872 H   0  0  0  0  0  0  0  0  0  0  0  0
   -3.4520    2.6810    0.7431 H   0  0  0  0  0  0  0  0  0  0  0  0
    0.1585    2.5068    0.7228 H   0  0  0  0  0  0  0  0  0  0  0  0
    1.0959   -1.5738   -1.4944 H   0  0  0  0  0  0  0  0  0  0  0  0
    0.1201    0.0670   -3.7108 H   0  0  0  0  0  0  0  0  0  0  0  0
    1.8092   -0.4188   -3.3986 H   0  0  0  0  0  0  0  0  0  0  0  0
    1.5977    2.0520   -3.3247 H   0  0  0  0  0  0  0  0  0  0  0  0
    0.2926    1.9448   -2.1103 H   0  0  0  0  0  0  0  0  0  0  0  0
    1.9178    0.9182   -0.4545 H   0  0  0  0  0  0  0  0  0  0  0  0
    2.3250    2.5767   -0.9767 H   0  0  0  0  0  0  0  0  0  0  0  0
    3.9761    1.5337   -2.7010 H   0  0  0  0  0  0  0  0  0  0  0  0
    3.6148   -0.0487   -1.9514 H   0  0  0  0  0  0  0  0  0  0  0  0
    4.9838    0.4613   -0.1671 H   0  0  0  0  0  0  0  0  0  0  0  0
    6.2670    1.8507    1.3528 H   0  0  0  0  0  0  0  0  0  0  0  0
    6.4501    3.6113    1.0549 H   0  0  0  0  0  0  0  0  0  0  0  0
    4.2900    3.6173   -1.9013 H   0  0  0  0  0  0  0  0  0  0  0  0
    5.3024    4.5710   -0.7932 H   0  0  0  0  0  0  0  0  0  0  0  0
  1  2  1  0
  2  3  1  0
  2  4  1  0
  4  5  1  0
  5  6  1  0
  6  7  1  0
  7  8  2  0
  7  9  1  0
  9 10  1  0
  9 11  1  0
 11 12  1  0
 12 13  1  0
 12 14  2  0
  5 15  1  0
 15 16  2  0
 15 17  1  0
 17 18  1  0
 18 19  1  0
 19 20  1  0
 20 21  1  0
 21 22  1  0
 22 23  1  0
 23 24  1  0
 23 25  2  3
  1 26  1  0
  1 27  1  0
  1 28  1  0
  2 29  1  0
  3 30  1  0
  3 31  1  0
  3 32  1  0
  4 33  1  0
  4 34  1  0
  5 35  1  1
  6 36  1  0
  9 37  1  1
 10 38  1  0
 11 39  1  0
 11 40  1  0
 13 41  1  0
 17 42  1  0
 18 43  1  0
 18 44  1  0
 19 45  1  0
 19 46  1  0
 20 47  1  0
 20 48  1  0
 21 49  1  0
 21 50  1  0
 22 51  1  0
 24 52  1  0
 24 53  1  0
 25 54  1  0
 25 55  1  0
M  CHG  1  25   1
M  END
$$$$
