
     RDKit          3D

 67 71  0  0  0  0  0  0  0  0999 V2000
    5.3449    3.0735    1.3201 C   0  0  0  0  0  0  0  0  0  0  0  0
    4.9646    1.7057    0.9457 N   0  0  0  0  0  0  0  0  0  0  0  0
    6.0181    0.7534    0.5731 C   0  0  0  0  0  0  0  0  0  0  0  0
    3.5701    1.3020    0.9436 C   0  0  0  0  0  0  0  0  0  0  0  0
    2.6108    2.0100    1.6933 C   0  0  0  0  0  0  0  0  0  0  0  0
    1.2698    1.6199    1.6912 C   0  0  0  0  0  0  0  0  0  0  0  0
    0.8381    0.5190    0.9329 C   0  0  0  0  0  0  0  0  0  0  0  0
    1.7985   -0.1997    0.1935 C   0  0  0  0  0  0  0  0  0  0  0  0
    3.1401    0.1884    0.1959 C   0  0  0  0  0  0  0  0  0  0  0  0
   -0.6386    0.1192    0.9875 C   0  0  1  0  0  0  0  0  0  0  0  0
   -1.5467    1.2214    0.3566 C   0  0  0  0  0  0  0  0  0  0  0  0
   -1.8867    0.9803   -1.1309 C   0  0  1  0  0  0  0  0  0  0  0  0
   -0.5895    1.0814   -1.9956 C   0  0  0  0  0  0  0  0  0  0  0  0
   -2.5514   -0.3949   -1.2153 C   0  0  1  0  0  0  0  0  0  0  0  0
   -3.2090   -0.4255   -2.5934 C   0  0  0  0  0  0  0  0  0  0  0  0
   -3.5673    1.0374   -2.9030 C   0  0  0  0  0  0  0  0  0  0  0  0
   -3.0103    1.8983   -1.7350 C   0  0  1  0  0  0  0  0  0  0  0  0
   -4.0806    2.0640   -0.8247 O   0  0  0  0  0  0  0  0  0  0  0  0
   -2.5125    3.2690   -2.2294 C   0  0  0  0  0  0  0  0  0  0  0  0
   -2.6762    4.5191   -1.4105 C   0  0  0  0  0  0  0  0  0  0  0  0
   -1.9518    3.3638   -3.3122 O   0  0  0  0  0  0  0  0  0  0  0  0
   -1.6093   -1.5640   -0.8569 C   0  0  2  0  0  0  0  0  0  0  0  0
   -2.4141   -2.8760   -0.8238 C   0  0  0  0  0  0  0  0  0  0  0  0
   -1.4936   -4.0511   -0.5322 C   0  0  0  0  0  0  0  0  0  0  0  0
   -0.6700   -3.7974    0.7006 C   0  0  0  0  0  0  0  0  0  0  0  0
   -0.0796   -4.8456    1.2973 C   0  0  0  0  0  0  0  0  0  0  0  0
    0.8360   -4.6666    2.4308 C   0  0  0  0  0  0  0  0  0  0  0  0
    1.2956   -5.6733    3.0322 O   0  0  0  0  0  0  0  0  0  0  0  0
    1.2928   -3.2935    2.8090 C   0  0  0  0  0  0  0  0  0  0  0  0
    0.1756   -2.2707    2.5920 C   0  0  0  0  0  0  0  0  0  0  0  0
   -0.4480   -2.4014    1.2044 C   0  0  0  0  0  0  0  0  0  0  0  0
   -0.9127   -1.3238    0.4963 C   0  0  0  0  0  0  0  0  0  0  0  0
    6.4039    3.2882    1.0639 H   0  0  0  0  0  0  0  0  0  0  0  0
    4.7142    3.8046    0.7711 H   0  0  0  0  0  0  0  0  0  0  0  0
    5.2169    3.2147    2.4136 H   0  0  0  0  0  0  0  0  0  0  0  0
    7.0274    1.1387    0.8300 H   0  0  0  0  0  0  0  0  0  0  0  0
    5.9867    0.5648   -0.5204 H   0  0  0  0  0  0  0  0  0  0  0  0
    5.8759   -0.2014    1.1226 H   0  0  0  0  0  0  0  0  0  0  0  0
    2.8916    2.8604    2.2988 H   0  0  0  0  0  0  0  0  0  0  0  0
    0.5629    2.1781    2.2928 H   0  0  0  0  0  0  0  0  0  0  0  0
    1.5219   -1.0653   -0.3930 H   0  0  0  0  0  0  0  0  0  0  0  0
    3.8357   -0.3864   -0.3995 H   0  0  0  0  0  0  0  0  0  0  0  0
   -0.9235    0.1341    2.0634 H   0  0  0  0  0  0  0  0  0  0  0  0
   -2.4822    1.2287    0.9560 H   0  0  0  0  0  0  0  0  0  0  0  0
   -1.1027    2.2329    0.4760 H   0  0  0  0  0  0  0  0  0  0  0  0
   -0.0884    2.0582   -1.8268 H   0  0  0  0  0  0  0  0  0  0  0  0
    0.1474    0.3007   -1.7592 H   0  0  0  0  0  0  0  0  0  0  0  0
   -0.8065    0.9836   -3.0790 H   0  0  0  0  0  0  0  0  0  0  0  0
   -3.3881   -0.4246   -0.4748 H   0  0  0  0  0  0  0  0  0  0  0  0
   -4.1210   -1.0615   -2.5852 H   0  0  0  0  0  0  0  0  0  0  0  0
   -2.5004   -0.8186   -3.3555 H   0  0  0  0  0  0  0  0  0  0  0  0
   -4.6697    1.1561   -2.9971 H   0  0  0  0  0  0  0  0  0  0  0  0
   -3.1237    1.3089   -3.8851 H   0  0  0  0  0  0  0  0  0  0  0  0
   -3.7887    2.6383   -0.0729 H   0  0  0  0  0  0  0  0  0  0  0  0
   -2.1881    4.3894   -0.4223 H   0  0  0  0  0  0  0  0  0  0  0  0
   -2.2042    5.3862   -1.9204 H   0  0  0  0  0  0  0  0  0  0  0  0
   -3.7545    4.7420   -1.2711 H   0  0  0  0  0  0  0  0  0  0  0  0
   -0.8324   -1.6738   -1.6434 H   0  0  0  0  0  0  0  0  0  0  0  0
   -3.2048   -2.8230   -0.0420 H   0  0  0  0  0  0  0  0  0  0  0  0
   -2.9064   -3.0558   -1.8036 H   0  0  0  0  0  0  0  0  0  0  0  0
   -2.1151   -4.9646   -0.4026 H   0  0  0  0  0  0  0  0  0  0  0  0
   -0.8115   -4.2132   -1.3953 H   0  0  0  0  0  0  0  0  0  0  0  0
   -0.2540   -5.8509    0.9305 H   0  0  0  0  0  0  0  0  0  0  0  0
    2.1700   -3.0228    2.1821 H   0  0  0  0  0  0  0  0  0  0  0  0
    1.6052   -3.2768    3.8758 H   0  0  0  0  0  0  0  0  0  0  0  0
   -0.6218   -2.4331    3.3490 H   0  0  0  0  0  0  0  0  0  0  0  0
    0.6212   -1.2792    2.7903 H   0  0  0  0  0  0  0  0  0  0  0  0
  1  2  1  0
  2  3  1  0
  2  4  1  0
  4  5  2  0
  5  6  1  0
  6  7  2  0
  7  8  1  0
  8  9  2  0
  7 10  1  0
 10 11  1  0
 11 12  1  0
 12 13  1  6
 12 14  1  0
 14 15  1  0
 15 16  1  0
 16 17  1  0
 17 18  1  1
 17 19  1  0
 19 20  1  0
 19 21  2  0
 14 22  1  0
 22 23  1  0
 23 24  1  0
 24 25  1  0
 25 26  2  0
 26 27  1  0
 27 28  2  0
 27 29  1  0
 29 30  1  0
 30 31  1  0
 31 32  2  0
  9  4  1  0
 32 10  1  0
 17 12  1  0
 32 22  1  0
 31 25  1  0
  1 33  1  0
  1 34  1  0
  1 35  1  0
  3 36  1  0
  3 37  1  0
  3 38  1  0
  5 39  1  0
  6 40  1  0
  8 41  1  0
  9 42  1  0
 10 43  1  1
 11 44  1  0
 11 45  1  0
 13 46  1  0
 13 47  1  0
 13 48  1  0
 14 49  1  1
 15 50  1  0
 15 51  1  0
 16 52  1  0
 16 53  1  0
 18 54  1  0
 20 55  1  0
 20 56  1  0
 20 57  1  0
 22 58  1  6
 23 59  1  0
 23 60  1  0
 24 61  1  0
 24 62  1  0
 26 63  1  0
 29 64  1  0
 29 65  1  0
 30 66  1  0
 30 67  1  0
M  END
$$$$
