
     RDKit          3D

 44 47  0  0  0  0  0  0  0  0999 V2000
   -3.9712    4.7476    1.5594 Cl  0  0  0  0  0  0  0  0  0  0  0  0
   -3.2082    3.2289    1.1256 C   0  0  0  0  0  0  0  0  0  0  0  0
   -3.7135    2.4683    0.0704 C   0  0  0  0  0  0  0  0  0  0  0  0
   -3.1104    1.2562   -0.2788 C   0  0  0  0  0  0  0  0  0  0  0  0
   -1.9705    0.7877    0.4165 C   0  0  0  0  0  0  0  0  0  0  0  0
   -1.4935    1.5634    1.4976 C   0  0  0  0  0  0  0  0  0  0  0  0
   -2.1008    2.7734    1.8411 C   0  0  0  0  0  0  0  0  0  0  0  0
   -1.2767   -0.5587    0.1059 C   0  0  0  0  0  0  0  0  0  0  0  0
   -1.7214   -1.2012   -1.2529 C   0  0  0  0  0  0  0  0  0  0  0  0
   -2.9412   -2.1227   -1.0889 C   0  0  0  0  0  0  0  0  0  0  0  0
   -2.6482   -3.2760   -0.2155 N   0  0  0  0  0  0  0  0  0  0  0  0
   -1.6563   -3.0016    0.8430 C   0  0  0  0  0  0  0  0  0  0  0  0
   -1.6584   -1.5259    1.2787 C   0  0  0  0  0  0  0  0  0  0  0  0
    0.2421   -0.2964   -0.0188 C   0  0  0  0  0  0  0  0  0  0  0  0
    0.6853    0.7150   -0.8968 C   0  0  0  0  0  0  0  0  0  0  0  0
    2.0452    0.9785   -1.0709 C   0  0  0  0  0  0  0  0  0  0  0  0
    3.0133    0.2283   -0.3848 C   0  0  0  0  0  0  0  0  0  0  0  0
    2.5839   -0.7980    0.4722 C   0  0  0  0  0  0  0  0  0  0  0  0
    1.2229   -1.0636    0.6474 C   0  0  0  0  0  0  0  0  0  0  0  0
    4.4609    0.5089   -0.5676 C   0  0  0  0  0  0  0  0  0  0  0  0
    5.0526    1.3295   -1.5122 C   0  0  0  0  0  0  0  0  0  0  0  0
    6.3831    1.3015   -1.3271 N   0  0  0  0  0  0  0  0  0  0  0  0
    6.6777    0.5070   -0.3117 N   0  0  0  0  0  0  0  0  0  0  0  0
    5.5234    0.0086    0.1708 C   0  0  0  0  0  0  0  0  0  0  0  0
   -4.5802    2.8130   -0.4794 H   0  0  0  0  0  0  0  0  0  0  0  0
   -3.5541    0.7043   -1.0918 H   0  0  0  0  0  0  0  0  0  0  0  0
   -0.6439    1.2283    2.0796 H   0  0  0  0  0  0  0  0  0  0  0  0
   -1.7110    3.3534    2.6679 H   0  0  0  0  0  0  0  0  0  0  0  0
   -0.9016   -1.8354   -1.6616 H   0  0  0  0  0  0  0  0  0  0  0  0
   -1.9065   -0.4339   -2.0336 H   0  0  0  0  0  0  0  0  0  0  0  0
   -3.8013   -1.5485   -0.6808 H   0  0  0  0  0  0  0  0  0  0  0  0
   -3.2412   -2.5030   -2.0883 H   0  0  0  0  0  0  0  0  0  0  0  0
   -3.5443   -3.5758    0.2360 H   0  0  0  0  0  0  0  0  0  0  0  0
   -1.8666   -3.6418    1.7281 H   0  0  0  0  0  0  0  0  0  0  0  0
   -0.6524   -3.2899    0.4691 H   0  0  0  0  0  0  0  0  0  0  0  0
   -1.0109   -1.3746    2.1678 H   0  0  0  0  0  0  0  0  0  0  0  0
   -2.6909   -1.3054    1.6343 H   0  0  0  0  0  0  0  0  0  0  0  0
   -0.0305    1.3089   -1.4518 H   0  0  0  0  0  0  0  0  0  0  0  0
    2.3310    1.7770   -1.7416 H   0  0  0  0  0  0  0  0  0  0  0  0
    3.2977   -1.4134    1.0026 H   0  0  0  0  0  0  0  0  0  0  0  0
    0.9638   -1.8769    1.3061 H   0  0  0  0  0  0  0  0  0  0  0  0
    4.5613    1.9010   -2.2876 H   0  0  0  0  0  0  0  0  0  0  0  0
    7.0918    1.8207   -1.8907 H   0  0  0  0  0  0  0  0  0  0  0  0
    5.4699   -0.6668    1.0132 H   0  0  0  0  0  0  0  0  0  0  0  0
  1  2  1  0
  2  3  2  0
  3  4  1  0
  4  5  2  0
  5  6  1  0
  6  7  2  0
  5  8  1  0
  8  9  1  0
  9 10  1  0
 10 11  1  0
 11 12  1  0
 12 13  1  0
  8 14  1  0
 14 15  2  0
 15 16  1  0
 16 17  2  0
 17 18  1  0
 18 19  2  0
 17 20  1  0
 20 21  2  0
 21 22  1  0
 22 23  1  0
 23 24  2  0
  7  2  1  0
 13  8  1  0
 19 14  1  0
 24 20  1  0
  3 25  1  0
  4 26  1  0
  6 27  1  0
  7 28  1  0
  9 29  1  0
  9 30  1  0
 10 31  1  0
 10 32  1  0
 11 33  1  0
 12 34  1  0
 12 35  1  0
 13 36  1  0
 13 37  1  0
 15 38  1  0
 16 39  1  0
 18 40  1  0
 19 41  1  0
 21 42  1  0
 22 43  1  0
 24 44  1  0
M  END
$$$$
