
     RDKit          3D

 48 50  0  0  0  0  0  0  0  0999 V2000
   -4.9957   -0.1729    0.4552 N   0  0  0  0  0  0  0  0  0  0  0  0
   -5.0160    0.5219   -0.8353 C   0  0  1  0  0  0  0  0  0  0  0  0
   -6.0132    1.6956   -0.8432 C   0  0  0  0  0  0  0  0  0  0  0  0
   -7.7306    1.0985   -0.7375 S   0  0  0  0  0  0  0  0  0  0  0  0
   -3.6286    1.0019   -1.1692 C   0  0  0  0  0  0  0  0  0  0  0  0
   -3.0555    0.5543   -2.1989 O   0  0  0  0  0  0  0  0  0  0  0  0
   -2.9567    1.9449   -0.3205 N   0  0  0  0  0  0  0  0  0  0  0  0
   -1.3459    2.5160   -0.6342 S   0  0  0  0  0  6  0  0  0  0  0  0
   -1.0273    2.4164   -2.0999 O   0  0  0  0  0  0  0  0  0  0  0  0
   -1.2856    3.9659   -0.2461 O   0  0  0  0  0  0  0  0  0  0  0  0
   -0.1832    1.6751    0.2775 O   0  0  0  0  0  0  0  0  0  0  0  0
   -0.4184    0.2839    0.2329 C   0  0  0  0  0  0  0  0  0  0  0  0
    0.2264   -0.3603   -1.0066 C   0  0  1  0  0  0  0  0  0  0  0  0
    1.5815    0.0358   -1.0906 O   0  0  0  0  0  0  0  0  0  0  0  0
    2.3714   -1.1317   -1.0942 C   0  0  2  0  0  0  0  0  0  0  0  0
    1.5456   -2.2748   -0.5317 C   0  0  2  0  0  0  0  0  0  0  0  0
    1.9497   -3.5046   -1.0756 O   0  0  0  0  0  0  0  0  0  0  0  0
    0.1469   -1.8922   -0.9437 C   0  0  2  0  0  0  0  0  0  0  0  0
   -0.1511   -2.4154   -2.2142 O   0  0  0  0  0  0  0  0  0  0  0  0
    3.5859   -0.9266   -0.3027 N   0  0  0  0  0  0  0  0  0  0  0  0
    4.8159   -1.4522   -0.5374 C   0  0  0  0  0  0  0  0  0  0  0  0
    5.7263   -1.1515    0.4300 N   0  0  0  0  0  0  0  0  0  0  0  0
    5.0059   -0.4151    1.2970 C   0  0  0  0  0  0  0  0  0  0  0  0
    5.3915    0.1598    2.5027 C   0  0  0  0  0  0  0  0  0  0  0  0
    4.4420    0.8415    3.2114 N   0  0  0  0  0  0  0  0  0  0  0  0
    3.1531    0.9542    2.7546 C   0  0  0  0  0  0  0  0  0  0  0  0
    2.7853    0.3825    1.5686 N   0  0  0  0  0  0  0  0  0  0  0  0
    3.7305   -0.2872    0.8658 C   0  0  0  0  0  0  0  0  0  0  0  0
    6.7256    0.0462    2.9980 N   0  0  0  0  0  0  0  0  0  0  0  0
   -4.9235    0.5219    1.2338 H   0  0  0  0  0  0  0  0  0  0  0  0
   -5.8975   -0.6870    0.5792 H   0  0  0  0  0  0  0  0  0  0  0  0
   -5.3287   -0.2034   -1.6208 H   0  0  0  0  0  0  0  0  0  0  0  0
   -5.9079    2.2682   -1.7901 H   0  0  0  0  0  0  0  0  0  0  0  0
   -5.8185    2.3859    0.0050 H   0  0  0  0  0  0  0  0  0  0  0  0
   -8.2559    2.4038   -0.7827 H   0  0  0  0  0  0  0  0  0  0  0  0
   -3.4365    2.3056    0.5332 H   0  0  0  0  0  0  0  0  0  0  0  0
    0.0500   -0.1561    1.1389 H   0  0  0  0  0  0  0  0  0  0  0  0
   -1.4943    0.0218    0.3027 H   0  0  0  0  0  0  0  0  0  0  0  0
   -0.3046    0.0006   -1.9118 H   0  0  0  0  0  0  0  0  0  0  0  0
    2.6531   -1.3517   -2.1496 H   0  0  0  0  0  0  0  0  0  0  0  0
    1.6198   -2.2934    0.5819 H   0  0  0  0  0  0  0  0  0  0  0  0
    1.4740   -4.2073   -0.5607 H   0  0  0  0  0  0  0  0  0  0  0  0
   -0.5914   -2.2647   -0.1943 H   0  0  0  0  0  0  0  0  0  0  0  0
   -1.1291   -2.3018   -2.3427 H   0  0  0  0  0  0  0  0  0  0  0  0
    5.0507   -2.0619   -1.4004 H   0  0  0  0  0  0  0  0  0  0  0  0
    2.4222    1.4975    3.3374 H   0  0  0  0  0  0  0  0  0  0  0  0
    7.4557   -0.4741    2.4625 H   0  0  0  0  0  0  0  0  0  0  0  0
    6.9864    0.4864    3.9081 H   0  0  0  0  0  0  0  0  0  0  0  0
  1  2  1  0
  2  3  1  0
  3  4  1  0
  2  5  1  0
  5  6  2  0
  5  7  1  0
  7  8  1  0
  8  9  2  0
  8 10  2  0
  8 11  1  0
 11 12  1  0
 12 13  1  0
 13 14  1  0
 14 15  1  0
 15 16  1  0
 16 17  1  0
 16 18  1  0
 18 19  1  0
 15 20  1  0
 20 21  1  0
 21 22  2  0
 22 23  1  0
 23 24  2  0
 24 25  1  0
 25 26  2  0
 26 27  1  0
 27 28  2  0
 24 29  1  0
 18 13  1  0
 28 20  1  0
 28 23  1  0
  1 30  1  0
  1 31  1  0
  2 32  1  6
  3 33  1  0
  3 34  1  0
  4 35  1  0
  7 36  1  0
 12 37  1  0
 12 38  1  0
 13 39  1  6
 15 40  1  6
 16 41  1  1
 17 42  1  0
 18 43  1  1
 19 44  1  0
 21 45  1  0
 26 46  1  0
 29 47  1  0
 29 48  1  0
M  END
$$$$
