
     RDKit          3D

 36 37  0  0  0  0  0  0  0  0999 V2000
   -2.7933    2.4772   -0.9522 N   0  0  0  0  0  0  0  0  0  0  0  0
   -3.2599    1.1538   -0.6383 C   0  0  0  0  0  0  0  0  0  0  0  0
   -4.6265    0.8325   -0.8036 C   0  0  0  0  0  0  0  0  0  0  0  0
   -5.9202    2.1224   -1.3905 Br  0  0  0  0  0  0  0  0  0  0  0  0
   -5.0765   -0.4688   -0.5692 C   0  0  0  0  0  0  0  0  0  0  0  0
   -4.1835   -1.4650   -0.1832 C   0  0  0  0  0  0  0  0  0  0  0  0
   -4.8081   -3.2485    0.0976 Br  0  0  0  0  0  0  0  0  0  0  0  0
   -2.8343   -1.1625   -0.0034 C   0  0  0  0  0  0  0  0  0  0  0  0
   -2.3578    0.1518   -0.1871 C   0  0  0  0  0  0  0  0  0  0  0  0
   -0.8884    0.4653    0.0308 C   0  0  0  0  0  0  0  0  0  0  0  0
   -0.2540   -0.5061    0.9396 N   0  0  0  0  0  0  0  0  0  0  0  0
    1.2236   -0.5206    0.9080 C   0  0  1  0  0  0  0  0  0  0  0  0
    1.7541   -1.2537   -0.3392 C   0  0  0  0  0  0  0  0  0  0  0  0
    3.2857   -1.3474   -0.3000 C   0  0  0  0  0  0  0  0  0  0  0  0
    3.9257    0.0477   -0.1667 C   0  0  2  0  0  0  0  0  0  0  0  0
    5.3193   -0.0757   -0.0591 O   0  0  0  0  0  0  0  0  0  0  0  0
    3.3899    0.7760    1.0769 C   0  0  0  0  0  0  0  0  0  0  0  0
    1.8595    0.8820    1.0390 C   0  0  0  0  0  0  0  0  0  0  0  0
   -1.7834    2.6838   -1.1106 H   0  0  0  0  0  0  0  0  0  0  0  0
   -3.4530    3.2702   -1.1041 H   0  0  0  0  0  0  0  0  0  0  0  0
   -6.1228   -0.7111   -0.7056 H   0  0  0  0  0  0  0  0  0  0  0  0
   -2.1636   -1.9613    0.2852 H   0  0  0  0  0  0  0  0  0  0  0  0
   -0.7933    1.4775    0.4808 H   0  0  0  0  0  0  0  0  0  0  0  0
   -0.3972    0.4677   -0.9631 H   0  0  0  0  0  0  0  0  0  0  0  0
   -0.5602   -0.2830    1.9165 H   0  0  0  0  0  0  0  0  0  0  0  0
    1.5576   -1.1142    1.7905 H   0  0  0  0  0  0  0  0  0  0  0  0
    1.4559   -0.7266   -1.2693 H   0  0  0  0  0  0  0  0  0  0  0  0
    1.3277   -2.2796   -0.3746 H   0  0  0  0  0  0  0  0  0  0  0  0
    3.6423   -1.8299   -1.2357 H   0  0  0  0  0  0  0  0  0  0  0  0
    3.5981   -1.9881    0.5542 H   0  0  0  0  0  0  0  0  0  0  0  0
    3.6732    0.6558   -1.0677 H   0  0  0  0  0  0  0  0  0  0  0  0
    5.6581   -0.2963   -0.9660 H   0  0  0  0  0  0  0  0  0  0  0  0
    3.8237    1.7986    1.1202 H   0  0  0  0  0  0  0  0  0  0  0  0
    3.7029    0.2336    1.9966 H   0  0  0  0  0  0  0  0  0  0  0  0
    1.5035    1.3672    1.9733 H   0  0  0  0  0  0  0  0  0  0  0  0
    1.5750    1.5268    0.1796 H   0  0  0  0  0  0  0  0  0  0  0  0
  1  2  1  0
  2  3  2  0
  3  4  1  0
  3  5  1  0
  5  6  2  0
  6  7  1  0
  6  8  1  0
  8  9  2  0
  9 10  1  0
 10 11  1  0
 11 12  1  0
 12 13  1  0
 13 14  1  0
 14 15  1  0
 15 16  1  0
 15 17  1  0
 17 18  1  0
  9  2  1  0
 18 12  1  0
  1 19  1  0
  1 20  1  0
  5 21  1  0
  8 22  1  0
 10 23  1  0
 10 24  1  0
 11 25  1  0
 12 26  1  1
 13 27  1  0
 13 28  1  0
 14 29  1  0
 14 30  1  0
 15 31  1  6
 16 32  1  0
 17 33  1  0
 17 34  1  0
 18 35  1  0
 18 36  1  0
M  END
$$$$
