
     RDKit          3D

 48 50  0  0  0  0  0  0  0  0999 V2000
   -4.5575    3.0931   -0.0341 C   0  0  0  0  0  0  0  0  0  0  0  0
   -3.4782    2.8181   -1.0806 C   0  0  0  0  0  0  0  0  0  0  0  0
   -2.9237    1.3883   -0.9993 C   0  0  0  0  0  0  0  0  0  0  0  0
   -2.0725    1.1561    0.2549 C   0  0  0  0  0  0  0  0  0  0  0  0
   -1.4529   -0.1700    0.2051 N   0  0  0  0  0  0  0  0  0  0  0  0
   -0.3290   -0.5781   -0.4541 C   0  0  0  0  0  0  0  0  0  0  0  0
    0.5864    0.3239   -1.2334 C   0  0  0  0  0  0  0  0  0  0  0  0
    1.9641    0.3212   -0.6196 C   0  0  0  0  0  0  0  0  0  0  0  0
    2.9432   -0.5540   -1.1211 C   0  0  0  0  0  0  0  0  0  0  0  0
    4.2250   -0.6026   -0.5440 C   0  0  0  0  0  0  0  0  0  0  0  0
    5.2317   -1.4582   -1.0162 O   0  0  0  0  0  0  0  0  0  0  0  0
    5.0756   -2.3595   -2.1074 C   0  0  0  0  0  0  0  0  0  0  0  0
    4.5156    0.2261    0.5422 C   0  0  0  0  0  0  0  0  0  0  0  0
    3.5469    1.0886    1.0582 C   0  0  0  0  0  0  0  0  0  0  0  0
    2.2609    1.1409    0.4884 C   0  0  0  0  0  0  0  0  0  0  0  0
    1.2614    1.9865    0.9962 O   0  0  0  0  0  0  0  0  0  0  0  0
    1.4200    2.8442    2.1210 C   0  0  0  0  0  0  0  0  0  0  0  0
   -0.1053   -1.9195   -0.3600 N   0  0  0  0  0  0  0  0  0  0  0  0
   -1.1428   -2.3438    0.3829 C   0  0  0  0  0  0  0  0  0  0  0  0
   -1.4662   -3.6319    0.7934 C   0  0  0  0  0  0  0  0  0  0  0  0
   -0.6466   -4.7539    0.4656 N   0  0  0  0  0  0  0  0  0  0  0  0
   -2.6089   -3.7950    1.5252 N   0  0  0  0  0  0  0  0  0  0  0  0
   -3.4121   -2.7289    1.8427 C   0  0  0  0  0  0  0  0  0  0  0  0
   -3.0845   -1.4668    1.4314 N   0  0  0  0  0  0  0  0  0  0  0  0
   -1.9471   -1.3077    0.7115 C   0  0  0  0  0  0  0  0  0  0  0  0
   -5.3640    2.3320   -0.0976 H   0  0  0  0  0  0  0  0  0  0  0  0
   -5.0017    4.0942   -0.2171 H   0  0  0  0  0  0  0  0  0  0  0  0
   -4.1244    3.0897    0.9875 H   0  0  0  0  0  0  0  0  0  0  0  0
   -3.9246    2.9643   -2.0881 H   0  0  0  0  0  0  0  0  0  0  0  0
   -2.6534    3.5550   -0.9685 H   0  0  0  0  0  0  0  0  0  0  0  0
   -3.7590    0.6547   -1.0260 H   0  0  0  0  0  0  0  0  0  0  0  0
   -2.2940    1.2109   -1.8980 H   0  0  0  0  0  0  0  0  0  0  0  0
   -1.2912    1.9384    0.3426 H   0  0  0  0  0  0  0  0  0  0  0  0
   -2.7090    1.2290    1.1622 H   0  0  0  0  0  0  0  0  0  0  0  0
    0.1966    1.3603   -1.2850 H   0  0  0  0  0  0  0  0  0  0  0  0
    0.6290   -0.0395   -2.2828 H   0  0  0  0  0  0  0  0  0  0  0  0
    2.6975   -1.1955   -1.9569 H   0  0  0  0  0  0  0  0  0  0  0  0
    4.8348   -1.7983   -3.0349 H   0  0  0  0  0  0  0  0  0  0  0  0
    6.0263   -2.9097   -2.2620 H   0  0  0  0  0  0  0  0  0  0  0  0
    4.2724   -3.0934   -1.8846 H   0  0  0  0  0  0  0  0  0  0  0  0
    5.4991    0.1972    0.9940 H   0  0  0  0  0  0  0  0  0  0  0  0
    3.8082    1.7086    1.9046 H   0  0  0  0  0  0  0  0  0  0  0  0
    0.4681    3.3850    2.2999 H   0  0  0  0  0  0  0  0  0  0  0  0
    2.2203    3.5884    1.9241 H   0  0  0  0  0  0  0  0  0  0  0  0
    1.6647    2.2471    3.0247 H   0  0  0  0  0  0  0  0  0  0  0  0
    0.2277   -4.6362   -0.0933 H   0  0  0  0  0  0  0  0  0  0  0  0
   -0.9151   -5.7108    0.7854 H   0  0  0  0  0  0  0  0  0  0  0  0
   -4.3117   -2.8883    2.4210 H   0  0  0  0  0  0  0  0  0  0  0  0
  1  2  1  0
  2  3  1  0
  3  4  1  0
  4  5  1  0
  5  6  1  0
  6  7  1  0
  7  8  1  0
  8  9  2  0
  9 10  1  0
 10 11  1  0
 11 12  1  0
 10 13  2  0
 13 14  1  0
 14 15  2  0
 15 16  1  0
 16 17  1  0
  6 18  2  0
 18 19  1  0
 19 20  2  0
 20 21  1  0
 20 22  1  0
 22 23  2  0
 23 24  1  0
 24 25  2  0
 25  5  1  0
 15  8  1  0
 25 19  1  0
  1 26  1  0
  1 27  1  0
  1 28  1  0
  2 29  1  0
  2 30  1  0
  3 31  1  0
  3 32  1  0
  4 33  1  0
  4 34  1  0
  7 35  1  0
  7 36  1  0
  9 37  1  0
 12 38  1  0
 12 39  1  0
 12 40  1  0
 13 41  1  0
 14 42  1  0
 17 43  1  0
 17 44  1  0
 17 45  1  0
 21 46  1  0
 21 47  1  0
 23 48  1  0
M  END
$$$$
