
     RDKit          3D

 35 38  0  0  0  0  0  0  0  0999 V2000
   -3.6380    1.7928    0.9091 C   0  0  0  0  0  0  0  0  0  0  0  0
   -2.9931    0.5918    1.5256 C   0  0  0  0  0  0  0  0  0  0  0  0
   -3.2211    0.2075    2.7977 N   0  0  0  0  0  0  0  0  0  0  0  0
   -2.4561   -0.8501    3.0290 N   0  0  0  0  0  0  0  0  0  0  0  0
   -1.7846   -1.0980    1.8889 C   0  0  0  0  0  0  0  0  0  0  0  0
   -0.7325   -2.1394    1.7338 C   0  0  0  0  0  0  0  0  0  0  0  0
    0.5373   -1.4828    1.4492 N   0  0  0  0  0  0  0  0  0  0  0  0
    0.7953   -0.7295    0.4150 C   0  0  0  0  0  0  0  0  0  0  0  0
    2.1603   -0.1645    0.3000 C   0  0  0  0  0  0  0  0  0  0  0  0
    3.2679   -1.0166    0.4558 C   0  0  0  0  0  0  0  0  0  0  0  0
    4.5678   -0.5196    0.3341 C   0  0  0  0  0  0  0  0  0  0  0  0
    4.7770    0.8335    0.0644 C   0  0  0  0  0  0  0  0  0  0  0  0
    3.6872    1.6951   -0.0762 C   0  0  0  0  0  0  0  0  0  0  0  0
    2.3792    1.2089    0.0434 C   0  0  0  0  0  0  0  0  0  0  0  0
    1.0526    2.3628   -0.0665 Cl  0  0  0  0  0  0  0  0  0  0  0  0
   -0.2029   -0.4893   -0.6764 C   0  0  0  0  0  0  0  0  0  0  0  0
   -1.5723   -0.2053   -0.4186 C   0  0  0  0  0  0  0  0  0  0  0  0
   -2.4414    0.0284   -1.4987 C   0  0  0  0  0  0  0  0  0  0  0  0
   -1.9683    0.0216   -2.8103 C   0  0  0  0  0  0  0  0  0  0  0  0
   -0.6227   -0.2346   -3.0665 C   0  0  0  0  0  0  0  0  0  0  0  0
   -0.0309   -0.2449   -4.7178 Cl  0  0  0  0  0  0  0  0  0  0  0  0
    0.2522   -0.4919   -2.0095 C   0  0  0  0  0  0  0  0  0  0  0  0
   -2.0948   -0.2188    0.9235 N   0  0  0  0  0  0  0  0  0  0  0  0
   -4.5634    1.4897    0.3778 H   0  0  0  0  0  0  0  0  0  0  0  0
   -2.9398    2.2855    0.2009 H   0  0  0  0  0  0  0  0  0  0  0  0
   -3.9052    2.5238    1.7008 H   0  0  0  0  0  0  0  0  0  0  0  0
   -0.6374   -2.7272    2.6707 H   0  0  0  0  0  0  0  0  0  0  0  0
   -0.9989   -2.8301    0.9051 H   0  0  0  0  0  0  0  0  0  0  0  0
    3.1246   -2.0716    0.6558 H   0  0  0  0  0  0  0  0  0  0  0  0
    5.4138   -1.1850    0.4473 H   0  0  0  0  0  0  0  0  0  0  0  0
    5.7850    1.2167   -0.0283 H   0  0  0  0  0  0  0  0  0  0  0  0
    3.8610    2.7462   -0.2688 H   0  0  0  0  0  0  0  0  0  0  0  0
   -3.4968    0.1896   -1.3300 H   0  0  0  0  0  0  0  0  0  0  0  0
   -2.6528    0.2056   -3.6287 H   0  0  0  0  0  0  0  0  0  0  0  0
    1.2918   -0.7003   -2.2316 H   0  0  0  0  0  0  0  0  0  0  0  0
  1  2  1  0
  2  3  2  0
  3  4  1  0
  4  5  2  0
  5  6  1  0
  6  7  1  0
  7  8  2  0
  8  9  1  0
  9 10  2  0
 10 11  1  0
 11 12  2  0
 12 13  1  0
 13 14  2  0
 14 15  1  0
  8 16  1  0
 16 17  2  0
 17 18  1  0
 18 19  2  0
 19 20  1  0
 20 21  1  0
 20 22  2  0
 17 23  1  0
 23  2  1  0
 23  5  1  0
 14  9  1  0
 22 16  1  0
  1 24  1  0
  1 25  1  0
  1 26  1  0
  6 27  1  0
  6 28  1  0
 10 29  1  0
 11 30  1  0
 12 31  1  0
 13 32  1  0
 18 33  1  0
 19 34  1  0
 22 35  1  0
M  END
$$$$
