
     RDKit          3D

 56 59  0  0  0  0  0  0  0  0999 V2000
    4.9205    0.3874   -3.8293 C   0  0  0  0  0  0  0  0  0  0  0  0
    4.3722    0.4155   -2.5154 O   0  0  0  0  0  0  0  0  0  0  0  0
    5.1069    0.2321   -1.3336 C   0  0  0  0  0  0  0  0  0  0  0  0
    6.4990    0.0035   -1.3729 C   0  0  0  0  0  0  0  0  0  0  0  0
    7.2256   -0.1706   -0.1943 C   0  0  0  0  0  0  0  0  0  0  0  0
    6.5796   -0.1193    1.0385 C   0  0  0  0  0  0  0  0  0  0  0  0
    5.2042    0.1046    1.0963 C   0  0  0  0  0  0  0  0  0  0  0  0
    4.4527    0.2792   -0.0736 C   0  0  0  0  0  0  0  0  0  0  0  0
    3.0729    0.4940    0.0914 O   0  0  0  0  0  0  0  0  0  0  0  0
    2.1035    0.6209   -0.9449 C   0  0  0  0  0  0  0  0  0  0  0  0
    0.7039    0.7849   -0.3373 C   0  0  0  0  0  0  0  0  0  0  0  0
    0.1519   -0.4761    0.1828 N   0  0  0  0  0  0  0  0  0  0  0  0
    0.8159   -0.9303    1.4123 C   0  0  0  0  0  0  0  0  0  0  0  0
   -0.0896   -1.9050    2.1819 C   0  0  0  0  0  0  0  0  0  0  0  0
    0.6586   -2.4840    3.2193 O   0  0  0  0  0  0  0  0  0  0  0  0
   -1.3160   -1.1932    2.7754 C   0  0  0  0  0  0  0  0  0  0  0  0
   -2.1964   -0.7730    1.7354 O   0  0  0  0  0  0  0  0  0  0  0  0
   -3.3622   -0.0221    1.9426 C   0  0  0  0  0  0  0  0  0  0  0  0
   -3.7905    0.3910    3.2279 C   0  0  0  0  0  0  0  0  0  0  0  0
   -4.9574    1.1704    3.3826 C   0  0  0  0  0  0  0  0  0  0  0  0
   -5.7174    1.5522    2.2647 C   0  0  0  0  0  0  0  0  0  0  0  0
   -5.2887    1.1324    1.0081 C   0  0  0  0  0  0  0  0  0  0  0  0
   -4.1509    0.3621    0.8528 C   0  0  0  0  0  0  0  0  0  0  0  0
   -4.0385    0.1296   -0.5045 C   0  0  0  0  0  0  0  0  0  0  0  0
   -3.1150   -0.5955   -1.2581 C   0  0  0  0  0  0  0  0  0  0  0  0
   -3.2923   -0.6354   -2.6526 C   0  0  0  0  0  0  0  0  0  0  0  0
   -4.3785    0.0345   -3.2575 C   0  0  0  0  0  0  0  0  0  0  0  0
   -5.3027    0.7492   -2.4741 C   0  0  0  0  0  0  0  0  0  0  0  0
   -5.1063    0.7775   -1.0942 C   0  0  0  0  0  0  0  0  0  0  0  0
   -5.8805    1.3949   -0.1771 N   0  0  0  0  0  0  0  0  0  0  0  0
    5.3765   -0.6046   -4.0320 H   0  0  0  0  0  0  0  0  0  0  0  0
    5.6790    1.1902   -3.9442 H   0  0  0  0  0  0  0  0  0  0  0  0
    4.1075    0.5603   -4.5638 H   0  0  0  0  0  0  0  0  0  0  0  0
    7.0325   -0.0403   -2.3123 H   0  0  0  0  0  0  0  0  0  0  0  0
    8.2931   -0.3448   -0.2375 H   0  0  0  0  0  0  0  0  0  0  0  0
    7.1450   -0.2538    1.9516 H   0  0  0  0  0  0  0  0  0  0  0  0
    4.7133    0.1400    2.0609 H   0  0  0  0  0  0  0  0  0  0  0  0
    2.3294    1.5282   -1.5455 H   0  0  0  0  0  0  0  0  0  0  0  0
    2.1233   -0.2744   -1.6031 H   0  0  0  0  0  0  0  0  0  0  0  0
    0.0219    1.1520   -1.1343 H   0  0  0  0  0  0  0  0  0  0  0  0
    0.7150    1.5660    0.4545 H   0  0  0  0  0  0  0  0  0  0  0  0
    0.2317   -1.2225   -0.5476 H   0  0  0  0  0  0  0  0  0  0  0  0
    1.7616   -1.4560    1.1516 H   0  0  0  0  0  0  0  0  0  0  0  0
    1.0704   -0.0719    2.0742 H   0  0  0  0  0  0  0  0  0  0  0  0
   -0.4315   -2.7025    1.4804 H   0  0  0  0  0  0  0  0  0  0  0  0
    0.1828   -3.3123    3.4910 H   0  0  0  0  0  0  0  0  0  0  0  0
   -0.9847   -0.3153    3.3725 H   0  0  0  0  0  0  0  0  0  0  0  0
   -1.8598   -1.8948    3.4447 H   0  0  0  0  0  0  0  0  0  0  0  0
   -3.2313    0.1203    4.1127 H   0  0  0  0  0  0  0  0  0  0  0  0
   -5.2684    1.4796    4.3720 H   0  0  0  0  0  0  0  0  0  0  0  0
   -6.6106    2.1529    2.3786 H   0  0  0  0  0  0  0  0  0  0  0  0
   -2.2953   -1.1240   -0.7958 H   0  0  0  0  0  0  0  0  0  0  0  0
   -2.5930   -1.1881   -3.2664 H   0  0  0  0  0  0  0  0  0  0  0  0
   -4.5037   -0.0062   -4.3316 H   0  0  0  0  0  0  0  0  0  0  0  0
   -6.1409    1.2599   -2.9302 H   0  0  0  0  0  0  0  0  0  0  0  0
   -6.7483    1.9511   -0.3466 H   0  0  0  0  0  0  0  0  0  0  0  0
  1  2  1  0
  2  3  1  0
  3  4  2  0
  4  5  1  0
  5  6  2  0
  6  7  1  0
  7  8  2  0
  8  9  1  0
  9 10  1  0
 10 11  1  0
 11 12  1  0
 12 13  1  0
 13 14  1  0
 14 15  1  0
 14 16  1  0
 16 17  1  0
 17 18  1  0
 18 19  2  0
 19 20  1  0
 20 21  2  0
 21 22  1  0
 22 23  2  0
 23 24  1  0
 24 25  2  0
 25 26  1  0
 26 27  2  0
 27 28  1  0
 28 29  2  0
 29 30  1  0
  8  3  1  0
 23 18  1  0
 29 24  1  0
 30 22  1  0
  1 31  1  0
  1 32  1  0
  1 33  1  0
  4 34  1  0
  5 35  1  0
  6 36  1  0
  7 37  1  0
 10 38  1  0
 10 39  1  0
 11 40  1  0
 11 41  1  0
 12 42  1  0
 13 43  1  0
 13 44  1  0
 14 45  1  0
 15 46  1  0
 16 47  1  0
 16 48  1  0
 19 49  1  0
 20 50  1  0
 21 51  1  0
 25 52  1  0
 26 53  1  0
 27 54  1  0
 28 55  1  0
 30 56  1  0
M  END
$$$$
