
     RDKit          3D

 24 23  0  0  0  0  0  0  0  0999 V2000
   -1.8197   -1.7928   -0.4746 N   0  0  0  0  0  0  0  0  0  0  0  0
   -1.7445   -0.5027    0.2164 C   0  0  1  0  0  0  0  0  0  0  0  0
   -1.1667    0.5814   -0.7161 C   0  0  0  0  0  0  0  0  0  0  0  0
    0.2857    0.2975   -1.1318 C   0  0  0  0  0  0  0  0  0  0  0  0
    1.2130    0.4639   -0.0092 N   0  0  0  0  0  0  0  0  0  0  0  0
    2.6278    0.2220   -0.1102 C   0  0  0  0  0  0  0  0  0  0  0  0
    3.1762   -0.1348   -1.2314 N   0  0  0  0  0  0  0  0  0  0  0  0
    3.4490    0.3823    1.0505 N   0  0  0  0  0  0  0  0  0  0  0  0
    4.7835    0.1548    0.9943 O   0  0  0  0  0  0  0  0  0  0  0  0
   -3.1021   -0.0905    0.7220 C   0  0  0  0  0  0  0  0  0  0  0  0
   -3.3022    0.1029    2.0853 O   0  0  0  0  0  0  0  0  0  0  0  0
   -4.0570    0.0836   -0.0827 O   0  0  0  0  0  0  0  0  0  0  0  0
   -2.1770   -2.5122    0.1959 H   0  0  0  0  0  0  0  0  0  0  0  0
   -2.5053   -1.7303   -1.2628 H   0  0  0  0  0  0  0  0  0  0  0  0
   -1.0720   -0.6154    1.0946 H   0  0  0  0  0  0  0  0  0  0  0  0
   -1.7908    0.6474   -1.6345 H   0  0  0  0  0  0  0  0  0  0  0  0
   -1.2105    1.5737   -0.2143 H   0  0  0  0  0  0  0  0  0  0  0  0
    0.5654    1.0105   -1.9372 H   0  0  0  0  0  0  0  0  0  0  0  0
    0.3660   -0.7341   -1.5369 H   0  0  0  0  0  0  0  0  0  0  0  0
    0.8451    0.7871    0.9142 H   0  0  0  0  0  0  0  0  0  0  0  0
    2.6434   -0.2677   -2.1182 H   0  0  0  0  0  0  0  0  0  0  0  0
    3.0182    0.6553    1.9620 H   0  0  0  0  0  0  0  0  0  0  0  0
    5.1828    1.0369    0.7819 H   0  0  0  0  0  0  0  0  0  0  0  0
   -4.2080    0.3816    2.4431 H   0  0  0  0  0  0  0  0  0  0  0  0
  1  2  1  0
  2  3  1  0
  3  4  1  0
  4  5  1  0
  5  6  1  0
  6  7  2  3
  6  8  1  0
  8  9  1  0
  2 10  1  0
 10 11  1  0
 10 12  2  0
  1 13  1  0
  1 14  1  0
  2 15  1  1
  3 16  1  0
  3 17  1  0
  4 18  1  0
  4 19  1  0
  5 20  1  0
  7 21  1  0
  8 22  1  0
  9 23  1  0
 11 24  1  0
M  END
$$$$
