
     RDKit          3D

 29 29  0  0  0  0  0  0  0  0999 V2000
    1.0491    2.4225    0.8566 N   0  0  0  0  0  0  0  0  0  0  0  0
    1.5120    1.2288    0.1432 C   0  0  0  0  0  0  0  0  0  0  0  0
    0.3460    0.2378   -0.1606 C   0  0  0  0  0  0  0  0  0  0  0  0
    0.9345   -1.0157   -0.8925 C   0  0  0  0  0  0  0  0  0  0  0  0
    1.9223   -1.8105   -0.0848 C   0  0  0  0  0  0  0  0  0  0  0  0
    3.2792   -1.5100   -0.1555 O   0  0  0  0  0  0  0  0  0  0  0  0
    1.5256   -2.7501    0.6553 O   0  0  0  0  0  0  0  0  0  0  0  0
   -0.3326   -0.1773    1.1821 C   0  0  0  0  0  0  0  0  0  0  0  0
   -1.5595   -1.0883    0.9852 C   0  0  0  0  0  0  0  0  0  0  0  0
   -2.4454   -0.6796   -0.2086 C   0  0  0  0  0  0  0  0  0  0  0  0
   -2.1681    0.7494   -0.6796 C   0  0  0  0  0  0  0  0  0  0  0  0
   -0.7030    0.9181   -1.1195 C   0  0  0  0  0  0  0  0  0  0  0  0
    0.8116    3.1639    0.1592 H   0  0  0  0  0  0  0  0  0  0  0  0
    1.8513    2.8028    1.4095 H   0  0  0  0  0  0  0  0  0  0  0  0
    2.0181    1.5275   -0.8031 H   0  0  0  0  0  0  0  0  0  0  0  0
    2.2734    0.7191    0.7737 H   0  0  0  0  0  0  0  0  0  0  0  0
    0.1169   -1.6966   -1.2107 H   0  0  0  0  0  0  0  0  0  0  0  0
    1.4433   -0.6910   -1.8267 H   0  0  0  0  0  0  0  0  0  0  0  0
    3.9563   -2.0350    0.3849 H   0  0  0  0  0  0  0  0  0  0  0  0
   -0.6741    0.7330    1.7217 H   0  0  0  0  0  0  0  0  0  0  0  0
    0.3926   -0.6774    1.8589 H   0  0  0  0  0  0  0  0  0  0  0  0
   -1.2246   -2.1389    0.8472 H   0  0  0  0  0  0  0  0  0  0  0  0
   -2.1657   -1.0647    1.9171 H   0  0  0  0  0  0  0  0  0  0  0  0
   -2.2757   -1.3774   -1.0574 H   0  0  0  0  0  0  0  0  0  0  0  0
   -3.5159   -0.7681    0.0775 H   0  0  0  0  0  0  0  0  0  0  0  0
   -2.3990    1.4625    0.1421 H   0  0  0  0  0  0  0  0  0  0  0  0
   -2.8393    0.9939   -1.5313 H   0  0  0  0  0  0  0  0  0  0  0  0
   -0.6101    0.5158   -2.1529 H   0  0  0  0  0  0  0  0  0  0  0  0
   -0.5192    2.0057   -1.2310 H   0  0  0  0  0  0  0  0  0  0  0  0
  1  2  1  0
  2  3  1  0
  3  4  1  0
  4  5  1  0
  5  6  1  0
  5  7  2  0
  3  8  1  0
  8  9  1  0
  9 10  1  0
 10 11  1  0
 11 12  1  0
 12  3  1  0
  1 13  1  0
  1 14  1  0
  2 15  1  0
  2 16  1  0
  4 17  1  0
  4 18  1  0
  6 19  1  0
  8 20  1  0
  8 21  1  0
  9 22  1  0
  9 23  1  0
 10 24  1  0
 10 25  1  0
 11 26  1  0
 11 27  1  0
 12 28  1  0
 12 29  1  0
M  END
$$$$
