
     RDKit          3D

 92 93  0  0  0  0  0  0  0  0999 V2000
    5.1936   -0.2660   -1.5737 C   0  0  2  0  0  0  0  0  0  0  0  0
    5.7417   -1.3776   -2.4858 C   0  0  0  0  0  0  0  0  0  0  0  0
    6.1307    0.9692   -1.5312 C   0  0  0  0  0  0  0  0  0  0  0  0
    7.5344    0.7546   -0.9206 C   0  0  0  0  0  0  0  0  0  0  0  0
    7.6555    0.9138    0.6151 C   0  0  0  0  0  0  0  0  0  0  0  0
    7.4117    2.3223    1.2326 C   0  0  0  0  0  0  0  0  0  0  0  0
    7.8366    3.4886    0.3303 C   0  0  0  0  0  0  0  0  0  0  0  0
    5.9782    2.5116    1.7537 C   0  0  0  0  0  0  0  0  0  0  0  0
    4.8427   -0.7973   -0.1665 C   0  0  0  0  0  0  0  0  0  0  0  0
    3.5615   -1.6502   -0.1608 C   0  0  0  0  0  0  0  0  0  0  0  0
    3.1223   -2.0411    1.2698 C   0  0  0  0  0  0  0  0  0  0  0  0
    2.0275   -1.1529    1.9264 C   0  0  1  0  0  0  0  0  0  0  0  0
    2.2510    0.3608    1.7745 C   0  0  0  0  0  0  0  0  0  0  0  0
    0.5690   -1.6058    1.6376 C   0  0  0  0  0  0  0  0  0  0  0  0
    0.1366   -1.7509    0.1652 C   0  0  0  0  0  0  0  0  0  0  0  0
   -0.1527   -0.4043   -0.5297 C   0  0  0  0  0  0  0  0  0  0  0  0
   -0.9438   -0.5479   -1.8618 C   0  0  2  0  0  0  0  0  0  0  0  0
   -0.1588   -1.4117   -2.8664 C   0  0  0  0  0  0  0  0  0  0  0  0
   -1.2055    0.8366   -2.4972 C   0  0  0  0  0  0  0  0  0  0  0  0
   -2.1632    1.6878   -1.6526 C   0  0  0  0  0  0  0  0  0  0  0  0
   -3.3659    0.9101   -1.1494 C   0  0  0  0  0  0  0  0  0  0  0  0
   -4.4965    1.5838   -0.6309 C   0  0  0  0  0  0  0  0  0  0  0  0
   -4.5312    3.0946   -0.5677 C   0  0  0  0  0  0  0  0  0  0  0  0
   -5.6187    0.8412   -0.2116 C   0  0  0  0  0  0  0  0  0  0  0  0
   -6.7433    1.5196    0.2763 O   0  0  0  0  0  0  0  0  0  0  0  0
   -7.1233    1.4858    1.6228 C   0  0  0  0  0  0  0  0  0  0  0  0
   -6.4142    0.8849    2.4762 O   0  0  0  0  0  0  0  0  0  0  0  0
   -8.3551    2.2207    2.0584 C   0  0  0  0  0  0  0  0  0  0  0  0
   -9.3524    1.3085    2.7839 C   0  0  0  0  0  0  0  0  0  0  0  0
   -9.8850    0.2342    1.8857 C   0  0  0  0  0  0  0  0  0  0  0  0
   -9.5412   -1.0943    2.1149 O   0  0  0  0  0  0  0  0  0  0  0  0
  -10.6387    0.5324    0.9208 O   0  0  0  0  0  0  0  0  0  0  0  0
   -5.6187   -0.5681   -0.2969 C   0  0  0  0  0  0  0  0  0  0  0  0
   -6.8671   -1.3392    0.0658 C   0  0  0  0  0  0  0  0  0  0  0  0
   -4.4413   -1.2427   -0.6970 C   0  0  0  0  0  0  0  0  0  0  0  0
   -4.3768   -2.7532   -0.7084 C   0  0  0  0  0  0  0  0  0  0  0  0
   -3.3326   -0.5001   -1.1440 C   0  0  0  0  0  0  0  0  0  0  0  0
   -2.1981   -1.1809   -1.6099 O   0  0  0  0  0  0  0  0  0  0  0  0
    4.2522    0.0974   -2.0445 H   0  0  0  0  0  0  0  0  0  0  0  0
    6.1002   -0.9512   -3.4467 H   0  0  0  0  0  0  0  0  0  0  0  0
    4.9397   -2.1070   -2.7238 H   0  0  0  0  0  0  0  0  0  0  0  0
    6.5762   -1.9254   -2.0010 H   0  0  0  0  0  0  0  0  0  0  0  0
    6.2749    1.3102   -2.5803 H   0  0  0  0  0  0  0  0  0  0  0  0
    5.6104    1.8075   -1.0385 H   0  0  0  0  0  0  0  0  0  0  0  0
    7.9105   -0.2520   -1.1937 H   0  0  0  0  0  0  0  0  0  0  0  0
    8.2399    1.4623   -1.4055 H   0  0  0  0  0  0  0  0  0  0  0  0
    7.0388    0.1583    1.1373 H   0  0  0  0  0  0  0  0  0  0  0  0
    8.7035    0.6340    0.8631 H   0  0  0  0  0  0  0  0  0  0  0  0
    8.0606    2.3787    2.1360 H   0  0  0  0  0  0  0  0  0  0  0  0
    8.8895    3.3549    0.0031 H   0  0  0  0  0  0  0  0  0  0  0  0
    7.1815    3.5666   -0.5619 H   0  0  0  0  0  0  0  0  0  0  0  0
    7.7723    4.4449    0.8922 H   0  0  0  0  0  0  0  0  0  0  0  0
    5.2401    2.6045    0.9360 H   0  0  0  0  0  0  0  0  0  0  0  0
    5.9218    3.4382    2.3640 H   0  0  0  0  0  0  0  0  0  0  0  0
    5.6878    1.6613    2.4066 H   0  0  0  0  0  0  0  0  0  0  0  0
    4.6998    0.0644    0.5153 H   0  0  0  0  0  0  0  0  0  0  0  0
    5.6813   -1.4126    0.2246 H   0  0  0  0  0  0  0  0  0  0  0  0
    2.7555   -1.1161   -0.6965 H   0  0  0  0  0  0  0  0  0  0  0  0
    3.7609   -2.5850   -0.7273 H   0  0  0  0  0  0  0  0  0  0  0  0
    4.0142   -2.0573    1.9354 H   0  0  0  0  0  0  0  0  0  0  0  0
    2.7550   -3.0907    1.2514 H   0  0  0  0  0  0  0  0  0  0  0  0
    2.1417   -1.3311    3.0204 H   0  0  0  0  0  0  0  0  0  0  0  0
    3.1910    0.6514    2.2896 H   0  0  0  0  0  0  0  0  0  0  0  0
    1.4204    0.9233    2.2511 H   0  0  0  0  0  0  0  0  0  0  0  0
    2.3292    0.6783    0.7195 H   0  0  0  0  0  0  0  0  0  0  0  0
    0.4384   -2.6052    2.1097 H   0  0  0  0  0  0  0  0  0  0  0  0
   -0.1421   -0.9357    2.1686 H   0  0  0  0  0  0  0  0  0  0  0  0
   -0.8002   -2.3490    0.1658 H   0  0  0  0  0  0  0  0  0  0  0  0
    0.8809   -2.3455   -0.3985 H   0  0  0  0  0  0  0  0  0  0  0  0
    0.7963    0.1203   -0.7461 H   0  0  0  0  0  0  0  0  0  0  0  0
   -0.7326    0.2268    0.1754 H   0  0  0  0  0  0  0  0  0  0  0  0
    0.8633   -1.0033   -3.0215 H   0  0  0  0  0  0  0  0  0  0  0  0
   -0.0793   -2.4599   -2.5109 H   0  0  0  0  0  0  0  0  0  0  0  0
   -0.6813   -1.4414   -3.8466 H   0  0  0  0  0  0  0  0  0  0  0  0
   -1.6671    0.7010   -3.5010 H   0  0  0  0  0  0  0  0  0  0  0  0
   -0.2494    1.3868   -2.6403 H   0  0  0  0  0  0  0  0  0  0  0  0
   -1.6166    2.1154   -0.7856 H   0  0  0  0  0  0  0  0  0  0  0  0
   -2.5008    2.5376   -2.2840 H   0  0  0  0  0  0  0  0  0  0  0  0
   -3.5674    3.4921   -0.1873 H   0  0  0  0  0  0  0  0  0  0  0  0
   -4.7233    3.5035   -1.5816 H   0  0  0  0  0  0  0  0  0  0  0  0
   -5.3172    3.4710    0.1185 H   0  0  0  0  0  0  0  0  0  0  0  0
   -8.8461    2.6858    1.1759 H   0  0  0  0  0  0  0  0  0  0  0  0
   -8.0522    3.0411    2.7435 H   0  0  0  0  0  0  0  0  0  0  0  0
  -10.2040    1.9229    3.1473 H   0  0  0  0  0  0  0  0  0  0  0  0
   -8.8688    0.8499    3.6737 H   0  0  0  0  0  0  0  0  0  0  0  0
   -9.8863   -1.8316    1.5121 H   0  0  0  0  0  0  0  0  0  0  0  0
   -6.8094   -1.6673    1.1245 H   0  0  0  0  0  0  0  0  0  0  0  0
   -6.9933   -2.2265   -0.5884 H   0  0  0  0  0  0  0  0  0  0  0  0
   -7.7788   -0.7234   -0.0769 H   0  0  0  0  0  0  0  0  0  0  0  0
   -4.8828   -3.1743    0.1854 H   0  0  0  0  0  0  0  0  0  0  0  0
   -4.8663   -3.1391   -1.6269 H   0  0  0  0  0  0  0  0  0  0  0  0
   -3.3316   -3.1251   -0.6783 H   0  0  0  0  0  0  0  0  0  0  0  0
  1  2  1  0
  1  3  1  0
  3  4  1  0
  4  5  1  0
  5  6  1  0
  6  7  1  0
  6  8  1  0
  1  9  1  0
  9 10  1  0
 10 11  1  0
 11 12  1  0
 12 13  1  0
 12 14  1  0
 14 15  1  0
 15 16  1  0
 17 16  1  1
 17 18  1  0
 17 19  1  0
 19 20  1  0
 20 21  1  0
 21 22  2  0
 22 23  1  0
 22 24  1  0
 24 25  1  0
 25 26  1  0
 26 27  2  0
 26 28  1  0
 28 29  1  0
 29 30  1  0
 30 31  1  0
 30 32  2  0
 24 33  2  0
 33 34  1  0
 33 35  1  0
 35 36  1  0
 35 37  2  0
 37 38  1  0
 38 17  1  0
 37 21  1  0
  1 39  1  6
  2 40  1  0
  2 41  1  0
  2 42  1  0
  3 43  1  0
  3 44  1  0
  4 45  1  0
  4 46  1  0
  5 47  1  0
  5 48  1  0
  6 49  1  0
  7 50  1  0
  7 51  1  0
  7 52  1  0
  8 53  1  0
  8 54  1  0
  8 55  1  0
  9 56  1  0
  9 57  1  0
 10 58  1  0
 10 59  1  0
 11 60  1  0
 11 61  1  0
 12 62  1  1
 13 63  1  0
 13 64  1  0
 13 65  1  0
 14 66  1  0
 14 67  1  0
 15 68  1  0
 15 69  1  0
 16 70  1  0
 16 71  1  0
 18 72  1  0
 18 73  1  0
 18 74  1  0
 19 75  1  0
 19 76  1  0
 20 77  1  0
 20 78  1  0
 23 79  1  0
 23 80  1  0
 23 81  1  0
 28 82  1  0
 28 83  1  0
 29 84  1  0
 29 85  1  0
 31 86  1  0
 34 87  1  0
 34 88  1  0
 34 89  1  0
 36 90  1  0
 36 91  1  0
 36 92  1  0
M  END
$$$$
