
     RDKit          3D

 20 20  0  0  0  0  0  0  0  0999 V2000
    1.0832    0.1194   -1.7259 N   0  0  0  0  0  0  0  0  0  0  0  0
    1.1010    0.6950   -0.3785 C   0  0  1  0  0  0  0  0  0  0  0  0
    0.2793   -0.1713    0.5900 C   0  0  0  0  0  0  0  0  0  0  0  0
   -1.1643   -0.2138    0.1885 C   0  0  0  0  0  0  0  0  0  0  0  0
   -1.7561   -1.1704   -0.6059 C   0  0  0  0  0  0  0  0  0  0  0  0
   -3.0399   -0.8236   -0.7788 N   0  0  0  0  0  0  0  0  0  0  0  0
   -3.1973    0.3289   -0.1003 C   0  0  0  0  0  0  0  0  0  0  0  0
   -2.0625    0.7409    0.5039 N   0  0  0  0  0  0  0  0  0  0  0  0
    2.5156    0.8346    0.1183 C   0  0  0  0  0  0  0  0  0  0  0  0
    3.3155   -0.2936    0.2780 O   0  0  0  0  0  0  0  0  0  0  0  0
    2.9791    1.9748    0.3890 O   0  0  0  0  0  0  0  0  0  0  0  0
    1.6137    0.7528   -2.3679 H   0  0  0  0  0  0  0  0  0  0  0  0
    1.5750   -0.8044   -1.7193 H   0  0  0  0  0  0  0  0  0  0  0  0
    0.6371    1.7068   -0.4214 H   0  0  0  0  0  0  0  0  0  0  0  0
    0.3471    0.2513    1.6164 H   0  0  0  0  0  0  0  0  0  0  0  0
    0.6868   -1.2058    0.6223 H   0  0  0  0  0  0  0  0  0  0  0  0
   -1.2870   -2.0469   -1.0339 H   0  0  0  0  0  0  0  0  0  0  0  0
   -3.7631   -1.3351   -1.3311 H   0  0  0  0  0  0  0  0  0  0  0  0
   -4.1317    0.8721   -0.0502 H   0  0  0  0  0  0  0  0  0  0  0  0
    4.2686   -0.2119    0.6111 H   0  0  0  0  0  0  0  0  0  0  0  0
  1  2  1  0
  2  3  1  0
  3  4  1  0
  4  5  2  0
  5  6  1  0
  6  7  1  0
  7  8  2  0
  2  9  1  0
  9 10  1  0
  9 11  2  0
  8  4  1  0
  1 12  1  0
  1 13  1  0
  2 14  1  6
  3 15  1  0
  3 16  1  0
  5 17  1  0
  6 18  1  0
  7 19  1  0
 10 20  1  0
M  END
$$$$
