
     RDKit          3D

 33 35  0  0  0  0  0  0  0  0999 V2000
    4.7304    1.7435    0.2937 N   0  0  0  0  0  0  0  0  0  0  0  0
    3.8961    0.6091    0.0600 C   0  0  0  0  0  0  0  0  0  0  0  0
    2.5699    0.6666    0.3933 N   0  0  0  0  0  0  0  0  0  0  0  0
    1.8055   -0.4275    0.1623 C   0  0  0  0  0  0  0  0  0  0  0  0
    2.2981   -1.5571   -0.3907 C   0  0  0  0  0  0  0  0  0  0  0  0
    1.3234   -2.4725   -0.5476 N   0  0  0  0  0  0  0  0  0  0  0  0
    0.2277   -1.8290   -0.0571 C   0  0  0  0  0  0  0  0  0  0  0  0
    0.4965   -0.5763    0.3974 N   0  0  0  0  0  0  0  0  0  0  0  0
   -0.4488    0.4282    0.8903 C   0  0  2  0  0  0  0  0  0  0  0  0
   -1.4479   -0.2036    1.6663 O   0  0  0  0  0  0  0  0  0  0  0  0
   -2.7034    0.1188    1.1097 C   0  0  2  0  0  0  0  0  0  0  0  0
   -3.6374   -1.0939    1.2126 C   0  0  0  0  0  0  0  0  0  0  0  0
   -4.9332   -0.7586    0.7934 O   0  0  0  0  0  0  0  0  0  0  0  0
   -2.4904    0.5712   -0.3301 C   0  0  1  0  0  0  0  0  0  0  0  0
   -3.4628    1.5082   -0.7159 O   0  0  0  0  0  0  0  0  0  0  0  0
   -1.1024    1.1676   -0.2831 C   0  0  1  0  0  0  0  0  0  0  0  0
   -1.1263    2.5598   -0.0625 O   0  0  0  0  0  0  0  0  0  0  0  0
    3.6392   -1.6294   -0.7371 C   0  0  0  0  0  0  0  0  0  0  0  0
    4.1230   -2.6696   -1.2581 O   0  0  0  0  0  0  0  0  0  0  0  0
    4.4228   -0.5332   -0.4990 N   0  0  0  0  0  0  0  0  0  0  0  0
    4.3330    2.6115    0.7167 H   0  0  0  0  0  0  0  0  0  0  0  0
    5.7444    1.7202    0.0459 H   0  0  0  0  0  0  0  0  0  0  0  0
   -0.7601   -2.2705   -0.0484 H   0  0  0  0  0  0  0  0  0  0  0  0
    0.0975    1.1454    1.5427 H   0  0  0  0  0  0  0  0  0  0  0  0
   -3.1405    0.9520    1.7063 H   0  0  0  0  0  0  0  0  0  0  0  0
   -3.6886   -1.4161    2.2743 H   0  0  0  0  0  0  0  0  0  0  0  0
   -3.2369   -1.9524    0.6252 H   0  0  0  0  0  0  0  0  0  0  0  0
   -4.9585   -0.8851   -0.1908 H   0  0  0  0  0  0  0  0  0  0  0  0
   -2.4945   -0.3066   -1.0197 H   0  0  0  0  0  0  0  0  0  0  0  0
   -3.3532    1.6383   -1.6938 H   0  0  0  0  0  0  0  0  0  0  0  0
   -0.5699    0.9753   -1.2410 H   0  0  0  0  0  0  0  0  0  0  0  0
   -1.5892    2.7305    0.7998 H   0  0  0  0  0  0  0  0  0  0  0  0
    5.4367   -0.5647   -0.7510 H   0  0  0  0  0  0  0  0  0  0  0  0
  1  2  1  0
  2  3  2  0
  3  4  1  0
  4  5  2  0
  5  6  1  0
  6  7  2  0
  7  8  1  0
  8  9  1  0
  9 10  1  0
 10 11  1  0
 11 12  1  0
 12 13  1  0
 11 14  1  0
 14 15  1  0
 14 16  1  0
 16 17  1  0
  5 18  1  0
 18 19  2  0
 18 20  1  0
 20  2  1  0
  8  4  1  0
 16  9  1  0
  1 21  1  0
  1 22  1  0
  7 23  1  0
  9 24  1  1
 11 25  1  1
 12 26  1  0
 12 27  1  0
 13 28  1  0
 14 29  1  6
 15 30  1  0
 16 31  1  6
 17 32  1  0
 20 33  1  0
M  END
$$$$
