
     RDKit          3D

 40 41  0  0  0  0  0  0  0  0999 V2000
    0.1041    1.8770   -1.2829 C   0  0  0  0  0  0  0  0  0  0  0  0
   -0.9136    1.0377   -0.6595 N   0  0  0  0  0  0  0  0  0  0  0  0
   -2.1892    1.0689   -1.0110 N   0  0  0  0  0  0  0  0  0  0  0  0
   -2.8647    0.2247   -0.1989 C   0  0  0  0  0  0  0  0  0  0  0  0
   -1.9853   -0.3533    0.7068 C   0  0  0  0  0  0  0  0  0  0  0  0
   -0.7589    0.1675    0.3610 C   0  0  0  0  0  0  0  0  0  0  0  0
    0.4660   -0.0933    1.0584 N   0  0  0  0  0  0  0  0  0  0  0  0
    1.6986   -0.3883    0.3897 C   0  0  0  0  0  0  0  0  0  0  0  0
    1.6992   -0.6610   -0.8416 O   0  0  0  0  0  0  0  0  0  0  0  0
    2.9177   -0.4472    1.1449 N   0  0  0  0  0  0  0  0  0  0  0  0
    4.2286   -0.4929    0.5558 C   0  0  0  0  0  0  0  0  0  0  0  0
    5.2594   -1.1735    1.2225 C   0  0  0  0  0  0  0  0  0  0  0  0
    6.5479   -1.2135    0.6813 C   0  0  0  0  0  0  0  0  0  0  0  0
    6.8225   -0.5606   -0.5243 C   0  0  0  0  0  0  0  0  0  0  0  0
    8.4403   -0.6088   -1.2007 Cl  0  0  0  0  0  0  0  0  0  0  0  0
    5.8081    0.1398   -1.1842 C   0  0  0  0  0  0  0  0  0  0  0  0
    4.5182    0.1808   -0.6457 C   0  0  0  0  0  0  0  0  0  0  0  0
   -4.3652   -0.0044   -0.2529 C   0  0  0  0  0  0  0  0  0  0  0  0
   -4.9885    0.7599   -1.4396 C   0  0  0  0  0  0  0  0  0  0  0  0
   -4.6496   -1.5090   -0.4251 C   0  0  0  0  0  0  0  0  0  0  0  0
   -5.0029    0.4961    1.0565 C   0  0  0  0  0  0  0  0  0  0  0  0
   -0.3617    2.8061   -1.6742 H   0  0  0  0  0  0  0  0  0  0  0  0
    0.5730    1.3325   -2.1282 H   0  0  0  0  0  0  0  0  0  0  0  0
    0.8793    2.1647   -0.5419 H   0  0  0  0  0  0  0  0  0  0  0  0
   -2.2073   -1.0511    1.5033 H   0  0  0  0  0  0  0  0  0  0  0  0
    0.4237   -0.2163    2.0949 H   0  0  0  0  0  0  0  0  0  0  0  0
    2.8417   -0.5260    2.1843 H   0  0  0  0  0  0  0  0  0  0  0  0
    5.0602   -1.6815    2.1578 H   0  0  0  0  0  0  0  0  0  0  0  0
    7.3317   -1.7501    1.2007 H   0  0  0  0  0  0  0  0  0  0  0  0
    6.0198    0.6604   -2.1095 H   0  0  0  0  0  0  0  0  0  0  0  0
    3.7588    0.7590   -1.1549 H   0  0  0  0  0  0  0  0  0  0  0  0
   -6.0859    0.5882   -1.4849 H   0  0  0  0  0  0  0  0  0  0  0  0
   -4.8144    1.8531   -1.3380 H   0  0  0  0  0  0  0  0  0  0  0  0
   -4.5445    0.4205   -2.4006 H   0  0  0  0  0  0  0  0  0  0  0  0
   -4.1696   -1.8920   -1.3518 H   0  0  0  0  0  0  0  0  0  0  0  0
   -4.2570   -2.0896    0.4372 H   0  0  0  0  0  0  0  0  0  0  0  0
   -5.7431   -1.6959   -0.4941 H   0  0  0  0  0  0  0  0  0  0  0  0
   -6.1053    0.3551    1.0347 H   0  0  0  0  0  0  0  0  0  0  0  0
   -4.7907    1.5772    1.2044 H   0  0  0  0  0  0  0  0  0  0  0  0
   -4.6016   -0.0608    1.9306 H   0  0  0  0  0  0  0  0  0  0  0  0
  1  2  1  0
  2  3  1  0
  3  4  2  0
  4  5  1  0
  5  6  2  0
  6  7  1  0
  7  8  1  0
  8  9  2  0
  8 10  1  0
 10 11  1  0
 11 12  2  0
 12 13  1  0
 13 14  2  0
 14 15  1  0
 14 16  1  0
 16 17  2  0
  4 18  1  0
 18 19  1  0
 18 20  1  0
 18 21  1  0
  6  2  1  0
 17 11  1  0
  1 22  1  0
  1 23  1  0
  1 24  1  0
  5 25  1  0
  7 26  1  0
 10 27  1  0
 12 28  1  0
 13 29  1  0
 16 30  1  0
 17 31  1  0
 19 32  1  0
 19 33  1  0
 19 34  1  0
 20 35  1  0
 20 36  1  0
 20 37  1  0
 21 38  1  0
 21 39  1  0
 21 40  1  0
M  END
$$$$
