
     RDKit          3D

 25 25  0  0  0  0  0  0  0  0999 V2000
   -0.0558    0.7679   -0.2161 C   0  0  2  0  0  0  0  0  0  0  0  0
   -1.4890    0.6214   -0.7626 C   0  0  0  0  0  0  0  0  0  0  0  0
   -2.2844   -0.4552   -0.0258 C   0  0  0  0  0  0  0  0  0  0  0  0
   -1.5472   -1.7883   -0.0980 C   0  0  0  0  0  0  0  0  0  0  0  0
   -0.1578   -1.6748    0.5302 C   0  0  0  0  0  0  0  0  0  0  0  0
    0.6063   -0.5451   -0.0358 N   0  0  0  0  0  0  0  0  0  0  0  0
    2.0518   -0.6465   -0.0884 C   0  0  0  0  0  0  0  0  0  0  0  0
    2.9074    0.4647   -0.6219 C   0  0  0  0  0  0  0  0  0  0  0  0
    2.6265   -1.6934    0.3184 O   0  0  0  0  0  0  0  0  0  0  0  0
   -0.0350    1.5631    1.0630 C   0  0  0  0  0  0  0  0  0  0  0  0
    0.2129    2.9314    1.0153 O   0  0  0  0  0  0  0  0  0  0  0  0
   -0.2736    1.0105    2.1702 O   0  0  0  0  0  0  0  0  0  0  0  0
    0.4889    1.3579   -0.9829 H   0  0  0  0  0  0  0  0  0  0  0  0
   -1.4370    0.3509   -1.8407 H   0  0  0  0  0  0  0  0  0  0  0  0
   -2.0277    1.5922   -0.6950 H   0  0  0  0  0  0  0  0  0  0  0  0
   -3.2827   -0.5628   -0.5022 H   0  0  0  0  0  0  0  0  0  0  0  0
   -2.4421   -0.1614    1.0347 H   0  0  0  0  0  0  0  0  0  0  0  0
   -1.4506   -2.1070   -1.1594 H   0  0  0  0  0  0  0  0  0  0  0  0
   -2.1331   -2.5632    0.4417 H   0  0  0  0  0  0  0  0  0  0  0  0
   -0.2516   -1.5463    1.6296 H   0  0  0  0  0  0  0  0  0  0  0  0
    0.3665   -2.6376    0.3471 H   0  0  0  0  0  0  0  0  0  0  0  0
    3.9817    0.1861   -0.5739 H   0  0  0  0  0  0  0  0  0  0  0  0
    2.6470    0.6645   -1.6821 H   0  0  0  0  0  0  0  0  0  0  0  0
    2.7595    1.3830   -0.0166 H   0  0  0  0  0  0  0  0  0  0  0  0
    0.2191    3.4881    1.8616 H   0  0  0  0  0  0  0  0  0  0  0  0
  1  2  1  0
  2  3  1  0
  3  4  1  0
  4  5  1  0
  5  6  1  0
  6  7  1  0
  7  8  1  0
  7  9  2  0
  1 10  1  0
 10 11  1  0
 10 12  2  0
  6  1  1  0
  1 13  1  6
  2 14  1  0
  2 15  1  0
  3 16  1  0
  3 17  1  0
  4 18  1  0
  4 19  1  0
  5 20  1  0
  5 21  1  0
  8 22  1  0
  8 23  1  0
  8 24  1  0
 11 25  1  0
M  END
$$$$
