
     RDKit          3D

 39 41  0  0  0  0  0  0  0  0999 V2000
   -0.7252   -0.9969   -0.7369 C   0  0  1  0  0  0  0  0  0  0  0  0
   -0.9613   -2.1433    0.2771 C   0  0  0  0  0  0  0  0  0  0  0  0
   -2.3392   -2.7476    0.1436 C   0  0  0  0  0  0  0  0  0  0  0  0
   -3.3021   -2.7649    1.2939 C   0  0  0  0  0  0  0  0  0  0  0  0
   -2.6749   -3.2539   -0.9165 O   0  0  0  0  0  0  0  0  0  0  0  0
   -1.6841    0.1849   -0.6363 C   0  0  0  0  0  0  0  0  0  0  0  0
   -1.8893    0.9814   -1.7791 C   0  0  0  0  0  0  0  0  0  0  0  0
   -2.7420    2.0880   -1.7344 C   0  0  0  0  0  0  0  0  0  0  0  0
   -3.3955    2.4205   -0.5469 C   0  0  0  0  0  0  0  0  0  0  0  0
   -3.1932    1.6499    0.5991 C   0  0  0  0  0  0  0  0  0  0  0  0
   -2.3409    0.5425    0.5606 C   0  0  0  0  0  0  0  0  0  0  0  0
    0.7306   -0.5253   -0.7081 C   0  0  0  0  0  0  0  0  0  0  0  0
    1.2675    0.1548    0.4104 C   0  0  0  0  0  0  0  0  0  0  0  0
    0.4390    0.3928    1.5114 O   0  0  0  0  0  0  0  0  0  0  0  0
    2.6203    0.5729    0.3856 C   0  0  0  0  0  0  0  0  0  0  0  0
    3.2403    1.2631    1.4510 C   0  0  0  0  0  0  0  0  0  0  0  0
    4.5818    1.6469    1.3605 C   0  0  0  0  0  0  0  0  0  0  0  0
    5.3233    1.3525    0.2166 C   0  0  0  0  0  0  0  0  0  0  0  0
    4.7272    0.6722   -0.8449 C   0  0  0  0  0  0  0  0  0  0  0  0
    3.3855    0.2823   -0.7683 C   0  0  0  0  0  0  0  0  0  0  0  0
    2.8447   -0.3628   -1.7914 O   0  0  0  0  0  0  0  0  0  0  0  0
    1.5830   -0.7686   -1.8083 C   0  0  0  0  0  0  0  0  0  0  0  0
    1.1624   -1.3765   -2.8286 O   0  0  0  0  0  0  0  0  0  0  0  0
   -0.9310   -1.4567   -1.7283 H   0  0  0  0  0  0  0  0  0  0  0  0
   -0.2206   -2.9493    0.0815 H   0  0  0  0  0  0  0  0  0  0  0  0
   -0.7801   -1.8032    1.3165 H   0  0  0  0  0  0  0  0  0  0  0  0
   -4.2069   -2.1797    1.0272 H   0  0  0  0  0  0  0  0  0  0  0  0
   -2.8517   -2.3272    2.2088 H   0  0  0  0  0  0  0  0  0  0  0  0
   -3.5983   -3.8118    1.5145 H   0  0  0  0  0  0  0  0  0  0  0  0
   -1.3854    0.7442   -2.7082 H   0  0  0  0  0  0  0  0  0  0  0  0
   -2.8938    2.6895   -2.6213 H   0  0  0  0  0  0  0  0  0  0  0  0
   -4.0547    3.2782   -0.5135 H   0  0  0  0  0  0  0  0  0  0  0  0
   -3.6945    1.9135    1.5215 H   0  0  0  0  0  0  0  0  0  0  0  0
   -2.1981   -0.0203    1.4706 H   0  0  0  0  0  0  0  0  0  0  0  0
    0.7207    0.8637    2.3579 H   0  0  0  0  0  0  0  0  0  0  0  0
    2.7184    1.5193    2.3585 H   0  0  0  0  0  0  0  0  0  0  0  0
    5.0483    2.1755    2.1819 H   0  0  0  0  0  0  0  0  0  0  0  0
    6.3614    1.6522    0.1525 H   0  0  0  0  0  0  0  0  0  0  0  0
    5.3087    0.4471   -1.7302 H   0  0  0  0  0  0  0  0  0  0  0  0
  1  2  1  0
  2  3  1  0
  3  4  1  0
  3  5  2  0
  1  6  1  0
  6  7  2  0
  7  8  1  0
  8  9  2  0
  9 10  1  0
 10 11  2  0
  1 12  1  0
 12 13  2  0
 13 14  1  0
 13 15  1  0
 15 16  2  0
 16 17  1  0
 17 18  2  0
 18 19  1  0
 19 20  2  0
 20 21  1  0
 21 22  1  0
 22 23  2  0
 11  6  1  0
 22 12  1  0
 20 15  1  0
  1 24  1  6
  2 25  1  0
  2 26  1  0
  4 27  1  0
  4 28  1  0
  4 29  1  0
  7 30  1  0
  8 31  1  0
  9 32  1  0
 10 33  1  0
 11 34  1  0
 14 35  1  0
 16 36  1  0
 17 37  1  0
 18 38  1  0
 19 39  1  0
M  END
$$$$
