
     RDKit          3D

 42 46  0  0  0  0  0  0  0  0999 V2000
   -3.9588   -1.4716   -3.7131 O   0  0  0  0  0  0  0  0  0  0  0  0
   -4.5126   -1.4012   -2.5843 C   0  0  0  0  0  0  0  0  0  0  0  0
   -5.8694   -1.8271   -2.3988 N   0  0  0  0  0  0  0  0  0  0  0  0
   -6.4112   -2.0251   -1.0442 C   0  0  0  0  0  0  0  0  0  0  0  0
   -5.9284   -0.9343   -0.0573 C   0  0  0  0  0  0  0  0  0  0  0  0
   -4.4596   -0.6743   -0.2350 C   0  0  0  0  0  0  0  0  0  0  0  0
   -3.8160   -0.8561   -1.4253 C   0  0  0  0  0  0  0  0  0  0  0  0
   -2.5231   -0.4041   -1.2797 C   0  0  0  0  0  0  0  0  0  0  0  0
   -2.4444    0.0591    0.0332 C   0  0  0  0  0  0  0  0  0  0  0  0
   -3.6365   -0.1005    0.6592 N   0  0  0  0  0  0  0  0  0  0  0  0
   -1.2446    0.6651    0.6635 C   0  0  0  0  0  0  0  0  0  0  0  0
    0.0398    0.4111    0.1506 C   0  0  0  0  0  0  0  0  0  0  0  0
    1.1683    0.9934    0.7564 C   0  0  0  0  0  0  0  0  0  0  0  0
    0.9972    1.7879    1.8492 N   0  0  0  0  0  0  0  0  0  0  0  0
   -0.2294    2.0509    2.3680 C   0  0  0  0  0  0  0  0  0  0  0  0
   -1.3701    1.4996    1.7852 C   0  0  0  0  0  0  0  0  0  0  0  0
    2.5417    0.7454    0.2477 C   0  0  0  0  0  0  0  0  0  0  0  0
    3.6362    0.7858    1.1286 C   0  0  0  0  0  0  0  0  0  0  0  0
    4.9338    0.5592    0.6539 C   0  0  0  0  0  0  0  0  0  0  0  0
    5.1238    0.3001   -0.7202 C   0  0  0  0  0  0  0  0  0  0  0  0
    6.4124    0.0708   -1.2163 C   0  0  0  0  0  0  0  0  0  0  0  0
    7.5101    0.0973   -0.3502 C   0  0  0  0  0  0  0  0  0  0  0  0
    7.3246    0.3534    1.0123 C   0  0  0  0  0  0  0  0  0  0  0  0
    6.0405    0.5844    1.5165 C   0  0  0  0  0  0  0  0  0  0  0  0
    4.0555    0.2789   -1.5591 N   0  0  0  0  0  0  0  0  0  0  0  0
    2.7886    0.4933   -1.1153 C   0  0  0  0  0  0  0  0  0  0  0  0
   -6.4402   -2.1110   -3.2263 H   0  0  0  0  0  0  0  0  0  0  0  0
   -7.5215   -2.0267   -1.0826 H   0  0  0  0  0  0  0  0  0  0  0  0
   -6.0804   -3.0188   -0.6722 H   0  0  0  0  0  0  0  0  0  0  0  0
   -6.4815    0.0091   -0.2525 H   0  0  0  0  0  0  0  0  0  0  0  0
   -6.1317   -1.2562    0.9862 H   0  0  0  0  0  0  0  0  0  0  0  0
   -1.7545   -0.3844   -2.0408 H   0  0  0  0  0  0  0  0  0  0  0  0
   -3.8847    0.1622    1.6383 H   0  0  0  0  0  0  0  0  0  0  0  0
    0.1619   -0.2652   -0.6841 H   0  0  0  0  0  0  0  0  0  0  0  0
   -0.3195    2.6937    3.2335 H   0  0  0  0  0  0  0  0  0  0  0  0
   -2.3379    1.7395    2.2041 H   0  0  0  0  0  0  0  0  0  0  0  0
    3.4777    0.9797    2.1833 H   0  0  0  0  0  0  0  0  0  0  0  0
    6.5653   -0.1275   -2.2700 H   0  0  0  0  0  0  0  0  0  0  0  0
    8.5059   -0.0804   -0.7353 H   0  0  0  0  0  0  0  0  0  0  0  0
    8.1775    0.3730    1.6784 H   0  0  0  0  0  0  0  0  0  0  0  0
    5.9130    0.7815    2.5742 H   0  0  0  0  0  0  0  0  0  0  0  0
    1.9823    0.4900   -1.8356 H   0  0  0  0  0  0  0  0  0  0  0  0
  1  2  2  0
  2  3  1  0
  3  4  1  0
  4  5  1  0
  5  6  1  0
  6  7  2  0
  7  8  1  0
  8  9  2  0
  9 10  1  0
  9 11  1  0
 11 12  2  0
 12 13  1  0
 13 14  2  0
 14 15  1  0
 15 16  2  0
 13 17  1  0
 17 18  2  0
 18 19  1  0
 19 20  2  0
 20 21  1  0
 21 22  2  0
 22 23  1  0
 23 24  2  0
 20 25  1  0
 25 26  2  0
  7  2  1  0
 16 11  1  0
 26 17  1  0
 10  6  1  0
 24 19  1  0
  3 27  1  0
  4 28  1  0
  4 29  1  0
  5 30  1  0
  5 31  1  0
  8 32  1  0
 10 33  1  0
 12 34  1  0
 15 35  1  0
 16 36  1  0
 18 37  1  0
 21 38  1  0
 22 39  1  0
 23 40  1  0
 24 41  1  0
 26 42  1  0
M  END
$$$$
