
     RDKit          3D

 42 45  0  0  0  0  0  0  0  0999 V2000
    2.2930   -1.8940   -1.3474 C   0  0  2  0  0  0  0  0  0  0  0  0
    1.0627   -1.3976   -0.5730 C   0  0  0  0  0  0  0  0  0  0  0  0
    0.0801   -0.9263   -1.4924 O   0  0  0  0  0  0  0  0  0  0  0  0
   -1.1614   -0.3892   -1.1212 C   0  0  0  0  0  0  0  0  0  0  0  0
   -2.0233    0.0469   -2.1319 C   0  0  0  0  0  0  0  0  0  0  0  0
   -3.2726    0.5850   -1.8170 C   0  0  0  0  0  0  0  0  0  0  0  0
   -3.6838    0.6892   -0.4809 C   0  0  0  0  0  0  0  0  0  0  0  0
   -5.0125    1.3242   -0.1632 C   0  0  0  0  0  0  0  0  0  0  0  0
   -5.4438    1.0484    1.2823 C   0  0  0  0  0  0  0  0  0  0  0  0
   -4.3377    1.2936    2.2156 N   0  0  0  0  0  0  0  0  0  0  0  0
   -3.2479    0.3326    1.9951 C   0  0  0  0  0  0  0  0  0  0  0  0
   -2.8119    0.2787    0.5488 C   0  0  0  0  0  0  0  0  0  0  0  0
   -1.5644   -0.2761    0.2229 C   0  0  0  0  0  0  0  0  0  0  0  0
    3.3352   -2.5855   -0.4631 C   0  0  0  0  0  0  0  0  0  0  0  0
    3.5805   -1.8623    0.7349 O   0  0  0  0  0  0  0  0  0  0  0  0
    3.9781   -0.5240    0.7935 C   0  0  0  0  0  0  0  0  0  0  0  0
    4.0119    0.3775   -0.2827 C   0  0  0  0  0  0  0  0  0  0  0  0
    4.5586    1.8498    0.3321 S   0  0  0  0  0  0  0  0  0  0  0  0
    4.7432    1.3715    1.9276 C   0  0  0  0  0  0  0  0  0  0  0  0
    4.3782    0.0382    2.0137 C   0  0  0  0  0  0  0  0  0  0  0  0
    3.6401    0.1733   -1.7092 C   0  0  0  0  0  0  0  0  0  0  0  0
    4.0962    1.1151   -2.6849 N   0  0  0  0  0  0  0  0  0  0  0  0
    2.9026   -0.8170   -2.1246 N   0  0  0  0  0  0  0  0  0  0  0  0
    1.9341   -2.6545   -2.0751 H   0  0  0  0  0  0  0  0  0  0  0  0
    0.6390   -2.2389    0.0178 H   0  0  0  0  0  0  0  0  0  0  0  0
    1.3405   -0.5740    0.1174 H   0  0  0  0  0  0  0  0  0  0  0  0
   -1.7216   -0.0307   -3.1689 H   0  0  0  0  0  0  0  0  0  0  0  0
   -3.9209    0.9230   -2.6162 H   0  0  0  0  0  0  0  0  0  0  0  0
   -4.9260    2.4218   -0.3156 H   0  0  0  0  0  0  0  0  0  0  0  0
   -5.7938    0.9380   -0.8533 H   0  0  0  0  0  0  0  0  0  0  0  0
   -6.2955    1.7128    1.5426 H   0  0  0  0  0  0  0  0  0  0  0  0
   -5.7992   -0.0020    1.3793 H   0  0  0  0  0  0  0  0  0  0  0  0
   -3.9708    2.2636    2.0660 H   0  0  0  0  0  0  0  0  0  0  0  0
   -3.5780   -0.6803    2.3122 H   0  0  0  0  0  0  0  0  0  0  0  0
   -2.3850    0.6178    2.6361 H   0  0  0  0  0  0  0  0  0  0  0  0
   -0.9178   -0.6176    1.0204 H   0  0  0  0  0  0  0  0  0  0  0  0
    4.2877   -2.7191   -1.0209 H   0  0  0  0  0  0  0  0  0  0  0  0
    2.9648   -3.5956   -0.1867 H   0  0  0  0  0  0  0  0  0  0  0  0
    5.0839    1.9912    2.7459 H   0  0  0  0  0  0  0  0  0  0  0  0
    4.4040   -0.5188    2.9411 H   0  0  0  0  0  0  0  0  0  0  0  0
    3.8209    1.0083   -3.6868 H   0  0  0  0  0  0  0  0  0  0  0  0
    4.7325    1.9029   -2.4338 H   0  0  0  0  0  0  0  0  0  0  0  0
  1  2  1  0
  2  3  1  0
  3  4  1  0
  4  5  2  0
  5  6  1  0
  6  7  2  0
  7  8  1  0
  8  9  1  0
  9 10  1  0
 10 11  1  0
 11 12  1  0
 12 13  2  0
  1 14  1  0
 14 15  1  0
 15 16  1  0
 16 17  2  0
 17 18  1  0
 18 19  1  0
 19 20  2  0
 17 21  1  0
 21 22  1  0
 21 23  2  0
 23  1  1  0
 13  4  1  0
 20 16  1  0
 12  7  1  0
  1 24  1  6
  2 25  1  0
  2 26  1  0
  5 27  1  0
  6 28  1  0
  8 29  1  0
  8 30  1  0
  9 31  1  0
  9 32  1  0
 10 33  1  0
 11 34  1  0
 11 35  1  0
 13 36  1  0
 14 37  1  0
 14 38  1  0
 19 39  1  0
 20 40  1  0
 22 41  1  0
 22 42  1  0
M  END
$$$$
