
     RDKit          3D

 53 56  0  0  0  0  0  0  0  0999 V2000
   -3.6305   -2.0220   -1.6670 C   0  0  1  0  0  0  0  0  0  0  0  0
   -4.0108   -3.0236   -2.5800 O   0  0  0  0  0  0  0  0  0  0  0  0
   -2.1166   -1.7729   -1.7097 C   0  0  0  0  0  0  0  0  0  0  0  0
   -1.9062   -0.3590   -2.0636 N   0  0  0  0  0  0  0  0  0  0  0  0
   -0.7467   -0.1555   -2.9513 C   0  0  0  0  0  0  0  0  0  0  0  0
    0.5293   -0.3856   -2.1986 C   0  0  0  0  0  0  0  0  0  0  0  0
    1.2026   -1.4271   -2.4255 O   0  0  0  0  0  0  0  0  0  0  0  0
    0.9321    0.5400   -1.1772 N   0  0  0  0  0  0  0  0  0  0  0  0
    2.1980    0.4854   -0.4970 C   0  0  0  0  0  0  0  0  0  0  0  0
    2.2750    0.8481    0.8578 C   0  0  0  0  0  0  0  0  0  0  0  0
    1.1559    1.2077    1.5358 F   0  0  0  0  0  0  0  0  0  0  0  0
    3.5017    0.8214    1.5282 C   0  0  0  0  0  0  0  0  0  0  0  0
    4.6744    0.4498    0.8516 C   0  0  0  0  0  0  0  0  0  0  0  0
    4.6007    0.1025   -0.5062 C   0  0  0  0  0  0  0  0  0  0  0  0
    3.3753    0.1278   -1.1775 C   0  0  0  0  0  0  0  0  0  0  0  0
    5.9388    0.4144    1.5442 N   0  0  0  0  0  0  0  0  0  0  0  0
    6.6547   -0.7526    1.5515 C   0  0  0  0  0  0  0  0  0  0  0  0
    7.8790   -0.8335    2.2176 C   0  0  0  0  0  0  0  0  0  0  0  0
    8.3742    0.2878    2.8783 C   0  0  0  0  0  0  0  0  0  0  0  0
    7.6464    1.4757    2.8637 C   0  0  0  0  0  0  0  0  0  0  0  0
    6.4238    1.5288    2.1853 C   0  0  0  0  0  0  0  0  0  0  0  0
    5.7852    2.6167    2.1600 O   0  0  0  0  0  0  0  0  0  0  0  0
   -3.1491    0.0895   -2.6957 C   0  0  0  0  0  0  0  0  0  0  0  0
   -4.2752   -0.6780   -2.0169 C   0  0  2  0  0  0  0  0  0  0  0  0
   -4.7211    0.0103   -0.7981 N   0  0  0  0  0  0  0  0  0  0  0  0
   -5.9167   -0.3842   -0.1050 C   0  0  0  0  0  0  0  0  0  0  0  0
   -6.6435   -1.2976   -0.5822 O   0  0  0  0  0  0  0  0  0  0  0  0
   -6.3198    0.2586    1.1605 C   0  0  0  0  0  0  0  0  0  0  0  0
   -5.6084    1.2155    1.8851 C   0  0  0  0  0  0  0  0  0  0  0  0
   -6.2593    1.6218    3.0565 C   0  0  0  0  0  0  0  0  0  0  0  0
   -7.4753    0.9868    3.2543 C   0  0  0  0  0  0  0  0  0  0  0  0
   -8.5554    1.2425    4.6084 Cl  0  0  0  0  0  0  0  0  0  0  0  0
   -7.7503   -0.0782    1.9865 S   0  0  0  0  0  0  0  0  0  0  0  0
   -3.9279   -2.3551   -0.6481 H   0  0  0  0  0  0  0  0  0  0  0  0
   -3.7579   -2.7191   -3.4914 H   0  0  0  0  0  0  0  0  0  0  0  0
   -1.6275   -2.4668   -2.4317 H   0  0  0  0  0  0  0  0  0  0  0  0
   -1.6743   -1.9608   -0.7076 H   0  0  0  0  0  0  0  0  0  0  0  0
   -0.7982   -0.8209   -3.8435 H   0  0  0  0  0  0  0  0  0  0  0  0
   -0.7363    0.8942   -3.3194 H   0  0  0  0  0  0  0  0  0  0  0  0
    0.2264    1.2393   -0.8522 H   0  0  0  0  0  0  0  0  0  0  0  0
    3.5395    1.0814    2.5786 H   0  0  0  0  0  0  0  0  0  0  0  0
    5.4977   -0.1716   -1.0472 H   0  0  0  0  0  0  0  0  0  0  0  0
    3.3545   -0.1069   -2.2334 H   0  0  0  0  0  0  0  0  0  0  0  0
    6.2749   -1.6353    1.0498 H   0  0  0  0  0  0  0  0  0  0  0  0
    8.4374   -1.7606    2.2230 H   0  0  0  0  0  0  0  0  0  0  0  0
    9.3218    0.2373    3.3988 H   0  0  0  0  0  0  0  0  0  0  0  0
    8.0329    2.3511    3.3713 H   0  0  0  0  0  0  0  0  0  0  0  0
   -3.2687    1.1888   -2.5815 H   0  0  0  0  0  0  0  0  0  0  0  0
   -3.1563   -0.1543   -3.7842 H   0  0  0  0  0  0  0  0  0  0  0  0
   -5.1338   -0.7903   -2.7168 H   0  0  0  0  0  0  0  0  0  0  0  0
   -4.1694    0.8218   -0.4423 H   0  0  0  0  0  0  0  0  0  0  0  0
   -4.6457    1.6118    1.5960 H   0  0  0  0  0  0  0  0  0  0  0  0
   -5.8514    2.3550    3.7395 H   0  0  0  0  0  0  0  0  0  0  0  0
  1  2  1  0
  1  3  1  0
  3  4  1  0
  4  5  1  0
  5  6  1  0
  6  7  2  0
  6  8  1  0
  8  9  1  0
  9 10  2  0
 10 11  1  0
 10 12  1  0
 12 13  2  0
 13 14  1  0
 14 15  2  0
 13 16  1  0
 16 17  1  0
 17 18  2  0
 18 19  1  0
 19 20  2  0
 20 21  1  0
 21 22  2  0
  4 23  1  0
 23 24  1  0
 24 25  1  0
 25 26  1  0
 26 27  2  0
 26 28  1  0
 28 29  2  0
 29 30  1  0
 30 31  2  0
 31 32  1  0
 31 33  1  0
 24  1  1  0
 33 28  1  0
 15  9  1  0
 21 16  1  0
  1 34  1  1
  2 35  1  0
  3 36  1  0
  3 37  1  0
  5 38  1  0
  5 39  1  0
  8 40  1  0
 12 41  1  0
 14 42  1  0
 15 43  1  0
 17 44  1  0
 18 45  1  0
 19 46  1  0
 20 47  1  0
 23 48  1  0
 23 49  1  0
 24 50  1  6
 25 51  1  0
 29 52  1  0
 30 53  1  0
M  END
$$$$
