
     RDKit          3D

 15 14  0  0  0  0  0  0  0  0999 V2000
   -2.2673    0.5747   -0.6246 O   0  0  0  0  0  0  0  0  0  0  0  0
   -1.7758   -0.0993    0.5010 C   0  0  0  0  0  0  0  0  0  0  0  0
   -0.2758    0.1567    0.6549 C   0  0  0  0  0  0  0  0  0  0  0  0
    0.5244   -0.4434   -0.5065 C   0  0  0  0  0  0  0  0  0  0  0  0
    1.9870   -0.1933   -0.3172 C   0  0  0  0  0  0  0  0  0  0  0  0
    2.5555    0.9848   -0.7912 O   0  0  0  0  0  0  0  0  0  0  0  0
    2.6956   -1.0291    0.3052 O   0  0  0  0  0  0  0  0  0  0  0  0
   -3.2359    0.3637   -0.6700 H   0  0  0  0  0  0  0  0  0  0  0  0
   -2.2974    0.2709    1.4117 H   0  0  0  0  0  0  0  0  0  0  0  0
   -1.9647   -1.1923    0.4055 H   0  0  0  0  0  0  0  0  0  0  0  0
    0.0651   -0.2991    1.6106 H   0  0  0  0  0  0  0  0  0  0  0  0
   -0.0963    1.2532    0.7104 H   0  0  0  0  0  0  0  0  0  0  0  0
    0.2027    0.0147   -1.4666 H   0  0  0  0  0  0  0  0  0  0  0  0
    0.3419   -1.5387   -0.5662 H   0  0  0  0  0  0  0  0  0  0  0  0
    3.5410    1.1766   -0.6570 H   0  0  0  0  0  0  0  0  0  0  0  0
  1  2  1  0
  2  3  1  0
  3  4  1  0
  4  5  1  0
  5  6  1  0
  5  7  2  0
  1  8  1  0
  2  9  1  0
  2 10  1  0
  3 11  1  0
  3 12  1  0
  4 13  1  0
  4 14  1  0
  6 15  1  0
M  END
$$$$
