
     RDKit          3D

 55 57  0  0  0  0  0  0  0  0999 V2000
    0.2282   -3.0962   -0.0989 O   0  0  0  0  0  0  0  0  0  0  0  0
    0.3886   -2.6644   -1.4134 C   0  0  0  0  0  0  0  0  0  0  0  0
   -0.2472   -3.2365   -2.3389 O   0  0  0  0  0  0  0  0  0  0  0  0
    1.2749   -1.4881   -1.7356 C   0  0  2  0  0  0  0  0  0  0  0  0
    2.3788   -1.2812   -0.6690 C   0  0  0  0  0  0  0  0  0  0  0  0
    3.4472   -0.2718   -1.1140 C   0  0  0  0  0  0  0  0  0  0  0  0
    4.5426   -0.1763   -0.0857 C   0  0  0  0  0  0  0  0  0  0  0  0
    5.6452   -1.0454   -0.1422 C   0  0  0  0  0  0  0  0  0  0  0  0
    6.6450   -0.9789    0.8332 C   0  0  0  0  0  0  0  0  0  0  0  0
    6.5466   -0.0527    1.8753 C   0  0  0  0  0  0  0  0  0  0  0  0
    5.4463    0.8061    1.9458 C   0  0  0  0  0  0  0  0  0  0  0  0
    4.4443    0.7431    0.9725 C   0  0  0  0  0  0  0  0  0  0  0  0
    0.4579   -0.2822   -1.9838 N   0  0  0  0  0  0  0  0  0  0  0  0
   -0.3111    0.2279   -0.8238 C   0  0  1  0  0  0  0  0  0  0  0  0
    0.2619    1.5589   -0.2875 C   0  0  0  0  0  0  0  0  0  0  0  0
   -0.7310    2.3394    0.5914 C   0  0  0  0  0  0  0  0  0  0  0  0
   -1.5395    1.4228    1.5227 C   0  0  0  0  0  0  0  0  0  0  0  0
   -2.8636    1.0483    0.9622 N   0  0  0  0  0  0  0  0  0  0  0  0
   -3.5848    0.2775    1.9981 C   0  0  0  0  0  0  0  0  0  0  0  0
   -4.9928   -0.0820    1.5374 C   0  0  0  0  0  0  0  0  0  0  0  0
   -4.9143   -0.9273    0.2729 C   0  0  0  0  0  0  0  0  0  0  0  0
   -4.0882   -0.2193   -0.8065 C   0  0  2  0  0  0  0  0  0  0  0  0
   -2.8126    0.2844   -0.2510 N   0  0  0  0  0  0  0  0  0  0  0  0
   -1.7432    0.4227   -1.2200 C   0  0  0  0  0  0  0  0  0  0  0  0
   -2.0117    0.7400   -2.4125 O   0  0  0  0  0  0  0  0  0  0  0  0
   -4.8772    0.8988   -1.4401 C   0  0  0  0  0  0  0  0  0  0  0  0
   -4.7954    2.1950   -0.9383 O   0  0  0  0  0  0  0  0  0  0  0  0
   -5.6439    0.6518   -2.4092 O   0  0  0  0  0  0  0  0  0  0  0  0
   -0.3832   -3.8729    0.1222 H   0  0  0  0  0  0  0  0  0  0  0  0
    1.7905   -1.7453   -2.6883 H   0  0  0  0  0  0  0  0  0  0  0  0
    1.9414   -0.9621    0.3003 H   0  0  0  0  0  0  0  0  0  0  0  0
    2.8811   -2.2589   -0.4933 H   0  0  0  0  0  0  0  0  0  0  0  0
    3.8774   -0.5860   -2.0903 H   0  0  0  0  0  0  0  0  0  0  0  0
    2.9955    0.7312   -1.2618 H   0  0  0  0  0  0  0  0  0  0  0  0
    5.7285   -1.7740   -0.9391 H   0  0  0  0  0  0  0  0  0  0  0  0
    7.4943   -1.6479    0.7832 H   0  0  0  0  0  0  0  0  0  0  0  0
    7.3207   -0.0034    2.6302 H   0  0  0  0  0  0  0  0  0  0  0  0
    5.3681    1.5188    2.7566 H   0  0  0  0  0  0  0  0  0  0  0  0
    3.5937    1.4091    1.0439 H   0  0  0  0  0  0  0  0  0  0  0  0
    1.0317    0.4595   -2.4474 H   0  0  0  0  0  0  0  0  0  0  0  0
   -0.3080   -0.5188   -0.0036 H   0  0  0  0  0  0  0  0  0  0  0  0
    0.5625    2.2228   -1.1271 H   0  0  0  0  0  0  0  0  0  0  0  0
    1.1721    1.3418    0.3097 H   0  0  0  0  0  0  0  0  0  0  0  0
   -0.1514    3.0677    1.2005 H   0  0  0  0  0  0  0  0  0  0  0  0
   -1.4224    2.9331   -0.0467 H   0  0  0  0  0  0  0  0  0  0  0  0
   -1.7080    2.0084    2.4546 H   0  0  0  0  0  0  0  0  0  0  0  0
   -0.9557    0.5296    1.8363 H   0  0  0  0  0  0  0  0  0  0  0  0
   -3.6826    0.8829    2.9268 H   0  0  0  0  0  0  0  0  0  0  0  0
   -3.0296   -0.6558    2.2494 H   0  0  0  0  0  0  0  0  0  0  0  0
   -5.5782    0.8439    1.3487 H   0  0  0  0  0  0  0  0  0  0  0  0
   -5.5079   -0.6599    2.3350 H   0  0  0  0  0  0  0  0  0  0  0  0
   -4.4343   -1.9012    0.5165 H   0  0  0  0  0  0  0  0  0  0  0  0
   -5.9397   -1.1449   -0.0990 H   0  0  0  0  0  0  0  0  0  0  0  0
   -3.8740   -0.9794   -1.5930 H   0  0  0  0  0  0  0  0  0  0  0  0
   -5.3335    2.9472   -1.3512 H   0  0  0  0  0  0  0  0  0  0  0  0
  1  2  1  0
  2  3  2  0
  2  4  1  0
  4  5  1  0
  5  6  1  0
  6  7  1  0
  7  8  2  0
  8  9  1  0
  9 10  2  0
 10 11  1  0
 11 12  2  0
  4 13  1  0
 13 14  1  0
 14 15  1  0
 15 16  1  0
 16 17  1  0
 17 18  1  0
 18 19  1  0
 19 20  1  0
 20 21  1  0
 21 22  1  0
 22 23  1  0
 23 24  1  0
 24 25  2  0
 22 26  1  0
 26 27  1  0
 26 28  2  0
 12  7  1  0
 24 14  1  0
 23 18  1  0
  1 29  1  0
  4 30  1  6
  5 31  1  0
  5 32  1  0
  6 33  1  0
  6 34  1  0
  8 35  1  0
  9 36  1  0
 10 37  1  0
 11 38  1  0
 12 39  1  0
 13 40  1  0
 14 41  1  1
 15 42  1  0
 15 43  1  0
 16 44  1  0
 16 45  1  0
 17 46  1  0
 17 47  1  0
 19 48  1  0
 19 49  1  0
 20 50  1  0
 20 51  1  0
 21 52  1  0
 21 53  1  0
 22 54  1  6
 27 55  1  0
M  END
$$$$
