
     RDKit          3D

 36 35  0  0  0  0  0  0  0  0999 V2000
    4.2732   -2.4107    0.6728 N   0  0  0  0  0  0  0  0  0  0  0  0
    4.0214   -1.1722   -0.0672 C   0  0  1  0  0  0  0  0  0  0  0  0
    2.5695   -0.7121    0.1635 C   0  0  0  0  0  0  0  0  0  0  0  0
    2.1788    0.4595   -0.7547 C   0  0  0  0  0  0  0  0  0  0  0  0
    0.7181    0.8850   -0.5509 C   0  0  0  0  0  0  0  0  0  0  0  0
   -0.2161   -0.1139   -1.0790 N   0  0  0  0  0  0  0  0  0  0  0  0
   -1.6483   -0.0245   -0.9440 C   0  0  0  0  0  0  0  0  0  0  0  0
   -2.4379   -1.1249   -1.4225 N   0  0  0  0  0  0  0  0  0  0  0  0
   -2.2072    1.0362   -0.4111 N   0  0  0  0  0  4  0  0  0  0  0  0
   -3.6485    1.2188   -0.2135 C   0  0  0  0  0  0  0  0  0  0  0  0
   -4.1342    0.4241    1.0049 C   0  0  0  0  0  0  0  0  0  0  0  0
   -5.6352    0.5988    1.2142 C   0  0  0  0  0  0  0  0  0  0  0  0
    5.0119   -0.1066    0.3289 C   0  0  0  0  0  0  0  0  0  0  0  0
    5.8561    0.4423   -0.6312 O   0  0  0  0  0  0  0  0  0  0  0  0
    5.0761    0.2932    1.5229 O   0  0  0  0  0  0  0  0  0  0  0  0
    4.2170   -2.2227    1.7009 H   0  0  0  0  0  0  0  0  0  0  0  0
    5.2466   -2.7340    0.4656 H   0  0  0  0  0  0  0  0  0  0  0  0
    4.1487   -1.3905   -1.1511 H   0  0  0  0  0  0  0  0  0  0  0  0
    1.8940   -1.5722   -0.0346 H   0  0  0  0  0  0  0  0  0  0  0  0
    2.4329   -0.4156    1.2271 H   0  0  0  0  0  0  0  0  0  0  0  0
    2.8277    1.3331   -0.5286 H   0  0  0  0  0  0  0  0  0  0  0  0
    2.3400    0.1830   -1.8197 H   0  0  0  0  0  0  0  0  0  0  0  0
    0.5281    1.0433    0.5332 H   0  0  0  0  0  0  0  0  0  0  0  0
    0.5553    1.8472   -1.0828 H   0  0  0  0  0  0  0  0  0  0  0  0
    0.1668   -0.9505   -1.5752 H   0  0  0  0  0  0  0  0  0  0  0  0
   -1.9663   -1.9640   -1.8266 H   0  0  0  0  0  0  0  0  0  0  0  0
   -3.4797   -1.1354   -1.4030 H   0  0  0  0  0  0  0  0  0  0  0  0
   -1.6137    1.8394   -0.1087 H   0  0  0  0  0  0  0  0  0  0  0  0
   -3.8486    2.2976   -0.0288 H   0  0  0  0  0  0  0  0  0  0  0  0
   -4.2103    0.9480   -1.1331 H   0  0  0  0  0  0  0  0  0  0  0  0
   -3.9137   -0.6564    0.8770 H   0  0  0  0  0  0  0  0  0  0  0  0
   -3.5982    0.7793    1.9118 H   0  0  0  0  0  0  0  0  0  0  0  0
   -6.1931    0.2270    0.3285 H   0  0  0  0  0  0  0  0  0  0  0  0
   -5.9563    0.0193    2.1053 H   0  0  0  0  0  0  0  0  0  0  0  0
   -5.8802    1.6697    1.3797 H   0  0  0  0  0  0  0  0  0  0  0  0
    6.5253    1.1616   -0.3844 H   0  0  0  0  0  0  0  0  0  0  0  0
  1  2  1  0
  2  3  1  0
  3  4  1  0
  4  5  1  0
  5  6  1  0
  6  7  1  0
  7  8  1  0
  7  9  2  0
  9 10  1  0
 10 11  1  0
 11 12  1  0
  2 13  1  0
 13 14  1  0
 13 15  2  0
  1 16  1  0
  1 17  1  0
  2 18  1  6
  3 19  1  0
  3 20  1  0
  4 21  1  0
  4 22  1  0
  5 23  1  0
  5 24  1  0
  6 25  1  0
  8 26  1  0
  8 27  1  0
  9 28  1  0
 10 29  1  0
 10 30  1  0
 11 31  1  0
 11 32  1  0
 12 33  1  0
 12 34  1  0
 12 35  1  0
 14 36  1  0
M  CHG  1   9   1
M  END
$$$$
