
     RDKit          3D

 38 40  0  0  0  0  0  0  0  0999 V2000
   -2.9943    0.5622    1.0064 C   0  0  1  0  0  0  0  0  0  0  0  0
   -3.3647    0.4186    2.4910 C   0  0  0  0  0  0  0  0  0  0  0  0
   -2.9563   -0.8252    2.9961 O   0  0  0  0  0  0  0  0  0  0  0  0
   -1.5949    0.3680    0.8662 O   0  0  0  0  0  0  0  0  0  0  0  0
   -1.2223    0.4430   -0.4966 C   0  0  1  0  0  0  0  0  0  0  0  0
    0.2680    0.5769   -0.5847 C   0  0  0  0  0  0  0  0  0  0  0  0
    1.1262   -0.1396    0.1837 N   0  0  0  0  0  0  0  0  0  0  0  0
    2.4151    0.1332   -0.1427 C   0  0  0  0  0  0  0  0  0  0  0  0
    3.5237   -0.4474    0.4745 C   0  0  0  0  0  0  0  0  0  0  0  0
    4.8158   -0.0775    0.0446 C   0  0  0  0  0  0  0  0  0  0  0  0
    6.0238   -0.7151    0.6634 C   0  0  0  0  0  0  0  0  0  0  0  0
    4.9672    0.8454   -1.0169 C   0  0  0  0  0  0  0  0  0  0  0  0
    3.8422    1.4198   -1.6290 C   0  0  0  0  0  0  0  0  0  0  0  0
    2.5832    1.0470   -1.1696 C   0  0  0  0  0  0  0  0  0  0  0  0
    1.0775    1.5510   -1.7112 S   0  0  0  0  0  0  0  0  0  0  0  0
   -1.6970   -0.8197   -1.2644 C   0  0  2  0  0  0  0  0  0  0  0  0
   -2.0053   -0.4757   -2.5915 O   0  0  0  0  0  0  0  0  0  0  0  0
   -2.9461   -1.4529   -0.5982 C   0  0  1  0  0  0  0  0  0  0  0  0
   -2.5878   -2.4709    0.3066 O   0  0  0  0  0  0  0  0  0  0  0  0
   -3.8337   -0.3944    0.0976 C   0  0  2  0  0  0  0  0  0  0  0  0
   -4.4947    0.3726   -0.8786 O   0  0  0  0  0  0  0  0  0  0  0  0
   -3.2344    1.6193    0.7432 H   0  0  0  0  0  0  0  0  0  0  0  0
   -4.4593    0.5738    2.6365 H   0  0  0  0  0  0  0  0  0  0  0  0
   -2.8448    1.2138    3.0669 H   0  0  0  0  0  0  0  0  0  0  0  0
   -3.7177   -1.4506    2.8792 H   0  0  0  0  0  0  0  0  0  0  0  0
   -1.6611    1.3568   -0.9647 H   0  0  0  0  0  0  0  0  0  0  0  0
    3.3873   -1.1700    1.2700 H   0  0  0  0  0  0  0  0  0  0  0  0
    6.2817   -1.6379    0.1031 H   0  0  0  0  0  0  0  0  0  0  0  0
    6.8901   -0.0202    0.6363 H   0  0  0  0  0  0  0  0  0  0  0  0
    5.8277   -0.9782    1.7247 H   0  0  0  0  0  0  0  0  0  0  0  0
    5.9551    1.1167   -1.3680 H   0  0  0  0  0  0  0  0  0  0  0  0
    3.9523    2.1285   -2.4395 H   0  0  0  0  0  0  0  0  0  0  0  0
   -0.8951   -1.5973   -1.2720 H   0  0  0  0  0  0  0  0  0  0  0  0
   -1.1411   -0.3443   -3.0624 H   0  0  0  0  0  0  0  0  0  0  0  0
   -3.5531   -1.9455   -1.3900 H   0  0  0  0  0  0  0  0  0  0  0  0
   -1.8983   -2.1141    0.9230 H   0  0  0  0  0  0  0  0  0  0  0  0
   -4.6016   -0.9292    0.7051 H   0  0  0  0  0  0  0  0  0  0  0  0
   -5.2332   -0.1855   -1.2384 H   0  0  0  0  0  0  0  0  0  0  0  0
  1  2  1  0
  2  3  1  0
  1  4  1  0
  4  5  1  0
  5  6  1  0
  6  7  2  0
  7  8  1  0
  8  9  2  0
  9 10  1  0
 10 11  1  0
 10 12  2  0
 12 13  1  0
 13 14  2  0
 14 15  1  0
  5 16  1  0
 16 17  1  0
 16 18  1  0
 18 19  1  0
 18 20  1  0
 20 21  1  0
 20  1  1  0
 15  6  1  0
 14  8  1  0
  1 22  1  6
  2 23  1  0
  2 24  1  0
  3 25  1  0
  5 26  1  6
  9 27  1  0
 11 28  1  0
 11 29  1  0
 11 30  1  0
 12 31  1  0
 13 32  1  0
 16 33  1  6
 17 34  1  0
 18 35  1  6
 19 36  1  0
 20 37  1  1
 21 38  1  0
M  END
$$$$
