
     RDKit          3D

 39 40  0  0  0  0  0  0  0  0999 V2000
    0.3581    1.0220   -2.5833 O   0  0  0  0  0  0  0  0  0  0  0  0
   -0.4713    0.6948   -1.4919 C   0  0  1  0  0  0  0  0  0  0  0  0
   -1.6623   -0.1580   -1.8716 C   0  0  1  0  0  0  0  0  0  0  0  0
   -1.3909   -0.9616   -2.9932 O   0  0  0  0  0  0  0  0  0  0  0  0
   -1.8550   -1.0470   -0.6338 C   0  0  1  0  0  0  0  0  0  0  0  0
   -0.7636   -0.8787    0.2528 O   0  0  0  0  0  0  0  0  0  0  0  0
    0.2286   -0.1502   -0.4298 C   0  0  2  0  0  0  0  0  0  0  0  0
    1.0199    0.7050    0.5696 C   0  0  0  0  0  0  0  0  0  0  0  0
    1.9902    1.4830   -0.1022 O   0  0  0  0  0  0  0  0  0  0  0  0
    3.5369    0.7844    0.0852 P   0  0  0  0  0  5  0  0  0  0  0  0
    3.5345   -0.7900   -0.5409 O   0  0  0  0  0  0  0  0  0  0  0  0
    4.5248    1.6235   -0.6944 O   0  0  0  0  0  0  0  0  0  0  0  0
    3.9408    0.7737    1.7414 O   0  0  0  0  0  0  0  0  0  0  0  0
    5.5552    0.2513    1.8826 P   0  0  0  0  0  5  0  0  0  0  0  0
    5.7763   -1.2433    1.1183 O   0  0  0  0  0  0  0  0  0  0  0  0
    6.6037    1.3954    1.2052 O   0  0  0  0  0  0  0  0  0  0  0  0
    5.8848    0.0984    3.3500 O   0  0  0  0  0  0  0  0  0  0  0  0
   -3.1230   -0.7151    0.0503 N   0  0  0  0  0  0  0  0  0  0  0  0
   -3.1747    0.3605    0.8960 C   0  0  0  0  0  0  0  0  0  0  0  0
   -4.3644    0.7126    1.5268 C   0  0  0  0  0  0  0  0  0  0  0  0
   -5.5044   -0.0398    1.2670 C   0  0  0  0  0  0  0  0  0  0  0  0
   -6.5949    0.2551    1.8249 O   0  0  0  0  0  0  0  0  0  0  0  0
   -5.4397   -1.0889    0.4064 N   0  0  0  0  0  0  0  0  0  0  0  0
   -4.2711   -1.4250   -0.2076 C   0  0  0  0  0  0  0  0  0  0  0  0
   -4.2605   -2.3923   -1.0180 O   0  0  0  0  0  0  0  0  0  0  0  0
    0.8177    0.1980   -2.8909 H   0  0  0  0  0  0  0  0  0  0  0  0
   -0.8480    1.6390   -1.0383 H   0  0  0  0  0  0  0  0  0  0  0  0
   -2.5587    0.4805   -2.0608 H   0  0  0  0  0  0  0  0  0  0  0  0
   -1.5785   -0.4066   -3.7948 H   0  0  0  0  0  0  0  0  0  0  0  0
   -1.8555   -2.1187   -0.9357 H   0  0  0  0  0  0  0  0  0  0  0  0
    0.9183   -0.8804   -0.9069 H   0  0  0  0  0  0  0  0  0  0  0  0
    0.3186    1.4011    1.0774 H   0  0  0  0  0  0  0  0  0  0  0  0
    1.4275    0.0560    1.3794 H   0  0  0  0  0  0  0  0  0  0  0  0
    3.1547   -1.3528    0.1800 H   0  0  0  0  0  0  0  0  0  0  0  0
    6.7515   -1.4094    1.1653 H   0  0  0  0  0  0  0  0  0  0  0  0
    6.3685    2.2483    1.6505 H   0  0  0  0  0  0  0  0  0  0  0  0
   -2.2927    0.9591    1.0874 H   0  0  0  0  0  0  0  0  0  0  0  0
   -4.3974    1.5597    2.2010 H   0  0  0  0  0  0  0  0  0  0  0  0
   -6.3039   -1.6435    0.2075 H   0  0  0  0  0  0  0  0  0  0  0  0
  1  2  1  0
  2  3  1  0
  3  4  1  0
  3  5  1  0
  5  6  1  0
  6  7  1  0
  7  8  1  0
  8  9  1  0
  9 10  1  0
 10 11  1  0
 10 12  2  0
 10 13  1  0
 13 14  1  0
 14 15  1  0
 14 16  1  0
 14 17  2  0
  5 18  1  0
 18 19  1  0
 19 20  2  0
 20 21  1  0
 21 22  2  0
 21 23  1  0
 23 24  1  0
 24 25  2  0
  7  2  1  0
 24 18  1  0
  1 26  1  0
  2 27  1  1
  3 28  1  6
  4 29  1  0
  5 30  1  6
  7 31  1  6
  8 32  1  0
  8 33  1  0
 11 34  1  0
 15 35  1  0
 16 36  1  0
 19 37  1  0
 20 38  1  0
 23 39  1  0
M  END
$$$$
