
     RDKit          3D

 49 52  0  0  0  0  0  0  0  0999 V2000
   -0.8185   -2.1874    0.4805 C   0  0  0  0  0  0  0  0  0  0  0  0
    0.2451   -1.5080   -0.1772 O   0  0  0  0  0  0  0  0  0  0  0  0
    0.3815   -0.1145   -0.3020 C   0  0  0  0  0  0  0  0  0  0  0  0
    1.6933    0.4613   -0.2645 C   0  0  0  0  0  0  0  0  0  0  0  0
    2.8242   -0.2660    0.0739 N   0  0  0  0  0  0  0  0  0  0  0  0
    4.0725    0.2525   -0.1426 C   0  0  0  0  0  0  0  0  0  0  0  0
    4.2633    1.5820   -0.5317 C   0  0  0  0  0  0  0  0  0  0  0  0
    5.6484    2.0992   -0.7053 C   0  0  0  0  0  0  0  0  0  0  0  0
    6.7408    1.2733   -0.4505 O   0  0  0  0  0  0  0  0  0  0  0  0
    5.8555    3.2829   -1.0864 O   0  0  0  0  0  0  0  0  0  0  0  0
    3.1311    2.3890   -0.7244 C   0  0  0  0  0  0  0  0  0  0  0  0
    3.2671    3.6085   -1.0228 O   0  0  0  0  0  0  0  0  0  0  0  0
    1.8432    1.8345   -0.6034 C   0  0  0  0  0  0  0  0  0  0  0  0
    0.7114    2.6289   -0.8371 C   0  0  0  0  0  0  0  0  0  0  0  0
   -0.5610    2.0819   -0.7954 C   0  0  0  0  0  0  0  0  0  0  0  0
   -1.6246    2.8756   -1.0808 F   0  0  0  0  0  0  0  0  0  0  0  0
   -0.7447    0.7181   -0.5449 C   0  0  0  0  0  0  0  0  0  0  0  0
   -2.0700    0.1793   -0.6808 N   0  0  0  0  0  0  0  0  0  0  0  0
   -2.5051   -0.2392   -2.0196 C   0  0  0  0  0  0  0  0  0  0  0  0
   -3.6827   -1.2420   -1.9735 C   0  0  0  0  0  0  0  0  0  0  0  0
   -4.4758   -1.2001   -0.7308 N   0  0  0  0  0  0  0  0  0  0  0  0
   -4.4807    0.1332   -0.1170 C   0  0  0  0  0  0  0  0  0  0  0  0
   -5.4751    0.1702    1.0453 C   0  0  0  0  0  0  0  0  0  0  0  0
   -3.0635    0.4945    0.3555 C   0  0  0  0  0  0  0  0  0  0  0  0
    2.7674   -1.6211    0.6569 C   0  0  0  0  0  0  0  0  0  0  0  0
    3.6171   -1.8171    1.9149 C   0  0  0  0  0  0  0  0  0  0  0  0
    2.1152   -1.6836    2.0362 C   0  0  0  0  0  0  0  0  0  0  0  0
   -1.6944   -2.2781   -0.1854 H   0  0  0  0  0  0  0  0  0  0  0  0
   -0.4841   -3.2157    0.7266 H   0  0  0  0  0  0  0  0  0  0  0  0
   -1.0801   -1.6719    1.4275 H   0  0  0  0  0  0  0  0  0  0  0  0
    4.9435   -0.3703    0.0289 H   0  0  0  0  0  0  0  0  0  0  0  0
    7.6884    1.6125   -0.5660 H   0  0  0  0  0  0  0  0  0  0  0  0
    0.8071    3.6806   -1.0790 H   0  0  0  0  0  0  0  0  0  0  0  0
   -2.8192    0.6641   -2.5869 H   0  0  0  0  0  0  0  0  0  0  0  0
   -1.6564   -0.7008   -2.5712 H   0  0  0  0  0  0  0  0  0  0  0  0
   -3.2887   -2.2724   -2.1190 H   0  0  0  0  0  0  0  0  0  0  0  0
   -4.3583   -1.0414   -2.8325 H   0  0  0  0  0  0  0  0  0  0  0  0
   -4.0760   -1.8894   -0.0503 H   0  0  0  0  0  0  0  0  0  0  0  0
   -4.8166    0.8840   -0.8686 H   0  0  0  0  0  0  0  0  0  0  0  0
   -6.4944   -0.0710    0.6760 H   0  0  0  0  0  0  0  0  0  0  0  0
   -5.1946   -0.5690    1.8262 H   0  0  0  0  0  0  0  0  0  0  0  0
   -5.4957    1.1843    1.4984 H   0  0  0  0  0  0  0  0  0  0  0  0
   -3.0304    1.5761    0.6080 H   0  0  0  0  0  0  0  0  0  0  0  0
   -2.8156   -0.0761    1.2752 H   0  0  0  0  0  0  0  0  0  0  0  0
    2.6753   -2.4976   -0.0194 H   0  0  0  0  0  0  0  0  0  0  0  0
    3.9824   -2.8536    2.0733 H   0  0  0  0  0  0  0  0  0  0  0  0
    4.1567   -0.9307    2.3115 H   0  0  0  0  0  0  0  0  0  0  0  0
    1.5969   -2.6398    2.2585 H   0  0  0  0  0  0  0  0  0  0  0  0
    1.7789   -0.7097    2.4522 H   0  0  0  0  0  0  0  0  0  0  0  0
  1  2  1  0
  2  3  1  0
  3  4  2  0
  4  5  1  0
  5  6  1  0
  6  7  2  0
  7  8  1  0
  8  9  1  0
  8 10  2  0
  7 11  1  0
 11 12  2  0
 11 13  1  0
 13 14  2  0
 14 15  1  0
 15 16  1  0
 15 17  2  0
 17 18  1  0
 18 19  1  0
 19 20  1  0
 20 21  1  0
 21 22  1  0
 22 23  1  0
 22 24  1  0
  5 25  1  0
 25 26  1  0
 26 27  1  0
 17  3  1  0
 24 18  1  0
 27 25  1  0
 13  4  1  0
  1 28  1  0
  1 29  1  0
  1 30  1  0
  6 31  1  0
  9 32  1  0
 14 33  1  0
 19 34  1  0
 19 35  1  0
 20 36  1  0
 20 37  1  0
 21 38  1  0
 22 39  1  0
 23 40  1  0
 23 41  1  0
 23 42  1  0
 24 43  1  0
 24 44  1  0
 25 45  1  0
 26 46  1  0
 26 47  1  0
 27 48  1  0
 27 49  1  0
M  END
$$$$
