
     RDKit          3D

 43 46  0  0  0  0  0  0  0  0999 V2000
    5.9372    1.7802    1.6773 C   0  0  0  0  0  0  0  0  0  0  0  0
    5.2565    0.6588    1.1236 O   0  0  0  0  0  0  0  0  0  0  0  0
    3.8769    0.6132    0.8673 C   0  0  0  0  0  0  0  0  0  0  0  0
    3.3387   -0.5612    0.3177 C   0  0  0  0  0  0  0  0  0  0  0  0
    4.2066   -1.6328    0.0541 O   0  0  0  0  0  0  0  0  0  0  0  0
    3.8054   -2.8735   -0.5183 C   0  0  0  0  0  0  0  0  0  0  0  0
    1.9580   -0.6350    0.0491 C   0  0  0  0  0  0  0  0  0  0  0  0
    1.1228    0.4633    0.3010 C   0  0  0  0  0  0  0  0  0  0  0  0
    1.6621    1.6210    0.8732 C   0  0  0  0  0  0  0  0  0  0  0  0
    3.0285    1.7014    1.1473 C   0  0  0  0  0  0  0  0  0  0  0  0
   -0.3270    0.3761    0.0541 C   0  0  0  0  0  0  0  0  0  0  0  0
   -1.2493    0.6792    1.0015 N   0  0  0  0  0  0  0  0  0  0  0  0
   -2.4545    0.3761    0.5332 N   0  0  0  0  0  0  0  0  0  0  0  0
   -3.6837    0.5672    1.3161 C   0  0  0  0  0  0  0  0  0  0  0  0
   -4.5595   -0.6800    1.3949 C   0  0  0  0  0  0  0  0  0  0  0  0
   -5.6599    0.0541    0.6364 C   0  0  0  0  0  0  0  0  0  0  0  0
   -4.7861    1.3013    0.5578 C   0  0  0  0  0  0  0  0  0  0  0  0
   -2.3027   -0.1244   -0.7097 C   0  0  0  0  0  0  0  0  0  0  0  0
   -3.2755   -0.5845   -1.5336 N   0  0  0  0  0  0  0  0  0  0  0  0
   -2.9159   -1.0532   -2.7635 C   0  0  0  0  0  0  0  0  0  0  0  0
   -1.6054   -1.0274   -3.1599 N   0  0  0  0  0  0  0  0  0  0  0  0
   -0.6165   -0.5596   -2.3415 C   0  0  0  0  0  0  0  0  0  0  0  0
    0.7165   -0.4445   -2.8411 N   0  0  0  0  0  0  0  0  0  0  0  0
   -0.9860   -0.1274   -1.0625 C   0  0  0  0  0  0  0  0  0  0  0  0
    7.0163    1.5403    1.7684 H   0  0  0  0  0  0  0  0  0  0  0  0
    5.8240    2.6622    1.0121 H   0  0  0  0  0  0  0  0  0  0  0  0
    5.5374    2.0088    2.6878 H   0  0  0  0  0  0  0  0  0  0  0  0
    3.3640   -2.7053   -1.5235 H   0  0  0  0  0  0  0  0  0  0  0  0
    3.0705   -3.3792    0.1430 H   0  0  0  0  0  0  0  0  0  0  0  0
    4.6948   -3.5275   -0.6257 H   0  0  0  0  0  0  0  0  0  0  0  0
    1.5255   -1.5421   -0.3516 H   0  0  0  0  0  0  0  0  0  0  0  0
    1.0252    2.4680    1.0984 H   0  0  0  0  0  0  0  0  0  0  0  0
    3.4153    2.6145    1.5784 H   0  0  0  0  0  0  0  0  0  0  0  0
   -3.4831    1.0132    2.3162 H   0  0  0  0  0  0  0  0  0  0  0  0
   -4.1620   -1.5562    0.8384 H   0  0  0  0  0  0  0  0  0  0  0  0
   -4.8569   -0.9193    2.4392 H   0  0  0  0  0  0  0  0  0  0  0  0
   -5.8609   -0.3908   -0.3625 H   0  0  0  0  0  0  0  0  0  0  0  0
   -6.5721    0.2103    1.2528 H   0  0  0  0  0  0  0  0  0  0  0  0
   -4.5207    1.5781   -0.4853 H   0  0  0  0  0  0  0  0  0  0  0  0
   -5.2076    2.1469    1.1440 H   0  0  0  0  0  0  0  0  0  0  0  0
   -3.6734   -1.4295   -3.4370 H   0  0  0  0  0  0  0  0  0  0  0  0
    0.9631   -0.8701   -3.7620 H   0  0  0  0  0  0  0  0  0  0  0  0
    1.4133    0.1892   -2.3951 H   0  0  0  0  0  0  0  0  0  0  0  0
  1  2  1  0
  2  3  1  0
  3  4  2  0
  4  5  1  0
  5  6  1  0
  4  7  1  0
  7  8  2  0
  8  9  1  0
  9 10  2  0
  8 11  1  0
 11 12  2  0
 12 13  1  0
 13 14  1  0
 14 15  1  0
 15 16  1  0
 16 17  1  0
 13 18  1  0
 18 19  2  0
 19 20  1  0
 20 21  2  0
 21 22  1  0
 22 23  1  0
 22 24  2  0
 10  3  1  0
 24 11  1  0
 17 14  1  0
 24 18  1  0
  1 25  1  0
  1 26  1  0
  1 27  1  0
  6 28  1  0
  6 29  1  0
  6 30  1  0
  7 31  1  0
  9 32  1  0
 10 33  1  0
 14 34  1  0
 15 35  1  0
 15 36  1  0
 16 37  1  0
 16 38  1  0
 17 39  1  0
 17 40  1  0
 20 41  1  0
 23 42  1  0
 23 43  1  0
M  END
$$$$
