
     RDKit          3D

 32 33  0  0  0  0  0  0  0  0999 V2000
    0.5196   -0.6934   -0.6193 C   0  0  1  0  0  0  0  0  0  0  0  0
    1.5065   -1.3008    0.2847 N   0  0  0  0  0  0  0  0  0  0  0  0
    1.7219   -0.4701    1.3583 O   0  0  0  0  0  0  0  0  0  0  0  0
    2.8534    0.3546    1.1304 C   0  0  0  0  0  0  0  0  0  0  0  0
    4.1042   -0.2945    1.7197 C   0  0  0  0  0  0  0  0  0  0  0  0
    5.5533    0.7800    1.4801 S   0  0  0  0  0  0  0  0  0  0  0  0
    0.3281   -1.5608   -1.8286 C   0  0  0  0  0  0  0  0  0  0  0  0
    0.1403   -2.9322   -1.6804 O   0  0  0  0  0  0  0  0  0  0  0  0
    0.3044   -1.0444   -2.9779 O   0  0  0  0  0  0  0  0  0  0  0  0
   -0.8064   -0.5274    0.0759 C   0  0  0  0  0  0  0  0  0  0  0  0
   -1.4066   -1.4248    0.9579 C   0  0  0  0  0  0  0  0  0  0  0  0
   -2.6303   -0.9816    1.3250 N   0  0  0  0  0  0  0  0  0  0  0  0
   -2.8166    0.1785    0.6724 C   0  0  0  0  0  0  0  0  0  0  0  0
   -1.7294    0.4857   -0.1061 C   0  0  0  0  0  0  0  0  0  0  0  0
   -1.6982    1.6319   -0.9021 C   0  0  0  0  0  0  0  0  0  0  0  0
   -2.8206    2.4796   -0.8768 C   0  0  0  0  0  0  0  0  0  0  0  0
   -3.9373    2.1653   -0.0713 C   0  0  0  0  0  0  0  0  0  0  0  0
   -3.9431    0.9989    0.7149 C   0  0  0  0  0  0  0  0  0  0  0  0
    0.8893    0.3026   -0.9482 H   0  0  0  0  0  0  0  0  0  0  0  0
    2.3872   -1.5550   -0.2287 H   0  0  0  0  0  0  0  0  0  0  0  0
    3.0103    0.5948    0.0536 H   0  0  0  0  0  0  0  0  0  0  0  0
    2.6776    1.3212    1.6480 H   0  0  0  0  0  0  0  0  0  0  0  0
    3.9603   -0.4763    2.8061 H   0  0  0  0  0  0  0  0  0  0  0  0
    4.2993   -1.2661    1.2199 H   0  0  0  0  0  0  0  0  0  0  0  0
    5.0756    1.7586    2.3731 H   0  0  0  0  0  0  0  0  0  0  0  0
   -0.0037   -3.5270   -2.4876 H   0  0  0  0  0  0  0  0  0  0  0  0
   -0.9751   -2.3559    1.3017 H   0  0  0  0  0  0  0  0  0  0  0  0
   -3.2988   -1.4563    1.9717 H   0  0  0  0  0  0  0  0  0  0  0  0
   -0.8434    1.8669   -1.5222 H   0  0  0  0  0  0  0  0  0  0  0  0
   -2.8290    3.3777   -1.4806 H   0  0  0  0  0  0  0  0  0  0  0  0
   -4.7959    2.8241   -0.0615 H   0  0  0  0  0  0  0  0  0  0  0  0
   -4.7971    0.7459    1.3299 H   0  0  0  0  0  0  0  0  0  0  0  0
  1  2  1  0
  2  3  1  0
  3  4  1  0
  4  5  1  0
  5  6  1  0
  1  7  1  0
  7  8  1  0
  7  9  2  0
  1 10  1  0
 10 11  2  0
 11 12  1  0
 12 13  1  0
 13 14  2  0
 14 15  1  0
 15 16  2  0
 16 17  1  0
 17 18  2  0
 14 10  1  0
 18 13  1  0
  1 19  1  6
  2 20  1  0
  4 21  1  0
  4 22  1  0
  5 23  1  0
  5 24  1  0
  6 25  1  0
  8 26  1  0
 11 27  1  0
 12 28  1  0
 15 29  1  0
 16 30  1  0
 17 31  1  0
 18 32  1  0
M  END
$$$$
