
     RDKit          3D

 53 56  0  0  0  0  0  0  0  0999 V2000
   -2.8057    4.8061    2.7797 C   0  0  0  0  0  0  0  0  0  0  0  0
   -3.5067    4.6394    1.4374 C   0  0  0  0  0  0  0  0  0  0  0  0
   -3.2718    3.2993    0.9084 N   0  0  0  0  0  0  0  0  0  0  0  0
   -4.0598    2.2540    1.1389 N   0  0  0  0  0  0  0  0  0  0  0  0
   -3.5044    1.1648    0.5492 C   0  0  0  0  0  0  0  0  0  0  0  0
   -2.3224    1.5498   -0.0552 C   0  0  0  0  0  0  0  0  0  0  0  0
   -2.2161    2.8814    0.1927 C   0  0  0  0  0  0  0  0  0  0  0  0
   -1.1693    3.6249   -0.2391 N   0  0  0  0  0  0  0  0  0  0  0  0
   -0.1809    3.0155   -0.9601 C   0  0  0  0  0  0  0  0  0  0  0  0
   -0.2456    1.6271   -1.2586 C   0  0  0  0  0  0  0  0  0  0  0  0
    0.8516    0.9858   -2.0116 C   0  0  0  0  0  0  0  0  0  0  0  0
    0.5804    0.1624   -2.9268 O   0  0  0  0  0  0  0  0  0  0  0  0
    2.2208    1.2779   -1.6947 N   0  0  0  0  0  0  0  0  0  0  0  0
    3.3249    0.4787   -2.2208 C   0  0  0  0  0  0  0  0  0  0  0  0
    3.3625   -0.8598   -1.5340 C   0  0  0  0  0  0  0  0  0  0  0  0
    3.8844   -0.9682   -0.2343 C   0  0  0  0  0  0  0  0  0  0  0  0
    3.8710   -2.1987    0.4298 C   0  0  0  0  0  0  0  0  0  0  0  0
    3.3263   -3.3250   -0.1930 C   0  0  0  0  0  0  0  0  0  0  0  0
    2.7950   -3.2231   -1.4813 C   0  0  0  0  0  0  0  0  0  0  0  0
    2.8123   -1.9960   -2.1515 C   0  0  0  0  0  0  0  0  0  0  0  0
   -1.3495    0.8691   -0.7849 C   0  0  0  0  0  0  0  0  0  0  0  0
   -1.4218   -0.5507   -0.9742 N   0  0  0  0  0  0  0  0  0  0  0  0
   -1.2559   -1.4884    0.1432 C   0  0  0  0  0  0  0  0  0  0  0  0
   -1.2942   -2.9464   -0.3578 C   0  0  0  0  0  0  0  0  0  0  0  0
   -0.6724   -3.9162    0.6658 C   0  0  0  0  0  0  0  0  0  0  0  0
   -0.6460   -3.3460    1.9593 O   0  0  0  0  0  0  0  0  0  0  0  0
    0.2900   -2.2808    2.0002 C   0  0  0  0  0  0  0  0  0  0  0  0
    0.0656   -1.2324    0.8859 C   0  0  0  0  0  0  0  0  0  0  0  0
   -1.7102    4.6686    2.6582 H   0  0  0  0  0  0  0  0  0  0  0  0
   -3.1895    4.0581    3.5056 H   0  0  0  0  0  0  0  0  0  0  0  0
   -2.9976    5.8247    3.1776 H   0  0  0  0  0  0  0  0  0  0  0  0
   -3.1283    5.4013    0.7218 H   0  0  0  0  0  0  0  0  0  0  0  0
   -4.5982    4.8023    1.5686 H   0  0  0  0  0  0  0  0  0  0  0  0
   -3.9377    0.1742    0.5622 H   0  0  0  0  0  0  0  0  0  0  0  0
    0.6512    3.6112   -1.3122 H   0  0  0  0  0  0  0  0  0  0  0  0
    2.4386    1.9982   -0.9699 H   0  0  0  0  0  0  0  0  0  0  0  0
    4.2834    1.0115   -2.0378 H   0  0  0  0  0  0  0  0  0  0  0  0
    3.2221    0.3660   -3.3221 H   0  0  0  0  0  0  0  0  0  0  0  0
    4.2932   -0.0988    0.2656 H   0  0  0  0  0  0  0  0  0  0  0  0
    4.2730   -2.2768    1.4316 H   0  0  0  0  0  0  0  0  0  0  0  0
    3.3081   -4.2745    0.3261 H   0  0  0  0  0  0  0  0  0  0  0  0
    2.3648   -4.0939   -1.9586 H   0  0  0  0  0  0  0  0  0  0  0  0
    2.3905   -1.9313   -3.1465 H   0  0  0  0  0  0  0  0  0  0  0  0
   -1.5062   -0.9100   -1.9516 H   0  0  0  0  0  0  0  0  0  0  0  0
   -2.0921   -1.3445    0.8615 H   0  0  0  0  0  0  0  0  0  0  0  0
   -0.7328   -3.0410   -1.3137 H   0  0  0  0  0  0  0  0  0  0  0  0
   -2.3510   -3.2310   -0.5544 H   0  0  0  0  0  0  0  0  0  0  0  0
    0.3518   -4.2178    0.3449 H   0  0  0  0  0  0  0  0  0  0  0  0
   -1.2790   -4.8458    0.7007 H   0  0  0  0  0  0  0  0  0  0  0  0
    1.3270   -2.6803    1.9543 H   0  0  0  0  0  0  0  0  0  0  0  0
    0.1884   -1.7788    2.9857 H   0  0  0  0  0  0  0  0  0  0  0  0
    0.0634   -0.2133    1.3304 H   0  0  0  0  0  0  0  0  0  0  0  0
    0.9048   -1.2827    0.1597 H   0  0  0  0  0  0  0  0  0  0  0  0
  1  2  1  0
  2  3  1  0
  3  4  1  0
  4  5  2  0
  5  6  1  0
  6  7  2  0
  7  8  1  0
  8  9  2  0
  9 10  1  0
 10 11  1  0
 11 12  2  0
 11 13  1  0
 13 14  1  0
 14 15  1  0
 15 16  2  0
 16 17  1  0
 17 18  2  0
 18 19  1  0
 19 20  2  0
 10 21  2  0
 21 22  1  0
 22 23  1  0
 23 24  1  0
 24 25  1  0
 25 26  1  0
 26 27  1  0
 27 28  1  0
  7  3  1  0
 20 15  1  0
 28 23  1  0
 21  6  1  0
  1 29  1  0
  1 30  1  0
  1 31  1  0
  2 32  1  0
  2 33  1  0
  5 34  1  0
  9 35  1  0
 13 36  1  0
 14 37  1  0
 14 38  1  0
 16 39  1  0
 17 40  1  0
 18 41  1  0
 19 42  1  0
 20 43  1  0
 22 44  1  0
 23 45  1  0
 24 46  1  0
 24 47  1  0
 25 48  1  0
 25 49  1  0
 27 50  1  0
 27 51  1  0
 28 52  1  0
 28 53  1  0
M  END
$$$$
