
     RDKit          3D

 24 23  0  0  0  0  0  0  0  0999 V2000
    3.1333   -0.4355   -0.7760 N   0  0  0  0  0  0  0  0  0  0  0  0
    2.4806    0.7067   -0.1419 C   0  0  0  0  0  0  0  0  0  0  0  0
    1.1446    0.2935    0.4872 C   0  0  0  0  0  0  0  0  0  0  0  0
    0.1417   -0.2078   -0.5727 C   0  0  0  0  0  0  0  0  0  0  0  0
   -1.3240   -0.3794   -0.0674 C   0  0  0  0  0  0  0  0  0  0  0  0
   -2.1284   -0.8782   -1.1933 N   0  0  0  0  0  0  0  0  0  0  0  0
   -1.3779   -1.4321    1.0759 C   0  0  0  0  0  0  0  0  0  0  0  0
   -0.8369   -0.9328    2.2487 F   0  0  0  0  0  0  0  0  0  0  0  0
   -2.6835   -1.8158    1.3336 F   0  0  0  0  0  0  0  0  0  0  0  0
   -1.8947    0.9574    0.3852 C   0  0  0  0  0  0  0  0  0  0  0  0
   -1.5601    2.1245   -0.2975 O   0  0  0  0  0  0  0  0  0  0  0  0
   -2.7308    1.0145    1.3279 O   0  0  0  0  0  0  0  0  0  0  0  0
    4.0025   -0.0870   -1.2412 H   0  0  0  0  0  0  0  0  0  0  0  0
    3.4422   -1.0946   -0.0246 H   0  0  0  0  0  0  0  0  0  0  0  0
    2.3069    1.5036   -0.8981 H   0  0  0  0  0  0  0  0  0  0  0  0
    3.1431    1.1251    0.6485 H   0  0  0  0  0  0  0  0  0  0  0  0
    1.3403   -0.5053    1.2334 H   0  0  0  0  0  0  0  0  0  0  0  0
    0.7286    1.1737    1.0217 H   0  0  0  0  0  0  0  0  0  0  0  0
    0.5029   -1.1826   -0.9692 H   0  0  0  0  0  0  0  0  0  0  0  0
    0.1452    0.5005   -1.4311 H   0  0  0  0  0  0  0  0  0  0  0  0
   -2.0767   -0.2003   -1.9894 H   0  0  0  0  0  0  0  0  0  0  0  0
   -3.1370   -0.9254   -0.9172 H   0  0  0  0  0  0  0  0  0  0  0  0
   -0.8094   -2.3404    0.7822 H   0  0  0  0  0  0  0  0  0  0  0  0
   -1.9525    3.0176   -0.0246 H   0  0  0  0  0  0  0  0  0  0  0  0
  1  2  1  0
  2  3  1  0
  3  4  1  0
  4  5  1  0
  5  6  1  0
  5  7  1  0
  7  8  1  0
  7  9  1  0
  5 10  1  0
 10 11  1  0
 10 12  2  0
  1 13  1  0
  1 14  1  0
  2 15  1  0
  2 16  1  0
  3 17  1  0
  3 18  1  0
  4 19  1  0
  4 20  1  0
  6 21  1  0
  6 22  1  0
  7 23  1  0
 11 24  1  0
M  END
$$$$
