
     RDKit          3D

 38 40  0  0  0  0  0  0  0  0999 V2000
    1.4403    1.3110    3.9830 O   0  0  0  0  0  0  0  0  0  0  0  0
    0.4418    2.0249    2.8172 P   0  0  0  0  0  5  0  0  0  0  0  0
    1.2344    3.3409    2.1060 O   0  0  0  0  0  0  0  0  0  0  0  0
   -0.8336    2.5024    3.4735 O   0  0  0  0  0  0  0  0  0  0  0  0
    0.0505    0.8659    1.6058 O   0  0  0  0  0  0  0  0  0  0  0  0
    0.9802    0.2179    0.7746 C   0  0  0  0  0  0  0  0  0  0  0  0
    0.5049   -0.6954   -0.1917 C   0  0  0  0  0  0  0  0  0  0  0  0
    1.4149   -1.4136   -0.9836 C   0  0  0  0  0  0  0  0  0  0  0  0
    2.7934   -1.2055   -0.8541 C   0  0  0  0  0  0  0  0  0  0  0  0
    3.7023   -1.9137   -1.6566 C   0  0  0  0  0  0  0  0  0  0  0  0
    5.0762   -1.6949   -1.5216 C   0  0  0  0  0  0  0  0  0  0  0  0
    5.5520   -0.7708   -0.5881 C   0  0  0  0  0  0  0  0  0  0  0  0
    4.6569   -0.0602    0.2165 C   0  0  0  0  0  0  0  0  0  0  0  0
    3.2741   -0.2707    0.0902 C   0  0  0  0  0  0  0  0  0  0  0  0
    2.3684    0.4318    0.8968 C   0  0  0  0  0  0  0  0  0  0  0  0
   -0.9430   -0.9357   -0.3739 C   0  0  0  0  0  0  0  0  0  0  0  0
   -1.3576   -2.1230   -0.4662 O   0  0  0  0  0  0  0  0  0  0  0  0
   -1.8657    0.1663   -0.4483 N   0  0  0  0  0  0  0  0  0  0  0  0
   -3.2875    0.0175   -0.5946 C   0  0  0  0  0  0  0  0  0  0  0  0
   -4.1429    0.8905    0.0950 C   0  0  0  0  0  0  0  0  0  0  0  0
   -5.5296    0.7828   -0.0474 C   0  0  0  0  0  0  0  0  0  0  0  0
   -6.0738   -0.1880   -0.8939 C   0  0  0  0  0  0  0  0  0  0  0  0
   -7.8135   -0.3201   -1.0749 Cl  0  0  0  0  0  0  0  0  0  0  0  0
   -5.2286   -1.0456   -1.6050 C   0  0  0  0  0  0  0  0  0  0  0  0
   -3.8412   -0.9407   -1.4633 C   0  0  0  0  0  0  0  0  0  0  0  0
    1.6473    2.0396    4.6210 H   0  0  0  0  0  0  0  0  0  0  0  0
    1.4525    3.9442    2.8605 H   0  0  0  0  0  0  0  0  0  0  0  0
    1.0449   -2.1236   -1.7154 H   0  0  0  0  0  0  0  0  0  0  0  0
    3.3513   -2.6338   -2.3862 H   0  0  0  0  0  0  0  0  0  0  0  0
    5.7736   -2.2428   -2.1422 H   0  0  0  0  0  0  0  0  0  0  0  0
    6.6169   -0.6053   -0.4875 H   0  0  0  0  0  0  0  0  0  0  0  0
    5.0446    0.6514    0.9359 H   0  0  0  0  0  0  0  0  0  0  0  0
    2.7554    1.1324    1.6234 H   0  0  0  0  0  0  0  0  0  0  0  0
   -1.4971    1.1356   -0.3228 H   0  0  0  0  0  0  0  0  0  0  0  0
   -3.7327    1.6474    0.7520 H   0  0  0  0  0  0  0  0  0  0  0  0
   -6.1790    1.4554    0.4984 H   0  0  0  0  0  0  0  0  0  0  0  0
   -5.6448   -1.7870   -2.2752 H   0  0  0  0  0  0  0  0  0  0  0  0
   -3.2062   -1.5874   -2.0535 H   0  0  0  0  0  0  0  0  0  0  0  0
  1  2  1  0
  2  3  1  0
  2  4  2  0
  2  5  1  0
  5  6  1  0
  6  7  2  0
  7  8  1  0
  8  9  2  0
  9 10  1  0
 10 11  2  0
 11 12  1  0
 12 13  2  0
 13 14  1  0
 14 15  2  0
  7 16  1  0
 16 17  2  0
 16 18  1  0
 18 19  1  0
 19 20  2  0
 20 21  1  0
 21 22  2  0
 22 23  1  0
 22 24  1  0
 24 25  2  0
 15  6  1  0
 25 19  1  0
 14  9  1  0
  1 26  1  0
  3 27  1  0
  8 28  1  0
 10 29  1  0
 11 30  1  0
 12 31  1  0
 13 32  1  0
 15 33  1  0
 18 34  1  0
 20 35  1  0
 21 36  1  0
 24 37  1  0
 25 38  1  0
M  END
$$$$
