
     RDKit          3D

 41 42  0  0  0  0  0  0  0  0999 V2000
   -1.9743   -2.5204    2.5793 C   0  0  0  0  0  0  0  0  0  0  0  0
   -1.8358   -1.7082    1.4179 O   0  0  0  0  0  0  0  0  0  0  0  0
   -0.6182   -1.2393    0.9033 C   0  0  0  0  0  0  0  0  0  0  0  0
    0.6032   -1.5792    1.5163 C   0  0  0  0  0  0  0  0  0  0  0  0
    1.8154   -1.1312    0.9930 C   0  0  0  0  0  0  0  0  0  0  0  0
    1.8456   -0.3361   -0.1623 C   0  0  0  0  0  0  0  0  0  0  0  0
    0.6276    0.0137   -0.7703 C   0  0  0  0  0  0  0  0  0  0  0  0
   -0.6011   -0.4186   -0.2530 C   0  0  0  0  0  0  0  0  0  0  0  0
   -1.7529    0.0071   -0.9437 O   0  0  0  0  0  0  0  0  0  0  0  0
   -3.1186   -0.1474   -0.5485 C   0  0  0  0  0  0  0  0  0  0  0  0
   -4.0310    0.3567   -1.6659 C   0  0  0  0  0  0  0  0  0  0  0  0
   -5.1525    1.1131   -0.9803 C   0  0  0  0  0  0  0  0  0  0  0  0
   -4.5262    1.6925    0.2720 C   0  0  0  0  0  0  0  0  0  0  0  0
   -3.4484    0.7014    0.6887 C   0  0  0  0  0  0  0  0  0  0  0  0
    3.1456    0.1347   -0.7137 C   0  0  0  0  0  0  0  0  0  0  0  0
    3.2557    0.5815   -2.1502 C   0  0  0  0  0  0  0  0  0  0  0  0
    4.1733    0.2146    0.0793 N   0  0  0  0  0  0  0  0  0  0  0  0
    5.4001    0.6818   -0.3412 O   0  0  0  0  0  0  0  0  0  0  0  0
    6.4795    0.7516    0.5371 C   0  0  0  0  0  0  0  0  0  0  0  0
    7.7358    1.2390    0.0741 N   0  0  0  0  0  0  0  0  0  0  0  0
    6.3515    0.3865    1.7367 O   0  0  0  0  0  0  0  0  0  0  0  0
   -1.5715   -1.9891    3.4672 H   0  0  0  0  0  0  0  0  0  0  0  0
   -3.0508   -2.7272    2.7487 H   0  0  0  0  0  0  0  0  0  0  0  0
   -1.4458   -3.4864    2.4356 H   0  0  0  0  0  0  0  0  0  0  0  0
    0.6299   -2.1992    2.4017 H   0  0  0  0  0  0  0  0  0  0  0  0
    2.7338   -1.4216    1.4883 H   0  0  0  0  0  0  0  0  0  0  0  0
    0.6169    0.6504   -1.6456 H   0  0  0  0  0  0  0  0  0  0  0  0
   -3.3544   -1.2194   -0.3736 H   0  0  0  0  0  0  0  0  0  0  0  0
   -3.4780    1.0552   -2.3334 H   0  0  0  0  0  0  0  0  0  0  0  0
   -4.4300   -0.4826   -2.2765 H   0  0  0  0  0  0  0  0  0  0  0  0
   -5.5666    1.9105   -1.6348 H   0  0  0  0  0  0  0  0  0  0  0  0
   -5.9643    0.4057   -0.6998 H   0  0  0  0  0  0  0  0  0  0  0  0
   -5.2834    1.8334    1.0736 H   0  0  0  0  0  0  0  0  0  0  0  0
   -4.0594    2.6738    0.0329 H   0  0  0  0  0  0  0  0  0  0  0  0
   -3.8432    0.0471    1.4966 H   0  0  0  0  0  0  0  0  0  0  0  0
   -2.5556    1.2410    1.0737 H   0  0  0  0  0  0  0  0  0  0  0  0
    4.2886    0.4543   -2.5361 H   0  0  0  0  0  0  0  0  0  0  0  0
    2.5920   -0.0293   -2.7974 H   0  0  0  0  0  0  0  0  0  0  0  0
    2.9674    1.6503   -2.2301 H   0  0  0  0  0  0  0  0  0  0  0  0
    8.5531    1.2967    0.7214 H   0  0  0  0  0  0  0  0  0  0  0  0
    7.8472    1.5425   -0.9185 H   0  0  0  0  0  0  0  0  0  0  0  0
  1  2  1  0
  2  3  1  0
  3  4  2  0
  4  5  1  0
  5  6  2  0
  6  7  1  0
  7  8  2  0
  8  9  1  0
  9 10  1  0
 10 11  1  0
 11 12  1  0
 12 13  1  0
 13 14  1  0
  6 15  1  0
 15 16  1  0
 15 17  2  0
 17 18  1  0
 18 19  1  0
 19 20  1  0
 19 21  2  0
  8  3  1  0
 14 10  1  0
  1 22  1  0
  1 23  1  0
  1 24  1  0
  4 25  1  0
  5 26  1  0
  7 27  1  0
 10 28  1  0
 11 29  1  0
 11 30  1  0
 12 31  1  0
 12 32  1  0
 13 33  1  0
 13 34  1  0
 14 35  1  0
 14 36  1  0
 16 37  1  0
 16 38  1  0
 16 39  1  0
 20 40  1  0
 20 41  1  0
M  END
$$$$
