
     RDKit          3D

 38 41  0  0  0  0  0  0  0  0999 V2000
    2.9398    3.4423    2.0693 C   0  0  0  0  0  0  0  0  0  0  0  0
    3.1307    2.2252    1.2258 C   0  0  0  0  0  0  0  0  0  0  0  0
    2.1848    1.2524    0.9791 C   0  0  0  0  0  0  0  0  0  0  0  0
    2.8222    0.3970    0.0948 C   0  0  0  0  0  0  0  0  0  0  0  0
    2.2902   -0.8167   -0.4543 N   0  0  0  0  0  0  0  0  0  0  0  0
    0.8872   -1.1336   -0.4619 C   0  0  0  0  0  0  0  0  0  0  0  0
    0.4282   -2.4685   -0.4664 C   0  0  0  0  0  0  0  0  0  0  0  0
    1.2905   -3.5796   -0.3735 C   0  0  0  0  0  0  0  0  0  0  0  0
    0.7687   -4.8770   -0.3823 C   0  0  0  0  0  0  0  0  0  0  0  0
   -0.6098   -5.0818   -0.4747 C   0  0  0  0  0  0  0  0  0  0  0  0
   -1.4769   -3.9897   -0.5501 C   0  0  0  0  0  0  0  0  0  0  0  0
   -0.9668   -2.6865   -0.5408 C   0  0  0  0  0  0  0  0  0  0  0  0
   -1.8178   -1.6306   -0.5941 N   0  0  0  0  0  0  0  0  0  0  0  0
   -1.3603   -0.3510   -0.5802 C   0  0  0  0  0  0  0  0  0  0  0  0
   -0.0215   -0.1232   -0.5220 N   0  0  0  0  0  0  0  0  0  0  0  0
   -2.3101    0.7874   -0.6302 C   0  0  0  0  0  0  0  0  0  0  0  0
   -3.6969    0.5618   -0.7316 C   0  0  0  0  0  0  0  0  0  0  0  0
   -4.5889    1.6378   -0.7761 C   0  0  0  0  0  0  0  0  0  0  0  0
   -4.1104    2.9483   -0.7195 C   0  0  0  0  0  0  0  0  0  0  0  0
   -2.7383    3.1863   -0.6181 C   0  0  0  0  0  0  0  0  0  0  0  0
   -1.8411    2.1149   -0.5734 C   0  0  0  0  0  0  0  0  0  0  0  0
    4.0698    0.8351   -0.1641 N   0  0  0  0  0  0  0  0  0  0  0  0
    4.2437    1.9547    0.5192 N   0  0  0  0  0  0  0  0  0  0  0  0
    2.2418    3.2225    2.9044 H   0  0  0  0  0  0  0  0  0  0  0  0
    2.5204    4.2602    1.4476 H   0  0  0  0  0  0  0  0  0  0  0  0
    3.9134    3.7670    2.4925 H   0  0  0  0  0  0  0  0  0  0  0  0
    1.1899    1.1786    1.3973 H   0  0  0  0  0  0  0  0  0  0  0  0
    2.9577   -1.4436   -0.9553 H   0  0  0  0  0  0  0  0  0  0  0  0
    2.3605   -3.4626   -0.2775 H   0  0  0  0  0  0  0  0  0  0  0  0
    1.4354   -5.7269   -0.3120 H   0  0  0  0  0  0  0  0  0  0  0  0
   -1.0072   -6.0885   -0.4798 H   0  0  0  0  0  0  0  0  0  0  0  0
   -2.5451   -4.1577   -0.6110 H   0  0  0  0  0  0  0  0  0  0  0  0
   -4.0946   -0.4441   -0.7774 H   0  0  0  0  0  0  0  0  0  0  0  0
   -5.6528    1.4548   -0.8545 H   0  0  0  0  0  0  0  0  0  0  0  0
   -4.8029    3.7794   -0.7539 H   0  0  0  0  0  0  0  0  0  0  0  0
   -2.3687    4.2027   -0.5734 H   0  0  0  0  0  0  0  0  0  0  0  0
   -0.7825    2.3280   -0.4925 H   0  0  0  0  0  0  0  0  0  0  0  0
    5.1179    2.5251    0.4977 H   0  0  0  0  0  0  0  0  0  0  0  0
  1  2  1  0
  2  3  2  0
  3  4  1  0
  4  5  1  0
  5  6  1  0
  6  7  1  0
  7  8  2  0
  8  9  1  0
  9 10  2  0
 10 11  1  0
 11 12  2  0
 12 13  1  0
 13 14  2  0
 14 15  1  0
 14 16  1  0
 16 17  2  0
 17 18  1  0
 18 19  2  0
 19 20  1  0
 20 21  2  0
  4 22  2  0
 22 23  1  0
 23  2  1  0
 15  6  2  0
 21 16  1  0
 12  7  1  0
  1 24  1  0
  1 25  1  0
  1 26  1  0
  3 27  1  0
  5 28  1  0
  8 29  1  0
  9 30  1  0
 10 31  1  0
 11 32  1  0
 17 33  1  0
 18 34  1  0
 19 35  1  0
 20 36  1  0
 21 37  1  0
 23 38  1  0
M  END
$$$$
