
     RDKit          3D

 51 53  0  0  0  0  0  0  0  0999 V2000
    8.2925    1.9110   -0.1763 C   0  0  0  0  0  0  0  0  0  0  0  0
    7.0726    1.0431   -0.0856 C   0  0  0  0  0  0  0  0  0  0  0  0
    6.5993    0.6170    1.1649 C   0  0  0  0  0  0  0  0  0  0  0  0
    5.4406   -0.1607    1.2524 C   0  0  0  0  0  0  0  0  0  0  0  0
    4.7391   -0.5144    0.0920 C   0  0  0  0  0  0  0  0  0  0  0  0
    5.1953   -0.0676   -1.1554 C   0  0  0  0  0  0  0  0  0  0  0  0
    6.3538    0.7101   -1.2440 C   0  0  0  0  0  0  0  0  0  0  0  0
    3.2687   -1.4758    0.2039 S   0  0  0  0  0  6  0  0  0  0  0  0
    3.3501   -2.3824    1.4002 O   0  0  0  0  0  0  0  0  0  0  0  0
    3.1196   -2.3106   -1.0374 O   0  0  0  0  0  0  0  0  0  0  0  0
    1.9083   -0.4165    0.3640 N   0  0  0  0  0  0  0  0  0  0  0  0
    0.5713   -0.9169    0.4597 C   0  0  0  0  0  0  0  0  0  0  0  0
    0.3594   -2.1602    0.4391 O   0  0  0  0  0  0  0  0  0  0  0  0
   -0.5253   -0.0001    0.5795 N   0  0  0  0  0  0  0  0  0  0  0  0
   -1.9108   -0.4660    0.7333 C   0  0  2  0  0  0  0  0  0  0  0  0
   -2.5073   -1.2121   -0.5045 C   0  0  2  0  0  0  0  0  0  0  0  0
   -1.6787   -1.2551   -1.6468 O   0  0  0  0  0  0  0  0  0  0  0  0
   -3.8576   -0.4509   -0.7469 C   0  0  2  0  0  0  0  0  0  0  0  0
   -4.8853   -1.2682   -1.5399 C   0  0  0  0  0  0  0  0  0  0  0  0
   -3.5276    0.9138   -1.3990 C   0  0  0  0  0  0  0  0  0  0  0  0
   -2.8449    1.6718   -0.2458 C   0  0  0  0  0  0  0  0  0  0  0  0
   -2.9448    0.6766    0.9500 C   0  0  1  0  0  0  0  0  0  0  0  0
   -4.2897   -0.0345    0.6833 C   0  0  0  0  0  0  0  0  0  0  0  0
   -4.6048   -1.2178    1.6533 C   0  0  0  0  0  0  0  0  0  0  0  0
   -5.5254    0.9173    0.7777 C   0  0  0  0  0  0  0  0  0  0  0  0
    7.9928    2.9774   -0.1045 H   0  0  0  0  0  0  0  0  0  0  0  0
    8.8194    1.7466   -1.1404 H   0  0  0  0  0  0  0  0  0  0  0  0
    9.0015    1.6775    0.6463 H   0  0  0  0  0  0  0  0  0  0  0  0
    7.1259    0.8879    2.0718 H   0  0  0  0  0  0  0  0  0  0  0  0
    5.0883   -0.4803    2.2248 H   0  0  0  0  0  0  0  0  0  0  0  0
    4.6517   -0.3149   -2.0584 H   0  0  0  0  0  0  0  0  0  0  0  0
    6.6890    1.0536   -2.2149 H   0  0  0  0  0  0  0  0  0  0  0  0
    2.0772    0.6137    0.3810 H   0  0  0  0  0  0  0  0  0  0  0  0
   -0.2931    1.0048    0.7411 H   0  0  0  0  0  0  0  0  0  0  0  0
   -1.9243   -1.1330    1.6223 H   0  0  0  0  0  0  0  0  0  0  0  0
   -2.7120   -2.2678   -0.2272 H   0  0  0  0  0  0  0  0  0  0  0  0
   -1.1805   -0.4037   -1.7295 H   0  0  0  0  0  0  0  0  0  0  0  0
   -5.8254   -0.6930   -1.6718 H   0  0  0  0  0  0  0  0  0  0  0  0
   -5.1181   -2.2172   -1.0131 H   0  0  0  0  0  0  0  0  0  0  0  0
   -4.4781   -1.5123   -2.5438 H   0  0  0  0  0  0  0  0  0  0  0  0
   -4.4478    1.4395   -1.7322 H   0  0  0  0  0  0  0  0  0  0  0  0
   -2.8824    0.8370   -2.2974 H   0  0  0  0  0  0  0  0  0  0  0  0
   -3.3760    2.6199   -0.0167 H   0  0  0  0  0  0  0  0  0  0  0  0
   -1.8076    1.9445   -0.5221 H   0  0  0  0  0  0  0  0  0  0  0  0
   -2.8680    1.1636    1.9460 H   0  0  0  0  0  0  0  0  0  0  0  0
   -4.5948   -0.8536    2.7028 H   0  0  0  0  0  0  0  0  0  0  0  0
   -3.9147   -2.0778    1.5937 H   0  0  0  0  0  0  0  0  0  0  0  0
   -5.6151   -1.6292    1.4422 H   0  0  0  0  0  0  0  0  0  0  0  0
   -5.4590    1.8458    0.1834 H   0  0  0  0  0  0  0  0  0  0  0  0
   -6.4436    0.3875    0.4467 H   0  0  0  0  0  0  0  0  0  0  0  0
   -5.6737    1.2327    1.8328 H   0  0  0  0  0  0  0  0  0  0  0  0
  1  2  1  0
  2  3  2  0
  3  4  1  0
  4  5  2  0
  5  6  1  0
  6  7  2  0
  5  8  1  0
  8  9  2  0
  8 10  2  0
  8 11  1  0
 11 12  1  0
 12 13  2  0
 12 14  1  0
 14 15  1  0
 15 16  1  0
 16 17  1  0
 16 18  1  0
 18 19  1  6
 18 20  1  0
 20 21  1  0
 21 22  1  0
 22 23  1  0
 23 24  1  0
 23 25  1  0
  7  2  1  0
 22 15  1  0
 23 18  1  0
  1 26  1  0
  1 27  1  0
  1 28  1  0
  3 29  1  0
  4 30  1  0
  6 31  1  0
  7 32  1  0
 11 33  1  0
 14 34  1  0
 15 35  1  1
 16 36  1  1
 17 37  1  0
 19 38  1  0
 19 39  1  0
 19 40  1  0
 20 41  1  0
 20 42  1  0
 21 43  1  0
 21 44  1  0
 22 45  1  1
 24 46  1  0
 24 47  1  0
 24 48  1  0
 25 49  1  0
 25 50  1  0
 25 51  1  0
M  END
$$$$
