
     RDKit          3D

 30 32  0  0  0  0  0  0  0  0999 V2000
   -2.1003   -2.4991   -0.1337 C   0  0  0  0  0  0  0  0  0  0  0  0
   -1.7257   -1.6057    1.0460 C   0  0  0  0  0  0  0  0  0  0  0  0
   -1.1532   -0.3283    0.5733 N   0  0  0  0  0  0  0  0  0  0  0  0
   -2.0101    0.7333    0.4601 C   0  0  0  0  0  0  0  0  0  0  0  0
   -1.5773    1.9963    0.0315 C   0  0  0  0  0  0  0  0  0  0  0  0
   -2.5619    3.1098   -0.0566 C   0  0  0  0  0  0  0  0  0  0  0  0
   -3.8932    2.8964    0.2937 O   0  0  0  0  0  0  0  0  0  0  0  0
   -2.2114    4.2561   -0.4470 O   0  0  0  0  0  0  0  0  0  0  0  0
   -0.2219    2.1676   -0.3022 C   0  0  0  0  0  0  0  0  0  0  0  0
    0.2011    3.2945   -0.6834 O   0  0  0  0  0  0  0  0  0  0  0  0
    0.6648    1.0815   -0.2168 C   0  0  0  0  0  0  0  0  0  0  0  0
    2.0293    1.2381   -0.5674 C   0  0  0  0  0  0  0  0  0  0  0  0
    2.8612    0.1322   -0.4838 C   0  0  0  0  0  0  0  0  0  0  0  0
    2.4088   -1.0763   -0.0828 C   0  0  0  0  0  0  0  0  0  0  0  0
    3.4480   -1.9870   -0.1027 O   0  0  0  0  0  0  0  0  0  0  0  0
    4.6286   -1.3029   -0.5435 C   0  0  0  0  0  0  0  0  0  0  0  0
    4.2090    0.0483   -0.7762 O   0  0  0  0  0  0  0  0  0  0  0  0
    1.0844   -1.2896    0.2759 C   0  0  0  0  0  0  0  0  0  0  0  0
    0.1753   -0.1936    0.2220 C   0  0  0  0  0  0  0  0  0  0  0  0
   -2.8607   -1.9929   -0.7653 H   0  0  0  0  0  0  0  0  0  0  0  0
   -2.5251   -3.4538    0.2416 H   0  0  0  0  0  0  0  0  0  0  0  0
   -1.2090   -2.7251   -0.7547 H   0  0  0  0  0  0  0  0  0  0  0  0
   -1.0310   -2.1294    1.7343 H   0  0  0  0  0  0  0  0  0  0  0  0
   -2.6404   -1.4287    1.6550 H   0  0  0  0  0  0  0  0  0  0  0  0
   -3.0564    0.6001    0.7111 H   0  0  0  0  0  0  0  0  0  0  0  0
   -4.5730    3.6455    0.2380 H   0  0  0  0  0  0  0  0  0  0  0  0
    2.4338    2.1859   -0.9001 H   0  0  0  0  0  0  0  0  0  0  0  0
    5.0046   -1.7551   -1.4851 H   0  0  0  0  0  0  0  0  0  0  0  0
    5.4064   -1.3318    0.2481 H   0  0  0  0  0  0  0  0  0  0  0  0
    0.7956   -2.2864    0.5706 H   0  0  0  0  0  0  0  0  0  0  0  0
  1  2  1  0
  2  3  1  0
  3  4  1  0
  4  5  2  0
  5  6  1  0
  6  7  1  0
  6  8  2  0
  5  9  1  0
  9 10  2  0
  9 11  1  0
 11 12  2  0
 12 13  1  0
 13 14  2  0
 14 15  1  0
 15 16  1  0
 16 17  1  0
 14 18  1  0
 18 19  2  0
 19  3  1  0
 19 11  1  0
 17 13  1  0
  1 20  1  0
  1 21  1  0
  1 22  1  0
  2 23  1  0
  2 24  1  0
  4 25  1  0
  7 26  1  0
 12 27  1  0
 16 28  1  0
 16 29  1  0
 18 30  1  0
M  END
$$$$
