
     RDKit          3D

 48 49  0  0  0  0  0  0  0  0999 V2000
    8.0946    0.6959   -1.6449 C   0  0  0  0  0  0  0  0  0  0  0  0
    7.1898   -0.3624   -1.3469 O   0  0  0  0  0  0  0  0  0  0  0  0
    5.8906   -0.1775   -0.8513 C   0  0  0  0  0  0  0  0  0  0  0  0
    5.1066   -1.3087   -0.6021 C   0  0  0  0  0  0  0  0  0  0  0  0
    3.8059   -1.1783   -0.1077 C   0  0  0  0  0  0  0  0  0  0  0  0
    3.2634    0.0937    0.1466 C   0  0  0  0  0  0  0  0  0  0  0  0
    4.0519    1.2305   -0.1049 C   0  0  0  0  0  0  0  0  0  0  0  0
    5.3532    1.0982   -0.5984 C   0  0  0  0  0  0  0  0  0  0  0  0
    1.8807    0.2341    0.6703 C   0  0  0  0  0  0  0  0  0  0  0  0
    1.3972   -0.6434    1.6578 C   0  0  0  0  0  0  0  0  0  0  0  0
    0.0937   -0.5137    2.1449 C   0  0  0  0  0  0  0  0  0  0  0  0
   -0.7458    0.4938    1.6559 C   0  0  0  0  0  0  0  0  0  0  0  0
   -0.2724    1.3708    0.6719 C   0  0  0  0  0  0  0  0  0  0  0  0
    1.0308    1.2439    0.1834 C   0  0  0  0  0  0  0  0  0  0  0  0
   -2.4026    0.6143    2.2414 S   0  0  0  0  0  6  0  0  0  0  0  0
   -2.9539    1.9833    1.9543 O   0  0  0  0  0  0  0  0  0  0  0  0
   -2.4165    0.3967    3.7283 O   0  0  0  0  0  0  0  0  0  0  0  0
   -3.3806   -0.6024    1.4725 N   0  0  0  0  0  0  0  0  0  0  0  0
   -3.4839   -0.3933    0.0138 C   0  0  2  0  0  0  0  0  0  0  0  0
   -4.9553   -0.1156   -0.4361 C   0  0  0  0  0  0  0  0  0  0  0  0
   -5.4829    1.1954    0.1746 C   0  0  0  0  0  0  0  0  0  0  0  0
   -5.0978   -0.0309   -1.9670 C   0  0  0  0  0  0  0  0  0  0  0  0
   -2.7805   -1.8816   -0.7911 P   0  0  0  0  0  5  0  0  0  0  0  0
   -3.8964   -3.1524   -0.7263 O   0  0  0  0  0  0  0  0  0  0  0  0
   -2.4039   -1.5483   -2.4073 O   0  0  0  0  0  0  0  0  0  0  0  0
   -1.5156   -2.2952   -0.0730 O   0  0  0  0  0  0  0  0  0  0  0  0
    8.3084    1.2849   -0.7281 H   0  0  0  0  0  0  0  0  0  0  0  0
    7.6674    1.3535   -2.4312 H   0  0  0  0  0  0  0  0  0  0  0  0
    9.0454    0.2651   -2.0201 H   0  0  0  0  0  0  0  0  0  0  0  0
    5.5071   -2.2957   -0.7963 H   0  0  0  0  0  0  0  0  0  0  0  0
    3.2183   -2.0725    0.0583 H   0  0  0  0  0  0  0  0  0  0  0  0
    3.6685    2.2229    0.0968 H   0  0  0  0  0  0  0  0  0  0  0  0
    5.9332    1.9934   -0.7765 H   0  0  0  0  0  0  0  0  0  0  0  0
    2.0309   -1.4222    2.0628 H   0  0  0  0  0  0  0  0  0  0  0  0
   -0.2633   -1.2040    2.8987 H   0  0  0  0  0  0  0  0  0  0  0  0
   -0.9140    2.1454    0.2718 H   0  0  0  0  0  0  0  0  0  0  0  0
    1.3663    1.9218   -0.5913 H   0  0  0  0  0  0  0  0  0  0  0  0
   -4.3115   -0.6382    1.9454 H   0  0  0  0  0  0  0  0  0  0  0  0
   -2.8586    0.4638   -0.3193 H   0  0  0  0  0  0  0  0  0  0  0  0
   -5.6049   -0.9459   -0.0804 H   0  0  0  0  0  0  0  0  0  0  0  0
   -6.5272    1.3823   -0.1554 H   0  0  0  0  0  0  0  0  0  0  0  0
   -4.8525    2.0538   -0.1424 H   0  0  0  0  0  0  0  0  0  0  0  0
   -5.4987    1.1515    1.2820 H   0  0  0  0  0  0  0  0  0  0  0  0
   -4.9588   -1.0281   -2.4317 H   0  0  0  0  0  0  0  0  0  0  0  0
   -6.1181    0.3079   -2.2474 H   0  0  0  0  0  0  0  0  0  0  0  0
   -4.3580    0.6816   -2.3910 H   0  0  0  0  0  0  0  0  0  0  0  0
   -4.0803   -3.2801    0.2386 H   0  0  0  0  0  0  0  0  0  0  0  0
   -1.7696   -0.7885   -2.3685 H   0  0  0  0  0  0  0  0  0  0  0  0
  1  2  1  0
  2  3  1  0
  3  4  2  0
  4  5  1  0
  5  6  2  0
  6  7  1  0
  7  8  2  0
  6  9  1  0
  9 10  2  0
 10 11  1  0
 11 12  2  0
 12 13  1  0
 13 14  2  0
 12 15  1  0
 15 16  2  0
 15 17  2  0
 15 18  1  0
 18 19  1  0
 19 20  1  0
 20 21  1  0
 20 22  1  0
 19 23  1  0
 23 24  1  0
 23 25  1  0
 23 26  2  0
  8  3  1  0
 14  9  1  0
  1 27  1  0
  1 28  1  0
  1 29  1  0
  4 30  1  0
  5 31  1  0
  7 32  1  0
  8 33  1  0
 10 34  1  0
 11 35  1  0
 13 36  1  0
 14 37  1  0
 18 38  1  0
 19 39  1  6
 20 40  1  0
 21 41  1  0
 21 42  1  0
 21 43  1  0
 22 44  1  0
 22 45  1  0
 22 46  1  0
 24 47  1  0
 25 48  1  0
M  END
$$$$
