
     RDKit          3D

155156  0  0  0  0  0  0  0  0999 V2000
    9.4184    0.4145   -3.1670 C   0  0  0  0  0  0  0  0  0  0  0  0
    9.8049    1.1070   -1.9997 O   0  0  0  0  0  0  0  0  0  0  0  0
    8.6761    1.6567   -1.3335 C   0  0  2  0  0  0  0  0  0  0  0  0
    9.0024    3.1033   -0.8965 C   0  0  0  0  0  0  0  0  0  0  0  0
   10.2615    3.2094   -0.0807 C   0  0  0  0  0  0  0  0  0  0  0  0
   10.2999    3.9045    1.0627 C   0  0  0  0  0  0  0  0  0  0  0  0
   11.5029    4.0361    1.8430 N   0  0  0  0  0  0  0  0  0  0  0  0
   11.6139    5.1692    2.7631 C   0  0  0  0  0  0  0  0  0  0  0  0
   12.4608    2.9637    1.9178 C   0  0  0  0  0  0  0  0  0  0  0  0
   13.5100    3.0828    2.6052 O   0  0  0  0  0  0  0  0  0  0  0  0
    8.2156    0.7081   -0.1857 C   0  0  1  0  0  0  0  0  0  0  0  0
    9.3221    0.3453    0.8203 C   0  0  0  0  0  0  0  0  0  0  0  0
    6.9753    1.2337    0.5138 C   0  0  0  0  0  0  0  0  0  0  0  0
    7.0866    2.0048    1.4567 O   0  0  0  0  0  0  0  0  0  0  0  0
    5.5979    0.8949   -0.0048 C   0  0  0  0  0  0  0  0  0  0  0  0
    4.6400    0.3750    1.0933 C   0  0  0  0  0  0  0  0  0  0  0  0
    4.6870   -1.1510    1.4004 C   0  0  2  0  0  0  0  0  0  0  0  0
    6.1225   -1.6389    1.6499 C   0  0  0  0  0  0  0  0  0  0  0  0
    3.9373   -2.0749    0.3719 C   0  0  2  0  0  0  0  0  0  0  0  0
    3.8900   -1.4782   -0.9152 O   0  0  0  0  0  0  0  0  0  0  0  0
    4.6143   -2.2351   -1.8606 C   0  0  0  0  0  0  0  0  0  0  0  0
    2.4938   -2.4625    0.8326 C   0  0  2  0  0  0  0  0  0  0  0  0
    1.9712   -3.6887    0.0590 C   0  0  0  0  0  0  0  0  0  0  0  0
    1.4920   -1.2585    0.9401 C   0  0  1  0  0  0  0  0  0  0  0  0
    1.5478   -0.2922   -0.1245 O   0  0  0  0  0  0  0  0  0  0  0  0
    1.0772   -0.4230   -1.4378 C   0  0  0  0  0  0  0  0  0  0  0  0
    1.2894   -1.4656   -2.1060 O   0  0  0  0  0  0  0  0  0  0  0  0
    0.2872    0.6587   -2.0389 C   0  0  0  0  0  0  0  0  0  0  0  0
    0.0288    1.7842   -1.3697 C   0  0  0  0  0  0  0  0  0  0  0  0
   -0.9219    2.7927   -1.8626 C   0  0  0  0  0  0  0  0  0  0  0  0
   -2.2498    2.5742   -1.9645 C   0  0  0  0  0  0  0  0  0  0  0  0
   -2.8381    1.1960   -1.7631 C   0  0  0  0  0  0  0  0  0  0  0  0
   -3.1827    3.7389   -2.2439 C   0  0  0  0  0  0  0  0  0  0  0  0
   -3.1068    4.8749   -1.1939 C   0  0  2  0  0  0  0  0  0  0  0  0
   -3.3138    4.3833    0.2631 C   0  0  0  0  0  0  0  0  0  0  0  0
   -4.7654    4.2008    0.6453 C   0  0  0  0  0  0  0  0  0  0  0  0
   -5.4114    5.1693    1.3112 C   0  0  0  0  0  0  0  0  0  0  0  0
   -6.7794    4.9352    1.7803 C   0  0  0  0  0  0  0  0  0  0  0  0
   -7.4566    5.8762    2.2695 O   0  0  0  0  0  0  0  0  0  0  0  0
   -7.3295    3.6570    1.6748 O   0  0  0  0  0  0  0  0  0  0  0  0
   -6.5334    2.5195    1.3190 C   0  0  2  0  0  0  0  0  0  0  0  0
   -5.5025    2.9409    0.2444 C   0  0  0  0  0  0  0  0  0  0  0  0
   -7.4739    1.3735    0.8469 C   0  0  2  0  0  0  0  0  0  0  0  0
   -8.5263    1.0775    1.9380 C   0  0  0  0  0  0  0  0  0  0  0  0
   -6.7110    0.0761    0.4239 C   0  0  2  0  0  0  0  0  0  0  0  0
   -7.6763   -0.9420   -0.2368 C   0  0  0  0  0  0  0  0  0  0  0  0
   -6.9694   -2.0509   -1.0492 C   0  0  2  0  0  0  0  0  0  0  0  0
   -7.9170   -2.6344   -1.9313 O   0  0  0  0  0  0  0  0  0  0  0  0
   -7.7399   -2.1516   -3.2453 C   0  0  0  0  0  0  0  0  0  0  0  0
   -6.4325   -3.1362   -0.1464 C   0  0  0  0  0  0  0  0  0  0  0  0
   -5.9783   -4.2997   -0.6475 C   0  0  0  0  0  0  0  0  0  0  0  0
   -5.4742   -5.4313    0.2257 C   0  0  2  0  0  0  0  0  0  0  0  0
   -6.4846   -5.7609    1.3398 C   0  0  0  0  0  0  0  0  0  0  0  0
   -4.0463   -5.1370    0.7714 C   0  0  2  0  0  0  0  0  0  0  0  0
   -2.9863   -5.2133   -0.3720 C   0  0  0  0  0  0  0  0  0  0  0  0
   -2.3210   -3.8716   -0.7383 C   0  0  1  0  0  0  0  0  0  0  0  0
   -3.3082   -2.9143   -1.0882 O   0  0  0  0  0  0  0  0  0  0  0  0
   -3.2939   -2.6679   -2.4775 C   0  0  0  0  0  0  0  0  0  0  0  0
   -1.4843   -3.3384    0.3963 C   0  0  0  0  0  0  0  0  0  0  0  0
   -0.8290   -2.1753    0.2719 C   0  0  0  0  0  0  0  0  0  0  0  0
    0.0338   -1.6125    1.3809 C   0  0  2  0  0  0  0  0  0  0  0  0
   -0.6762   -0.3825    1.9639 C   0  0  0  0  0  0  0  0  0  0  0  0
   -3.7126   -6.1257    1.7386 O   0  0  0  0  0  0  0  0  0  0  0  0
   -3.5081   -5.5525    3.0122 C   0  0  0  0  0  0  0  0  0  0  0  0
   -6.1080   -0.5188    1.5652 O   0  0  0  0  0  0  0  0  0  0  0  0
   -4.7065   -0.6107    1.4228 C   0  0  0  0  0  0  0  0  0  0  0  0
   -4.0797    5.8534   -1.5300 O   0  0  0  0  0  0  0  0  0  0  0  0
   -3.6104    7.1521   -1.2383 C   0  0  0  0  0  0  0  0  0  0  0  0
   10.3152   -0.0695   -3.6048 H   0  0  0  0  0  0  0  0  0  0  0  0
    9.0098    1.1190   -3.9243 H   0  0  0  0  0  0  0  0  0  0  0  0
    8.6788   -0.3850   -2.9417 H   0  0  0  0  0  0  0  0  0  0  0  0
    7.7988    1.7666   -2.0199 H   0  0  0  0  0  0  0  0  0  0  0  0
    8.1335    3.5468   -0.3652 H   0  0  0  0  0  0  0  0  0  0  0  0
    9.1507    3.7154   -1.8120 H   0  0  0  0  0  0  0  0  0  0  0  0
   11.1646    2.7629   -0.4757 H   0  0  0  0  0  0  0  0  0  0  0  0
    9.4079    4.4248    1.3931 H   0  0  0  0  0  0  0  0  0  0  0  0
   12.6684    5.5110    2.8322 H   0  0  0  0  0  0  0  0  0  0  0  0
   11.0059    6.0279    2.4048 H   0  0  0  0  0  0  0  0  0  0  0  0
   11.2572    4.8681    3.7705 H   0  0  0  0  0  0  0  0  0  0  0  0
   12.2883    2.0318    1.3961 H   0  0  0  0  0  0  0  0  0  0  0  0
    7.9397   -0.2500   -0.6756 H   0  0  0  0  0  0  0  0  0  0  0  0
    8.9873   -0.5017    1.4553 H   0  0  0  0  0  0  0  0  0  0  0  0
    9.5620    1.1928    1.4926 H   0  0  0  0  0  0  0  0  0  0  0  0
   10.2457    0.0276    0.2929 H   0  0  0  0  0  0  0  0  0  0  0  0
    5.1685    1.8315   -0.4215 H   0  0  0  0  0  0  0  0  0  0  0  0
    5.6692    0.1840   -0.8489 H   0  0  0  0  0  0  0  0  0  0  0  0
    4.8280    0.9321    2.0374 H   0  0  0  0  0  0  0  0  0  0  0  0
    3.6106    0.6544    0.8033 H   0  0  0  0  0  0  0  0  0  0  0  0
    4.1832   -1.2670    2.3857 H   0  0  0  0  0  0  0  0  0  0  0  0
    6.1057   -2.6520    2.1058 H   0  0  0  0  0  0  0  0  0  0  0  0
    6.6882   -1.6987    0.6990 H   0  0  0  0  0  0  0  0  0  0  0  0
    6.6466   -0.9606    2.3561 H   0  0  0  0  0  0  0  0  0  0  0  0
    4.4956   -3.0454    0.3695 H   0  0  0  0  0  0  0  0  0  0  0  0
    4.5636   -1.7187   -2.8408 H   0  0  0  0  0  0  0  0  0  0  0  0
    5.6860   -2.3133   -1.5731 H   0  0  0  0  0  0  0  0  0  0  0  0
    4.1691   -3.2464   -1.9856 H   0  0  0  0  0  0  0  0  0  0  0  0
    2.6042   -2.8496    1.8722 H   0  0  0  0  0  0  0  0  0  0  0  0
    1.7145   -3.4620   -0.9869 H   0  0  0  0  0  0  0  0  0  0  0  0
    1.0906   -4.1236    0.5693 H   0  0  0  0  0  0  0  0  0  0  0  0
    2.7389   -4.4912    0.0467 H   0  0  0  0  0  0  0  0  0  0  0  0
    1.8934   -0.7019    1.8150 H   0  0  0  0  0  0  0  0  0  0  0  0
   -0.1500    0.4978   -3.0170 H   0  0  0  0  0  0  0  0  0  0  0  0
    0.5202    1.9865   -0.4262 H   0  0  0  0  0  0  0  0  0  0  0  0
   -0.5342    3.7956   -1.9797 H   0  0  0  0  0  0  0  0  0  0  0  0
   -2.4460    0.4955   -2.5271 H   0  0  0  0  0  0  0  0  0  0  0  0
   -3.9413    1.1981   -1.8730 H   0  0  0  0  0  0  0  0  0  0  0  0
   -2.5894    0.8173   -0.7492 H   0  0  0  0  0  0  0  0  0  0  0  0
   -2.9218    4.1608   -3.2389 H   0  0  0  0  0  0  0  0  0  0  0  0
   -4.2330    3.3901   -2.3230 H   0  0  0  0  0  0  0  0  0  0  0  0
   -2.0719    5.2880   -1.2583 H   0  0  0  0  0  0  0  0  0  0  0  0
   -2.8413    5.1197    0.9500 H   0  0  0  0  0  0  0  0  0  0  0  0
   -2.7638    3.4375    0.4489 H   0  0  0  0  0  0  0  0  0  0  0  0
   -4.9219    6.1064    1.5483 H   0  0  0  0  0  0  0  0  0  0  0  0
   -5.9778    2.1860    2.2237 H   0  0  0  0  0  0  0  0  0  0  0  0
   -4.7610    2.1375    0.0955 H   0  0  0  0  0  0  0  0  0  0  0  0
   -6.0277    3.1293   -0.7163 H   0  0  0  0  0  0  0  0  0  0  0  0
   -8.0234    1.7563   -0.0424 H   0  0  0  0  0  0  0  0  0  0  0  0
   -9.2840    0.3533    1.5775 H   0  0  0  0  0  0  0  0  0  0  0  0
   -8.0436    0.6746    2.8535 H   0  0  0  0  0  0  0  0  0  0  0  0
   -9.0840    1.9975    2.2109 H   0  0  0  0  0  0  0  0  0  0  0  0
   -5.9855    0.3635   -0.3713 H   0  0  0  0  0  0  0  0  0  0  0  0
   -8.3301   -1.4135    0.5287 H   0  0  0  0  0  0  0  0  0  0  0  0
   -8.3439   -0.3883   -0.9329 H   0  0  0  0  0  0  0  0  0  0  0  0
   -6.0928   -1.6125   -1.5813 H   0  0  0  0  0  0  0  0  0  0  0  0
   -8.5480   -2.5604   -3.8856 H   0  0  0  0  0  0  0  0  0  0  0  0
   -6.7681   -2.4970   -3.6626 H   0  0  0  0  0  0  0  0  0  0  0  0
   -7.8053   -1.0413   -3.2822 H   0  0  0  0  0  0  0  0  0  0  0  0
   -6.4402   -2.9868    0.9276 H   0  0  0  0  0  0  0  0  0  0  0  0
   -5.9921   -4.4583   -1.7225 H   0  0  0  0  0  0  0  0  0  0  0  0
   -5.4209   -6.3426   -0.4112 H   0  0  0  0  0  0  0  0  0  0  0  0
   -6.2167   -6.7202    1.8312 H   0  0  0  0  0  0  0  0  0  0  0  0
   -7.5036   -5.8756    0.9116 H   0  0  0  0  0  0  0  0  0  0  0  0
   -6.5084   -4.9652    2.1128 H   0  0  0  0  0  0  0  0  0  0  0  0
   -4.0548   -4.1012    1.1949 H   0  0  0  0  0  0  0  0  0  0  0  0
   -3.4302   -5.6340   -1.3006 H   0  0  0  0  0  0  0  0  0  0  0  0
   -2.1797   -5.9268   -0.0895 H   0  0  0  0  0  0  0  0  0  0  0  0
   -1.5998   -4.0886   -1.5659 H   0  0  0  0  0  0  0  0  0  0  0  0
   -4.0669   -1.9115   -2.7167 H   0  0  0  0  0  0  0  0  0  0  0  0
   -3.5316   -3.5935   -3.0467 H   0  0  0  0  0  0  0  0  0  0  0  0
   -2.3140   -2.2500   -2.7990 H   0  0  0  0  0  0  0  0  0  0  0  0
   -1.3638   -3.9273    1.2992 H   0  0  0  0  0  0  0  0  0  0  0  0
   -1.0144   -1.5769   -0.6107 H   0  0  0  0  0  0  0  0  0  0  0  0
    0.1100   -2.3557    2.2066 H   0  0  0  0  0  0  0  0  0  0  0  0
   -0.1093    0.0208    2.8297 H   0  0  0  0  0  0  0  0  0  0  0  0
   -0.7772    0.4152    1.1977 H   0  0  0  0  0  0  0  0  0  0  0  0
   -1.6905   -0.6607    2.3223 H   0  0  0  0  0  0  0  0  0  0  0  0
   -3.2894   -6.3649    3.7349 H   0  0  0  0  0  0  0  0  0  0  0  0
   -4.4174   -5.0205    3.3670 H   0  0  0  0  0  0  0  0  0  0  0  0
   -2.6378   -4.8634    3.0052 H   0  0  0  0  0  0  0  0  0  0  0  0
   -4.3102   -1.2480    2.2394 H   0  0  0  0  0  0  0  0  0  0  0  0
   -4.4154   -1.0868    0.4618 H   0  0  0  0  0  0  0  0  0  0  0  0
   -4.2363    0.3893    1.5186 H   0  0  0  0  0  0  0  0  0  0  0  0
   -3.3006    7.2469   -0.1744 H   0  0  0  0  0  0  0  0  0  0  0  0
   -4.4344    7.8736   -1.4137 H   0  0  0  0  0  0  0  0  0  0  0  0
   -2.7700    7.4267   -1.9129 H   0  0  0  0  0  0  0  0  0  0  0  0
  1  2  1  0
  2  3  1  0
  3  4  1  0
  4  5  1  0
  5  6  2  0
  6  7  1  0
  7  8  1  0
  7  9  1  0
  9 10  2  0
  3 11  1  0
 11 12  1  0
 11 13  1  0
 13 14  2  0
 13 15  1  0
 15 16  1  0
 16 17  1  0
 17 18  1  0
 17 19  1  0
 19 20  1  0
 20 21  1  0
 19 22  1  0
 22 23  1  0
 22 24  1  0
 24 25  1  0
 25 26  1  0
 26 27  2  0
 26 28  1  0
 28 29  2  0
 29 30  1  0
 30 31  2  0
 31 32  1  0
 31 33  1  0
 33 34  1  0
 34 35  1  0
 35 36  1  0
 36 37  2  0
 37 38  1  0
 38 39  2  0
 38 40  1  0
 40 41  1  0
 41 42  1  0
 41 43  1  0
 43 44  1  0
 43 45  1  0
 45 46  1  0
 46 47  1  0
 47 48  1  0
 48 49  1  0
 47 50  1  0
 50 51  2  0
 51 52  1  0
 52 53  1  0
 52 54  1  0
 54 55  1  0
 55 56  1  0
 56 57  1  0
 57 58  1  0
 56 59  1  0
 59 60  2  0
 60 61  1  0
 61 62  1  0
 54 63  1  0
 63 64  1  0
 45 65  1  0
 65 66  1  0
 34 67  1  0
 67 68  1  0
 61 24  1  0
 42 36  1  0
  1 69  1  0
  1 70  1  0
  1 71  1  0
  3 72  1  6
  4 73  1  0
  4 74  1  0
  5 75  1  0
  6 76  1  0
  8 77  1  0
  8 78  1  0
  8 79  1  0
  9 80  1  0
 11 81  1  6
 12 82  1  0
 12 83  1  0
 12 84  1  0
 15 85  1  0
 15 86  1  0
 16 87  1  0
 16 88  1  0
 17 89  1  1
 18 90  1  0
 18 91  1  0
 18 92  1  0
 19 93  1  6
 21 94  1  0
 21 95  1  0
 21 96  1  0
 22 97  1  1
 23 98  1  0
 23 99  1  0
 23100  1  0
 24101  1  1
 28102  1  0
 29103  1  0
 30104  1  0
 32105  1  0
 32106  1  0
 32107  1  0
 33108  1  0
 33109  1  0
 34110  1  1
 35111  1  0
 35112  1  0
 37113  1  0
 41114  1  1
 42115  1  0
 42116  1  0
 43117  1  6
 44118  1  0
 44119  1  0
 44120  1  0
 45121  1  6
 46122  1  0
 46123  1  0
 47124  1  6
 49125  1  0
 49126  1  0
 49127  1  0
 50128  1  0
 51129  1  0
 52130  1  6
 53131  1  0
 53132  1  0
 53133  1  0
 54134  1  1
 55135  1  0
 55136  1  0
 56137  1  6
 58138  1  0
 58139  1  0
 58140  1  0
 59141  1  0
 60142  1  0
 61143  1  1
 62144  1  0
 62145  1  0
 62146  1  0
 64147  1  0
 64148  1  0
 64149  1  0
 66150  1  0
 66151  1  0
 66152  1  0
 68153  1  0
 68154  1  0
 68155  1  0
M  END
$$$$
