
     RDKit          3D

 56 58  0  0  0  0  0  0  0  0999 V2000
   -0.9833   -3.8211   -0.7673 C   0  0  0  0  0  0  0  0  0  0  0  0
   -1.8228   -3.3207    0.4175 C   0  0  0  0  0  0  0  0  0  0  0  0
   -1.1680   -3.6450    1.7623 C   0  0  0  0  0  0  0  0  0  0  0  0
   -2.1343   -1.8778    0.3204 N   0  0  0  0  0  0  0  0  0  0  0  0
   -1.2873   -0.8398    0.0492 C   0  0  0  0  0  0  0  0  0  0  0  0
    0.1609   -0.9764   -0.2051 C   0  0  0  0  0  0  0  0  0  0  0  0
    0.7530   -0.3548   -1.2313 C   0  0  0  0  0  0  0  0  0  0  0  0
    2.2378   -0.4338   -1.4810 C   0  0  2  0  0  0  0  0  0  0  0  0
    2.6279   -1.7603   -1.7410 O   0  0  0  0  0  0  0  0  0  0  0  0
    3.0383    0.1929   -0.3164 C   0  0  0  0  0  0  0  0  0  0  0  0
    4.5320    0.3696   -0.6565 C   0  0  2  0  0  0  0  0  0  0  0  0
    5.1190   -0.8939   -0.8341 O   0  0  0  0  0  0  0  0  0  0  0  0
    5.2777    1.1160    0.4665 C   0  0  0  0  0  0  0  0  0  0  0  0
    4.8450    2.5469    0.5739 C   0  0  0  0  0  0  0  0  0  0  0  0
    3.9912    2.9387    1.6002 O   0  0  0  0  0  0  0  0  0  0  0  0
    5.2357    3.3903   -0.2770 O   0  0  0  0  0  0  0  0  0  0  0  0
   -1.9796    0.3765    0.0615 C   0  0  0  0  0  0  0  0  0  0  0  0
   -1.4191    1.7358   -0.0999 C   0  0  0  0  0  0  0  0  0  0  0  0
   -0.2829    2.1276    0.6282 C   0  0  0  0  0  0  0  0  0  0  0  0
    0.2578    3.4053    0.4571 C   0  0  0  0  0  0  0  0  0  0  0  0
   -0.3333    4.3021   -0.4370 C   0  0  0  0  0  0  0  0  0  0  0  0
    0.1929    5.5405   -0.6024 F   0  0  0  0  0  0  0  0  0  0  0  0
   -1.4672    3.9216   -1.1608 C   0  0  0  0  0  0  0  0  0  0  0  0
   -2.0095    2.6436   -0.9939 C   0  0  0  0  0  0  0  0  0  0  0  0
   -3.2866    0.0564    0.3649 C   0  0  0  0  0  0  0  0  0  0  0  0
   -4.3973    0.8776    0.5731 C   0  0  0  0  0  0  0  0  0  0  0  0
   -5.6103    0.2697    0.9323 C   0  0  0  0  0  0  0  0  0  0  0  0
   -5.6862   -1.1277    1.0935 C   0  0  0  0  0  0  0  0  0  0  0  0
   -4.5499   -1.9316    0.8984 C   0  0  0  0  0  0  0  0  0  0  0  0
   -3.3490   -1.3083    0.5254 C   0  0  0  0  0  0  0  0  0  0  0  0
   -1.3665   -3.3902   -1.7166 H   0  0  0  0  0  0  0  0  0  0  0  0
   -1.0550   -4.9278   -0.8348 H   0  0  0  0  0  0  0  0  0  0  0  0
    0.0895   -3.5681   -0.6553 H   0  0  0  0  0  0  0  0  0  0  0  0
   -2.7641   -3.9043    0.3676 H   0  0  0  0  0  0  0  0  0  0  0  0
   -1.8322   -3.3181    2.5902 H   0  0  0  0  0  0  0  0  0  0  0  0
   -1.0077   -4.7404    1.8535 H   0  0  0  0  0  0  0  0  0  0  0  0
   -0.1911   -3.1333    1.8697 H   0  0  0  0  0  0  0  0  0  0  0  0
    0.7463   -1.6000    0.4541 H   0  0  0  0  0  0  0  0  0  0  0  0
    0.1568    0.2418   -1.9121 H   0  0  0  0  0  0  0  0  0  0  0  0
    2.4437    0.1618   -2.3968 H   0  0  0  0  0  0  0  0  0  0  0  0
    2.5654   -2.2715   -0.8927 H   0  0  0  0  0  0  0  0  0  0  0  0
    2.9359   -0.4297    0.5995 H   0  0  0  0  0  0  0  0  0  0  0  0
    2.5980    1.1896   -0.0948 H   0  0  0  0  0  0  0  0  0  0  0  0
    4.6158    0.9587   -1.6009 H   0  0  0  0  0  0  0  0  0  0  0  0
    5.9505   -0.7549   -1.3588 H   0  0  0  0  0  0  0  0  0  0  0  0
    6.3698    1.0965    0.2594 H   0  0  0  0  0  0  0  0  0  0  0  0
    5.1145    0.6015    1.4385 H   0  0  0  0  0  0  0  0  0  0  0  0
    3.6838    3.9005    1.6811 H   0  0  0  0  0  0  0  0  0  0  0  0
    0.1819    1.4470    1.3307 H   0  0  0  0  0  0  0  0  0  0  0  0
    1.1342    3.6995    1.0195 H   0  0  0  0  0  0  0  0  0  0  0  0
   -1.9240    4.6148   -1.8553 H   0  0  0  0  0  0  0  0  0  0  0  0
   -2.8776    2.3566   -1.5743 H   0  0  0  0  0  0  0  0  0  0  0  0
   -4.3323    1.9529    0.4749 H   0  0  0  0  0  0  0  0  0  0  0  0
   -6.4892    0.8791    1.0974 H   0  0  0  0  0  0  0  0  0  0  0  0
   -6.6241   -1.5845    1.3815 H   0  0  0  0  0  0  0  0  0  0  0  0
   -4.6250   -2.9975    1.0542 H   0  0  0  0  0  0  0  0  0  0  0  0
  1  2  1  0
  2  3  1  0
  2  4  1  0
  4  5  1  0
  5  6  1  0
  6  7  2  0
  7  8  1  0
  8  9  1  0
  8 10  1  0
 10 11  1  0
 11 12  1  0
 11 13  1  0
 13 14  1  0
 14 15  1  0
 14 16  2  0
  5 17  2  0
 17 18  1  0
 18 19  2  0
 19 20  1  0
 20 21  2  0
 21 22  1  0
 21 23  1  0
 23 24  2  0
 17 25  1  0
 25 26  2  0
 26 27  1  0
 27 28  2  0
 28 29  1  0
 29 30  2  0
 30  4  1  0
 24 18  1  0
 30 25  1  0
  1 31  1  0
  1 32  1  0
  1 33  1  0
  2 34  1  0
  3 35  1  0
  3 36  1  0
  3 37  1  0
  6 38  1  0
  7 39  1  0
  8 40  1  6
  9 41  1  0
 10 42  1  0
 10 43  1  0
 11 44  1  6
 12 45  1  0
 13 46  1  0
 13 47  1  0
 15 48  1  0
 19 49  1  0
 20 50  1  0
 23 51  1  0
 24 52  1  0
 26 53  1  0
 27 54  1  0
 28 55  1  0
 29 56  1  0
M  END
$$$$
