
     RDKit          3D

 37 39  0  0  0  0  0  0  0  0999 V2000
   -3.3142   -0.8093   -2.0674 F   0  0  0  0  0  0  0  0  0  0  0  0
   -3.7527   -0.2481   -0.8845 C   0  0  0  0  0  0  0  0  0  0  0  0
   -4.8365   -0.9612   -0.4076 F   0  0  0  0  0  0  0  0  0  0  0  0
   -4.1774    1.0380   -1.1725 F   0  0  0  0  0  0  0  0  0  0  0  0
   -2.6480   -0.2512    0.1568 C   0  0  0  0  0  0  0  0  0  0  0  0
   -2.4158    0.9247    0.9027 C   0  0  0  0  0  0  0  0  0  0  0  0
   -1.4307    0.9688    1.8887 C   0  0  0  0  0  0  0  0  0  0  0  0
   -0.6707   -0.1617    2.1666 C   0  0  0  0  0  0  0  0  0  0  0  0
   -0.8944   -1.3426    1.4621 C   0  0  0  0  0  0  0  0  0  0  0  0
   -1.8769   -1.4129    0.4580 C   0  0  0  0  0  0  0  0  0  0  0  0
   -2.0311   -2.9548   -0.4240 S   0  0  0  0  0  6  0  0  0  0  0  0
   -3.4767   -3.2681   -0.6878 O   0  0  0  0  0  0  0  0  0  0  0  0
   -1.4755   -4.0625    0.4268 O   0  0  0  0  0  0  0  0  0  0  0  0
   -1.1524   -2.9343   -1.9275 N   0  0  0  0  0  0  0  0  0  0  0  0
   -0.3127   -1.8080   -1.9334 N   0  0  0  0  0  0  0  0  0  0  0  0
    0.9648   -1.8471   -1.2878 C   0  0  0  0  0  0  0  0  0  0  0  0
    1.5233   -2.9559   -1.0737 O   0  0  0  0  0  0  0  0  0  0  0  0
    1.6155   -0.6119   -0.8256 C   0  0  0  0  0  0  0  0  0  0  0  0
    1.0593    0.6673   -0.8499 C   0  0  0  0  0  0  0  0  0  0  0  0
    2.0171    1.4643   -0.2700 C   0  0  0  0  0  0  0  0  0  0  0  0
    2.0235    2.8302    0.0013 C   0  0  0  0  0  0  0  0  0  0  0  0
    3.1655    3.3683    0.6257 C   0  0  0  0  0  0  0  0  0  0  0  0
    3.2322    5.0818    0.9926 Cl  0  0  0  0  0  0  0  0  0  0  0  0
    4.2572    2.5329    0.9595 C   0  0  0  0  0  0  0  0  0  0  0  0
    4.2145    1.1552    0.6747 C   0  0  0  0  0  0  0  0  0  0  0  0
    3.0706    0.6544    0.0583 C   0  0  0  0  0  0  0  0  0  0  0  0
    2.8186   -0.5863   -0.2790 O   0  0  0  0  0  0  0  0  0  0  0  0
   -2.9949    1.8219    0.7274 H   0  0  0  0  0  0  0  0  0  0  0  0
   -1.2583    1.8838    2.4407 H   0  0  0  0  0  0  0  0  0  0  0  0
    0.0973   -0.1230    2.9283 H   0  0  0  0  0  0  0  0  0  0  0  0
   -0.2783   -2.2024    1.6907 H   0  0  0  0  0  0  0  0  0  0  0  0
   -1.8492   -2.8136   -2.6971 H   0  0  0  0  0  0  0  0  0  0  0  0
   -0.6489   -0.9195   -2.3685 H   0  0  0  0  0  0  0  0  0  0  0  0
    0.0847    0.9713   -1.2076 H   0  0  0  0  0  0  0  0  0  0  0  0
    1.1777    3.4543   -0.2582 H   0  0  0  0  0  0  0  0  0  0  0  0
    5.1323    2.9513    1.4399 H   0  0  0  0  0  0  0  0  0  0  0  0
    5.0414    0.5057    0.9303 H   0  0  0  0  0  0  0  0  0  0  0  0
  1  2  1  0
  2  3  1  0
  2  4  1  0
  2  5  1  0
  5  6  2  0
  6  7  1  0
  7  8  2  0
  8  9  1  0
  9 10  2  0
 10 11  1  0
 11 12  2  0
 11 13  2  0
 11 14  1  0
 14 15  1  0
 15 16  1  0
 16 17  2  0
 16 18  1  0
 18 19  2  0
 19 20  1  0
 20 21  2  0
 21 22  1  0
 22 23  1  0
 22 24  2  0
 24 25  1  0
 25 26  2  0
 26 27  1  0
 10  5  1  0
 27 18  1  0
 26 20  1  0
  6 28  1  0
  7 29  1  0
  8 30  1  0
  9 31  1  0
 14 32  1  0
 15 33  1  0
 19 34  1  0
 21 35  1  0
 24 36  1  0
 25 37  1  0
M  END
$$$$
