
     RDKit          3D

 28 29  0  0  0  0  0  0  0  0999 V2000
    3.1867    2.4747    0.0098 N   0  0  0  0  0  0  0  0  0  0  0  0
    3.1555    0.7581    0.2359 S   0  0  0  0  0  6  0  0  0  0  0  0
    3.7119    0.4419    1.5956 O   0  0  0  0  0  0  0  0  0  0  0  0
    4.0345    0.1479   -0.8183 O   0  0  0  0  0  0  0  0  0  0  0  0
    1.5015    0.1125    0.1118 C   0  0  0  0  0  0  0  0  0  0  0  0
    0.4304    1.0101    0.2598 C   0  0  0  0  0  0  0  0  0  0  0  0
   -0.8910    0.5763    0.1477 C   0  0  0  0  0  0  0  0  0  0  0  0
   -1.1724   -0.7645   -0.1255 C   0  0  0  0  0  0  0  0  0  0  0  0
   -2.5313   -1.2122   -0.2655 N   0  0  0  0  0  0  0  0  0  0  0  0
   -3.6345   -0.2864   -0.5368 C   0  0  0  0  0  0  0  0  0  0  0  0
   -3.6881    0.7797    0.4656 N   0  0  0  0  0  0  0  0  0  0  0  0
   -2.2187    1.6979    0.3799 S   0  0  0  0  0  6  0  0  0  0  0  0
   -2.0313    2.4583    1.6626 O   0  0  0  0  0  0  0  0  0  0  0  0
   -2.2881    2.6561   -0.7755 O   0  0  0  0  0  0  0  0  0  0  0  0
   -0.1196   -1.6780   -0.2409 C   0  0  0  0  0  0  0  0  0  0  0  0
    1.2240   -1.2698   -0.1018 C   0  0  0  0  0  0  0  0  0  0  0  0
    2.3189   -2.3124   -0.2496 C   0  0  0  0  0  0  0  0  0  0  0  0
    3.2820   -2.1562    0.7291 F   0  0  0  0  0  0  0  0  0  0  0  0
    2.9020   -2.1955   -1.4973 F   0  0  0  0  0  0  0  0  0  0  0  0
    1.8160   -3.5969   -0.1275 F   0  0  0  0  0  0  0  0  0  0  0  0
    2.5911    2.6956   -0.8195 H   0  0  0  0  0  0  0  0  0  0  0  0
    2.7454    2.9150    0.8478 H   0  0  0  0  0  0  0  0  0  0  0  0
    0.6124    2.0542    0.4693 H   0  0  0  0  0  0  0  0  0  0  0  0
   -2.7393   -2.2362   -0.2419 H   0  0  0  0  0  0  0  0  0  0  0  0
   -4.5958   -0.8436   -0.5255 H   0  0  0  0  0  0  0  0  0  0  0  0
   -3.5142    0.1505   -1.5522 H   0  0  0  0  0  0  0  0  0  0  0  0
   -3.7273    0.3358    1.4122 H   0  0  0  0  0  0  0  0  0  0  0  0
   -0.3607   -2.7127   -0.4491 H   0  0  0  0  0  0  0  0  0  0  0  0
  1  2  1  0
  2  3  2  0
  2  4  2  0
  2  5  1  0
  5  6  2  0
  6  7  1  0
  7  8  2  0
  8  9  1  0
  9 10  1  0
 10 11  1  0
 11 12  1  0
 12 13  2  0
 12 14  2  0
  8 15  1  0
 15 16  2  0
 16 17  1  0
 17 18  1  0
 17 19  1  0
 17 20  1  0
 16  5  1  0
 12  7  1  0
  1 21  1  0
  1 22  1  0
  6 23  1  0
  9 24  1  0
 10 25  1  0
 10 26  1  0
 11 27  1  0
 15 28  1  0
M  END
$$$$
