
     RDKit          3D

 50 51  0  0  0  0  0  0  0  0999 V2000
    6.5595    1.2025   -3.4358 O   0  0  0  0  0  0  0  0  0  0  0  0
    7.0366    0.9204   -2.1596 C   0  0  0  0  0  0  0  0  0  0  0  0
    7.6329    1.8120   -1.4983 O   0  0  0  0  0  0  0  0  0  0  0  0
    6.7982   -0.4275   -1.5565 C   0  0  0  0  0  0  0  0  0  0  0  0
    5.4540   -0.4561   -0.8238 C   0  0  0  0  0  0  0  0  0  0  0  0
    5.1939   -1.8332   -0.2064 C   0  0  0  0  0  0  0  0  0  0  0  0
    3.8754   -1.8454    0.5067 C   0  0  0  0  0  0  0  0  0  0  0  0
    3.8503   -1.7317    1.7621 O   0  0  0  0  0  0  0  0  0  0  0  0
    2.6572   -1.9889   -0.2410 N   0  0  0  0  0  0  0  0  0  0  0  0
    1.3452   -1.7713    0.3051 C   0  0  0  0  0  0  0  0  0  0  0  0
    0.2670   -2.5286   -0.1745 C   0  0  0  0  0  0  0  0  0  0  0  0
   -1.0229   -2.3200    0.3213 C   0  0  0  0  0  0  0  0  0  0  0  0
   -1.2591   -1.3344    1.2925 C   0  0  0  0  0  0  0  0  0  0  0  0
   -2.6551   -1.1023    1.8145 C   0  0  0  0  0  0  0  0  0  0  0  0
   -3.6153   -0.4975    0.7601 C   0  0  0  0  0  0  0  0  0  0  0  0
   -3.2769    0.8758    0.2759 N   0  0  0  0  0  4  0  0  0  0  0  0
   -2.0872    0.7954   -0.3765 O   0  0  0  0  0  1  0  0  0  0  0  0
   -4.2899    1.3396   -0.7278 C   0  0  0  0  0  0  0  0  0  0  0  0
   -5.3074    2.3720   -0.1886 C   0  0  0  0  0  0  0  0  0  0  0  0
   -5.6559    2.1188    1.2772 C   0  0  0  0  0  0  0  0  0  0  0  0
   -4.4018    2.0975    2.1682 C   0  0  0  0  0  0  0  0  0  0  0  0
   -3.1052    1.8676    1.3676 C   0  0  0  0  0  0  0  0  0  0  0  0
   -0.1836   -0.5642    1.7627 C   0  0  0  0  0  0  0  0  0  0  0  0
    1.1064   -0.7740    1.2670 C   0  0  0  0  0  0  0  0  0  0  0  0
    6.6983    2.1155   -3.8520 H   0  0  0  0  0  0  0  0  0  0  0  0
    7.6212   -0.6659   -0.8476 H   0  0  0  0  0  0  0  0  0  0  0  0
    6.8036   -1.1912   -2.3643 H   0  0  0  0  0  0  0  0  0  0  0  0
    4.6386   -0.2139   -1.5417 H   0  0  0  0  0  0  0  0  0  0  0  0
    5.4562    0.3129   -0.0191 H   0  0  0  0  0  0  0  0  0  0  0  0
    6.0071   -2.0834    0.5101 H   0  0  0  0  0  0  0  0  0  0  0  0
    5.1869   -2.6098   -1.0018 H   0  0  0  0  0  0  0  0  0  0  0  0
    2.7276   -2.3439   -1.2217 H   0  0  0  0  0  0  0  0  0  0  0  0
    0.4293   -3.2896   -0.9275 H   0  0  0  0  0  0  0  0  0  0  0  0
   -1.8385   -2.9252   -0.0545 H   0  0  0  0  0  0  0  0  0  0  0  0
   -2.6459   -0.4938    2.7420 H   0  0  0  0  0  0  0  0  0  0  0  0
   -3.0680   -2.0877    2.1224 H   0  0  0  0  0  0  0  0  0  0  0  0
   -4.6355   -0.5121    1.1962 H   0  0  0  0  0  0  0  0  0  0  0  0
   -3.6517   -1.1981   -0.1051 H   0  0  0  0  0  0  0  0  0  0  0  0
   -3.7868    1.8136   -1.6022 H   0  0  0  0  0  0  0  0  0  0  0  0
   -4.8592    0.4825   -1.1548 H   0  0  0  0  0  0  0  0  0  0  0  0
   -4.8838    3.3961   -0.2860 H   0  0  0  0  0  0  0  0  0  0  0  0
   -6.2339    2.3379   -0.8020 H   0  0  0  0  0  0  0  0  0  0  0  0
   -6.2011    1.1544    1.3600 H   0  0  0  0  0  0  0  0  0  0  0  0
   -6.3488    2.9128    1.6310 H   0  0  0  0  0  0  0  0  0  0  0  0
   -4.5122    1.3031    2.9376 H   0  0  0  0  0  0  0  0  0  0  0  0
   -4.3149    3.0654    2.7085 H   0  0  0  0  0  0  0  0  0  0  0  0
   -2.2830    1.5850    2.0554 H   0  0  0  0  0  0  0  0  0  0  0  0
   -2.7883    2.8425    0.9302 H   0  0  0  0  0  0  0  0  0  0  0  0
   -0.3418    0.2051    2.5075 H   0  0  0  0  0  0  0  0  0  0  0  0
    1.9085   -0.1387    1.6176 H   0  0  0  0  0  0  0  0  0  0  0  0
  1  2  1  0
  2  3  2  0
  2  4  1  0
  4  5  1  0
  5  6  1  0
  6  7  1  0
  7  8  2  0
  7  9  1  0
  9 10  1  0
 10 11  2  0
 11 12  1  0
 12 13  2  0
 13 14  1  0
 14 15  1  0
 15 16  1  0
 16 17  1  0
 16 18  1  0
 18 19  1  0
 19 20  1  0
 20 21  1  0
 21 22  1  0
 13 23  1  0
 23 24  2  0
 24 10  1  0
 22 16  1  0
  1 25  1  0
  4 26  1  0
  4 27  1  0
  5 28  1  0
  5 29  1  0
  6 30  1  0
  6 31  1  0
  9 32  1  0
 11 33  1  0
 12 34  1  0
 14 35  1  0
 14 36  1  0
 15 37  1  0
 15 38  1  0
 18 39  1  0
 18 40  1  0
 19 41  1  0
 19 42  1  0
 20 43  1  0
 20 44  1  0
 21 45  1  0
 21 46  1  0
 22 47  1  0
 22 48  1  0
 23 49  1  0
 24 50  1  0
M  CHG  2  16   1  17  -1
M  END
$$$$
