
     RDKit          3D

 61 64  0  0  0  0  0  0  0  0999 V2000
    6.4930    0.7412   -2.3632 C   0  0  0  0  0  0  0  0  0  0  0  0
    5.4277    1.6645   -2.5648 O   0  0  0  0  0  0  0  0  0  0  0  0
    4.0866    1.4091   -2.2417 C   0  0  0  0  0  0  0  0  0  0  0  0
    3.6637    0.1851   -1.6873 C   0  0  0  0  0  0  0  0  0  0  0  0
    2.3107   -0.0266   -1.3751 C   0  0  0  0  0  0  0  0  0  0  0  0
    1.8747   -1.3201   -0.7387 C   0  0  0  0  0  0  0  0  0  0  0  0
    2.2219   -1.3254    0.6896 N   0  0  0  0  0  0  0  0  0  0  0  0
    1.5968   -0.6418    1.6903 C   0  0  0  0  0  0  0  0  0  0  0  0
    2.3380   -0.6902    2.8663 C   0  0  0  0  0  0  0  0  0  0  0  0
    3.4490   -1.4409    2.5620 C   0  0  0  0  0  0  0  0  0  0  0  0
    3.3599   -1.8073    1.2417 C   0  0  0  0  0  0  0  0  0  0  0  0
    4.3757   -2.5554    0.6322 C   0  0  0  0  0  0  0  0  0  0  0  0
    5.4850   -2.9266    1.4131 C   0  0  0  0  0  0  0  0  0  0  0  0
    5.5651   -2.5477    2.7697 C   0  0  0  0  0  0  0  0  0  0  0  0
    4.5370   -1.7921    3.3582 C   0  0  0  0  0  0  0  0  0  0  0  0
    0.3330    0.1028    1.5582 C   0  0  0  0  0  0  0  0  0  0  0  0
    0.2378    1.2489    2.0749 O   0  0  0  0  0  0  0  0  0  0  0  0
   -0.7971   -0.4888    0.9035 N   0  0  0  0  0  0  0  0  0  0  0  0
   -2.0155    0.2680    0.6096 C   0  0  0  0  0  0  0  0  0  0  0  0
   -2.9852    0.1812    1.7972 C   0  0  0  0  0  0  0  0  0  0  0  0
   -4.3145    0.8669    1.4608 C   0  0  0  0  0  0  0  0  0  0  0  0
   -4.9083    0.2621    0.2493 N   0  0  0  0  0  0  0  0  0  0  0  0
   -4.0123    0.4357   -0.9161 C   0  0  0  0  0  0  0  0  0  0  0  0
   -2.6814   -0.2786   -0.6630 C   0  0  0  0  0  0  0  0  0  0  0  0
   -6.3070    0.7173    0.0229 C   0  0  0  0  0  0  0  0  0  0  0  0
   -6.4164    2.1203   -0.6050 C   0  0  0  0  0  0  0  0  0  0  0  0
   -7.0768   -0.3135   -0.8115 C   0  0  0  0  0  0  0  0  0  0  0  0
    1.3810    0.9973   -1.6146 C   0  0  0  0  0  0  0  0  0  0  0  0
    1.7964    2.2100   -2.1676 C   0  0  0  0  0  0  0  0  0  0  0  0
    3.1424    2.4142   -2.4798 C   0  0  0  0  0  0  0  0  0  0  0  0
    7.4429    1.2044   -2.7000 H   0  0  0  0  0  0  0  0  0  0  0  0
    6.5821    0.4902   -1.2850 H   0  0  0  0  0  0  0  0  0  0  0  0
    6.3168   -0.1807   -2.9569 H   0  0  0  0  0  0  0  0  0  0  0  0
    4.3782   -0.6023   -1.4955 H   0  0  0  0  0  0  0  0  0  0  0  0
    0.7865   -1.4736   -0.8749 H   0  0  0  0  0  0  0  0  0  0  0  0
    2.3528   -2.1735   -1.2619 H   0  0  0  0  0  0  0  0  0  0  0  0
    2.0982   -0.2288    3.8157 H   0  0  0  0  0  0  0  0  0  0  0  0
    4.3258   -2.8523   -0.4055 H   0  0  0  0  0  0  0  0  0  0  0  0
    6.2840   -3.5063    0.9694 H   0  0  0  0  0  0  0  0  0  0  0  0
    6.4250   -2.8372    3.3596 H   0  0  0  0  0  0  0  0  0  0  0  0
    4.5933   -1.4885    4.3957 H   0  0  0  0  0  0  0  0  0  0  0  0
   -0.8095   -1.5272    0.7818 H   0  0  0  0  0  0  0  0  0  0  0  0
   -1.7544    1.3360    0.4305 H   0  0  0  0  0  0  0  0  0  0  0  0
   -2.5334    0.6730    2.6858 H   0  0  0  0  0  0  0  0  0  0  0  0
   -3.1769   -0.8850    2.0507 H   0  0  0  0  0  0  0  0  0  0  0  0
   -4.9923    0.7318    2.3320 H   0  0  0  0  0  0  0  0  0  0  0  0
   -4.1448    1.9574    1.3196 H   0  0  0  0  0  0  0  0  0  0  0  0
   -4.4664   -0.0049   -1.8277 H   0  0  0  0  0  0  0  0  0  0  0  0
   -3.8131    1.5135   -1.1108 H   0  0  0  0  0  0  0  0  0  0  0  0
   -2.8689   -1.3702   -0.5585 H   0  0  0  0  0  0  0  0  0  0  0  0
   -2.0080   -0.1237   -1.5335 H   0  0  0  0  0  0  0  0  0  0  0  0
   -6.8375    0.7595    1.0013 H   0  0  0  0  0  0  0  0  0  0  0  0
   -5.8373    2.8613   -0.0174 H   0  0  0  0  0  0  0  0  0  0  0  0
   -7.4785    2.4459   -0.6094 H   0  0  0  0  0  0  0  0  0  0  0  0
   -6.0548    2.1222   -1.6549 H   0  0  0  0  0  0  0  0  0  0  0  0
   -8.1604   -0.0674   -0.8129 H   0  0  0  0  0  0  0  0  0  0  0  0
   -6.9503   -1.3261   -0.3730 H   0  0  0  0  0  0  0  0  0  0  0  0
   -6.7246   -0.3301   -1.8636 H   0  0  0  0  0  0  0  0  0  0  0  0
    0.3355    0.8592   -1.3739 H   0  0  0  0  0  0  0  0  0  0  0  0
    1.0742    2.9949   -2.3517 H   0  0  0  0  0  0  0  0  0  0  0  0
    3.4547    3.3592   -2.9059 H   0  0  0  0  0  0  0  0  0  0  0  0
  1  2  1  0
  2  3  1  0
  3  4  2  0
  4  5  1  0
  5  6  1  0
  6  7  1  0
  7  8  1  0
  8  9  2  0
  9 10  1  0
 10 11  2  0
 11 12  1  0
 12 13  2  0
 13 14  1  0
 14 15  2  0
  8 16  1  0
 16 17  2  0
 16 18  1  0
 18 19  1  0
 19 20  1  0
 20 21  1  0
 21 22  1  0
 22 23  1  0
 23 24  1  0
 22 25  1  0
 25 26  1  0
 25 27  1  0
  5 28  2  0
 28 29  1  0
 29 30  2  0
 30  3  1  0
 11  7  1  0
 24 19  1  0
 15 10  1  0
  1 31  1  0
  1 32  1  0
  1 33  1  0
  4 34  1  0
  6 35  1  0
  6 36  1  0
  9 37  1  0
 12 38  1  0
 13 39  1  0
 14 40  1  0
 15 41  1  0
 18 42  1  0
 19 43  1  0
 20 44  1  0
 20 45  1  0
 21 46  1  0
 21 47  1  0
 23 48  1  0
 23 49  1  0
 24 50  1  0
 24 51  1  0
 25 52  1  0
 26 53  1  0
 26 54  1  0
 26 55  1  0
 27 56  1  0
 27 57  1  0
 27 58  1  0
 28 59  1  0
 29 60  1  0
 30 61  1  0
M  END
$$$$
