
     RDKit          3D

 81 83  0  0  0  0  0  0  0  0999 V2000
   -4.7828    1.4273    0.3891 C   0  0  0  0  0  0  0  0  0  0  0  0
   -3.6711    0.7300   -0.2940 C   0  0  0  0  0  0  0  0  0  0  0  0
   -2.3749    0.8598    0.0533 C   0  0  0  0  0  0  0  0  0  0  0  0
   -1.9039    1.7791    1.1740 C   0  0  0  0  0  0  0  0  0  0  0  0
   -0.6567    1.2520    1.9284 C   0  0  0  0  0  0  0  0  0  0  0  0
    0.4074    0.5889    1.0237 C   0  0  0  0  0  0  0  0  0  0  0  0
   -0.2320   -0.4525    0.0732 C   0  0  1  0  0  0  0  0  0  0  0  0
   -0.8717   -1.6184    0.8897 C   0  0  0  0  0  0  0  0  0  0  0  0
   -1.2644    0.2765   -0.7914 C   0  0  1  0  0  0  0  0  0  0  0  0
   -1.5534   -0.6879   -1.9441 C   0  0  0  0  0  0  0  0  0  0  0  0
   -0.2196   -1.4250   -2.1754 C   0  0  0  0  0  0  0  0  0  0  0  0
    0.7215   -0.9880   -1.0230 C   0  0  2  0  0  0  0  0  0  0  0  0
    1.8328   -1.9938   -0.5617 C   0  0  1  0  0  0  0  0  0  0  0  0
    1.4798   -3.4779   -0.7208 C   0  0  0  0  0  0  0  0  0  0  0  0
    3.0192   -1.7621   -1.3077 O   0  0  0  0  0  0  0  0  0  0  0  0
    3.8637   -0.8186   -0.6714 C   0  0  0  0  0  0  0  0  0  0  0  0
    4.8896   -1.5383    0.2143 C   0  0  0  0  0  0  0  0  0  0  0  0
    5.6639   -0.5898    1.1550 C   0  0  0  0  0  0  0  0  0  0  0  0
    6.5599    0.5002    0.4838 C   0  0  0  0  0  0  0  0  0  0  0  0
    5.7141    1.4425   -0.1363 O   0  0  0  0  0  0  0  0  0  0  0  0
    7.4194    1.2011    1.5866 C   0  0  0  0  0  0  0  0  0  0  0  0
    6.5981    1.8560    2.7024 C   0  0  0  0  0  0  0  0  0  0  0  0
    7.4842   -0.1671   -0.5846 C   0  0  0  0  0  0  0  0  0  0  0  0
    8.5598    0.7410   -1.1918 C   0  0  0  0  0  0  0  0  0  0  0  0
   -6.0618    0.9961    0.3796 C   0  0  0  0  0  0  0  0  0  0  0  0
   -7.1295    1.9598    0.8549 C   0  0  0  0  0  0  0  0  0  0  0  0
   -8.5611    1.4547    0.5878 C   0  0  1  0  0  0  0  0  0  0  0  0
   -9.4877    2.5046    0.7116 O   0  0  0  0  0  0  0  0  0  0  0  0
   -8.6594    0.7977   -0.8020 C   0  0  0  0  0  0  0  0  0  0  0  0
   -7.7965   -0.4800   -0.8836 C   0  0  2  0  0  0  0  0  0  0  0  0
   -8.5341   -1.5911   -0.4317 O   0  0  0  0  0  0  0  0  0  0  0  0
   -6.4798   -0.3470   -0.1316 C   0  0  0  0  0  0  0  0  0  0  0  0
   -5.7578   -1.4473    0.1260 C   0  0  0  0  0  0  0  0  0  0  0  0
   -4.5764    2.4002    0.8191 H   0  0  0  0  0  0  0  0  0  0  0  0
   -3.9338    0.1127   -1.1409 H   0  0  0  0  0  0  0  0  0  0  0  0
   -1.6646    2.7691    0.7297 H   0  0  0  0  0  0  0  0  0  0  0  0
   -2.6961    1.9315    1.9357 H   0  0  0  0  0  0  0  0  0  0  0  0
   -0.9796    0.5283    2.7068 H   0  0  0  0  0  0  0  0  0  0  0  0
   -0.1842    2.0986    2.4718 H   0  0  0  0  0  0  0  0  0  0  0  0
    0.9211    1.3828    0.4374 H   0  0  0  0  0  0  0  0  0  0  0  0
    1.1759    0.1042    1.6632 H   0  0  0  0  0  0  0  0  0  0  0  0
   -1.7168   -1.2724    1.5179 H   0  0  0  0  0  0  0  0  0  0  0  0
   -0.1224   -2.0815    1.5648 H   0  0  0  0  0  0  0  0  0  0  0  0
   -1.2839   -2.4066    0.2285 H   0  0  0  0  0  0  0  0  0  0  0  0
   -0.7758    1.1618   -1.2667 H   0  0  0  0  0  0  0  0  0  0  0  0
   -2.3395   -1.4222   -1.6632 H   0  0  0  0  0  0  0  0  0  0  0  0
   -1.8743   -0.1379   -2.8555 H   0  0  0  0  0  0  0  0  0  0  0  0
    0.2189   -1.1458   -3.1583 H   0  0  0  0  0  0  0  0  0  0  0  0
   -0.4240   -2.5138   -2.1803 H   0  0  0  0  0  0  0  0  0  0  0  0
    1.2653   -0.0964   -1.4160 H   0  0  0  0  0  0  0  0  0  0  0  0
    2.0077   -1.8527    0.5308 H   0  0  0  0  0  0  0  0  0  0  0  0
    0.5202   -3.7308   -0.2320 H   0  0  0  0  0  0  0  0  0  0  0  0
    2.2723   -4.0941   -0.2449 H   0  0  0  0  0  0  0  0  0  0  0  0
    1.4393   -3.7607   -1.7939 H   0  0  0  0  0  0  0  0  0  0  0  0
    3.3001   -0.0546   -0.0856 H   0  0  0  0  0  0  0  0  0  0  0  0
    4.4026   -0.2689   -1.4696 H   0  0  0  0  0  0  0  0  0  0  0  0
    5.5849   -2.1331   -0.4139 H   0  0  0  0  0  0  0  0  0  0  0  0
    4.3522   -2.2704    0.8549 H   0  0  0  0  0  0  0  0  0  0  0  0
    4.9147   -0.0997    1.8133 H   0  0  0  0  0  0  0  0  0  0  0  0
    6.3008   -1.2245    1.8103 H   0  0  0  0  0  0  0  0  0  0  0  0
    6.2584    2.2229   -0.4153 H   0  0  0  0  0  0  0  0  0  0  0  0
    8.0328    2.0072    1.1316 H   0  0  0  0  0  0  0  0  0  0  0  0
    8.1211    0.4684    2.0424 H   0  0  0  0  0  0  0  0  0  0  0  0
    5.8018    2.5035    2.2788 H   0  0  0  0  0  0  0  0  0  0  0  0
    7.2647    2.4855    3.3290 H   0  0  0  0  0  0  0  0  0  0  0  0
    6.1445    1.0878    3.3622 H   0  0  0  0  0  0  0  0  0  0  0  0
    6.8637   -0.5318   -1.4302 H   0  0  0  0  0  0  0  0  0  0  0  0
    7.9935   -1.0488   -0.1369 H   0  0  0  0  0  0  0  0  0  0  0  0
    9.0607    0.2039   -2.0248 H   0  0  0  0  0  0  0  0  0  0  0  0
    8.1189    1.6716   -1.6030 H   0  0  0  0  0  0  0  0  0  0  0  0
    9.3393    0.9894   -0.4423 H   0  0  0  0  0  0  0  0  0  0  0  0
   -6.9849    2.9310    0.3311 H   0  0  0  0  0  0  0  0  0  0  0  0
   -7.0044    2.1394    1.9448 H   0  0  0  0  0  0  0  0  0  0  0  0
   -8.8141    0.6981    1.3614 H   0  0  0  0  0  0  0  0  0  0  0  0
   -9.3054    3.1568   -0.0149 H   0  0  0  0  0  0  0  0  0  0  0  0
   -9.7197    0.5487   -1.0266 H   0  0  0  0  0  0  0  0  0  0  0  0
   -8.3164    1.5211   -1.5751 H   0  0  0  0  0  0  0  0  0  0  0  0
   -7.5550   -0.6557   -1.9542 H   0  0  0  0  0  0  0  0  0  0  0  0
   -8.6865   -1.4787    0.5427 H   0  0  0  0  0  0  0  0  0  0  0  0
   -4.8631   -1.4090    0.7336 H   0  0  0  0  0  0  0  0  0  0  0  0
   -6.0698   -2.4168   -0.2415 H   0  0  0  0  0  0  0  0  0  0  0  0
  1  2  1  0
  2  3  2  0
  3  4  1  0
  4  5  1  0
  5  6  1  0
  6  7  1  0
  7  8  1  1
  7  9  1  0
  9 10  1  0
 10 11  1  0
 11 12  1  0
 12 13  1  0
 13 14  1  0
 13 15  1  0
 15 16  1  0
 16 17  1  0
 17 18  1  0
 18 19  1  0
 19 20  1  0
 19 21  1  0
 21 22  1  0
 19 23  1  0
 23 24  1  0
  1 25  2  0
 25 26  1  0
 26 27  1  0
 27 28  1  0
 27 29  1  0
 29 30  1  0
 30 31  1  0
 30 32  1  0
 32 33  2  3
  9  3  1  0
 32 25  1  0
 12  7  1  0
  1 34  1  0
  2 35  1  0
  4 36  1  0
  4 37  1  0
  5 38  1  0
  5 39  1  0
  6 40  1  0
  6 41  1  0
  8 42  1  0
  8 43  1  0
  8 44  1  0
  9 45  1  6
 10 46  1  0
 10 47  1  0
 11 48  1  0
 11 49  1  0
 12 50  1  6
 13 51  1  1
 14 52  1  0
 14 53  1  0
 14 54  1  0
 16 55  1  0
 16 56  1  0
 17 57  1  0
 17 58  1  0
 18 59  1  0
 18 60  1  0
 20 61  1  0
 21 62  1  0
 21 63  1  0
 22 64  1  0
 22 65  1  0
 22 66  1  0
 23 67  1  0
 23 68  1  0
 24 69  1  0
 24 70  1  0
 24 71  1  0
 26 72  1  0
 26 73  1  0
 27 74  1  1
 28 75  1  0
 29 76  1  0
 29 77  1  0
 30 78  1  6
 31 79  1  0
 33 80  1  0
 33 81  1  0
M  END
$$$$
