
     RDKit          3D

 56 55  0  0  0  0  0  0  0  0999 V2000
    9.5374    0.2301    1.1467 C   0  0  0  0  0  0  0  0  0  0  0  0
    8.3058    0.0970    0.2554 C   0  0  0  0  0  0  0  0  0  0  0  0
    7.1470    0.9566    0.7812 C   0  0  0  0  0  0  0  0  0  0  0  0
    5.9513    1.0111   -0.1878 C   0  0  0  0  0  0  0  0  0  0  0  0
    5.2497   -0.3369   -0.4296 C   0  0  0  0  0  0  0  0  0  0  0  0
    4.6145   -0.8808    0.8300 C   0  0  0  0  0  0  0  0  0  0  0  0
    3.2990   -1.1008    1.0230 C   0  0  0  0  0  0  0  0  0  0  0  0
    2.1959   -0.8361    0.0262 C   0  0  0  0  0  0  0  0  0  0  0  0
    1.6052    0.5780    0.1963 C   0  0  1  0  0  0  0  0  0  0  0  0
    2.5598    1.5625   -0.1101 O   0  0  0  0  0  0  0  0  0  0  0  0
    0.3731    0.7623   -0.6573 C   0  0  0  0  0  0  0  0  0  0  0  0
   -0.7762    0.1460   -0.3672 C   0  0  0  0  0  0  0  0  0  0  0  0
   -1.9752    0.3453   -1.1980 C   0  0  0  0  0  0  0  0  0  0  0  0
   -3.1232   -0.2704   -0.9068 C   0  0  0  0  0  0  0  0  0  0  0  0
   -4.3224   -0.0660   -1.7455 C   0  0  0  0  0  0  0  0  0  0  0  0
   -5.5220   -0.6209   -1.5104 C   0  0  0  0  0  0  0  0  0  0  0  0
   -5.8640   -1.5337   -0.3566 C   0  0  1  0  0  0  0  0  0  0  0  0
   -4.9826   -2.6278   -0.3576 O   0  0  0  0  0  0  0  0  0  0  0  0
   -5.8265   -0.8018    1.0102 C   0  0  0  0  0  0  0  0  0  0  0  0
   -7.1892   -0.2408    1.4627 C   0  0  0  0  0  0  0  0  0  0  0  0
   -7.5822    1.0833    0.7824 C   0  0  0  0  0  0  0  0  0  0  0  0
   -8.2079    0.8949   -0.5661 C   0  0  0  0  0  0  0  0  0  0  0  0
   -7.8180    1.7095   -1.6247 O   0  0  0  0  0  0  0  0  0  0  0  0
   -9.1277    0.0491   -0.7318 O   0  0  0  0  0  0  0  0  0  0  0  0
    9.2999   -0.0922    2.1830 H   0  0  0  0  0  0  0  0  0  0  0  0
    9.8920    1.2828    1.1617 H   0  0  0  0  0  0  0  0  0  0  0  0
   10.3528   -0.4125    0.7528 H   0  0  0  0  0  0  0  0  0  0  0  0
    8.5736    0.4128   -0.7764 H   0  0  0  0  0  0  0  0  0  0  0  0
    8.0071   -0.9722    0.2344 H   0  0  0  0  0  0  0  0  0  0  0  0
    7.5102    1.9983    0.9224 H   0  0  0  0  0  0  0  0  0  0  0  0
    6.8227    0.5885    1.7773 H   0  0  0  0  0  0  0  0  0  0  0  0
    5.2104    1.7367    0.2111 H   0  0  0  0  0  0  0  0  0  0  0  0
    6.2997    1.4108   -1.1652 H   0  0  0  0  0  0  0  0  0  0  0  0
    5.9727   -1.0838   -0.8155 H   0  0  0  0  0  0  0  0  0  0  0  0
    4.5114   -0.1906   -1.2390 H   0  0  0  0  0  0  0  0  0  0  0  0
    5.2825   -1.1466    1.6434 H   0  0  0  0  0  0  0  0  0  0  0  0
    2.9968   -1.5081    1.9840 H   0  0  0  0  0  0  0  0  0  0  0  0
    2.5189   -1.0194   -1.0188 H   0  0  0  0  0  0  0  0  0  0  0  0
    1.3968   -1.5818    0.2275 H   0  0  0  0  0  0  0  0  0  0  0  0
    1.3102    0.7171    1.2602 H   0  0  0  0  0  0  0  0  0  0  0  0
    2.7930    1.4691   -1.0711 H   0  0  0  0  0  0  0  0  0  0  0  0
    0.4195    1.4364   -1.5055 H   0  0  0  0  0  0  0  0  0  0  0  0
   -0.8303   -0.5090    0.4954 H   0  0  0  0  0  0  0  0  0  0  0  0
   -1.9194    1.0041   -2.0581 H   0  0  0  0  0  0  0  0  0  0  0  0
   -3.1624   -0.9256   -0.0467 H   0  0  0  0  0  0  0  0  0  0  0  0
   -4.2302    0.5647   -2.6226 H   0  0  0  0  0  0  0  0  0  0  0  0
   -6.3056   -0.4302   -2.2330 H   0  0  0  0  0  0  0  0  0  0  0  0
   -6.8956   -1.9168   -0.5378 H   0  0  0  0  0  0  0  0  0  0  0  0
   -5.4107   -3.3452    0.1794 H   0  0  0  0  0  0  0  0  0  0  0  0
   -5.5075   -1.5314    1.7868 H   0  0  0  0  0  0  0  0  0  0  0  0
   -5.0678    0.0089    1.0250 H   0  0  0  0  0  0  0  0  0  0  0  0
   -7.1114   -0.0354    2.5530 H   0  0  0  0  0  0  0  0  0  0  0  0
   -7.9886   -1.0054    1.3513 H   0  0  0  0  0  0  0  0  0  0  0  0
   -8.3237    1.6058    1.4242 H   0  0  0  0  0  0  0  0  0  0  0  0
   -6.6958    1.7487    0.6980 H   0  0  0  0  0  0  0  0  0  0  0  0
   -8.2428    1.6119   -2.5391 H   0  0  0  0  0  0  0  0  0  0  0  0
  1  2  1  0
  2  3  1  0
  3  4  1  0
  4  5  1  0
  5  6  1  0
  6  7  2  0
  7  8  1  0
  8  9  1  0
  9 10  1  0
  9 11  1  0
 11 12  2  0
 12 13  1  0
 13 14  2  0
 14 15  1  0
 15 16  2  0
 16 17  1  0
 17 18  1  0
 17 19  1  0
 19 20  1  0
 20 21  1  0
 21 22  1  0
 22 23  1  0
 22 24  2  0
  1 25  1  0
  1 26  1  0
  1 27  1  0
  2 28  1  0
  2 29  1  0
  3 30  1  0
  3 31  1  0
  4 32  1  0
  4 33  1  0
  5 34  1  0
  5 35  1  0
  6 36  1  0
  7 37  1  0
  8 38  1  0
  8 39  1  0
  9 40  1  1
 10 41  1  0
 11 42  1  0
 12 43  1  0
 13 44  1  0
 14 45  1  0
 15 46  1  0
 16 47  1  0
 17 48  1  6
 18 49  1  0
 19 50  1  0
 19 51  1  0
 20 52  1  0
 20 53  1  0
 21 54  1  0
 21 55  1  0
 23 56  1  0
M  END
$$$$
