
     RDKit          3D

 27 28  0  0  0  0  0  0  0  0999 V2000
    0.7644   -1.4318    1.9101 C   0  0  0  0  0  0  0  0  0  0  0  0
    1.3164   -0.4697    0.8986 C   0  0  0  0  0  0  0  0  0  0  0  0
    0.4956    0.1400   -0.0745 C   0  0  0  0  0  0  0  0  0  0  0  0
    1.0988    1.0381   -0.9804 C   0  0  0  0  0  0  0  0  0  0  0  0
    0.3449    1.6876   -2.0100 N   0  0  0  0  0  0  0  0  0  0  0  0
    2.4326    1.2826   -0.8933 N   0  0  0  0  0  0  0  0  0  0  0  0
    3.2042    0.6814    0.0468 C   0  0  0  0  0  0  0  0  0  0  0  0
    4.6010    0.9592    0.1078 N   0  0  0  0  0  0  0  0  0  0  0  0
    2.6451   -0.1854    0.9281 N   0  0  0  0  0  0  0  0  0  0  0  0
   -0.9548   -0.1417   -0.1303 C   0  0  0  0  0  0  0  0  0  0  0  0
   -1.8764    0.8228    0.3026 C   0  0  0  0  0  0  0  0  0  0  0  0
   -3.2505    0.5597    0.2549 C   0  0  0  0  0  0  0  0  0  0  0  0
   -4.3733    1.7952    0.8066 Cl  0  0  0  0  0  0  0  0  0  0  0  0
   -3.7087   -0.6781   -0.2288 C   0  0  0  0  0  0  0  0  0  0  0  0
   -5.4258   -1.0486   -0.3049 Cl  0  0  0  0  0  0  0  0  0  0  0  0
   -2.7878   -1.6396   -0.6606 C   0  0  0  0  0  0  0  0  0  0  0  0
   -1.4169   -1.3741   -0.6126 C   0  0  0  0  0  0  0  0  0  0  0  0
    0.4630   -2.3742    1.4075 H   0  0  0  0  0  0  0  0  0  0  0  0
    1.5303   -1.6711    2.6782 H   0  0  0  0  0  0  0  0  0  0  0  0
   -0.1146   -0.9868    2.4226 H   0  0  0  0  0  0  0  0  0  0  0  0
    0.8183    2.3583   -2.6553 H   0  0  0  0  0  0  0  0  0  0  0  0
   -0.6692    1.4957   -2.1635 H   0  0  0  0  0  0  0  0  0  0  0  0
    5.2005    0.4995    0.8287 H   0  0  0  0  0  0  0  0  0  0  0  0
    5.0376    1.6250   -0.5677 H   0  0  0  0  0  0  0  0  0  0  0  0
   -1.5249    1.7766    0.6775 H   0  0  0  0  0  0  0  0  0  0  0  0
   -3.1340   -2.5946   -1.0350 H   0  0  0  0  0  0  0  0  0  0  0  0
   -0.7158   -2.1261   -0.9533 H   0  0  0  0  0  0  0  0  0  0  0  0
  1  2  1  0
  2  3  2  0
  3  4  1  0
  4  5  1  0
  4  6  2  0
  6  7  1  0
  7  8  1  0
  7  9  2  0
  3 10  1  0
 10 11  2  0
 11 12  1  0
 12 13  1  0
 12 14  2  0
 14 15  1  0
 14 16  1  0
 16 17  2  0
  9  2  1  0
 17 10  1  0
  1 18  1  0
  1 19  1  0
  1 20  1  0
  5 21  1  0
  5 22  1  0
  8 23  1  0
  8 24  1  0
 11 25  1  0
 16 26  1  0
 17 27  1  0
M  END
$$$$
