
     RDKit          3D

 60 60  0  0  0  0  0  0  0  0999 V2000
    7.4683   -1.3730    0.7881 C   0  0  0  0  0  0  0  0  0  0  0  0
    7.0814    0.0490    1.1814 C   0  0  0  0  0  0  0  0  0  0  0  0
    6.0899    0.5932    0.2418 N   0  0  0  0  0  0  0  0  0  0  0  0
    6.5472    1.5149   -0.8076 C   0  0  0  0  0  0  0  0  0  0  0  0
    6.4552    2.9603   -0.3284 C   0  0  0  0  0  0  0  0  0  0  0  0
    4.6995    0.2093    0.3611 C   0  0  0  0  0  0  0  0  0  0  0  0
    4.3534   -0.6001    1.2655 O   0  0  0  0  0  0  0  0  0  0  0  0
    3.6966    0.7550   -0.5151 N   0  0  0  0  0  0  0  0  0  0  0  0
    2.4235    0.1279   -0.7500 C   0  0  0  0  0  0  0  0  0  0  0  0
    1.3105    0.9214   -1.0423 C   0  0  0  0  0  0  0  0  0  0  0  0
    0.0679    0.3378   -1.2863 C   0  0  0  0  0  0  0  0  0  0  0  0
   -0.0880   -1.0623   -1.2568 C   0  0  0  0  0  0  0  0  0  0  0  0
   -1.3417   -1.6680   -1.4552 O   0  0  0  0  0  0  0  0  0  0  0  0
   -2.5957   -0.9929   -1.5603 C   0  0  0  0  0  0  0  0  0  0  0  0
   -3.0671   -0.4978   -0.1812 C   0  0  0  0  0  0  0  0  0  0  0  0
   -3.1414   -1.5680    0.7283 O   0  0  0  0  0  0  0  0  0  0  0  0
   -4.4209    0.2244   -0.2848 C   0  0  0  0  0  0  0  0  0  0  0  0
   -4.8305    0.7096    1.0445 N   0  0  0  0  0  0  0  0  0  0  0  0
   -6.2364    1.1771    1.1444 C   0  0  0  0  0  0  0  0  0  0  0  0
   -6.5611    2.2573    0.0874 C   0  0  0  0  0  0  0  0  0  0  0  0
   -6.4342    1.7909    2.5464 C   0  0  0  0  0  0  0  0  0  0  0  0
   -7.2156   -0.0095    1.0058 C   0  0  0  0  0  0  0  0  0  0  0  0
    1.0436   -1.8769   -1.0117 C   0  0  0  0  0  0  0  0  0  0  0  0
    2.2865   -1.2693   -0.7530 C   0  0  0  0  0  0  0  0  0  0  0  0
    0.9656   -3.3624   -1.0035 C   0  0  0  0  0  0  0  0  0  0  0  0
    0.0041   -4.1215   -1.8671 C   0  0  0  0  0  0  0  0  0  0  0  0
    1.7342   -4.0169   -0.2478 O   0  0  0  0  0  0  0  0  0  0  0  0
    7.8876   -1.3818   -0.2403 H   0  0  0  0  0  0  0  0  0  0  0  0
    6.5838   -2.0425    0.8261 H   0  0  0  0  0  0  0  0  0  0  0  0
    8.2363   -1.7583    1.4913 H   0  0  0  0  0  0  0  0  0  0  0  0
    6.6759    0.0606    2.2164 H   0  0  0  0  0  0  0  0  0  0  0  0
    7.9985    0.6781    1.1880 H   0  0  0  0  0  0  0  0  0  0  0  0
    5.9599    1.3746   -1.7396 H   0  0  0  0  0  0  0  0  0  0  0  0
    7.6044    1.2954   -1.0742 H   0  0  0  0  0  0  0  0  0  0  0  0
    7.1199    3.1125    0.5481 H   0  0  0  0  0  0  0  0  0  0  0  0
    5.4150    3.2136   -0.0373 H   0  0  0  0  0  0  0  0  0  0  0  0
    6.7758    3.6439   -1.1424 H   0  0  0  0  0  0  0  0  0  0  0  0
    3.8460    1.7043   -0.9212 H   0  0  0  0  0  0  0  0  0  0  0  0
    1.4034    2.0001   -1.0667 H   0  0  0  0  0  0  0  0  0  0  0  0
   -0.7660    0.9926   -1.4921 H   0  0  0  0  0  0  0  0  0  0  0  0
   -2.5306   -0.1587   -2.2907 H   0  0  0  0  0  0  0  0  0  0  0  0
   -3.3400   -1.7135   -1.9615 H   0  0  0  0  0  0  0  0  0  0  0  0
   -2.3216    0.2274    0.2079 H   0  0  0  0  0  0  0  0  0  0  0  0
   -3.8179   -2.2088    0.3846 H   0  0  0  0  0  0  0  0  0  0  0  0
   -4.3151    1.0808   -0.9875 H   0  0  0  0  0  0  0  0  0  0  0  0
   -5.1647   -0.4843   -0.7012 H   0  0  0  0  0  0  0  0  0  0  0  0
   -4.1901    1.5002    1.2969 H   0  0  0  0  0  0  0  0  0  0  0  0
   -7.5701    2.6878    0.2664 H   0  0  0  0  0  0  0  0  0  0  0  0
   -5.8152    3.0796    0.1312 H   0  0  0  0  0  0  0  0  0  0  0  0
   -6.5598    1.8305   -0.9377 H   0  0  0  0  0  0  0  0  0  0  0  0
   -7.4832    2.1292    2.6918 H   0  0  0  0  0  0  0  0  0  0  0  0
   -5.7671    2.6686    2.6879 H   0  0  0  0  0  0  0  0  0  0  0  0
   -6.1940    1.0428    3.3327 H   0  0  0  0  0  0  0  0  0  0  0  0
   -6.9029   -0.8463    1.6666 H   0  0  0  0  0  0  0  0  0  0  0  0
   -8.2460    0.2961    1.2894 H   0  0  0  0  0  0  0  0  0  0  0  0
   -7.2686   -0.3814   -0.0377 H   0  0  0  0  0  0  0  0  0  0  0  0
    3.1589   -1.8898   -0.5906 H   0  0  0  0  0  0  0  0  0  0  0  0
    0.4148   -5.1266   -2.1006 H   0  0  0  0  0  0  0  0  0  0  0  0
   -0.1616   -3.5872   -2.8263 H   0  0  0  0  0  0  0  0  0  0  0  0
   -0.9606   -4.2490   -1.3334 H   0  0  0  0  0  0  0  0  0  0  0  0
  1  2  1  0
  2  3  1  0
  3  4  1  0
  4  5  1  0
  3  6  1  0
  6  7  2  0
  6  8  1  0
  8  9  1  0
  9 10  2  0
 10 11  1  0
 11 12  2  0
 12 13  1  0
 13 14  1  0
 14 15  1  0
 15 16  1  0
 15 17  1  0
 17 18  1  0
 18 19  1  0
 19 20  1  0
 19 21  1  0
 19 22  1  0
 12 23  1  0
 23 24  2  0
 23 25  1  0
 25 26  1  0
 25 27  2  0
 24  9  1  0
  1 28  1  0
  1 29  1  0
  1 30  1  0
  2 31  1  0
  2 32  1  0
  4 33  1  0
  4 34  1  0
  5 35  1  0
  5 36  1  0
  5 37  1  0
  8 38  1  0
 10 39  1  0
 11 40  1  0
 14 41  1  0
 14 42  1  0
 15 43  1  0
 16 44  1  0
 17 45  1  0
 17 46  1  0
 18 47  1  0
 20 48  1  0
 20 49  1  0
 20 50  1  0
 21 51  1  0
 21 52  1  0
 21 53  1  0
 22 54  1  0
 22 55  1  0
 22 56  1  0
 24 57  1  0
 26 58  1  0
 26 59  1  0
 26 60  1  0
M  END
$$$$
