
     RDKit          3D

 39 42  0  0  0  0  0  0  0  0999 V2000
   -2.7299    0.6095    0.1877 C   0  0  1  0  0  0  0  0  0  0  0  0
   -2.3423    1.3888   -1.0651 C   0  0  0  0  0  0  0  0  0  0  0  0
   -3.6570    1.9838   -1.5742 C   0  0  0  0  0  0  0  0  0  0  0  0
   -4.7635    1.0745   -1.0405 C   0  0  0  0  0  0  0  0  0  0  0  0
   -4.1420    0.2894    0.0122 N   0  0  0  0  0  0  0  0  0  0  0  0
   -4.2848   -1.1262    0.1040 C   0  0  0  0  0  0  0  0  0  0  0  0
   -5.3770   -1.7370   -0.0386 O   0  0  0  0  0  0  0  0  0  0  0  0
   -2.9960   -1.7420    0.2985 C   0  0  0  0  0  0  0  0  0  0  0  0
   -2.0569   -0.7342    0.3241 C   0  0  0  0  0  0  0  0  0  0  0  0
   -0.6927   -1.0250    0.4733 C   0  0  0  0  0  0  0  0  0  0  0  0
    0.2741    0.0366    0.5419 N   0  0  0  0  0  0  0  0  0  0  0  0
    1.6009   -0.0545    0.0021 C   0  0  0  0  0  0  0  0  0  0  0  0
    1.9110   -1.0103   -0.7601 O   0  0  0  0  0  0  0  0  0  0  0  0
    2.5454    0.9934    0.2693 N   0  0  0  0  0  0  0  0  0  0  0  0
    3.9470    0.9202   -0.0353 C   0  0  0  0  0  0  0  0  0  0  0  0
    4.6540   -0.2939    0.0263 C   0  0  0  0  0  0  0  0  0  0  0  0
    6.0224   -0.3059   -0.2523 C   0  0  0  0  0  0  0  0  0  0  0  0
    6.6774    0.8832   -0.5742 C   0  0  0  0  0  0  0  0  0  0  0  0
    5.9513    2.0748   -0.6040 C   0  0  0  0  0  0  0  0  0  0  0  0
    4.6191    2.0675   -0.3313 N   0  0  0  0  0  0  0  0  0  0  0  0
   -0.3180   -2.3814    0.6094 C   0  0  0  0  0  0  0  0  0  0  0  0
   -1.2893   -3.4017    0.5700 C   0  0  0  0  0  0  0  0  0  0  0  0
   -2.6463   -3.0852    0.4078 C   0  0  0  0  0  0  0  0  0  0  0  0
   -2.5928    1.2175    1.1084 H   0  0  0  0  0  0  0  0  0  0  0  0
   -1.6007    2.1835   -0.8337 H   0  0  0  0  0  0  0  0  0  0  0  0
   -1.9239    0.7085   -1.8403 H   0  0  0  0  0  0  0  0  0  0  0  0
   -3.7846    3.0081   -1.1599 H   0  0  0  0  0  0  0  0  0  0  0  0
   -3.6727    2.0347   -2.6846 H   0  0  0  0  0  0  0  0  0  0  0  0
   -5.1356    0.4126   -1.8538 H   0  0  0  0  0  0  0  0  0  0  0  0
   -5.6061    1.6681   -0.6264 H   0  0  0  0  0  0  0  0  0  0  0  0
   -0.0254    0.9534    0.9433 H   0  0  0  0  0  0  0  0  0  0  0  0
    2.1763    1.9018    0.6300 H   0  0  0  0  0  0  0  0  0  0  0  0
    4.1658   -1.2155    0.3125 H   0  0  0  0  0  0  0  0  0  0  0  0
    6.5764   -1.2347   -0.2085 H   0  0  0  0  0  0  0  0  0  0  0  0
    7.7383    0.8831   -0.7886 H   0  0  0  0  0  0  0  0  0  0  0  0
    6.4470    3.0067   -0.8410 H   0  0  0  0  0  0  0  0  0  0  0  0
    0.7166   -2.6532    0.7712 H   0  0  0  0  0  0  0  0  0  0  0  0
   -0.9877   -4.4360    0.6732 H   0  0  0  0  0  0  0  0  0  0  0  0
   -3.3981   -3.8630    0.3736 H   0  0  0  0  0  0  0  0  0  0  0  0
  1  2  1  0
  2  3  1  0
  3  4  1  0
  4  5  1  0
  5  6  1  0
  6  7  2  0
  6  8  1  0
  8  9  2  0
  9 10  1  0
 10 11  1  0
 11 12  1  0
 12 13  2  0
 12 14  1  0
 14 15  1  0
 15 16  2  0
 16 17  1  0
 17 18  2  0
 18 19  1  0
 19 20  2  0
 10 21  2  0
 21 22  1  0
 22 23  2  0
  5  1  1  0
 23  8  1  0
  9  1  1  0
 20 15  1  0
  1 24  1  1
  2 25  1  0
  2 26  1  0
  3 27  1  0
  3 28  1  0
  4 29  1  0
  4 30  1  0
 11 31  1  0
 14 32  1  0
 16 33  1  0
 17 34  1  0
 18 35  1  0
 19 36  1  0
 21 37  1  0
 22 38  1  0
 23 39  1  0
M  END
$$$$
