
     RDKit          3D

 28 27  0  0  0  0  0  0  0  0999 V2000
    3.2917   -0.9368   -1.7431 N   0  0  0  0  0  0  0  0  0  0  0  0
    2.2530   -0.2429   -0.9791 C   0  0  1  0  0  0  0  0  0  0  0  0
    1.6289   -1.1848    0.0779 C   0  0  0  0  0  0  0  0  0  0  0  0
    0.4920   -0.5488    0.9002 C   0  0  0  0  0  0  0  0  0  0  0  0
   -0.7568   -0.2455    0.0588 C   0  0  0  0  0  0  0  0  0  0  0  0
   -1.9164    0.2206    0.9505 C   0  0  0  0  0  0  0  0  0  0  0  0
   -3.2536    0.5584    0.1007 B   0  0  0  0  0  4  0  0  0  0  0  0
   -2.9596    1.5935   -0.9135 O   0  0  0  0  0  0  0  0  0  0  0  0
   -3.7242   -0.6668   -0.5790 O   0  0  0  0  0  0  0  0  0  0  0  0
   -4.3070    1.0556    1.0138 O   0  0  0  0  0  0  0  0  0  0  0  0
    2.8447    0.9836   -0.3429 C   0  0  0  0  0  0  0  0  0  0  0  0
    3.8992    0.8635    0.5578 O   0  0  0  0  0  0  0  0  0  0  0  0
    2.3817    2.1230   -0.6184 O   0  0  0  0  0  0  0  0  0  0  0  0
    2.8491   -1.7232   -2.2724 H   0  0  0  0  0  0  0  0  0  0  0  0
    3.9883   -1.3588   -1.0857 H   0  0  0  0  0  0  0  0  0  0  0  0
    1.4638    0.0709   -1.6964 H   0  0  0  0  0  0  0  0  0  0  0  0
    2.4221   -1.5181    0.7829 H   0  0  0  0  0  0  0  0  0  0  0  0
    1.2408   -2.0967   -0.4267 H   0  0  0  0  0  0  0  0  0  0  0  0
    0.2165   -1.2658    1.7046 H   0  0  0  0  0  0  0  0  0  0  0  0
    0.8489    0.3802    1.3950 H   0  0  0  0  0  0  0  0  0  0  0  0
   -1.0587   -1.1618   -0.4948 H   0  0  0  0  0  0  0  0  0  0  0  0
   -0.5213    0.5544   -0.6748 H   0  0  0  0  0  0  0  0  0  0  0  0
   -1.6119    1.1312    1.5108 H   0  0  0  0  0  0  0  0  0  0  0  0
   -2.1596   -0.5746    1.6882 H   0  0  0  0  0  0  0  0  0  0  0  0
   -2.7515    2.4242   -0.4133 H   0  0  0  0  0  0  0  0  0  0  0  0
   -4.5365   -0.4053   -1.0841 H   0  0  0  0  0  0  0  0  0  0  0  0
   -4.5669    0.2886    1.5863 H   0  0  0  0  0  0  0  0  0  0  0  0
    4.3033    1.6821    0.9967 H   0  0  0  0  0  0  0  0  0  0  0  0
  1  2  1  0
  2  3  1  0
  3  4  1  0
  4  5  1  0
  5  6  1  0
  6  7  1  0
  7  8  1  0
  7  9  1  0
  7 10  1  0
  2 11  1  0
 11 12  1  0
 11 13  2  0
  1 14  1  0
  1 15  1  0
  2 16  1  6
  3 17  1  0
  3 18  1  0
  4 19  1  0
  4 20  1  0
  5 21  1  0
  5 22  1  0
  6 23  1  0
  6 24  1  0
  8 25  1  0
  9 26  1  0
 10 27  1  0
 12 28  1  0
M  CHG  1   7  -1
M  END
$$$$
