
     RDKit          3D

 20 19  0  0  0  0  0  0  0  0999 V2000
   -2.0788    0.0458   -0.0494 C   0  0  0  0  0  0  0  0  0  0  0  0
   -1.9983    1.3613    0.6658 C   0  0  0  0  0  0  0  0  0  0  0  0
   -1.0286   -0.7742   -0.2375 C   0  0  0  0  0  0  0  0  0  0  0  0
   -1.2209   -1.9962   -0.9597 N   0  0  0  0  0  0  0  0  0  0  0  0
    0.3685   -0.4267    0.2224 C   0  0  0  0  0  0  0  0  0  0  0  0
    1.1441    0.2778   -0.8937 C   0  0  0  0  0  0  0  0  0  0  0  0
    2.5283    0.6141   -0.4377 C   0  0  0  0  0  0  0  0  0  0  0  0
    3.5530   -0.3144   -0.5907 O   0  0  0  0  0  0  0  0  0  0  0  0
    2.7581    1.7203    0.1205 O   0  0  0  0  0  0  0  0  0  0  0  0
   -3.0489   -0.2472   -0.4336 H   0  0  0  0  0  0  0  0  0  0  0  0
   -2.9907    1.8583    0.6424 H   0  0  0  0  0  0  0  0  0  0  0  0
   -1.2613    2.0271    0.1709 H   0  0  0  0  0  0  0  0  0  0  0  0
   -1.7130    1.2033    1.7269 H   0  0  0  0  0  0  0  0  0  0  0  0
   -2.1633   -2.2764   -1.3132 H   0  0  0  0  0  0  0  0  0  0  0  0
   -0.4144   -2.6314   -1.1508 H   0  0  0  0  0  0  0  0  0  0  0  0
    0.8978   -1.3646    0.4996 H   0  0  0  0  0  0  0  0  0  0  0  0
    0.3498    0.2069    1.1345 H   0  0  0  0  0  0  0  0  0  0  0  0
    1.2075   -0.3852   -1.7839 H   0  0  0  0  0  0  0  0  0  0  0  0
    0.6189    1.2097   -1.1955 H   0  0  0  0  0  0  0  0  0  0  0  0
    4.4923   -0.1084   -0.2723 H   0  0  0  0  0  0  0  0  0  0  0  0
  1  2  1  0
  1  3  2  0
  3  4  1  0
  3  5  1  0
  5  6  1  0
  6  7  1  0
  7  8  1  0
  7  9  2  0
  1 10  1  0
  2 11  1  0
  2 12  1  0
  2 13  1  0
  4 14  1  0
  4 15  1  0
  5 16  1  0
  5 17  1  0
  6 18  1  0
  6 19  1  0
  8 20  1  0
M  END
$$$$
