
     RDKit          3D

 28 29  0  0  0  0  0  0  0  0999 V2000
    0.9135   -1.9671    0.1288 C   0  0  0  0  0  0  0  0  0  0  0  0
    0.3141   -0.6321   -0.2701 C   0  0  0  0  0  0  0  0  0  0  0  0
    1.1103    0.4008   -0.8378 C   0  0  0  0  0  0  0  0  0  0  0  0
    2.5898    0.2259   -1.1325 C   0  0  0  0  0  0  0  0  0  0  0  0
    3.4412    0.6218    0.0776 C   0  0  0  0  0  0  0  0  0  0  0  0
    4.7978    0.3906   -0.1876 O   0  0  0  0  0  0  0  0  0  0  0  0
    0.5009    1.6447   -1.1059 C   0  0  0  0  0  0  0  0  0  0  0  0
    1.1792    2.6067   -1.5564 O   0  0  0  0  0  0  0  0  0  0  0  0
   -0.7937    1.8272   -0.8915 O   0  0  0  0  0  0  0  0  0  0  0  0
   -1.5906    0.8771   -0.4262 C   0  0  0  0  0  0  0  0  0  0  0  0
   -2.9517    1.1555   -0.2577 C   0  0  0  0  0  0  0  0  0  0  0  0
   -3.8227    0.1672    0.2130 C   0  0  0  0  0  0  0  0  0  0  0  0
   -5.1790    0.4370    0.3816 O   0  0  0  0  0  0  0  0  0  0  0  0
   -3.3304   -1.1040    0.5128 C   0  0  0  0  0  0  0  0  0  0  0  0
   -1.9722   -1.3925    0.3537 C   0  0  0  0  0  0  0  0  0  0  0  0
   -1.0764   -0.4011   -0.1067 C   0  0  0  0  0  0  0  0  0  0  0  0
    0.6509   -2.7347   -0.6287 H   0  0  0  0  0  0  0  0  0  0  0  0
    0.5314   -2.2790    1.1228 H   0  0  0  0  0  0  0  0  0  0  0  0
    2.0121   -1.9418    0.2460 H   0  0  0  0  0  0  0  0  0  0  0  0
    2.8843    0.8557   -1.9999 H   0  0  0  0  0  0  0  0  0  0  0  0
    2.8171   -0.8134   -1.4477 H   0  0  0  0  0  0  0  0  0  0  0  0
    3.2752    1.6942    0.3301 H   0  0  0  0  0  0  0  0  0  0  0  0
    3.1484    0.0186    0.9623 H   0  0  0  0  0  0  0  0  0  0  0  0
    5.0996    1.1242   -0.7847 H   0  0  0  0  0  0  0  0  0  0  0  0
   -3.3324    2.1404   -0.4992 H   0  0  0  0  0  0  0  0  0  0  0  0
   -5.5678    1.3489    0.1715 H   0  0  0  0  0  0  0  0  0  0  0  0
   -4.0040   -1.8738    0.8679 H   0  0  0  0  0  0  0  0  0  0  0  0
   -1.6446   -2.3972    0.5803 H   0  0  0  0  0  0  0  0  0  0  0  0
  1  2  1  0
  2  3  2  0
  3  4  1  0
  4  5  1  0
  5  6  1  0
  3  7  1  0
  7  8  2  0
  7  9  1  0
  9 10  1  0
 10 11  2  0
 11 12  1  0
 12 13  1  0
 12 14  2  0
 14 15  1  0
 15 16  2  0
 16  2  1  0
 16 10  1  0
  1 17  1  0
  1 18  1  0
  1 19  1  0
  4 20  1  0
  4 21  1  0
  5 22  1  0
  5 23  1  0
  6 24  1  0
 11 25  1  0
 13 26  1  0
 14 27  1  0
 15 28  1  0
M  END
$$$$
