
     RDKit          3D

124127  0  0  0  0  0  0  0  0999 V2000
    5.3293    3.2645    3.3645 C   0  0  0  0  0  0  0  0  0  0  0  0
    4.4659    2.6458    2.4367 O   0  0  0  0  0  0  0  0  0  0  0  0
    5.0254    2.6694    1.1317 C   0  0  1  0  0  0  0  0  0  0  0  0
    4.6308    1.3749    0.4162 C   0  0  0  0  0  0  0  0  0  0  0  0
    3.0909    1.2784    0.2821 C   0  0  2  0  0  0  0  0  0  0  0  0
    2.7660    0.5617   -0.8996 O   0  0  0  0  0  0  0  0  0  0  0  0
    1.5319   -0.1429   -0.7872 C   0  0  1  0  0  0  0  0  0  0  0  0
    0.6111    0.1592   -2.0274 C   0  0  2  0  0  0  0  0  0  0  0  0
    0.8122    1.6097   -2.5158 C   0  0  0  0  0  0  0  0  0  0  0  0
   -0.8976   -0.1314   -1.6916 C   0  0  1  0  0  0  0  0  0  0  0  0
   -1.5351    1.0592   -1.2392 O   0  0  0  0  0  0  0  0  0  0  0  0
   -1.9181    1.0063    0.1261 C   0  0  2  0  0  0  0  0  0  0  0  0
   -3.2537    0.5360    0.1969 O   0  0  0  0  0  0  0  0  0  0  0  0
   -3.6562    0.3596    1.5479 C   0  0  2  0  0  0  0  0  0  0  0  0
   -5.1238   -0.0682    1.5594 C   0  0  0  0  0  0  0  0  0  0  0  0
   -3.4498    1.6486    2.3923 C   0  0  0  0  0  0  0  0  0  0  0  0
   -3.0874    2.8494    1.4880 C   0  0  1  0  0  0  0  0  0  0  0  0
   -1.7854    2.4350    0.7284 C   0  0  1  0  0  0  0  0  0  0  0  0
   -0.6745    2.4415    1.6323 O   0  0  0  0  0  0  0  0  0  0  0  0
   -0.0476    3.6064    2.0888 C   0  0  0  0  0  0  0  0  0  0  0  0
    1.0781    3.5010    3.0608 C   0  0  0  0  0  0  0  0  0  0  0  0
   -0.4382    4.7432    1.7079 O   0  0  0  0  0  0  0  0  0  0  0  0
   -4.2282    3.1924    0.5788 N   0  0  0  0  0  0  0  0  0  0  0  0
   -5.3477    3.7907    1.3371 C   0  0  0  0  0  0  0  0  0  0  0  0
   -3.8424    4.1330   -0.4934 C   0  0  0  0  0  0  0  0  0  0  0  0
   -1.7412   -0.7582   -2.8421 C   0  0  1  0  0  0  0  0  0  0  0  0
   -1.8078    0.1243   -4.0960 C   0  0  0  0  0  0  0  0  0  0  0  0
   -1.3009   -2.2132   -3.2040 C   0  0  0  0  0  0  0  0  0  0  0  0
   -2.3638   -3.2947   -2.8945 C   0  0  2  0  0  0  0  0  0  0  0  0
   -3.1420   -3.7554   -4.0806 C   0  0  0  0  0  0  0  0  0  0  0  0
   -3.7143   -2.9356   -3.0918 O   0  0  0  0  0  0  0  0  0  0  0  0
   -2.1156   -4.3871   -1.8700 C   0  0  0  0  0  0  0  0  0  0  0  0
   -1.5316   -5.3921   -2.2478 O   0  0  0  0  0  0  0  0  0  0  0  0
   -2.6908   -4.3637   -0.4569 C   0  0  2  0  0  0  0  0  0  0  0  0
   -3.2928   -3.0125   -0.0372 C   0  0  0  0  0  0  0  0  0  0  0  0
   -1.8069   -5.0386    0.6553 C   0  0  1  0  0  0  0  0  0  0  0  0
   -1.8041   -6.4495    0.4063 O   0  0  0  0  0  0  0  0  0  0  0  0
   -1.6039   -7.4215    1.3941 C   0  0  0  0  0  0  0  0  0  0  0  0
   -1.5630   -8.8599    1.0061 C   0  0  0  0  0  0  0  0  0  0  0  0
   -1.5090   -7.1007    2.6099 O   0  0  0  0  0  0  0  0  0  0  0  0
   -0.3259   -4.5548    0.9021 C   0  0  1  0  0  0  0  0  0  0  0  0
    0.6289   -4.9494   -0.2386 C   0  0  0  0  0  0  0  0  0  0  0  0
   -0.1429   -3.0707    1.3454 C   0  0  1  0  0  0  0  0  0  0  0  0
   -0.8935   -2.7656    2.6464 C   0  0  0  0  0  0  0  0  0  0  0  0
    1.2410   -2.7848    1.5976 O   0  0  0  0  0  0  0  0  0  0  0  0
    2.1364   -2.0781    0.7715 C   0  0  0  0  0  0  0  0  0  0  0  0
    3.2696   -1.7971    1.2447 O   0  0  0  0  0  0  0  0  0  0  0  0
    1.8225   -1.6713   -0.6556 C   0  0  2  0  0  0  0  0  0  0  0  0
    2.9446   -2.1477   -1.5965 C   0  0  0  0  0  0  0  0  0  0  0  0
    2.4369    2.5452    0.2845 O   0  0  0  0  0  0  0  0  0  0  0  0
    3.1783    3.5197   -0.4272 C   0  0  1  0  0  0  0  0  0  0  0  0
    2.3088    4.7609   -0.6371 C   0  0  0  0  0  0  0  0  0  0  0  0
    4.4771    3.8861    0.3391 C   0  0  2  0  0  0  0  0  0  0  0  0
    5.4471    4.3399   -0.6084 O   0  0  0  0  0  0  0  0  0  0  0  0
    6.5863    5.0754   -0.2632 C   0  0  0  0  0  0  0  0  0  0  0  0
    7.5454    5.4829   -1.3288 C   0  0  0  0  0  0  0  0  0  0  0  0
    6.7867    5.4373    0.9277 O   0  0  0  0  0  0  0  0  0  0  0  0
    4.8253    3.2908    4.3522 H   0  0  0  0  0  0  0  0  0  0  0  0
    6.2691    2.6811    3.4800 H   0  0  0  0  0  0  0  0  0  0  0  0
    5.5550    4.3134    3.0745 H   0  0  0  0  0  0  0  0  0  0  0  0
    6.1423    2.6961    1.1487 H   0  0  0  0  0  0  0  0  0  0  0  0
    5.0215    0.4972    0.9762 H   0  0  0  0  0  0  0  0  0  0  0  0
    5.1032    1.3614   -0.5917 H   0  0  0  0  0  0  0  0  0  0  0  0
    2.7541    0.7408    1.1980 H   0  0  0  0  0  0  0  0  0  0  0  0
    0.9494    0.1774    0.1084 H   0  0  0  0  0  0  0  0  0  0  0  0
    0.9240   -0.4922   -2.8694 H   0  0  0  0  0  0  0  0  0  0  0  0
    1.8430    1.7500   -2.9039 H   0  0  0  0  0  0  0  0  0  0  0  0
    0.1199    1.8670   -3.3387 H   0  0  0  0  0  0  0  0  0  0  0  0
    0.6378    2.3223   -1.6850 H   0  0  0  0  0  0  0  0  0  0  0  0
   -0.9157   -0.9228   -0.9275 H   0  0  0  0  0  0  0  0  0  0  0  0
   -1.2564    0.3329    0.7246 H   0  0  0  0  0  0  0  0  0  0  0  0
   -3.0735   -0.4741    2.0030 H   0  0  0  0  0  0  0  0  0  0  0  0
   -5.7622    0.7217    1.1110 H   0  0  0  0  0  0  0  0  0  0  0  0
   -5.2516   -0.9987    0.9683 H   0  0  0  0  0  0  0  0  0  0  0  0
   -5.4606   -0.2658    2.5994 H   0  0  0  0  0  0  0  0  0  0  0  0
   -4.3126    1.8665    3.0530 H   0  0  0  0  0  0  0  0  0  0  0  0
   -2.6065    1.4725    3.0968 H   0  0  0  0  0  0  0  0  0  0  0  0
   -2.8562    3.7237    2.1373 H   0  0  0  0  0  0  0  0  0  0  0  0
   -1.5367    3.1546   -0.0777 H   0  0  0  0  0  0  0  0  0  0  0  0
    0.7161    3.7616    4.0767 H   0  0  0  0  0  0  0  0  0  0  0  0
    1.8954    4.1950    2.7722 H   0  0  0  0  0  0  0  0  0  0  0  0
    1.4763    2.4646    3.0713 H   0  0  0  0  0  0  0  0  0  0  0  0
   -5.0171    4.6882    1.9056 H   0  0  0  0  0  0  0  0  0  0  0  0
   -5.8005    3.0578    2.0311 H   0  0  0  0  0  0  0  0  0  0  0  0
   -6.1747    4.0843    0.6546 H   0  0  0  0  0  0  0  0  0  0  0  0
   -4.7323    4.5703   -0.9968 H   0  0  0  0  0  0  0  0  0  0  0  0
   -3.2176    4.9641   -0.0968 H   0  0  0  0  0  0  0  0  0  0  0  0
   -3.3028    3.5905   -1.2969 H   0  0  0  0  0  0  0  0  0  0  0  0
   -2.7809   -0.7891   -2.4494 H   0  0  0  0  0  0  0  0  0  0  0  0
   -0.8234    0.1616   -4.6076 H   0  0  0  0  0  0  0  0  0  0  0  0
   -2.1337    1.1530   -3.8337 H   0  0  0  0  0  0  0  0  0  0  0  0
   -2.5506   -0.2950   -4.8080 H   0  0  0  0  0  0  0  0  0  0  0  0
   -0.3782   -2.4925   -2.6696 H   0  0  0  0  0  0  0  0  0  0  0  0
   -1.0069   -2.2776   -4.2751 H   0  0  0  0  0  0  0  0  0  0  0  0
   -3.0434   -3.1916   -5.0323 H   0  0  0  0  0  0  0  0  0  0  0  0
   -3.5957   -4.7689   -4.0487 H   0  0  0  0  0  0  0  0  0  0  0  0
   -3.5838   -5.0253   -0.5286 H   0  0  0  0  0  0  0  0  0  0  0  0
   -4.1683   -2.7653   -0.6707 H   0  0  0  0  0  0  0  0  0  0  0  0
   -2.5708   -2.1889   -0.1260 H   0  0  0  0  0  0  0  0  0  0  0  0
   -3.6765   -3.0599    1.0018 H   0  0  0  0  0  0  0  0  0  0  0  0
   -2.3592   -4.8917    1.6086 H   0  0  0  0  0  0  0  0  0  0  0  0
   -0.8476   -9.4098    1.6533 H   0  0  0  0  0  0  0  0  0  0  0  0
   -1.2373   -8.9570   -0.0508 H   0  0  0  0  0  0  0  0  0  0  0  0
   -2.5747   -9.3019    1.1181 H   0  0  0  0  0  0  0  0  0  0  0  0
    0.0351   -5.1514    1.7690 H   0  0  0  0  0  0  0  0  0  0  0  0
    0.5134   -6.0227   -0.4965 H   0  0  0  0  0  0  0  0  0  0  0  0
    1.6846   -4.8111    0.0745 H   0  0  0  0  0  0  0  0  0  0  0  0
    0.4544   -4.3478   -1.1467 H   0  0  0  0  0  0  0  0  0  0  0  0
   -0.5370   -2.3941    0.5841 H   0  0  0  0  0  0  0  0  0  0  0  0
   -0.6603   -1.7297    2.9739 H   0  0  0  0  0  0  0  0  0  0  0  0
   -1.9887   -2.8287    2.5157 H   0  0  0  0  0  0  0  0  0  0  0  0
   -0.5821   -3.4664    3.4500 H   0  0  0  0  0  0  0  0  0  0  0  0
    0.9324   -2.2191   -0.9707 H   0  0  0  0  0  0  0  0  0  0  0  0
    3.9147   -1.6707   -1.3407 H   0  0  0  0  0  0  0  0  0  0  0  0
    3.0658   -3.2491   -1.5144 H   0  0  0  0  0  0  0  0  0  0  0  0
    2.7027   -1.9134   -2.6532 H   0  0  0  0  0  0  0  0  0  0  0  0
    3.4369    3.1316   -1.4409 H   0  0  0  0  0  0  0  0  0  0  0  0
    1.9987    5.1894    0.3391 H   0  0  0  0  0  0  0  0  0  0  0  0
    1.3971    4.4994   -1.2120 H   0  0  0  0  0  0  0  0  0  0  0  0
    2.8723    5.5305   -1.2063 H   0  0  0  0  0  0  0  0  0  0  0  0
    4.2594    4.7106    1.0555 H   0  0  0  0  0  0  0  0  0  0  0  0
    7.4764    4.7833   -2.1880 H   0  0  0  0  0  0  0  0  0  0  0  0
    8.5835    5.4653   -0.9349 H   0  0  0  0  0  0  0  0  0  0  0  0
    7.3007    6.5089   -1.6736 H   0  0  0  0  0  0  0  0  0  0  0  0
  1  2  1  0
  2  3  1  0
  3  4  1  0
  4  5  1  0
  5  6  1  0
  6  7  1  0
  7  8  1  0
  8  9  1  0
  8 10  1  0
 10 11  1  0
 11 12  1  0
 12 13  1  0
 13 14  1  0
 14 15  1  0
 14 16  1  0
 16 17  1  0
 17 18  1  0
 18 19  1  0
 19 20  1  0
 20 21  1  0
 20 22  2  0
 17 23  1  0
 23 24  1  0
 23 25  1  0
 10 26  1  0
 26 27  1  0
 26 28  1  0
 28 29  1  0
 29 30  1  0
 30 31  1  0
 29 32  1  0
 32 33  2  0
 32 34  1  0
 34 35  1  0
 34 36  1  0
 36 37  1  0
 37 38  1  0
 38 39  1  0
 38 40  2  0
 36 41  1  0
 41 42  1  0
 41 43  1  0
 43 44  1  0
 43 45  1  0
 45 46  1  0
 46 47  2  0
 46 48  1  0
 48 49  1  0
  5 50  1  0
 50 51  1  0
 51 52  1  0
 51 53  1  0
 53 54  1  0
 54 55  1  0
 55 56  1  0
 55 57  2  0
 53  3  1  0
 48  7  1  0
 18 12  1  0
 29 31  1  1
  1 58  1  0
  1 59  1  0
  1 60  1  0
  3 61  1  1
  4 62  1  0
  4 63  1  0
  5 64  1  1
  7 65  1  1
  8 66  1  6
  9 67  1  0
  9 68  1  0
  9 69  1  0
 10 70  1  1
 12 71  1  1
 14 72  1  1
 15 73  1  0
 15 74  1  0
 15 75  1  0
 16 76  1  0
 16 77  1  0
 17 78  1  1
 18 79  1  6
 21 80  1  0
 21 81  1  0
 21 82  1  0
 24 83  1  0
 24 84  1  0
 24 85  1  0
 25 86  1  0
 25 87  1  0
 25 88  1  0
 26 89  1  1
 27 90  1  0
 27 91  1  0
 27 92  1  0
 28 93  1  0
 28 94  1  0
 30 95  1  0
 30 96  1  0
 34 97  1  6
 35 98  1  0
 35 99  1  0
 35100  1  0
 36101  1  1
 39102  1  0
 39103  1  0
 39104  1  0
 41105  1  1
 42106  1  0
 42107  1  0
 42108  1  0
 43109  1  6
 44110  1  0
 44111  1  0
 44112  1  0
 48113  1  6
 49114  1  0
 49115  1  0
 49116  1  0
 51117  1  6
 52118  1  0
 52119  1  0
 52120  1  0
 53121  1  1
 56122  1  0
 56123  1  0
 56124  1  0
M  END
$$$$
