
     RDKit          3D

 65 67  0  0  0  0  0  0  0  0999 V2000
    6.2186   -3.7912   -0.5282 C   0  0  0  0  0  0  0  0  0  0  0  0
    4.9050   -3.5297   -1.2703 C   0  0  0  0  0  0  0  0  0  0  0  0
    4.0202   -4.7742   -1.2457 C   0  0  0  0  0  0  0  0  0  0  0  0
    4.2002   -2.4505   -0.6572 O   0  0  0  0  0  0  0  0  0  0  0  0
    4.5592   -1.1055   -0.8088 C   0  0  0  0  0  0  0  0  0  0  0  0
    5.5175   -0.7758   -1.5602 O   0  0  0  0  0  0  0  0  0  0  0  0
    3.8018   -0.0496   -0.0587 C   0  0  2  0  0  0  0  0  0  0  0  0
    4.1000   -0.1799    1.4436 C   0  0  0  0  0  0  0  0  0  0  0  0
    2.3675   -0.1938   -0.3588 N   0  0  0  0  0  0  0  0  0  0  0  0
    1.4469    1.2425    0.0959 P   0  0  2  0  0  5  0  0  0  0  0  0
    1.1557    1.2165    1.5810 O   0  0  0  0  0  0  0  0  0  0  0  0
   -0.0143    1.2911   -0.7829 O   0  0  0  0  0  0  0  0  0  0  0  0
   -0.7598    0.1325   -0.4904 C   0  0  0  0  0  0  0  0  0  0  0  0
   -2.1516    0.2566   -1.1178 C   0  0  1  0  0  0  0  0  0  0  0  0
   -2.8589   -0.9480   -0.9137 O   0  0  0  0  0  0  0  0  0  0  0  0
   -4.1753   -0.5989   -0.5537 C   0  0  1  0  0  0  0  0  0  0  0  0
   -4.8167   -1.6657    0.2491 N   0  0  0  0  0  0  0  0  0  0  0  0
   -4.0550   -2.5133    1.0102 C   0  0  0  0  0  0  0  0  0  0  0  0
   -4.6517   -3.5031    1.7857 C   0  0  0  0  0  0  0  0  0  0  0  0
   -6.0376   -3.6107    1.7786 C   0  0  0  0  0  0  0  0  0  0  0  0
   -6.6045   -4.4976    2.4710 O   0  0  0  0  0  0  0  0  0  0  0  0
   -6.7775   -2.7555    1.0263 N   0  0  0  0  0  0  0  0  0  0  0  0
   -6.1852   -1.7888    0.2713 C   0  0  0  0  0  0  0  0  0  0  0  0
   -6.9107   -1.0082   -0.4048 O   0  0  0  0  0  0  0  0  0  0  0  0
   -4.1243    0.7499    0.1730 C   0  0  2  0  0  0  0  0  0  0  0  0
   -3.8747    0.6265    1.6882 C   0  0  0  0  0  0  0  0  0  0  0  0
   -5.3053    1.4506   -0.0269 F   0  0  0  0  0  0  0  0  0  0  0  0
   -2.9539    1.4305   -0.5191 C   0  0  2  0  0  0  0  0  0  0  0  0
   -3.4203    2.2676   -1.5474 O   0  0  0  0  0  0  0  0  0  0  0  0
    2.3457    2.6637   -0.2781 O   0  0  0  0  0  0  0  0  0  0  0  0
    1.8819    3.9737   -0.0870 C   0  0  0  0  0  0  0  0  0  0  0  0
    2.7301    5.0302   -0.4443 C   0  0  0  0  0  0  0  0  0  0  0  0
    2.3212    6.3571   -0.2801 C   0  0  0  0  0  0  0  0  0  0  0  0
    1.0579    6.6401    0.2440 C   0  0  0  0  0  0  0  0  0  0  0  0
    0.2027    5.5964    0.6052 C   0  0  0  0  0  0  0  0  0  0  0  0
    0.6082    4.2677    0.4433 C   0  0  0  0  0  0  0  0  0  0  0  0
    6.7573   -4.6464   -0.9891 H   0  0  0  0  0  0  0  0  0  0  0  0
    6.8749   -2.8979   -0.5838 H   0  0  0  0  0  0  0  0  0  0  0  0
    6.0199   -4.0198    0.5408 H   0  0  0  0  0  0  0  0  0  0  0  0
    5.1242   -3.2817   -2.3328 H   0  0  0  0  0  0  0  0  0  0  0  0
    3.0745   -4.5718   -1.7920 H   0  0  0  0  0  0  0  0  0  0  0  0
    4.5364   -5.6250   -1.7397 H   0  0  0  0  0  0  0  0  0  0  0  0
    3.7734   -5.0551   -0.1993 H   0  0  0  0  0  0  0  0  0  0  0  0
    4.1677    0.9413   -0.4078 H   0  0  0  0  0  0  0  0  0  0  0  0
    3.6932   -1.1319    1.8475 H   0  0  0  0  0  0  0  0  0  0  0  0
    5.1975   -0.1604    1.6171 H   0  0  0  0  0  0  0  0  0  0  0  0
    3.6593    0.6693    2.0040 H   0  0  0  0  0  0  0  0  0  0  0  0
    1.9728   -1.0081    0.1670 H   0  0  0  0  0  0  0  0  0  0  0  0
   -0.8803   -0.0174    0.6066 H   0  0  0  0  0  0  0  0  0  0  0  0
   -0.2600   -0.7602   -0.9283 H   0  0  0  0  0  0  0  0  0  0  0  0
   -2.0210    0.3982   -2.2146 H   0  0  0  0  0  0  0  0  0  0  0  0
   -4.7424   -0.4705   -1.5057 H   0  0  0  0  0  0  0  0  0  0  0  0
   -2.9758   -2.4248    1.0346 H   0  0  0  0  0  0  0  0  0  0  0  0
   -4.0442   -4.1705    2.3847 H   0  0  0  0  0  0  0  0  0  0  0  0
   -7.8201   -2.8392    1.0300 H   0  0  0  0  0  0  0  0  0  0  0  0
   -4.7394    0.1380    2.1848 H   0  0  0  0  0  0  0  0  0  0  0  0
   -3.7582    1.6360    2.1370 H   0  0  0  0  0  0  0  0  0  0  0  0
   -2.9568    0.0381    1.8972 H   0  0  0  0  0  0  0  0  0  0  0  0
   -2.3552    2.0369    0.2029 H   0  0  0  0  0  0  0  0  0  0  0  0
   -2.6444    2.8131   -1.8416 H   0  0  0  0  0  0  0  0  0  0  0  0
    3.7110    4.8207   -0.8522 H   0  0  0  0  0  0  0  0  0  0  0  0
    2.9840    7.1658   -0.5598 H   0  0  0  0  0  0  0  0  0  0  0  0
    0.7418    7.6675    0.3705 H   0  0  0  0  0  0  0  0  0  0  0  0
   -0.7760    5.8168    1.0117 H   0  0  0  0  0  0  0  0  0  0  0  0
   -0.0772    3.4853    0.7345 H   0  0  0  0  0  0  0  0  0  0  0  0
  1  2  1  0
  2  3  1  0
  2  4  1  0
  4  5  1  0
  5  6  2  0
  5  7  1  0
  7  8  1  0
  7  9  1  0
  9 10  1  0
 10 11  2  0
 10 12  1  6
 12 13  1  0
 13 14  1  0
 14 15  1  0
 15 16  1  0
 16 17  1  0
 17 18  1  0
 18 19  2  0
 19 20  1  0
 20 21  2  0
 20 22  1  0
 22 23  1  0
 23 24  2  0
 16 25  1  0
 25 26  1  0
 25 27  1  1
 25 28  1  0
 28 29  1  0
 10 30  1  0
 30 31  1  0
 31 32  2  0
 32 33  1  0
 33 34  2  0
 34 35  1  0
 35 36  2  0
 28 14  1  0
 36 31  1  0
 23 17  1  0
  1 37  1  0
  1 38  1  0
  1 39  1  0
  2 40  1  0
  3 41  1  0
  3 42  1  0
  3 43  1  0
  7 44  1  6
  8 45  1  0
  8 46  1  0
  8 47  1  0
  9 48  1  0
 13 49  1  0
 13 50  1  0
 14 51  1  6
 16 52  1  6
 18 53  1  0
 19 54  1  0
 22 55  1  0
 26 56  1  0
 26 57  1  0
 26 58  1  0
 28 59  1  1
 29 60  1  0
 32 61  1  0
 33 62  1  0
 34 63  1  0
 35 64  1  0
 36 65  1  0
M  END
$$$$
