
     RDKit          3D

 30 31  0  0  0  0  0  0  0  0999 V2000
    4.5518   -0.0968   -0.3962 C   0  0  0  0  0  0  0  0  0  0  0  0
    3.1125   -0.2098    0.1225 C   0  0  2  0  0  0  0  0  0  0  0  0
    2.6800   -1.5466    0.0526 O   0  0  0  0  0  0  0  0  0  0  0  0
    2.1541    0.7252   -0.6497 C   0  0  2  0  0  0  0  0  0  0  0  0
    2.5431    2.0615   -0.4606 O   0  0  0  0  0  0  0  0  0  0  0  0
    0.7267    0.5373   -0.1900 C   0  0  0  0  0  0  0  0  0  0  0  0
   -0.0925   -0.1241   -0.9574 N   0  0  0  0  0  0  0  0  0  0  0  0
   -1.4555   -0.3833   -0.6074 C   0  0  0  0  0  0  0  0  0  0  0  0
   -1.9839    0.1512    0.5645 C   0  0  0  0  0  0  0  0  0  0  0  0
   -1.1378    0.9395    1.4058 N   0  0  0  0  0  0  0  0  0  0  0  0
    0.3111    0.9995    1.1981 C   0  0  0  0  0  0  0  0  0  0  0  0
   -3.2889   -0.0664    0.8871 N   0  0  0  0  0  0  0  0  0  0  0  0
   -4.0883   -0.8135    0.0738 C   0  0  0  0  0  0  0  0  0  0  0  0
   -5.4545   -1.0426    0.4185 N   0  0  0  0  0  0  0  0  0  0  0  0
   -3.5843   -1.3430   -1.0739 N   0  0  0  0  0  0  0  0  0  0  0  0
   -2.2894   -1.1421   -1.4314 C   0  0  0  0  0  0  0  0  0  0  0  0
   -1.8513   -1.6398   -2.5021 O   0  0  0  0  0  0  0  0  0  0  0  0
    5.2088   -0.7937    0.1662 H   0  0  0  0  0  0  0  0  0  0  0  0
    4.9355    0.9356   -0.2533 H   0  0  0  0  0  0  0  0  0  0  0  0
    4.6004   -0.3543   -1.4759 H   0  0  0  0  0  0  0  0  0  0  0  0
    3.1200    0.0905    1.1929 H   0  0  0  0  0  0  0  0  0  0  0  0
    2.6660   -1.8075   -0.9058 H   0  0  0  0  0  0  0  0  0  0  0  0
    2.2243    0.4757   -1.7357 H   0  0  0  0  0  0  0  0  0  0  0  0
    2.0749    2.5972   -1.1536 H   0  0  0  0  0  0  0  0  0  0  0  0
   -1.5326    1.3653    2.2743 H   0  0  0  0  0  0  0  0  0  0  0  0
    0.8044    0.3564    1.9564 H   0  0  0  0  0  0  0  0  0  0  0  0
    0.6492    2.0452    1.3556 H   0  0  0  0  0  0  0  0  0  0  0  0
   -3.6795    0.3411    1.7664 H   0  0  0  0  0  0  0  0  0  0  0  0
   -5.8580   -0.6435    1.2949 H   0  0  0  0  0  0  0  0  0  0  0  0
   -6.0666   -1.6142   -0.2051 H   0  0  0  0  0  0  0  0  0  0  0  0
  1  2  1  0
  2  3  1  0
  2  4  1  0
  4  5  1  0
  4  6  1  0
  6  7  2  0
  7  8  1  0
  8  9  2  0
  9 10  1  0
 10 11  1  0
  9 12  1  0
 12 13  1  0
 13 14  1  0
 13 15  2  0
 15 16  1  0
 16 17  2  0
 11  6  1  0
 16  8  1  0
  1 18  1  0
  1 19  1  0
  1 20  1  0
  2 21  1  1
  3 22  1  0
  4 23  1  6
  5 24  1  0
 10 25  1  0
 11 26  1  0
 11 27  1  0
 12 28  1  0
 14 29  1  0
 14 30  1  0
M  END
$$$$
