
     RDKit          3D

 51 54  0  0  0  0  0  0  0  0999 V2000
   -4.3844    0.6884   -0.0753 C   0  0  1  0  0  0  0  0  0  0  0  0
   -5.3349    0.7082   -1.2857 C   0  0  0  0  0  0  0  0  0  0  0  0
   -5.0213    1.4014    1.1352 C   0  0  0  0  0  0  0  0  0  0  0  0
   -6.2236    0.6305    1.7154 C   0  0  0  0  0  0  0  0  0  0  0  0
   -6.0683   -0.9016    1.6403 C   0  0  0  0  0  0  0  0  0  0  0  0
   -4.6015   -1.3260    1.5446 C   0  0  0  0  0  0  0  0  0  0  0  0
   -3.9149   -0.7611    0.2811 C   0  0  2  0  0  0  0  0  0  0  0  0
   -2.5029   -0.7789    0.5172 O   0  0  0  0  0  0  0  0  0  0  0  0
   -1.4915   -0.6651   -0.4530 C   0  0  0  0  0  0  0  0  0  0  0  0
   -1.7691   -0.6880   -1.8320 C   0  0  0  0  0  0  0  0  0  0  0  0
   -0.7358   -0.5827   -2.7615 C   0  0  0  0  0  0  0  0  0  0  0  0
    0.5830   -0.4443   -2.3329 C   0  0  0  0  0  0  0  0  0  0  0  0
    0.8874   -0.4040   -0.9633 C   0  0  0  0  0  0  0  0  0  0  0  0
    2.3004   -0.2425   -0.5482 C   0  0  0  0  0  0  0  0  0  0  0  0
    3.3398   -0.7188   -1.2869 N   0  0  0  0  0  0  0  0  0  0  0  0
    4.4155   -0.3297   -0.5805 C   0  0  0  0  0  0  0  0  0  0  0  0
    4.0311    0.3579    0.5277 C   0  0  0  0  0  0  0  0  0  0  0  0
    2.6953    0.4290    0.5653 N   0  0  0  0  0  0  0  0  0  0  0  0
    4.9500    0.8955    1.4225 C   0  0  0  0  0  0  0  0  0  0  0  0
    6.3179    0.6967    1.1556 C   0  0  0  0  0  0  0  0  0  0  0  0
    7.2322    1.2498    1.9921 F   0  0  0  0  0  0  0  0  0  0  0  0
    6.7320   -0.0333    0.0036 C   0  0  0  0  0  0  0  0  0  0  0  0
    5.7563   -0.5464   -0.8836 C   0  0  0  0  0  0  0  0  0  0  0  0
    8.1687   -0.2502   -0.2896 C   0  0  0  0  0  0  0  0  0  0  0  0
    8.6544   -0.1149   -1.6272 N   0  0  0  0  0  0  0  0  0  0  0  0
    8.9958   -0.5929    0.6483 N   0  0  0  0  0  0  0  0  0  0  0  0
   -0.1558   -0.5375   -0.0199 C   0  0  0  0  0  0  0  0  0  0  0  0
    0.1410   -0.5682    1.3444 O   0  0  0  0  0  0  0  0  0  0  0  0
   -3.4964    1.2899   -0.3710 H   0  0  0  0  0  0  0  0  0  0  0  0
   -4.8231    0.3133   -2.1866 H   0  0  0  0  0  0  0  0  0  0  0  0
   -5.6512    1.7497   -1.5076 H   0  0  0  0  0  0  0  0  0  0  0  0
   -6.2400    0.0948   -1.1023 H   0  0  0  0  0  0  0  0  0  0  0  0
   -4.2471    1.5102    1.9267 H   0  0  0  0  0  0  0  0  0  0  0  0
   -5.3391    2.4294    0.8545 H   0  0  0  0  0  0  0  0  0  0  0  0
   -7.1478    0.9252    1.1722 H   0  0  0  0  0  0  0  0  0  0  0  0
   -6.3576    0.9357    2.7761 H   0  0  0  0  0  0  0  0  0  0  0  0
   -6.6176   -1.2967    0.7587 H   0  0  0  0  0  0  0  0  0  0  0  0
   -6.5255   -1.3628    2.5424 H   0  0  0  0  0  0  0  0  0  0  0  0
   -4.0691   -0.9740    2.4563 H   0  0  0  0  0  0  0  0  0  0  0  0
   -4.5388   -2.4360    1.5340 H   0  0  0  0  0  0  0  0  0  0  0  0
   -4.1530   -1.4619   -0.5493 H   0  0  0  0  0  0  0  0  0  0  0  0
   -2.7752   -0.8025   -2.2017 H   0  0  0  0  0  0  0  0  0  0  0  0
   -0.9586   -0.6070   -3.8206 H   0  0  0  0  0  0  0  0  0  0  0  0
    1.3670   -0.3533   -3.0749 H   0  0  0  0  0  0  0  0  0  0  0  0
    2.1103    0.9330    1.2678 H   0  0  0  0  0  0  0  0  0  0  0  0
    4.6242    1.4552    2.2898 H   0  0  0  0  0  0  0  0  0  0  0  0
    6.0320   -1.1059   -1.7688 H   0  0  0  0  0  0  0  0  0  0  0  0
    8.0281    0.2098   -2.3968 H   0  0  0  0  0  0  0  0  0  0  0  0
    9.6580   -0.3032   -1.8463 H   0  0  0  0  0  0  0  0  0  0  0  0
    8.6970   -0.7398    1.6381 H   0  0  0  0  0  0  0  0  0  0  0  0
   -0.5730   -0.6694    2.0556 H   0  0  0  0  0  0  0  0  0  0  0  0
  1  2  1  0
  1  3  1  0
  3  4  1  0
  4  5  1  0
  5  6  1  0
  6  7  1  0
  7  8  1  0
  8  9  1  0
  9 10  2  0
 10 11  1  0
 11 12  2  0
 12 13  1  0
 13 14  1  0
 14 15  2  0
 15 16  1  0
 16 17  2  0
 17 18  1  0
 17 19  1  0
 19 20  2  0
 20 21  1  0
 20 22  1  0
 22 23  2  0
 22 24  1  0
 24 25  1  0
 24 26  2  3
 13 27  2  0
 27 28  1  0
  7  1  1  0
 27  9  1  0
 18 14  1  0
 23 16  1  0
  1 29  1  6
  2 30  1  0
  2 31  1  0
  2 32  1  0
  3 33  1  0
  3 34  1  0
  4 35  1  0
  4 36  1  0
  5 37  1  0
  5 38  1  0
  6 39  1  0
  6 40  1  0
  7 41  1  6
 10 42  1  0
 11 43  1  0
 12 44  1  0
 18 45  1  0
 19 46  1  0
 23 47  1  0
 25 48  1  0
 25 49  1  0
 26 50  1  0
 28 51  1  0
M  END
$$$$
