
     RDKit          3D

 78 82  0  0  0  0  0  0  0  0999 V2000
   -3.3042    1.1634   -1.9490 C   0  0  0  0  0  0  0  0  0  0  0  0
   -4.6896    1.6425   -1.5005 C   0  0  0  0  0  0  0  0  0  0  0  0
   -4.6557    2.7481   -0.4279 C   0  0  0  0  0  0  0  0  0  0  0  0
   -5.6857    0.5426   -1.1667 C   0  0  0  0  0  0  0  0  0  0  0  0
   -6.9197    0.5928   -1.7078 N   0  0  0  0  0  0  0  0  0  0  0  0
   -7.6200   -0.4110   -1.2164 N   0  0  0  0  0  0  0  0  0  0  0  0
   -6.8153   -1.0664   -0.3657 C   0  0  0  0  0  0  0  0  0  0  0  0
   -7.2610   -2.2963    0.3657 C   0  0  0  0  0  0  0  0  0  0  0  0
   -5.5846   -0.4962   -0.2767 N   0  0  0  0  0  0  0  0  0  0  0  0
   -4.4549   -1.0829    0.4849 C   0  0  1  0  0  0  0  0  0  0  0  0
   -3.5435   -1.9549   -0.4252 C   0  0  0  0  0  0  0  0  0  0  0  0
   -2.1865   -2.2571    0.2498 C   0  0  2  0  0  0  0  0  0  0  0  0
   -2.3856   -3.0287    1.5649 C   0  0  0  0  0  0  0  0  0  0  0  0
   -2.4642   -1.9391    2.6296 C   0  0  0  0  0  0  0  0  0  0  0  0
   -2.3228   -0.6297    1.8404 C   0  0  2  0  0  0  0  0  0  0  0  0
   -3.6993   -0.0773    1.4020 C   0  0  0  0  0  0  0  0  0  0  0  0
   -1.5904   -0.9649    0.6137 N   0  0  0  0  0  0  0  0  0  0  0  0
   -0.1271   -1.0424    0.8210 C   0  0  0  0  0  0  0  0  0  0  0  0
    0.5979   -0.8408   -0.5171 C   0  0  0  0  0  0  0  0  0  0  0  0
    2.1307   -0.8600   -0.3531 C   0  0  2  0  0  0  0  0  0  0  0  0
    2.5941    0.2991    0.4185 N   0  0  0  0  0  0  0  0  0  0  0  0
    3.9209    0.3677    0.9606 C   0  0  0  0  0  0  0  0  0  0  0  0
    4.7030   -0.6158    0.8435 O   0  0  0  0  0  0  0  0  0  0  0  0
    4.4100    1.6451    1.5970 C   0  0  0  0  0  0  0  0  0  0  0  0
    5.1587    2.4956    0.5427 C   0  0  0  0  0  0  0  0  0  0  0  0
    6.1109    3.4928    1.2099 C   0  0  0  0  0  0  0  0  0  0  0  0
    7.2121    2.7756    2.0244 C   0  0  0  0  0  0  0  0  0  0  0  0
    7.5811    3.5887    3.0833 F   0  0  0  0  0  0  0  0  0  0  0  0
    8.3235    2.5885    1.2192 F   0  0  0  0  0  0  0  0  0  0  0  0
    6.7631    1.4020    2.5727 C   0  0  0  0  0  0  0  0  0  0  0  0
    5.2586    1.3709    2.8687 C   0  0  0  0  0  0  0  0  0  0  0  0
    2.7958   -0.8720   -1.7132 C   0  0  0  0  0  0  0  0  0  0  0  0
    2.8154    0.2859   -2.5135 C   0  0  0  0  0  0  0  0  0  0  0  0
    3.4202    0.2633   -3.7736 C   0  0  0  0  0  0  0  0  0  0  0  0
    4.0025   -0.9139   -4.2500 C   0  0  0  0  0  0  0  0  0  0  0  0
    3.9783   -2.0716   -3.4683 C   0  0  0  0  0  0  0  0  0  0  0  0
    3.3752   -2.0540   -2.2069 C   0  0  0  0  0  0  0  0  0  0  0  0
   -2.7356    2.0195   -2.3713 H   0  0  0  0  0  0  0  0  0  0  0  0
   -2.7024    0.7511   -1.1230 H   0  0  0  0  0  0  0  0  0  0  0  0
   -3.4068    0.4055   -2.7541 H   0  0  0  0  0  0  0  0  0  0  0  0
   -5.0934    2.1368   -2.4142 H   0  0  0  0  0  0  0  0  0  0  0  0
   -3.6200    3.1055   -0.2431 H   0  0  0  0  0  0  0  0  0  0  0  0
   -5.2587    3.6201   -0.7616 H   0  0  0  0  0  0  0  0  0  0  0  0
   -5.0953    2.4074    0.5335 H   0  0  0  0  0  0  0  0  0  0  0  0
   -7.2406   -2.1113    1.4599 H   0  0  0  0  0  0  0  0  0  0  0  0
   -8.2984   -2.5621    0.0721 H   0  0  0  0  0  0  0  0  0  0  0  0
   -6.5947   -3.1478    0.1151 H   0  0  0  0  0  0  0  0  0  0  0  0
   -4.8818   -1.8011    1.2156 H   0  0  0  0  0  0  0  0  0  0  0  0
   -4.0623   -2.9091   -0.6639 H   0  0  0  0  0  0  0  0  0  0  0  0
   -3.3582   -1.4576   -1.3935 H   0  0  0  0  0  0  0  0  0  0  0  0
   -1.5492   -2.8347   -0.4554 H   0  0  0  0  0  0  0  0  0  0  0  0
   -3.3017   -3.6591    1.5552 H   0  0  0  0  0  0  0  0  0  0  0  0
   -1.5108   -3.6876    1.7566 H   0  0  0  0  0  0  0  0  0  0  0  0
   -3.4157   -1.9894    3.2027 H   0  0  0  0  0  0  0  0  0  0  0  0
   -1.6145   -2.0420    3.3397 H   0  0  0  0  0  0  0  0  0  0  0  0
   -1.8041    0.1469    2.4464 H   0  0  0  0  0  0  0  0  0  0  0  0
   -4.3185    0.1564    2.2957 H   0  0  0  0  0  0  0  0  0  0  0  0
   -3.5082    0.8732    0.8946 H   0  0  0  0  0  0  0  0  0  0  0  0
    0.2044   -0.2376    1.5128 H   0  0  0  0  0  0  0  0  0  0  0  0
    0.1745   -2.0132    1.2736 H   0  0  0  0  0  0  0  0  0  0  0  0
    0.3022   -1.6532   -1.2154 H   0  0  0  0  0  0  0  0  0  0  0  0
    0.2759    0.1244   -0.9673 H   0  0  0  0  0  0  0  0  0  0  0  0
    2.3999   -1.7860    0.2040 H   0  0  0  0  0  0  0  0  0  0  0  0
    1.9764    1.1382    0.5050 H   0  0  0  0  0  0  0  0  0  0  0  0
    3.5193    2.2244    1.9284 H   0  0  0  0  0  0  0  0  0  0  0  0
    4.4207    3.0472   -0.0799 H   0  0  0  0  0  0  0  0  0  0  0  0
    5.7520    1.8460   -0.1398 H   0  0  0  0  0  0  0  0  0  0  0  0
    5.5186    4.1550    1.8797 H   0  0  0  0  0  0  0  0  0  0  0  0
    6.5760    4.1393    0.4343 H   0  0  0  0  0  0  0  0  0  0  0  0
    6.9976    0.6073    1.8308 H   0  0  0  0  0  0  0  0  0  0  0  0
    7.3293    1.1638    3.4993 H   0  0  0  0  0  0  0  0  0  0  0  0
    5.0378    2.1514    3.6305 H   0  0  0  0  0  0  0  0  0  0  0  0
    4.9873    0.3950    3.3281 H   0  0  0  0  0  0  0  0  0  0  0  0
    2.3644    1.2051   -2.1609 H   0  0  0  0  0  0  0  0  0  0  0  0
    3.4357    1.1584   -4.3817 H   0  0  0  0  0  0  0  0  0  0  0  0
    4.4696   -0.9298   -5.2262 H   0  0  0  0  0  0  0  0  0  0  0  0
    4.4258   -2.9840   -3.8406 H   0  0  0  0  0  0  0  0  0  0  0  0
    3.3616   -2.9617   -1.6164 H   0  0  0  0  0  0  0  0  0  0  0  0
  1  2  1  0
  2  3  1  0
  2  4  1  0
  4  5  2  0
  5  6  1  0
  6  7  2  0
  7  8  1  0
  7  9  1  0
  9 10  1  0
 10 11  1  0
 11 12  1  0
 12 13  1  0
 13 14  1  0
 14 15  1  0
 15 16  1  0
 15 17  1  0
 17 18  1  0
 18 19  1  0
 19 20  1  0
 20 21  1  0
 21 22  1  0
 22 23  2  0
 22 24  1  0
 24 25  1  0
 25 26  1  0
 26 27  1  0
 27 28  1  0
 27 29  1  0
 27 30  1  0
 30 31  1  0
 20 32  1  0
 32 33  2  0
 33 34  1  0
 34 35  2  0
 35 36  1  0
 36 37  2  0
  9  4  1  0
 16 10  1  0
 31 24  1  0
 37 32  1  0
 17 12  1  0
  1 38  1  0
  1 39  1  0
  1 40  1  0
  2 41  1  0
  3 42  1  0
  3 43  1  0
  3 44  1  0
  8 45  1  0
  8 46  1  0
  8 47  1  0
 10 48  1  1
 11 49  1  0
 11 50  1  0
 12 51  1  6
 13 52  1  0
 13 53  1  0
 14 54  1  0
 14 55  1  0
 15 56  1  1
 16 57  1  0
 16 58  1  0
 18 59  1  0
 18 60  1  0
 19 61  1  0
 19 62  1  0
 20 63  1  1
 21 64  1  0
 24 65  1  0
 25 66  1  0
 25 67  1  0
 26 68  1  0
 26 69  1  0
 30 70  1  0
 30 71  1  0
 31 72  1  0
 31 73  1  0
 33 74  1  0
 34 75  1  0
 35 76  1  0
 36 77  1  0
 37 78  1  0
M  END
$$$$
