
     RDKit          3D

 54 57  0  0  0  0  0  0  0  0999 V2000
    3.5891    0.1889    0.4261 C   0  0  1  0  0  0  0  0  0  0  0  0
    2.4806    1.2463    0.2054 C   0  0  0  0  0  0  0  0  0  0  0  0
    1.0968    0.7338    0.5380 C   0  0  0  0  0  0  0  0  0  0  0  0
    0.7481   -0.6173    0.3534 C   0  0  0  0  0  0  0  0  0  0  0  0
   -0.5558   -1.0524    0.6205 C   0  0  0  0  0  0  0  0  0  0  0  0
   -1.5271   -0.1456    1.0590 C   0  0  0  0  0  0  0  0  0  0  0  0
   -1.1916    1.2048    1.2177 C   0  0  0  0  0  0  0  0  0  0  0  0
    0.1092    1.6417    0.9543 C   0  0  0  0  0  0  0  0  0  0  0  0
   -3.1700   -0.7047    1.3624 S   0  0  0  0  0  6  0  0  0  0  0  0
   -3.9230    0.3376    2.1408 O   0  0  0  0  0  0  0  0  0  0  0  0
   -3.0961   -1.9549    2.1942 O   0  0  0  0  0  0  0  0  0  0  0  0
   -3.9640   -1.0571   -0.1586 N   0  0  0  0  0  0  0  0  0  0  0  0
   -3.9876    0.0942   -1.0781 C   0  0  0  0  0  0  0  0  0  0  0  0
   -5.0864    1.1148   -0.7330 C   0  0  0  0  0  0  0  0  0  0  0  0
   -6.4148    0.4917   -0.5852 N   0  0  0  0  0  0  0  0  0  0  0  0
   -7.0169    0.1326   -1.8808 C   0  0  0  0  0  0  0  0  0  0  0  0
   -6.3872   -0.6420    0.3578 C   0  0  0  0  0  0  0  0  0  0  0  0
   -5.2917   -1.6700    0.0206 C   0  0  0  0  0  0  0  0  0  0  0  0
    1.9552   -1.7694   -0.1851 S   0  0  0  0  0  6  0  0  0  0  0  0
    1.4794   -2.4590   -1.4323 O   0  0  0  0  0  0  0  0  0  0  0  0
    2.2026   -2.7847    0.8955 O   0  0  0  0  0  0  0  0  0  0  0  0
    3.4250   -0.9179   -0.5321 N   0  0  0  0  0  0  0  0  0  0  0  0
    4.9969    0.8456    0.2934 C   0  0  0  0  0  0  0  0  0  0  0  0
    5.4064    1.1459   -1.1595 C   0  0  0  0  0  0  0  0  0  0  0  0
    6.5761    0.2281   -1.4712 C   0  0  0  0  0  0  0  0  0  0  0  0
    7.2388   -0.0499   -0.1362 C   0  0  0  0  0  0  0  0  0  0  0  0
    6.1185   -0.0222    0.8921 C   0  0  0  0  0  0  0  0  0  0  0  0
    3.4961   -0.1944    1.4696 H   0  0  0  0  0  0  0  0  0  0  0  0
    2.6951    2.1316    0.8437 H   0  0  0  0  0  0  0  0  0  0  0  0
    2.4843    1.5851   -0.8526 H   0  0  0  0  0  0  0  0  0  0  0  0
   -0.8149   -2.0949    0.4817 H   0  0  0  0  0  0  0  0  0  0  0  0
   -1.9366    1.9233    1.5339 H   0  0  0  0  0  0  0  0  0  0  0  0
    0.3452    2.6923    1.0713 H   0  0  0  0  0  0  0  0  0  0  0  0
   -4.1420   -0.2784   -2.1126 H   0  0  0  0  0  0  0  0  0  0  0  0
   -3.0026    0.6063   -1.0876 H   0  0  0  0  0  0  0  0  0  0  0  0
   -4.8264    1.6435    0.2068 H   0  0  0  0  0  0  0  0  0  0  0  0
   -5.1145    1.8990   -1.5213 H   0  0  0  0  0  0  0  0  0  0  0  0
   -7.0936    1.0325   -2.5276 H   0  0  0  0  0  0  0  0  0  0  0  0
   -6.4262   -0.6410   -2.4133 H   0  0  0  0  0  0  0  0  0  0  0  0
   -8.0493   -0.2480   -1.7281 H   0  0  0  0  0  0  0  0  0  0  0  0
   -7.3742   -1.1545    0.3726 H   0  0  0  0  0  0  0  0  0  0  0  0
   -6.2353   -0.2545    1.3859 H   0  0  0  0  0  0  0  0  0  0  0  0
   -5.2571   -2.4425    0.8185 H   0  0  0  0  0  0  0  0  0  0  0  0
   -5.5653   -2.2087   -0.9111 H   0  0  0  0  0  0  0  0  0  0  0  0
    4.1988   -1.6087   -0.4108 H   0  0  0  0  0  0  0  0  0  0  0  0
    4.9931    1.8061    0.8577 H   0  0  0  0  0  0  0  0  0  0  0  0
    5.7437    2.2034   -1.2378 H   0  0  0  0  0  0  0  0  0  0  0  0
    4.5854    0.9941   -1.8924 H   0  0  0  0  0  0  0  0  0  0  0  0
    6.1986   -0.7243   -1.9048 H   0  0  0  0  0  0  0  0  0  0  0  0
    7.2852    0.7002   -2.1853 H   0  0  0  0  0  0  0  0  0  0  0  0
    7.9720    0.7564    0.0881 H   0  0  0  0  0  0  0  0  0  0  0  0
    7.7630   -1.0301   -0.1422 H   0  0  0  0  0  0  0  0  0  0  0  0
    6.4846    0.4077    1.8503 H   0  0  0  0  0  0  0  0  0  0  0  0
    5.7821   -1.0609    1.0973 H   0  0  0  0  0  0  0  0  0  0  0  0
  1  2  1  0
  2  3  1  0
  3  4  2  0
  4  5  1  0
  5  6  2  0
  6  7  1  0
  7  8  2  0
  6  9  1  0
  9 10  2  0
  9 11  2  0
  9 12  1  0
 12 13  1  0
 13 14  1  0
 14 15  1  0
 15 16  1  0
 15 17  1  0
 17 18  1  0
  4 19  1  0
 19 20  2  0
 19 21  2  0
 19 22  1  0
  1 23  1  0
 23 24  1  0
 24 25  1  0
 25 26  1  0
 26 27  1  0
 22  1  1  0
 27 23  1  0
  8  3  1  0
 18 12  1  0
  1 28  1  1
  2 29  1  0
  2 30  1  0
  5 31  1  0
  7 32  1  0
  8 33  1  0
 13 34  1  0
 13 35  1  0
 14 36  1  0
 14 37  1  0
 16 38  1  0
 16 39  1  0
 16 40  1  0
 17 41  1  0
 17 42  1  0
 18 43  1  0
 18 44  1  0
 22 45  1  0
 23 46  1  0
 24 47  1  0
 24 48  1  0
 25 49  1  0
 25 50  1  0
 26 51  1  0
 26 52  1  0
 27 53  1  0
 27 54  1  0
M  END
$$$$
