
     RDKit          3D

 19 18  0  0  0  0  0  0  0  0999 V2000
   -1.7919   -0.8500    0.3179 C   0  0  0  0  0  0  0  0  0  0  0  0
   -0.9152   -0.0102   -0.6185 C   0  0  0  0  0  0  0  0  0  0  0  0
   -1.7089    1.1813   -1.1542 C   0  0  0  0  0  0  0  0  0  0  0  0
    0.2605    0.4889    0.0975 N   0  0  0  0  0  0  0  0  0  0  0  0
    1.3314   -0.1850    0.4127 C   0  0  0  0  0  0  0  0  0  0  0  0
    1.4950   -1.5622    0.0476 N   0  0  0  0  0  0  0  0  0  0  0  0
    2.3791    0.4711    1.1326 N   0  0  0  0  0  0  0  0  0  0  0  0
    2.2599    1.7687    1.5038 O   0  0  0  0  0  0  0  0  0  0  0  0
   -2.6822   -1.2282   -0.2284 H   0  0  0  0  0  0  0  0  0  0  0  0
   -2.1313   -0.2400    1.1826 H   0  0  0  0  0  0  0  0  0  0  0  0
   -1.2283   -1.7234    0.7051 H   0  0  0  0  0  0  0  0  0  0  0  0
   -0.6023   -0.6205   -1.4935 H   0  0  0  0  0  0  0  0  0  0  0  0
   -2.0457    1.8342   -0.3202 H   0  0  0  0  0  0  0  0  0  0  0  0
   -2.5976    0.8293   -1.7206 H   0  0  0  0  0  0  0  0  0  0  0  0
   -1.0726    1.7802   -1.8402 H   0  0  0  0  0  0  0  0  0  0  0  0
    2.3613   -2.0726    0.3280 H   0  0  0  0  0  0  0  0  0  0  0  0
    0.7883   -2.0889   -0.5088 H   0  0  0  0  0  0  0  0  0  0  0  0
    3.2400   -0.0569    1.3989 H   0  0  0  0  0  0  0  0  0  0  0  0
    2.6604    2.2841    0.7578 H   0  0  0  0  0  0  0  0  0  0  0  0
  1  2  1  0
  2  3  1  0
  2  4  1  0
  4  5  2  0
  5  6  1  0
  5  7  1  0
  7  8  1  0
  1  9  1  0
  1 10  1  0
  1 11  1  0
  2 12  1  0
  3 13  1  0
  3 14  1  0
  3 15  1  0
  6 16  1  0
  6 17  1  0
  7 18  1  0
  8 19  1  0
M  END
$$$$
