
     RDKit          3D

 47 48  0  0  0  0  0  0  0  0999 V2000
   -6.0561   -1.9549   -1.1017 C   0  0  0  0  0  0  0  0  0  0  0  0
   -4.6635   -1.7462   -1.3155 O   0  0  0  0  0  0  0  0  0  0  0  0
   -3.8414   -0.9172   -0.5354 C   0  0  0  0  0  0  0  0  0  0  0  0
   -4.3681   -0.2099    0.5607 C   0  0  0  0  0  0  0  0  0  0  0  0
   -3.5590    0.6145    1.3459 C   0  0  0  0  0  0  0  0  0  0  0  0
   -4.1205    1.2649    2.4928 N   0  0  0  0  0  0  0  0  0  0  0  0
   -2.2025    0.7713    1.0208 C   0  0  0  0  0  0  0  0  0  0  0  0
   -1.3897    1.6077    1.7920 O   0  0  0  0  0  0  0  0  0  0  0  0
   -1.3892    3.0188    1.6095 C   0  0  0  0  0  0  0  0  0  0  0  0
   -1.6523    0.0733   -0.0735 C   0  0  0  0  0  0  0  0  0  0  0  0
   -0.1737    0.1985   -0.3761 C   0  0  0  0  0  0  0  0  0  0  0  0
    0.6264   -0.8453    0.4064 C   0  0  0  0  0  0  0  0  0  0  0  0
    2.0193   -0.7167    0.1295 O   0  0  0  0  0  0  0  0  0  0  0  0
    2.8248    0.2888    0.6779 C   0  0  0  0  0  0  0  0  0  0  0  0
    2.3328    1.1297    1.4804 O   0  0  0  0  0  0  0  0  0  0  0  0
    4.2425    0.4048    0.2758 C   0  0  0  0  0  0  0  0  0  0  0  0
    5.0490   -0.7281    0.0070 C   0  0  0  0  0  0  0  0  0  0  0  0
    4.6075   -2.0340    0.2304 O   0  0  0  0  0  0  0  0  0  0  0  0
    6.3543   -0.5527   -0.4675 C   0  0  0  0  0  0  0  0  0  0  0  0
    6.8879    0.7301   -0.6389 C   0  0  0  0  0  0  0  0  0  0  0  0
    8.1922    0.8937   -1.1032 O   0  0  0  0  0  0  0  0  0  0  0  0
    6.1075    1.8513   -0.3364 C   0  0  0  0  0  0  0  0  0  0  0  0
    6.7570    3.4712   -0.5385 Cl  0  0  0  0  0  0  0  0  0  0  0  0
    4.7954    1.6883    0.1178 C   0  0  0  0  0  0  0  0  0  0  0  0
   -2.4631   -0.7893   -0.8464 C   0  0  0  0  0  0  0  0  0  0  0  0
   -1.8416   -1.4897   -1.9007 O   0  0  0  0  0  0  0  0  0  0  0  0
   -2.4494   -2.4334   -2.7756 C   0  0  0  0  0  0  0  0  0  0  0  0
   -6.4392   -2.6537   -1.8731 H   0  0  0  0  0  0  0  0  0  0  0  0
   -6.2260   -2.4047   -0.1007 H   0  0  0  0  0  0  0  0  0  0  0  0
   -6.6049   -0.9936   -1.1905 H   0  0  0  0  0  0  0  0  0  0  0  0
   -5.4121   -0.3073    0.8251 H   0  0  0  0  0  0  0  0  0  0  0  0
   -3.5255    1.7947    3.1669 H   0  0  0  0  0  0  0  0  0  0  0  0
   -5.1385    1.1777    2.7095 H   0  0  0  0  0  0  0  0  0  0  0  0
   -2.4036    3.4342    1.7828 H   0  0  0  0  0  0  0  0  0  0  0  0
   -1.0637    3.2681    0.5776 H   0  0  0  0  0  0  0  0  0  0  0  0
   -0.6828    3.4789    2.3302 H   0  0  0  0  0  0  0  0  0  0  0  0
    0.1882    1.2165   -0.1235 H   0  0  0  0  0  0  0  0  0  0  0  0
    0.0187    0.0716   -1.4630 H   0  0  0  0  0  0  0  0  0  0  0  0
    0.4438   -0.7446    1.4991 H   0  0  0  0  0  0  0  0  0  0  0  0
    0.3010   -1.8612    0.0963 H   0  0  0  0  0  0  0  0  0  0  0  0
    3.7558   -2.2556    0.7275 H   0  0  0  0  0  0  0  0  0  0  0  0
    6.9644   -1.4214   -0.6822 H   0  0  0  0  0  0  0  0  0  0  0  0
    8.7790    0.0987   -1.3280 H   0  0  0  0  0  0  0  0  0  0  0  0
    4.1972    2.5686    0.3216 H   0  0  0  0  0  0  0  0  0  0  0  0
   -2.8566   -3.2888   -2.1966 H   0  0  0  0  0  0  0  0  0  0  0  0
   -1.6788   -2.8231   -3.4717 H   0  0  0  0  0  0  0  0  0  0  0  0
   -3.2426   -1.9441   -3.3787 H   0  0  0  0  0  0  0  0  0  0  0  0
  1  2  1  0
  2  3  1  0
  3  4  2  0
  4  5  1  0
  5  6  1  0
  5  7  2  0
  7  8  1  0
  8  9  1  0
  7 10  1  0
 10 11  1  0
 11 12  1  0
 12 13  1  0
 13 14  1  0
 14 15  2  0
 14 16  1  0
 16 17  2  0
 17 18  1  0
 17 19  1  0
 19 20  2  0
 20 21  1  0
 20 22  1  0
 22 23  1  0
 22 24  2  0
 10 25  2  0
 25 26  1  0
 26 27  1  0
 25  3  1  0
 24 16  1  0
  1 28  1  0
  1 29  1  0
  1 30  1  0
  4 31  1  0
  6 32  1  0
  6 33  1  0
  9 34  1  0
  9 35  1  0
  9 36  1  0
 11 37  1  0
 11 38  1  0
 12 39  1  0
 12 40  1  0
 18 41  1  0
 19 42  1  0
 21 43  1  0
 24 44  1  0
 27 45  1  0
 27 46  1  0
 27 47  1  0
M  END
$$$$
