
     RDKit          3D

 53 56  0  0  0  0  0  0  0  0999 V2000
   -0.3291   -0.4893    2.2942 C   0  0  0  0  0  0  0  0  0  0  0  0
   -1.4152   -0.7056    1.2350 C   0  0  2  0  0  0  0  0  0  0  0  0
   -0.9189   -1.5298    0.1225 N   0  0  0  0  0  0  0  0  0  0  0  0
   -1.5425   -2.7767   -0.2860 C   0  0  0  0  0  0  0  0  0  0  0  0
   -0.7698   -3.2546   -1.5285 C   0  0  0  0  0  0  0  0  0  0  0  0
    0.5281   -2.4297   -1.6019 C   0  0  2  0  0  0  0  0  0  0  0  0
    1.6709   -3.2643   -1.1859 N   0  0  0  0  0  0  0  0  0  0  0  0
    3.1068   -2.8806   -2.0893 S   0  0  0  0  0  6  0  0  0  0  0  0
    2.8688   -3.1378   -3.5514 O   0  0  0  0  0  0  0  0  0  0  0  0
    4.2337   -3.7597   -1.6259 O   0  0  0  0  0  0  0  0  0  0  0  0
    3.5634   -1.2036   -1.8526 C   0  0  0  0  0  0  0  0  0  0  0  0
    3.3511   -0.1804   -2.7709 C   0  0  0  0  0  0  0  0  0  0  0  0
    3.8129    0.9548   -2.1410 C   0  0  0  0  0  0  0  0  0  0  0  0
    4.2728    0.5836   -0.9035 C   0  0  0  0  0  0  0  0  0  0  0  0
    4.1256   -0.7378   -0.7142 N   0  0  0  0  0  0  0  0  0  0  0  0
    4.7929    1.5145   -0.0062 C   0  0  0  0  0  0  0  0  0  0  0  0
    4.8376    2.8618   -0.4095 C   0  0  0  0  0  0  0  0  0  0  0  0
    4.3634    3.2444   -1.6857 C   0  0  0  0  0  0  0  0  0  0  0  0
    4.4226    4.9287   -2.1704 Cl  0  0  0  0  0  0  0  0  0  0  0  0
    3.8405    2.2802   -2.5688 C   0  0  0  0  0  0  0  0  0  0  0  0
    0.2625   -1.3284   -0.6381 C   0  0  0  0  0  0  0  0  0  0  0  0
    1.0019   -0.3174   -0.5119 O   0  0  0  0  0  0  0  0  0  0  0  0
   -1.9547    0.6149    0.7259 C   0  0  0  0  0  0  0  0  0  0  0  0
   -1.2526    1.2879   -0.0771 O   0  0  0  0  0  0  0  0  0  0  0  0
   -3.2380    1.1328    1.1434 N   0  0  0  0  0  0  0  0  0  0  0  0
   -4.0270    1.9310    0.1957 C   0  0  0  0  0  0  0  0  0  0  0  0
   -4.9491    2.8937    0.9489 C   0  0  0  0  0  0  0  0  0  0  0  0
   -5.7103    2.2028    1.9191 O   0  0  0  0  0  0  0  0  0  0  0  0
   -4.8501    1.6957    2.9197 C   0  0  0  0  0  0  0  0  0  0  0  0
   -3.9140    0.6275    2.3458 C   0  0  0  0  0  0  0  0  0  0  0  0
    0.4827    0.1654    1.9154 H   0  0  0  0  0  0  0  0  0  0  0  0
    0.1060   -1.4665    2.5937 H   0  0  0  0  0  0  0  0  0  0  0  0
   -0.7654   -0.0108    3.1961 H   0  0  0  0  0  0  0  0  0  0  0  0
   -2.2367   -1.2696    1.7247 H   0  0  0  0  0  0  0  0  0  0  0  0
   -1.4512   -3.5219    0.5337 H   0  0  0  0  0  0  0  0  0  0  0  0
   -2.6150   -2.6108   -0.5262 H   0  0  0  0  0  0  0  0  0  0  0  0
   -0.5700   -4.3475   -1.4744 H   0  0  0  0  0  0  0  0  0  0  0  0
   -1.3822   -3.0588   -2.4363 H   0  0  0  0  0  0  0  0  0  0  0  0
    0.6526   -2.0215   -2.6300 H   0  0  0  0  0  0  0  0  0  0  0  0
    1.8846   -3.1392   -0.1685 H   0  0  0  0  0  0  0  0  0  0  0  0
    2.9025   -0.2549   -3.7527 H   0  0  0  0  0  0  0  0  0  0  0  0
    4.3729   -1.2871    0.1390 H   0  0  0  0  0  0  0  0  0  0  0  0
    5.1489    1.2127    0.9703 H   0  0  0  0  0  0  0  0  0  0  0  0
    5.2364    3.6075    0.2661 H   0  0  0  0  0  0  0  0  0  0  0  0
    3.4689    2.5578   -3.5470 H   0  0  0  0  0  0  0  0  0  0  0  0
   -4.6382    1.2477   -0.4326 H   0  0  0  0  0  0  0  0  0  0  0  0
   -3.3687    2.5268   -0.4725 H   0  0  0  0  0  0  0  0  0  0  0  0
   -5.6456    3.3613    0.2214 H   0  0  0  0  0  0  0  0  0  0  0  0
   -4.3589    3.7188    1.4099 H   0  0  0  0  0  0  0  0  0  0  0  0
   -4.2624    2.5125    3.3985 H   0  0  0  0  0  0  0  0  0  0  0  0
   -5.4699    1.2338    3.7169 H   0  0  0  0  0  0  0  0  0  0  0  0
   -3.1739    0.3648    3.1308 H   0  0  0  0  0  0  0  0  0  0  0  0
   -4.5017   -0.2785    2.0829 H   0  0  0  0  0  0  0  0  0  0  0  0
  1  2  1  0
  2  3  1  0
  3  4  1  0
  4  5  1  0
  5  6  1  0
  6  7  1  0
  7  8  1  0
  8  9  2  0
  8 10  2  0
  8 11  1  0
 11 12  2  0
 12 13  1  0
 13 14  2  0
 14 15  1  0
 14 16  1  0
 16 17  2  0
 17 18  1  0
 18 19  1  0
 18 20  2  0
  6 21  1  0
 21 22  2  0
  2 23  1  0
 23 24  2  0
 23 25  1  0
 25 26  1  0
 26 27  1  0
 27 28  1  0
 28 29  1  0
 29 30  1  0
 21  3  1  0
 30 25  1  0
 15 11  1  0
 20 13  1  0
  1 31  1  0
  1 32  1  0
  1 33  1  0
  2 34  1  1
  4 35  1  0
  4 36  1  0
  5 37  1  0
  5 38  1  0
  6 39  1  6
  7 40  1  0
 12 41  1  0
 15 42  1  0
 16 43  1  0
 17 44  1  0
 20 45  1  0
 26 46  1  0
 26 47  1  0
 27 48  1  0
 27 49  1  0
 29 50  1  0
 29 51  1  0
 30 52  1  0
 30 53  1  0
M  END
$$$$
