
     RDKit          3D

 40 40  0  0  0  0  0  0  0  0999 V2000
    5.1156   -0.2472    2.3489 C   0  0  0  0  0  0  0  0  0  0  0  0
    4.6667    0.2678    1.0130 C   0  0  0  0  0  0  0  0  0  0  0  0
    3.3659    0.0048    0.5557 C   0  0  0  0  0  0  0  0  0  0  0  0
    2.9495    0.4541   -0.7138 C   0  0  0  0  0  0  0  0  0  0  0  0
    1.6541    0.2195   -1.2011 O   0  0  0  0  0  0  0  0  0  0  0  0
    0.6355   -0.4804   -0.4906 C   0  0  0  0  0  0  0  0  0  0  0  0
   -0.6395   -0.5374   -1.3480 C   0  0  0  0  0  0  0  0  0  0  0  0
   -0.3634   -1.1550   -2.5808 O   0  0  0  0  0  0  0  0  0  0  0  0
   -1.7951   -1.2751   -0.6283 C   0  0  0  0  0  0  0  0  0  0  0  0
   -2.4287   -0.4571    0.4316 N   0  0  0  0  0  0  0  0  0  0  0  0
   -3.8027    0.0317    0.1529 C   0  0  0  0  0  0  0  0  0  0  0  0
   -3.8520    0.8931   -1.1289 C   0  0  0  0  0  0  0  0  0  0  0  0
   -4.2470    0.9082    1.3435 C   0  0  0  0  0  0  0  0  0  0  0  0
   -4.7930   -1.1502    0.0461 C   0  0  0  0  0  0  0  0  0  0  0  0
    3.8559    1.1577   -1.5223 C   0  0  0  0  0  0  0  0  0  0  0  0
    3.3723    1.7324   -3.1109 Cl  0  0  0  0  0  0  0  0  0  0  0  0
    5.1575    1.4032   -1.0738 C   0  0  0  0  0  0  0  0  0  0  0  0
    5.5643    0.9555    0.1845 C   0  0  0  0  0  0  0  0  0  0  0  0
    4.2683   -0.2617    3.0671 H   0  0  0  0  0  0  0  0  0  0  0  0
    5.9125    0.4006    2.7725 H   0  0  0  0  0  0  0  0  0  0  0  0
    5.5104   -1.2781    2.2332 H   0  0  0  0  0  0  0  0  0  0  0  0
    2.6877   -0.5475    1.1924 H   0  0  0  0  0  0  0  0  0  0  0  0
    0.4310    0.0471    0.4649 H   0  0  0  0  0  0  0  0  0  0  0  0
    0.9826   -1.5128   -0.2659 H   0  0  0  0  0  0  0  0  0  0  0  0
   -0.9605    0.5041   -1.5645 H   0  0  0  0  0  0  0  0  0  0  0  0
   -0.0947   -2.0927   -2.3927 H   0  0  0  0  0  0  0  0  0  0  0  0
   -2.5248   -1.6098   -1.3911 H   0  0  0  0  0  0  0  0  0  0  0  0
   -1.4033   -2.2046   -0.1627 H   0  0  0  0  0  0  0  0  0  0  0  0
   -1.8173    0.3517    0.6912 H   0  0  0  0  0  0  0  0  0  0  0  0
   -4.8659    1.3274   -1.2664 H   0  0  0  0  0  0  0  0  0  0  0  0
   -3.6212    0.2950   -2.0342 H   0  0  0  0  0  0  0  0  0  0  0  0
   -3.1215    1.7275   -1.0627 H   0  0  0  0  0  0  0  0  0  0  0  0
   -3.5794    1.7901    1.4529 H   0  0  0  0  0  0  0  0  0  0  0  0
   -4.2071    0.3248    2.2888 H   0  0  0  0  0  0  0  0  0  0  0  0
   -5.2856    1.2788    1.2024 H   0  0  0  0  0  0  0  0  0  0  0  0
   -4.6487   -1.7362   -0.8836 H   0  0  0  0  0  0  0  0  0  0  0  0
   -5.8419   -0.7824    0.0328 H   0  0  0  0  0  0  0  0  0  0  0  0
   -4.6722   -1.8322    0.9150 H   0  0  0  0  0  0  0  0  0  0  0  0
    5.8572    1.9392   -1.7025 H   0  0  0  0  0  0  0  0  0  0  0  0
    6.5787    1.1461    0.5128 H   0  0  0  0  0  0  0  0  0  0  0  0
  1  2  1  0
  2  3  2  0
  3  4  1  0
  4  5  1  0
  5  6  1  0
  6  7  1  0
  7  8  1  0
  7  9  1  0
  9 10  1  0
 10 11  1  0
 11 12  1  0
 11 13  1  0
 11 14  1  0
  4 15  2  0
 15 16  1  0
 15 17  1  0
 17 18  2  0
 18  2  1  0
  1 19  1  0
  1 20  1  0
  1 21  1  0
  3 22  1  0
  6 23  1  0
  6 24  1  0
  7 25  1  0
  8 26  1  0
  9 27  1  0
  9 28  1  0
 10 29  1  0
 12 30  1  0
 12 31  1  0
 12 32  1  0
 13 33  1  0
 13 34  1  0
 13 35  1  0
 14 36  1  0
 14 37  1  0
 14 38  1  0
 17 39  1  0
 18 40  1  0
M  END
$$$$
