
     RDKit          3D

 47 50  0  0  0  0  0  0  0  0999 V2000
    1.9061   -0.7584   -0.2015 C   0  0  2  0  0  0  0  0  0  0  0  0
    2.9221   -1.8256    0.2184 C   0  0  0  0  0  0  0  0  0  0  0  0
    4.2577   -1.2695   -0.3092 C   0  0  0  0  0  0  0  0  0  0  0  0
    3.9961    0.1960   -0.4797 C   0  0  0  0  0  0  0  0  0  0  0  0
    4.8268    0.9873   -0.8988 O   0  0  0  0  0  0  0  0  0  0  0  0
    2.6368    0.5825   -0.0018 C   0  0  2  0  0  0  0  0  0  0  0  0
    2.8003    1.0391    1.4765 C   0  0  0  0  0  0  0  0  0  0  0  0
    1.8993    1.6571   -0.8254 C   0  0  0  0  0  0  0  0  0  0  0  0
    0.4108    1.7593   -0.3943 C   0  0  0  0  0  0  0  0  0  0  0  0
   -0.3185    0.3767   -0.3906 C   0  0  1  0  0  0  0  0  0  0  0  0
    0.4849   -0.7159    0.3983 C   0  0  1  0  0  0  0  0  0  0  0  0
   -0.2332   -2.0967    0.4097 C   0  0  0  0  0  0  0  0  0  0  0  0
   -1.5122   -2.1678   -0.4362 C   0  0  0  0  0  0  0  0  0  0  0  0
   -2.4223   -0.9742   -0.2325 C   0  0  0  0  0  0  0  0  0  0  0  0
   -3.7377   -1.1290   -0.4623 C   0  0  0  0  0  0  0  0  0  0  0  0
   -4.6489    0.0211   -0.5604 C   0  0  0  0  0  0  0  0  0  0  0  0
   -5.8888   -0.1785   -0.6558 O   0  0  0  0  0  0  0  0  0  0  0  0
   -4.1274    1.4271   -0.5509 C   0  0  0  0  0  0  0  0  0  0  0  0
   -2.6079    1.4749   -0.7830 C   0  0  0  0  0  0  0  0  0  0  0  0
   -1.8274    0.4100    0.0471 C   0  0  2  0  0  0  0  0  0  0  0  0
   -1.9779    0.7215    1.5593 C   0  0  0  0  0  0  0  0  0  0  0  0
    1.7690   -0.9314   -1.2986 H   0  0  0  0  0  0  0  0  0  0  0  0
    2.7060   -2.8121   -0.2446 H   0  0  0  0  0  0  0  0  0  0  0  0
    2.9450   -1.9342    1.3242 H   0  0  0  0  0  0  0  0  0  0  0  0
    4.5079   -1.7207   -1.2935 H   0  0  0  0  0  0  0  0  0  0  0  0
    5.0797   -1.4440    0.4173 H   0  0  0  0  0  0  0  0  0  0  0  0
    1.8438    1.3176    1.9573 H   0  0  0  0  0  0  0  0  0  0  0  0
    3.2707    0.2498    2.0995 H   0  0  0  0  0  0  0  0  0  0  0  0
    3.4557    1.9357    1.5213 H   0  0  0  0  0  0  0  0  0  0  0  0
    1.9476    1.4046   -1.9081 H   0  0  0  0  0  0  0  0  0  0  0  0
    2.3910    2.6456   -0.6940 H   0  0  0  0  0  0  0  0  0  0  0  0
    0.3367    2.2419    0.5998 H   0  0  0  0  0  0  0  0  0  0  0  0
   -0.0818    2.4404   -1.1187 H   0  0  0  0  0  0  0  0  0  0  0  0
   -0.3203    0.0669   -1.4624 H   0  0  0  0  0  0  0  0  0  0  0  0
    0.5784   -0.4109    1.4583 H   0  0  0  0  0  0  0  0  0  0  0  0
    0.4390   -2.9105    0.0713 H   0  0  0  0  0  0  0  0  0  0  0  0
   -0.5081   -2.3448    1.4591 H   0  0  0  0  0  0  0  0  0  0  0  0
   -2.0427   -3.1117   -0.1794 H   0  0  0  0  0  0  0  0  0  0  0  0
   -1.2369   -2.2231   -1.5116 H   0  0  0  0  0  0  0  0  0  0  0  0
   -4.1420   -2.1149   -0.6610 H   0  0  0  0  0  0  0  0  0  0  0  0
   -4.3835    1.9043    0.4185 H   0  0  0  0  0  0  0  0  0  0  0  0
   -4.6319    2.0105   -1.3512 H   0  0  0  0  0  0  0  0  0  0  0  0
   -2.2639    2.4998   -0.5274 H   0  0  0  0  0  0  0  0  0  0  0  0
   -2.4134    1.3130   -1.8669 H   0  0  0  0  0  0  0  0  0  0  0  0
   -3.0435    0.7155    1.8667 H   0  0  0  0  0  0  0  0  0  0  0  0
   -1.4828   -0.0426    2.1905 H   0  0  0  0  0  0  0  0  0  0  0  0
   -1.5584    1.7180    1.8066 H   0  0  0  0  0  0  0  0  0  0  0  0
  1  2  1  0
  2  3  1  0
  3  4  1  0
  4  5  2  0
  4  6  1  0
  6  7  1  1
  6  8  1  0
  8  9  1  0
  9 10  1  0
 10 11  1  0
 11 12  1  0
 12 13  1  0
 13 14  1  0
 14 15  2  0
 15 16  1  0
 16 17  2  0
 16 18  1  0
 18 19  1  0
 19 20  1  0
 20 21  1  1
  6  1  1  0
 20 10  1  0
 11  1  1  0
 20 14  1  0
  1 22  1  6
  2 23  1  0
  2 24  1  0
  3 25  1  0
  3 26  1  0
  7 27  1  0
  7 28  1  0
  7 29  1  0
  8 30  1  0
  8 31  1  0
  9 32  1  0
  9 33  1  0
 10 34  1  6
 11 35  1  1
 12 36  1  0
 12 37  1  0
 13 38  1  0
 13 39  1  0
 15 40  1  0
 18 41  1  0
 18 42  1  0
 19 43  1  0
 19 44  1  0
 21 45  1  0
 21 46  1  0
 21 47  1  0
M  END
$$$$
