
     RDKit          3D

 29 31  0  0  0  0  0  0  0  0999 V2000
   -0.0809   -1.0976   -1.6898 O   0  0  0  0  0  0  0  0  0  0  0  0
   -0.6728   -0.4085   -0.8171 C   0  0  0  0  0  0  0  0  0  0  0  0
   -0.0500    0.6246   -0.0421 N   0  0  0  0  0  0  0  0  0  0  0  0
    1.3875    0.8716    0.1140 C   0  0  0  0  0  0  0  0  0  0  0  0
    2.0375   -0.2844    0.8959 C   0  0  0  0  0  0  0  0  0  0  0  0
    3.5560   -0.1091    0.9951 C   0  0  0  0  0  0  0  0  0  0  0  0
    4.1585    0.0382   -0.3712 C   0  0  0  0  0  0  0  0  0  0  0  0
    5.3477   -0.3239   -0.5740 O   0  0  0  0  0  0  0  0  0  0  0  0
    3.4069    0.6411   -1.4301 N   0  0  0  0  0  0  0  0  0  0  0  0
    2.0524    1.0607   -1.2280 C   0  0  0  0  0  0  0  0  0  0  0  0
    1.4408    1.6539   -2.1568 O   0  0  0  0  0  0  0  0  0  0  0  0
   -1.0752    1.0552    0.8588 C   0  0  0  0  0  0  0  0  0  0  0  0
   -0.9102    1.9208    1.7589 O   0  0  0  0  0  0  0  0  0  0  0  0
   -2.3130    0.3294    0.5994 C   0  0  0  0  0  0  0  0  0  0  0  0
   -3.5629    0.4134    1.2104 C   0  0  0  0  0  0  0  0  0  0  0  0
   -4.5810   -0.4411    0.7503 C   0  0  0  0  0  0  0  0  0  0  0  0
   -4.3296   -1.3550   -0.2962 C   0  0  0  0  0  0  0  0  0  0  0  0
   -3.0577   -1.4233   -0.8927 C   0  0  0  0  0  0  0  0  0  0  0  0
   -2.0677   -0.5624   -0.4220 C   0  0  0  0  0  0  0  0  0  0  0  0
    1.5336    1.8130    0.6878 H   0  0  0  0  0  0  0  0  0  0  0  0
    1.6080   -0.3238    1.9205 H   0  0  0  0  0  0  0  0  0  0  0  0
    1.8164   -1.2536    0.3964 H   0  0  0  0  0  0  0  0  0  0  0  0
    3.7917    0.7962    1.5948 H   0  0  0  0  0  0  0  0  0  0  0  0
    3.9933   -0.9936    1.5069 H   0  0  0  0  0  0  0  0  0  0  0  0
    3.8537    0.7775   -2.3648 H   0  0  0  0  0  0  0  0  0  0  0  0
   -3.7454    1.1135    2.0152 H   0  0  0  0  0  0  0  0  0  0  0  0
   -5.5629   -0.3993    1.2034 H   0  0  0  0  0  0  0  0  0  0  0  0
   -5.1200   -2.0094   -0.6402 H   0  0  0  0  0  0  0  0  0  0  0  0
   -2.8547   -2.1241   -1.6920 H   0  0  0  0  0  0  0  0  0  0  0  0
  1  2  2  0
  2  3  1  0
  3  4  1  0
  4  5  1  0
  5  6  1  0
  6  7  1  0
  7  8  2  0
  7  9  1  0
  9 10  1  0
 10 11  2  0
  3 12  1  0
 12 13  2  0
 12 14  1  0
 14 15  2  0
 15 16  1  0
 16 17  2  0
 17 18  1  0
 18 19  2  0
 19  2  1  0
 10  4  1  0
 19 14  1  0
  4 20  1  0
  5 21  1  0
  5 22  1  0
  6 23  1  0
  6 24  1  0
  9 25  1  0
 15 26  1  0
 16 27  1  0
 17 28  1  0
 18 29  1  0
M  END
$$$$
