
     RDKit          3D

119122  0  0  0  0  0  0  0  0999 V2000
   -5.7388   -0.2034   -0.0810 C   0  0  1  0  0  0  0  0  0  0  0  0
   -6.0311   -1.2825    0.9965 C   0  0  0  0  0  0  0  0  0  0  0  0
   -4.6941   -1.9453    1.3546 C   0  0  0  0  0  0  0  0  0  0  0  0
   -3.6574   -1.0953    0.6387 C   0  0  1  0  0  0  0  0  0  0  0  0
   -2.2496   -1.6899    0.4045 C   0  0  2  0  0  0  0  0  0  0  0  0
   -1.6127   -2.2087    1.7201 C   0  0  2  0  0  0  0  0  0  0  0  0
   -1.5825   -1.1941    2.6963 O   0  0  0  0  0  0  0  0  0  0  0  0
   -0.1817   -2.7121    1.4743 C   0  0  0  0  0  0  0  0  0  0  0  0
    0.6904   -1.6108    0.8410 C   0  0  1  0  0  0  0  0  0  0  0  0
    2.1700   -2.0353    0.7608 C   0  0  0  0  0  0  0  0  0  0  0  0
    3.0322   -0.8596    0.2474 C   0  0  2  0  0  0  0  0  0  0  0  0
    2.5181   -0.3081   -1.0950 C   0  0  0  0  0  0  0  0  0  0  0  0
    1.0240    0.0616   -1.0229 C   0  0  0  0  0  0  0  0  0  0  0  0
    0.1183   -1.1121   -0.5320 C   0  0  1  0  0  0  0  0  0  0  0  0
    0.1256   -2.2343   -1.6170 C   0  0  0  0  0  0  0  0  0  0  0  0
   -1.3491   -0.5922   -0.2649 C   0  0  1  0  0  0  0  0  0  0  0  0
   -2.0356    0.0536   -1.5089 C   0  0  0  0  0  0  0  0  0  0  0  0
   -3.4878    0.5142   -1.2399 C   0  0  0  0  0  0  0  0  0  0  0  0
   -4.3531   -0.6318   -0.6564 C   0  0  2  0  0  0  0  0  0  0  0  0
   -4.5275   -1.7726   -1.7100 C   0  0  0  0  0  0  0  0  0  0  0  0
    4.4748   -1.1719    0.1820 N   0  0  0  0  0  0  0  0  0  0  0  0
    4.8080   -2.4286   -0.5093 C   0  0  0  0  0  0  0  0  0  0  0  0
    6.2692   -2.4055   -0.9656 C   0  0  0  0  0  0  0  0  0  0  0  0
    6.5104   -1.3419   -2.0455 C   0  0  0  0  0  0  0  0  0  0  0  0
    7.9014   -1.3994   -2.5185 N   0  0  0  0  0  0  0  0  0  0  0  0
    8.7773   -0.5342   -1.7168 C   0  0  0  0  0  0  0  0  0  0  0  0
   10.2384   -0.7486   -2.1316 C   0  0  0  0  0  0  0  0  0  0  0  0
   11.2299   -0.0061   -1.2216 C   0  0  0  0  0  0  0  0  0  0  0  0
   11.2133    1.5188   -1.4483 C   0  0  0  0  0  0  0  0  0  0  0  0
   12.2267    2.2113   -0.6329 N   0  0  0  0  0  0  0  0  0  0  0  0
   11.7656    2.4796    0.7384 C   0  0  0  0  0  0  0  0  0  0  0  0
   11.1137    3.8665    0.8111 C   0  0  0  0  0  0  0  0  0  0  0  0
   10.4800    4.1532    2.1837 C   0  0  0  0  0  0  0  0  0  0  0  0
   11.4776    4.2889    3.2449 N   0  0  0  0  0  0  0  0  0  0  0  0
   -6.9376   -0.0177   -1.0783 C   0  0  2  0  0  0  0  0  0  0  0  0
   -6.6708    1.0749   -2.1295 C   0  0  0  0  0  0  0  0  0  0  0  0
   -8.2923    0.2534   -0.3609 C   0  0  0  0  0  0  0  0  0  0  0  0
   -8.3871    1.6236    0.3418 C   0  0  0  0  0  0  0  0  0  0  0  0
   -9.5170    1.7214    1.3955 C   0  0  1  0  0  0  0  0  0  0  0  0
   -9.3602    2.9661    2.0543 O   0  0  0  0  0  0  0  0  0  0  0  0
   -9.4051    2.7555    3.7375 S   0  0  0  0  0  6  0  0  0  0  0  0
  -10.7646    1.8672    4.1780 O   0  0  0  0  0  0  0  0  0  0  0  0
   -8.1610    2.0419    4.1891 O   0  0  0  0  0  0  0  0  0  0  0  0
   -9.4670    4.1062    4.3924 O   0  0  0  0  0  0  0  0  0  0  0  0
  -10.9754    1.6460    0.8419 C   0  0  0  0  0  0  0  0  0  0  0  0
  -11.1971    2.4660   -0.4372 C   0  0  0  0  0  0  0  0  0  0  0  0
  -11.4923    0.2083    0.6762 C   0  0  0  0  0  0  0  0  0  0  0  0
   -5.5815    0.7606    0.4500 H   0  0  0  0  0  0  0  0  0  0  0  0
   -6.7228   -2.0636    0.6113 H   0  0  0  0  0  0  0  0  0  0  0  0
   -6.4871   -0.8129    1.8958 H   0  0  0  0  0  0  0  0  0  0  0  0
   -4.6631   -2.9936    0.9845 H   0  0  0  0  0  0  0  0  0  0  0  0
   -4.5338   -1.9434    2.4541 H   0  0  0  0  0  0  0  0  0  0  0  0
   -3.5113   -0.1990    1.2913 H   0  0  0  0  0  0  0  0  0  0  0  0
   -2.3528   -2.5682   -0.2581 H   0  0  0  0  0  0  0  0  0  0  0  0
   -2.2051   -3.0818    2.0858 H   0  0  0  0  0  0  0  0  0  0  0  0
   -2.3422   -1.3511    3.3149 H   0  0  0  0  0  0  0  0  0  0  0  0
    0.2559   -3.0174    2.4503 H   0  0  0  0  0  0  0  0  0  0  0  0
   -0.2004   -3.6173    0.8311 H   0  0  0  0  0  0  0  0  0  0  0  0
    0.6669   -0.7496    1.5490 H   0  0  0  0  0  0  0  0  0  0  0  0
    2.5269   -2.3137    1.7767 H   0  0  0  0  0  0  0  0  0  0  0  0
    2.2738   -2.9345    0.1217 H   0  0  0  0  0  0  0  0  0  0  0  0
    2.9177   -0.0309    0.9842 H   0  0  0  0  0  0  0  0  0  0  0  0
    3.0969    0.6056   -1.3522 H   0  0  0  0  0  0  0  0  0  0  0  0
    2.6815   -1.0292   -1.9198 H   0  0  0  0  0  0  0  0  0  0  0  0
    0.7146    0.3944   -2.0363 H   0  0  0  0  0  0  0  0  0  0  0  0
    0.9108    0.9342   -0.3417 H   0  0  0  0  0  0  0  0  0  0  0  0
   -0.5578   -3.0691   -1.3786 H   0  0  0  0  0  0  0  0  0  0  0  0
    1.1280   -2.6810   -1.7520 H   0  0  0  0  0  0  0  0  0  0  0  0
   -0.1633   -1.8312   -2.6085 H   0  0  0  0  0  0  0  0  0  0  0  0
   -1.2624    0.2374    0.4748 H   0  0  0  0  0  0  0  0  0  0  0  0
   -1.4664    0.9534   -1.8213 H   0  0  0  0  0  0  0  0  0  0  0  0
   -2.0323   -0.6410   -2.3702 H   0  0  0  0  0  0  0  0  0  0  0  0
   -3.4669    1.3759   -0.5365 H   0  0  0  0  0  0  0  0  0  0  0  0
   -3.9077    0.8849   -2.1940 H   0  0  0  0  0  0  0  0  0  0  0  0
   -4.9854   -1.3781   -2.6388 H   0  0  0  0  0  0  0  0  0  0  0  0
   -5.1778   -2.5873   -1.3303 H   0  0  0  0  0  0  0  0  0  0  0  0
   -3.5713   -2.2332   -2.0181 H   0  0  0  0  0  0  0  0  0  0  0  0
    4.8445   -1.2317    1.1604 H   0  0  0  0  0  0  0  0  0  0  0  0
    4.6687   -3.2889    0.1831 H   0  0  0  0  0  0  0  0  0  0  0  0
    4.1618   -2.5983   -1.3955 H   0  0  0  0  0  0  0  0  0  0  0  0
    6.5298   -3.4045   -1.3782 H   0  0  0  0  0  0  0  0  0  0  0  0
    6.9220   -2.2188   -0.0865 H   0  0  0  0  0  0  0  0  0  0  0  0
    6.2513   -0.3278   -1.6638 H   0  0  0  0  0  0  0  0  0  0  0  0
    5.8290   -1.5526   -2.9004 H   0  0  0  0  0  0  0  0  0  0  0  0
    7.9183   -1.0388   -3.5020 H   0  0  0  0  0  0  0  0  0  0  0  0
    8.6731   -0.7788   -0.6374 H   0  0  0  0  0  0  0  0  0  0  0  0
    8.4940    0.5304   -1.8697 H   0  0  0  0  0  0  0  0  0  0  0  0
   10.3821   -0.4314   -3.1877 H   0  0  0  0  0  0  0  0  0  0  0  0
   10.4642   -1.8361   -2.0740 H   0  0  0  0  0  0  0  0  0  0  0  0
   12.2496   -0.3883   -1.4462 H   0  0  0  0  0  0  0  0  0  0  0  0
   11.0121   -0.2460   -0.1594 H   0  0  0  0  0  0  0  0  0  0  0  0
   11.4360    1.7223   -2.5176 H   0  0  0  0  0  0  0  0  0  0  0  0
   10.2029    1.9328   -1.2446 H   0  0  0  0  0  0  0  0  0  0  0  0
   13.1036    1.6399   -0.5985 H   0  0  0  0  0  0  0  0  0  0  0  0
   11.0542    1.7018    1.0941 H   0  0  0  0  0  0  0  0  0  0  0  0
   12.6429    2.4624    1.4213 H   0  0  0  0  0  0  0  0  0  0  0  0
   10.3120    3.9340    0.0449 H   0  0  0  0  0  0  0  0  0  0  0  0
   11.8687    4.6469    0.5721 H   0  0  0  0  0  0  0  0  0  0  0  0
    9.9056    5.1020    2.1174 H   0  0  0  0  0  0  0  0  0  0  0  0
    9.7601    3.3481    2.4486 H   0  0  0  0  0  0  0  0  0  0  0  0
   12.2322    4.9419    2.9316 H   0  0  0  0  0  0  0  0  0  0  0  0
   11.9095    3.3562    3.4336 H   0  0  0  0  0  0  0  0  0  0  0  0
   -7.0847   -0.9719   -1.6288 H   0  0  0  0  0  0  0  0  0  0  0  0
   -6.2324    1.9802   -1.6583 H   0  0  0  0  0  0  0  0  0  0  0  0
   -5.9932    0.7013   -2.9206 H   0  0  0  0  0  0  0  0  0  0  0  0
   -7.6118    1.3657   -2.6437 H   0  0  0  0  0  0  0  0  0  0  0  0
   -9.0867    0.2025   -1.1333 H   0  0  0  0  0  0  0  0  0  0  0  0
   -8.5081   -0.5593    0.3628 H   0  0  0  0  0  0  0  0  0  0  0  0
   -8.4881    2.4320   -0.4126 H   0  0  0  0  0  0  0  0  0  0  0  0
   -7.4412    1.8234    0.8824 H   0  0  0  0  0  0  0  0  0  0  0  0
   -9.3606    0.8590    2.0867 H   0  0  0  0  0  0  0  0  0  0  0  0
  -10.7000    1.7718    5.1618 H   0  0  0  0  0  0  0  0  0  0  0  0
  -11.6317    2.1023    1.6165 H   0  0  0  0  0  0  0  0  0  0  0  0
  -10.6868    2.0018   -1.3063 H   0  0  0  0  0  0  0  0  0  0  0  0
  -12.2828    2.5245   -0.6652 H   0  0  0  0  0  0  0  0  0  0  0  0
  -10.8180    3.5010   -0.3006 H   0  0  0  0  0  0  0  0  0  0  0  0
  -11.3123   -0.3792    1.6015 H   0  0  0  0  0  0  0  0  0  0  0  0
  -11.0197   -0.3103   -0.1782 H   0  0  0  0  0  0  0  0  0  0  0  0
  -12.5883    0.2242    0.4947 H   0  0  0  0  0  0  0  0  0  0  0  0
  1  2  1  0
  2  3  1  0
  3  4  1  0
  4  5  1  0
  5  6  1  0
  6  7  1  0
  6  8  1  0
  8  9  1  0
  9 10  1  0
 10 11  1  0
 11 12  1  0
 12 13  1  0
 13 14  1  0
 14 15  1  6
 14 16  1  0
 16 17  1  0
 17 18  1  0
 18 19  1  0
 19 20  1  6
 11 21  1  0
 21 22  1  0
 22 23  1  0
 23 24  1  0
 24 25  1  0
 25 26  1  0
 26 27  1  0
 27 28  1  0
 28 29  1  0
 29 30  1  0
 30 31  1  0
 31 32  1  0
 32 33  1  0
 33 34  1  0
  1 35  1  0
 35 36  1  0
 35 37  1  0
 37 38  1  0
 38 39  1  0
 39 40  1  0
 40 41  1  0
 41 42  1  0
 41 43  2  0
 41 44  2  0
 39 45  1  0
 45 46  1  0
 45 47  1  0
 19  1  1  0
 19  4  1  0
 16  5  1  0
 14  9  1  0
  1 48  1  1
  2 49  1  0
  2 50  1  0
  3 51  1  0
  3 52  1  0
  4 53  1  1
  5 54  1  6
  6 55  1  1
  7 56  1  0
  8 57  1  0
  8 58  1  0
  9 59  1  1
 10 60  1  0
 10 61  1  0
 11 62  1  1
 12 63  1  0
 12 64  1  0
 13 65  1  0
 13 66  1  0
 15 67  1  0
 15 68  1  0
 15 69  1  0
 16 70  1  1
 17 71  1  0
 17 72  1  0
 18 73  1  0
 18 74  1  0
 20 75  1  0
 20 76  1  0
 20 77  1  0
 21 78  1  0
 22 79  1  0
 22 80  1  0
 23 81  1  0
 23 82  1  0
 24 83  1  0
 24 84  1  0
 25 85  1  0
 26 86  1  0
 26 87  1  0
 27 88  1  0
 27 89  1  0
 28 90  1  0
 28 91  1  0
 29 92  1  0
 29 93  1  0
 30 94  1  0
 31 95  1  0
 31 96  1  0
 32 97  1  0
 32 98  1  0
 33 99  1  0
 33100  1  0
 34101  1  0
 34102  1  0
 35103  1  6
 36104  1  0
 36105  1  0
 36106  1  0
 37107  1  0
 37108  1  0
 38109  1  0
 38110  1  0
 39111  1  1
 42112  1  0
 45113  1  0
 46114  1  0
 46115  1  0
 46116  1  0
 47117  1  0
 47118  1  0
 47119  1  0
M  END
$$$$
