
     RDKit          3D

 62 63  0  0  0  0  0  0  0  0999 V2000
   -1.1984    0.6464    1.3989 N   0  0  0  0  0  0  0  0  0  0  0  0
   -2.3229    1.5787    1.5428 C   0  0  1  0  0  0  0  0  0  0  0  0
   -2.4549    2.4547    0.2724 C   0  0  0  0  0  0  0  0  0  0  0  0
   -3.3859    3.6737    0.4474 C   0  0  0  0  0  0  0  0  0  0  0  0
   -4.7251    3.4586   -0.1892 C   0  0  0  0  0  0  0  0  0  0  0  0
   -4.8238    3.3547   -1.5732 O   0  0  0  0  0  0  0  0  0  0  0  0
   -5.7628    3.3884    0.5221 O   0  0  0  0  0  0  0  0  0  0  0  0
   -3.6262    0.8263    1.9282 C   0  0  0  0  0  0  0  0  0  0  0  0
   -3.8471   -0.5409    1.2484 C   0  0  0  0  0  0  0  0  0  0  0  0
   -4.1051   -0.4352   -0.2308 C   0  0  0  0  0  0  0  0  0  0  0  0
   -5.3299    0.0677   -0.7003 C   0  0  0  0  0  0  0  0  0  0  0  0
   -5.5703    0.1677   -2.0739 C   0  0  0  0  0  0  0  0  0  0  0  0
   -4.5911   -0.2311   -2.9874 C   0  0  0  0  0  0  0  0  0  0  0  0
   -3.3726   -0.7387   -2.5288 C   0  0  0  0  0  0  0  0  0  0  0  0
   -3.1299   -0.8461   -1.1561 C   0  0  0  0  0  0  0  0  0  0  0  0
   -0.5885   -0.0055    2.5223 C   0  0  0  0  0  0  0  0  0  0  0  0
   -0.9578    0.2663    3.6968 O   0  0  0  0  0  0  0  0  0  0  0  0
    0.5219   -0.9878    2.3050 C   0  0  0  0  0  0  0  0  0  0  0  0
    1.8455   -0.2519    2.0602 C   0  0  0  0  0  0  0  0  0  0  0  0
    3.0426   -1.2077    1.9367 C   0  0  0  0  0  0  0  0  0  0  0  0
    3.0363   -1.9911    0.6126 C   0  0  0  0  0  0  0  0  0  0  0  0
    4.2582   -2.9161    0.4626 C   0  0  0  0  0  0  0  0  0  0  0  0
    5.5950   -2.1799    0.2644 C   0  0  0  0  0  0  0  0  0  0  0  0
    5.6003   -1.3274   -0.9789 C   0  0  0  0  0  0  0  0  0  0  0  0
    5.4297    0.0649   -0.8888 C   0  0  0  0  0  0  0  0  0  0  0  0
    5.4072    0.8479   -2.0469 C   0  0  0  0  0  0  0  0  0  0  0  0
    5.5518    0.2484   -3.3010 C   0  0  0  0  0  0  0  0  0  0  0  0
    5.7174   -1.1358   -3.3993 C   0  0  0  0  0  0  0  0  0  0  0  0
    5.7396   -1.9229   -2.2438 C   0  0  0  0  0  0  0  0  0  0  0  0
   -0.8055    0.4597    0.4481 H   0  0  0  0  0  0  0  0  0  0  0  0
   -2.0777    2.2748    2.3765 H   0  0  0  0  0  0  0  0  0  0  0  0
   -2.7489    1.8466   -0.6065 H   0  0  0  0  0  0  0  0  0  0  0  0
   -1.4409    2.8486    0.0381 H   0  0  0  0  0  0  0  0  0  0  0  0
   -2.9225    4.5555   -0.0457 H   0  0  0  0  0  0  0  0  0  0  0  0
   -3.5091    3.9370    1.5207 H   0  0  0  0  0  0  0  0  0  0  0  0
   -5.7222    3.2199   -2.0212 H   0  0  0  0  0  0  0  0  0  0  0  0
   -3.5910    0.6370    3.0230 H   0  0  0  0  0  0  0  0  0  0  0  0
   -4.5137    1.4701    1.7711 H   0  0  0  0  0  0  0  0  0  0  0  0
   -4.7304   -1.0239    1.7202 H   0  0  0  0  0  0  0  0  0  0  0  0
   -2.9898   -1.2172    1.4534 H   0  0  0  0  0  0  0  0  0  0  0  0
   -6.0956    0.3838   -0.0029 H   0  0  0  0  0  0  0  0  0  0  0  0
   -6.5144    0.5590   -2.4301 H   0  0  0  0  0  0  0  0  0  0  0  0
   -4.7774   -0.1490   -4.0504 H   0  0  0  0  0  0  0  0  0  0  0  0
   -2.6161   -1.0504   -3.2373 H   0  0  0  0  0  0  0  0  0  0  0  0
   -2.1819   -1.2440   -0.8167 H   0  0  0  0  0  0  0  0  0  0  0  0
    0.6143   -1.6468    3.1960 H   0  0  0  0  0  0  0  0  0  0  0  0
    0.2631   -1.6223    1.4319 H   0  0  0  0  0  0  0  0  0  0  0  0
    2.0371    0.4302    2.9181 H   0  0  0  0  0  0  0  0  0  0  0  0
    1.7696    0.3748    1.1441 H   0  0  0  0  0  0  0  0  0  0  0  0
    3.9632   -0.5914    1.9951 H   0  0  0  0  0  0  0  0  0  0  0  0
    3.0536   -1.9133    2.7961 H   0  0  0  0  0  0  0  0  0  0  0  0
    2.9766   -1.2908   -0.2476 H   0  0  0  0  0  0  0  0  0  0  0  0
    2.1318   -2.6334    0.5762 H   0  0  0  0  0  0  0  0  0  0  0  0
    4.3363   -3.5681    1.3597 H   0  0  0  0  0  0  0  0  0  0  0  0
    4.0881   -3.5860   -0.4086 H   0  0  0  0  0  0  0  0  0  0  0  0
    6.4035   -2.9384    0.1801 H   0  0  0  0  0  0  0  0  0  0  0  0
    5.8402   -1.5726    1.1609 H   0  0  0  0  0  0  0  0  0  0  0  0
    5.3090    0.5425    0.0754 H   0  0  0  0  0  0  0  0  0  0  0  0
    5.2751    1.9196   -1.9723 H   0  0  0  0  0  0  0  0  0  0  0  0
    5.5333    0.8561   -4.1965 H   0  0  0  0  0  0  0  0  0  0  0  0
    5.8262   -1.5993   -4.3713 H   0  0  0  0  0  0  0  0  0  0  0  0
    5.8629   -2.9951   -2.3335 H   0  0  0  0  0  0  0  0  0  0  0  0
  1  2  1  0
  2  3  1  0
  3  4  1  0
  4  5  1  0
  5  6  1  0
  5  7  2  0
  2  8  1  0
  8  9  1  0
  9 10  1  0
 10 11  2  0
 11 12  1  0
 12 13  2  0
 13 14  1  0
 14 15  2  0
  1 16  1  0
 16 17  2  0
 16 18  1  0
 18 19  1  0
 19 20  1  0
 20 21  1  0
 21 22  1  0
 22 23  1  0
 23 24  1  0
 24 25  2  0
 25 26  1  0
 26 27  2  0
 27 28  1  0
 28 29  2  0
 15 10  1  0
 29 24  1  0
  1 30  1  0
  2 31  1  1
  3 32  1  0
  3 33  1  0
  4 34  1  0
  4 35  1  0
  6 36  1  0
  8 37  1  0
  8 38  1  0
  9 39  1  0
  9 40  1  0
 11 41  1  0
 12 42  1  0
 13 43  1  0
 14 44  1  0
 15 45  1  0
 18 46  1  0
 18 47  1  0
 19 48  1  0
 19 49  1  0
 20 50  1  0
 20 51  1  0
 21 52  1  0
 21 53  1  0
 22 54  1  0
 22 55  1  0
 23 56  1  0
 23 57  1  0
 25 58  1  0
 26 59  1  0
 27 60  1  0
 28 61  1  0
 29 62  1  0
M  END
$$$$
