
     RDKit          3D

 32 35  0  0  0  0  0  0  0  0999 V2000
   -6.3160    0.4635    0.0367 O   0  0  0  0  0  0  0  0  0  0  0  0
   -4.9824    0.0901   -0.1108 C   0  0  0  0  0  0  0  0  0  0  0  0
   -4.6622   -1.0349   -0.8952 C   0  0  0  0  0  0  0  0  0  0  0  0
   -3.3190   -1.3771   -1.0202 C   0  0  0  0  0  0  0  0  0  0  0  0
   -2.3256   -0.6509   -0.4267 C   0  0  0  0  0  0  0  0  0  0  0  0
   -2.6053    0.4538    0.3791 C   0  0  0  0  0  0  0  0  0  0  0  0
   -3.9541    0.8286    0.5273 C   0  0  0  0  0  0  0  0  0  0  0  0
   -1.1604   -1.3125   -0.7727 C   0  0  0  0  0  0  0  0  0  0  0  0
   -1.4950   -2.3860   -1.5300 N   0  0  0  0  0  0  0  0  0  0  0  0
   -2.7949   -2.3909   -1.6622 O   0  0  0  0  0  0  0  0  0  0  0  0
    0.2298   -0.9707   -0.4073 C   0  0  0  0  0  0  0  0  0  0  0  0
    0.6525    0.3675   -0.3377 C   0  0  0  0  0  0  0  0  0  0  0  0
    1.9786    0.6776    0.0011 C   0  0  0  0  0  0  0  0  0  0  0  0
    2.8992   -0.3653    0.2608 C   0  0  0  0  0  0  0  0  0  0  0  0
    2.4785   -1.6992    0.1692 C   0  0  0  0  0  0  0  0  0  0  0  0
    1.1563   -1.9981   -0.1691 C   0  0  0  0  0  0  0  0  0  0  0  0
    4.2254   -0.0545    0.5992 C   0  0  0  0  0  0  0  0  0  0  0  0
    4.6380    1.2830    0.6781 C   0  0  0  0  0  0  0  0  0  0  0  0
    5.9522    1.6010    1.0136 O   0  0  0  0  0  0  0  0  0  0  0  0
    3.7261    2.3108    0.4176 C   0  0  0  0  0  0  0  0  0  0  0  0
    2.4031    2.0128    0.0796 C   0  0  0  0  0  0  0  0  0  0  0  0
   -6.5817    1.2659    0.5955 H   0  0  0  0  0  0  0  0  0  0  0  0
   -5.4335   -1.6210   -1.3780 H   0  0  0  0  0  0  0  0  0  0  0  0
   -1.8260    0.9985    0.8933 H   0  0  0  0  0  0  0  0  0  0  0  0
   -4.2030    1.6839    1.1423 H   0  0  0  0  0  0  0  0  0  0  0  0
   -0.0377    1.1667   -0.5774 H   0  0  0  0  0  0  0  0  0  0  0  0
    3.1714   -2.5106    0.3583 H   0  0  0  0  0  0  0  0  0  0  0  0
    0.8518   -3.0358   -0.2317 H   0  0  0  0  0  0  0  0  0  0  0  0
    4.9383   -0.8457    0.7998 H   0  0  0  0  0  0  0  0  0  0  0  0
    6.6384    0.8811    1.2081 H   0  0  0  0  0  0  0  0  0  0  0  0
    4.0442    3.3439    0.4774 H   0  0  0  0  0  0  0  0  0  0  0  0
    1.7129    2.8244   -0.1179 H   0  0  0  0  0  0  0  0  0  0  0  0
  1  2  1  0
  2  3  2  0
  3  4  1  0
  4  5  2  0
  5  6  1  0
  6  7  2  0
  5  8  1  0
  8  9  2  0
  9 10  1  0
  8 11  1  0
 11 12  2  0
 12 13  1  0
 13 14  2  0
 14 15  1  0
 15 16  2  0
 14 17  1  0
 17 18  2  0
 18 19  1  0
 18 20  1  0
 20 21  2  0
  7  2  1  0
 16 11  1  0
 10  4  1  0
 21 13  1  0
  1 22  1  0
  3 23  1  0
  6 24  1  0
  7 25  1  0
 12 26  1  0
 15 27  1  0
 16 28  1  0
 17 29  1  0
 19 30  1  0
 20 31  1  0
 21 32  1  0
M  END
$$$$
