
     RDKit          3D

 55 58  0  0  0  0  0  0  0  0999 V2000
    7.0693   -1.2434    3.4045 C   0  0  0  0  0  0  0  0  0  0  0  0
    5.8737   -1.3429    2.4710 C   0  0  0  0  0  0  0  0  0  0  0  0
    5.9127   -0.2715    1.5320 O   0  0  0  0  0  0  0  0  0  0  0  0
    4.9567   -0.0635    0.5268 C   0  0  0  0  0  0  0  0  0  0  0  0
    3.8494   -0.9144    0.3497 C   0  0  0  0  0  0  0  0  0  0  0  0
    2.9233   -0.6631   -0.6666 C   0  0  0  0  0  0  0  0  0  0  0  0
    3.0862    0.4391   -1.5212 C   0  0  0  0  0  0  0  0  0  0  0  0
    2.0686    0.7222   -2.5962 C   0  0  0  0  0  0  0  0  0  0  0  0
    0.8175    1.3238   -1.9996 C   0  0  0  0  0  0  0  0  0  0  0  0
   -0.2195    0.4689   -1.5867 C   0  0  0  0  0  0  0  0  0  0  0  0
   -1.3853    0.9777   -0.9865 C   0  0  0  0  0  0  0  0  0  0  0  0
   -1.4834    2.3616   -0.7643 C   0  0  0  0  0  0  0  0  0  0  0  0
   -0.4610    3.2190   -1.1716 C   0  0  0  0  0  0  0  0  0  0  0  0
    0.6879    2.7133   -1.7867 C   0  0  0  0  0  0  0  0  0  0  0  0
    1.9401    3.8541   -2.2650 Cl  0  0  0  0  0  0  0  0  0  0  0  0
   -2.4654    0.0376   -0.4790 C   0  0  2  0  0  0  0  0  0  0  0  0
   -2.5333   -1.1098   -1.3085 O   0  0  0  0  0  0  0  0  0  0  0  0
   -3.8972   -1.3612   -1.4708 C   0  0  0  0  0  0  0  0  0  0  0  0
   -4.5981   -0.4047   -0.5150 C   0  0  2  0  0  0  0  0  0  0  0  0
   -5.9835    0.0274   -1.0399 C   0  0  0  0  0  0  0  0  0  0  0  0
   -5.8679    0.7079   -2.2639 O   0  0  0  0  0  0  0  0  0  0  0  0
   -3.7241    0.6810   -0.5102 O   0  0  0  0  0  0  0  0  0  0  0  0
   -4.6934   -0.9574    0.9584 C   0  0  1  0  0  0  0  0  0  0  0  0
   -4.8925   -2.3514    0.9958 O   0  0  0  0  0  0  0  0  0  0  0  0
   -3.4690   -0.5187    1.8251 C   0  0  2  0  0  0  0  0  0  0  0  0
   -3.7588    0.7317    2.4019 O   0  0  0  0  0  0  0  0  0  0  0  0
   -2.1598   -0.4027    0.9917 C   0  0  1  0  0  0  0  0  0  0  0  0
   -1.4853   -1.6359    1.0123 O   0  0  0  0  0  0  0  0  0  0  0  0
    4.1917    1.2854   -1.3432 C   0  0  0  0  0  0  0  0  0  0  0  0
    5.1178    1.0331   -0.3273 C   0  0  0  0  0  0  0  0  0  0  0  0
    8.0123   -1.3058    2.8212 H   0  0  0  0  0  0  0  0  0  0  0  0
    7.0429   -2.0765    4.1381 H   0  0  0  0  0  0  0  0  0  0  0  0
    7.0429   -0.2782    3.9533 H   0  0  0  0  0  0  0  0  0  0  0  0
    4.9390   -1.2850    3.0699 H   0  0  0  0  0  0  0  0  0  0  0  0
    5.9113   -2.3157    1.9344 H   0  0  0  0  0  0  0  0  0  0  0  0
    3.6946   -1.7709    0.9915 H   0  0  0  0  0  0  0  0  0  0  0  0
    2.0782   -1.3291   -0.7862 H   0  0  0  0  0  0  0  0  0  0  0  0
    1.8223   -0.2257   -3.1233 H   0  0  0  0  0  0  0  0  0  0  0  0
    2.4906    1.3922   -3.3754 H   0  0  0  0  0  0  0  0  0  0  0  0
   -0.1105   -0.5997   -1.7247 H   0  0  0  0  0  0  0  0  0  0  0  0
   -2.3482    2.7813   -0.2662 H   0  0  0  0  0  0  0  0  0  0  0  0
   -0.5589    4.2831   -0.9966 H   0  0  0  0  0  0  0  0  0  0  0  0
   -4.1231   -2.4318   -1.2971 H   0  0  0  0  0  0  0  0  0  0  0  0
   -4.1560   -1.1435   -2.5288 H   0  0  0  0  0  0  0  0  0  0  0  0
   -6.6486   -0.8645   -1.1263 H   0  0  0  0  0  0  0  0  0  0  0  0
   -6.4543    0.7234   -0.3131 H   0  0  0  0  0  0  0  0  0  0  0  0
   -6.2102    0.1021   -2.9717 H   0  0  0  0  0  0  0  0  0  0  0  0
   -5.5904   -0.5147    1.4456 H   0  0  0  0  0  0  0  0  0  0  0  0
   -4.0058   -2.7943    0.9446 H   0  0  0  0  0  0  0  0  0  0  0  0
   -3.3258   -1.2619    2.6459 H   0  0  0  0  0  0  0  0  0  0  0  0
   -3.1612    0.8354    3.1884 H   0  0  0  0  0  0  0  0  0  0  0  0
   -1.5143    0.3599    1.4909 H   0  0  0  0  0  0  0  0  0  0  0  0
   -0.5515   -1.4570    0.7264 H   0  0  0  0  0  0  0  0  0  0  0  0
    4.3413    2.1392   -1.9915 H   0  0  0  0  0  0  0  0  0  0  0  0
    5.9659    1.6944   -0.2020 H   0  0  0  0  0  0  0  0  0  0  0  0
  1  2  1  0
  2  3  1  0
  3  4  1  0
  4  5  2  0
  5  6  1  0
  6  7  2  0
  7  8  1  0
  8  9  1  0
  9 10  2  0
 10 11  1  0
 11 12  2  0
 12 13  1  0
 13 14  2  0
 14 15  1  0
 16 11  1  6
 16 17  1  0
 17 18  1  0
 18 19  1  0
 19 20  1  6
 20 21  1  0
 19 22  1  0
 19 23  1  0
 23 24  1  0
 23 25  1  0
 25 26  1  0
 25 27  1  0
 27 28  1  0
  7 29  1  0
 29 30  2  0
 30  4  1  0
 14  9  1  0
 22 16  1  0
 27 16  1  0
  1 31  1  0
  1 32  1  0
  1 33  1  0
  2 34  1  0
  2 35  1  0
  5 36  1  0
  6 37  1  0
  8 38  1  0
  8 39  1  0
 10 40  1  0
 12 41  1  0
 13 42  1  0
 18 43  1  0
 18 44  1  0
 20 45  1  0
 20 46  1  0
 21 47  1  0
 23 48  1  1
 24 49  1  0
 25 50  1  1
 26 51  1  0
 27 52  1  1
 28 53  1  0
 29 54  1  0
 30 55  1  0
M  END
$$$$
