
     RDKit          3D

 44 46  0  0  0  0  0  0  0  0999 V2000
   -5.2842    2.5096    1.8360 C   0  0  0  0  0  0  0  0  0  0  0  0
   -5.2679    2.6221    0.3154 C   0  0  0  0  0  0  0  0  0  0  0  0
   -4.8241    1.4015   -0.2779 O   0  0  0  0  0  0  0  0  0  0  0  0
   -3.4954    0.9435   -0.3196 C   0  0  0  0  0  0  0  0  0  0  0  0
   -3.2550   -0.3394   -0.8348 C   0  0  0  0  0  0  0  0  0  0  0  0
   -4.3593   -1.0893   -1.2774 O   0  0  0  0  0  0  0  0  0  0  0  0
   -4.3260   -2.4470   -1.7185 C   0  0  0  0  0  0  0  0  0  0  0  0
   -4.1792   -3.3974   -0.5349 C   0  0  0  0  0  0  0  0  0  0  0  0
   -1.9348   -0.8291   -0.8987 C   0  0  0  0  0  0  0  0  0  0  0  0
   -0.8561   -0.0504   -0.4457 C   0  0  0  0  0  0  0  0  0  0  0  0
   -1.1108    1.2304    0.0667 C   0  0  0  0  0  0  0  0  0  0  0  0
   -2.4141    1.7248    0.1275 C   0  0  0  0  0  0  0  0  0  0  0  0
    0.5333   -0.5620   -0.5048 C   0  0  0  0  0  0  0  0  0  0  0  0
    1.6074    0.1475   -0.0902 N   0  0  0  0  0  0  0  0  0  0  0  0
    2.7767   -0.5348   -0.2429 C   0  0  0  0  0  0  0  0  0  0  0  0
    2.6412   -1.8112   -0.7878 C   0  0  0  0  0  0  0  0  0  0  0  0
    1.0077   -2.0739   -1.0789 S   0  0  0  0  0  0  0  0  0  0  0  0
    4.0799    0.0446    0.1432 C   0  0  0  0  0  0  0  0  0  0  0  0
    5.2202   -0.6810   -0.0307 N   0  0  0  0  0  0  0  0  0  0  0  0
    6.4503   -0.2024    0.3054 C   0  0  0  0  0  0  0  0  0  0  0  0
    6.5629    1.0841    0.8522 C   0  0  0  0  0  0  0  0  0  0  0  0
    5.4124    1.8503    1.0419 C   0  0  0  0  0  0  0  0  0  0  0  0
    4.1646    1.3353    0.6886 C   0  0  0  0  0  0  0  0  0  0  0  0
    7.6399   -1.0430    0.0893 C   0  0  0  0  0  0  0  0  0  0  0  0
    8.9072   -0.5742    0.4255 O   0  0  0  0  0  0  0  0  0  0  0  0
    7.5137   -2.1961   -0.4036 O   0  0  0  0  0  0  0  0  0  0  0  0
   -5.6742    3.4518    2.2753 H   0  0  0  0  0  0  0  0  0  0  0  0
   -4.2624    2.3304    2.2287 H   0  0  0  0  0  0  0  0  0  0  0  0
   -5.9419    1.6699    2.1451 H   0  0  0  0  0  0  0  0  0  0  0  0
   -6.3041    2.8200   -0.0307 H   0  0  0  0  0  0  0  0  0  0  0  0
   -4.6406    3.4764   -0.0158 H   0  0  0  0  0  0  0  0  0  0  0  0
   -5.2874   -2.6703   -2.2271 H   0  0  0  0  0  0  0  0  0  0  0  0
   -3.5162   -2.6045   -2.4617 H   0  0  0  0  0  0  0  0  0  0  0  0
   -5.0169   -3.2444    0.1779 H   0  0  0  0  0  0  0  0  0  0  0  0
   -4.2013   -4.4474   -0.8952 H   0  0  0  0  0  0  0  0  0  0  0  0
   -3.2199   -3.2235   -0.0058 H   0  0  0  0  0  0  0  0  0  0  0  0
   -1.7429   -1.8114   -1.3022 H   0  0  0  0  0  0  0  0  0  0  0  0
   -0.3003    1.8554    0.4206 H   0  0  0  0  0  0  0  0  0  0  0  0
   -2.5643    2.7188    0.5229 H   0  0  0  0  0  0  0  0  0  0  0  0
    3.4397   -2.5129   -0.9897 H   0  0  0  0  0  0  0  0  0  0  0  0
    7.5264    1.4928    1.1296 H   0  0  0  0  0  0  0  0  0  0  0  0
    5.4878    2.8445    1.4631 H   0  0  0  0  0  0  0  0  0  0  0  0
    3.2787    1.9392    0.8405 H   0  0  0  0  0  0  0  0  0  0  0  0
    9.7295   -1.1476    0.2792 H   0  0  0  0  0  0  0  0  0  0  0  0
  1  2  1  0
  2  3  1  0
  3  4  1  0
  4  5  2  0
  5  6  1  0
  6  7  1  0
  7  8  1  0
  5  9  1  0
  9 10  2  0
 10 11  1  0
 11 12  2  0
 10 13  1  0
 13 14  2  0
 14 15  1  0
 15 16  2  0
 16 17  1  0
 15 18  1  0
 18 19  2  0
 19 20  1  0
 20 21  2  0
 21 22  1  0
 22 23  2  0
 20 24  1  0
 24 25  1  0
 24 26  2  0
 12  4  1  0
 17 13  1  0
 23 18  1  0
  1 27  1  0
  1 28  1  0
  1 29  1  0
  2 30  1  0
  2 31  1  0
  7 32  1  0
  7 33  1  0
  8 34  1  0
  8 35  1  0
  8 36  1  0
  9 37  1  0
 11 38  1  0
 12 39  1  0
 16 40  1  0
 21 41  1  0
 22 42  1  0
 23 43  1  0
 25 44  1  0
M  END
$$$$
