
     RDKit          3D

 44 47  0  0  0  0  0  0  0  0999 V2000
    4.7660   -0.4333    3.4269 N   0  0  0  0  0  0  0  0  0  0  0  0
    4.2779   -0.0364    2.1477 C   0  0  0  0  0  0  0  0  0  0  0  0
    4.3457   -0.8922    1.1005 N   0  0  0  0  0  0  0  0  0  0  0  0
    3.8726   -0.5462   -0.1234 C   0  0  0  0  0  0  0  0  0  0  0  0
    3.2732    0.7251   -0.3293 C   0  0  0  0  0  0  0  0  0  0  0  0
    3.3062    1.6317    0.7658 C   0  0  0  0  0  0  0  0  0  0  0  0
    2.9733    3.0151    0.6345 N   0  0  0  0  0  0  0  0  0  0  0  0
    3.7810    1.2113    1.9681 N   0  0  0  0  0  0  0  0  0  0  0  0
    2.6564    0.9835   -1.5892 C   0  0  0  0  0  0  0  0  0  0  0  0
    1.5504    2.3718   -1.9052 S   0  0  0  0  0  0  0  0  0  0  0  0
    0.1027    1.4708   -1.3481 C   0  0  0  0  0  0  0  0  0  0  0  0
   -0.6380    0.7061   -2.2558 C   0  0  0  0  0  0  0  0  0  0  0  0
   -1.7582   -0.0084   -1.8221 C   0  0  0  0  0  0  0  0  0  0  0  0
   -2.1555    0.0418   -0.4741 C   0  0  0  0  0  0  0  0  0  0  0  0
   -1.4084    0.8151    0.4302 C   0  0  0  0  0  0  0  0  0  0  0  0
   -0.2881    1.5281   -0.0059 C   0  0  0  0  0  0  0  0  0  0  0  0
   -3.3039   -0.6985   -0.0176 N   0  0  0  0  0  0  0  0  0  0  0  0
   -3.5695   -2.0452   -0.5326 C   0  0  0  0  0  0  0  0  0  0  0  0
   -4.3422   -2.8538    0.5141 C   0  0  0  0  0  0  0  0  0  0  0  0
   -5.4937   -2.1515    0.9432 O   0  0  0  0  0  0  0  0  0  0  0  0
   -5.1095   -0.9677    1.6173 C   0  0  0  0  0  0  0  0  0  0  0  0
   -4.4017   -0.0028    0.6614 C   0  0  0  0  0  0  0  0  0  0  0  0
    2.7884    0.0508   -2.6283 C   0  0  0  0  0  0  0  0  0  0  0  0
    3.4510   -1.1573   -2.4251 C   0  0  0  0  0  0  0  0  0  0  0  0
    3.9688   -1.4661   -1.1710 C   0  0  0  0  0  0  0  0  0  0  0  0
    4.7295    0.2271    4.2348 H   0  0  0  0  0  0  0  0  0  0  0  0
    5.1632   -1.3886    3.5681 H   0  0  0  0  0  0  0  0  0  0  0  0
    2.7673    3.5771    1.4901 H   0  0  0  0  0  0  0  0  0  0  0  0
    3.2259    3.5435   -0.2283 H   0  0  0  0  0  0  0  0  0  0  0  0
   -0.3441    0.6605   -3.2968 H   0  0  0  0  0  0  0  0  0  0  0  0
   -2.3213   -0.5905   -2.5401 H   0  0  0  0  0  0  0  0  0  0  0  0
   -1.6816    0.8513    1.4769 H   0  0  0  0  0  0  0  0  0  0  0  0
    0.2780    2.1176    0.7031 H   0  0  0  0  0  0  0  0  0  0  0  0
   -4.1721   -1.9716   -1.4637 H   0  0  0  0  0  0  0  0  0  0  0  0
   -2.6152   -2.5685   -0.7613 H   0  0  0  0  0  0  0  0  0  0  0  0
   -4.6633   -3.8132    0.0567 H   0  0  0  0  0  0  0  0  0  0  0  0
   -3.6821   -3.1070    1.3752 H   0  0  0  0  0  0  0  0  0  0  0  0
   -4.4581   -1.1962    2.4918 H   0  0  0  0  0  0  0  0  0  0  0  0
   -6.0223   -0.4732    2.0112 H   0  0  0  0  0  0  0  0  0  0  0  0
   -5.1255    0.3625   -0.0990 H   0  0  0  0  0  0  0  0  0  0  0  0
   -4.0317    0.8716    1.2372 H   0  0  0  0  0  0  0  0  0  0  0  0
    2.3356    0.2443   -3.5928 H   0  0  0  0  0  0  0  0  0  0  0  0
    3.5291   -1.8733   -3.2330 H   0  0  0  0  0  0  0  0  0  0  0  0
    4.4437   -2.4266   -1.0122 H   0  0  0  0  0  0  0  0  0  0  0  0
  1  2  1  0
  2  3  2  0
  3  4  1  0
  4  5  2  0
  5  6  1  0
  6  7  1  0
  6  8  2  0
  5  9  1  0
  9 10  1  0
 10 11  1  0
 11 12  2  0
 12 13  1  0
 13 14  2  0
 14 15  1  0
 15 16  2  0
 14 17  1  0
 17 18  1  0
 18 19  1  0
 19 20  1  0
 20 21  1  0
 21 22  1  0
  9 23  2  0
 23 24  1  0
 24 25  2  0
  8  2  1  0
 16 11  1  0
 22 17  1  0
 25  4  1  0
  1 26  1  0
  1 27  1  0
  7 28  1  0
  7 29  1  0
 12 30  1  0
 13 31  1  0
 15 32  1  0
 16 33  1  0
 18 34  1  0
 18 35  1  0
 19 36  1  0
 19 37  1  0
 21 38  1  0
 21 39  1  0
 22 40  1  0
 22 41  1  0
 23 42  1  0
 24 43  1  0
 25 44  1  0
M  END
$$$$
