
     RDKit          3D

 39 41  0  0  0  0  0  0  0  0999 V2000
   -1.2118    0.2940   -1.3856 C   0  0  2  0  0  0  0  0  0  0  0  0
   -1.9028    1.5673   -0.8425 C   0  0  0  0  0  0  0  0  0  0  0  0
   -1.2672    2.8163   -1.4005 C   0  0  0  0  0  0  0  0  0  0  0  0
   -0.3968    3.6940   -0.5506 C   0  0  0  0  0  0  0  0  0  0  0  0
   -1.4577    3.1185   -2.5687 O   0  0  0  0  0  0  0  0  0  0  0  0
   -1.9320   -1.0106   -1.0648 C   0  0  0  0  0  0  0  0  0  0  0  0
   -1.6006   -2.1590   -1.8093 C   0  0  0  0  0  0  0  0  0  0  0  0
   -2.2169   -3.3848   -1.5433 C   0  0  0  0  0  0  0  0  0  0  0  0
   -3.1698   -3.4835   -0.5285 C   0  0  0  0  0  0  0  0  0  0  0  0
   -3.5067   -2.3569    0.2236 C   0  0  0  0  0  0  0  0  0  0  0  0
   -2.8940   -1.1274   -0.0375 C   0  0  0  0  0  0  0  0  0  0  0  0
    0.2546    0.2282   -0.9512 C   0  0  0  0  0  0  0  0  0  0  0  0
    0.6146    0.0007    0.3970 C   0  0  0  0  0  0  0  0  0  0  0  0
   -0.4028   -0.1862    1.3389 O   0  0  0  0  0  0  0  0  0  0  0  0
    1.9844   -0.0299    0.7532 C   0  0  0  0  0  0  0  0  0  0  0  0
    2.4397   -0.2561    2.0709 C   0  0  0  0  0  0  0  0  0  0  0  0
    3.8090   -0.2725    2.3536 C   0  0  0  0  0  0  0  0  0  0  0  0
    4.7410   -0.0656    1.3369 C   0  0  0  0  0  0  0  0  0  0  0  0
    4.3092    0.1589    0.0299 C   0  0  0  0  0  0  0  0  0  0  0  0
    2.9421    0.1780   -0.2677 C   0  0  0  0  0  0  0  0  0  0  0  0
    2.5596    0.3946   -1.5180 O   0  0  0  0  0  0  0  0  0  0  0  0
    1.2882    0.4294   -1.8913 C   0  0  0  0  0  0  0  0  0  0  0  0
    1.0230    0.6489   -3.1033 O   0  0  0  0  0  0  0  0  0  0  0  0
   -1.2709    0.3813   -2.4931 H   0  0  0  0  0  0  0  0  0  0  0  0
   -2.9759    1.5636   -1.1343 H   0  0  0  0  0  0  0  0  0  0  0  0
   -1.8635    1.5931    0.2660 H   0  0  0  0  0  0  0  0  0  0  0  0
   -0.8426    4.7084   -0.4847 H   0  0  0  0  0  0  0  0  0  0  0  0
   -0.2868    3.2832    0.4749 H   0  0  0  0  0  0  0  0  0  0  0  0
    0.6120    3.7678   -1.0084 H   0  0  0  0  0  0  0  0  0  0  0  0
   -0.8593   -2.1034   -2.5972 H   0  0  0  0  0  0  0  0  0  0  0  0
   -1.9534   -4.2594   -2.1239 H   0  0  0  0  0  0  0  0  0  0  0  0
   -3.6454   -4.4338   -0.3229 H   0  0  0  0  0  0  0  0  0  0  0  0
   -4.2427   -2.4364    1.0133 H   0  0  0  0  0  0  0  0  0  0  0  0
   -3.1745   -0.2808    0.5725 H   0  0  0  0  0  0  0  0  0  0  0  0
   -0.2569   -0.3491    2.3238 H   0  0  0  0  0  0  0  0  0  0  0  0
    1.7671   -0.4234    2.8963 H   0  0  0  0  0  0  0  0  0  0  0  0
    4.1486   -0.4468    3.3666 H   0  0  0  0  0  0  0  0  0  0  0  0
    5.7996   -0.0794    1.5622 H   0  0  0  0  0  0  0  0  0  0  0  0
    5.0383    0.3189   -0.7546 H   0  0  0  0  0  0  0  0  0  0  0  0
  1  2  1  0
  2  3  1  0
  3  4  1  0
  3  5  2  0
  1  6  1  0
  6  7  2  0
  7  8  1  0
  8  9  2  0
  9 10  1  0
 10 11  2  0
  1 12  1  0
 12 13  2  0
 13 14  1  0
 13 15  1  0
 15 16  2  0
 16 17  1  0
 17 18  2  0
 18 19  1  0
 19 20  2  0
 20 21  1  0
 21 22  1  0
 22 23  2  0
 11  6  1  0
 22 12  1  0
 20 15  1  0
  1 24  1  6
  2 25  1  0
  2 26  1  0
  4 27  1  0
  4 28  1  0
  4 29  1  0
  7 30  1  0
  8 31  1  0
  9 32  1  0
 10 33  1  0
 11 34  1  0
 14 35  1  0
 16 36  1  0
 17 37  1  0
 18 38  1  0
 19 39  1  0
M  END
$$$$
