
     RDKit          3D

 43 44  0  0  0  0  0  0  0  0999 V2000
   -3.0108   -0.7996    4.2043 C   0  0  0  0  0  0  0  0  0  0  0  0
   -2.2305   -0.0373    3.2893 O   0  0  0  0  0  0  0  0  0  0  0  0
   -2.4183   -0.0234    1.8968 C   0  0  0  0  0  0  0  0  0  0  0  0
   -3.4330   -0.7775    1.2786 C   0  0  0  0  0  0  0  0  0  0  0  0
   -3.5958   -0.7506   -0.1111 C   0  0  0  0  0  0  0  0  0  0  0  0
   -4.6428   -1.5371   -0.7146 C   0  0  0  0  0  0  0  0  0  0  0  0
   -5.4831   -2.1684   -1.1990 N   0  0  0  0  0  0  0  0  0  0  0  0
   -2.7461    0.0306   -0.9089 C   0  0  0  0  0  0  0  0  0  0  0  0
   -2.9313    0.0297   -2.3021 O   0  0  0  0  0  0  0  0  0  0  0  0
   -2.1287    0.7592   -3.2247 C   0  0  0  0  0  0  0  0  0  0  0  0
   -1.7342    0.7890   -0.2928 C   0  0  0  0  0  0  0  0  0  0  0  0
   -1.5662    0.7684    1.1018 C   0  0  0  0  0  0  0  0  0  0  0  0
   -0.4471    1.5678    1.7294 C   0  0  0  0  0  0  0  0  0  0  0  0
    0.7706    0.6932    2.0917 C   0  0  0  0  0  0  0  0  0  0  0  0
    1.3941    0.0326    0.9324 N   0  0  0  0  0  0  0  0  0  0  0  0
    2.1063    0.9759    0.0622 C   0  0  0  0  0  0  0  0  0  0  0  0
    2.9062    0.2110   -0.9587 C   0  0  0  0  0  0  0  0  0  0  0  0
    4.1533   -0.3529   -0.6227 C   0  0  0  0  0  0  0  0  0  0  0  0
    4.6782   -0.1814    0.6582 O   0  0  0  0  0  0  0  0  0  0  0  0
    4.8659   -1.0909   -1.5796 C   0  0  0  0  0  0  0  0  0  0  0  0
    4.3381   -1.2801   -2.8592 C   0  0  0  0  0  0  0  0  0  0  0  0
    3.0945   -0.7381   -3.1899 C   0  0  0  0  0  0  0  0  0  0  0  0
    2.3780   -0.0005   -2.2439 C   0  0  0  0  0  0  0  0  0  0  0  0
   -2.6380   -0.6215    5.2337 H   0  0  0  0  0  0  0  0  0  0  0  0
   -2.9181   -1.8823    3.9754 H   0  0  0  0  0  0  0  0  0  0  0  0
   -4.0747   -0.4859    4.1527 H   0  0  0  0  0  0  0  0  0  0  0  0
   -4.0997   -1.3902    1.8717 H   0  0  0  0  0  0  0  0  0  0  0  0
   -2.1981    1.8474   -3.0149 H   0  0  0  0  0  0  0  0  0  0  0  0
   -1.0727    0.4227   -3.1606 H   0  0  0  0  0  0  0  0  0  0  0  0
   -2.4986    0.5720   -4.2535 H   0  0  0  0  0  0  0  0  0  0  0  0
   -1.0677    1.3936   -0.8924 H   0  0  0  0  0  0  0  0  0  0  0  0
   -0.1385    2.4038    1.0673 H   0  0  0  0  0  0  0  0  0  0  0  0
   -0.8227    2.0500    2.6577 H   0  0  0  0  0  0  0  0  0  0  0  0
    1.5223    1.3159    2.6247 H   0  0  0  0  0  0  0  0  0  0  0  0
    0.4516   -0.0908    2.8113 H   0  0  0  0  0  0  0  0  0  0  0  0
    0.6710   -0.4798    0.3765 H   0  0  0  0  0  0  0  0  0  0  0  0
    2.7928    1.6156    0.6596 H   0  0  0  0  0  0  0  0  0  0  0  0
    1.3892    1.6498   -0.4539 H   0  0  0  0  0  0  0  0  0  0  0  0
    5.5719   -0.5787    0.9234 H   0  0  0  0  0  0  0  0  0  0  0  0
    5.8271   -1.5222   -1.3304 H   0  0  0  0  0  0  0  0  0  0  0  0
    4.8910   -1.8520   -3.5932 H   0  0  0  0  0  0  0  0  0  0  0  0
    2.6835   -0.8924   -4.1792 H   0  0  0  0  0  0  0  0  0  0  0  0
    1.4110    0.4053   -2.5134 H   0  0  0  0  0  0  0  0  0  0  0  0
  1  2  1  0
  2  3  1  0
  3  4  2  0
  4  5  1  0
  5  6  1  0
  6  7  3  0
  5  8  2  0
  8  9  1  0
  9 10  1  0
  8 11  1  0
 11 12  2  0
 12 13  1  0
 13 14  1  0
 14 15  1  0
 15 16  1  0
 16 17  1  0
 17 18  2  0
 18 19  1  0
 18 20  1  0
 20 21  2  0
 21 22  1  0
 22 23  2  0
 12  3  1  0
 23 17  1  0
  1 24  1  0
  1 25  1  0
  1 26  1  0
  4 27  1  0
 10 28  1  0
 10 29  1  0
 10 30  1  0
 11 31  1  0
 13 32  1  0
 13 33  1  0
 14 34  1  0
 14 35  1  0
 15 36  1  0
 16 37  1  0
 16 38  1  0
 19 39  1  0
 20 40  1  0
 21 41  1  0
 22 42  1  0
 23 43  1  0
M  END
$$$$
