
     RDKit          3D

 55 56  0  0  0  0  0  0  0  0999 V2000
   -7.7331    0.6401    0.5011 C   0  0  0  0  0  0  0  0  0  0  0  0
   -6.3189    0.2020    0.2806 C   0  0  0  0  0  0  0  0  0  0  0  0
   -5.3581    0.5026    1.1654 C   0  0  0  0  0  0  0  0  0  0  0  0
   -3.9288    0.0729    0.9619 C   0  0  0  0  0  0  0  0  0  0  0  0
   -3.1667    1.0329    0.0252 C   0  0  2  0  0  0  0  0  0  0  0  0
   -3.6379    0.9144   -1.4088 C   0  0  0  0  0  0  0  0  0  0  0  0
   -4.2789    2.0713   -2.1175 C   0  0  0  0  0  0  0  0  0  0  0  0
   -3.5001   -0.1417   -2.0083 O   0  0  0  0  0  0  0  0  0  0  0  0
   -1.7246    0.7823    0.0941 N   0  0  0  0  0  0  0  0  0  0  0  0
   -0.8157    1.7300    0.2584 N   0  0  0  0  0  0  0  0  0  0  0  0
    0.4035    1.2121    0.2249 N   0  0  0  0  0  0  0  0  0  0  0  0
    0.2643   -0.1187    0.0403 C   0  0  0  0  0  0  0  0  0  0  0  0
   -1.0868   -0.3919   -0.0663 C   0  0  0  0  0  0  0  0  0  0  0  0
    1.4195   -1.0906   -0.1581 C   0  0  2  0  0  0  0  0  0  0  0  0
    1.4697   -1.3557   -1.6846 C   0  0  0  0  0  0  0  0  0  0  0  0
    1.1549   -2.4152    0.6502 C   0  0  0  0  0  0  0  0  0  0  0  0
    0.8974   -2.1520    2.1487 C   0  0  0  0  0  0  0  0  0  0  0  0
    2.2873   -3.4512    0.5252 C   0  0  0  0  0  0  0  0  0  0  0  0
    2.6563   -0.4376    0.3283 N   0  0  0  0  0  0  0  0  0  0  0  0
    3.9690   -0.5245   -0.2602 C   0  0  0  0  0  0  0  0  0  0  0  0
    4.2978   -1.5359   -0.9361 O   0  0  0  0  0  0  0  0  0  0  0  0
    4.9656    0.5501   -0.0351 C   0  0  0  0  0  0  0  0  0  0  0  0
    4.5597    1.8428    0.3486 C   0  0  0  0  0  0  0  0  0  0  0  0
    5.5070    2.8512    0.5514 C   0  0  0  0  0  0  0  0  0  0  0  0
    6.8656    2.5844    0.3693 C   0  0  0  0  0  0  0  0  0  0  0  0
    7.2800    1.3092   -0.0206 C   0  0  0  0  0  0  0  0  0  0  0  0
    6.3374    0.2970   -0.2257 C   0  0  0  0  0  0  0  0  0  0  0  0
   -7.7819    1.7483    0.5535 H   0  0  0  0  0  0  0  0  0  0  0  0
   -8.3684    0.2925   -0.3402 H   0  0  0  0  0  0  0  0  0  0  0  0
   -8.1211    0.2072    1.4473 H   0  0  0  0  0  0  0  0  0  0  0  0
   -6.0812   -0.3686   -0.6127 H   0  0  0  0  0  0  0  0  0  0  0  0
   -5.6098    1.0542    2.0675 H   0  0  0  0  0  0  0  0  0  0  0  0
   -3.4286    0.0793    1.9548 H   0  0  0  0  0  0  0  0  0  0  0  0
   -3.8927   -0.9721    0.5827 H   0  0  0  0  0  0  0  0  0  0  0  0
   -3.3500    2.0684    0.3907 H   0  0  0  0  0  0  0  0  0  0  0  0
   -4.3514    2.9629   -1.4608 H   0  0  0  0  0  0  0  0  0  0  0  0
   -5.3026    1.7865   -2.4393 H   0  0  0  0  0  0  0  0  0  0  0  0
   -3.6777    2.3371   -3.0120 H   0  0  0  0  0  0  0  0  0  0  0  0
   -1.5588   -1.3449   -0.2651 H   0  0  0  0  0  0  0  0  0  0  0  0
    1.7018   -0.4147   -2.2294 H   0  0  0  0  0  0  0  0  0  0  0  0
    0.4889   -1.7331   -2.0476 H   0  0  0  0  0  0  0  0  0  0  0  0
    2.2213   -2.1105   -1.9756 H   0  0  0  0  0  0  0  0  0  0  0  0
    0.2391   -2.8972    0.2417 H   0  0  0  0  0  0  0  0  0  0  0  0
    0.6600   -3.1048    2.6686 H   0  0  0  0  0  0  0  0  0  0  0  0
    1.7910   -1.7047    2.6325 H   0  0  0  0  0  0  0  0  0  0  0  0
    0.0311   -1.4759    2.2990 H   0  0  0  0  0  0  0  0  0  0  0  0
    3.2368   -3.0556    0.9419 H   0  0  0  0  0  0  0  0  0  0  0  0
    2.0236   -4.3701    1.0915 H   0  0  0  0  0  0  0  0  0  0  0  0
    2.4425   -3.7623   -0.5261 H   0  0  0  0  0  0  0  0  0  0  0  0
    2.5919    0.0853    1.2315 H   0  0  0  0  0  0  0  0  0  0  0  0
    3.5122    2.0839    0.4741 H   0  0  0  0  0  0  0  0  0  0  0  0
    5.1864    3.8425    0.8449 H   0  0  0  0  0  0  0  0  0  0  0  0
    7.5968    3.3669    0.5263 H   0  0  0  0  0  0  0  0  0  0  0  0
    8.3331    1.1042   -0.1642 H   0  0  0  0  0  0  0  0  0  0  0  0
    6.6823   -0.6852   -0.5241 H   0  0  0  0  0  0  0  0  0  0  0  0
  1  2  1  0
  2  3  2  0
  3  4  1  0
  4  5  1  0
  5  6  1  0
  6  7  1  0
  6  8  2  0
  5  9  1  0
  9 10  1  0
 10 11  2  0
 11 12  1  0
 12 13  2  0
 12 14  1  0
 14 15  1  0
 14 16  1  0
 16 17  1  0
 16 18  1  0
 14 19  1  1
 19 20  1  0
 20 21  2  0
 20 22  1  0
 22 23  2  0
 23 24  1  0
 24 25  2  0
 25 26  1  0
 26 27  2  0
 13  9  1  0
 27 22  1  0
  1 28  1  0
  1 29  1  0
  1 30  1  0
  2 31  1  0
  3 32  1  0
  4 33  1  0
  4 34  1  0
  5 35  1  1
  7 36  1  0
  7 37  1  0
  7 38  1  0
 13 39  1  0
 15 40  1  0
 15 41  1  0
 15 42  1  0
 16 43  1  0
 17 44  1  0
 17 45  1  0
 17 46  1  0
 18 47  1  0
 18 48  1  0
 18 49  1  0
 19 50  1  0
 23 51  1  0
 24 52  1  0
 25 53  1  0
 26 54  1  0
 27 55  1  0
M  END
$$$$
