
     RDKit          3D

 33 35  0  0  0  0  0  0  0  0999 V2000
    4.8584   -1.6231   -1.0610 N   0  0  0  0  0  0  0  0  0  0  0  0
    4.5957   -0.3767   -0.4051 C   0  0  0  0  0  0  0  0  0  0  0  0
    5.5768    0.2763    0.1441 N   0  0  0  0  0  4  0  0  0  0  0  0
    3.2095    0.1512   -0.3501 C   0  0  0  0  0  0  0  0  0  0  0  0
    2.1209   -0.7375   -0.1882 C   0  0  0  0  0  0  0  0  0  0  0  0
    0.8356   -0.2032   -0.1469 C   0  0  0  0  0  0  0  0  0  0  0  0
    0.6060    1.1406   -0.2548 C   0  0  0  0  0  0  0  0  0  0  0  0
   -0.7069    1.4112   -0.1747 N   0  0  0  0  0  0  0  0  0  0  0  0
   -1.3233    0.2131   -0.0185 C   0  0  0  0  0  0  0  0  0  0  0  0
   -0.3854   -0.8215    0.0090 C   0  0  0  0  0  0  0  0  0  0  0  0
   -2.7892    0.0591    0.1412 C   0  0  0  0  0  0  0  0  0  0  0  0
   -3.5172    1.0563    0.8157 C   0  0  0  0  0  0  0  0  0  0  0  0
   -4.8975    0.9324    0.9916 C   0  0  0  0  0  0  0  0  0  0  0  0
   -5.5691   -0.1845    0.4942 C   0  0  0  0  0  0  0  0  0  0  0  0
   -4.8632   -1.1782   -0.1861 C   0  0  0  0  0  0  0  0  0  0  0  0
   -3.4774   -1.0625   -0.3736 C   0  0  0  0  0  0  0  0  0  0  0  0
   -2.7960   -2.0469   -1.0889 O   0  0  0  0  0  0  0  0  0  0  0  0
    1.6475    2.0494   -0.4184 C   0  0  0  0  0  0  0  0  0  0  0  0
    2.9599    1.5459   -0.4676 C   0  0  0  0  0  0  0  0  0  0  0  0
    5.8201   -2.0301   -1.0693 H   0  0  0  0  0  0  0  0  0  0  0  0
    4.1080   -2.1248   -1.5854 H   0  0  0  0  0  0  0  0  0  0  0  0
    6.5529   -0.0934    0.1030 H   0  0  0  0  0  0  0  0  0  0  0  0
    5.4212    1.1688    0.6635 H   0  0  0  0  0  0  0  0  0  0  0  0
    2.2699   -1.8045   -0.0803 H   0  0  0  0  0  0  0  0  0  0  0  0
   -1.1541    2.3532   -0.2348 H   0  0  0  0  0  0  0  0  0  0  0  0
   -0.5632   -1.8788    0.1536 H   0  0  0  0  0  0  0  0  0  0  0  0
   -3.0160    1.9235    1.2267 H   0  0  0  0  0  0  0  0  0  0  0  0
   -5.4465    1.7020    1.5188 H   0  0  0  0  0  0  0  0  0  0  0  0
   -6.6384   -0.2788    0.6328 H   0  0  0  0  0  0  0  0  0  0  0  0
   -5.3960   -2.0360   -0.5765 H   0  0  0  0  0  0  0  0  0  0  0  0
   -3.2741   -2.8544   -1.4712 H   0  0  0  0  0  0  0  0  0  0  0  0
    1.4547    3.1107   -0.5082 H   0  0  0  0  0  0  0  0  0  0  0  0
    3.7762    2.2410   -0.6158 H   0  0  0  0  0  0  0  0  0  0  0  0
  1  2  1  0
  2  3  2  3
  2  4  1  0
  4  5  2  0
  5  6  1  0
  6  7  2  0
  7  8  1  0
  8  9  1  0
  9 10  2  0
  9 11  1  0
 11 12  2  0
 12 13  1  0
 13 14  2  0
 14 15  1  0
 15 16  2  0
 16 17  1  0
  7 18  1  0
 18 19  2  0
 19  4  1  0
 10  6  1  0
 16 11  1  0
  1 20  1  0
  1 21  1  0
  3 22  1  0
  3 23  1  0
  5 24  1  0
  8 25  1  0
 10 26  1  0
 12 27  1  0
 13 28  1  0
 14 29  1  0
 15 30  1  0
 17 31  1  0
 18 32  1  0
 19 33  1  0
M  CHG  1   3   1
M  END
$$$$
