
     RDKit          3D

 85 89  0  0  0  0  0  0  0  0999 V2000
   -3.3467   -0.0644    1.8842 C   0  0  1  0  0  0  0  0  0  0  0  0
   -2.2554    0.0246    2.8460 N   0  0  0  0  0  0  0  0  0  0  0  0
   -0.8995   -0.0969    2.4025 C   0  0  0  0  0  0  0  0  0  0  0  0
    0.0224    0.1938    3.2137 O   0  0  0  0  0  0  0  0  0  0  0  0
   -0.5692   -0.4468    0.9364 C   0  0  0  0  0  0  0  0  0  0  0  0
   -0.3530    0.9188    0.2017 C   0  0  0  0  0  0  0  0  0  0  0  0
    0.8311    0.9609   -0.7729 C   0  0  0  0  0  0  0  0  0  0  0  0
    1.0823   -0.3744   -1.3261 N   0  0  0  0  0  0  0  0  0  0  0  0
    1.8926   -0.3508   -2.5650 C   0  0  0  0  0  0  0  0  0  0  0  0
    3.2869    0.2102   -2.3755 C   0  0  0  0  0  0  0  0  0  0  0  0
    4.3609   -0.6443   -2.0784 C   0  0  0  0  0  0  0  0  0  0  0  0
    5.6453   -0.1266   -1.8907 C   0  0  0  0  0  0  0  0  0  0  0  0
    5.8738    1.2569   -1.9923 C   0  0  0  0  0  0  0  0  0  0  0  0
    7.1503    1.8124   -1.8214 O   0  0  0  0  0  0  0  0  0  0  0  0
    8.1456    1.3138   -0.9678 C   0  0  0  0  0  0  0  0  0  0  0  0
    7.8338    0.6568    0.2349 C   0  0  0  0  0  0  0  0  0  0  0  0
    8.8537    0.1875    1.0680 C   0  0  0  0  0  0  0  0  0  0  0  0
   10.2021    0.3772    0.7200 C   0  0  0  0  0  0  0  0  0  0  0  0
   10.5085    1.0532   -0.4747 C   0  0  0  0  0  0  0  0  0  0  0  0
    9.4865    1.5217   -1.3055 C   0  0  0  0  0  0  0  0  0  0  0  0
   11.2791   -0.1214    1.6034 C   0  0  0  0  0  0  0  0  0  0  0  0
   10.9654   -0.7874    2.7855 O   0  0  0  0  0  0  0  0  0  0  0  0
   12.4894    0.0512    1.2949 O   0  0  0  0  0  0  0  0  0  0  0  0
    4.8100    2.1040   -2.3204 C   0  0  0  0  0  0  0  0  0  0  0  0
    3.5247    1.5878   -2.5073 C   0  0  0  0  0  0  0  0  0  0  0  0
    1.6396   -1.2586   -0.2921 C   0  0  0  0  0  0  0  0  0  0  0  0
    0.7152   -1.3580    0.9434 C   0  0  0  0  0  0  0  0  0  0  0  0
   -1.7216   -1.1870    0.3088 N   0  0  0  0  0  0  0  0  0  0  0  0
   -1.6188   -1.9117   -0.9806 C   0  0  0  0  0  0  0  0  0  0  0  0
   -1.9869   -1.0400   -2.1996 C   0  0  0  0  0  0  0  0  0  0  0  0
   -3.4401   -0.5416   -2.2323 C   0  0  0  0  0  0  0  0  0  0  0  0
   -4.4463   -1.6609   -2.4970 C   0  0  0  0  0  0  0  0  0  0  0  0
   -3.0045   -1.2087    0.9725 C   0  0  0  0  0  0  0  0  0  0  0  0
   -3.7570   -2.2135    0.8602 O   0  0  0  0  0  0  0  0  0  0  0  0
   -4.7363   -0.1006    2.6042 C   0  0  2  0  0  0  0  0  0  0  0  0
   -5.0718   -1.3922    3.0553 O   0  0  0  0  0  0  0  0  0  0  0  0
   -5.8886    0.6227    1.8282 C   0  0  0  0  0  0  0  0  0  0  0  0
   -6.2755   -0.0142    0.4593 C   0  0  0  0  0  0  0  0  0  0  0  0
   -7.6708   -0.6526    0.4591 C   0  0  0  0  0  0  0  0  0  0  0  0
   -8.7621    0.3573    0.8553 C   0  0  0  0  0  0  0  0  0  0  0  0
   -8.3184    1.3470    1.9520 C   0  0  0  0  0  0  0  0  0  0  0  0
   -7.1168    0.8293    2.7492 C   0  0  0  0  0  0  0  0  0  0  0  0
   -3.3097    0.8579    1.2644 H   0  0  0  0  0  0  0  0  0  0  0  0
   -2.4352    0.2115    3.8586 H   0  0  0  0  0  0  0  0  0  0  0  0
   -0.1945    1.7506    0.9251 H   0  0  0  0  0  0  0  0  0  0  0  0
   -1.2829    1.1942   -0.3412 H   0  0  0  0  0  0  0  0  0  0  0  0
    1.7353    1.3436   -0.2459 H   0  0  0  0  0  0  0  0  0  0  0  0
    0.5850    1.6809   -1.5847 H   0  0  0  0  0  0  0  0  0  0  0  0
    1.3572    0.2385   -3.3416 H   0  0  0  0  0  0  0  0  0  0  0  0
    1.9569   -1.3810   -2.9790 H   0  0  0  0  0  0  0  0  0  0  0  0
    4.2033   -1.7123   -1.9920 H   0  0  0  0  0  0  0  0  0  0  0  0
    6.4613   -0.8065   -1.6842 H   0  0  0  0  0  0  0  0  0  0  0  0
    6.8040    0.5238    0.5393 H   0  0  0  0  0  0  0  0  0  0  0  0
    8.5849   -0.3174    1.9873 H   0  0  0  0  0  0  0  0  0  0  0  0
   11.5374    1.2216   -0.7673 H   0  0  0  0  0  0  0  0  0  0  0  0
    9.7379    2.0421   -2.2210 H   0  0  0  0  0  0  0  0  0  0  0  0
   11.6951   -1.1329    3.3974 H   0  0  0  0  0  0  0  0  0  0  0  0
    4.9790    3.1684   -2.4225 H   0  0  0  0  0  0  0  0  0  0  0  0
    2.7159    2.2631   -2.7559 H   0  0  0  0  0  0  0  0  0  0  0  0
    1.7901   -2.2777   -0.7122 H   0  0  0  0  0  0  0  0  0  0  0  0
    2.6379   -0.8905    0.0355 H   0  0  0  0  0  0  0  0  0  0  0  0
    0.4038   -2.4164    1.0858 H   0  0  0  0  0  0  0  0  0  0  0  0
    1.3632   -1.1409    1.8187 H   0  0  0  0  0  0  0  0  0  0  0  0
   -2.2518   -2.8231   -0.9700 H   0  0  0  0  0  0  0  0  0  0  0  0
   -0.6030   -2.3122   -1.1329 H   0  0  0  0  0  0  0  0  0  0  0  0
   -1.7866   -1.6250   -3.1236 H   0  0  0  0  0  0  0  0  0  0  0  0
   -1.3212   -0.1585   -2.2469 H   0  0  0  0  0  0  0  0  0  0  0  0
   -3.6937   -0.0059   -1.2962 H   0  0  0  0  0  0  0  0  0  0  0  0
   -3.5319    0.1987   -3.0564 H   0  0  0  0  0  0  0  0  0  0  0  0
   -4.2059   -2.1790   -3.4495 H   0  0  0  0  0  0  0  0  0  0  0  0
   -4.4499   -2.3992   -1.6711 H   0  0  0  0  0  0  0  0  0  0  0  0
   -5.4657   -1.2279   -2.5781 H   0  0  0  0  0  0  0  0  0  0  0  0
   -4.6168    0.5141    3.5236 H   0  0  0  0  0  0  0  0  0  0  0  0
   -5.6608   -1.8207    2.3849 H   0  0  0  0  0  0  0  0  0  0  0  0
   -5.5112    1.6457    1.5988 H   0  0  0  0  0  0  0  0  0  0  0  0
   -5.5486   -0.7760    0.1399 H   0  0  0  0  0  0  0  0  0  0  0  0
   -6.2589    0.7746   -0.3253 H   0  0  0  0  0  0  0  0  0  0  0  0
   -7.6854   -1.5090    1.1671 H   0  0  0  0  0  0  0  0  0  0  0  0
   -7.8929   -1.0566   -0.5524 H   0  0  0  0  0  0  0  0  0  0  0  0
   -9.0708    0.9337   -0.0442 H   0  0  0  0  0  0  0  0  0  0  0  0
   -9.6535   -0.2073    1.2054 H   0  0  0  0  0  0  0  0  0  0  0  0
   -8.0457    2.3189    1.4843 H   0  0  0  0  0  0  0  0  0  0  0  0
   -9.1663    1.5384    2.6449 H   0  0  0  0  0  0  0  0  0  0  0  0
   -6.8667    1.5646    3.5451 H   0  0  0  0  0  0  0  0  0  0  0  0
   -7.3980   -0.1236    3.2489 H   0  0  0  0  0  0  0  0  0  0  0  0
  1  2  1  0
  2  3  1  0
  3  4  2  0
  3  5  1  0
  5  6  1  0
  6  7  1  0
  7  8  1  0
  8  9  1  0
  9 10  1  0
 10 11  2  0
 11 12  1  0
 12 13  2  0
 13 14  1  0
 14 15  1  0
 15 16  2  0
 16 17  1  0
 17 18  2  0
 18 19  1  0
 19 20  2  0
 18 21  1  0
 21 22  1  0
 21 23  2  0
 13 24  1  0
 24 25  2  0
  8 26  1  0
 26 27  1  0
  5 28  1  0
 28 29  1  0
 29 30  1  0
 30 31  1  0
 31 32  1  0
 28 33  1  0
 33 34  2  0
  1 35  1  0
 35 36  1  0
 35 37  1  0
 37 38  1  0
 38 39  1  0
 39 40  1  0
 40 41  1  0
 41 42  1  0
 33  1  1  0
 42 37  1  0
 27  5  1  0
 25 10  1  0
 20 15  1  0
  1 43  1  6
  2 44  1  0
  6 45  1  0
  6 46  1  0
  7 47  1  0
  7 48  1  0
  9 49  1  0
  9 50  1  0
 11 51  1  0
 12 52  1  0
 16 53  1  0
 17 54  1  0
 19 55  1  0
 20 56  1  0
 22 57  1  0
 24 58  1  0
 25 59  1  0
 26 60  1  0
 26 61  1  0
 27 62  1  0
 27 63  1  0
 29 64  1  0
 29 65  1  0
 30 66  1  0
 30 67  1  0
 31 68  1  0
 31 69  1  0
 32 70  1  0
 32 71  1  0
 32 72  1  0
 35 73  1  1
 36 74  1  0
 37 75  1  0
 38 76  1  0
 38 77  1  0
 39 78  1  0
 39 79  1  0
 40 80  1  0
 40 81  1  0
 41 82  1  0
 41 83  1  0
 42 84  1  0
 42 85  1  0
M  END
$$$$
