
     RDKit          3D

 34 34  0  0  0  0  0  0  0  0999 V2000
    6.0807    0.2011   -0.3986 C   0  0  0  0  0  0  0  0  0  0  0  0
    4.7640   -0.4760   -0.6008 C   0  0  0  0  0  0  0  0  0  0  0  0
    4.7359   -1.6552   -1.0458 O   0  0  0  0  0  0  0  0  0  0  0  0
    3.5490    0.2248   -0.2919 N   0  0  0  0  0  0  0  0  0  0  0  0
    2.2348   -0.3331   -0.4494 C   0  0  0  0  0  0  0  0  0  0  0  0
    2.0868   -1.5062   -0.8887 O   0  0  0  0  0  0  0  0  0  0  0  0
    1.0862    0.4544   -0.1024 N   0  0  0  0  0  0  0  0  0  0  0  0
   -0.2827   -0.0617   -0.1572 C   0  0  2  0  0  0  0  0  0  0  0  0
   -1.1478    1.0017   -0.5176 O   0  0  0  0  0  0  0  0  0  0  0  0
   -2.4713    0.5304   -0.7107 C   0  0  2  0  0  0  0  0  0  0  0  0
   -3.3281    1.6852   -1.2496 C   0  0  0  0  0  0  0  0  0  0  0  0
   -2.8383    2.1191   -2.4901 O   0  0  0  0  0  0  0  0  0  0  0  0
   -3.0468   -0.0011    0.6261 C   0  0  1  0  0  0  0  0  0  0  0  0
   -4.3599   -0.4793    0.4633 O   0  0  0  0  0  0  0  0  0  0  0  0
   -2.1343   -1.1068    1.1949 C   0  0  2  0  0  0  0  0  0  0  0  0
   -2.5399   -1.4401    2.4975 O   0  0  0  0  0  0  0  0  0  0  0  0
   -0.6748   -0.6230    1.2244 C   0  0  1  0  0  0  0  0  0  0  0  0
    0.1745   -1.6919    1.5550 O   0  0  0  0  0  0  0  0  0  0  0  0
    6.1780    0.5156    0.6615 H   0  0  0  0  0  0  0  0  0  0  0  0
    6.9176   -0.4854   -0.6482 H   0  0  0  0  0  0  0  0  0  0  0  0
    6.1416    1.0960   -1.0523 H   0  0  0  0  0  0  0  0  0  0  0  0
    3.6267    1.2014    0.0714 H   0  0  0  0  0  0  0  0  0  0  0  0
    1.2391    1.4019    0.3117 H   0  0  0  0  0  0  0  0  0  0  0  0
   -0.3355   -0.8702   -0.9241 H   0  0  0  0  0  0  0  0  0  0  0  0
   -2.4883   -0.2802   -1.4773 H   0  0  0  0  0  0  0  0  0  0  0  0
   -3.3472    2.5286   -0.5209 H   0  0  0  0  0  0  0  0  0  0  0  0
   -4.3738    1.3404   -1.3948 H   0  0  0  0  0  0  0  0  0  0  0  0
   -2.0815    2.7332   -2.3010 H   0  0  0  0  0  0  0  0  0  0  0  0
   -3.0747    0.8383    1.3565 H   0  0  0  0  0  0  0  0  0  0  0  0
   -4.3325   -1.2123   -0.2061 H   0  0  0  0  0  0  0  0  0  0  0  0
   -2.1884   -2.0081    0.5378 H   0  0  0  0  0  0  0  0  0  0  0  0
   -3.3287   -2.0364    2.4095 H   0  0  0  0  0  0  0  0  0  0  0  0
   -0.5714    0.1953    1.9772 H   0  0  0  0  0  0  0  0  0  0  0  0
    0.1311   -1.8002    2.5408 H   0  0  0  0  0  0  0  0  0  0  0  0
  1  2  1  0
  2  3  2  0
  2  4  1  0
  4  5  1  0
  5  6  2  0
  5  7  1  0
  7  8  1  0
  8  9  1  0
  9 10  1  0
 10 11  1  0
 11 12  1  0
 10 13  1  0
 13 14  1  0
 13 15  1  0
 15 16  1  0
 15 17  1  0
 17 18  1  0
 17  8  1  0
  1 19  1  0
  1 20  1  0
  1 21  1  0
  4 22  1  0
  7 23  1  0
  8 24  1  6
 10 25  1  6
 11 26  1  0
 11 27  1  0
 12 28  1  0
 13 29  1  1
 14 30  1  0
 15 31  1  6
 16 32  1  0
 17 33  1  1
 18 34  1  0
M  END
$$$$
