
     RDKit          3D

 45 49  0  0  0  0  0  0  0  0999 V2000
    4.5799    0.5670    0.9763 C   0  0  2  0  0  0  0  0  0  0  0  0
    3.6175   -0.5866    1.2177 C   0  0  0  0  0  0  0  0  0  0  0  0
    2.3137   -0.1398    0.7472 N   0  0  0  0  0  0  0  0  0  0  0  0
    2.3404    1.2214    0.2312 C   0  0  0  0  0  0  0  0  0  0  0  0
    3.7775    1.7028    0.3570 C   0  0  2  0  0  0  0  0  0  0  0  0
    4.8041    0.9527   -0.4780 C   0  0  1  0  0  0  0  0  0  0  0  0
    6.0304    1.7091   -0.6802 N   0  0  0  0  0  0  0  0  0  0  0  0
    1.1000   -0.9215    0.7719 C   0  0  0  0  0  0  0  0  0  0  0  0
   -0.0412   -0.3722    0.2738 N   0  0  0  0  0  0  0  0  0  0  0  0
   -1.2388   -1.0209    0.2579 C   0  0  0  0  0  0  0  0  0  0  0  0
   -1.3206   -2.3326    0.7659 C   0  0  0  0  0  0  0  0  0  0  0  0
   -0.1596   -2.9265    1.2873 C   0  0  0  0  0  0  0  0  0  0  0  0
    1.0501   -2.2293    1.2950 C   0  0  0  0  0  0  0  0  0  0  0  0
    2.1450   -2.8406    1.8098 F   0  0  0  0  0  0  0  0  0  0  0  0
   -2.5525   -3.0092    0.7320 C   0  0  0  0  0  0  0  0  0  0  0  0
   -2.6364   -4.1839    1.1864 O   0  0  0  0  0  0  0  0  0  0  0  0
   -3.6872   -2.3716    0.1874 C   0  0  0  0  0  0  0  0  0  0  0  0
   -3.5490   -1.0631   -0.3053 C   0  0  0  0  0  0  0  0  0  0  0  0
   -2.3504   -0.4096   -0.2592 N   0  0  0  0  0  0  0  0  0  0  0  0
   -2.2763    0.9327   -0.7776 C   0  0  0  0  0  0  0  0  0  0  0  0
   -1.9606    2.0114    0.0689 C   0  0  0  0  0  0  0  0  0  0  0  0
   -1.7461    1.8060    1.3928 F   0  0  0  0  0  0  0  0  0  0  0  0
   -1.8794    3.3087   -0.4478 C   0  0  0  0  0  0  0  0  0  0  0  0
   -2.1178    3.5396   -1.8058 C   0  0  0  0  0  0  0  0  0  0  0  0
   -2.0386    4.7983   -2.3033 F   0  0  0  0  0  0  0  0  0  0  0  0
   -2.4412    2.4735   -2.6500 C   0  0  0  0  0  0  0  0  0  0  0  0
   -2.5224    1.1749   -2.1390 C   0  0  0  0  0  0  0  0  0  0  0  0
   -5.0158   -3.0371    0.1202 C   0  0  0  0  0  0  0  0  0  0  0  0
   -6.1065   -2.3671   -0.4291 O   0  0  0  0  0  0  0  0  0  0  0  0
   -5.1761   -4.2093    0.5553 O   0  0  0  0  0  0  0  0  0  0  0  0
    5.3088    0.8960    1.7482 H   0  0  0  0  0  0  0  0  0  0  0  0
    3.5739   -0.8055    2.3056 H   0  0  0  0  0  0  0  0  0  0  0  0
    3.9510   -1.4821    0.6507 H   0  0  0  0  0  0  0  0  0  0  0  0
    2.0195    1.2401   -0.8327 H   0  0  0  0  0  0  0  0  0  0  0  0
    1.6732    1.8691    0.8390 H   0  0  0  0  0  0  0  0  0  0  0  0
    4.0283    2.7071    0.7615 H   0  0  0  0  0  0  0  0  0  0  0  0
    4.4485    0.2656   -1.2778 H   0  0  0  0  0  0  0  0  0  0  0  0
    5.9060    2.2686   -1.5540 H   0  0  0  0  0  0  0  0  0  0  0  0
    6.7901    1.0177   -0.8723 H   0  0  0  0  0  0  0  0  0  0  0  0
   -0.1832   -3.9323    1.6889 H   0  0  0  0  0  0  0  0  0  0  0  0
   -4.4122   -0.5559   -0.7221 H   0  0  0  0  0  0  0  0  0  0  0  0
   -1.6348    4.1360    0.2060 H   0  0  0  0  0  0  0  0  0  0  0  0
   -2.6274    2.6522   -3.7012 H   0  0  0  0  0  0  0  0  0  0  0  0
   -2.7670    0.3544   -2.8019 H   0  0  0  0  0  0  0  0  0  0  0  0
   -7.0168   -2.8086   -0.4810 H   0  0  0  0  0  0  0  0  0  0  0  0
  1  2  1  0
  2  3  1  0
  3  4  1  0
  4  5  1  0
  5  6  1  0
  6  7  1  0
  3  8  1  0
  8  9  2  0
  9 10  1  0
 10 11  2  0
 11 12  1  0
 12 13  2  0
 13 14  1  0
 11 15  1  0
 15 16  2  0
 15 17  1  0
 17 18  2  0
 18 19  1  0
 19 20  1  0
 20 21  2  0
 21 22  1  0
 21 23  1  0
 23 24  2  0
 24 25  1  0
 24 26  1  0
 26 27  2  0
 17 28  1  0
 28 29  1  0
 28 30  2  0
  5  1  1  0
 13  8  1  0
 27 20  1  0
  6  1  1  0
 19 10  1  0
  1 31  1  1
  2 32  1  0
  2 33  1  0
  4 34  1  0
  4 35  1  0
  5 36  1  1
  6 37  1  6
  7 38  1  0
  7 39  1  0
 12 40  1  0
 18 41  1  0
 23 42  1  0
 26 43  1  0
 27 44  1  0
 29 45  1  0
M  END
$$$$
