
     RDKit          3D

 14 13  0  0  0  0  0  0  0  0999 V2000
   -1.8154    0.5017    0.3885 N   0  0  0  0  0  0  0  0  0  0  0  0
   -0.4230    0.0543    0.3482 C   0  0  1  0  0  0  0  0  0  0  0  0
   -0.2465   -0.9880   -0.7278 C   0  0  0  0  0  0  0  0  0  0  0  0
    0.8652   -1.7256   -0.8105 C   0  0  0  0  0  0  0  0  0  0  0  0
    0.4791    1.2239    0.0766 C   0  0  0  0  0  0  0  0  0  0  0  0
    1.5742    1.4590    0.9021 O   0  0  0  0  0  0  0  0  0  0  0  0
    0.2600    1.9810   -0.9076 O   0  0  0  0  0  0  0  0  0  0  0  0
   -2.4162   -0.3178    0.6386 H   0  0  0  0  0  0  0  0  0  0  0  0
   -1.9184    1.1842    1.1752 H   0  0  0  0  0  0  0  0  0  0  0  0
   -0.1595   -0.3935    1.3339 H   0  0  0  0  0  0  0  0  0  0  0  0
   -1.0411   -1.1547   -1.4501 H   0  0  0  0  0  0  0  0  0  0  0  0
    1.6784   -1.5907   -0.1036 H   0  0  0  0  0  0  0  0  0  0  0  0
    0.9653   -2.4718   -1.5919 H   0  0  0  0  0  0  0  0  0  0  0  0
    2.1979    2.2380    0.7284 H   0  0  0  0  0  0  0  0  0  0  0  0
  1  2  1  0
  2  3  1  0
  3  4  2  3
  2  5  1  0
  5  6  1  0
  5  7  2  0
  1  8  1  0
  1  9  1  0
  2 10  1  1
  3 11  1  0
  4 12  1  0
  4 13  1  0
  6 14  1  0
M  END
$$$$
