
     RDKit          3D

 50 53  0  0  0  0  0  0  0  0999 V2000
    8.0168   -1.3539    0.2091 C   0  0  0  0  0  0  0  0  0  0  0  0
    6.8351   -0.5464   -0.0645 N   0  0  0  0  0  0  0  0  0  0  0  0
    5.5882   -1.1387   -0.4478 C   0  0  0  0  0  0  0  0  0  0  0  0
    5.4873   -2.3901   -0.5656 O   0  0  0  0  0  0  0  0  0  0  0  0
    4.3912   -0.2713   -0.6977 C   0  0  0  0  0  0  0  0  0  0  0  0
    3.9826    0.4144    0.5473 N   0  0  0  0  0  0  0  0  0  0  0  0
    3.3343   -0.4837    1.5314 C   0  0  0  0  0  0  0  0  0  0  0  0
    1.8931   -0.8594    1.1448 C   0  0  0  0  0  0  0  0  0  0  0  0
    1.0478    0.3953    0.8791 C   0  0  0  0  0  0  0  0  0  0  0  0
    1.7430    1.2842   -0.1611 C   0  0  0  0  0  0  0  0  0  0  0  0
    3.1710    1.6231    0.2908 C   0  0  0  0  0  0  0  0  0  0  0  0
   -0.2905    0.0205    0.4100 N   0  0  0  0  0  0  0  0  0  0  0  0
   -1.3988    0.9295    0.4301 C   0  0  0  0  0  0  0  0  0  0  0  0
   -2.6044    0.5299   -0.0547 N   0  0  0  0  0  0  0  0  0  0  0  0
   -3.6859    1.3542   -0.0486 C   0  0  0  0  0  0  0  0  0  0  0  0
   -3.5473    2.6526    0.4625 C   0  0  0  0  0  0  0  0  0  0  0  0
   -2.3060    3.0484    0.9581 C   0  0  0  0  0  0  0  0  0  0  0  0
   -1.2593    2.1850    0.9348 N   0  0  0  0  0  0  0  0  0  0  0  0
   -4.9779    0.8884   -0.6062 C   0  0  0  0  0  0  0  0  0  0  0  0
   -5.9830    1.6946   -1.1250 C   0  0  0  0  0  0  0  0  0  0  0  0
   -7.0016    0.9309   -1.5823 N   0  0  0  0  0  0  0  0  0  0  0  0
   -6.5935   -0.3277   -1.3269 C   0  0  0  0  0  0  0  0  0  0  0  0
   -7.3187   -1.4833   -1.6113 C   0  0  0  0  0  0  0  0  0  0  0  0
   -6.7503   -2.7158   -1.2582 C   0  0  0  0  0  0  0  0  0  0  0  0
   -5.4923   -2.7622   -0.6313 C   0  0  0  0  0  0  0  0  0  0  0  0
   -4.8056   -1.5683   -0.3674 C   0  0  0  0  0  0  0  0  0  0  0  0
   -5.3828   -0.3918   -0.7405 N   0  0  0  0  0  0  0  0  0  0  0  0
    8.8661   -0.6964    0.4906 H   0  0  0  0  0  0  0  0  0  0  0  0
    8.2953   -1.9327   -0.6966 H   0  0  0  0  0  0  0  0  0  0  0  0
    7.8097   -2.0519    1.0475 H   0  0  0  0  0  0  0  0  0  0  0  0
    6.9011    0.4926    0.0273 H   0  0  0  0  0  0  0  0  0  0  0  0
    4.6854    0.4710   -1.4714 H   0  0  0  0  0  0  0  0  0  0  0  0
    3.5625   -0.8731   -1.1262 H   0  0  0  0  0  0  0  0  0  0  0  0
    3.9307   -1.4116    1.6659 H   0  0  0  0  0  0  0  0  0  0  0  0
    3.3202    0.0218    2.5220 H   0  0  0  0  0  0  0  0  0  0  0  0
    1.8975   -1.5194    0.2517 H   0  0  0  0  0  0  0  0  0  0  0  0
    1.4367   -1.4364    1.9783 H   0  0  0  0  0  0  0  0  0  0  0  0
    0.9531    0.9545    1.8375 H   0  0  0  0  0  0  0  0  0  0  0  0
    1.1757    2.2308   -0.2875 H   0  0  0  0  0  0  0  0  0  0  0  0
    1.7677    0.7718   -1.1472 H   0  0  0  0  0  0  0  0  0  0  0  0
    3.1234    2.2311    1.2210 H   0  0  0  0  0  0  0  0  0  0  0  0
    3.6597    2.2658   -0.4737 H   0  0  0  0  0  0  0  0  0  0  0  0
   -0.4650   -0.9530    0.0700 H   0  0  0  0  0  0  0  0  0  0  0  0
   -4.3804    3.3425    0.4930 H   0  0  0  0  0  0  0  0  0  0  0  0
   -2.1745    4.0426    1.3636 H   0  0  0  0  0  0  0  0  0  0  0  0
   -5.9706    2.7743   -1.1890 H   0  0  0  0  0  0  0  0  0  0  0  0
   -8.2907   -1.4333   -2.0850 H   0  0  0  0  0  0  0  0  0  0  0  0
   -7.2853   -3.6341   -1.4621 H   0  0  0  0  0  0  0  0  0  0  0  0
   -5.0598   -3.7131   -0.3483 H   0  0  0  0  0  0  0  0  0  0  0  0
   -3.8509   -1.6022    0.1360 H   0  0  0  0  0  0  0  0  0  0  0  0
  1  2  1  0
  2  3  1  0
  3  4  2  0
  3  5  1  0
  5  6  1  0
  6  7  1  0
  7  8  1  0
  8  9  1  0
  9 10  1  0
 10 11  1  0
  9 12  1  0
 12 13  1  0
 13 14  2  0
 14 15  1  0
 15 16  2  0
 16 17  1  0
 17 18  2  0
 15 19  1  0
 19 20  2  0
 20 21  1  0
 21 22  2  0
 22 23  1  0
 23 24  2  0
 24 25  1  0
 25 26  2  0
 26 27  1  0
 11  6  1  0
 18 13  1  0
 27 19  1  0
 27 22  1  0
  1 28  1  0
  1 29  1  0
  1 30  1  0
  2 31  1  0
  5 32  1  0
  5 33  1  0
  7 34  1  0
  7 35  1  0
  8 36  1  0
  8 37  1  0
  9 38  1  0
 10 39  1  0
 10 40  1  0
 11 41  1  0
 11 42  1  0
 12 43  1  0
 16 44  1  0
 17 45  1  0
 20 46  1  0
 23 47  1  0
 24 48  1  0
 25 49  1  0
 26 50  1  0
M  END
$$$$
