
     RDKit          3D

 20 20  0  0  0  0  0  0  0  0999 V2000
    4.4062    1.5965   -0.4266 O   0  0  0  0  0  0  0  0  0  0  0  0
    3.6083    0.4585   -0.4821 C   0  0  0  0  0  0  0  0  0  0  0  0
    4.1378   -0.6657   -0.6972 O   0  0  0  0  0  0  0  0  0  0  0  0
    2.1544    0.5891   -0.2897 C   0  0  0  0  0  0  0  0  0  0  0  0
    1.3319   -0.4696   -0.3081 C   0  0  0  0  0  0  0  0  0  0  0  0
   -0.1355   -0.3778   -0.1066 C   0  0  0  0  0  0  0  0  0  0  0  0
   -0.8348   -1.5338    0.2802 C   0  0  0  0  0  0  0  0  0  0  0  0
   -2.2190   -1.4974    0.4728 C   0  0  0  0  0  0  0  0  0  0  0  0
   -2.9264   -0.3095    0.2714 C   0  0  0  0  0  0  0  0  0  0  0  0
   -4.3054   -0.2877    0.4675 O   0  0  0  0  0  0  0  0  0  0  0  0
   -2.2432    0.8453   -0.1291 C   0  0  0  0  0  0  0  0  0  0  0  0
   -0.8585    0.8136   -0.3221 C   0  0  0  0  0  0  0  0  0  0  0  0
    5.4090    1.5351   -0.5561 H   0  0  0  0  0  0  0  0  0  0  0  0
    1.7719    1.5828   -0.1042 H   0  0  0  0  0  0  0  0  0  0  0  0
    1.7550   -1.4596   -0.4358 H   0  0  0  0  0  0  0  0  0  0  0  0
   -0.3071   -2.4660    0.4421 H   0  0  0  0  0  0  0  0  0  0  0  0
   -2.7426   -2.3945    0.7781 H   0  0  0  0  0  0  0  0  0  0  0  0
   -4.8467    0.5577    0.3285 H   0  0  0  0  0  0  0  0  0  0  0  0
   -2.7854    1.7670   -0.2985 H   0  0  0  0  0  0  0  0  0  0  0  0
   -0.3699    1.7159   -0.6616 H   0  0  0  0  0  0  0  0  0  0  0  0
  1  2  1  0
  2  3  2  0
  2  4  1  0
  4  5  2  0
  5  6  1  0
  6  7  2  0
  7  8  1  0
  8  9  2  0
  9 10  1  0
  9 11  1  0
 11 12  2  0
 12  6  1  0
  1 13  1  0
  4 14  1  0
  5 15  1  0
  7 16  1  0
  8 17  1  0
 10 18  1  0
 11 19  1  0
 12 20  1  0
M  END
$$$$
