
     RDKit          3D

 36 35  0  0  0  0  0  0  0  0999 V2000
   -0.7389   -0.0818    1.4472 C   0  0  0  0  0  0  0  0  0  0  0  0
   -0.5781   -0.1689   -0.0244 N   0  0  0  0  0  4  0  0  0  0  0  0
   -1.3378   -1.3485   -0.5063 C   0  0  0  0  0  0  0  0  0  0  0  0
   -1.1489    1.0432   -0.6602 C   0  0  0  0  0  0  0  0  0  0  0  0
    0.8557   -0.3587   -0.4040 C   0  0  0  0  0  0  0  0  0  0  0  0
    1.8066    0.7824    0.0179 C   0  0  0  0  0  0  0  0  0  0  0  0
    3.1098    0.4994   -0.4148 O   0  0  0  0  0  0  0  0  0  0  0  0
    1.1771    1.9935   -0.3793 O   0  0  0  0  0  0  0  0  0  0  0  0
    0.3018    0.9295   -0.1623 C   0  0  0  0  0  0  0  0  0  0  0  0
   -1.0795    1.1746   -0.1192 C   0  0  0  0  0  0  0  0  0  0  0  0
   -1.9774    0.1286    0.0963 C   0  0  0  0  0  0  0  0  0  0  0  0
   -1.5045   -1.1713    0.2707 C   0  0  0  0  0  0  0  0  0  0  0  0
   -0.1323   -1.4297    0.2302 C   0  0  0  0  0  0  0  0  0  0  0  0
    0.7906   -0.3867    0.0137 C   0  0  0  0  0  0  0  0  0  0  0  0
    2.2444   -0.6919   -0.0244 C   0  0  0  0  0  0  0  0  0  0  0  0
    3.1832    0.3108   -0.2356 O   0  0  0  0  0  1  0  0  0  0  0  0
    2.6507   -1.8739    0.1356 O   0  0  0  0  0  0  0  0  0  0  0  0
   -1.8147   -0.0957    1.7335 H   0  0  0  0  0  0  0  0  0  0  0  0
   -0.2374   -0.9356    1.9553 H   0  0  0  0  0  0  0  0  0  0  0  0
   -0.3170    0.8634    1.8506 H   0  0  0  0  0  0  0  0  0  0  0  0
   -1.2590   -1.4514   -1.6122 H   0  0  0  0  0  0  0  0  0  0  0  0
   -2.4190   -1.2671   -0.2526 H   0  0  0  0  0  0  0  0  0  0  0  0
   -0.9544   -2.2873   -0.0464 H   0  0  0  0  0  0  0  0  0  0  0  0
   -0.9580    1.0468   -1.7566 H   0  0  0  0  0  0  0  0  0  0  0  0
   -0.7229    1.9730   -0.2265 H   0  0  0  0  0  0  0  0  0  0  0  0
   -2.2498    1.0964   -0.5031 H   0  0  0  0  0  0  0  0  0  0  0  0
    0.9432   -0.4760   -1.5088 H   0  0  0  0  0  0  0  0  0  0  0  0
    1.2430   -1.3031    0.0434 H   0  0  0  0  0  0  0  0  0  0  0  0
    1.8064    0.9225    1.1206 H   0  0  0  0  0  0  0  0  0  0  0  0
    1.4988    1.7364   -0.4544 H   0  0  0  0  0  0  0  0  0  0  0  0
    3.4725   -0.1893    0.2018 H   0  0  0  0  0  0  0  0  0  0  0  0
    0.8424    2.9415   -0.5071 H   0  0  0  0  0  0  0  0  0  0  0  0
   -1.4586    2.1798   -0.2533 H   0  0  0  0  0  0  0  0  0  0  0  0
   -3.0411    0.3261    0.1281 H   0  0  0  0  0  0  0  0  0  0  0  0
   -2.2024   -1.9816    0.4378 H   0  0  0  0  0  0  0  0  0  0  0  0
    0.2054   -2.4492    0.3689 H   0  0  0  0  0  0  0  0  0  0  0  0
  1  2  1  0
  2  3  1  0
  2  4  1  0
  2  5  1  0
  5  6  1  0
  6  7  1  0
  8  9  1  0
  9 10  2  0
 10 11  1  0
 11 12  2  0
 12 13  1  0
 13 14  2  0
 14 15  1  0
 15 16  1  0
 15 17  2  0
 14  9  1  0
  1 18  1  0
  1 19  1  0
  1 20  1  0
  3 21  1  0
  3 22  1  0
  3 23  1  0
  4 24  1  0
  4 25  1  0
  4 26  1  0
  5 27  1  0
  5 28  1  0
  6 29  1  0
  6 30  1  0
  7 31  1  0
  8 32  1  0
 10 33  1  0
 11 34  1  0
 12 35  1  0
 13 36  1  0
M  CHG  2   2   1  16  -1
M  END
$$$$
