
     RDKit          3D

 52 55  0  0  0  0  0  0  0  0999 V2000
   -2.3253    0.1518   -0.9399 C   0  0  2  0  0  0  0  0  0  0  0  0
   -2.5024   -1.1741   -1.6873 C   0  0  0  0  0  0  0  0  0  0  0  0
   -0.9885    0.7199   -1.1702 N   0  0  0  0  0  0  0  0  0  0  0  0
   -0.7689    2.0591   -1.6867 C   0  0  0  0  0  0  0  0  0  0  0  0
    0.7524    2.2798   -1.6489 C   0  0  0  0  0  0  0  0  0  0  0  0
    1.4061    0.8891   -1.5034 C   0  0  2  0  0  0  0  0  0  0  0  0
    1.9044    0.4235   -2.8087 N   0  0  0  0  0  0  0  0  0  0  0  0
    2.8027   -1.0653   -2.6822 S   0  0  0  0  0  6  0  0  0  0  0  0
    3.6539   -1.2300   -3.9096 O   0  0  0  0  0  0  0  0  0  0  0  0
    1.8494   -2.2250   -2.6124 O   0  0  0  0  0  0  0  0  0  0  0  0
    3.8525   -1.0757   -1.2746 C   0  0  0  0  0  0  0  0  0  0  0  0
    3.6595   -1.8412   -0.1269 C   0  0  0  0  0  0  0  0  0  0  0  0
    4.6450   -1.6012    0.8353 C   0  0  0  0  0  0  0  0  0  0  0  0
    5.5883   -0.6623    0.4418 C   0  0  0  0  0  0  0  0  0  0  0  0
    5.2261   -0.1061   -1.1011 S   0  0  0  0  0  0  0  0  0  0  0  0
    6.6458   -0.2875    1.2666 C   0  0  0  0  0  0  0  0  0  0  0  0
    6.7460   -0.8886    2.5323 C   0  0  0  0  0  0  0  0  0  0  0  0
    8.0608   -0.4483    3.6061 Cl  0  0  0  0  0  0  0  0  0  0  0  0
    5.7931   -1.8434    2.9425 C   0  0  0  0  0  0  0  0  0  0  0  0
    4.7342   -2.2045    2.0921 C   0  0  0  0  0  0  0  0  0  0  0  0
    0.2632    0.0628   -1.0369 C   0  0  0  0  0  0  0  0  0  0  0  0
    0.3917   -1.0782   -0.5196 O   0  0  0  0  0  0  0  0  0  0  0  0
   -2.5892   -0.0145    0.5421 C   0  0  0  0  0  0  0  0  0  0  0  0
   -1.7117   -0.5727    1.2554 O   0  0  0  0  0  0  0  0  0  0  0  0
   -3.8183    0.4318    1.1586 N   0  0  0  0  0  0  0  0  0  0  0  0
   -5.0171    0.7173    0.3589 C   0  0  0  0  0  0  0  0  0  0  0  0
   -6.2795    0.5387    1.2082 C   0  0  0  0  0  0  0  0  0  0  0  0
   -6.1809    1.2643    2.4173 O   0  0  0  0  0  0  0  0  0  0  0  0
   -5.1478    0.7176    3.2122 C   0  0  0  0  0  0  0  0  0  0  0  0
   -3.7847    0.9180    2.5443 C   0  0  0  0  0  0  0  0  0  0  0  0
   -3.0650    0.8632   -1.3633 H   0  0  0  0  0  0  0  0  0  0  0  0
   -3.5609   -1.5048   -1.6330 H   0  0  0  0  0  0  0  0  0  0  0  0
   -2.2320   -1.0435   -2.7567 H   0  0  0  0  0  0  0  0  0  0  0  0
   -1.8684   -1.9732   -1.2506 H   0  0  0  0  0  0  0  0  0  0  0  0
   -1.1407    2.1178   -2.7326 H   0  0  0  0  0  0  0  0  0  0  0  0
   -1.2942    2.8086   -1.0559 H   0  0  0  0  0  0  0  0  0  0  0  0
    1.0954    2.8253   -2.5550 H   0  0  0  0  0  0  0  0  0  0  0  0
    1.0065    2.8960   -0.7581 H   0  0  0  0  0  0  0  0  0  0  0  0
    2.2152    0.9306   -0.7422 H   0  0  0  0  0  0  0  0  0  0  0  0
    2.5881    1.1324   -3.1616 H   0  0  0  0  0  0  0  0  0  0  0  0
    2.8397   -2.5349    0.0067 H   0  0  0  0  0  0  0  0  0  0  0  0
    7.3693    0.4482    0.9391 H   0  0  0  0  0  0  0  0  0  0  0  0
    5.8735   -2.3038    3.9189 H   0  0  0  0  0  0  0  0  0  0  0  0
    4.0029   -2.9371    2.4095 H   0  0  0  0  0  0  0  0  0  0  0  0
   -5.0864    0.0240   -0.5056 H   0  0  0  0  0  0  0  0  0  0  0  0
   -4.9673    1.7623   -0.0165 H   0  0  0  0  0  0  0  0  0  0  0  0
   -7.1500    0.9231    0.6359 H   0  0  0  0  0  0  0  0  0  0  0  0
   -6.4700   -0.5423    1.4007 H   0  0  0  0  0  0  0  0  0  0  0  0
   -5.3255   -0.3627    3.4197 H   0  0  0  0  0  0  0  0  0  0  0  0
   -5.1435    1.2390    4.1926 H   0  0  0  0  0  0  0  0  0  0  0  0
   -3.0191    0.3770    3.1410 H   0  0  0  0  0  0  0  0  0  0  0  0
   -3.5283    1.9995    2.5427 H   0  0  0  0  0  0  0  0  0  0  0  0
  1  2  1  0
  1  3  1  0
  3  4  1  0
  4  5  1  0
  5  6  1  0
  6  7  1  0
  7  8  1  0
  8  9  2  0
  8 10  2  0
  8 11  1  0
 11 12  2  0
 12 13  1  0
 13 14  2  0
 14 15  1  0
 14 16  1  0
 16 17  2  0
 17 18  1  0
 17 19  1  0
 19 20  2  0
  6 21  1  0
 21 22  2  0
  1 23  1  0
 23 24  2  0
 23 25  1  0
 25 26  1  0
 26 27  1  0
 27 28  1  0
 28 29  1  0
 29 30  1  0
 21  3  1  0
 30 25  1  0
 15 11  1  0
 20 13  1  0
  1 31  1  6
  2 32  1  0
  2 33  1  0
  2 34  1  0
  4 35  1  0
  4 36  1  0
  5 37  1  0
  5 38  1  0
  6 39  1  1
  7 40  1  0
 12 41  1  0
 16 42  1  0
 19 43  1  0
 20 44  1  0
 26 45  1  0
 26 46  1  0
 27 47  1  0
 27 48  1  0
 29 49  1  0
 29 50  1  0
 30 51  1  0
 30 52  1  0
M  END
$$$$
