
     RDKit          3D

 29 31  0  0  0  0  0  0  0  0999 V2000
   -4.0751   -2.3989   -0.6138 N   0  0  0  0  0  0  0  0  0  0  0  0
   -3.4623   -1.1123   -0.5793 C   0  0  0  0  0  0  0  0  0  0  0  0
   -2.1119   -1.0043   -0.4947 N   0  0  0  0  0  0  0  0  0  0  0  0
   -1.5186    0.2190   -0.4672 C   0  0  0  0  0  0  0  0  0  0  0  0
   -2.2937    1.3345   -0.5040 N   0  0  0  0  0  0  0  0  0  0  0  0
   -3.6444    1.2319   -0.5896 C   0  0  0  0  0  0  0  0  0  0  0  0
   -4.4482    2.4082   -0.6367 N   0  0  0  0  0  0  0  0  0  0  0  0
   -4.2277    0.0072   -0.6281 N   0  0  0  0  0  0  0  0  0  0  0  0
   -0.0454    0.3243   -0.3420 C   0  0  0  0  0  0  0  0  0  0  0  0
    0.6357   -0.6378    0.4268 C   0  0  0  0  0  0  0  0  0  0  0  0
    2.0254   -0.5711    0.5954 C   0  0  0  0  0  0  0  0  0  0  0  0
    2.6990   -1.5280    1.3716 C   0  0  0  0  0  0  0  0  0  0  0  0
    4.0852   -1.4505    1.5340 C   0  0  0  0  0  0  0  0  0  0  0  0
    4.8077   -0.4212    0.9251 C   0  0  0  0  0  0  0  0  0  0  0  0
    4.1484    0.5371    0.1501 C   0  0  0  0  0  0  0  0  0  0  0  0
    2.7562    0.4703   -0.0193 C   0  0  0  0  0  0  0  0  0  0  0  0
    2.0851    1.4218   -0.7969 C   0  0  0  0  0  0  0  0  0  0  0  0
    0.6969    1.3561   -0.9664 C   0  0  0  0  0  0  0  0  0  0  0  0
   -0.0982    2.6574   -2.1346 Br  0  0  0  0  0  0  0  0  0  0  0  0
   -5.1134   -2.4885   -0.6778 H   0  0  0  0  0  0  0  0  0  0  0  0
   -3.4911   -3.2636   -0.5752 H   0  0  0  0  0  0  0  0  0  0  0  0
   -5.4878    2.3360   -0.7014 H   0  0  0  0  0  0  0  0  0  0  0  0
   -4.0043    3.3529   -0.6082 H   0  0  0  0  0  0  0  0  0  0  0  0
    0.0791   -1.4325    0.9113 H   0  0  0  0  0  0  0  0  0  0  0  0
    2.1553   -2.3332    1.8512 H   0  0  0  0  0  0  0  0  0  0  0  0
    4.6006   -2.1901    2.1331 H   0  0  0  0  0  0  0  0  0  0  0  0
    5.8809   -0.3662    1.0537 H   0  0  0  0  0  0  0  0  0  0  0  0
    4.7247    1.3279   -0.3153 H   0  0  0  0  0  0  0  0  0  0  0  0
    2.6419    2.2134   -1.2847 H   0  0  0  0  0  0  0  0  0  0  0  0
  1  2  1  0
  2  3  2  0
  3  4  1  0
  4  5  2  0
  5  6  1  0
  6  7  1  0
  6  8  2  0
  4  9  1  0
  9 10  2  0
 10 11  1  0
 11 12  2  0
 12 13  1  0
 13 14  2  0
 14 15  1  0
 15 16  2  0
 16 17  1  0
 17 18  2  0
 18 19  1  0
  8  2  1  0
 18  9  1  0
 16 11  1  0
  1 20  1  0
  1 21  1  0
  7 22  1  0
  7 23  1  0
 10 24  1  0
 12 25  1  0
 13 26  1  0
 14 27  1  0
 15 28  1  0
 17 29  1  0
M  END
$$$$
