
     RDKit          3D

 40 41  0  0  0  0  0  0  0  0999 V2000
    0.1086    2.6689   -0.9784 C   0  0  0  0  0  0  0  0  0  0  0  0
   -0.1850    1.9295    0.3235 C   0  0  0  0  0  0  0  0  0  0  0  0
   -0.4897    0.4684    0.0619 C   0  0  0  0  0  0  0  0  0  0  0  0
    0.4897   -0.4684   -0.0618 C   0  0  0  0  0  0  0  0  0  0  0  0
    0.1850   -1.9295   -0.3235 C   0  0  0  0  0  0  0  0  0  0  0  0
   -0.1086   -2.6689    0.9785 C   0  0  0  0  0  0  0  0  0  0  0  0
    1.9125   -0.1230    0.1449 C   0  0  0  0  0  0  0  0  0  0  0  0
    2.7713    0.0017   -0.9566 C   0  0  0  0  0  0  0  0  0  0  0  0
    4.1222    0.3059   -0.7634 C   0  0  0  0  0  0  0  0  0  0  0  0
    4.6269    0.4756    0.5336 C   0  0  0  0  0  0  0  0  0  0  0  0
    5.9707    0.7795    0.7386 O   0  0  0  0  0  0  0  0  0  0  0  0
    3.7743    0.3363    1.6342 C   0  0  0  0  0  0  0  0  0  0  0  0
    2.4232    0.0326    1.4428 C   0  0  0  0  0  0  0  0  0  0  0  0
   -1.9125    0.1230   -0.1449 C   0  0  0  0  0  0  0  0  0  0  0  0
   -2.7713   -0.0017    0.9566 C   0  0  0  0  0  0  0  0  0  0  0  0
   -4.1222   -0.3059    0.7634 C   0  0  0  0  0  0  0  0  0  0  0  0
   -4.6268   -0.4756   -0.5336 C   0  0  0  0  0  0  0  0  0  0  0  0
   -5.9707   -0.7796   -0.7387 O   0  0  0  0  0  0  0  0  0  0  0  0
   -3.7743   -0.3363   -1.6342 C   0  0  0  0  0  0  0  0  0  0  0  0
   -2.4232   -0.0325   -1.4428 C   0  0  0  0  0  0  0  0  0  0  0  0
   -0.7654    2.6084   -1.6614 H   0  0  0  0  0  0  0  0  0  0  0  0
    0.3144    3.7379   -0.7600 H   0  0  0  0  0  0  0  0  0  0  0  0
    0.9964    2.2342   -1.4827 H   0  0  0  0  0  0  0  0  0  0  0  0
    0.6680    2.0512    1.0218 H   0  0  0  0  0  0  0  0  0  0  0  0
   -1.0577    2.4128    0.8145 H   0  0  0  0  0  0  0  0  0  0  0  0
   -0.6680   -2.0512   -1.0218 H   0  0  0  0  0  0  0  0  0  0  0  0
    1.0577   -2.4127   -0.8145 H   0  0  0  0  0  0  0  0  0  0  0  0
    0.7654   -2.6084    1.6614 H   0  0  0  0  0  0  0  0  0  0  0  0
   -0.9964   -2.2342    1.4828 H   0  0  0  0  0  0  0  0  0  0  0  0
   -0.3144   -3.7378    0.7601 H   0  0  0  0  0  0  0  0  0  0  0  0
    2.3925   -0.1309   -1.9627 H   0  0  0  0  0  0  0  0  0  0  0  0
    4.7754    0.4073   -1.6206 H   0  0  0  0  0  0  0  0  0  0  0  0
    6.6136    0.8862   -0.0374 H   0  0  0  0  0  0  0  0  0  0  0  0
    4.1598    0.4613    2.6380 H   0  0  0  0  0  0  0  0  0  0  0  0
    1.7738   -0.0785    2.3026 H   0  0  0  0  0  0  0  0  0  0  0  0
   -2.3926    0.1309    1.9627 H   0  0  0  0  0  0  0  0  0  0  0  0
   -4.7755   -0.4073    1.6206 H   0  0  0  0  0  0  0  0  0  0  0  0
   -6.6136   -0.8863    0.0373 H   0  0  0  0  0  0  0  0  0  0  0  0
   -4.1598   -0.4613   -2.6380 H   0  0  0  0  0  0  0  0  0  0  0  0
   -1.7738    0.0785   -2.3026 H   0  0  0  0  0  0  0  0  0  0  0  0
  1  2  1  0
  2  3  1  0
  3  4  2  0
  4  5  1  0
  5  6  1  0
  4  7  1  0
  7  8  2  0
  8  9  1  0
  9 10  2  0
 10 11  1  0
 10 12  1  0
 12 13  2  0
  3 14  1  0
 14 15  2  0
 15 16  1  0
 16 17  2  0
 17 18  1  0
 17 19  1  0
 19 20  2  0
 13  7  1  0
 20 14  1  0
  1 21  1  0
  1 22  1  0
  1 23  1  0
  2 24  1  0
  2 25  1  0
  5 26  1  0
  5 27  1  0
  6 28  1  0
  6 29  1  0
  6 30  1  0
  8 31  1  0
  9 32  1  0
 11 33  1  0
 12 34  1  0
 13 35  1  0
 15 36  1  0
 16 37  1  0
 18 38  1  0
 19 39  1  0
 20 40  1  0
M  END
$$$$
