
     RDKit          3D

 53 57  0  0  0  0  0  0  0  0999 V2000
    8.3891   -0.8041    0.2774 C   0  0  0  0  0  0  0  0  0  0  0  0
    7.2987    0.1113    0.3056 O   0  0  0  0  0  0  0  0  0  0  0  0
    5.9497   -0.2605    0.4223 C   0  0  0  0  0  0  0  0  0  0  0  0
    4.9793    0.7538    0.4363 C   0  0  0  0  0  0  0  0  0  0  0  0
    5.4105    2.0862    0.3322 O   0  0  0  0  0  0  0  0  0  0  0  0
    4.5464    3.2181    0.3311 C   0  0  0  0  0  0  0  0  0  0  0  0
    3.6161    0.4169    0.5519 C   0  0  0  0  0  0  0  0  0  0  0  0
    3.2193   -0.9266    0.6543 C   0  0  0  0  0  0  0  0  0  0  0  0
    1.8628   -1.2906    0.7616 C   0  0  0  0  0  0  0  0  0  0  0  0
    0.8737   -0.2936    0.7976 O   0  0  0  0  0  0  0  0  0  0  0  0
   -0.4289   -0.4208    0.2930 C   0  0  0  0  0  0  0  0  0  0  0  0
   -0.7200   -1.2327   -0.8148 C   0  0  0  0  0  0  0  0  0  0  0  0
   -2.0323   -1.3269   -1.3036 C   0  0  0  0  0  0  0  0  0  0  0  0
   -2.3166   -2.1782   -2.3805 C   0  0  0  0  0  0  0  0  0  0  0  0
   -3.6206   -2.2985   -2.8557 C   0  0  0  0  0  0  0  0  0  0  0  0
   -4.6503   -1.5554   -2.2800 C   0  0  0  0  0  0  0  0  0  0  0  0
   -4.3927   -0.6701   -1.2208 C   0  0  0  0  0  0  0  0  0  0  0  0
   -5.5189    0.1394   -0.7070 C   0  0  0  0  0  0  0  0  0  0  0  0
   -6.6071   -0.4275   -0.4152 O   0  0  0  0  0  0  0  0  0  0  0  0
   -5.4005    1.5638   -0.5964 N   0  0  0  0  0  0  0  0  0  0  0  0
   -6.4791    2.3805   -0.0496 C   0  0  0  0  0  0  0  0  0  0  0  0
   -5.9978    3.5336    0.8138 C   0  0  0  0  0  0  0  0  0  0  0  0
   -6.5900    2.2928    1.4631 C   0  0  0  0  0  0  0  0  0  0  0  0
   -3.0732   -0.5695   -0.7024 C   0  0  0  0  0  0  0  0  0  0  0  0
   -2.7623    0.2353    0.4136 C   0  0  0  0  0  0  0  0  0  0  0  0
   -1.4527    0.3156    0.8913 C   0  0  0  0  0  0  0  0  0  0  0  0
    1.5277   -2.6501    0.8794 C   0  0  0  0  0  0  0  0  0  0  0  0
    2.5334   -3.6167    0.8587 C   0  0  0  0  0  0  0  0  0  0  0  0
    3.8342   -3.2465    0.7390 N   0  0  0  0  0  0  0  0  0  0  0  0
    4.2014   -1.9411    0.6392 C   0  0  0  0  0  0  0  0  0  0  0  0
    5.5533   -1.6074    0.5240 C   0  0  0  0  0  0  0  0  0  0  0  0
    9.3366   -0.2360    0.1786 H   0  0  0  0  0  0  0  0  0  0  0  0
    8.4219   -1.3883    1.2213 H   0  0  0  0  0  0  0  0  0  0  0  0
    8.2920   -1.4871   -0.5928 H   0  0  0  0  0  0  0  0  0  0  0  0
    3.8484    3.1650   -0.5310 H   0  0  0  0  0  0  0  0  0  0  0  0
    3.9769    3.2649    1.2833 H   0  0  0  0  0  0  0  0  0  0  0  0
    5.1567    4.1395    0.2371 H   0  0  0  0  0  0  0  0  0  0  0  0
    2.8669    1.1969    0.5603 H   0  0  0  0  0  0  0  0  0  0  0  0
    0.0764   -1.7818   -1.3023 H   0  0  0  0  0  0  0  0  0  0  0  0
   -1.5315   -2.7621   -2.8463 H   0  0  0  0  0  0  0  0  0  0  0  0
   -3.8339   -2.9655   -3.6811 H   0  0  0  0  0  0  0  0  0  0  0  0
   -5.6519   -1.6517   -2.6819 H   0  0  0  0  0  0  0  0  0  0  0  0
   -4.5654    2.0407   -1.0058 H   0  0  0  0  0  0  0  0  0  0  0  0
   -7.4235    2.4936   -0.6229 H   0  0  0  0  0  0  0  0  0  0  0  0
   -6.6743    4.4139    0.8203 H   0  0  0  0  0  0  0  0  0  0  0  0
   -4.8964    3.6220    0.9322 H   0  0  0  0  0  0  0  0  0  0  0  0
   -7.6184    2.4359    1.8567 H   0  0  0  0  0  0  0  0  0  0  0  0
   -5.8407    1.6435    1.9649 H   0  0  0  0  0  0  0  0  0  0  0  0
   -3.5236    0.7931    0.9397 H   0  0  0  0  0  0  0  0  0  0  0  0
   -1.2341    0.9449    1.7449 H   0  0  0  0  0  0  0  0  0  0  0  0
    0.4983   -2.9594    1.0045 H   0  0  0  0  0  0  0  0  0  0  0  0
    2.2793   -4.6646    0.9458 H   0  0  0  0  0  0  0  0  0  0  0  0
    6.2876   -2.4020    0.5151 H   0  0  0  0  0  0  0  0  0  0  0  0
  1  2  1  0
  2  3  1  0
  3  4  2  0
  4  5  1  0
  5  6  1  0
  4  7  1  0
  7  8  2  0
  8  9  1  0
  9 10  1  0
 10 11  1  0
 11 12  2  0
 12 13  1  0
 13 14  2  0
 14 15  1  0
 15 16  2  0
 16 17  1  0
 17 18  1  0
 18 19  2  0
 18 20  1  0
 20 21  1  0
 21 22  1  0
 22 23  1  0
 17 24  2  0
 24 25  1  0
 25 26  2  0
  9 27  2  0
 27 28  1  0
 28 29  2  0
 29 30  1  0
 30 31  2  0
 31  3  1  0
 30  8  1  0
 26 11  1  0
 24 13  1  0
 23 21  1  0
  1 32  1  0
  1 33  1  0
  1 34  1  0
  6 35  1  0
  6 36  1  0
  6 37  1  0
  7 38  1  0
 12 39  1  0
 14 40  1  0
 15 41  1  0
 16 42  1  0
 20 43  1  0
 21 44  1  0
 22 45  1  0
 22 46  1  0
 23 47  1  0
 23 48  1  0
 25 49  1  0
 26 50  1  0
 27 51  1  0
 28 52  1  0
 31 53  1  0
M  END
$$$$
