
     RDKit          2D

220227  0  0  0  0  0  0  0  0999 V2000
    9.3481   -1.2990    0.0000 C   0  0  0  0  0  0  0  0  0  0  0  0
   10.6471   -2.0490    0.0000 C   0  0  0  0  0  0  0  0  0  0  0  0
   11.9462   -2.7990    0.0000 C   0  0  0  0  0  0  0  0  0  0  0  0
    9.8971   -3.3481    0.0000 C   0  0  0  0  0  0  0  0  0  0  0  0
    9.1471   -4.6471    0.0000 C   0  0  0  0  0  0  0  0  0  0  0  0
    7.8481   -3.8971    0.0000 N   0  0  0  0  0  0  0  0  0  0  0  0
    6.5490   -4.6471    0.0000 C   0  0  0  0  0  0  0  0  0  0  0  0
    6.1861   -6.1025    0.0000 O   0  0  0  0  0  0  0  0  0  0  0  0
    5.2500   -3.8971    0.0000 C   0  0  0  0  0  0  0  0  0  0  0  0
    3.9510   -3.1471    0.0000 C   0  0  0  0  0  0  0  0  0  0  0  0
    2.6519   -2.3971    0.0000 C   0  0  0  0  0  0  0  0  0  0  0  0
    2.6519   -0.8971    0.0000 C   0  0  0  0  0  0  0  0  0  0  0  0
    1.3529   -0.1471    0.0000 C   0  0  0  0  0  0  0  0  0  0  0  0
    0.0538   -0.8971    0.0000 C   0  0  0  0  0  0  0  0  0  0  0  0
   -1.2452   -0.1471    0.0000 N   0  0  0  0  0  0  0  0  0  0  0  0
   -2.5442   -0.8971    0.0000 C   0  0  0  0  0  0  0  0  0  0  0  0
   -3.8433   -0.1471    0.0000 N   0  0  0  0  0  0  0  0  0  0  0  0
   -2.5442   -2.3971    0.0000 O   0  0  0  0  0  0  0  0  0  0  0  0
    0.0538   -2.3971    0.0000 C   0  0  0  0  0  0  0  0  0  0  0  0
    1.3529   -3.1471    0.0000 C   0  0  0  0  0  0  0  0  0  0  0  0
    4.5000   -5.1962    0.0000 N   0  0  0  0  0  0  0  0  0  0  0  0
    3.0000   -5.1962    0.0000 C   0  0  0  0  0  0  0  0  0  0  0  0
    2.0972   -6.3941    0.0000 O   0  0  0  0  0  0  0  0  0  0  0  0
    2.2500   -3.8971    0.0000 C   0  0  0  0  0  0  0  0  0  0  0  0
    1.5000   -2.5981    0.0000 C   0  0  0  0  0  0  0  0  0  0  0  0
    0.7500   -1.2990    0.0000 C   0  0  0  0  0  0  0  0  0  0  0  0
    1.5000    0.0000    0.0000 C   0  0  0  0  0  0  0  0  0  0  0  0
    0.7500    1.2990    0.0000 C   0  0  0  0  0  0  0  0  0  0  0  0
   -0.7500    1.2990    0.0000 C   0  0  0  0  0  0  0  0  0  0  0  0
   -1.5000    2.5981    0.0000 N   0  0  0  0  0  0  0  0  0  0  0  0
   -0.7500    3.8971    0.0000 C   0  0  0  0  0  0  0  0  0  0  0  0
    0.7388    3.7143    0.0000 O   0  0  0  0  0  0  0  0  0  0  0  0
   -1.5000    5.1962    0.0000 C   0  0  0  0  0  0  0  0  0  0  0  0
   -0.0905    5.7092    0.0000 C   0  0  0  0  0  0  0  0  0  0  0  0
    0.1700    7.1864    0.0000 C   0  0  0  0  0  0  0  0  0  0  0  0
    1.5796    7.6994    0.0000 O   0  0  0  0  0  0  0  0  0  0  0  0
   -0.9791    8.1506    0.0000 N   0  0  0  0  0  0  0  0  0  0  0  0
   -2.3886    7.6375    0.0000 C   0  0  0  0  0  0  0  0  0  0  0  0
   -3.5377    8.6017    0.0000 O   0  0  0  0  0  0  0  0  0  0  0  0
   -2.6491    6.1603    0.0000 N   0  0  0  0  0  0  0  0  0  0  0  0
   -1.5000    0.0000    0.0000 C   0  0  0  0  0  0  0  0  0  0  0  0
   -0.7500   -1.2990    0.0000 C   0  0  0  0  0  0  0  0  0  0  0  0
    3.5490   -3.1471    0.0000 N   0  0  0  0  0  0  0  0  0  0  0  0
    4.8481   -3.8971    0.0000 C   0  0  0  0  0  0  0  0  0  0  0  0
    5.3857   -5.2974    0.0000 O   0  0  0  0  0  0  0  0  0  0  0  0
    6.1471   -3.1471    0.0000 C   0  0  0  0  0  0  0  0  0  0  0  0
    7.4462   -2.3971    0.0000 C   0  0  0  0  0  0  0  0  0  0  0  0
    8.7452   -1.6471    0.0000 O   0  0  0  0  0  0  0  0  0  0  0  0
    6.8971   -4.4462    0.0000 N   0  0  0  0  0  0  0  0  0  0  0  0
    6.1471   -5.7452    0.0000 C   0  0  0  0  0  0  0  0  0  0  0  0
    4.7468   -6.2829    0.0000 O   0  0  0  0  0  0  0  0  0  0  0  0
    6.8971   -7.0442    0.0000 C   0  0  0  0  0  0  0  0  0  0  0  0
    7.6471   -8.3433    0.0000 C   0  0  0  0  0  0  0  0  0  0  0  0
    8.3971   -9.6423    0.0000 C   0  0  0  0  0  0  0  0  0  0  0  0
    7.6471  -10.9413    0.0000 C   0  0  0  0  0  0  0  0  0  0  0  0
    8.3971  -12.2404    0.0000 C   0  0  0  0  0  0  0  0  0  0  0  0
    9.8971  -12.2404    0.0000 C   0  0  0  0  0  0  0  0  0  0  0  0
   10.6471  -10.9413    0.0000 N   0  0  0  0  0  0  0  0  0  0  0  0
    9.8971   -9.6423    0.0000 C   0  0  0  0  0  0  0  0  0  0  0  0
    5.5981   -7.7942    0.0000 N   0  0  0  0  0  0  0  0  0  0  0  0
    4.2990   -7.0442    0.0000 C   0  0  0  0  0  0  0  0  0  0  0  0
    4.8367   -5.6439    0.0000 O   0  0  0  0  0  0  0  0  0  0  0  0
    3.0000   -7.7942    0.0000 C   0  0  0  0  0  0  0  0  0  0  0  0
    1.7010   -8.5442    0.0000 C   0  0  0  0  0  0  0  0  0  0  0  0
    0.4019   -9.2942    0.0000 C   0  0  0  0  0  0  0  0  0  0  0  0
   -0.8971   -8.5442    0.0000 C   0  0  0  0  0  0  0  0  0  0  0  0
   -2.1962   -9.2942    0.0000 C   0  0  0  0  0  0  0  0  0  0  0  0
   -2.1962  -10.7942    0.0000 C   0  0  0  0  0  0  0  0  0  0  0  0
   -3.4952  -11.5442    0.0000 Cl  0  0  0  0  0  0  0  0  0  0  0  0
   -0.8971  -11.5442    0.0000 C   0  0  0  0  0  0  0  0  0  0  0  0
    0.4019  -10.7942    0.0000 C   0  0  0  0  0  0  0  0  0  0  0  0
    2.2500   -6.4952    0.0000 N   0  0  0  0  0  0  0  0  0  0  0  0
    3.0000   -5.1962    0.0000 C   0  0  0  0  0  0  0  0  0  0  0  0
    4.4003   -5.7338    0.0000 O   0  0  0  0  0  0  0  0  0  0  0  0
    2.2500   -3.8971    0.0000 C   0  0  0  0  0  0  0  0  0  0  0  0
    1.5000   -2.5981    0.0000 C   0  0  0  0  0  0  0  0  0  0  0  0
    0.7500   -1.2990    0.0000 C   0  0  0  0  0  0  0  0  0  0  0  0
    1.5000    0.0000    0.0000 C   0  0  0  0  0  0  0  0  0  0  0  0
    0.7500    1.2990    0.0000 C   0  0  0  0  0  0  0  0  0  0  0  0
   -0.7500    1.2990    0.0000 C   0  0  0  0  0  0  0  0  0  0  0  0
   -1.5000    2.5981    0.0000 C   0  0  0  0  0  0  0  0  0  0  0  0
   -3.0000    2.5981    0.0000 C   0  0  0  0  0  0  0  0  0  0  0  0
   -3.7500    1.2990    0.0000 C   0  0  0  0  0  0  0  0  0  0  0  0
   -3.0000    0.0000    0.0000 C   0  0  0  0  0  0  0  0  0  0  0  0
   -1.5000    0.0000    0.0000 C   0  0  0  0  0  0  0  0  0  0  0  0
   -0.7500   -1.2990    0.0000 C   0  0  0  0  0  0  0  0  0  0  0  0
    0.9510   -4.6471    0.0000 N   0  0  0  0  0  0  0  0  0  0  0  0
    0.9510   -6.1471    0.0000 C   0  0  0  0  0  0  0  0  0  0  0  0
   -0.3481   -6.8971    0.0000 C   0  0  0  0  0  0  0  0  0  0  0  0
    1.8948   -7.3129    0.0000 O   0  0  0  0  0  0  0  0  0  0  0  0
    8.3971   -5.9462    0.0000 C   0  0  0  0  0  0  0  0  0  0  0  0
    6.9417   -6.3091    0.0000 O   0  0  0  0  0  0  0  0  0  0  0  0
    9.1471   -7.2452    0.0000 N   0  0  0  0  0  0  0  0  0  0  0  0
    8.3971   -8.5442    0.0000 C   0  0  0  0  0  0  0  0  0  0  0  0
    9.6962   -9.2942    0.0000 C   0  0  0  0  0  0  0  0  0  0  0  0
   10.9952  -10.0442    0.0000 C   0  0  0  0  0  0  0  0  0  0  0  0
   12.2942  -10.7942    0.0000 C   0  0  0  0  0  0  0  0  0  0  0  0
   13.5933  -11.5442    0.0000 C   0  0  0  0  0  0  0  0  0  0  0  0
   14.8923  -12.2942    0.0000 N   0  0  0  0  0  0  0  0  0  0  0  0
   16.1913  -11.5442    0.0000 C   0  0  0  0  0  0  0  0  0  0  0  0
   15.4413  -10.2452    0.0000 C   0  0  0  0  0  0  0  0  0  0  0  0
   16.9413  -12.8433    0.0000 C   0  0  0  0  0  0  0  0  0  0  0  0
    7.0981   -7.7942    0.0000 C   0  0  0  0  0  0  0  0  0  0  0  0
    7.4610   -6.3388    0.0000 O   0  0  0  0  0  0  0  0  0  0  0  0
    5.7990   -8.5442    0.0000 N   0  0  0  0  0  0  0  0  0  0  0  0
    4.4287   -7.9341    0.0000 C   0  0  0  0  0  0  0  0  0  0  0  0
    3.4250   -9.0488    0.0000 C   0  0  0  0  0  0  0  0  0  0  0  0
    4.1750  -10.3479    0.0000 C   0  0  0  0  0  0  0  0  0  0  0  0
    5.6422  -10.0360    0.0000 C   0  0  0  0  0  0  0  0  0  0  0  0
    5.7990  -11.5278    0.0000 C   0  0  0  0  0  0  0  0  0  0  0  0
    4.5855  -12.4095    0.0000 O   0  0  0  0  0  0  0  0  0  0  0  0
    7.1694  -12.1379    0.0000 N   0  0  0  0  0  0  0  0  0  0  0  0
    7.3261  -13.6297    0.0000 C   0  0  0  0  0  0  0  0  0  0  0  0
    8.8179  -13.4729    0.0000 C   0  0  0  0  0  0  0  0  0  0  0  0
    5.8344  -13.7865    0.0000 C   0  0  0  0  0  0  0  0  0  0  0  0
    5.2243  -15.1568    0.0000 N   0  0  0  0  0  0  0  0  0  0  0  0
    4.6852  -12.8224    0.0000 O   0  0  0  0  0  0  0  0  0  0  0  0
    8.0490   -0.5490    0.0000 H   0  0  0  0  0  0  0  0  0  0  0  0
   10.2508   -0.1011    0.0000 H   0  0  0  0  0  0  0  0  0  0  0  0
    9.9341    0.0817    0.0000 H   0  0  0  0  0  0  0  0  0  0  0  0
   11.3971   -0.7500    0.0000 H   0  0  0  0  0  0  0  0  0  0  0  0
   13.2452   -3.5490    0.0000 H   0  0  0  0  0  0  0  0  0  0  0  0
   12.8489   -1.6011    0.0000 H   0  0  0  0  0  0  0  0  0  0  0  0
   12.5322   -1.4183    0.0000 H   0  0  0  0  0  0  0  0  0  0  0  0
    8.6992   -2.4453    0.0000 H   0  0  0  0  0  0  0  0  0  0  0  0
   11.1962   -4.0981    0.0000 H   0  0  0  0  0  0  0  0  0  0  0  0
   10.4462   -5.3971    0.0000 H   0  0  0  0  0  0  0  0  0  0  0  0
    8.0309   -2.4083    0.0000 H   0  0  0  0  0  0  0  0  0  0  0  0
    6.2920   -2.8182    0.0000 H   0  0  0  0  0  0  0  0  0  0  0  0
    4.5370   -1.7663    0.0000 H   0  0  0  0  0  0  0  0  0  0  0  0
    2.6788   -3.9419    0.0000 H   0  0  0  0  0  0  0  0  0  0  0  0
    3.9510   -0.1471    0.0000 H   0  0  0  0  0  0  0  0  0  0  0  0
    0.6485    1.1772    0.0000 H   0  0  0  0  0  0  0  0  0  0  0  0
   -1.9495    1.1772    0.0000 H   0  0  0  0  0  0  0  0  0  0  0  0
   -5.1423   -0.8971    0.0000 H   0  0  0  0  0  0  0  0  0  0  0  0
   -4.2062    1.3083    0.0000 H   0  0  0  0  0  0  0  0  0  0  0  0
   -1.0251   -3.4392    0.0000 H   0  0  0  0  0  0  0  0  0  0  0  0
    0.8152   -4.5474    0.0000 H   0  0  0  0  0  0  0  0  0  0  0  0
    5.4028   -6.3941    0.0000 H   0  0  0  0  0  0  0  0  0  0  0  0
    0.8692   -4.4832    0.0000 H   0  0  0  0  0  0  0  0  0  0  0  0
    2.2947   -1.3259    0.0000 H   0  0  0  0  0  0  0  0  0  0  0  0
    0.0581   -3.0115    0.0000 H   0  0  0  0  0  0  0  0  0  0  0  0
    2.9888    0.1828    0.0000 H   0  0  0  0  0  0  0  0  0  0  0  0
    1.6528    2.4970    0.0000 H   0  0  0  0  0  0  0  0  0  0  0  0
   -2.9554    2.9610    0.0000 H   0  0  0  0  0  0  0  0  0  0  0  0
   -2.6491    4.2320    0.0000 H   0  0  0  0  0  0  0  0  0  0  0  0
    1.4095    5.7092    0.0000 H   0  0  0  0  0  0  0  0  0  0  0  0
    0.3481    4.2747    0.0000 H   0  0  0  0  0  0  0  0  0  0  0  0
   -0.7186    9.6278    0.0000 H   0  0  0  0  0  0  0  0  0  0  0  0
   -4.0586    5.6473    0.0000 H   0  0  0  0  0  0  0  0  0  0  0  0
   -2.8243    0.7044    0.0000 H   0  0  0  0  0  0  0  0  0  0  0  0
   -1.7920   -2.3780    0.0000 H   0  0  0  0  0  0  0  0  0  0  0  0
    3.9120   -1.6917    0.0000 H   0  0  0  0  0  0  0  0  0  0  0  0
    5.5611   -1.7663    0.0000 H   0  0  0  0  0  0  0  0  0  0  0  0
    6.6962   -1.0981    0.0000 H   0  0  0  0  0  0  0  0  0  0  0  0
    8.6119   -3.3410    0.0000 H   0  0  0  0  0  0  0  0  0  0  0  0
   10.1871   -2.0605    0.0000 H   0  0  0  0  0  0  0  0  0  0  0  0
    8.3859   -4.6290    0.0000 H   0  0  0  0  0  0  0  0  0  0  0  0
    8.3390   -6.6309    0.0000 H   0  0  0  0  0  0  0  0  0  0  0  0
    6.7032   -9.5091    0.0000 H   0  0  0  0  0  0  0  0  0  0  0  0
    9.0890   -7.9299    0.0000 H   0  0  0  0  0  0  0  0  0  0  0  0
    6.1917  -11.3043    0.0000 H   0  0  0  0  0  0  0  0  0  0  0  0
    7.9837  -13.6823    0.0000 H   0  0  0  0  0  0  0  0  0  0  0  0
   10.7999  -13.4383    0.0000 H   0  0  0  0  0  0  0  0  0  0  0  0
   10.7999   -8.4444    0.0000 H   0  0  0  0  0  0  0  0  0  0  0  0
    4.7375   -9.0228    0.0000 H   0  0  0  0  0  0  0  0  0  0  0  0
    3.4134   -9.2361    0.0000 H   0  0  0  0  0  0  0  0  0  0  0  0
    0.7982   -7.3463    0.0000 H   0  0  0  0  0  0  0  0  0  0  0  0
    2.2870   -9.9250    0.0000 H   0  0  0  0  0  0  0  0  0  0  0  0
   -1.2601   -7.0888    0.0000 H   0  0  0  0  0  0  0  0  0  0  0  0
   -3.4952   -8.5442    0.0000 H   0  0  0  0  0  0  0  0  0  0  0  0
   -0.8971  -13.0442    0.0000 H   0  0  0  0  0  0  0  0  0  0  0  0
    1.7010  -11.5442    0.0000 H   0  0  0  0  0  0  0  0  0  0  0  0
    0.7612   -6.6780    0.0000 H   0  0  0  0  0  0  0  0  0  0  0  0
    3.0447   -2.6250    0.0000 H   0  0  0  0  0  0  0  0  0  0  0  0
    0.2010   -3.3481    0.0000 H   0  0  0  0  0  0  0  0  0  0  0  0
    2.5790   -1.5560    0.0000 H   0  0  0  0  0  0  0  0  0  0  0  0
    2.9888   -0.1828    0.0000 H   0  0  0  0  0  0  0  0  0  0  0  0
    1.3361    2.6798    0.0000 H   0  0  0  0  0  0  0  0  0  0  0  0
   -1.0866    4.0400    0.0000 H   0  0  0  0  0  0  0  0  0  0  0  0
   -3.7500    3.8971    0.0000 H   0  0  0  0  0  0  0  0  0  0  0  0
   -5.2500    1.2990    0.0000 H   0  0  0  0  0  0  0  0  0  0  0  0
   -3.7500   -1.2990    0.0000 H   0  0  0  0  0  0  0  0  0  0  0  0
   -1.5000   -2.5981    0.0000 H   0  0  0  0  0  0  0  0  0  0  0  0
   -0.4910   -4.2337    0.0000 H   0  0  0  0  0  0  0  0  0  0  0  0
   -1.6471   -7.6471    0.0000 H   0  0  0  0  0  0  0  0  0  0  0  0
    0.4019   -8.1962    0.0000 H   0  0  0  0  0  0  0  0  0  0  0  0
   -1.0981   -5.5981    0.0000 H   0  0  0  0  0  0  0  0  0  0  0  0
   10.6359   -7.0623    0.0000 H   0  0  0  0  0  0  0  0  0  0  0  0
    8.1626  -10.0258    0.0000 H   0  0  0  0  0  0  0  0  0  0  0  0
    9.1101  -10.6750    0.0000 H   0  0  0  0  0  0  0  0  0  0  0  0
   10.4462   -7.9952    0.0000 H   0  0  0  0  0  0  0  0  0  0  0  0
   10.5818  -11.4861    0.0000 H   0  0  0  0  0  0  0  0  0  0  0  0
   11.7452   -8.7452    0.0000 H   0  0  0  0  0  0  0  0  0  0  0  0
   13.0442   -9.4952    0.0000 H   0  0  0  0  0  0  0  0  0  0  0  0
   11.5442  -12.0933    0.0000 H   0  0  0  0  0  0  0  0  0  0  0  0
   12.8433  -12.8433    0.0000 H   0  0  0  0  0  0  0  0  0  0  0  0
   14.1793  -10.1635    0.0000 H   0  0  0  0  0  0  0  0  0  0  0  0
   14.7095  -13.7830    0.0000 H   0  0  0  0  0  0  0  0  0  0  0  0
   17.4904  -10.7942    0.0000 H   0  0  0  0  0  0  0  0  0  0  0  0
   14.6913   -8.9462    0.0000 H   0  0  0  0  0  0  0  0  0  0  0  0
   16.7404   -9.4952    0.0000 H   0  0  0  0  0  0  0  0  0  0  0  0
   13.9598  -10.4797    0.0000 H   0  0  0  0  0  0  0  0  0  0  0  0
   17.6913  -14.1423    0.0000 H   0  0  0  0  0  0  0  0  0  0  0  0
   18.2404  -12.0933    0.0000 H   0  0  0  0  0  0  0  0  0  0  0  0
   15.7434  -13.7460    0.0000 H   0  0  0  0  0  0  0  0  0  0  0  0
    5.3315   -6.7362    0.0000 H   0  0  0  0  0  0  0  0  0  0  0  0
    3.0379   -7.3723    0.0000 H   0  0  0  0  0  0  0  0  0  0  0  0
    2.1814   -8.2101    0.0000 H   0  0  0  0  0  0  0  0  0  0  0  0
    2.3280  -10.0719    0.0000 H   0  0  0  0  0  0  0  0  0  0  0  0
    2.8047  -10.9580    0.0000 H   0  0  0  0  0  0  0  0  0  0  0  0
    4.2796  -11.8442    0.0000 H   0  0  0  0  0  0  0  0  0  0  0  0
    7.1311  -10.2189    0.0000 H   0  0  0  0  0  0  0  0  0  0  0  0
    8.3829  -11.2562    0.0000 H   0  0  0  0  0  0  0  0  0  0  0  0
    7.4829  -15.1215    0.0000 H   0  0  0  0  0  0  0  0  0  0  0  0
   10.3177  -13.4991    0.0000 H   0  0  0  0  0  0  0  0  0  0  0  0
    8.9747  -14.9647    0.0000 H   0  0  0  0  0  0  0  0  0  0  0  0
    9.2063  -12.0240    0.0000 H   0  0  0  0  0  0  0  0  0  0  0  0
    3.7325  -15.3136    0.0000 H   0  0  0  0  0  0  0  0  0  0  0  0
    6.1059  -16.3703    0.0000 H   0  0  0  0  0  0  0  0  0  0  0  0
  1  2  1  0
  2  3  1  0
  2  4  1  0
  4  5  1  0
  5  6  1  0
  6  7  1  0
  7  8  2  0
  7  9  1  0
  9 10  1  0
 10 11  1  0
 11 12  2  0
 12 13  1  0
 13 14  2  0
 14 15  1  0
 15 16  1  0
 16 17  1  0
 16 18  2  0
 14 19  1  0
 19 20  2  0
  9 21  1  0
 21 22  1  0
 22 23  2  0
 22 24  1  0
 24 25  1  0
 25 26  1  0
 26 27  2  0
 27 28  1  0
 28 29  2  0
 29 30  1  0
 30 31  1  0
 31 32  2  0
 31 33  1  0
 33 34  1  0
 34 35  1  0
 35 36  2  0
 35 37  1  0
 37 38  1  0
 38 39  2  0
 38 40  1  0
 29 41  1  0
 41 42  2  0
 24 43  1  0
 43 44  1  0
 44 45  2  0
 44 46  1  0
 46 47  1  0
 47 48  1  0
 46 49  1  0
 49 50  1  0
 50 51  2  0
 50 52  1  0
 52 53  1  0
 53 54  1  0
 54 55  2  0
 55 56  1  0
 56 57  2  0
 57 58  1  0
 58 59  2  0
 52 60  1  0
 60 61  1  0
 61 62  2  0
 61 63  1  0
 63 64  1  0
 64 65  1  0
 65 66  2  0
 66 67  1  0
 67 68  2  0
 68 69  1  0
 68 70  1  0
 70 71  2  0
 63 72  1  0
 72 73  1  0
 73 74  2  0
 73 75  1  0
 75 76  1  0
 76 77  1  0
 77 78  2  0
 78 79  1  0
 79 80  2  0
 80 81  1  0
 81 82  2  0
 82 83  1  0
 83 84  2  0
 84 85  1  0
 85 86  2  0
 75 87  1  0
 87 88  1  0
 88 89  1  0
 88 90  2  0
  5 91  1  0
 91 92  2  0
 91 93  1  0
 93 94  1  0
 94 95  1  0
 95 96  1  0
 96 97  1  0
 97 98  1  0
 98 99  1  0
 99100  1  0
100101  1  0
100102  1  0
 94103  1  0
103104  2  0
103105  1  0
105106  1  0
106107  1  0
107108  1  0
108109  1  0
109110  1  0
110111  2  0
110112  1  0
112113  1  0
113114  1  0
113115  1  0
115116  1  0
115117  2  0
 20 11  1  0
 42 26  1  0
 59 54  1  0
 71 65  1  0
 86 77  1  0
109105  1  0
 40 33  1  0
 85 80  1  0
  1118  1  0
  1119  1  0
  1120  1  0
  2121  1  0
  3122  1  0
  3123  1  0
  3124  1  0
  4125  1  0
  4126  1  0
  5127  1  6
  6128  1  0
  9129  1  1
 10130  1  0
 10131  1  0
 12132  1  0
 13133  1  0
 15134  1  0
 17135  1  0
 17136  1  0
 19137  1  0
 20138  1  0
 21139  1  0
 24140  1  1
 25141  1  0
 25142  1  0
 27143  1  0
 28144  1  0
 30145  1  0
 33146  1  6
 34147  1  0
 34148  1  0
 37149  1  0
 40150  1  0
 41151  1  0
 42152  1  0
 43153  1  0
 46154  1  1
 47155  1  0
 47156  1  0
 48157  1  0
 49158  1  0
 52159  1  6
 53160  1  0
 53161  1  0
 55162  1  0
 56163  1  0
 57164  1  0
 59165  1  0
 60166  1  0
 63167  1  6
 64168  1  0
 64169  1  0
 66170  1  0
 67171  1  0
 70172  1  0
 71173  1  0
 72174  1  0
 75175  1  1
 76176  1  0
 76177  1  0
 78178  1  0
 79179  1  0
 81180  1  0
 82181  1  0
 83182  1  0
 84183  1  0
 86184  1  0
 87185  1  0
 89186  1  0
 89187  1  0
 89188  1  0
 93189  1  0
 94190  1  6
 95191  1  0
 95192  1  0
 96193  1  0
 96194  1  0
 97195  1  0
 97196  1  0
 98197  1  0
 98198  1  0
 99199  1  0
100200  1  0
101201  1  0
101202  1  0
101203  1  0
102204  1  0
102205  1  0
102206  1  0
106207  1  0
106208  1  0
107209  1  0
107210  1  0
108211  1  0
108212  1  0
109213  1  1
112214  1  0
113215  1  1
114216  1  0
114217  1  0
114218  1  0
116219  1  0
116220  1  0
M  END
$$$$
