
     RDKit          3D

 19 18  0  0  0  0  0  0  0  0999 V2000
   -0.0043   -1.3325    1.0143 C   0  0  0  0  0  0  0  0  0  0  0  0
   -0.1597    0.1253    0.5581 C   0  0  0  0  0  0  0  0  0  0  0  0
   -0.2521    0.9708    1.6765 O   0  0  0  0  0  0  0  0  0  0  0  0
    1.2726    0.6190   -0.4742 P   0  0  0  0  0  5  0  0  0  0  0  0
    2.7023    0.4015    0.4058 O   0  0  0  0  0  0  0  0  0  0  0  0
    1.3325   -0.3196   -1.8819 O   0  0  0  0  0  0  0  0  0  0  0  0
    1.1444    2.0765   -0.8552 O   0  0  0  0  0  0  0  0  0  0  0  0
   -1.6963    0.3022   -0.4181 P   0  0  0  0  0  5  0  0  0  0  0  0
   -1.8733    1.9093   -0.9194 O   0  0  0  0  0  0  0  0  0  0  0  0
   -1.6422   -0.6941   -1.7863 O   0  0  0  0  0  0  0  0  0  0  0  0
   -2.8851   -0.0820    0.4348 O   0  0  0  0  0  0  0  0  0  0  0  0
    0.9284   -1.4577    1.6046 H   0  0  0  0  0  0  0  0  0  0  0  0
    0.0402   -2.0191    0.1429 H   0  0  0  0  0  0  0  0  0  0  0  0
   -0.8615   -1.6278    1.6562 H   0  0  0  0  0  0  0  0  0  0  0  0
    0.5919    0.8844    2.1925 H   0  0  0  0  0  0  0  0  0  0  0  0
    3.4278    0.6149   -0.2338 H   0  0  0  0  0  0  0  0  0  0  0  0
    1.6834   -1.1975   -1.5877 H   0  0  0  0  0  0  0  0  0  0  0  0
   -1.9290    2.4339   -0.0811 H   0  0  0  0  0  0  0  0  0  0  0  0
   -1.8199   -1.6077   -1.4480 H   0  0  0  0  0  0  0  0  0  0  0  0
  1  2  1  0
  2  3  1  0
  2  4  1  0
  4  5  1  0
  4  6  1  0
  4  7  2  0
  2  8  1  0
  8  9  1  0
  8 10  1  0
  8 11  2  0
  1 12  1  0
  1 13  1  0
  1 14  1  0
  3 15  1  0
  5 16  1  0
  6 17  1  0
  9 18  1  0
 10 19  1  0
M  END
$$$$
