
     RDKit          2D

177184  0  0  0  0  0  0  0  0999 V2000
    4.7147    0.5983    0.0000 C   0  0  0  0  0  0  0  0  0  0  0  0
    4.2512   -0.8282    0.0000 C   0  0  0  0  0  0  0  0  0  0  0  0
    3.7876   -2.2548    0.0000 C   0  0  0  0  0  0  0  0  0  0  0  0
    2.8246   -0.3647    0.0000 C   0  0  0  0  0  0  0  0  0  0  0  0
    1.3980    0.0988    0.0000 C   0  0  0  0  0  0  0  0  0  0  0  0
    1.8615    1.5254    0.0000 N   0  0  0  0  0  0  0  0  0  0  0  0
    0.8578    2.6401    0.0000 C   0  0  0  0  0  0  0  0  0  0  0  0
   -0.0086    2.4560    0.0000 O   0  0  0  0  0  0  0  0  0  0  0  0
    1.3213    4.0667    0.0000 C   0  0  0  0  0  0  0  0  0  0  0  0
    1.7849    5.4933    0.0000 C   0  0  0  0  0  0  0  0  0  0  0  0
    2.2484    6.9199    0.0000 C   0  0  0  0  0  0  0  0  0  0  0  0
    3.6750    7.3834    0.0000 C   0  0  0  0  0  0  0  0  0  0  0  0
    3.6750    8.8834    0.0000 N   0  0  0  0  0  0  0  0  0  0  0  0
    2.2484    9.3469    0.0000 C   0  0  0  0  0  0  0  0  0  0  0  0
    1.6383   10.7172    0.0000 C   0  0  0  0  0  0  0  0  0  0  0  0
    0.1465   10.8740    0.0000 C   0  0  0  0  0  0  0  0  0  0  0  0
   -0.7352    9.6605    0.0000 C   0  0  0  0  0  0  0  0  0  0  0  0
   -0.1251    8.2902    0.0000 C   0  0  0  0  0  0  0  0  0  0  0  0
    1.3667    8.1334    0.0000 C   0  0  0  0  0  0  0  0  0  0  0  0
    2.7479    3.6032    0.0000 N   0  0  0  0  0  0  0  0  0  0  0  0
    3.8627    4.6069    0.0000 C   0  0  0  0  0  0  0  0  0  0  0  0
    3.5508    6.0741    0.0000 O   0  0  0  0  0  0  0  0  0  0  0  0
    5.2892    4.1433    0.0000 C   0  0  0  0  0  0  0  0  0  0  0  0
    6.7158    3.6798    0.0000 C   0  0  0  0  0  0  0  0  0  0  0  0
    8.1424    3.2163    0.0000 C   0  0  0  0  0  0  0  0  0  0  0  0
    8.4543    1.7491    0.0000 C   0  0  0  0  0  0  0  0  0  0  0  0
    9.8809    1.2855    0.0000 C   0  0  0  0  0  0  0  0  0  0  0  0
   10.9956    2.2892    0.0000 C   0  0  0  0  0  0  0  0  0  0  0  0
   12.4222    1.8257    0.0000 O   0  0  0  0  0  0  0  0  0  0  0  0
   10.6837    3.7565    0.0000 C   0  0  0  0  0  0  0  0  0  0  0  0
    9.2571    4.2200    0.0000 C   0  0  0  0  0  0  0  0  0  0  0  0
    5.7528    5.5699    0.0000 N   0  0  0  0  0  0  0  0  0  0  0  0
    7.2200    5.8818    0.0000 C   0  0  0  0  0  0  0  0  0  0  0  0
    8.2237    4.7671    0.0000 O   0  0  0  0  0  0  0  0  0  0  0  0
    7.6835    7.3084    0.0000 C   0  0  0  0  0  0  0  0  0  0  0  0
    8.1470    8.7350    0.0000 C   0  0  0  0  0  0  0  0  0  0  0  0
    8.6106   10.1615    0.0000 O   0  0  0  0  0  0  0  0  0  0  0  0
    9.1101    6.8449    0.0000 N   0  0  0  0  0  0  0  0  0  0  0  0
   10.2248    7.8485    0.0000 C   0  0  0  0  0  0  0  0  0  0  0  0
    9.9129    9.3158    0.0000 O   0  0  0  0  0  0  0  0  0  0  0  0
   11.6514    7.3850    0.0000 C   0  0  0  0  0  0  0  0  0  0  0  0
   13.0780    6.9215    0.0000 C   0  0  0  0  0  0  0  0  0  0  0  0
   14.5046    6.4580    0.0000 C   0  0  0  0  0  0  0  0  0  0  0  0
   14.9681    5.0314    0.0000 C   0  0  0  0  0  0  0  0  0  0  0  0
   16.4681    5.0314    0.0000 N   0  0  0  0  0  0  0  0  0  0  0  0
   16.9316    6.4580    0.0000 C   0  0  0  0  0  0  0  0  0  0  0  0
   15.7181    7.3396    0.0000 C   0  0  0  0  0  0  0  0  0  0  0  0
   15.8749    8.8314    0.0000 C   0  0  0  0  0  0  0  0  0  0  0  0
   17.2452    9.4415    0.0000 C   0  0  0  0  0  0  0  0  0  0  0  0
   18.4587    8.5599    0.0000 C   0  0  0  0  0  0  0  0  0  0  0  0
   18.3019    7.0681    0.0000 C   0  0  0  0  0  0  0  0  0  0  0  0
   12.1149    8.8116    0.0000 N   0  0  0  0  0  0  0  0  0  0  0  0
   13.5821    9.1235    0.0000 C   0  0  0  0  0  0  0  0  0  0  0  0
   14.5858    8.0088    0.0000 O   0  0  0  0  0  0  0  0  0  0  0  0
   14.0457   10.5501    0.0000 C   0  0  0  0  0  0  0  0  0  0  0  0
   14.5092   11.9766    0.0000 C   0  0  0  0  0  0  0  0  0  0  0  0
   14.9727   13.4032    0.0000 C   0  0  0  0  0  0  0  0  0  0  0  0
   14.0910   14.6168    0.0000 C   0  0  0  0  0  0  0  0  0  0  0  0
   14.9727   15.8303    0.0000 N   0  0  0  0  0  0  0  0  0  0  0  0
   16.3993   15.3668    0.0000 C   0  0  0  0  0  0  0  0  0  0  0  0
   16.3993   13.8668    0.0000 N   0  0  0  0  0  0  0  0  0  0  0  0
   15.4723   10.0865    0.0000 N   0  0  0  0  0  0  0  0  0  0  0  0
   16.5870   11.0902    0.0000 C   0  0  0  0  0  0  0  0  0  0  0  0
   16.2751   12.5575    0.0000 O   0  0  0  0  0  0  0  0  0  0  0  0
   18.0136   10.6267    0.0000 C   0  0  0  0  0  0  0  0  0  0  0  0
   19.3126    9.8767    0.0000 C   0  0  0  0  0  0  0  0  0  0  0  0
   20.4273   10.8804    0.0000 C   0  0  0  0  0  0  0  0  0  0  0  0
   19.8172   12.2507    0.0000 C   0  0  0  0  0  0  0  0  0  0  0  0
   20.5672   13.5498    0.0000 O   0  0  0  0  0  0  0  0  0  0  0  0
   18.3254   12.0939    0.0000 N   0  0  0  0  0  0  0  0  0  0  0  0
   -0.0286    0.5623    0.0000 C   0  0  0  0  0  0  0  0  0  0  0  0
   -0.1943    1.3421    0.0000 O   0  0  0  0  0  0  0  0  0  0  0  0
   -1.1433   -0.4414    0.0000 N   0  0  0  0  0  0  0  0  0  0  0  0
   -2.5699    0.0222    0.0000 C   0  0  0  0  0  0  0  0  0  0  0  0
   -3.0334   -1.4044    0.0000 C   0  0  0  0  0  0  0  0  0  0  0  0
   -3.4969   -2.8310    0.0000 C   0  0  0  0  0  0  0  0  0  0  0  0
   -3.9605   -4.2576    0.0000 C   0  0  0  0  0  0  0  0  0  0  0  0
   -4.4240   -5.6842    0.0000 N   0  0  0  0  0  0  0  0  0  0  0  0
   -3.4203   -6.7989    0.0000 C   0  0  0  0  0  0  0  0  0  0  0  0
   -1.9531   -6.4870    0.0000 N   0  0  0  0  0  0  0  0  0  0  0  0
   -3.8838   -8.2255    0.0000 N   0  0  0  0  0  0  0  0  0  0  0  0
   -2.1064    1.4487    0.0000 C   0  0  0  0  0  0  0  0  0  0  0  0
   -1.0368    1.6761    0.0000 O   0  0  0  0  0  0  0  0  0  0  0  0
   -3.1101    2.5635    0.0000 N   0  0  0  0  0  0  0  0  0  0  0  0
   -2.7982    4.0307    0.0000 C   0  0  0  0  0  0  0  0  0  0  0  0
   -4.0972    4.7807    0.0000 C   0  0  0  0  0  0  0  0  0  0  0  0
   -5.2120    3.7770    0.0000 C   0  0  0  0  0  0  0  0  0  0  0  0
   -4.6018    2.4067    0.0000 C   0  0  0  0  0  0  0  0  0  0  0  0
   -6.0284    1.9431    0.0000 C   0  0  0  0  0  0  0  0  0  0  0  0
   -7.2572    2.8035    0.0000 O   0  0  0  0  0  0  0  0  0  0  0  0
   -6.3403    0.4759    0.0000 N   0  0  0  0  0  0  0  0  0  0  0  0
   -7.7669    0.0124    0.0000 C   0  0  0  0  0  0  0  0  0  0  0  0
   -9.1935   -0.4511    0.0000 C   0  0  0  0  0  0  0  0  0  0  0  0
  -10.3082    0.5526    0.0000 N   0  0  0  0  0  0  0  0  0  0  0  0
   -9.5053   -1.9183    0.0000 O   0  0  0  0  0  0  0  0  0  0  0  0
    5.0009    2.0708    0.0000 H   0  0  0  0  0  0  0  0  0  0  0  0
    6.1413    0.1348    0.0000 H   0  0  0  0  0  0  0  0  0  0  0  0
    3.4427    1.3933    0.0000 H   0  0  0  0  0  0  0  0  0  0  0  0
    5.6777   -1.2918    0.0000 H   0  0  0  0  0  0  0  0  0  0  0  0
    3.3241   -3.6814    0.0000 H   0  0  0  0  0  0  0  0  0  0  0  0
    5.2142   -2.7184    0.0000 H   0  0  0  0  0  0  0  0  0  0  0  0
    2.3152   -1.9687    0.0000 H   0  0  0  0  0  0  0  0  0  0  0  0
    3.2881    1.0619    0.0000 H   0  0  0  0  0  0  0  0  0  0  0  0
    2.1906   -1.7242    0.0000 H   0  0  0  0  0  0  0  0  0  0  0  0
    0.9345   -1.3278    0.0000 H   0  0  0  0  0  0  0  0  0  0  0  0
    3.2798    2.0138    0.0000 H   0  0  0  0  0  0  0  0  0  0  0  0
   -0.1052    4.5302    0.0000 H   0  0  0  0  0  0  0  0  0  0  0  0
    3.2812    5.3887    0.0000 H   0  0  0  0  0  0  0  0  0  0  0  0
    0.3583    5.9568    0.0000 H   0  0  0  0  0  0  0  0  0  0  0  0
    4.9869    6.6562    0.0000 H   0  0  0  0  0  0  0  0  0  0  0  0
    4.8885    9.7651    0.0000 H   0  0  0  0  0  0  0  0  0  0  0  0
    2.5200   11.9308    0.0000 H   0  0  0  0  0  0  0  0  0  0  0  0
   -0.4636   12.2443    0.0000 H   0  0  0  0  0  0  0  0  0  0  0  0
   -2.2269    9.8173    0.0000 H   0  0  0  0  0  0  0  0  0  0  0  0
   -1.0067    7.0767    0.0000 H   0  0  0  0  0  0  0  0  0  0  0  0
    3.2363    2.1849    0.0000 H   0  0  0  0  0  0  0  0  0  0  0  0
    4.6553    2.7839    0.0000 H   0  0  0  0  0  0  0  0  0  0  0  0
    7.5108    4.9518    0.0000 H   0  0  0  0  0  0  0  0  0  0  0  0
    6.2523    2.2532    0.0000 H   0  0  0  0  0  0  0  0  0  0  0  0
    7.3396    0.7454    0.0000 H   0  0  0  0  0  0  0  0  0  0  0  0
   10.1927   -0.1817    0.0000 H   0  0  0  0  0  0  0  0  0  0  0  0
   13.5369    2.8294    0.0000 H   0  0  0  0  0  0  0  0  0  0  0  0
   11.7984    4.7602    0.0000 H   0  0  0  0  0  0  0  0  0  0  0  0
    9.1264    5.7143    0.0000 H   0  0  0  0  0  0  0  0  0  0  0  0
    4.8924    6.7987    0.0000 H   0  0  0  0  0  0  0  0  0  0  0  0
    6.2569    7.7719    0.0000 H   0  0  0  0  0  0  0  0  0  0  0  0
    9.6434    8.6304    0.0000 H   0  0  0  0  0  0  0  0  0  0  0  0
    6.7204    9.1985    0.0000 H   0  0  0  0  0  0  0  0  0  0  0  0
    7.6069   11.2763    0.0000 H   0  0  0  0  0  0  0  0  0  0  0  0
    9.5985    5.4266    0.0000 H   0  0  0  0  0  0  0  0  0  0  0  0
   11.1879    5.9584    0.0000 H   0  0  0  0  0  0  0  0  0  0  0  0
   13.8729    8.1935    0.0000 H   0  0  0  0  0  0  0  0  0  0  0  0
   12.6145    5.4949    0.0000 H   0  0  0  0  0  0  0  0  0  0  0  0
   14.0864    3.8179    0.0000 H   0  0  0  0  0  0  0  0  0  0  0  0
   17.3498    3.8179    0.0000 H   0  0  0  0  0  0  0  0  0  0  0  0
   14.4841    9.3933    0.0000 H   0  0  0  0  0  0  0  0  0  0  0  0
   17.7583   10.8510    0.0000 H   0  0  0  0  0  0  0  0  0  0  0  0
   19.8932    8.9984    0.0000 H   0  0  0  0  0  0  0  0  0  0  0  0
   19.5155    6.1864    0.0000 H   0  0  0  0  0  0  0  0  0  0  0  0
   11.1112    9.9263    0.0000 H   0  0  0  0  0  0  0  0  0  0  0  0
   12.6191   11.0136    0.0000 H   0  0  0  0  0  0  0  0  0  0  0  0
   16.0055   11.8721    0.0000 H   0  0  0  0  0  0  0  0  0  0  0  0
   13.0826   12.4402    0.0000 H   0  0  0  0  0  0  0  0  0  0  0  0
   12.5910   14.6168    0.0000 H   0  0  0  0  0  0  0  0  0  0  0  0
   14.5092   17.2569    0.0000 H   0  0  0  0  0  0  0  0  0  0  0  0
   17.6128   16.2484    0.0000 H   0  0  0  0  0  0  0  0  0  0  0  0
   16.1299    8.7384    0.0000 H   0  0  0  0  0  0  0  0  0  0  0  0
   17.7532    9.1495    0.0000 H   0  0  0  0  0  0  0  0  0  0  0  0
   18.7508    8.4859    0.0000 H   0  0  0  0  0  0  0  0  0  0  0  0
   20.5413    9.0164    0.0000 H   0  0  0  0  0  0  0  0  0  0  0  0
   21.3090    9.6669    0.0000 H   0  0  0  0  0  0  0  0  0  0  0  0
   21.7263   11.6304    0.0000 H   0  0  0  0  0  0  0  0  0  0  0  0
   17.3217   13.2086    0.0000 H   0  0  0  0  0  0  0  0  0  0  0  0
   -0.6549   -1.8596    0.0000 H   0  0  0  0  0  0  0  0  0  0  0  0
   -4.0423    0.3083    0.0000 H   0  0  0  0  0  0  0  0  0  0  0  0
   -4.5059   -1.1182    0.0000 H   0  0  0  0  0  0  0  0  0  0  0  0
   -1.6740   -2.0384    0.0000 H   0  0  0  0  0  0  0  0  0  0  0  0
   -2.0704   -3.2945    0.0000 H   0  0  0  0  0  0  0  0  0  0  0  0
   -4.9235   -2.3675    0.0000 H   0  0  0  0  0  0  0  0  0  0  0  0
   -5.3871   -3.7941    0.0000 H   0  0  0  0  0  0  0  0  0  0  0  0
   -2.5339   -4.7211    0.0000 H   0  0  0  0  0  0  0  0  0  0  0  0
   -5.8912   -5.9960    0.0000 H   0  0  0  0  0  0  0  0  0  0  0  0
   -0.9494   -7.6017    0.0000 H   0  0  0  0  0  0  0  0  0  0  0  0
   -1.4896   -5.0604    0.0000 H   0  0  0  0  0  0  0  0  0  0  0  0
   -2.8801   -9.3402    0.0000 H   0  0  0  0  0  0  0  0  0  0  0  0
   -1.3716    3.5672    0.0000 H   0  0  0  0  0  0  0  0  0  0  0  0
   -2.1881    5.4010    0.0000 H   0  0  0  0  0  0  0  0  0  0  0  0
   -3.2156    5.9942    0.0000 H   0  0  0  0  0  0  0  0  0  0  0  0
   -5.2120    5.7844    0.0000 H   0  0  0  0  0  0  0  0  0  0  0  0
   -6.0936    4.9905    0.0000 H   0  0  0  0  0  0  0  0  0  0  0  0
   -6.5927    3.1909    0.0000 H   0  0  0  0  0  0  0  0  0  0  0  0
   -4.4712    0.9124    0.0000 H   0  0  0  0  0  0  0  0  0  0  0  0
   -5.3562   -0.6562    0.0000 H   0  0  0  0  0  0  0  0  0  0  0  0
   -8.2304    1.4390    0.0000 H   0  0  0  0  0  0  0  0  0  0  0  0
   -7.3034   -1.4142    0.0000 H   0  0  0  0  0  0  0  0  0  0  0  0
  -11.7348    0.0890    0.0000 H   0  0  0  0  0  0  0  0  0  0  0  0
   -9.9963    2.0198    0.0000 H   0  0  0  0  0  0  0  0  0  0  0  0
  1  2  1  0
  2  3  1  0
  2  4  1  0
  4  5  1  0
  5  6  1  0
  6  7  1  0
  7  8  2  0
  7  9  1  0
  9 10  1  0
 10 11  1  0
 11 12  2  0
 12 13  1  0
 13 14  1  0
 14 15  2  0
 15 16  1  0
 16 17  2  0
 17 18  1  0
 18 19  2  0
  9 20  1  0
 20 21  1  0
 21 22  2  0
 21 23  1  0
 23 24  1  0
 24 25  1  0
 25 26  2  0
 26 27  1  0
 27 28  2  0
 28 29  1  0
 28 30  1  0
 30 31  2  0
 23 32  1  0
 32 33  1  0
 33 34  2  0
 33 35  1  0
 35 36  1  0
 36 37  1  0
 35 38  1  0
 38 39  1  0
 39 40  2  0
 39 41  1  0
 41 42  1  0
 42 43  1  0
 43 44  2  0
 44 45  1  0
 45 46  1  0
 46 47  2  0
 47 48  1  0
 48 49  2  0
 49 50  1  0
 50 51  2  0
 41 52  1  0
 52 53  1  0
 53 54  2  0
 53 55  1  0
 55 56  1  0
 56 57  1  0
 57 58  2  0
 58 59  1  0
 59 60  1  0
 60 61  2  0
 55 62  1  0
 62 63  1  0
 63 64  2  0
 63 65  1  0
 65 66  1  0
 66 67  1  0
 67 68  1  0
 68 69  2  0
 68 70  1  0
  5 71  1  0
 71 72  2  0
 71 73  1  0
 73 74  1  0
 74 75  1  0
 75 76  1  0
 76 77  1  0
 77 78  1  0
 78 79  1  0
 79 80  1  0
 79 81  2  3
 74 82  1  0
 82 83  2  0
 82 84  1  0
 84 85  1  0
 85 86  1  0
 86 87  1  0
 87 88  1  0
 88 89  1  0
 89 90  2  0
 89 91  1  0
 91 92  1  0
 92 93  1  0
 93 94  1  0
 93 95  2  0
 19 11  1  0
 31 25  1  0
 47 43  1  0
 61 57  1  0
 70 65  1  0
 88 84  1  0
 19 14  1  0
 51 46  1  0
  1 96  1  0
  1 97  1  0
  1 98  1  0
  2 99  1  0
  3100  1  0
  3101  1  0
  3102  1  0
  4103  1  0
  4104  1  0
  5105  1  6
  6106  1  0
  9107  1  6
 10108  1  0
 10109  1  0
 12110  1  0
 13111  1  0
 15112  1  0
 16113  1  0
 17114  1  0
 18115  1  0
 20116  1  0
 23117  1  6
 24118  1  0
 24119  1  0
 26120  1  0
 27121  1  0
 29122  1  0
 30123  1  0
 31124  1  0
 32125  1  0
 35126  1  1
 36127  1  0
 36128  1  0
 37129  1  0
 38130  1  0
 41131  1  6
 42132  1  0
 42133  1  0
 44134  1  0
 45135  1  0
 48136  1  0
 49137  1  0
 50138  1  0
 51139  1  0
 52140  1  0
 55141  1  1
 56142  1  0
 56143  1  0
 58144  1  0
 59145  1  0
 60146  1  0
 62147  1  0
 65148  1  6
 66149  1  0
 66150  1  0
 67151  1  0
 67152  1  0
 70153  1  0
 73154  1  0
 74155  1  6
 75156  1  0
 75157  1  0
 76158  1  0
 76159  1  0
 77160  1  0
 77161  1  0
 78162  1  0
 80163  1  0
 80164  1  0
 81165  1  0
 85166  1  0
 85167  1  0
 86168  1  0
 86169  1  0
 87170  1  0
 87171  1  0
 88172  1  1
 91173  1  0
 92174  1  0
 92175  1  0
 94176  1  0
 94177  1  0
M  END
$$$$
