
     RDKit          3D

 29 30  0  0  0  0  0  0  0  0999 V2000
   -2.2460    2.9971    0.4755 O   0  0  0  0  0  0  0  0  0  0  0  0
   -2.9387    1.7940    0.3229 C   0  0  0  0  0  0  0  0  0  0  0  0
   -2.2821    0.5391    0.3150 C   0  0  0  0  0  0  0  0  0  0  0  0
   -3.0374   -0.6274    0.0984 C   0  0  0  0  0  0  0  0  0  0  0  0
   -4.4206   -0.5541   -0.0910 C   0  0  0  0  0  0  0  0  0  0  0  0
   -5.3499   -2.0194   -0.3495 Cl  0  0  0  0  0  0  0  0  0  0  0  0
   -5.0643    0.6844   -0.0621 C   0  0  0  0  0  0  0  0  0  0  0  0
   -4.3264    1.8510    0.1457 C   0  0  0  0  0  0  0  0  0  0  0  0
   -0.8307    0.4171    0.5667 C   0  0  0  0  0  0  0  0  0  0  0  0
   -0.3203    1.0221    1.5485 O   0  0  0  0  0  0  0  0  0  0  0  0
   -0.0193   -0.4339   -0.2608 N   0  0  0  0  0  0  0  0  0  0  0  0
    1.4093   -0.5375   -0.1322 C   0  0  0  0  0  0  0  0  0  0  0  0
    2.0444   -1.7873   -0.2575 C   0  0  0  0  0  0  0  0  0  0  0  0
    1.1145   -3.2612   -0.5002 Cl  0  0  0  0  0  0  0  0  0  0  0  0
    3.4378   -1.8811   -0.1597 C   0  0  0  0  0  0  0  0  0  0  0  0
    4.2215   -0.7342    0.0509 C   0  0  0  0  0  0  0  0  0  0  0  0
    3.5843    0.5138    0.1575 C   0  0  0  0  0  0  0  0  0  0  0  0
    2.1942    0.6112    0.0618 C   0  0  0  0  0  0  0  0  0  0  0  0
    5.6539   -0.8386    0.1498 N   0  0  0  0  0  4  0  0  0  0  0  0
    6.2753   -2.0617    0.0412 O   0  0  0  0  0  1  0  0  0  0  0  0
    6.3552    0.1773    0.3372 O   0  0  0  0  0  0  0  0  0  0  0  0
   -1.2367    3.0556    0.5027 H   0  0  0  0  0  0  0  0  0  0  0  0
   -2.5579   -1.5987    0.1031 H   0  0  0  0  0  0  0  0  0  0  0  0
   -6.1359    0.7449   -0.2040 H   0  0  0  0  0  0  0  0  0  0  0  0
   -4.8332    2.8078    0.1546 H   0  0  0  0  0  0  0  0  0  0  0  0
   -0.4926   -1.0335   -0.9732 H   0  0  0  0  0  0  0  0  0  0  0  0
    3.9060   -2.8531   -0.2475 H   0  0  0  0  0  0  0  0  0  0  0  0
    4.1615    1.4172    0.3074 H   0  0  0  0  0  0  0  0  0  0  0  0
    1.7338    1.5892    0.1157 H   0  0  0  0  0  0  0  0  0  0  0  0
  1  2  1  0
  2  3  2  0
  3  4  1  0
  4  5  2  0
  5  6  1  0
  5  7  1  0
  7  8  2  0
  3  9  1  0
  9 10  2  0
  9 11  1  0
 11 12  1  0
 12 13  2  0
 13 14  1  0
 13 15  1  0
 15 16  2  0
 16 17  1  0
 17 18  2  0
 16 19  1  0
 19 20  1  0
 19 21  2  0
  8  2  1  0
 18 12  1  0
  1 22  1  0
  4 23  1  0
  7 24  1  0
  8 25  1  0
 11 26  1  0
 15 27  1  0
 17 28  1  0
 18 29  1  0
M  CHG  2  19   1  20  -1
M  END
$$$$
