
     RDKit          3D

 94 95  0  0  0  0  0  0  0  0999 V2000
   -1.7787   -2.4636    0.9066 C   0  0  0  0  0  0  0  0  0  0  0  0
   -1.6863   -1.1991    1.7850 C   0  0  0  0  0  0  0  0  0  0  0  0
   -2.3585   -1.4583    3.1577 C   0  0  0  0  0  0  0  0  0  0  0  0
   -0.1846   -0.9423    2.0801 C   0  0  0  0  0  0  0  0  0  0  0  0
   -2.3646   -0.0073    1.0527 C   0  0  0  0  0  0  0  0  0  0  0  0
   -1.5842    0.9823    0.4213 C   0  0  0  0  0  0  0  0  0  0  0  0
   -2.1705    2.0189   -0.2900 C   0  0  0  0  0  0  0  0  0  0  0  0
   -1.1256    3.1929   -1.1596 S   0  0  0  0  0  0  0  0  0  0  0  0
   -1.1012    2.4376   -2.8525 C   0  0  0  0  0  0  0  0  0  0  0  0
   -1.6399    0.9924   -2.9375 C   0  0  0  0  0  0  0  0  0  0  0  0
   -1.9595    3.3287   -3.7568 C   0  0  0  0  0  0  0  0  0  0  0  0
    0.6232    2.5024   -3.4997 S   0  0  0  0  0  0  0  0  0  0  0  0
    1.4011    1.4082   -2.2959 C   0  0  0  0  0  0  0  0  0  0  0  0
    1.9491    1.9311   -1.1320 C   0  0  0  0  0  0  0  0  0  0  0  0
    2.5875    1.1084   -0.1816 C   0  0  0  0  0  0  0  0  0  0  0  0
    2.8026   -0.2603   -0.5377 C   0  0  0  0  0  0  0  0  0  0  0  0
    3.7532   -1.0158    0.1533 O   0  0  0  0  0  0  0  0  0  0  0  0
    5.1182   -0.9559   -0.1622 C   0  0  0  0  0  0  0  0  0  0  0  0
    5.5071   -0.2962   -1.1651 O   0  0  0  0  0  0  0  0  0  0  0  0
    6.1472   -1.6093    0.7189 C   0  0  0  0  0  0  0  0  0  0  0  0
    5.6508   -2.8877    1.4093 C   0  0  0  0  0  0  0  0  0  0  0  0
    4.7432   -2.5904    2.5653 C   0  0  0  0  0  0  0  0  0  0  0  0
    3.3829   -2.8674    2.4755 O   0  0  0  0  0  0  0  0  0  0  0  0
    5.2119   -2.0828    3.6192 O   0  0  0  0  0  0  0  0  0  0  0  0
    2.1132   -0.8390   -1.6484 C   0  0  0  0  0  0  0  0  0  0  0  0
    1.4894    0.0460   -2.5534 C   0  0  0  0  0  0  0  0  0  0  0  0
    2.1100   -2.3662   -1.9446 C   0  0  0  0  0  0  0  0  0  0  0  0
    3.3852   -2.7454   -2.7201 C   0  0  0  0  0  0  0  0  0  0  0  0
    0.8828   -2.7839   -2.8032 C   0  0  0  0  0  0  0  0  0  0  0  0
    2.0264   -3.2048   -0.6448 C   0  0  0  0  0  0  0  0  0  0  0  0
    3.0891    1.7589    1.1392 C   0  0  0  0  0  0  0  0  0  0  0  0
    2.0261    2.7457    1.6981 C   0  0  0  0  0  0  0  0  0  0  0  0
    3.3571    0.7341    2.2714 C   0  0  0  0  0  0  0  0  0  0  0  0
    4.3860    2.5399    0.8559 C   0  0  0  0  0  0  0  0  0  0  0  0
   -3.5509    2.1639   -0.3081 C   0  0  0  0  0  0  0  0  0  0  0  0
   -4.3964    1.2381    0.3419 C   0  0  0  0  0  0  0  0  0  0  0  0
   -3.7801    0.0669    0.8914 C   0  0  0  0  0  0  0  0  0  0  0  0
   -4.5344   -1.0543    1.2298 O   0  0  0  0  0  0  0  0  0  0  0  0
   -5.9276    1.5166    0.4109 C   0  0  0  0  0  0  0  0  0  0  0  0
   -6.2379    3.0397    0.3311 C   0  0  0  0  0  0  0  0  0  0  0  0
   -6.6366    0.8376   -0.7780 C   0  0  0  0  0  0  0  0  0  0  0  0
   -6.5406    1.0334    1.7550 C   0  0  0  0  0  0  0  0  0  0  0  0
   -1.3202   -2.2751   -0.0882 H   0  0  0  0  0  0  0  0  0  0  0  0
   -2.8294   -2.7787    0.7467 H   0  0  0  0  0  0  0  0  0  0  0  0
   -1.2432   -3.3132    1.3833 H   0  0  0  0  0  0  0  0  0  0  0  0
   -3.3601   -1.9196    3.0673 H   0  0  0  0  0  0  0  0  0  0  0  0
   -2.4518   -0.5083    3.7270 H   0  0  0  0  0  0  0  0  0  0  0  0
   -1.7599   -2.1686    3.7684 H   0  0  0  0  0  0  0  0  0  0  0  0
   -0.0534    0.0031    2.6497 H   0  0  0  0  0  0  0  0  0  0  0  0
    0.4108   -0.8940    1.1455 H   0  0  0  0  0  0  0  0  0  0  0  0
    0.2537   -1.7675    2.6823 H   0  0  0  0  0  0  0  0  0  0  0  0
   -0.5078    0.9469    0.4201 H   0  0  0  0  0  0  0  0  0  0  0  0
   -1.1473    0.3281   -2.2017 H   0  0  0  0  0  0  0  0  0  0  0  0
   -1.4606    0.5756   -3.9516 H   0  0  0  0  0  0  0  0  0  0  0  0
   -2.7345    0.9620   -2.7518 H   0  0  0  0  0  0  0  0  0  0  0  0
   -1.9495    2.9525   -4.8027 H   0  0  0  0  0  0  0  0  0  0  0  0
   -3.0111    3.3491   -3.3977 H   0  0  0  0  0  0  0  0  0  0  0  0
   -1.5710    4.3699   -3.7566 H   0  0  0  0  0  0  0  0  0  0  0  0
    1.8851    2.9988   -0.9911 H   0  0  0  0  0  0  0  0  0  0  0  0
    7.0240   -1.8788    0.0905 H   0  0  0  0  0  0  0  0  0  0  0  0
    6.5007   -0.8750    1.4744 H   0  0  0  0  0  0  0  0  0  0  0  0
    5.1457   -3.5509    0.6764 H   0  0  0  0  0  0  0  0  0  0  0  0
    6.5304   -3.4453    1.7976 H   0  0  0  0  0  0  0  0  0  0  0  0
    2.7581   -2.6595    3.2451 H   0  0  0  0  0  0  0  0  0  0  0  0
    1.0616   -0.3015   -3.4798 H   0  0  0  0  0  0  0  0  0  0  0  0
    3.4764   -2.1319   -3.6424 H   0  0  0  0  0  0  0  0  0  0  0  0
    3.3607   -3.8175   -3.0132 H   0  0  0  0  0  0  0  0  0  0  0  0
    4.2927   -2.5884   -2.1063 H   0  0  0  0  0  0  0  0  0  0  0  0
    0.9767   -2.4389   -3.8542 H   0  0  0  0  0  0  0  0  0  0  0  0
    0.7863   -3.8897   -2.8631 H   0  0  0  0  0  0  0  0  0  0  0  0
   -0.0562   -2.3805   -2.3659 H   0  0  0  0  0  0  0  0  0  0  0  0
    1.2305   -2.8172    0.0228 H   0  0  0  0  0  0  0  0  0  0  0  0
    2.9834   -3.2243   -0.0990 H   0  0  0  0  0  0  0  0  0  0  0  0
    1.7999   -4.2706   -0.8635 H   0  0  0  0  0  0  0  0  0  0  0  0
    1.0406    2.2431    1.7922 H   0  0  0  0  0  0  0  0  0  0  0  0
    1.9094    3.6493    1.0670 H   0  0  0  0  0  0  0  0  0  0  0  0
    2.3158    3.1246    2.7022 H   0  0  0  0  0  0  0  0  0  0  0  0
    2.5408   -0.0146    2.3313 H   0  0  0  0  0  0  0  0  0  0  0  0
    3.4333    1.2308    3.2627 H   0  0  0  0  0  0  0  0  0  0  0  0
    4.3277    0.2221    2.1403 H   0  0  0  0  0  0  0  0  0  0  0  0
    4.7586    3.0299    1.7815 H   0  0  0  0  0  0  0  0  0  0  0  0
    4.2136    3.3277    0.0914 H   0  0  0  0  0  0  0  0  0  0  0  0
    5.1793    1.8612    0.4798 H   0  0  0  0  0  0  0  0  0  0  0  0
   -3.9430    3.0077   -0.8523 H   0  0  0  0  0  0  0  0  0  0  0  0
   -5.3756   -1.3232    0.7445 H   0  0  0  0  0  0  0  0  0  0  0  0
   -6.0536    3.4501   -0.6838 H   0  0  0  0  0  0  0  0  0  0  0  0
   -5.6301    3.6024    1.0724 H   0  0  0  0  0  0  0  0  0  0  0  0
   -7.3104    3.2472    0.5377 H   0  0  0  0  0  0  0  0  0  0  0  0
   -6.5037   -0.2602   -0.7754 H   0  0  0  0  0  0  0  0  0  0  0  0
   -7.7281    1.0466   -0.7516 H   0  0  0  0  0  0  0  0  0  0  0  0
   -6.2311    1.2220   -1.7390 H   0  0  0  0  0  0  0  0  0  0  0  0
   -6.7368   -0.0528    1.7826 H   0  0  0  0  0  0  0  0  0  0  0  0
   -5.8782    1.3066    2.6046 H   0  0  0  0  0  0  0  0  0  0  0  0
   -7.5347    1.4949    1.9397 H   0  0  0  0  0  0  0  0  0  0  0  0
  1  2  1  0
  2  3  1  0
  2  4  1  0
  2  5  1  0
  5  6  2  0
  6  7  1  0
  7  8  1  0
  8  9  1  0
  9 10  1  0
  9 11  1  0
  9 12  1  0
 12 13  1  0
 13 14  2  0
 14 15  1  0
 15 16  2  0
 16 17  1  0
 17 18  1  0
 18 19  2  0
 18 20  1  0
 20 21  1  0
 21 22  1  0
 22 23  1  0
 22 24  2  0
 16 25  1  0
 25 26  2  0
 25 27  1  0
 27 28  1  0
 27 29  1  0
 27 30  1  0
 15 31  1  0
 31 32  1  0
 31 33  1  0
 31 34  1  0
  7 35  2  0
 35 36  1  0
 36 37  2  0
 37 38  1  0
 36 39  1  0
 39 40  1  0
 39 41  1  0
 39 42  1  0
 37  5  1  0
 26 13  1  0
  1 43  1  0
  1 44  1  0
  1 45  1  0
  3 46  1  0
  3 47  1  0
  3 48  1  0
  4 49  1  0
  4 50  1  0
  4 51  1  0
  6 52  1  0
 10 53  1  0
 10 54  1  0
 10 55  1  0
 11 56  1  0
 11 57  1  0
 11 58  1  0
 14 59  1  0
 20 60  1  0
 20 61  1  0
 21 62  1  0
 21 63  1  0
 23 64  1  0
 26 65  1  0
 28 66  1  0
 28 67  1  0
 28 68  1  0
 29 69  1  0
 29 70  1  0
 29 71  1  0
 30 72  1  0
 30 73  1  0
 30 74  1  0
 32 75  1  0
 32 76  1  0
 32 77  1  0
 33 78  1  0
 33 79  1  0
 33 80  1  0
 34 81  1  0
 34 82  1  0
 34 83  1  0
 35 84  1  0
 38 85  1  0
 40 86  1  0
 40 87  1  0
 40 88  1  0
 41 89  1  0
 41 90  1  0
 41 91  1  0
 42 92  1  0
 42 93  1  0
 42 94  1  0
M  END
$$$$
