
     RDKit          3D

 22 21  0  0  0  0  0  0  0  0999 V2000
    2.6184    0.6950    0.4425 C   0  0  0  0  0  0  0  0  0  0  0  0
    1.2468    0.9368   -0.1920 C   0  0  0  0  0  0  0  0  0  0  0  0
    0.1748   -0.0985    0.2399 C   0  0  2  0  0  0  0  0  0  0  0  0
    0.6024   -1.5241   -0.1692 C   0  0  0  0  0  0  0  0  0  0  0  0
   -1.2231    0.2469   -0.3680 C   0  0  2  0  0  0  0  0  0  0  0  0
   -1.6618    1.6065   -0.0365 N   0  0  0  0  0  0  0  0  0  0  0  0
   -2.2824   -0.7116    0.1021 C   0  0  0  0  0  0  0  0  0  0  0  0
   -2.9126   -1.5506   -0.8119 O   0  0  0  0  0  0  0  0  0  0  0  0
   -2.5977   -0.7625    1.3218 O   0  0  0  0  0  0  0  0  0  0  0  0
    3.1106   -0.1922   -0.0068 H   0  0  0  0  0  0  0  0  0  0  0  0
    3.2717    1.5736    0.2558 H   0  0  0  0  0  0  0  0  0  0  0  0
    2.5217    0.5547    1.5401 H   0  0  0  0  0  0  0  0  0  0  0  0
    0.9312    1.9534    0.1219 H   0  0  0  0  0  0  0  0  0  0  0  0
    1.3512    0.9394   -1.2991 H   0  0  0  0  0  0  0  0  0  0  0  0
    0.0929   -0.0708    1.3499 H   0  0  0  0  0  0  0  0  0  0  0  0
    0.7722   -1.5815   -1.2657 H   0  0  0  0  0  0  0  0  0  0  0  0
   -0.1699   -2.2699    0.1108 H   0  0  0  0  0  0  0  0  0  0  0  0
    1.5299   -1.8252    0.3593 H   0  0  0  0  0  0  0  0  0  0  0  0
   -1.1552    0.1616   -1.4767 H   0  0  0  0  0  0  0  0  0  0  0  0
   -1.4157    1.8321    0.9552 H   0  0  0  0  0  0  0  0  0  0  0  0
   -1.1804    2.2918   -0.6625 H   0  0  0  0  0  0  0  0  0  0  0  0
   -3.6250   -2.2049   -0.5109 H   0  0  0  0  0  0  0  0  0  0  0  0
  1  2  1  0
  2  3  1  0
  3  4  1  0
  3  5  1  0
  5  6  1  0
  5  7  1  0
  7  8  1  0
  7  9  2  0
  1 10  1  0
  1 11  1  0
  1 12  1  0
  2 13  1  0
  2 14  1  0
  3 15  1  1
  4 16  1  0
  4 17  1  0
  4 18  1  0
  5 19  1  6
  6 20  1  0
  6 21  1  0
  8 22  1  0
M  END
$$$$
