
     RDKit          3D

 30 30  0  0  0  0  0  0  0  0999 V2000
   -2.7318    2.6083   -0.0167 C   0  0  0  0  0  0  0  0  0  0  0  0
   -1.8166    1.5489   -0.6312 C   0  0  0  0  0  0  0  0  0  0  0  0
   -1.2207    0.6041    0.4339 C   0  0  2  0  0  0  0  0  0  0  0  0
   -0.1611   -0.2259   -0.1505 N   0  0  0  0  0  0  0  0  0  0  0  0
    1.2427   -0.1111    0.2047 C   0  0  0  0  0  0  0  0  0  0  0  0
    1.9649   -1.2500   -0.5542 C   0  0  1  0  0  0  0  0  0  0  0  0
    0.9829   -1.7439   -1.6379 C   0  0  0  0  0  0  0  0  0  0  0  0
   -0.3029   -1.1590   -1.2090 C   0  0  0  0  0  0  0  0  0  0  0  0
   -1.4088   -1.4426   -1.7409 O   0  0  0  0  0  0  0  0  0  0  0  0
    3.2923   -0.8066   -1.1282 C   0  0  0  0  0  0  0  0  0  0  0  0
    4.3306   -0.4933   -0.3436 C   0  0  0  0  0  0  0  0  0  0  0  0
    4.2285   -0.5546    1.0110 F   0  0  0  0  0  0  0  0  0  0  0  0
    5.5084   -0.1118   -0.9027 F   0  0  0  0  0  0  0  0  0  0  0  0
   -2.2547   -0.2764    1.0923 C   0  0  0  0  0  0  0  0  0  0  0  0
   -2.0752   -0.6982    2.4441 N   0  0  0  0  0  0  0  0  0  0  0  0
   -3.2528   -0.6902    0.4426 O   0  0  0  0  0  0  0  0  0  0  0  0
   -3.6028    2.1321    0.4806 H   0  0  0  0  0  0  0  0  0  0  0  0
   -3.1079    3.2813   -0.8158 H   0  0  0  0  0  0  0  0  0  0  0  0
   -2.1739    3.2180    0.7254 H   0  0  0  0  0  0  0  0  0  0  0  0
   -2.3851    0.9756   -1.3941 H   0  0  0  0  0  0  0  0  0  0  0  0
   -0.9854    2.0704   -1.1543 H   0  0  0  0  0  0  0  0  0  0  0  0
   -0.7676    1.2437    1.2246 H   0  0  0  0  0  0  0  0  0  0  0  0
    1.6141    0.8897   -0.1087 H   0  0  0  0  0  0  0  0  0  0  0  0
    1.3713   -0.2278    1.3027 H   0  0  0  0  0  0  0  0  0  0  0  0
    2.1434   -2.0915    0.1533 H   0  0  0  0  0  0  0  0  0  0  0  0
    0.9254   -2.8536   -1.6547 H   0  0  0  0  0  0  0  0  0  0  0  0
    1.2309   -1.3568   -2.6497 H   0  0  0  0  0  0  0  0  0  0  0  0
    3.4274   -0.7589   -2.2051 H   0  0  0  0  0  0  0  0  0  0  0  0
   -1.2362   -0.3995    2.9892 H   0  0  0  0  0  0  0  0  0  0  0  0
   -2.7791   -1.3203    2.8997 H   0  0  0  0  0  0  0  0  0  0  0  0
  1  2  1  0
  2  3  1  0
  3  4  1  0
  4  5  1  0
  5  6  1  0
  6  7  1  0
  7  8  1  0
  8  9  2  0
  6 10  1  0
 10 11  2  3
 11 12  1  0
 11 13  1  0
  3 14  1  0
 14 15  1  0
 14 16  2  0
  8  4  1  0
  1 17  1  0
  1 18  1  0
  1 19  1  0
  2 20  1  0
  2 21  1  0
  3 22  1  1
  5 23  1  0
  5 24  1  0
  6 25  1  1
  7 26  1  0
  7 27  1  0
 10 28  1  0
 15 29  1  0
 15 30  1  0
M  END
$$$$
