
     RDKit          3D

 75 78  0  0  0  0  0  0  0  0999 V2000
   12.5414   -0.2070   -0.7262 N   0  0  0  0  0  0  0  0  0  0  0  0
   11.2715   -0.7152   -1.1355 C   0  0  0  0  0  0  0  0  0  0  0  0
   10.1541   -0.3787   -0.4441 N   0  0  0  0  0  0  0  0  0  0  0  0
    8.9289   -0.8423   -0.8047 C   0  0  0  0  0  0  0  0  0  0  0  0
    7.9261   -0.5084   -0.1180 O   0  0  0  0  0  0  0  0  0  0  0  0
    8.7937   -1.6656   -1.8975 N   0  0  0  0  0  0  0  0  0  0  0  0
    9.9082   -2.0328   -2.6013 C   0  0  0  0  0  0  0  0  0  0  0  0
   11.1675   -1.5610   -2.2375 C   0  0  0  0  0  0  0  0  0  0  0  0
    7.4797   -2.2029   -2.3073 C   0  0  1  0  0  0  0  0  0  0  0  0
    7.0082   -3.3006   -1.3508 C   0  0  0  0  0  0  0  0  0  0  0  0
    5.6690   -2.8071   -0.8621 C   0  0  2  0  0  0  0  0  0  0  0  0
    4.7067   -3.8288   -0.8727 O   0  0  0  0  0  0  0  0  0  0  0  0
    5.3150   -1.7228   -1.8712 C   0  0  1  0  0  0  0  0  0  0  0  0
    4.4452   -0.6259   -1.2519 C   0  0  0  0  0  0  0  0  0  0  0  0
    4.1111    0.3130   -2.2471 O   0  0  0  0  0  0  0  0  0  0  0  0
    3.2047    1.5647   -1.5256 P   0  0  0  0  0  5  0  0  0  0  0  0
    2.6868    2.6118   -2.7516 O   0  0  0  0  0  0  0  0  0  0  0  0
    4.0873    2.3252   -0.5595 O   0  0  0  0  0  0  0  0  0  0  0  0
    1.8684    0.8945   -0.7059 O   0  0  0  0  0  0  0  0  0  0  0  0
    0.8692    2.1738   -0.1908 P   0  0  0  0  0  5  0  0  0  0  0  0
    1.7650    3.2978    0.7083 O   0  0  0  0  0  0  0  0  0  0  0  0
    0.2559    2.8537   -1.3954 O   0  0  0  0  0  0  0  0  0  0  0  0
   -0.3703    1.5038    0.7644 O   0  0  0  0  0  0  0  0  0  0  0  0
   -1.2001    2.7845    1.5254 P   0  0  0  0  0  5  0  0  0  0  0  0
   -1.4828    4.0707    0.4581 O   0  0  0  0  0  0  0  0  0  0  0  0
   -0.3739    3.2868    2.6880 O   0  0  0  0  0  0  0  0  0  0  0  0
   -2.6882    2.2311    2.1361 O   0  0  0  0  0  0  0  0  0  0  0  0
   -3.4882    1.4019    0.8806 P   0  0  0  0  0  5  0  0  0  0  0  0
   -3.4460    2.2760   -0.5735 O   0  0  0  0  0  0  0  0  0  0  0  0
   -2.8421    0.0489    0.6783 O   0  0  0  0  0  0  0  0  0  0  0  0
   -5.1123    1.1522    1.3285 O   0  0  0  0  0  0  0  0  0  0  0  0
   -5.7096    2.4091    1.5476 C   0  0  0  0  0  0  0  0  0  0  0  0
   -7.1868    2.2256    1.9174 C   0  0  1  0  0  0  0  0  0  0  0  0
   -7.8650    1.5997    0.8458 O   0  0  0  0  0  0  0  0  0  0  0  0
   -8.5804    0.5063    1.3773 C   0  0  2  0  0  0  0  0  0  0  0  0
   -7.9047    0.0830    2.6703 C   0  0  2  0  0  0  0  0  0  0  0  0
   -8.8246   -0.5117    3.5488 O   0  0  0  0  0  0  0  0  0  0  0  0
   -7.3631    1.3901    3.1966 C   0  0  2  0  0  0  0  0  0  0  0  0
   -8.2974    2.0018    4.0506 O   0  0  0  0  0  0  0  0  0  0  0  0
   -8.6257   -0.6140    0.4140 N   0  0  0  0  0  0  0  0  0  0  0  0
   -7.5386   -0.8782   -0.3757 C   0  0  0  0  0  0  0  0  0  0  0  0
   -7.5493   -1.9480   -1.2661 C   0  0  0  0  0  0  0  0  0  0  0  0
   -8.6813   -2.7527   -1.3272 C   0  0  0  0  0  0  0  0  0  0  0  0
   -8.7194   -3.7275   -2.1246 O   0  0  0  0  0  0  0  0  0  0  0  0
   -9.7428   -2.4876   -0.5221 N   0  0  0  0  0  0  0  0  0  0  0  0
   -9.7226   -1.4390    0.3472 C   0  0  0  0  0  0  0  0  0  0  0  0
  -10.7229   -1.2396    1.0905 O   0  0  0  0  0  0  0  0  0  0  0  0
    6.5182   -1.1704   -2.3476 O   0  0  0  0  0  0  0  0  0  0  0  0
   13.4127   -0.4569   -1.2451 H   0  0  0  0  0  0  0  0  0  0  0  0
   12.6126    0.4246    0.1022 H   0  0  0  0  0  0  0  0  0  0  0  0
    9.8317   -2.6968   -3.4542 H   0  0  0  0  0  0  0  0  0  0  0  0
   12.0442   -1.8516   -2.8027 H   0  0  0  0  0  0  0  0  0  0  0  0
    7.5419   -2.6321   -3.3343 H   0  0  0  0  0  0  0  0  0  0  0  0
    7.7056   -3.4514   -0.4973 H   0  0  0  0  0  0  0  0  0  0  0  0
    6.9049   -4.2630   -1.9004 H   0  0  0  0  0  0  0  0  0  0  0  0
    5.7767   -2.3764    0.1619 H   0  0  0  0  0  0  0  0  0  0  0  0
    4.9096   -4.4131   -0.0963 H   0  0  0  0  0  0  0  0  0  0  0  0
    4.7662   -2.1718   -2.7317 H   0  0  0  0  0  0  0  0  0  0  0  0
    5.0172   -0.1430   -0.4261 H   0  0  0  0  0  0  0  0  0  0  0  0
    3.5250   -1.1009   -0.8423 H   0  0  0  0  0  0  0  0  0  0  0  0
    3.5180    2.8961   -3.2090 H   0  0  0  0  0  0  0  0  0  0  0  0
    2.1432    2.7745    1.4594 H   0  0  0  0  0  0  0  0  0  0  0  0
   -2.0682    4.6919    0.9604 H   0  0  0  0  0  0  0  0  0  0  0  0
   -2.6785    1.9073   -1.0796 H   0  0  0  0  0  0  0  0  0  0  0  0
   -5.6641    3.0353    0.6275 H   0  0  0  0  0  0  0  0  0  0  0  0
   -5.2041    2.9496    2.3802 H   0  0  0  0  0  0  0  0  0  0  0  0
   -7.6245    3.2387    2.0619 H   0  0  0  0  0  0  0  0  0  0  0  0
   -9.6106    0.8710    1.5969 H   0  0  0  0  0  0  0  0  0  0  0  0
   -7.0622   -0.6156    2.4521 H   0  0  0  0  0  0  0  0  0  0  0  0
   -8.2918   -0.8943    4.2939 H   0  0  0  0  0  0  0  0  0  0  0  0
   -6.4059    1.2139    3.7425 H   0  0  0  0  0  0  0  0  0  0  0  0
   -7.8173    2.7393    4.5102 H   0  0  0  0  0  0  0  0  0  0  0  0
   -6.6498   -0.2631   -0.3221 H   0  0  0  0  0  0  0  0  0  0  0  0
   -6.6888   -2.1478   -1.8928 H   0  0  0  0  0  0  0  0  0  0  0  0
  -10.5875   -3.1027   -0.5673 H   0  0  0  0  0  0  0  0  0  0  0  0
  1  2  1  0
  2  3  2  0
  3  4  1  0
  4  5  2  0
  4  6  1  0
  6  7  1  0
  7  8  2  0
  6  9  1  0
  9 10  1  0
 10 11  1  0
 11 12  1  0
 11 13  1  0
 13 14  1  0
 14 15  1  0
 15 16  1  0
 16 17  1  0
 16 18  2  0
 16 19  1  0
 19 20  1  0
 20 21  1  0
 20 22  2  0
 20 23  1  0
 23 24  1  0
 24 25  1  0
 24 26  2  0
 24 27  1  0
 27 28  1  0
 28 29  1  0
 28 30  2  0
 28 31  1  0
 31 32  1  0
 32 33  1  0
 33 34  1  0
 34 35  1  0
 35 36  1  0
 36 37  1  0
 36 38  1  0
 38 39  1  0
 35 40  1  0
 40 41  1  0
 41 42  2  0
 42 43  1  0
 43 44  2  0
 43 45  1  0
 45 46  1  0
 46 47  2  0
 13 48  1  0
  8  2  1  0
 48  9  1  0
 38 33  1  0
 46 40  1  0
  1 49  1  0
  1 50  1  0
  7 51  1  0
  8 52  1  0
  9 53  1  6
 10 54  1  0
 10 55  1  0
 11 56  1  1
 12 57  1  0
 13 58  1  6
 14 59  1  0
 14 60  1  0
 17 61  1  0
 21 62  1  0
 25 63  1  0
 29 64  1  0
 32 65  1  0
 32 66  1  0
 33 67  1  1
 35 68  1  1
 36 69  1  6
 37 70  1  0
 38 71  1  1
 39 72  1  0
 41 73  1  0
 42 74  1  0
 45 75  1  0
M  END
$$$$
