
     RDKit          3D

 74 80  0  0  0  0  0  0  0  0999 V2000
    0.0868    0.8086   -0.4082 C   0  0  1  0  0  0  0  0  0  0  0  0
   -0.9917    1.8728   -0.6523 C   0  0  0  0  0  0  0  0  0  0  0  0
   -0.8968    2.7059    0.4992 O   0  0  0  0  0  0  0  0  0  0  0  0
   -0.2257    2.0488    1.5178 C   0  0  0  0  0  0  0  0  0  0  0  0
   -0.0785    2.5294    2.6716 O   0  0  0  0  0  0  0  0  0  0  0  0
    0.1409    0.6729    1.1101 C   0  0  2  0  0  0  0  0  0  0  0  0
    1.4773    0.0426    1.5498 C   0  0  2  0  0  0  0  0  0  0  0  0
    2.6518    1.0173    1.5177 C   0  0  0  0  0  0  0  0  0  0  0  0
    3.4462    1.1889    0.3685 C   0  0  0  0  0  0  0  0  0  0  0  0
    4.5113    2.1075    0.3569 C   0  0  0  0  0  0  0  0  0  0  0  0
    5.3158    2.2950   -0.7791 O   0  0  0  0  0  0  0  0  0  0  0  0
    5.1496    1.6014   -2.0118 C   0  0  0  0  0  0  0  0  0  0  0  0
    4.7832    2.8618    1.5113 C   0  0  0  0  0  0  0  0  0  0  0  0
    5.8315    3.7834    1.5301 O   0  0  0  0  0  0  0  0  0  0  0  0
    4.0048    2.6998    2.6647 C   0  0  0  0  0  0  0  0  0  0  0  0
    4.3146    3.4763    3.7928 O   0  0  0  0  0  0  0  0  0  0  0  0
    3.6055    3.4269    5.0267 C   0  0  0  0  0  0  0  0  0  0  0  0
    2.9452    1.7753    2.6621 C   0  0  0  0  0  0  0  0  0  0  0  0
    1.7468   -1.2142    0.7179 C   0  0  0  0  0  0  0  0  0  0  0  0
    2.7380   -2.1143    1.1691 C   0  0  0  0  0  0  0  0  0  0  0  0
    3.0327   -3.2210    0.3838 C   0  0  0  0  0  0  0  0  0  0  0  0
    2.4039   -3.4586   -0.7917 C   0  0  0  0  0  0  0  0  0  0  0  0
    2.8988   -4.6203   -1.3524 O   0  0  0  0  0  0  0  0  0  0  0  0
    3.9033   -5.1439   -0.4729 C   0  0  0  0  0  0  0  0  0  0  0  0
    3.9568   -4.2198    0.6225 O   0  0  0  0  0  0  0  0  0  0  0  0
    1.4200   -2.6133   -1.2888 C   0  0  0  0  0  0  0  0  0  0  0  0
    1.0746   -1.4677   -0.5382 C   0  0  0  0  0  0  0  0  0  0  0  0
   -0.0538   -0.5757   -1.0509 C   0  0  1  0  0  0  0  0  0  0  0  0
   -1.2954   -1.1597   -0.6824 O   0  0  0  0  0  0  0  0  0  0  0  0
   -2.0058   -1.6555   -1.8039 C   0  0  2  0  0  0  0  0  0  0  0  0
   -2.6291   -0.5631   -2.4882 O   0  0  0  0  0  0  0  0  0  0  0  0
   -4.0127   -0.4109   -2.1986 C   0  0  2  0  0  0  0  0  0  0  0  0
   -4.4989    1.0098   -2.5313 C   0  0  0  0  0  0  0  0  0  0  0  0
   -4.7851    1.7587   -1.3635 O   0  0  0  0  0  0  0  0  0  0  0  0
   -5.7638    1.1186   -0.5390 C   0  0  1  0  0  0  0  0  0  0  0  0
   -7.1728    1.5137   -0.9757 C   0  0  0  0  0  0  0  0  0  0  0  0
   -5.6616   -0.3032   -0.4803 O   0  0  0  0  0  0  0  0  0  0  0  0
   -4.3341   -0.7012   -0.7302 C   0  0  1  0  0  0  0  0  0  0  0  0
   -4.1355   -2.2026   -0.4568 C   0  0  2  0  0  0  0  0  0  0  0  0
   -3.8453   -2.4026    0.9033 O   0  0  0  0  0  0  0  0  0  0  0  0
   -2.9800   -2.7732   -1.3238 C   0  0  1  0  0  0  0  0  0  0  0  0
   -3.5196   -3.4395   -2.4384 O   0  0  0  0  0  0  0  0  0  0  0  0
    1.0315    1.2597   -0.7824 H   0  0  0  0  0  0  0  0  0  0  0  0
   -2.0016    1.4207   -0.6938 H   0  0  0  0  0  0  0  0  0  0  0  0
   -0.7959    2.4567   -1.5766 H   0  0  0  0  0  0  0  0  0  0  0  0
   -0.6853    0.0142    1.4637 H   0  0  0  0  0  0  0  0  0  0  0  0
    1.3378   -0.2939    2.6022 H   0  0  0  0  0  0  0  0  0  0  0  0
    3.2394    0.6005   -0.5134 H   0  0  0  0  0  0  0  0  0  0  0  0
    5.9196    1.9499   -2.7301 H   0  0  0  0  0  0  0  0  0  0  0  0
    4.1456    1.8128   -2.4368 H   0  0  0  0  0  0  0  0  0  0  0  0
    5.2776    0.5093   -1.8560 H   0  0  0  0  0  0  0  0  0  0  0  0
    6.4272    3.9429    0.7267 H   0  0  0  0  0  0  0  0  0  0  0  0
    2.5430    3.7085    4.8680 H   0  0  0  0  0  0  0  0  0  0  0  0
    4.0616    4.1475    5.7359 H   0  0  0  0  0  0  0  0  0  0  0  0
    3.6708    2.4083    5.4641 H   0  0  0  0  0  0  0  0  0  0  0  0
    2.3418    1.6400    3.5494 H   0  0  0  0  0  0  0  0  0  0  0  0
    3.2699   -1.9468    2.0972 H   0  0  0  0  0  0  0  0  0  0  0  0
    4.8844   -5.1813   -0.9909 H   0  0  0  0  0  0  0  0  0  0  0  0
    3.6081   -6.1509   -0.1105 H   0  0  0  0  0  0  0  0  0  0  0  0
    0.9393   -2.8398   -2.2309 H   0  0  0  0  0  0  0  0  0  0  0  0
    0.0662   -0.4271   -2.1519 H   0  0  0  0  0  0  0  0  0  0  0  0
   -1.3127   -2.1527   -2.5202 H   0  0  0  0  0  0  0  0  0  0  0  0
   -4.5876   -1.1079   -2.8505 H   0  0  0  0  0  0  0  0  0  0  0  0
   -3.7174    1.5484   -3.1085 H   0  0  0  0  0  0  0  0  0  0  0  0
   -5.3969    0.9690   -3.1865 H   0  0  0  0  0  0  0  0  0  0  0  0
   -5.6254    1.5065    0.4936 H   0  0  0  0  0  0  0  0  0  0  0  0
   -7.4127    1.0784   -1.9680 H   0  0  0  0  0  0  0  0  0  0  0  0
   -7.2565    2.6196   -1.0334 H   0  0  0  0  0  0  0  0  0  0  0  0
   -7.9138    1.1385   -0.2382 H   0  0  0  0  0  0  0  0  0  0  0  0
   -3.6343   -0.1380   -0.0669 H   0  0  0  0  0  0  0  0  0  0  0  0
   -5.0737   -2.7510   -0.7120 H   0  0  0  0  0  0  0  0  0  0  0  0
   -4.6900   -2.2491    1.4023 H   0  0  0  0  0  0  0  0  0  0  0  0
   -2.4027   -3.5086   -0.7135 H   0  0  0  0  0  0  0  0  0  0  0  0
   -2.8105   -4.0394   -2.7898 H   0  0  0  0  0  0  0  0  0  0  0  0
  1  2  1  0
  2  3  1  0
  3  4  1  0
  4  5  2  0
  4  6  1  0
  6  7  1  0
  7  8  1  0
  8  9  2  0
  9 10  1  0
 10 11  1  0
 11 12  1  0
 10 13  2  0
 13 14  1  0
 13 15  1  0
 15 16  1  0
 16 17  1  0
 15 18  2  0
  7 19  1  0
 19 20  2  0
 20 21  1  0
 21 22  2  0
 22 23  1  0
 23 24  1  0
 24 25  1  0
 22 26  1  0
 26 27  2  0
 27 28  1  0
 28 29  1  0
 29 30  1  0
 30 31  1  0
 31 32  1  0
 32 33  1  0
 33 34  1  0
 34 35  1  0
 35 36  1  0
 35 37  1  0
 37 38  1  0
 38 39  1  0
 39 40  1  0
 39 41  1  0
 41 42  1  0
  6  1  1  0
 18  8  1  0
 27 19  1  0
 41 30  1  0
 28  1  1  0
 38 32  1  0
 25 21  1  0
  1 43  1  6
  2 44  1  0
  2 45  1  0
  6 46  1  1
  7 47  1  1
  9 48  1  0
 12 49  1  0
 12 50  1  0
 12 51  1  0
 14 52  1  0
 17 53  1  0
 17 54  1  0
 17 55  1  0
 18 56  1  0
 20 57  1  0
 24 58  1  0
 24 59  1  0
 26 60  1  0
 28 61  1  6
 30 62  1  6
 32 63  1  6
 33 64  1  0
 33 65  1  0
 35 66  1  1
 36 67  1  0
 36 68  1  0
 36 69  1  0
 38 70  1  1
 39 71  1  6
 40 72  1  0
 41 73  1  1
 42 74  1  0
M  END
$$$$
