
     RDKit          3D

 57 59  0  0  0  0  0  0  0  0999 V2000
   -3.3879   -1.4566    3.5272 N   0  0  0  0  0  0  0  0  0  0  0  0
   -2.6867   -2.0556    2.4351 C   0  0  0  0  0  0  0  0  0  0  0  0
   -2.5076   -3.3046    2.4375 O   0  0  0  0  0  0  0  0  0  0  0  0
   -2.1590   -1.1820    1.2965 C   0  0  0  0  0  0  0  0  0  0  0  0
   -1.0142   -0.3115    1.9259 C   0  0  0  0  0  0  0  0  0  0  0  0
    0.1826   -0.0604    0.9858 C   0  0  0  0  0  0  0  0  0  0  0  0
   -0.2587   -0.0186   -0.4168 N   0  0  0  0  0  0  0  0  0  0  0  0
    0.7082    0.6197   -1.3369 C   0  0  0  0  0  0  0  0  0  0  0  0
    2.1299    0.0221   -1.2770 C   0  0  0  0  0  0  0  0  0  0  0  0
    3.0381    0.6761   -2.3250 C   0  0  0  0  0  0  0  0  0  0  0  0
    4.4403    0.1354   -2.2307 C   0  0  0  0  0  0  0  0  0  0  0  0
    4.7526   -0.8268   -2.9844 O   0  0  0  0  0  0  0  0  0  0  0  0
    5.4468    0.6663   -1.2675 C   0  0  0  0  0  0  0  0  0  0  0  0
    5.1167    1.6535   -0.3148 C   0  0  0  0  0  0  0  0  0  0  0  0
    6.0812    2.1303    0.5784 C   0  0  0  0  0  0  0  0  0  0  0  0
    7.3846    1.6328    0.5365 C   0  0  0  0  0  0  0  0  0  0  0  0
    8.3168    2.0977    1.4044 F   0  0  0  0  0  0  0  0  0  0  0  0
    7.7269    0.6552   -0.3989 C   0  0  0  0  0  0  0  0  0  0  0  0
    6.7673    0.1737   -1.2944 C   0  0  0  0  0  0  0  0  0  0  0  0
   -0.7574   -1.3210   -0.9041 C   0  0  0  0  0  0  0  0  0  0  0  0
   -1.5517   -2.0875    0.1723 C   0  0  0  0  0  0  0  0  0  0  0  0
   -3.3180   -0.3476    0.8171 N   0  0  0  0  0  0  0  0  0  0  0  0
   -4.4155   -1.1274    0.1935 C   0  0  0  0  0  0  0  0  0  0  0  0
   -5.7004   -0.2943    0.1695 C   0  0  0  0  0  0  0  0  0  0  0  0
   -5.4755    1.0139   -0.5936 C   0  0  0  0  0  0  0  0  0  0  0  0
   -4.2639    1.7659   -0.0353 C   0  0  0  0  0  0  0  0  0  0  0  0
   -3.0304    0.8563    0.0005 C   0  0  0  0  0  0  0  0  0  0  0  0
   -3.7503   -2.0477    4.3078 H   0  0  0  0  0  0  0  0  0  0  0  0
   -3.5476   -0.4253    3.5597 H   0  0  0  0  0  0  0  0  0  0  0  0
   -1.4192    0.6501    2.3065 H   0  0  0  0  0  0  0  0  0  0  0  0
   -0.5900   -0.8090    2.8283 H   0  0  0  0  0  0  0  0  0  0  0  0
    0.9335   -0.8714    1.1238 H   0  0  0  0  0  0  0  0  0  0  0  0
    0.6597    0.9029    1.2727 H   0  0  0  0  0  0  0  0  0  0  0  0
    0.3222    0.5556   -2.3787 H   0  0  0  0  0  0  0  0  0  0  0  0
    0.7648    1.7028   -1.0916 H   0  0  0  0  0  0  0  0  0  0  0  0
    2.1018   -1.0708   -1.4653 H   0  0  0  0  0  0  0  0  0  0  0  0
    2.5632    0.1894   -0.2688 H   0  0  0  0  0  0  0  0  0  0  0  0
    2.6350    0.4612   -3.3392 H   0  0  0  0  0  0  0  0  0  0  0  0
    3.0415    1.7808   -2.2121 H   0  0  0  0  0  0  0  0  0  0  0  0
    4.1180    2.0595   -0.2440 H   0  0  0  0  0  0  0  0  0  0  0  0
    5.8149    2.8868    1.3056 H   0  0  0  0  0  0  0  0  0  0  0  0
    8.7373    0.2684   -0.4319 H   0  0  0  0  0  0  0  0  0  0  0  0
    7.0621   -0.5837   -2.0099 H   0  0  0  0  0  0  0  0  0  0  0  0
    0.0756   -1.9674   -1.2520 H   0  0  0  0  0  0  0  0  0  0  0  0
   -1.4174   -1.1497   -1.7811 H   0  0  0  0  0  0  0  0  0  0  0  0
   -2.3235   -2.7237   -0.3089 H   0  0  0  0  0  0  0  0  0  0  0  0
   -0.8341   -2.7951    0.6462 H   0  0  0  0  0  0  0  0  0  0  0  0
   -4.1505   -1.4189   -0.8475 H   0  0  0  0  0  0  0  0  0  0  0  0
   -4.6286   -2.0564    0.7629 H   0  0  0  0  0  0  0  0  0  0  0  0
   -6.5114   -0.8741   -0.3215 H   0  0  0  0  0  0  0  0  0  0  0  0
   -6.0150   -0.0698    1.2124 H   0  0  0  0  0  0  0  0  0  0  0  0
   -5.3112    0.7924   -1.6712 H   0  0  0  0  0  0  0  0  0  0  0  0
   -6.3804    1.6532   -0.5081 H   0  0  0  0  0  0  0  0  0  0  0  0
   -4.4892    2.1235    0.9936 H   0  0  0  0  0  0  0  0  0  0  0  0
   -4.0545    2.6523   -0.6722 H   0  0  0  0  0  0  0  0  0  0  0  0
   -2.2074    1.4614    0.4247 H   0  0  0  0  0  0  0  0  0  0  0  0
   -2.7645    0.5789   -1.0409 H   0  0  0  0  0  0  0  0  0  0  0  0
  1  2  1  0
  2  3  2  0
  2  4  1  0
  4  5  1  0
  5  6  1  0
  6  7  1  0
  7  8  1  0
  8  9  1  0
  9 10  1  0
 10 11  1  0
 11 12  2  0
 11 13  1  0
 13 14  2  0
 14 15  1  0
 15 16  2  0
 16 17  1  0
 16 18  1  0
 18 19  2  0
  7 20  1  0
 20 21  1  0
  4 22  1  0
 22 23  1  0
 23 24  1  0
 24 25  1  0
 25 26  1  0
 26 27  1  0
 21  4  1  0
 27 22  1  0
 19 13  1  0
  1 28  1  0
  1 29  1  0
  5 30  1  0
  5 31  1  0
  6 32  1  0
  6 33  1  0
  8 34  1  0
  8 35  1  0
  9 36  1  0
  9 37  1  0
 10 38  1  0
 10 39  1  0
 14 40  1  0
 15 41  1  0
 18 42  1  0
 19 43  1  0
 20 44  1  0
 20 45  1  0
 21 46  1  0
 21 47  1  0
 23 48  1  0
 23 49  1  0
 24 50  1  0
 24 51  1  0
 25 52  1  0
 25 53  1  0
 26 54  1  0
 26 55  1  0
 27 56  1  0
 27 57  1  0
M  END
$$$$
