
     RDKit          3D

 78 79  0  0  0  0  0  0  0  0999 V2000
   -6.1381   -1.4502    1.4641 C   0  0  0  0  0  0  0  0  0  0  0  0
   -6.1491   -1.5913   -0.0669 C   0  0  0  0  0  0  0  0  0  0  0  0
   -5.3290   -0.5940   -0.8385 N   0  0  0  0  0  4  0  0  0  0  0  0
   -5.2796   -1.0492   -2.2762 C   0  0  0  0  0  0  0  0  0  0  0  0
   -4.5090   -2.3586   -2.5638 C   0  0  0  0  0  0  0  0  0  0  0  0
   -3.9075   -0.5313   -0.3261 C   0  0  0  0  0  0  0  0  0  0  0  0
   -3.5991    0.4911    0.8001 C   0  0  0  0  0  0  0  0  0  0  0  0
   -2.2725    0.2371    1.3609 N   0  0  0  0  0  0  0  0  0  0  0  0
   -1.0614    0.5845    0.6704 C   0  0  0  0  0  0  0  0  0  0  0  0
   -1.1184    1.1824   -0.4383 O   0  0  0  0  0  0  0  0  0  0  0  0
    0.2536    0.2522    1.2520 C   0  0  0  0  0  0  0  0  0  0  0  0
    0.3107   -0.3504    2.3583 O   0  0  0  0  0  0  0  0  0  0  0  0
    1.4652    0.6066    0.5684 N   0  0  0  0  0  0  0  0  0  0  0  0
    2.7776    0.2819    1.1294 C   0  0  0  0  0  0  0  0  0  0  0  0
    3.9073    0.7842    0.1947 C   0  0  0  0  0  0  0  0  0  0  0  0
    5.3209    0.5978    0.6896 N   0  0  0  0  0  4  0  0  0  0  0  0
    6.2144    1.1258   -0.4091 C   0  0  0  0  0  0  0  0  0  0  0  0
    7.6404    1.5702   -0.0113 C   0  0  0  0  0  0  0  0  0  0  0  0
    5.5275    1.3240    1.9879 C   0  0  0  0  0  0  0  0  0  0  0  0
    5.1333    2.8134    1.9761 C   0  0  0  0  0  0  0  0  0  0  0  0
    5.5334   -0.8835    0.8924 C   0  0  0  0  0  0  0  0  0  0  0  0
    6.9688   -1.3430    1.1117 C   0  0  0  0  0  0  0  0  0  0  0  0
    7.7368   -1.7348   -0.0042 C   0  0  0  0  0  0  0  0  0  0  0  0
    9.0584   -2.1576    0.1507 C   0  0  0  0  0  0  0  0  0  0  0  0
    9.6268   -2.2234    1.4215 C   0  0  0  0  0  0  0  0  0  0  0  0
    8.8679   -1.8888    2.5433 C   0  0  0  0  0  0  0  0  0  0  0  0
    7.5401   -1.4650    2.4038 C   0  0  0  0  0  0  0  0  0  0  0  0
    6.6236   -1.1775    3.8796 Cl  0  0  0  0  0  0  0  0  0  0  0  0
   -5.9658    0.7767   -0.8012 C   0  0  0  0  0  0  0  0  0  0  0  0
   -7.2886    0.9334   -1.5592 C   0  0  0  0  0  0  0  0  0  0  0  0
   -7.2513    1.2822   -2.9261 C   0  0  0  0  0  0  0  0  0  0  0  0
   -8.4278    1.4288   -3.6628 C   0  0  0  0  0  0  0  0  0  0  0  0
   -9.6645    1.2604   -3.0445 C   0  0  0  0  0  0  0  0  0  0  0  0
   -9.7277    0.9694   -1.6823 C   0  0  0  0  0  0  0  0  0  0  0  0
   -8.5551    0.8214   -0.9298 C   0  0  0  0  0  0  0  0  0  0  0  0
   -8.7434    0.5822    0.8012 Cl  0  0  0  0  0  0  0  0  0  0  0  0
   -6.8810   -2.1551    1.8938 H   0  0  0  0  0  0  0  0  0  0  0  0
   -5.1481   -1.7309    1.8794 H   0  0  0  0  0  0  0  0  0  0  0  0
   -6.4140   -0.4365    1.8044 H   0  0  0  0  0  0  0  0  0  0  0  0
   -7.2039   -1.5779   -0.4159 H   0  0  0  0  0  0  0  0  0  0  0  0
   -5.7906   -2.6232   -0.2500 H   0  0  0  0  0  0  0  0  0  0  0  0
   -4.8048   -0.2623   -2.9048 H   0  0  0  0  0  0  0  0  0  0  0  0
   -6.3065   -1.2111   -2.6725 H   0  0  0  0  0  0  0  0  0  0  0  0
   -3.4698   -2.3401   -2.1807 H   0  0  0  0  0  0  0  0  0  0  0  0
   -4.4430   -2.4930   -3.6643 H   0  0  0  0  0  0  0  0  0  0  0  0
   -5.0387   -3.2491   -2.1724 H   0  0  0  0  0  0  0  0  0  0  0  0
   -3.5830   -1.5376    0.0241 H   0  0  0  0  0  0  0  0  0  0  0  0
   -3.2133   -0.2594   -1.1533 H   0  0  0  0  0  0  0  0  0  0  0  0
   -4.3344    0.4347    1.6210 H   0  0  0  0  0  0  0  0  0  0  0  0
   -3.6297    1.5304    0.4091 H   0  0  0  0  0  0  0  0  0  0  0  0
   -2.2172   -0.1747    2.3197 H   0  0  0  0  0  0  0  0  0  0  0  0
    1.4034    1.1037   -0.3493 H   0  0  0  0  0  0  0  0  0  0  0  0
    2.8335   -0.8193    1.2468 H   0  0  0  0  0  0  0  0  0  0  0  0
    2.8515    0.7556    2.1280 H   0  0  0  0  0  0  0  0  0  0  0  0
    3.7788    0.2643   -0.7837 H   0  0  0  0  0  0  0  0  0  0  0  0
    3.7053    1.8566   -0.0238 H   0  0  0  0  0  0  0  0  0  0  0  0
    6.2925    0.3805   -1.2304 H   0  0  0  0  0  0  0  0  0  0  0  0
    5.7637    2.0204   -0.8965 H   0  0  0  0  0  0  0  0  0  0  0  0
    8.2421    1.7161   -0.9330 H   0  0  0  0  0  0  0  0  0  0  0  0
    8.1742    0.8419    0.6224 H   0  0  0  0  0  0  0  0  0  0  0  0
    7.6201    2.5425    0.5209 H   0  0  0  0  0  0  0  0  0  0  0  0
    6.5855    1.2538    2.3136 H   0  0  0  0  0  0  0  0  0  0  0  0
    4.9549    0.8404    2.8067 H   0  0  0  0  0  0  0  0  0  0  0  0
    5.5203    3.3427    1.0838 H   0  0  0  0  0  0  0  0  0  0  0  0
    5.5495    3.3081    2.8789 H   0  0  0  0  0  0  0  0  0  0  0  0
    4.0305    2.9295    2.0146 H   0  0  0  0  0  0  0  0  0  0  0  0
    4.9338   -1.2514    1.7505 H   0  0  0  0  0  0  0  0  0  0  0  0
    5.1353   -1.4488    0.0180 H   0  0  0  0  0  0  0  0  0  0  0  0
    7.3150   -1.7081   -1.0005 H   0  0  0  0  0  0  0  0  0  0  0  0
    9.6412   -2.4387   -0.7170 H   0  0  0  0  0  0  0  0  0  0  0  0
   10.6508   -2.5535    1.5396 H   0  0  0  0  0  0  0  0  0  0  0  0
    9.3099   -1.9762    3.5279 H   0  0  0  0  0  0  0  0  0  0  0  0
   -6.1165    1.1229    0.2396 H   0  0  0  0  0  0  0  0  0  0  0  0
   -5.2595    1.5195   -1.2375 H   0  0  0  0  0  0  0  0  0  0  0  0
   -6.3062    1.4417   -3.4283 H   0  0  0  0  0  0  0  0  0  0  0  0
   -8.3795    1.6801   -4.7146 H   0  0  0  0  0  0  0  0  0  0  0  0
  -10.5760    1.3775   -3.6162 H   0  0  0  0  0  0  0  0  0  0  0  0
  -10.6953    0.8769   -1.2050 H   0  0  0  0  0  0  0  0  0  0  0  0
  1  2  1  0
  2  3  1  0
  3  4  1  0
  4  5  1  0
  3  6  1  0
  6  7  1  0
  7  8  1  0
  8  9  1  0
  9 10  2  0
  9 11  1  0
 11 12  2  0
 11 13  1  0
 13 14  1  0
 14 15  1  0
 15 16  1  0
 16 17  1  0
 17 18  1  0
 16 19  1  0
 19 20  1  0
 16 21  1  0
 21 22  1  0
 22 23  2  0
 23 24  1  0
 24 25  2  0
 25 26  1  0
 26 27  2  0
 27 28  1  0
  3 29  1  0
 29 30  1  0
 30 31  2  0
 31 32  1  0
 32 33  2  0
 33 34  1  0
 34 35  2  0
 35 36  1  0
 27 22  1  0
 35 30  1  0
  1 37  1  0
  1 38  1  0
  1 39  1  0
  2 40  1  0
  2 41  1  0
  4 42  1  0
  4 43  1  0
  5 44  1  0
  5 45  1  0
  5 46  1  0
  6 47  1  0
  6 48  1  0
  7 49  1  0
  7 50  1  0
  8 51  1  0
 13 52  1  0
 14 53  1  0
 14 54  1  0
 15 55  1  0
 15 56  1  0
 17 57  1  0
 17 58  1  0
 18 59  1  0
 18 60  1  0
 18 61  1  0
 19 62  1  0
 19 63  1  0
 20 64  1  0
 20 65  1  0
 20 66  1  0
 21 67  1  0
 21 68  1  0
 23 69  1  0
 24 70  1  0
 25 71  1  0
 26 72  1  0
 29 73  1  0
 29 74  1  0
 31 75  1  0
 32 76  1  0
 33 77  1  0
 34 78  1  0
M  CHG  2   3   1  16   1
M  END
$$$$
