
     RDKit          3D

 26 27  0  0  0  0  0  0  0  0999 V2000
    2.3161   -2.4702   -0.8855 O   0  0  0  0  0  0  0  0  0  0  0  0
    2.7145   -1.1920   -0.4934 C   0  0  0  0  0  0  0  0  0  0  0  0
    4.0693   -0.8371   -0.5834 C   0  0  0  0  0  0  0  0  0  0  0  0
    4.4940    0.4358   -0.2012 C   0  0  0  0  0  0  0  0  0  0  0  0
    3.5702    1.3656    0.2738 C   0  0  0  0  0  0  0  0  0  0  0  0
    2.2186    1.0260    0.3692 C   0  0  0  0  0  0  0  0  0  0  0  0
    1.7700   -0.2543   -0.0099 C   0  0  0  0  0  0  0  0  0  0  0  0
    0.3250   -0.5795    0.1048 C   0  0  0  0  0  0  0  0  0  0  0  0
   -0.0945   -1.7346   -0.1790 O   0  0  0  0  0  0  0  0  0  0  0  0
   -0.5645    0.3919    0.5874 O   0  0  0  0  0  0  0  0  0  0  0  0
   -1.9622    0.3409    0.4785 C   0  0  0  0  0  0  0  0  0  0  0  0
   -2.6114   -0.3048   -0.5919 C   0  0  0  0  0  0  0  0  0  0  0  0
   -4.0083   -0.3172   -0.6628 C   0  0  0  0  0  0  0  0  0  0  0  0
   -4.7660    0.3203    0.3231 C   0  0  0  0  0  0  0  0  0  0  0  0
   -4.1278    0.9791    1.3770 C   0  0  0  0  0  0  0  0  0  0  0  0
   -2.7314    0.9942    1.4503 C   0  0  0  0  0  0  0  0  0  0  0  0
    2.9801   -3.1519   -1.2340 H   0  0  0  0  0  0  0  0  0  0  0  0
    4.7957   -1.5504   -0.9519 H   0  0  0  0  0  0  0  0  0  0  0  0
    5.5407    0.7017   -0.2740 H   0  0  0  0  0  0  0  0  0  0  0  0
    3.9014    2.3529    0.5692 H   0  0  0  0  0  0  0  0  0  0  0  0
    1.5254    1.7696    0.7418 H   0  0  0  0  0  0  0  0  0  0  0  0
   -2.0458   -0.7716   -1.3864 H   0  0  0  0  0  0  0  0  0  0  0  0
   -4.5033   -0.8136   -1.4875 H   0  0  0  0  0  0  0  0  0  0  0  0
   -5.8468    0.3109    0.2658 H   0  0  0  0  0  0  0  0  0  0  0  0
   -4.7146    1.4796    2.1364 H   0  0  0  0  0  0  0  0  0  0  0  0
   -2.2444    1.5085    2.2692 H   0  0  0  0  0  0  0  0  0  0  0  0
  1  2  1  0
  2  3  2  0
  3  4  1  0
  4  5  2  0
  5  6  1  0
  6  7  2  0
  7  8  1  0
  8  9  2  0
  8 10  1  0
 10 11  1  0
 11 12  2  0
 12 13  1  0
 13 14  2  0
 14 15  1  0
 15 16  2  0
  7  2  1  0
 16 11  1  0
  1 17  1  0
  3 18  1  0
  4 19  1  0
  5 20  1  0
  6 21  1  0
 12 22  1  0
 13 23  1  0
 14 24  1  0
 15 25  1  0
 16 26  1  0
M  END
$$$$
