
     RDKit          3D

 28 29  0  0  0  0  0  0  0  0999 V2000
   -4.2368    3.4366   -0.3641 O   0  0  0  0  0  1  0  0  0  0  0  0
   -4.7048    2.1437   -0.4217 N   0  0  0  0  0  4  0  0  0  0  0  0
   -5.9381    1.9524   -0.4603 O   0  0  0  0  0  0  0  0  0  0  0  0
   -3.7885    1.0332   -0.4380 C   0  0  0  0  0  0  0  0  0  0  0  0
   -4.2647   -0.2868   -0.4990 C   0  0  0  0  0  0  0  0  0  0  0  0
   -3.3735   -1.3602   -0.5231 C   0  0  0  0  0  0  0  0  0  0  0  0
   -1.9933   -1.1402   -0.4767 C   0  0  0  0  0  0  0  0  0  0  0  0
   -0.9329   -2.5407   -0.6097 Cl  0  0  0  0  0  0  0  0  0  0  0  0
   -1.4950    0.1791   -0.3952 C   0  0  0  0  0  0  0  0  0  0  0  0
   -2.4013    1.2546   -0.3913 C   0  0  0  0  0  0  0  0  0  0  0  0
   -0.0446    0.4655   -0.3258 C   0  0  0  0  0  0  0  0  0  0  0  0
    0.4197    1.4558   -0.9543 O   0  0  0  0  0  0  0  0  0  0  0  0
    0.8148   -0.3161    0.5190 N   0  0  0  0  0  0  0  0  0  0  0  0
    2.2471   -0.3501    0.3964 C   0  0  0  0  0  0  0  0  0  0  0  0
    3.0304   -0.5986    1.5349 C   0  0  0  0  0  0  0  0  0  0  0  0
    4.4239   -0.6592    1.4362 C   0  0  0  0  0  0  0  0  0  0  0  0
    5.0462   -0.4866    0.1974 C   0  0  0  0  0  0  0  0  0  0  0  0
    4.2754   -0.2606   -0.9457 C   0  0  0  0  0  0  0  0  0  0  0  0
    2.8814   -0.1983   -0.8512 C   0  0  0  0  0  0  0  0  0  0  0  0
   -5.3273   -0.4897   -0.5377 H   0  0  0  0  0  0  0  0  0  0  0  0
   -3.7598   -2.3694   -0.5909 H   0  0  0  0  0  0  0  0  0  0  0  0
   -2.0223    2.2676   -0.3344 H   0  0  0  0  0  0  0  0  0  0  0  0
    0.3769   -0.8186    1.3244 H   0  0  0  0  0  0  0  0  0  0  0  0
    2.5601   -0.7365    2.5004 H   0  0  0  0  0  0  0  0  0  0  0  0
    5.0212   -0.8424    2.3201 H   0  0  0  0  0  0  0  0  0  0  0  0
    6.1248   -0.5360    0.1219 H   0  0  0  0  0  0  0  0  0  0  0  0
    4.7577   -0.1421   -1.9074 H   0  0  0  0  0  0  0  0  0  0  0  0
    2.3030   -0.0564   -1.7542 H   0  0  0  0  0  0  0  0  0  0  0  0
  1  2  1  0
  2  3  2  0
  2  4  1  0
  4  5  2  0
  5  6  1  0
  6  7  2  0
  7  8  1  0
  7  9  1  0
  9 10  2  0
  9 11  1  0
 11 12  2  0
 11 13  1  0
 13 14  1  0
 14 15  2  0
 15 16  1  0
 16 17  2  0
 17 18  1  0
 18 19  2  0
 10  4  1  0
 19 14  1  0
  5 20  1  0
  6 21  1  0
 10 22  1  0
 13 23  1  0
 15 24  1  0
 16 25  1  0
 17 26  1  0
 18 27  1  0
 19 28  1  0
M  CHG  2   1  -1   2   1
M  END
$$$$
