
     RDKit          3D

153156  0  0  0  0  0  0  0  0999 V2000
    9.1960    1.7943    2.7461 C   0  0  0  0  0  0  0  0  0  0  0  0
    8.1689    0.8677    3.0205 O   0  0  0  0  0  0  0  0  0  0  0  0
    7.8689    0.0906    1.8715 C   0  0  2  0  0  0  0  0  0  0  0  0
    6.5742    0.6123    1.2281 C   0  0  0  0  0  0  0  0  0  0  0  0
    6.2253   -0.1518   -0.0797 C   0  0  2  0  0  0  0  0  0  0  0  0
    4.6988   -0.1467   -0.3553 C   0  0  0  0  0  0  0  0  0  0  0  0
    4.0680    1.2651   -0.5005 C   0  0  1  0  0  0  0  0  0  0  0  0
    4.5530    1.9550   -1.7894 C   0  0  0  0  0  0  0  0  0  0  0  0
    2.5107    1.2708   -0.4597 C   0  0  2  0  0  0  0  0  0  0  0  0
    1.8962    0.8668    0.9001 C   0  0  0  0  0  0  0  0  0  0  0  0
    0.3925    0.9792    0.8634 C   0  0  0  0  0  0  0  0  0  0  0  0
   -0.2780   -0.0386    0.7709 O   0  0  0  0  0  0  0  0  0  0  0  0
   -0.2800    2.3346    0.8112 C   0  0  2  0  0  0  0  0  0  0  0  0
   -1.6166    2.3147    1.5540 C   0  0  0  0  0  0  0  0  0  0  0  0
   -0.4793    2.7366   -0.6366 C   0  0  0  0  0  0  0  0  0  0  0  0
   -0.3835    4.0053   -1.1054 C   0  0  0  0  0  0  0  0  0  0  0  0
   -0.1768    5.1765   -0.1741 C   0  0  0  0  0  0  0  0  0  0  0  0
   -0.4144    4.2741   -2.6074 C   0  0  1  0  0  0  0  0  0  0  0  0
    0.2239    3.2464   -3.3241 O   0  0  0  0  0  0  0  0  0  0  0  0
   -1.8471    4.4996   -3.1491 C   0  0  1  0  0  0  0  0  0  0  0  0
   -1.7856    4.7241   -4.5493 O   0  0  0  0  0  0  0  0  0  0  0  0
   -1.8120    6.1042   -4.8440 C   0  0  0  0  0  0  0  0  0  0  0  0
   -2.7587    3.3088   -2.9165 C   0  0  0  0  0  0  0  0  0  0  0  0
   -2.3759    2.1933   -3.2385 O   0  0  0  0  0  0  0  0  0  0  0  0
   -4.1924    3.4726   -2.4466 C   0  0  2  0  0  0  0  0  0  0  0  0
   -5.0230    4.1172   -3.5665 C   0  0  0  0  0  0  0  0  0  0  0  0
   -4.2852    4.2711   -1.1200 C   0  0  0  0  0  0  0  0  0  0  0  0
   -5.6412    4.0927   -0.3953 C   0  0  2  0  0  0  0  0  0  0  0  0
   -5.8169    5.1401    0.7144 C   0  0  0  0  0  0  0  0  0  0  0  0
   -5.8059    2.6853    0.1322 C   0  0  0  0  0  0  0  0  0  0  0  0
   -5.1023    2.2166    1.1722 C   0  0  0  0  0  0  0  0  0  0  0  0
   -5.2204    0.8390    1.6864 C   0  0  0  0  0  0  0  0  0  0  0  0
   -5.5584   -0.2082    0.9254 C   0  0  0  0  0  0  0  0  0  0  0  0
   -5.6820   -1.5554    1.5211 C   0  0  0  0  0  0  0  0  0  0  0  0
   -6.0653   -2.6533    0.8374 C   0  0  0  0  0  0  0  0  0  0  0  0
   -6.4500   -2.5648   -0.6211 C   0  0  0  0  0  0  0  0  0  0  0  0
   -6.2514   -3.9661    1.5828 C   0  0  2  0  0  0  0  0  0  0  0  0
   -5.4674   -5.1361    0.9398 C   0  0  0  0  0  0  0  0  0  0  0  0
   -3.9277   -5.0296    0.9865 C   0  0  2  0  0  0  0  0  0  0  0  0
   -3.3549   -5.0607    2.4333 C   0  0  0  0  0  0  0  0  0  0  0  0
   -2.8114   -3.6987    2.8735 C   0  0  0  0  0  0  0  0  0  0  0  0
   -1.8913   -3.0435    1.8112 C   0  0  1  0  0  0  0  0  0  0  0  0
   -0.4283   -2.9879    2.2891 C   0  0  0  0  0  0  0  0  0  0  0  0
   -2.0965   -3.6701    0.3838 C   0  0  1  0  0  0  0  0  0  0  0  0
   -1.3976   -4.8887    0.1850 O   0  0  0  0  0  0  0  0  0  0  0  0
   -3.4884   -3.9117    0.2208 O   0  0  0  0  0  0  0  0  0  0  0  0
   -1.6927   -2.6582   -0.6832 C   0  0  0  0  0  0  0  0  0  0  0  0
   -2.4459   -1.6641   -0.8747 O   0  0  0  0  0  0  0  0  0  0  0  0
   -0.4571   -2.7622   -1.5012 C   0  0  0  0  0  0  0  0  0  0  0  0
    0.4299   -3.6113   -1.2193 O   0  0  0  0  0  0  0  0  0  0  0  0
   -0.2820   -1.9251   -2.6608 N   0  0  0  0  0  0  0  0  0  0  0  0
   -1.1748   -2.2531   -3.7866 C   0  0  0  0  0  0  0  0  0  0  0  0
   -1.2514   -1.1165   -4.8035 C   0  0  0  0  0  0  0  0  0  0  0  0
    0.1495   -0.7056   -5.2439 C   0  0  0  0  0  0  0  0  0  0  0  0
    0.9518   -0.2448   -4.0318 C   0  0  0  0  0  0  0  0  0  0  0  0
    1.0553   -1.3527   -2.9606 C   0  0  1  0  0  0  0  0  0  0  0  0
    1.7389   -0.8014   -1.7215 C   0  0  0  0  0  0  0  0  0  0  0  0
    2.1645   -1.5981   -0.8442 O   0  0  0  0  0  0  0  0  0  0  0  0
    1.9130    0.5852   -1.5718 O   0  0  0  0  0  0  0  0  0  0  0  0
   -7.6361   -4.2780    1.5588 O   0  0  0  0  0  0  0  0  0  0  0  0
   -8.0741   -4.7457    2.8163 C   0  0  0  0  0  0  0  0  0  0  0  0
    6.7702   -1.6069   -0.0678 C   0  0  0  0  0  0  0  0  0  0  0  0
    6.7935   -2.1965    1.3465 C   0  0  0  0  0  0  0  0  0  0  0  0
    7.7050   -1.3881    2.3039 C   0  0  1  0  0  0  0  0  0  0  0  0
    8.9907   -1.9831    2.3329 O   0  0  0  0  0  0  0  0  0  0  0  0
    9.2756   -2.7603    3.8290 P   0  0  0  0  0  5  0  0  0  0  0  0
    8.0010   -4.0090    4.1802 C   0  0  0  0  0  0  0  0  0  0  0  0
    9.3425   -1.5439    5.1782 C   0  0  0  0  0  0  0  0  0  0  0  0
   10.6141   -3.4582    3.7546 O   0  0  0  0  0  0  0  0  0  0  0  0
    8.9247    2.4594    1.8963 H   0  0  0  0  0  0  0  0  0  0  0  0
   10.1541    1.2683    2.5396 H   0  0  0  0  0  0  0  0  0  0  0  0
    9.3465    2.4319    3.6411 H   0  0  0  0  0  0  0  0  0  0  0  0
    8.6735    0.1311    1.0937 H   0  0  0  0  0  0  0  0  0  0  0  0
    5.7494    0.5142    1.9693 H   0  0  0  0  0  0  0  0  0  0  0  0
    6.6915    1.6933    0.9976 H   0  0  0  0  0  0  0  0  0  0  0  0
    6.7355    0.3593   -0.9237 H   0  0  0  0  0  0  0  0  0  0  0  0
    4.2120   -0.6960    0.4746 H   0  0  0  0  0  0  0  0  0  0  0  0
    4.5115   -0.7135   -1.2925 H   0  0  0  0  0  0  0  0  0  0  0  0
    4.4010    1.8955    0.3511 H   0  0  0  0  0  0  0  0  0  0  0  0
    4.0575    2.9413   -1.9152 H   0  0  0  0  0  0  0  0  0  0  0  0
    4.3258    1.3298   -2.6794 H   0  0  0  0  0  0  0  0  0  0  0  0
    5.6441    2.1475   -1.7494 H   0  0  0  0  0  0  0  0  0  0  0  0
    2.2325    2.3401   -0.5851 H   0  0  0  0  0  0  0  0  0  0  0  0
    2.2879    1.5371    1.6953 H   0  0  0  0  0  0  0  0  0  0  0  0
    2.1760   -0.1656    1.1878 H   0  0  0  0  0  0  0  0  0  0  0  0
    0.3874    3.0571    1.3261 H   0  0  0  0  0  0  0  0  0  0  0  0
   -1.4676    1.9766    2.6017 H   0  0  0  0  0  0  0  0  0  0  0  0
   -2.3278    1.6254    1.0511 H   0  0  0  0  0  0  0  0  0  0  0  0
   -2.0568    3.3323    1.5798 H   0  0  0  0  0  0  0  0  0  0  0  0
   -0.6530    1.9301   -1.3434 H   0  0  0  0  0  0  0  0  0  0  0  0
   -0.9729    5.1993    0.5976 H   0  0  0  0  0  0  0  0  0  0  0  0
    0.8183    5.1058    0.3123 H   0  0  0  0  0  0  0  0  0  0  0  0
   -0.2215    6.1398   -0.7240 H   0  0  0  0  0  0  0  0  0  0  0  0
    0.1489    5.2159   -2.7997 H   0  0  0  0  0  0  0  0  0  0  0  0
    1.1904    3.2947   -3.0996 H   0  0  0  0  0  0  0  0  0  0  0  0
   -2.2717    5.3715   -2.5997 H   0  0  0  0  0  0  0  0  0  0  0  0
   -0.9815    6.6452   -4.3399 H   0  0  0  0  0  0  0  0  0  0  0  0
   -1.6846    6.2350   -5.9380 H   0  0  0  0  0  0  0  0  0  0  0  0
   -2.7910    6.5497   -4.5622 H   0  0  0  0  0  0  0  0  0  0  0  0
   -4.6033    2.4531   -2.2721 H   0  0  0  0  0  0  0  0  0  0  0  0
   -6.1065    4.0633   -3.3377 H   0  0  0  0  0  0  0  0  0  0  0  0
   -4.8607    3.5763   -4.5237 H   0  0  0  0  0  0  0  0  0  0  0  0
   -4.7385    5.1812   -3.7077 H   0  0  0  0  0  0  0  0  0  0  0  0
   -4.1347    5.3523   -1.3296 H   0  0  0  0  0  0  0  0  0  0  0  0
   -3.4649    3.9557   -0.4388 H   0  0  0  0  0  0  0  0  0  0  0  0
   -6.4621    4.2734   -1.1200 H   0  0  0  0  0  0  0  0  0  0  0  0
   -4.9604    5.1273    1.4210 H   0  0  0  0  0  0  0  0  0  0  0  0
   -5.8814    6.1553    0.2678 H   0  0  0  0  0  0  0  0  0  0  0  0
   -6.7560    4.9509    1.2774 H   0  0  0  0  0  0  0  0  0  0  0  0
   -6.5332    2.0529   -0.3610 H   0  0  0  0  0  0  0  0  0  0  0  0
   -4.4487    2.8835    1.7153 H   0  0  0  0  0  0  0  0  0  0  0  0
   -4.9634    0.6807    2.7272 H   0  0  0  0  0  0  0  0  0  0  0  0
   -5.7337   -0.0672   -0.1320 H   0  0  0  0  0  0  0  0  0  0  0  0
   -5.4870   -1.6407    2.5834 H   0  0  0  0  0  0  0  0  0  0  0  0
   -7.2313   -1.7886   -0.7635 H   0  0  0  0  0  0  0  0  0  0  0  0
   -5.5571   -2.3131   -1.2315 H   0  0  0  0  0  0  0  0  0  0  0  0
   -6.8751   -3.5179   -0.9939 H   0  0  0  0  0  0  0  0  0  0  0  0
   -5.8662   -3.8484    2.6242 H   0  0  0  0  0  0  0  0  0  0  0  0
   -5.7580   -6.0761    1.4580 H   0  0  0  0  0  0  0  0  0  0  0  0
   -5.7802   -5.2730   -0.1163 H   0  0  0  0  0  0  0  0  0  0  0  0
   -3.5763   -5.9559    0.4760 H   0  0  0  0  0  0  0  0  0  0  0  0
   -2.5173   -5.7915    2.4738 H   0  0  0  0  0  0  0  0  0  0  0  0
   -4.1126   -5.4151    3.1654 H   0  0  0  0  0  0  0  0  0  0  0  0
   -3.6709   -3.0282    3.0727 H   0  0  0  0  0  0  0  0  0  0  0  0
   -2.2869   -3.8174    3.8471 H   0  0  0  0  0  0  0  0  0  0  0  0
   -2.2197   -1.9799    1.7503 H   0  0  0  0  0  0  0  0  0  0  0  0
   -0.3404   -2.2821    3.1427 H   0  0  0  0  0  0  0  0  0  0  0  0
   -0.0807   -3.9838    2.6368 H   0  0  0  0  0  0  0  0  0  0  0  0
    0.2383   -2.6277    1.4781 H   0  0  0  0  0  0  0  0  0  0  0  0
   -0.5152   -4.8572    0.6265 H   0  0  0  0  0  0  0  0  0  0  0  0
   -2.2047   -2.4627   -3.4239 H   0  0  0  0  0  0  0  0  0  0  0  0
   -0.8014   -3.1716   -4.2907 H   0  0  0  0  0  0  0  0  0  0  0  0
   -1.8333   -1.4520   -5.6888 H   0  0  0  0  0  0  0  0  0  0  0  0
   -1.7790   -0.2479   -4.3531 H   0  0  0  0  0  0  0  0  0  0  0  0
    0.0752    0.1282   -5.9750 H   0  0  0  0  0  0  0  0  0  0  0  0
    0.6626   -1.5588   -5.7400 H   0  0  0  0  0  0  0  0  0  0  0  0
    0.4476    0.6492   -3.6054 H   0  0  0  0  0  0  0  0  0  0  0  0
    1.9707    0.0552   -4.3616 H   0  0  0  0  0  0  0  0  0  0  0  0
    1.6983   -2.1630   -3.3711 H   0  0  0  0  0  0  0  0  0  0  0  0
   -7.4881   -5.6318    3.1468 H   0  0  0  0  0  0  0  0  0  0  0  0
   -8.0171   -3.9366    3.5774 H   0  0  0  0  0  0  0  0  0  0  0  0
   -9.1357   -5.0551    2.7297 H   0  0  0  0  0  0  0  0  0  0  0  0
    6.1715   -2.2669   -0.7327 H   0  0  0  0  0  0  0  0  0  0  0  0
    7.8078   -1.6160   -0.4694 H   0  0  0  0  0  0  0  0  0  0  0  0
    5.7548   -2.2095    1.7443 H   0  0  0  0  0  0  0  0  0  0  0  0
    7.1321   -3.2541    1.2977 H   0  0  0  0  0  0  0  0  0  0  0  0
    7.1889   -1.3760    3.2924 H   0  0  0  0  0  0  0  0  0  0  0  0
    7.9518   -4.7331    3.3414 H   0  0  0  0  0  0  0  0  0  0  0  0
    7.0126   -3.5227    4.3065 H   0  0  0  0  0  0  0  0  0  0  0  0
    8.2611   -4.5473    5.1147 H   0  0  0  0  0  0  0  0  0  0  0  0
    9.6427   -2.0518    6.1177 H   0  0  0  0  0  0  0  0  0  0  0  0
    8.3477   -1.0762    5.3224 H   0  0  0  0  0  0  0  0  0  0  0  0
   10.0859   -0.7586    4.9303 H   0  0  0  0  0  0  0  0  0  0  0  0
  1  2  1  0
  2  3  1  0
  3  4  1  0
  4  5  1  0
  5  6  1  0
  6  7  1  0
  7  8  1  0
  7  9  1  0
  9 10  1  0
 10 11  1  0
 11 12  2  0
 11 13  1  0
 13 14  1  0
 13 15  1  0
 15 16  2  0
 16 17  1  0
 16 18  1  0
 18 19  1  0
 18 20  1  0
 20 21  1  0
 21 22  1  0
 20 23  1  0
 23 24  2  0
 23 25  1  0
 25 26  1  0
 25 27  1  0
 27 28  1  0
 28 29  1  0
 28 30  1  0
 30 31  2  0
 31 32  1  0
 32 33  2  0
 33 34  1  0
 34 35  2  0
 35 36  1  0
 35 37  1  0
 37 38  1  0
 38 39  1  0
 39 40  1  0
 40 41  1  0
 41 42  1  0
 42 43  1  0
 42 44  1  0
 44 45  1  1
 44 46  1  0
 44 47  1  0
 47 48  2  0
 47 49  1  0
 49 50  2  0
 49 51  1  0
 51 52  1  0
 52 53  1  0
 53 54  1  0
 54 55  1  0
 55 56  1  0
 56 57  1  0
 57 58  2  0
 57 59  1  0
 37 60  1  0
 60 61  1  0
  5 62  1  0
 62 63  1  0
 63 64  1  0
 64 65  1  0
 65 66  1  0
 66 67  1  0
 66 68  1  0
 66 69  2  0
 64  3  1  0
 59  9  1  0
 46 39  1  0
 56 51  1  0
  1 70  1  0
  1 71  1  0
  1 72  1  0
  3 73  1  6
  4 74  1  0
  4 75  1  0
  5 76  1  6
  6 77  1  0
  6 78  1  0
  7 79  1  1
  8 80  1  0
  8 81  1  0
  8 82  1  0
  9 83  1  6
 10 84  1  0
 10 85  1  0
 13 86  1  1
 14 87  1  0
 14 88  1  0
 14 89  1  0
 15 90  1  0
 17 91  1  0
 17 92  1  0
 17 93  1  0
 18 94  1  1
 19 95  1  0
 20 96  1  1
 22 97  1  0
 22 98  1  0
 22 99  1  0
 25100  1  1
 26101  1  0
 26102  1  0
 26103  1  0
 27104  1  0
 27105  1  0
 28106  1  6
 29107  1  0
 29108  1  0
 29109  1  0
 30110  1  0
 31111  1  0
 32112  1  0
 33113  1  0
 34114  1  0
 36115  1  0
 36116  1  0
 36117  1  0
 37118  1  1
 38119  1  0
 38120  1  0
 39121  1  6
 40122  1  0
 40123  1  0
 41124  1  0
 41125  1  0
 42126  1  6
 43127  1  0
 43128  1  0
 43129  1  0
 45130  1  0
 52131  1  0
 52132  1  0
 53133  1  0
 53134  1  0
 54135  1  0
 54136  1  0
 55137  1  0
 55138  1  0
 56139  1  6
 61140  1  0
 61141  1  0
 61142  1  0
 62143  1  0
 62144  1  0
 63145  1  0
 63146  1  0
 64147  1  1
 67148  1  0
 67149  1  0
 67150  1  0
 68151  1  0
 68152  1  0
 68153  1  0
M  END
$$$$
