
     RDKit          3D

 29 30  0  0  0  0  0  0  0  0999 V2000
   -3.9300    1.9515    1.2454 N   0  0  0  0  0  0  0  0  0  0  0  0
   -3.7598    0.7086    0.5635 C   0  0  0  0  0  0  0  0  0  0  0  0
   -4.8328    0.0964   -0.0026 N   0  0  0  0  0  0  0  0  0  0  0  0
   -4.7007   -1.0920   -0.6461 C   0  0  0  0  0  0  0  0  0  0  0  0
   -3.4823   -1.6853   -0.7373 N   0  0  0  0  0  0  0  0  0  0  0  0
   -2.3729   -1.1057   -0.2056 C   0  0  0  0  0  0  0  0  0  0  0  0
   -1.1132   -1.7893   -0.3001 N   0  0  0  0  0  0  0  0  0  0  0  0
    0.1695   -1.1398   -0.3166 C   0  0  0  0  0  0  0  0  0  0  0  0
    0.3449    0.1168   -0.9229 C   0  0  0  0  0  0  0  0  0  0  0  0
    1.6072    0.7168   -0.9518 C   0  0  0  0  0  0  0  0  0  0  0  0
    2.7129    0.0610   -0.3948 C   0  0  0  0  0  0  0  0  0  0  0  0
    2.5448   -1.1985    0.1950 C   0  0  0  0  0  0  0  0  0  0  0  0
    1.2829   -1.7992    0.2239 C   0  0  0  0  0  0  0  0  0  0  0  0
    4.3003    0.8218   -0.4167 S   0  0  0  0  0  6  0  0  0  0  0  0
    4.5225    1.7289    1.0377 N   0  0  0  0  0  0  0  0  0  0  0  0
    5.3673   -0.2319   -0.5241 O   0  0  0  0  0  0  0  0  0  0  0  0
    4.4092    1.7404   -1.6015 O   0  0  0  0  0  0  0  0  0  0  0  0
   -2.4984    0.1112    0.4813 C   0  0  0  0  0  0  0  0  0  0  0  0
   -4.8747    2.3919    1.3074 H   0  0  0  0  0  0  0  0  0  0  0  0
   -3.1182    2.4369    1.6883 H   0  0  0  0  0  0  0  0  0  0  0  0
   -5.5671   -1.5681   -1.0839 H   0  0  0  0  0  0  0  0  0  0  0  0
   -1.1352   -2.8322   -0.3663 H   0  0  0  0  0  0  0  0  0  0  0  0
   -0.4895    0.6268   -1.3864 H   0  0  0  0  0  0  0  0  0  0  0  0
    1.7215    1.6896   -1.4128 H   0  0  0  0  0  0  0  0  0  0  0  0
    3.3892   -1.7156    0.6327 H   0  0  0  0  0  0  0  0  0  0  0  0
    1.1688   -2.7751    0.6789 H   0  0  0  0  0  0  0  0  0  0  0  0
    5.4951    2.1094    1.0152 H   0  0  0  0  0  0  0  0  0  0  0  0
    4.4828    1.0492    1.8301 H   0  0  0  0  0  0  0  0  0  0  0  0
   -1.6441    0.5755    0.9570 H   0  0  0  0  0  0  0  0  0  0  0  0
  1  2  1  0
  2  3  2  0
  3  4  1  0
  4  5  2  0
  5  6  1  0
  6  7  1  0
  7  8  1  0
  8  9  2  0
  9 10  1  0
 10 11  2  0
 11 12  1  0
 12 13  2  0
 11 14  1  0
 14 15  1  0
 14 16  2  0
 14 17  2  0
  6 18  2  0
 18  2  1  0
 13  8  1  0
  1 19  1  0
  1 20  1  0
  4 21  1  0
  7 22  1  0
  9 23  1  0
 10 24  1  0
 12 25  1  0
 13 26  1  0
 15 27  1  0
 15 28  1  0
 18 29  1  0
M  END
$$$$
