
     RDKit          3D

 29 29  0  0  0  0  0  0  0  0999 V2000
    4.9993    0.8756   -0.6651 N   0  0  0  0  0  0  0  0  0  0  0  0
    3.8138    0.4241   -0.0108 C   0  0  0  0  0  0  0  0  0  0  0  0
    3.9125   -0.6074    0.9795 N   0  0  0  0  0  0  0  0  0  0  0  0
    2.6649    0.9175   -0.3779 N   0  0  0  0  0  0  0  0  0  0  0  0
    1.3853    0.6530    0.2163 C   0  0  0  0  0  0  0  0  0  0  0  0
    1.2013    0.7048    1.6076 C   0  0  0  0  0  0  0  0  0  0  0  0
   -0.0632    0.4864    2.1569 C   0  0  0  0  0  0  0  0  0  0  0  0
   -1.1577    0.2430    1.3244 C   0  0  0  0  0  0  0  0  0  0  0  0
   -1.0032    0.2392   -0.0758 C   0  0  0  0  0  0  0  0  0  0  0  0
    0.2791    0.4451   -0.6170 C   0  0  0  0  0  0  0  0  0  0  0  0
   -2.1732   -0.0461   -1.0072 C   0  0  1  0  0  0  0  0  0  0  0  0
   -2.3580   -1.5645   -1.2184 C   0  0  0  0  0  0  0  0  0  0  0  0
   -2.7641   -2.4746    0.3136 S   0  0  0  0  0  0  0  0  0  0  0  0
   -3.4485    0.6568   -0.5962 C   0  0  0  0  0  0  0  0  0  0  0  0
   -4.6879    0.1276   -0.9466 O   0  0  0  0  0  0  0  0  0  0  0  0
   -3.3976    1.7803   -0.0255 O   0  0  0  0  0  0  0  0  0  0  0  0
    4.9499    1.6096   -1.4065 H   0  0  0  0  0  0  0  0  0  0  0  0
    5.9305    0.4785   -0.4098 H   0  0  0  0  0  0  0  0  0  0  0  0
    4.8515   -0.9256    1.3063 H   0  0  0  0  0  0  0  0  0  0  0  0
    3.0793   -1.1427    1.3072 H   0  0  0  0  0  0  0  0  0  0  0  0
    2.0334    0.9232    2.2647 H   0  0  0  0  0  0  0  0  0  0  0  0
   -0.1967    0.5113    3.2307 H   0  0  0  0  0  0  0  0  0  0  0  0
   -2.1270    0.0684    1.7736 H   0  0  0  0  0  0  0  0  0  0  0  0
    0.4234    0.4314   -1.6907 H   0  0  0  0  0  0  0  0  0  0  0  0
   -1.9260    0.3762   -2.0064 H   0  0  0  0  0  0  0  0  0  0  0  0
   -1.4159   -1.9892   -1.6267 H   0  0  0  0  0  0  0  0  0  0  0  0
   -3.1520   -1.7527   -1.9725 H   0  0  0  0  0  0  0  0  0  0  0  0
   -4.1071   -2.0591    0.3277 H   0  0  0  0  0  0  0  0  0  0  0  0
   -5.5460    0.6099   -0.7076 H   0  0  0  0  0  0  0  0  0  0  0  0
  1  2  1  0
  2  3  1  0
  2  4  2  3
  4  5  1  0
  5  6  2  0
  6  7  1  0
  7  8  2  0
  8  9  1  0
  9 10  2  0
  9 11  1  0
 11 12  1  0
 12 13  1  0
 11 14  1  0
 14 15  1  0
 14 16  2  0
 10  5  1  0
  1 17  1  0
  1 18  1  0
  3 19  1  0
  3 20  1  0
  6 21  1  0
  7 22  1  0
  8 23  1  0
 10 24  1  0
 11 25  1  6
 12 26  1  0
 12 27  1  0
 13 28  1  0
 15 29  1  0
M  END
$$$$
