
     RDKit          3D

 57 59  0  0  0  0  0  0  0  0999 V2000
   -7.9285   -2.3965    1.3856 C   0  0  0  0  0  0  0  0  0  0  0  0
   -7.2507   -2.0797    0.1742 O   0  0  0  0  0  0  0  0  0  0  0  0
   -6.0011   -1.4458    0.1087 C   0  0  0  0  0  0  0  0  0  0  0  0
   -5.4487   -1.1930   -1.1528 C   0  0  0  0  0  0  0  0  0  0  0  0
   -4.2072   -0.5623   -1.2711 C   0  0  0  0  0  0  0  0  0  0  0  0
   -3.5042   -0.1703   -0.1236 C   0  0  0  0  0  0  0  0  0  0  0  0
   -4.0464   -0.4298    1.1426 C   0  0  0  0  0  0  0  0  0  0  0  0
   -5.2885   -1.0599    1.2609 C   0  0  0  0  0  0  0  0  0  0  0  0
   -2.1844    0.4874   -0.2503 C   0  0  0  0  0  0  0  0  0  0  0  0
   -1.0308   -0.2861   -0.5553 C   0  0  0  0  0  0  0  0  0  0  0  0
   -1.1335   -1.7904   -0.7106 C   0  0  0  0  0  0  0  0  0  0  0  0
    0.2164    0.3657   -0.7303 C   0  0  0  0  0  0  0  0  0  0  0  0
    0.3062    1.7490   -0.5349 C   0  0  0  0  0  0  0  0  0  0  0  0
   -0.8172    2.4970   -0.2015 C   0  0  0  0  0  0  0  0  0  0  0  0
   -2.0716    1.8895   -0.0756 C   0  0  0  0  0  0  0  0  0  0  0  0
   -3.4866    2.8997    0.2944 S   0  0  0  0  0  6  0  0  0  0  0  0
   -3.1535    4.6384    0.0874 C   0  0  0  0  0  0  0  0  0  0  0  0
   -3.9098    2.6626    1.7165 O   0  0  0  0  0  0  0  0  0  0  0  0
   -4.6170    2.5438   -0.6300 O   0  0  0  0  0  0  0  0  0  0  0  0
    1.4346   -0.3652   -1.1530 C   0  0  0  0  0  0  0  0  0  0  0  0
    1.3762   -1.1220   -2.1583 O   0  0  0  0  0  0  0  0  0  0  0  0
    2.7065   -0.2226   -0.4115 C   0  0  0  0  0  0  0  0  0  0  0  0
    3.9887   -0.5820   -0.7949 C   0  0  0  0  0  0  0  0  0  0  0  0
    4.3721   -1.1185   -2.0235 O   0  0  0  0  0  0  0  0  0  0  0  0
    4.8467   -0.3141    0.2162 N   0  0  0  0  0  0  0  0  0  0  0  0
    4.1601    0.2021    1.2275 N   0  0  0  0  0  0  0  0  0  0  0  0
    2.8620    0.2676    0.8730 C   0  0  0  0  0  0  0  0  0  0  0  0
    6.3104   -0.5335    0.2367 C   0  0  0  0  0  0  0  0  0  0  0  0
    6.9016   -0.0970    1.5962 C   0  0  0  0  0  0  0  0  0  0  0  0
    6.6183   -2.0297    0.0315 C   0  0  0  0  0  0  0  0  0  0  0  0
    6.9792    0.2996   -0.8741 C   0  0  0  0  0  0  0  0  0  0  0  0
   -8.1384   -1.4691    1.9594 H   0  0  0  0  0  0  0  0  0  0  0  0
   -7.3151   -3.0930    1.9954 H   0  0  0  0  0  0  0  0  0  0  0  0
   -8.8918   -2.8902    1.1436 H   0  0  0  0  0  0  0  0  0  0  0  0
   -5.9851   -1.4874   -2.0460 H   0  0  0  0  0  0  0  0  0  0  0  0
   -3.7948   -0.3755   -2.2550 H   0  0  0  0  0  0  0  0  0  0  0  0
   -3.5052   -0.1454    2.0367 H   0  0  0  0  0  0  0  0  0  0  0  0
   -5.6840   -1.2440    2.2503 H   0  0  0  0  0  0  0  0  0  0  0  0
   -1.3368   -2.0406   -1.7726 H   0  0  0  0  0  0  0  0  0  0  0  0
   -0.1993   -2.2935   -0.3856 H   0  0  0  0  0  0  0  0  0  0  0  0
   -1.9386   -2.2165   -0.0777 H   0  0  0  0  0  0  0  0  0  0  0  0
    1.2533    2.2598   -0.6625 H   0  0  0  0  0  0  0  0  0  0  0  0
   -0.6985    3.5617   -0.0614 H   0  0  0  0  0  0  0  0  0  0  0  0
   -4.0955    5.2113    0.2116 H   0  0  0  0  0  0  0  0  0  0  0  0
   -2.4241    4.9761    0.8521 H   0  0  0  0  0  0  0  0  0  0  0  0
   -2.7464    4.8234   -0.9281 H   0  0  0  0  0  0  0  0  0  0  0  0
    3.7192   -1.2625   -2.7812 H   0  0  0  0  0  0  0  0  0  0  0  0
    2.0772    0.6353    1.5206 H   0  0  0  0  0  0  0  0  0  0  0  0
    6.4465   -0.6810    2.4251 H   0  0  0  0  0  0  0  0  0  0  0  0
    6.7076    0.9822    1.7779 H   0  0  0  0  0  0  0  0  0  0  0  0
    8.0011   -0.2596    1.6212 H   0  0  0  0  0  0  0  0  0  0  0  0
    6.0907   -2.6384    0.7970 H   0  0  0  0  0  0  0  0  0  0  0  0
    7.7097   -2.2217    0.1185 H   0  0  0  0  0  0  0  0  0  0  0  0
    6.2949   -2.3755   -0.9715 H   0  0  0  0  0  0  0  0  0  0  0  0
    6.6546   -0.0345   -1.8807 H   0  0  0  0  0  0  0  0  0  0  0  0
    8.0854    0.2019   -0.8262 H   0  0  0  0  0  0  0  0  0  0  0  0
    6.7142    1.3728   -0.7609 H   0  0  0  0  0  0  0  0  0  0  0  0
  1  2  1  0
  2  3  1  0
  3  4  2  0
  4  5  1  0
  5  6  2  0
  6  7  1  0
  7  8  2  0
  6  9  1  0
  9 10  2  0
 10 11  1  0
 10 12  1  0
 12 13  2  0
 13 14  1  0
 14 15  2  0
 15 16  1  0
 16 17  1  0
 16 18  2  0
 16 19  2  0
 12 20  1  0
 20 21  2  0
 20 22  1  0
 22 23  2  0
 23 24  1  0
 23 25  1  0
 25 26  1  0
 26 27  2  0
 25 28  1  0
 28 29  1  0
 28 30  1  0
 28 31  1  0
  8  3  1  0
 15  9  1  0
 27 22  1  0
  1 32  1  0
  1 33  1  0
  1 34  1  0
  4 35  1  0
  5 36  1  0
  7 37  1  0
  8 38  1  0
 11 39  1  0
 11 40  1  0
 11 41  1  0
 13 42  1  0
 14 43  1  0
 17 44  1  0
 17 45  1  0
 17 46  1  0
 24 47  1  0
 27 48  1  0
 29 49  1  0
 29 50  1  0
 29 51  1  0
 30 52  1  0
 30 53  1  0
 30 54  1  0
 31 55  1  0
 31 56  1  0
 31 57  1  0
M  END
$$$$
