
     RDKit          3D

 30 32  0  0  0  0  0  0  0  0999 V2000
   -1.9695    2.5885    0.9088 C   0  0  0  0  0  0  0  0  0  0  0  0
   -1.4594    2.1237   -0.4526 C   0  0  0  0  0  0  0  0  0  0  0  0
   -0.5675    0.9509   -0.3055 N   0  0  0  0  0  0  0  0  0  0  0  0
    0.7943    1.1737   -0.2175 C   0  0  0  0  0  0  0  0  0  0  0  0
    1.2692    2.3432   -0.2328 O   0  0  0  0  0  0  0  0  0  0  0  0
    1.6525    0.0860   -0.1076 C   0  0  0  0  0  0  0  0  0  0  0  0
    1.1853   -1.1876   -0.0680 C   0  0  0  0  0  0  0  0  0  0  0  0
    2.2226   -2.0407    0.0450 N   0  0  0  0  0  0  0  0  0  0  0  0
    3.3490   -1.3385    0.0782 N   0  0  0  0  0  0  0  0  0  0  0  0
    3.0277   -0.0278   -0.0139 C   0  0  0  0  0  0  0  0  0  0  0  0
    4.0279    1.0817   -0.0076 C   0  0  0  0  0  0  0  0  0  0  0  0
   -0.1805   -1.4626   -0.1195 C   0  0  0  0  0  0  0  0  0  0  0  0
   -1.0728   -0.3489   -0.2273 C   0  0  0  0  0  0  0  0  0  0  0  0
   -2.4634   -0.6236   -0.2379 C   0  0  0  0  0  0  0  0  0  0  0  0
   -2.9379   -1.9359   -0.1715 C   0  0  0  0  0  0  0  0  0  0  0  0
   -2.0503   -3.0056   -0.0864 C   0  0  0  0  0  0  0  0  0  0  0  0
   -0.6769   -2.7752   -0.0565 C   0  0  0  0  0  0  0  0  0  0  0  0
   -2.6435    3.4609    0.7770 H   0  0  0  0  0  0  0  0  0  0  0  0
   -2.5311    1.7768    1.4156 H   0  0  0  0  0  0  0  0  0  0  0  0
   -1.1149    2.8903    1.5506 H   0  0  0  0  0  0  0  0  0  0  0  0
   -0.9326    2.9720   -0.9414 H   0  0  0  0  0  0  0  0  0  0  0  0
   -2.3033    1.9077   -1.1389 H   0  0  0  0  0  0  0  0  0  0  0  0
    2.1867   -3.0817    0.1037 H   0  0  0  0  0  0  0  0  0  0  0  0
    3.9445    1.6658   -0.9477 H   0  0  0  0  0  0  0  0  0  0  0  0
    5.0560    0.6697    0.0697 H   0  0  0  0  0  0  0  0  0  0  0  0
    3.8412    1.7483    0.8599 H   0  0  0  0  0  0  0  0  0  0  0  0
   -3.2070    0.1565   -0.2792 H   0  0  0  0  0  0  0  0  0  0  0  0
   -4.0040   -2.1238   -0.1817 H   0  0  0  0  0  0  0  0  0  0  0  0
   -2.4293   -4.0183   -0.0352 H   0  0  0  0  0  0  0  0  0  0  0  0
   -0.0130   -3.6254    0.0202 H   0  0  0  0  0  0  0  0  0  0  0  0
  1  2  1  0
  2  3  1  0
  3  4  1  0
  4  5  2  0
  4  6  1  0
  6  7  2  0
  7  8  1  0
  8  9  1  0
  9 10  2  0
 10 11  1  0
  7 12  1  0
 12 13  2  0
 13 14  1  0
 14 15  2  0
 15 16  1  0
 16 17  2  0
 13  3  1  0
 10  6  1  0
 17 12  1  0
  1 18  1  0
  1 19  1  0
  1 20  1  0
  2 21  1  0
  2 22  1  0
  8 23  1  0
 11 24  1  0
 11 25  1  0
 11 26  1  0
 14 27  1  0
 15 28  1  0
 16 29  1  0
 17 30  1  0
M  END
$$$$
