
     RDKit          3D

 67 71  0  0  0  0  0  0  0  0999 V2000
   -3.0097    2.9392    2.2358 O   0  0  0  0  0  0  0  0  0  0  0  0
   -2.5250    2.0756    1.2401 C   0  0  0  0  0  0  0  0  0  0  0  0
   -3.0980    2.4916   -0.1284 C   0  0  0  0  0  0  0  0  0  0  0  0
   -4.4997    2.2276   -0.1910 O   0  0  0  0  0  0  0  0  0  0  0  0
   -5.0863    0.9567   -0.3407 C   0  0  0  0  0  0  0  0  0  0  0  0
   -4.3140   -0.2017   -0.5707 C   0  0  0  0  0  0  0  0  0  0  0  0
   -4.9272   -1.4484   -0.7147 C   0  0  0  0  0  0  0  0  0  0  0  0
   -6.3150   -1.5647   -0.6365 C   0  0  0  0  0  0  0  0  0  0  0  0
   -7.1006   -0.4312   -0.4133 C   0  0  0  0  0  0  0  0  0  0  0  0
   -6.4899    0.8373   -0.2647 C   0  0  0  0  0  0  0  0  0  0  0  0
   -7.3138    1.9532   -0.0393 C   0  0  0  0  0  0  0  0  0  0  0  0
   -8.6991    1.7960    0.0319 C   0  0  0  0  0  0  0  0  0  0  0  0
   -9.2561    0.5256   -0.1216 C   0  0  0  0  0  0  0  0  0  0  0  0
   -8.4540   -0.5497   -0.3384 N   0  0  0  0  0  0  0  0  0  0  0  0
   -0.9888    2.1376    1.2376 C   0  0  0  0  0  0  0  0  0  0  0  0
   -0.4213    1.1884    0.2524 N   0  0  0  0  0  0  0  0  0  0  0  0
   -0.2639   -0.1599    0.8417 C   0  0  0  0  0  0  0  0  0  0  0  0
    0.2191   -1.1496   -0.2200 C   0  0  0  0  0  0  0  0  0  0  0  0
    1.4356   -0.6318   -0.8479 N   0  0  0  0  0  0  0  0  0  0  0  0
    1.4078    0.7471   -1.3452 C   0  0  0  0  0  0  0  0  0  0  0  0
    0.8789    1.6775   -0.2514 C   0  0  0  0  0  0  0  0  0  0  0  0
    2.5080   -1.5297   -1.1890 C   0  0  0  0  0  0  0  0  0  0  0  0
    2.2306   -2.6867   -1.6098 O   0  0  0  0  0  0  0  0  0  0  0  0
    3.9582   -1.0883   -1.0919 C   0  0  0  0  0  0  0  0  0  0  0  0
    4.2060   -0.1654    0.0893 C   0  0  0  0  0  0  0  0  0  0  0  0
    3.6689   -0.4396    1.3636 C   0  0  0  0  0  0  0  0  0  0  0  0
    3.9133    0.4233    2.4354 C   0  0  0  0  0  0  0  0  0  0  0  0
    4.7073    1.5576    2.2546 C   0  0  0  0  0  0  0  0  0  0  0  0
    5.2625    1.8290    1.0021 C   0  0  0  0  0  0  0  0  0  0  0  0
    5.0193    0.9706   -0.0741 C   0  0  0  0  0  0  0  0  0  0  0  0
    4.9326   -2.2527   -1.0359 C   0  0  0  0  0  0  0  0  0  0  0  0
    6.0549   -2.2674   -1.8847 C   0  0  0  0  0  0  0  0  0  0  0  0
    6.9809   -3.3128   -1.8179 C   0  0  0  0  0  0  0  0  0  0  0  0
    6.8037   -4.3485   -0.8980 C   0  0  0  0  0  0  0  0  0  0  0  0
    5.7017   -4.3394   -0.0402 C   0  0  0  0  0  0  0  0  0  0  0  0
    4.7730   -3.2964   -0.1023 C   0  0  0  0  0  0  0  0  0  0  0  0
   -3.9478    2.6705    2.4201 H   0  0  0  0  0  0  0  0  0  0  0  0
   -2.8378    1.0359    1.4788 H   0  0  0  0  0  0  0  0  0  0  0  0
   -2.5798    1.9856   -0.9703 H   0  0  0  0  0  0  0  0  0  0  0  0
   -2.9419    3.5828   -0.2670 H   0  0  0  0  0  0  0  0  0  0  0  0
   -3.2368   -0.1554   -0.6410 H   0  0  0  0  0  0  0  0  0  0  0  0
   -4.3223   -2.3291   -0.8890 H   0  0  0  0  0  0  0  0  0  0  0  0
   -6.7782   -2.5371   -0.7503 H   0  0  0  0  0  0  0  0  0  0  0  0
   -6.8940    2.9440    0.0823 H   0  0  0  0  0  0  0  0  0  0  0  0
   -9.3370    2.6531    0.2051 H   0  0  0  0  0  0  0  0  0  0  0  0
  -10.3285    0.3939   -0.0679 H   0  0  0  0  0  0  0  0  0  0  0  0
   -0.6984    3.1865    0.9991 H   0  0  0  0  0  0  0  0  0  0  0  0
   -0.6031    1.9294    2.2619 H   0  0  0  0  0  0  0  0  0  0  0  0
    0.4658   -0.1401    1.6837 H   0  0  0  0  0  0  0  0  0  0  0  0
   -1.2330   -0.5310    1.2357 H   0  0  0  0  0  0  0  0  0  0  0  0
    0.4141   -2.1306    0.2666 H   0  0  0  0  0  0  0  0  0  0  0  0
   -0.5675   -1.2866   -0.9936 H   0  0  0  0  0  0  0  0  0  0  0  0
    0.7389    0.7999   -2.2314 H   0  0  0  0  0  0  0  0  0  0  0  0
    2.4147    1.0909   -1.6591 H   0  0  0  0  0  0  0  0  0  0  0  0
    0.7601    2.6893   -0.6983 H   0  0  0  0  0  0  0  0  0  0  0  0
    1.6221    1.7463    0.5756 H   0  0  0  0  0  0  0  0  0  0  0  0
    4.1464   -0.5207   -2.0302 H   0  0  0  0  0  0  0  0  0  0  0  0
    3.0461   -1.3091    1.5259 H   0  0  0  0  0  0  0  0  0  0  0  0
    3.4855    0.2124    3.4069 H   0  0  0  0  0  0  0  0  0  0  0  0
    4.8953    2.2246    3.0859 H   0  0  0  0  0  0  0  0  0  0  0  0
    5.8829    2.7051    0.8649 H   0  0  0  0  0  0  0  0  0  0  0  0
    5.4612    1.1956   -1.0369 H   0  0  0  0  0  0  0  0  0  0  0  0
    6.2167   -1.4681   -2.5972 H   0  0  0  0  0  0  0  0  0  0  0  0
    7.8391   -3.3175   -2.4775 H   0  0  0  0  0  0  0  0  0  0  0  0
    7.5223   -5.1563   -0.8473 H   0  0  0  0  0  0  0  0  0  0  0  0
    5.5678   -5.1403    0.6754 H   0  0  0  0  0  0  0  0  0  0  0  0
    3.9276   -3.3089    0.5724 H   0  0  0  0  0  0  0  0  0  0  0  0
  1  2  1  0
  2  3  1  0
  3  4  1  0
  4  5  1  0
  5  6  2  0
  6  7  1  0
  7  8  2  0
  8  9  1  0
  9 10  2  0
 10 11  1  0
 11 12  2  0
 12 13  1  0
 13 14  2  0
  2 15  1  0
 15 16  1  0
 16 17  1  0
 17 18  1  0
 18 19  1  0
 19 20  1  0
 20 21  1  0
 19 22  1  0
 22 23  2  0
 22 24  1  0
 24 25  1  0
 25 26  2  0
 26 27  1  0
 27 28  2  0
 28 29  1  0
 29 30  2  0
 24 31  1  0
 31 32  2  0
 32 33  1  0
 33 34  2  0
 34 35  1  0
 35 36  2  0
 10  5  1  0
 21 16  1  0
 30 25  1  0
 36 31  1  0
 14  9  1  0
  1 37  1  0
  2 38  1  0
  3 39  1  0
  3 40  1  0
  6 41  1  0
  7 42  1  0
  8 43  1  0
 11 44  1  0
 12 45  1  0
 13 46  1  0
 15 47  1  0
 15 48  1  0
 17 49  1  0
 17 50  1  0
 18 51  1  0
 18 52  1  0
 20 53  1  0
 20 54  1  0
 21 55  1  0
 21 56  1  0
 24 57  1  0
 26 58  1  0
 27 59  1  0
 28 60  1  0
 29 61  1  0
 30 62  1  0
 32 63  1  0
 33 64  1  0
 34 65  1  0
 35 66  1  0
 36 67  1  0
M  END
$$$$
