
     RDKit          3D

 50 51  0  0  0  0  0  0  0  0999 V2000
   -2.7309    0.7086   -0.5820 C   0  0  2  0  0  0  0  0  0  0  0  0
   -3.0120    2.0860   -0.1714 N   0  0  0  0  0  0  0  0  0  0  0  0
   -3.9881   -0.1859   -0.4325 C   0  0  0  0  0  0  0  0  0  0  0  0
   -4.4120   -0.5470    1.0160 C   0  0  0  0  0  0  0  0  0  0  0  0
   -4.8552    0.6818    1.8239 C   0  0  0  0  0  0  0  0  0  0  0  0
   -5.5506   -1.5759    0.9785 C   0  0  0  0  0  0  0  0  0  0  0  0
   -1.5453    0.1608    0.1840 C   0  0  0  0  0  0  0  0  0  0  0  0
   -1.4066    0.4742    1.3984 O   0  0  0  0  0  0  0  0  0  0  0  0
   -0.5814   -0.7179   -0.4338 N   0  0  0  0  0  0  0  0  0  0  0  0
   -0.7228   -1.2830   -1.7668 C   0  0  0  0  0  0  0  0  0  0  0  0
    0.3362   -2.3718   -1.8718 C   0  0  0  0  0  0  0  0  0  0  0  0
    1.3403   -2.0913   -0.7586 C   0  0  0  0  0  0  0  0  0  0  0  0
    0.6019   -1.2159    0.2576 C   0  0  1  0  0  0  0  0  0  0  0  0
    1.4752   -0.0847    0.7358 C   0  0  0  0  0  0  0  0  0  0  0  0
    1.9523   -0.1240    1.9022 O   0  0  0  0  0  0  0  0  0  0  0  0
    1.7917    1.0094   -0.1383 N   0  0  0  0  0  0  0  0  0  0  0  0
    2.7413    2.0558    0.2304 C   0  0  0  0  0  0  0  0  0  0  0  0
    4.1433    1.5108    0.2152 C   0  0  0  0  0  0  0  0  0  0  0  0
    4.7366    1.1358   -1.0015 C   0  0  0  0  0  0  0  0  0  0  0  0
    6.0304    0.6030   -1.0207 C   0  0  0  0  0  0  0  0  0  0  0  0
    6.7636    0.1345   -2.5437 Cl  0  0  0  0  0  0  0  0  0  0  0  0
    6.7371    0.4404    0.1754 C   0  0  0  0  0  0  0  0  0  0  0  0
    6.1509    0.8079    1.3897 C   0  0  0  0  0  0  0  0  0  0  0  0
    4.8579    1.3393    1.4123 C   0  0  0  0  0  0  0  0  0  0  0  0
   -2.4725    0.7326   -1.6638 H   0  0  0  0  0  0  0  0  0  0  0  0
   -3.7717    2.4664   -0.7818 H   0  0  0  0  0  0  0  0  0  0  0  0
   -2.1651    2.6682   -0.3686 H   0  0  0  0  0  0  0  0  0  0  0  0
   -4.8414    0.2998   -0.9557 H   0  0  0  0  0  0  0  0  0  0  0  0
   -3.7927   -1.1322   -0.9808 H   0  0  0  0  0  0  0  0  0  0  0  0
   -3.5601   -1.0278    1.5429 H   0  0  0  0  0  0  0  0  0  0  0  0
   -5.2913    0.3690    2.7967 H   0  0  0  0  0  0  0  0  0  0  0  0
   -5.6164    1.2671    1.2649 H   0  0  0  0  0  0  0  0  0  0  0  0
   -3.9875    1.3315    2.0558 H   0  0  0  0  0  0  0  0  0  0  0  0
   -5.8323   -1.8784    2.0099 H   0  0  0  0  0  0  0  0  0  0  0  0
   -5.2277   -2.4887    0.4337 H   0  0  0  0  0  0  0  0  0  0  0  0
   -6.4447   -1.1527    0.4718 H   0  0  0  0  0  0  0  0  0  0  0  0
   -0.5429   -0.4928   -2.5273 H   0  0  0  0  0  0  0  0  0  0  0  0
   -1.7318   -1.7237   -1.9059 H   0  0  0  0  0  0  0  0  0  0  0  0
    0.8249   -2.3652   -2.8703 H   0  0  0  0  0  0  0  0  0  0  0  0
   -0.1336   -3.3660   -1.7033 H   0  0  0  0  0  0  0  0  0  0  0  0
    1.6919   -3.0369   -0.2912 H   0  0  0  0  0  0  0  0  0  0  0  0
    2.2191   -1.5632   -1.1933 H   0  0  0  0  0  0  0  0  0  0  0  0
    0.2772   -1.8391    1.1209 H   0  0  0  0  0  0  0  0  0  0  0  0
    1.3565    1.0476   -1.0876 H   0  0  0  0  0  0  0  0  0  0  0  0
    2.6725    2.8890   -0.5022 H   0  0  0  0  0  0  0  0  0  0  0  0
    2.4735    2.4723    1.2259 H   0  0  0  0  0  0  0  0  0  0  0  0
    4.1915    1.2535   -1.9303 H   0  0  0  0  0  0  0  0  0  0  0  0
    7.7380    0.0279    0.1654 H   0  0  0  0  0  0  0  0  0  0  0  0
    6.6980    0.6783    2.3146 H   0  0  0  0  0  0  0  0  0  0  0  0
    4.4148    1.6130    2.3617 H   0  0  0  0  0  0  0  0  0  0  0  0
  1  2  1  0
  1  3  1  0
  3  4  1  0
  4  5  1  0
  4  6  1  0
  1  7  1  0
  7  8  2  0
  7  9  1  0
  9 10  1  0
 10 11  1  0
 11 12  1  0
 12 13  1  0
 13 14  1  0
 14 15  2  0
 14 16  1  0
 16 17  1  0
 17 18  1  0
 18 19  2  0
 19 20  1  0
 20 21  1  0
 20 22  2  0
 22 23  1  0
 23 24  2  0
 13  9  1  0
 24 18  1  0
  1 25  1  6
  2 26  1  0
  2 27  1  0
  3 28  1  0
  3 29  1  0
  4 30  1  0
  5 31  1  0
  5 32  1  0
  5 33  1  0
  6 34  1  0
  6 35  1  0
  6 36  1  0
 10 37  1  0
 10 38  1  0
 11 39  1  0
 11 40  1  0
 12 41  1  0
 12 42  1  0
 13 43  1  1
 16 44  1  0
 17 45  1  0
 17 46  1  0
 19 47  1  0
 22 48  1  0
 23 49  1  0
 24 50  1  0
M  END
$$$$
