
     RDKit          3D

 25 24  0  0  0  0  0  0  0  0999 V2000
   -2.8014   -1.3153    0.6967 N   0  0  0  0  0  0  0  0  0  0  0  0
   -2.1726   -0.0232    0.4096 C   0  0  1  0  0  0  0  0  0  0  0  0
   -0.8288   -0.2207   -0.3158 C   0  0  0  0  0  0  0  0  0  0  0  0
    0.1907   -0.9637    0.5637 C   0  0  0  0  0  0  0  0  0  0  0  0
    1.5397   -1.1392   -0.1464 C   0  0  0  0  0  0  0  0  0  0  0  0
    2.2549    0.1321   -0.2696 N   0  0  0  0  0  0  0  0  0  0  0  0
    3.5167    0.2172   -0.9425 C   0  0  0  0  0  0  0  0  0  0  0  0
    4.1914    1.4706   -1.0396 N   0  0  0  0  0  0  0  0  0  0  0  0
    4.0381   -0.8113   -1.4519 O   0  0  0  0  0  0  0  0  0  0  0  0
   -3.0913    0.8456   -0.4090 C   0  0  0  0  0  0  0  0  0  0  0  0
   -3.5203    2.0681    0.0985 O   0  0  0  0  0  0  0  0  0  0  0  0
   -3.4721    0.4726   -1.5516 O   0  0  0  0  0  0  0  0  0  0  0  0
   -3.6886   -1.1465    1.2251 H   0  0  0  0  0  0  0  0  0  0  0  0
   -3.0558   -1.7893   -0.2010 H   0  0  0  0  0  0  0  0  0  0  0  0
   -1.9756    0.4948    1.3748 H   0  0  0  0  0  0  0  0  0  0  0  0
   -0.4192    0.7765   -0.5884 H   0  0  0  0  0  0  0  0  0  0  0  0
   -0.9915   -0.7922   -1.2565 H   0  0  0  0  0  0  0  0  0  0  0  0
    0.3433   -0.4165    1.5197 H   0  0  0  0  0  0  0  0  0  0  0  0
   -0.2059   -1.9729    0.8085 H   0  0  0  0  0  0  0  0  0  0  0  0
    1.3785   -1.5788   -1.1550 H   0  0  0  0  0  0  0  0  0  0  0  0
    2.1633   -1.8462    0.4423 H   0  0  0  0  0  0  0  0  0  0  0  0
    1.8584    1.0021    0.1527 H   0  0  0  0  0  0  0  0  0  0  0  0
    5.1114    1.5381   -1.5289 H   0  0  0  0  0  0  0  0  0  0  0  0
    3.7737    2.3324   -0.6242 H   0  0  0  0  0  0  0  0  0  0  0  0
   -4.1373    2.6657   -0.4383 H   0  0  0  0  0  0  0  0  0  0  0  0
  1  2  1  0
  2  3  1  0
  3  4  1  0
  4  5  1  0
  5  6  1  0
  6  7  1  0
  7  8  1  0
  7  9  2  0
  2 10  1  0
 10 11  1  0
 10 12  2  0
  1 13  1  0
  1 14  1  0
  2 15  1  1
  3 16  1  0
  3 17  1  0
  4 18  1  0
  4 19  1  0
  5 20  1  0
  5 21  1  0
  6 22  1  0
  8 23  1  0
  8 24  1  0
 11 25  1  0
M  END
$$$$
