
     RDKit          3D

 60 64  0  0  0  0  0  0  0  0999 V2000
   -4.6258    4.2803   -2.0386 C   0  0  0  0  0  0  0  0  0  0  0  0
   -3.5509    3.8163   -1.0601 C   0  0  0  0  0  0  0  0  0  0  0  0
   -3.5539    2.2904   -0.9174 C   0  0  0  0  0  0  0  0  0  0  0  0
   -2.4739    1.8299    0.0653 C   0  0  0  0  0  0  0  0  0  0  0  0
   -2.4712    0.3347    0.1780 C   0  0  0  0  0  0  0  0  0  0  0  0
   -3.1157   -0.2807    1.1224 N   0  0  0  0  0  0  0  0  0  0  0  0
   -2.9990   -1.7295    0.9498 C   0  0  0  0  0  0  0  0  0  0  0  0
   -4.3621   -2.3998    0.8278 C   0  0  0  0  0  0  0  0  0  0  0  0
   -4.1729   -3.8102    1.3777 C   0  0  0  0  0  0  0  0  0  0  0  0
   -2.8793   -3.8061    2.1972 C   0  0  0  0  0  0  0  0  0  0  0  0
   -2.3184   -2.3891    2.1431 C   0  0  0  0  0  0  0  0  0  0  0  0
   -2.1891   -1.8291   -0.3013 C   0  0  0  0  0  0  0  0  0  0  0  0
   -1.8238   -2.8990   -0.8588 O   0  0  0  0  0  0  0  0  0  0  0  0
   -1.8732   -0.5352   -0.7837 N   0  0  0  0  0  0  0  0  0  0  0  0
   -0.8331   -0.2054   -1.7587 C   0  0  0  0  0  0  0  0  0  0  0  0
    0.4870    0.0307   -1.0706 C   0  0  0  0  0  0  0  0  0  0  0  0
    1.1326   -1.0193   -0.3978 C   0  0  0  0  0  0  0  0  0  0  0  0
    2.3495   -0.7999    0.2527 C   0  0  0  0  0  0  0  0  0  0  0  0
    2.9484    0.4691    0.2253 C   0  0  0  0  0  0  0  0  0  0  0  0
    2.3038    1.5202   -0.4436 C   0  0  0  0  0  0  0  0  0  0  0  0
    1.0860    1.3010   -1.0932 C   0  0  0  0  0  0  0  0  0  0  0  0
    4.2282    0.7069    0.9288 C   0  0  0  0  0  0  0  0  0  0  0  0
    4.2387    1.6345    1.9851 C   0  0  0  0  0  0  0  0  0  0  0  0
    5.3932    1.8392    2.7406 C   0  0  0  0  0  0  0  0  0  0  0  0
    6.5514    1.1194    2.4545 C   0  0  0  0  0  0  0  0  0  0  0  0
    6.5652    0.2041    1.4008 C   0  0  0  0  0  0  0  0  0  0  0  0
    5.4174   -0.0059    0.6136 C   0  0  0  0  0  0  0  0  0  0  0  0
    5.5148   -0.9306   -0.5432 C   0  0  0  0  0  0  0  0  0  0  0  0
    4.7274   -0.8846   -1.6363 N   0  0  0  0  0  0  0  0  0  0  0  0
    5.1913   -1.8493   -2.4103 N   0  0  0  0  0  0  0  0  0  0  0  0
    6.2164   -2.4561   -1.8391 N   0  0  0  0  0  0  0  0  0  0  0  0
    6.4489   -1.8970   -0.6628 N   0  0  0  0  0  0  0  0  0  0  0  0
   -4.6001    5.3873   -2.1216 H   0  0  0  0  0  0  0  0  0  0  0  0
   -5.6318    3.9742   -1.6803 H   0  0  0  0  0  0  0  0  0  0  0  0
   -4.4460    3.8444   -3.0445 H   0  0  0  0  0  0  0  0  0  0  0  0
   -2.5584    4.1561   -1.4289 H   0  0  0  0  0  0  0  0  0  0  0  0
   -3.7387    4.2860   -0.0700 H   0  0  0  0  0  0  0  0  0  0  0  0
   -3.3710    1.8284   -1.9126 H   0  0  0  0  0  0  0  0  0  0  0  0
   -4.5498    1.9553   -0.5512 H   0  0  0  0  0  0  0  0  0  0  0  0
   -1.4783    2.1800   -0.2731 H   0  0  0  0  0  0  0  0  0  0  0  0
   -2.6652    2.2741    1.0667 H   0  0  0  0  0  0  0  0  0  0  0  0
   -5.1030   -1.8609    1.4597 H   0  0  0  0  0  0  0  0  0  0  0  0
   -4.7367   -2.4165   -0.2198 H   0  0  0  0  0  0  0  0  0  0  0  0
   -5.0404   -4.1025    2.0088 H   0  0  0  0  0  0  0  0  0  0  0  0
   -4.0846   -4.5333    0.5372 H   0  0  0  0  0  0  0  0  0  0  0  0
   -3.0743   -4.1097    3.2489 H   0  0  0  0  0  0  0  0  0  0  0  0
   -2.1485   -4.5162    1.7511 H   0  0  0  0  0  0  0  0  0  0  0  0
   -1.2091   -2.3913    2.0544 H   0  0  0  0  0  0  0  0  0  0  0  0
   -2.5978   -1.8532    3.0777 H   0  0  0  0  0  0  0  0  0  0  0  0
   -1.1456    0.6889   -2.3390 H   0  0  0  0  0  0  0  0  0  0  0  0
   -0.7232   -1.0377   -2.4865 H   0  0  0  0  0  0  0  0  0  0  0  0
    0.6949   -2.0084   -0.3737 H   0  0  0  0  0  0  0  0  0  0  0  0
    2.8270   -1.6190    0.7764 H   0  0  0  0  0  0  0  0  0  0  0  0
    2.7493    2.5071   -0.4693 H   0  0  0  0  0  0  0  0  0  0  0  0
    0.6115    2.1242   -1.6125 H   0  0  0  0  0  0  0  0  0  0  0  0
    3.3407    2.1848    2.2396 H   0  0  0  0  0  0  0  0  0  0  0  0
    5.3866    2.5503    3.5566 H   0  0  0  0  0  0  0  0  0  0  0  0
    7.4445    1.2770    3.0453 H   0  0  0  0  0  0  0  0  0  0  0  0
    7.4860   -0.3244    1.1863 H   0  0  0  0  0  0  0  0  0  0  0  0
    4.8038   -2.0952   -3.3476 H   0  0  0  0  0  0  0  0  0  0  0  0
  1  2  1  0
  2  3  1  0
  3  4  1  0
  4  5  1  0
  5  6  2  0
  6  7  1  0
  7  8  1  0
  8  9  1  0
  9 10  1  0
 10 11  1  0
  7 12  1  0
 12 13  2  0
 12 14  1  0
 14 15  1  0
 15 16  1  0
 16 17  2  0
 17 18  1  0
 18 19  2  0
 19 20  1  0
 20 21  2  0
 19 22  1  0
 22 23  2  0
 23 24  1  0
 24 25  2  0
 25 26  1  0
 26 27  2  0
 27 28  1  0
 28 29  2  0
 29 30  1  0
 30 31  1  0
 31 32  2  0
 14  5  1  0
 21 16  1  0
 27 22  1  0
 32 28  1  0
 11  7  1  0
  1 33  1  0
  1 34  1  0
  1 35  1  0
  2 36  1  0
  2 37  1  0
  3 38  1  0
  3 39  1  0
  4 40  1  0
  4 41  1  0
  8 42  1  0
  8 43  1  0
  9 44  1  0
  9 45  1  0
 10 46  1  0
 10 47  1  0
 11 48  1  0
 11 49  1  0
 15 50  1  0
 15 51  1  0
 17 52  1  0
 18 53  1  0
 20 54  1  0
 21 55  1  0
 23 56  1  0
 24 57  1  0
 25 58  1  0
 26 59  1  0
 30 60  1  0
M  END
$$$$
