
     RDKit          3D

 36 38  0  0  0  0  0  0  0  0999 V2000
    3.8577   -1.9392    0.0351 C   0  0  0  0  0  0  0  0  0  0  0  0
    2.4544   -1.4167    0.0001 C   0  0  0  0  0  0  0  0  0  0  0  0
    2.0718   -0.2063   -0.4332 C   0  0  0  0  0  0  0  0  0  0  0  0
    3.0040    0.8962   -0.8586 C   0  0  0  0  0  0  0  0  0  0  0  0
    3.0777    1.8584    0.1553 O   0  0  0  0  0  0  0  0  0  0  0  0
    0.6200   -0.1080   -0.1973 C   0  0  0  0  0  0  0  0  0  0  0  0
   -0.2793    0.8667   -0.4402 C   0  0  0  0  0  0  0  0  0  0  0  0
    0.0317    2.0390   -1.3287 C   0  0  0  0  0  0  0  0  0  0  0  0
   -1.6713    0.6589    0.1526 C   0  0  0  0  0  0  0  0  0  0  0  0
   -1.7366    1.2610    1.5630 C   0  0  0  0  0  0  0  0  0  0  0  0
   -2.5681    1.8683    0.4455 C   0  0  0  0  0  0  0  0  0  0  0  0
   -2.2485   -0.8039    0.0165 C   0  0  1  0  0  0  0  0  0  0  0  0
   -3.6012   -1.0692    0.7254 C   0  0  0  0  0  0  0  0  0  0  0  0
   -2.4134   -1.0844   -1.3517 O   0  0  0  0  0  0  0  0  0  0  0  0
   -1.1882   -1.7628    0.5411 C   0  0  0  0  0  0  0  0  0  0  0  0
   -1.4951   -2.8863    1.0262 O   0  0  0  0  0  0  0  0  0  0  0  0
    0.2254   -1.3923    0.3592 C   0  0  0  0  0  0  0  0  0  0  0  0
    1.2898   -2.1683    0.4805 C   0  0  0  0  0  0  0  0  0  0  0  0
    4.4866   -1.2874    0.6772 H   0  0  0  0  0  0  0  0  0  0  0  0
    4.2759   -1.9650   -0.9929 H   0  0  0  0  0  0  0  0  0  0  0  0
    3.8754   -2.9689    0.4500 H   0  0  0  0  0  0  0  0  0  0  0  0
    4.0209    0.4981   -1.0645 H   0  0  0  0  0  0  0  0  0  0  0  0
    2.6463    1.3544   -1.8025 H   0  0  0  0  0  0  0  0  0  0  0  0
    3.6699    2.5768   -0.1886 H   0  0  0  0  0  0  0  0  0  0  0  0
    0.7402    2.7261   -0.8231 H   0  0  0  0  0  0  0  0  0  0  0  0
    0.4569    1.6801   -2.2883 H   0  0  0  0  0  0  0  0  0  0  0  0
   -0.8824    2.6045   -1.5939 H   0  0  0  0  0  0  0  0  0  0  0  0
   -0.8915    1.9177    1.8663 H   0  0  0  0  0  0  0  0  0  0  0  0
   -2.3566    0.7680    2.3351 H   0  0  0  0  0  0  0  0  0  0  0  0
   -2.1998    2.8792    0.1774 H   0  0  0  0  0  0  0  0  0  0  0  0
   -3.6527    1.6950    0.5812 H   0  0  0  0  0  0  0  0  0  0  0  0
   -4.3888   -0.3758    0.3694 H   0  0  0  0  0  0  0  0  0  0  0  0
   -3.5163   -1.0108    1.8288 H   0  0  0  0  0  0  0  0  0  0  0  0
   -3.9544   -2.0943    0.4811 H   0  0  0  0  0  0  0  0  0  0  0  0
   -3.0449   -0.4123   -1.7216 H   0  0  0  0  0  0  0  0  0  0  0  0
    1.2850   -3.1967    0.8181 H   0  0  0  0  0  0  0  0  0  0  0  0
  1  2  1  0
  2  3  2  0
  3  4  1  0
  4  5  1  0
  3  6  1  0
  6  7  2  0
  7  8  1  0
  7  9  1  0
  9 10  1  0
 10 11  1  0
  9 12  1  0
 12 13  1  0
 12 14  1  6
 12 15  1  0
 15 16  2  0
 15 17  1  0
 17 18  2  0
 18  2  1  0
 17  6  1  0
 11  9  1  0
  1 19  1  0
  1 20  1  0
  1 21  1  0
  4 22  1  0
  4 23  1  0
  5 24  1  0
  8 25  1  0
  8 26  1  0
  8 27  1  0
 10 28  1  0
 10 29  1  0
 11 30  1  0
 11 31  1  0
 13 32  1  0
 13 33  1  0
 13 34  1  0
 14 35  1  0
 18 36  1  0
M  END
$$$$
