
     RDKit          3D

 32 34  0  0  0  0  0  0  0  0999 V2000
    5.2587    0.7208    0.9317 N   0  0  0  0  0  0  0  0  0  0  0  0
    4.2013   -0.1392    0.5069 C   0  0  0  0  0  0  0  0  0  0  0  0
    4.4112   -1.4824    0.3651 N   0  0  0  0  0  0  0  0  0  0  0  0
    3.4047   -2.3253   -0.0343 C   0  0  0  0  0  0  0  0  0  0  0  0
    2.1561   -1.8368   -0.3030 N   0  0  0  0  0  0  0  0  0  0  0  0
    1.9542   -0.5038   -0.1671 C   0  0  0  0  0  0  0  0  0  0  0  0
    2.9287    0.3463    0.2286 C   0  0  0  0  0  0  0  0  0  0  0  0
    2.4537    1.6035    0.3131 N   0  0  0  0  0  0  0  0  0  0  0  0
    1.1503    1.4572   -0.0540 C   0  0  0  0  0  0  0  0  0  0  0  0
    0.8185    0.1758   -0.3642 N   0  0  0  0  0  0  0  0  0  0  0  0
   -0.4996   -0.3607   -0.7125 C   0  0  2  0  0  0  0  0  0  0  0  0
   -1.2836    0.6283   -1.3384 O   0  0  0  0  0  0  0  0  0  0  0  0
   -2.6234    0.4308   -0.9362 C   0  0  2  0  0  0  0  0  0  0  0  0
   -3.1704    1.7509   -0.3728 C   0  0  0  0  0  0  0  0  0  0  0  0
   -4.5331    1.6345   -0.0618 O   0  0  0  0  0  0  0  0  0  0  0  0
   -2.6833   -0.7050    0.0990 C   0  0  1  0  0  0  0  0  0  0  0  0
   -3.1325   -1.8913   -0.5043 O   0  0  0  0  0  0  0  0  0  0  0  0
   -1.2436   -0.8668    0.5153 C   0  0  2  0  0  0  0  0  0  0  0  0
   -0.9687   -0.0580    1.6319 O   0  0  0  0  0  0  0  0  0  0  0  0
    6.2041    0.3279    1.1361 H   0  0  0  0  0  0  0  0  0  0  0  0
    5.1048    1.7476    1.0434 H   0  0  0  0  0  0  0  0  0  0  0  0
    3.5998   -3.3839   -0.1355 H   0  0  0  0  0  0  0  0  0  0  0  0
    0.4484    2.2808   -0.0784 H   0  0  0  0  0  0  0  0  0  0  0  0
   -0.3687   -1.2014   -1.4315 H   0  0  0  0  0  0  0  0  0  0  0  0
   -3.2217    0.1645   -1.8361 H   0  0  0  0  0  0  0  0  0  0  0  0
   -2.6133    2.0261    0.5483 H   0  0  0  0  0  0  0  0  0  0  0  0
   -3.0171    2.5689   -1.1132 H   0  0  0  0  0  0  0  0  0  0  0  0
   -5.0237    1.6479   -0.9248 H   0  0  0  0  0  0  0  0  0  0  0  0
   -3.3259   -0.4649    0.9795 H   0  0  0  0  0  0  0  0  0  0  0  0
   -4.1180   -1.8073   -0.5919 H   0  0  0  0  0  0  0  0  0  0  0  0
   -0.9770   -1.9293    0.7276 H   0  0  0  0  0  0  0  0  0  0  0  0
   -1.2908   -0.5558    2.4281 H   0  0  0  0  0  0  0  0  0  0  0  0
  1  2  1  0
  2  3  2  0
  3  4  1  0
  4  5  2  0
  5  6  1  0
  6  7  2  0
  7  8  1  0
  8  9  2  0
  9 10  1  0
 10 11  1  0
 11 12  1  0
 12 13  1  0
 13 14  1  0
 14 15  1  0
 13 16  1  0
 16 17  1  0
 16 18  1  0
 18 19  1  0
  7  2  1  0
 18 11  1  0
 10  6  1  0
  1 20  1  0
  1 21  1  0
  4 22  1  0
  9 23  1  0
 11 24  1  6
 13 25  1  6
 14 26  1  0
 14 27  1  0
 15 28  1  0
 16 29  1  1
 17 30  1  0
 18 31  1  1
 19 32  1  0
M  END
$$$$
