
     RDKit          3D

 21 20  0  0  0  0  0  0  0  0999 V2000
    3.2460    0.9161    0.4638 N   0  0  0  0  0  0  0  0  0  0  0  0
    2.3338    0.0638   -0.2921 C   0  0  0  0  0  0  0  0  0  0  0  0
    0.9143    0.1827    0.2690 C   0  0  0  0  0  0  0  0  0  0  0  0
   -0.0701   -0.6860   -0.5293 C   0  0  0  0  0  0  0  0  0  0  0  0
   -1.4982   -0.6262    0.0450 C   0  0  2  0  0  0  0  0  0  0  0  0
   -2.3411   -1.6252   -0.6157 N   0  0  0  0  0  0  0  0  0  0  0  0
   -2.0966    0.7505   -0.0966 C   0  0  0  0  0  0  0  0  0  0  0  0
   -2.4450    1.4720    1.0409 O   0  0  0  0  0  0  0  0  0  0  0  0
   -2.2781    1.2535   -1.2384 O   0  0  0  0  0  0  0  0  0  0  0  0
    4.1830    0.8668    0.0021 H   0  0  0  0  0  0  0  0  0  0  0  0
    3.3639    0.5036    1.4180 H   0  0  0  0  0  0  0  0  0  0  0  0
    2.6769   -0.9941   -0.2400 H   0  0  0  0  0  0  0  0  0  0  0  0
    2.3365    0.3839   -1.3575 H   0  0  0  0  0  0  0  0  0  0  0  0
    0.9140   -0.1406    1.3332 H   0  0  0  0  0  0  0  0  0  0  0  0
    0.5981    1.2476    0.2239 H   0  0  0  0  0  0  0  0  0  0  0  0
   -0.0776   -0.3631   -1.5941 H   0  0  0  0  0  0  0  0  0  0  0  0
    0.2797   -1.7417   -0.4978 H   0  0  0  0  0  0  0  0  0  0  0  0
   -1.4492   -0.8829    1.1269 H   0  0  0  0  0  0  0  0  0  0  0  0
   -3.2921   -1.6036   -0.1798 H   0  0  0  0  0  0  0  0  0  0  0  0
   -2.4533   -1.3766   -1.6262 H   0  0  0  0  0  0  0  0  0  0  0  0
   -2.8448    2.3996    0.9655 H   0  0  0  0  0  0  0  0  0  0  0  0
  1  2  1  0
  2  3  1  0
  3  4  1  0
  4  5  1  0
  5  6  1  0
  5  7  1  0
  7  8  1  0
  7  9  2  0
  1 10  1  0
  1 11  1  0
  2 12  1  0
  2 13  1  0
  3 14  1  0
  3 15  1  0
  4 16  1  0
  4 17  1  0
  5 18  1  1
  6 19  1  0
  6 20  1  0
  8 21  1  0
M  END
$$$$
