
     RDKit          3D

 52 55  0  0  0  0  0  0  0  0999 V2000
   -5.5475    0.3712   -0.1609 C   0  0  1  0  0  0  0  0  0  0  0  0
   -5.3818    1.5192    0.8676 C   0  0  0  0  0  0  0  0  0  0  0  0
   -5.1534    1.0000    2.2899 C   0  0  0  0  0  0  0  0  0  0  0  0
   -6.4479    0.8370   -1.3405 C   0  0  0  0  0  0  0  0  0  0  0  0
   -6.4142   -0.0322   -2.5422 N   0  0  0  0  0  0  0  0  0  0  0  0
   -5.7476   -1.3275   -2.3528 C   0  0  0  0  0  0  0  0  0  0  0  0
   -4.3772   -1.1080   -1.7823 C   0  0  0  0  0  0  0  0  0  0  0  0
   -4.2513   -0.2171   -0.7062 C   0  0  0  0  0  0  0  0  0  0  0  0
   -2.9706    0.0276   -0.1686 C   0  0  0  0  0  0  0  0  0  0  0  0
   -1.8363   -0.6018   -0.7048 C   0  0  0  0  0  0  0  0  0  0  0  0
   -0.5484   -0.3472   -0.1184 N   0  0  0  0  0  0  0  0  0  0  0  0
    0.6708   -0.2402   -0.8780 C   0  0  0  0  0  0  0  0  0  0  0  0
    0.6335   -0.2882   -2.1380 O   0  0  0  0  0  0  0  0  0  0  0  0
    1.9814   -0.0646   -0.2068 C   0  0  0  0  0  0  0  0  0  0  0  0
    2.0894    0.6189    1.0179 C   0  0  0  0  0  0  0  0  0  0  0  0
    3.3326    0.7810    1.6351 C   0  0  0  0  0  0  0  0  0  0  0  0
    4.4921    0.2693    1.0369 C   0  0  0  0  0  0  0  0  0  0  0  0
    5.7436    0.4276    1.6519 C   0  0  0  0  0  0  0  0  0  0  0  0
    6.9079   -0.0896    1.0529 C   0  0  0  0  0  0  0  0  0  0  0  0
    6.8010   -0.7541   -0.1822 C   0  0  0  0  0  0  0  0  0  0  0  0
    5.5584   -0.9135   -0.8009 C   0  0  0  0  0  0  0  0  0  0  0  0
    4.3982   -0.4078   -0.1992 C   0  0  0  0  0  0  0  0  0  0  0  0
    3.1468   -0.5653   -0.8144 C   0  0  0  0  0  0  0  0  0  0  0  0
    8.2282    0.0851    1.7098 C   0  0  0  0  0  0  0  0  0  0  0  0
    9.2972   -0.8393    1.4715 N   0  0  0  0  0  0  0  0  0  0  0  0
    8.4133    1.0794    2.5209 N   0  0  0  0  0  0  0  0  0  0  0  0
   -1.9908   -1.5205   -1.7563 C   0  0  0  0  0  0  0  0  0  0  0  0
   -3.2537   -1.7674   -2.2961 C   0  0  0  0  0  0  0  0  0  0  0  0
   -6.0925   -0.4596    0.3422 H   0  0  0  0  0  0  0  0  0  0  0  0
   -4.5629    2.2064    0.5655 H   0  0  0  0  0  0  0  0  0  0  0  0
   -6.3095    2.1325    0.8977 H   0  0  0  0  0  0  0  0  0  0  0  0
   -4.3031    0.2904    2.3362 H   0  0  0  0  0  0  0  0  0  0  0  0
   -6.0650    0.4801    2.6540 H   0  0  0  0  0  0  0  0  0  0  0  0
   -4.9419    1.8539    2.9672 H   0  0  0  0  0  0  0  0  0  0  0  0
   -6.1268    1.8525   -1.6588 H   0  0  0  0  0  0  0  0  0  0  0  0
   -7.4950    0.9306   -0.9724 H   0  0  0  0  0  0  0  0  0  0  0  0
   -7.3955   -0.2140   -2.8587 H   0  0  0  0  0  0  0  0  0  0  0  0
   -6.3408   -1.9695   -1.6645 H   0  0  0  0  0  0  0  0  0  0  0  0
   -5.6831   -1.8441   -3.3350 H   0  0  0  0  0  0  0  0  0  0  0  0
   -2.8285    0.7136    0.6523 H   0  0  0  0  0  0  0  0  0  0  0  0
   -0.5232   -0.1839    0.9120 H   0  0  0  0  0  0  0  0  0  0  0  0
    1.2223    1.0580    1.4915 H   0  0  0  0  0  0  0  0  0  0  0  0
    3.3876    1.3138    2.5771 H   0  0  0  0  0  0  0  0  0  0  0  0
    5.8089    0.9432    2.6033 H   0  0  0  0  0  0  0  0  0  0  0  0
    7.6791   -1.1323   -0.6883 H   0  0  0  0  0  0  0  0  0  0  0  0
    5.5060   -1.4274   -1.7535 H   0  0  0  0  0  0  0  0  0  0  0  0
    3.0777   -1.0897   -1.7610 H   0  0  0  0  0  0  0  0  0  0  0  0
   10.2422   -0.6757    1.8849 H   0  0  0  0  0  0  0  0  0  0  0  0
    9.1414   -1.7307    0.9523 H   0  0  0  0  0  0  0  0  0  0  0  0
    9.3254    1.2324    3.0063 H   0  0  0  0  0  0  0  0  0  0  0  0
   -1.1412   -2.0654   -2.1454 H   0  0  0  0  0  0  0  0  0  0  0  0
   -3.3552   -2.4732   -3.1111 H   0  0  0  0  0  0  0  0  0  0  0  0
  1  2  1  0
  2  3  1  0
  1  4  1  0
  4  5  1  0
  5  6  1  0
  6  7  1  0
  7  8  2  0
  8  9  1  0
  9 10  2  0
 10 11  1  0
 11 12  1  0
 12 13  2  0
 12 14  1  0
 14 15  2  0
 15 16  1  0
 16 17  2  0
 17 18  1  0
 18 19  2  0
 19 20  1  0
 20 21  2  0
 21 22  1  0
 22 23  2  0
 19 24  1  0
 24 25  1  0
 24 26  2  3
 10 27  1  0
 27 28  2  0
  8  1  1  0
 23 14  1  0
 28  7  1  0
 22 17  1  0
  1 29  1  1
  2 30  1  0
  2 31  1  0
  3 32  1  0
  3 33  1  0
  3 34  1  0
  4 35  1  0
  4 36  1  0
  5 37  1  0
  6 38  1  0
  6 39  1  0
  9 40  1  0
 11 41  1  0
 15 42  1  0
 16 43  1  0
 18 44  1  0
 20 45  1  0
 21 46  1  0
 23 47  1  0
 25 48  1  0
 25 49  1  0
 26 50  1  0
 27 51  1  0
 28 52  1  0
M  END
$$$$
