
     RDKit          3D

 33 35  0  0  0  0  0  0  0  0999 V2000
    5.5302    1.1937    0.4840 N   0  0  0  0  0  0  0  0  0  0  0  0
    4.5774    0.2100    0.0807 C   0  0  0  0  0  0  0  0  0  0  0  0
    3.2632    0.5470   -0.0287 N   0  0  0  0  0  0  0  0  0  0  0  0
    2.3164   -0.3529   -0.4143 C   0  0  0  0  0  0  0  0  0  0  0  0
    0.8777    0.0682   -0.4827 C   0  0  0  0  0  0  0  0  0  0  0  0
    0.1738   -0.2047    0.8492 C   0  0  0  0  0  0  0  0  0  0  0  0
   -1.2672    0.2219    0.7820 C   0  0  0  0  0  0  0  0  0  0  0  0
   -1.6331    1.5506    1.1202 C   0  0  0  0  0  0  0  0  0  0  0  0
   -2.9723    1.9710    1.0289 C   0  0  0  0  0  0  0  0  0  0  0  0
   -3.9150    1.0461    0.5892 C   0  0  0  0  0  0  0  0  0  0  0  0
   -5.2737    1.1710    0.3978 C   0  0  0  0  0  0  0  0  0  0  0  0
   -5.6917   -0.0745   -0.0606 C   0  0  0  0  0  0  0  0  0  0  0  0
   -4.6466   -0.9289   -0.1500 N   0  0  0  0  0  0  0  0  0  0  0  0
   -3.5692   -0.2339    0.2495 C   0  0  0  0  0  0  0  0  0  0  0  0
   -2.2525   -0.6835    0.3280 C   0  0  0  0  0  0  0  0  0  0  0  0
    2.6895   -1.6762   -0.6903 C   0  0  0  0  0  0  0  0  0  0  0  0
    4.0316   -2.0447   -0.5852 C   0  0  0  0  0  0  0  0  0  0  0  0
    4.9845   -1.1003   -0.1999 C   0  0  0  0  0  0  0  0  0  0  0  0
    5.2219    2.1690    0.6936 H   0  0  0  0  0  0  0  0  0  0  0  0
    6.5429    0.9551    0.5751 H   0  0  0  0  0  0  0  0  0  0  0  0
    0.8243    1.1539   -0.7182 H   0  0  0  0  0  0  0  0  0  0  0  0
    0.3633   -0.4811   -1.3022 H   0  0  0  0  0  0  0  0  0  0  0  0
    0.2331   -1.2893    1.0902 H   0  0  0  0  0  0  0  0  0  0  0  0
    0.6912    0.3450    1.6665 H   0  0  0  0  0  0  0  0  0  0  0  0
   -0.8804    2.2556    1.4504 H   0  0  0  0  0  0  0  0  0  0  0  0
   -3.2578    2.9825    1.2880 H   0  0  0  0  0  0  0  0  0  0  0  0
   -5.8852    2.0478    0.5650 H   0  0  0  0  0  0  0  0  0  0  0  0
   -6.7095   -0.3379   -0.3161 H   0  0  0  0  0  0  0  0  0  0  0  0
   -4.6760   -1.9238   -0.4662 H   0  0  0  0  0  0  0  0  0  0  0  0
   -1.9984   -1.6976    0.0452 H   0  0  0  0  0  0  0  0  0  0  0  0
    1.9494   -2.4116   -0.9807 H   0  0  0  0  0  0  0  0  0  0  0  0
    4.3325   -3.0622   -0.7989 H   0  0  0  0  0  0  0  0  0  0  0  0
    6.0256   -1.3857   -0.1169 H   0  0  0  0  0  0  0  0  0  0  0  0
  1  2  1  0
  2  3  2  0
  3  4  1  0
  4  5  1  0
  5  6  1  0
  6  7  1  0
  7  8  2  0
  8  9  1  0
  9 10  2  0
 10 11  1  0
 11 12  2  0
 12 13  1  0
 13 14  1  0
 14 15  2  0
  4 16  2  0
 16 17  1  0
 17 18  2  0
 18  2  1  0
 15  7  1  0
 14 10  1  0
  1 19  1  0
  1 20  1  0
  5 21  1  0
  5 22  1  0
  6 23  1  0
  6 24  1  0
  8 25  1  0
  9 26  1  0
 11 27  1  0
 12 28  1  0
 13 29  1  0
 15 30  1  0
 16 31  1  0
 17 32  1  0
 18 33  1  0
M  END
$$$$
