
     RDKit          3D

 21 17  0  0  0  0  0  0  0  0999 V2000
    0.0000    0.0000    0.0000 Na  0  0  0  0  0 15  0  0  0  0  0  0
    0.0000    0.0000    0.0000 Na  0  0  0  0  0 15  0  0  0  0  0  0
    0.0000    0.0000    0.0000 Na  0  0  0  0  0 15  0  0  0  0  0  0
   -0.3369   -1.1532   -1.4279 O   0  0  0  0  0  0  0  0  0  0  0  0
   -0.2427   -0.3001   -0.3077 C   0  0  0  0  0  0  0  0  0  0  0  0
    1.2650   -0.1232    0.0165 C   0  0  0  0  0  0  0  0  0  0  0  0
    1.9624   -1.4365    0.2244 C   0  0  0  0  0  0  0  0  0  0  0  0
    2.4693   -2.1351   -0.8642 O   0  0  0  0  0  1  0  0  0  0  0  0
    2.0641   -1.9255    1.3803 O   0  0  0  0  0  0  0  0  0  0  0  0
   -0.8812    1.0717   -0.6688 C   0  0  0  0  0  0  0  0  0  0  0  0
   -0.7802    2.0977    0.4238 C   0  0  0  0  0  0  0  0  0  0  0  0
    0.3056    2.9633    0.4686 O   0  0  0  0  0  1  0  0  0  0  0  0
   -1.6705    2.1697    1.3114 O   0  0  0  0  0  0  0  0  0  0  0  0
   -0.9788   -0.9253    0.8661 C   0  0  0  0  0  0  0  0  0  0  0  0
   -2.0127   -1.8281    0.6455 O   0  0  0  0  0  1  0  0  0  0  0  0
   -0.6999   -0.5941    2.0498 O   0  0  0  0  0  0  0  0  0  0  0  0
   -1.2873   -1.1975   -1.7139 H   0  0  0  0  0  0  0  0  0  0  0  0
    1.7644    0.4045   -0.8252 H   0  0  0  0  0  0  0  0  0  0  0  0
    1.4047    0.5047    0.9232 H   0  0  0  0  0  0  0  0  0  0  0  0
   -1.9554    0.9303   -0.9215 H   0  0  0  0  0  0  0  0  0  0  0  0
   -0.3900    1.4766   -1.5804 H   0  0  0  0  0  0  0  0  0  0  0  0
  4  5  1  0
  5  6  1  0
  6  7  1  0
  7  8  1  0
  7  9  2  0
  5 10  1  0
 10 11  1  0
 11 12  1  0
 11 13  2  0
  5 14  1  0
 14 15  1  0
 14 16  2  0
  4 17  1  0
  6 18  1  0
  6 19  1  0
 10 20  1  0
 10 21  1  0
M  CHG  6   1   1   2   1   3   1   8  -1  12  -1  15  -1
M  END
$$$$
