
     RDKit          3D

 30 31  0  0  0  0  0  0  0  0999 V2000
   -3.2603   -0.2788    0.1771 C   0  0  2  0  0  0  0  0  0  0  0  0
   -3.7375   -1.6984    0.5101 C   0  0  0  0  0  0  0  0  0  0  0  0
   -3.5354    0.0837   -1.2578 C   0  0  0  0  0  0  0  0  0  0  0  0
   -3.9331    1.3794   -1.5728 O   0  0  0  0  0  0  0  0  0  0  0  0
   -3.3672   -0.7598   -2.1802 O   0  0  0  0  0  0  0  0  0  0  0  0
   -1.7903   -0.1021    0.5012 C   0  0  0  0  0  0  0  0  0  0  0  0
   -1.3938    0.8013    1.5016 C   0  0  0  0  0  0  0  0  0  0  0  0
   -0.0412    0.9695    1.8112 C   0  0  0  0  0  0  0  0  0  0  0  0
    0.9438    0.2470    1.1194 C   0  0  0  0  0  0  0  0  0  0  0  0
    0.5484   -0.6727    0.1339 C   0  0  0  0  0  0  0  0  0  0  0  0
   -0.8036   -0.8420   -0.1759 C   0  0  0  0  0  0  0  0  0  0  0  0
    2.3715    0.4225    1.4708 C   0  0  0  0  0  0  0  0  0  0  0  0
    2.6846    0.6170    2.6765 O   0  0  0  0  0  0  0  0  0  0  0  0
    3.4448    0.3878    0.4582 C   0  0  0  0  0  0  0  0  0  0  0  0
    3.3079    0.6001   -0.9122 C   0  0  0  0  0  0  0  0  0  0  0  0
    4.5233    0.5520   -1.6052 C   0  0  0  0  0  0  0  0  0  0  0  0
    5.6164    0.3152   -0.7846 C   0  0  0  0  0  0  0  0  0  0  0  0
    7.6240    0.1813   -1.4008 I   0  0  0  0  0  0  0  0  0  0  0  0
    5.0792    0.1695    0.8004 S   0  0  0  0  0  0  0  0  0  0  0  0
   -3.8635    0.4120    0.8075 H   0  0  0  0  0  0  0  0  0  0  0  0
   -3.5595   -1.9148    1.5852 H   0  0  0  0  0  0  0  0  0  0  0  0
   -4.8272   -1.7885    0.3130 H   0  0  0  0  0  0  0  0  0  0  0  0
   -3.2028   -2.4583   -0.0985 H   0  0  0  0  0  0  0  0  0  0  0  0
   -4.1065    1.6507   -2.5332 H   0  0  0  0  0  0  0  0  0  0  0  0
   -2.1311    1.3783    2.0457 H   0  0  0  0  0  0  0  0  0  0  0  0
    0.2373    1.6748    2.5848 H   0  0  0  0  0  0  0  0  0  0  0  0
    1.2829   -1.2755   -0.3849 H   0  0  0  0  0  0  0  0  0  0  0  0
   -1.0792   -1.5559   -0.9413 H   0  0  0  0  0  0  0  0  0  0  0  0
    2.3652    0.8068   -1.4010 H   0  0  0  0  0  0  0  0  0  0  0  0
    4.6030    0.6978   -2.6741 H   0  0  0  0  0  0  0  0  0  0  0  0
  1  2  1  0
  1  3  1  0
  3  4  1  0
  3  5  2  0
  1  6  1  0
  6  7  2  0
  7  8  1  0
  8  9  2  0
  9 10  1  0
 10 11  2  0
  9 12  1  0
 12 13  2  0
 12 14  1  0
 14 15  2  0
 15 16  1  0
 16 17  2  0
 17 18  1  0
 17 19  1  0
 11  6  1  0
 19 14  1  0
  1 20  1  1
  2 21  1  0
  2 22  1  0
  2 23  1  0
  4 24  1  0
  7 25  1  0
  8 26  1  0
 10 27  1  0
 11 28  1  0
 15 29  1  0
 16 30  1  0
M  END
$$$$
