
     RDKit          3D

 40 41  0  0  0  0  0  0  0  0999 V2000
   -1.4780   -1.6607   -0.6542 O   0  0  0  0  0  0  0  0  0  0  0  0
   -1.4347   -0.8098    0.2754 C   0  0  0  0  0  0  0  0  0  0  0  0
   -0.6570   -1.1185    1.5208 C   0  0  0  0  0  0  0  0  0  0  0  0
    0.8329   -0.8142    1.3424 C   0  0  0  0  0  0  0  0  0  0  0  0
    1.0557    0.6304    1.2229 N   0  0  0  0  0  0  0  0  0  0  0  0
    2.4355    0.8916    1.3321 N   0  0  0  0  0  0  0  0  0  0  0  0
    3.3579    0.6137    0.2631 C   0  0  0  0  0  0  0  0  0  0  0  0
    2.9142    0.2811   -0.8699 O   0  0  0  0  0  0  0  0  0  0  0  0
    4.8224    0.7297    0.4651 C   0  0  0  0  0  0  0  0  0  0  0  0
    5.6739    0.9160   -0.6374 C   0  0  0  0  0  0  0  0  0  0  0  0
    7.0529    1.0178   -0.4388 C   0  0  0  0  0  0  0  0  0  0  0  0
    7.5704    0.9283    0.8142 N   0  0  0  0  0  0  0  0  0  0  0  0
    6.7758    0.7380    1.8998 C   0  0  0  0  0  0  0  0  0  0  0  0
    5.3910    0.6319    1.7471 C   0  0  0  0  0  0  0  0  0  0  0  0
   -2.0864    0.4596    0.1270 N   0  0  0  0  0  0  0  0  0  0  0  0
   -2.8530    0.8133   -1.0652 C   0  0  0  0  0  0  0  0  0  0  0  0
   -4.1603    0.0693   -1.0841 C   0  0  0  0  0  0  0  0  0  0  0  0
   -4.3723   -0.9829   -1.9909 C   0  0  0  0  0  0  0  0  0  0  0  0
   -5.5835   -1.6820   -1.9869 C   0  0  0  0  0  0  0  0  0  0  0  0
   -6.5877   -1.3389   -1.0773 C   0  0  0  0  0  0  0  0  0  0  0  0
   -6.3819   -0.2970   -0.1689 C   0  0  0  0  0  0  0  0  0  0  0  0
   -5.1722    0.4045   -0.1694 C   0  0  0  0  0  0  0  0  0  0  0  0
   -1.0600   -0.5364    2.3776 H   0  0  0  0  0  0  0  0  0  0  0  0
   -0.7791   -2.1963    1.7639 H   0  0  0  0  0  0  0  0  0  0  0  0
    1.2237   -1.3477    0.4472 H   0  0  0  0  0  0  0  0  0  0  0  0
    1.3711   -1.2005    2.2368 H   0  0  0  0  0  0  0  0  0  0  0  0
    0.7301    0.9641    0.2859 H   0  0  0  0  0  0  0  0  0  0  0  0
    2.7658    1.4058    2.1780 H   0  0  0  0  0  0  0  0  0  0  0  0
    5.2772    0.9926   -1.6422 H   0  0  0  0  0  0  0  0  0  0  0  0
    7.7126    1.1679   -1.2830 H   0  0  0  0  0  0  0  0  0  0  0  0
    7.2198    0.6623    2.8834 H   0  0  0  0  0  0  0  0  0  0  0  0
    4.7816    0.4520    2.6225 H   0  0  0  0  0  0  0  0  0  0  0  0
   -1.9968    1.1694    0.8888 H   0  0  0  0  0  0  0  0  0  0  0  0
   -2.2503    0.6035   -1.9758 H   0  0  0  0  0  0  0  0  0  0  0  0
   -3.0609    1.9054   -1.0575 H   0  0  0  0  0  0  0  0  0  0  0  0
   -3.6019   -1.2632   -2.6984 H   0  0  0  0  0  0  0  0  0  0  0  0
   -5.7430   -2.4911   -2.6879 H   0  0  0  0  0  0  0  0  0  0  0  0
   -7.5242   -1.8815   -1.0752 H   0  0  0  0  0  0  0  0  0  0  0  0
   -7.1590   -0.0340    0.5371 H   0  0  0  0  0  0  0  0  0  0  0  0
   -5.0221    1.2067    0.5426 H   0  0  0  0  0  0  0  0  0  0  0  0
  1  2  2  0
  2  3  1  0
  3  4  1  0
  4  5  1  0
  5  6  1  0
  6  7  1  0
  7  8  2  0
  7  9  1  0
  9 10  2  0
 10 11  1  0
 11 12  2  0
 12 13  1  0
 13 14  2  0
  2 15  1  0
 15 16  1  0
 16 17  1  0
 17 18  2  0
 18 19  1  0
 19 20  2  0
 20 21  1  0
 21 22  2  0
 14  9  1  0
 22 17  1  0
  3 23  1  0
  3 24  1  0
  4 25  1  0
  4 26  1  0
  5 27  1  0
  6 28  1  0
 10 29  1  0
 11 30  1  0
 13 31  1  0
 14 32  1  0
 15 33  1  0
 16 34  1  0
 16 35  1  0
 18 36  1  0
 19 37  1  0
 20 38  1  0
 21 39  1  0
 22 40  1  0
M  END
$$$$
