
     RDKit          3D

 37 40  0  0  0  0  0  0  0  0999 V2000
   -1.0194    0.6962    0.7390 C   0  0  1  0  0  0  0  0  0  0  0  0
   -0.1858    1.8516    0.1408 C   0  0  0  0  0  0  0  0  0  0  0  0
    1.2786    1.4951    0.1488 C   0  0  0  0  0  0  0  0  0  0  0  0
    1.6846    0.1658   -0.1151 C   0  0  0  0  0  0  0  0  0  0  0  0
    3.0592   -0.1686    0.0054 C   0  0  0  0  0  0  0  0  0  0  0  0
    3.4438   -1.5116   -0.0220 O   0  0  0  0  0  0  0  0  0  0  0  0
    4.0136    0.8580    0.2115 C   0  0  0  0  0  0  0  0  0  0  0  0
    5.3882    0.6129    0.2417 O   0  0  0  0  0  0  0  0  0  0  0  0
    3.5881    2.1753    0.3904 C   0  0  0  0  0  0  0  0  0  0  0  0
    2.2336    2.4917    0.3749 C   0  0  0  0  0  0  0  0  0  0  0  0
    0.6212   -0.8511   -0.4107 C   0  0  0  0  0  0  0  0  0  0  0  0
    0.8785   -2.0095   -1.1696 C   0  0  0  0  0  0  0  0  0  0  0  0
   -0.1224   -2.9596   -1.3760 C   0  0  0  0  0  0  0  0  0  0  0  0
   -1.3971   -2.7644   -0.8475 C   0  0  0  0  0  0  0  0  0  0  0  0
   -1.6985   -1.5935   -0.1408 C   0  0  0  0  0  0  0  0  0  0  0  0
   -3.1053   -1.3842    0.3586 C   0  0  0  0  0  0  0  0  0  0  0  0
   -3.2230   -0.1666    1.2895 C   0  0  0  0  0  0  0  0  0  0  0  0
   -2.4746    0.9983    0.7760 N   0  0  0  0  0  0  0  0  0  0  0  0
   -3.0303    1.4778   -0.5069 C   0  0  0  0  0  0  0  0  0  0  0  0
   -0.7043   -0.6046    0.0226 C   0  0  0  0  0  0  0  0  0  0  0  0
   -0.6777    0.5726    1.7920 H   0  0  0  0  0  0  0  0  0  0  0  0
   -0.3707    2.7747    0.7331 H   0  0  0  0  0  0  0  0  0  0  0  0
   -0.4702    2.0447   -0.9150 H   0  0  0  0  0  0  0  0  0  0  0  0
    4.3793   -1.8384    0.1719 H   0  0  0  0  0  0  0  0  0  0  0  0
    5.8081   -0.2781    0.0180 H   0  0  0  0  0  0  0  0  0  0  0  0
    4.3159    2.9599    0.5551 H   0  0  0  0  0  0  0  0  0  0  0  0
    1.9288    3.5181    0.5385 H   0  0  0  0  0  0  0  0  0  0  0  0
    1.8383   -2.1767   -1.6359 H   0  0  0  0  0  0  0  0  0  0  0  0
    0.0906   -3.8505   -1.9527 H   0  0  0  0  0  0  0  0  0  0  0  0
   -2.1594   -3.5164   -1.0107 H   0  0  0  0  0  0  0  0  0  0  0  0
   -3.4447   -2.2890    0.9081 H   0  0  0  0  0  0  0  0  0  0  0  0
   -3.7786   -1.2482   -0.5150 H   0  0  0  0  0  0  0  0  0  0  0  0
   -2.8380   -0.4389    2.2976 H   0  0  0  0  0  0  0  0  0  0  0  0
   -4.2948    0.0961    1.4269 H   0  0  0  0  0  0  0  0  0  0  0  0
   -2.7358    2.5351   -0.6708 H   0  0  0  0  0  0  0  0  0  0  0  0
   -2.6781    0.8619   -1.3626 H   0  0  0  0  0  0  0  0  0  0  0  0
   -4.1417    1.4642   -0.4893 H   0  0  0  0  0  0  0  0  0  0  0  0
  1  2  1  0
  2  3  1  0
  3  4  2  0
  4  5  1  0
  5  6  1  0
  5  7  2  0
  7  8  1  0
  7  9  1  0
  9 10  2  0
  4 11  1  0
 11 12  2  0
 12 13  1  0
 13 14  2  0
 14 15  1  0
 15 16  1  0
 16 17  1  0
 17 18  1  0
 18 19  1  0
 15 20  2  0
 18  1  1  0
 20  1  1  0
 10  3  1  0
 20 11  1  0
  1 21  1  1
  2 22  1  0
  2 23  1  0
  6 24  1  0
  8 25  1  0
  9 26  1  0
 10 27  1  0
 12 28  1  0
 13 29  1  0
 14 30  1  0
 16 31  1  0
 16 32  1  0
 17 33  1  0
 17 34  1  0
 19 35  1  0
 19 36  1  0
 19 37  1  0
M  END
$$$$
