
     RDKit          3D

 41 43  0  0  0  0  0  0  0  0999 V2000
    3.1967   -1.2907    0.1918 C   0  0  1  0  0  0  0  0  0  0  0  0
    4.1362   -1.4889   -1.0276 C   0  0  0  0  0  0  0  0  0  0  0  0
    5.3867   -0.8460   -0.6785 N   0  0  0  0  0  0  0  0  0  0  0  0
    5.3352   -0.3781    0.6498 C   0  0  0  0  0  0  0  0  0  0  0  0
    6.3083    0.1926    1.2087 O   0  0  0  0  0  0  0  0  0  0  0  0
    4.0420   -0.6392    1.3118 C   0  0  0  0  0  0  0  0  0  0  0  0
    1.9824   -0.4494   -0.1605 C   0  0  0  0  0  0  0  0  0  0  0  0
    2.1296    0.8589   -0.6425 C   0  0  0  0  0  0  0  0  0  0  0  0
    1.0100    1.6251   -0.9631 C   0  0  0  0  0  0  0  0  0  0  0  0
   -0.2900    1.1036   -0.8089 C   0  0  0  0  0  0  0  0  0  0  0  0
   -1.4163    1.8730   -1.1374 O   0  0  0  0  0  0  0  0  0  0  0  0
   -1.3796    3.2123   -1.6195 C   0  0  0  0  0  0  0  0  0  0  0  0
   -0.4468   -0.2182   -0.3160 C   0  0  0  0  0  0  0  0  0  0  0  0
   -1.6896   -0.8499   -0.1122 O   0  0  0  0  0  0  0  0  0  0  0  0
   -2.9940   -0.2872   -0.2782 C   0  0  0  0  0  0  0  0  0  0  0  0
   -3.3061    0.7072    0.8449 C   0  0  0  0  0  0  0  0  0  0  0  0
   -4.1706   -0.0276    1.8680 C   0  0  0  0  0  0  0  0  0  0  0  0
   -4.3452   -1.4492    1.3545 C   0  0  0  0  0  0  0  0  0  0  0  0
   -4.0298   -1.3907   -0.1277 C   0  0  0  0  0  0  0  0  0  0  0  0
    0.6913   -0.9734   -0.0031 C   0  0  0  0  0  0  0  0  0  0  0  0
    2.8684   -2.2950    0.5438 H   0  0  0  0  0  0  0  0  0  0  0  0
    4.3189   -2.5713   -1.2017 H   0  0  0  0  0  0  0  0  0  0  0  0
    3.7320   -1.0416   -1.9615 H   0  0  0  0  0  0  0  0  0  0  0  0
    6.2264   -0.7975   -1.2973 H   0  0  0  0  0  0  0  0  0  0  0  0
    4.1921   -1.3478    2.1546 H   0  0  0  0  0  0  0  0  0  0  0  0
    3.6059    0.3089    1.6954 H   0  0  0  0  0  0  0  0  0  0  0  0
    3.1161    1.2869   -0.7715 H   0  0  0  0  0  0  0  0  0  0  0  0
    1.1694    2.6281   -1.3338 H   0  0  0  0  0  0  0  0  0  0  0  0
   -2.4182    3.5651   -1.7841 H   0  0  0  0  0  0  0  0  0  0  0  0
   -0.8327    3.2563   -2.5849 H   0  0  0  0  0  0  0  0  0  0  0  0
   -0.8946    3.8744   -0.8715 H   0  0  0  0  0  0  0  0  0  0  0  0
   -3.0967    0.1627   -1.2890 H   0  0  0  0  0  0  0  0  0  0  0  0
   -2.3784    1.0892    1.3237 H   0  0  0  0  0  0  0  0  0  0  0  0
   -3.8684    1.5727    0.4304 H   0  0  0  0  0  0  0  0  0  0  0  0
   -3.6872   -0.0312    2.8694 H   0  0  0  0  0  0  0  0  0  0  0  0
   -5.1628    0.4684    1.9509 H   0  0  0  0  0  0  0  0  0  0  0  0
   -3.6187   -2.1224    1.8614 H   0  0  0  0  0  0  0  0  0  0  0  0
   -5.3766   -1.8235    1.5330 H   0  0  0  0  0  0  0  0  0  0  0  0
   -3.6554   -2.3682   -0.5029 H   0  0  0  0  0  0  0  0  0  0  0  0
   -4.9506   -1.1167   -0.6896 H   0  0  0  0  0  0  0  0  0  0  0  0
    0.5607   -1.9818    0.3708 H   0  0  0  0  0  0  0  0  0  0  0  0
  1  2  1  0
  2  3  1  0
  3  4  1  0
  4  5  2  0
  4  6  1  0
  1  7  1  0
  7  8  2  0
  8  9  1  0
  9 10  2  0
 10 11  1  0
 11 12  1  0
 10 13  1  0
 13 14  1  0
 14 15  1  0
 15 16  1  0
 16 17  1  0
 17 18  1  0
 18 19  1  0
 13 20  2  0
  6  1  1  0
 20  7  1  0
 19 15  1  0
  1 21  1  1
  2 22  1  0
  2 23  1  0
  3 24  1  0
  6 25  1  0
  6 26  1  0
  8 27  1  0
  9 28  1  0
 12 29  1  0
 12 30  1  0
 12 31  1  0
 15 32  1  0
 16 33  1  0
 16 34  1  0
 17 35  1  0
 17 36  1  0
 18 37  1  0
 18 38  1  0
 19 39  1  0
 19 40  1  0
 20 41  1  0
M  END
$$$$
