
     RDKit          3D

 42 44  0  0  0  0  0  0  0  0999 V2000
   -3.6859    0.0883    1.7680 C   0  0  0  0  0  0  0  0  0  0  0  0
   -2.7125    0.2309    0.6759 N   0  0  0  0  0  0  0  0  0  0  0  0
   -2.1701    1.5242    0.3422 C   0  0  0  0  0  0  0  0  0  0  0  0
   -2.8863    2.7040    0.6300 C   0  0  0  0  0  0  0  0  0  0  0  0
   -2.3291    3.9554    0.3689 C   0  0  0  0  0  0  0  0  0  0  0  0
   -1.0505    4.0495   -0.1737 C   0  0  0  0  0  0  0  0  0  0  0  0
   -0.3372    2.8922   -0.4856 C   0  0  0  0  0  0  0  0  0  0  0  0
   -0.9031    1.6131   -0.2784 C   0  0  0  0  0  0  0  0  0  0  0  0
   -0.1014    0.3474   -0.6056 C   0  0  0  0  0  0  0  0  0  0  0  0
    0.5527    0.5559   -1.9215 C   0  0  0  0  0  0  0  0  0  0  0  0
    1.0626    0.7186   -2.9479 N   0  0  0  0  0  0  0  0  0  0  0  0
    0.9422    0.1163    0.4760 C   0  0  0  0  0  0  0  0  0  0  0  0
    0.7056    0.4959    1.6572 O   0  0  0  0  0  0  0  0  0  0  0  0
    2.1562   -0.6028    0.2001 N   0  0  0  0  0  0  0  0  0  0  0  0
    3.1590   -0.8259    1.2430 C   0  0  0  0  0  0  0  0  0  0  0  0
    4.3801   -1.5759    0.7004 C   0  0  0  0  0  0  0  0  0  0  0  0
    5.1396   -0.7394   -0.2828 C   0  0  0  0  0  0  0  0  0  0  0  0
    5.9656    0.2838    0.1714 O   0  0  0  0  0  0  0  0  0  0  0  0
    5.0107   -0.9426   -1.5198 O   0  0  0  0  0  0  0  0  0  0  0  0
   -0.9897   -0.8959   -0.6899 C   0  0  0  0  0  0  0  0  0  0  0  0
   -2.2507   -0.9258   -0.0502 C   0  0  0  0  0  0  0  0  0  0  0  0
   -3.0493   -2.0842   -0.1429 C   0  0  0  0  0  0  0  0  0  0  0  0
   -2.5851   -3.2166   -0.8108 C   0  0  0  0  0  0  0  0  0  0  0  0
   -1.3214   -3.2124   -1.3939 C   0  0  0  0  0  0  0  0  0  0  0  0
   -0.5264   -2.0683   -1.3309 C   0  0  0  0  0  0  0  0  0  0  0  0
   -4.7166    0.1863    1.3675 H   0  0  0  0  0  0  0  0  0  0  0  0
   -3.5728   -0.8959    2.2700 H   0  0  0  0  0  0  0  0  0  0  0  0
   -3.5153    0.8579    2.5504 H   0  0  0  0  0  0  0  0  0  0  0  0
   -3.8802    2.6619    1.0550 H   0  0  0  0  0  0  0  0  0  0  0  0
   -2.8855    4.8546    0.6002 H   0  0  0  0  0  0  0  0  0  0  0  0
   -0.6102    5.0217   -0.3541 H   0  0  0  0  0  0  0  0  0  0  0  0
    0.6611    2.9959   -0.8916 H   0  0  0  0  0  0  0  0  0  0  0  0
    2.3206   -0.9847   -0.7578 H   0  0  0  0  0  0  0  0  0  0  0  0
    3.4786    0.1504    1.6694 H   0  0  0  0  0  0  0  0  0  0  0  0
    2.7044   -1.4284    2.0588 H   0  0  0  0  0  0  0  0  0  0  0  0
    5.0541   -1.8294    1.5465 H   0  0  0  0  0  0  0  0  0  0  0  0
    4.0585   -2.5296    0.2273 H   0  0  0  0  0  0  0  0  0  0  0  0
    6.4767    0.8668   -0.4806 H   0  0  0  0  0  0  0  0  0  0  0  0
   -4.0386   -2.1148    0.2937 H   0  0  0  0  0  0  0  0  0  0  0  0
   -3.2052   -4.1017   -0.8711 H   0  0  0  0  0  0  0  0  0  0  0  0
   -0.9571   -4.0972   -1.9000 H   0  0  0  0  0  0  0  0  0  0  0  0
    0.4518   -2.0997   -1.7918 H   0  0  0  0  0  0  0  0  0  0  0  0
  1  2  1  0
  2  3  1  0
  3  4  2  0
  4  5  1  0
  5  6  2  0
  6  7  1  0
  7  8  2  0
  8  9  1  0
  9 10  1  0
 10 11  3  0
  9 12  1  0
 12 13  2  0
 12 14  1  0
 14 15  1  0
 15 16  1  0
 16 17  1  0
 17 18  1  0
 17 19  2  0
  9 20  1  0
 20 21  2  0
 21 22  1  0
 22 23  2  0
 23 24  1  0
 24 25  2  0
 21  2  1  0
  8  3  1  0
 25 20  1  0
  1 26  1  0
  1 27  1  0
  1 28  1  0
  4 29  1  0
  5 30  1  0
  6 31  1  0
  7 32  1  0
 14 33  1  0
 15 34  1  0
 15 35  1  0
 16 36  1  0
 16 37  1  0
 18 38  1  0
 22 39  1  0
 23 40  1  0
 24 41  1  0
 25 42  1  0
M  END
$$$$
