
     RDKit          3D

 65 67  0  0  0  0  0  0  0  0999 V2000
   -5.1170   -0.8002   -0.6902 C   0  0  1  0  0  0  0  0  0  0  0  0
   -4.8640   -1.6613   -1.9447 C   0  0  0  0  0  0  0  0  0  0  0  0
   -5.5022   -3.0425   -1.8130 C   0  0  0  0  0  0  0  0  0  0  0  0
   -4.6493   -1.4116    0.4958 O   0  0  0  0  0  0  0  0  0  0  0  0
   -4.0861   -0.3728    1.2880 C   0  0  2  0  0  0  0  0  0  0  0  0
   -4.4536   -0.5747    2.7676 C   0  0  0  0  0  0  0  0  0  0  0  0
   -4.5878    0.9656    0.7418 C   0  0  2  0  0  0  0  0  0  0  0  0
   -5.9347    1.2129    1.1679 O   0  0  0  0  0  0  0  0  0  0  0  0
   -6.4914    2.4915    1.2830 C   0  0  0  0  0  0  0  0  0  0  0  0
   -7.9216    2.6332    1.6770 C   0  0  0  0  0  0  0  0  0  0  0  0
   -5.8124    3.5203    1.0178 O   0  0  0  0  0  0  0  0  0  0  0  0
   -4.5074    0.6139   -0.7278 C   0  0  2  0  0  0  0  0  0  0  0  0
   -5.3124    1.5718   -1.6206 C   0  0  0  0  0  0  0  0  0  0  0  0
   -3.1409    0.6415   -1.1608 O   0  0  0  0  0  0  0  0  0  0  0  0
   -2.2162   -0.1756   -0.4271 C   0  0  1  0  0  0  0  0  0  0  0  0
   -0.8462    0.4325   -0.5730 C   0  0  0  0  0  0  0  0  0  0  0  0
    0.2654   -0.2628   -0.3149 C   0  0  0  0  0  0  0  0  0  0  0  0
    1.5953    0.3487   -0.4694 C   0  0  0  0  0  0  0  0  0  0  0  0
    2.7049   -0.3465   -0.2113 C   0  0  0  0  0  0  0  0  0  0  0  0
    4.0359    0.2651   -0.3648 C   0  0  0  0  0  0  0  0  0  0  0  0
    5.1474   -0.4322   -0.1054 C   0  0  0  0  0  0  0  0  0  0  0  0
    6.4996    0.1618   -0.2525 C   0  0  0  0  0  0  0  0  0  0  0  0
    7.6770   -0.5796    0.0234 C   0  0  0  0  0  0  0  0  0  0  0  0
    7.6049   -2.0169    0.4823 C   0  0  0  0  0  0  0  0  0  0  0  0
    8.9246    0.0577   -0.1409 C   0  0  0  0  0  0  0  0  0  0  0  0
   10.1067   -0.6542    0.1256 O   0  0  0  0  0  0  0  0  0  0  0  0
   11.4208   -0.1208   -0.0032 C   0  0  0  0  0  0  0  0  0  0  0  0
    8.9542    1.3934   -0.5686 C   0  0  0  0  0  0  0  0  0  0  0  0
    7.7541    2.0539   -0.8192 C   0  0  0  0  0  0  0  0  0  0  0  0
    7.7642    3.2526   -1.2036 O   0  0  0  0  0  0  0  0  0  0  0  0
    6.5966    1.4280   -0.6556 O   0  0  0  0  0  0  0  0  0  0  0  0
   -2.5552   -0.3708    1.0850 C   0  0  2  0  0  0  0  0  0  0  0  0
   -1.9656   -1.5481    1.5847 O   0  0  0  0  0  0  0  0  0  0  0  0
   -6.2243   -0.7083   -0.5920 H   0  0  0  0  0  0  0  0  0  0  0  0
   -5.3120   -1.1550   -2.8262 H   0  0  0  0  0  0  0  0  0  0  0  0
   -3.7890   -1.7937   -2.1572 H   0  0  0  0  0  0  0  0  0  0  0  0
   -6.5951   -2.9495   -1.6372 H   0  0  0  0  0  0  0  0  0  0  0  0
   -5.3422   -3.6167   -2.7499 H   0  0  0  0  0  0  0  0  0  0  0  0
   -5.0409   -3.6034   -0.9727 H   0  0  0  0  0  0  0  0  0  0  0  0
   -4.0370   -1.5324    3.1448 H   0  0  0  0  0  0  0  0  0  0  0  0
   -5.5562   -0.6177    2.8929 H   0  0  0  0  0  0  0  0  0  0  0  0
   -4.0538    0.2584    3.3846 H   0  0  0  0  0  0  0  0  0  0  0  0
   -3.9250    1.8190    1.0168 H   0  0  0  0  0  0  0  0  0  0  0  0
   -8.0578    3.5412    2.3015 H   0  0  0  0  0  0  0  0  0  0  0  0
   -8.2431    1.7451    2.2603 H   0  0  0  0  0  0  0  0  0  0  0  0
   -8.5486    2.7167    0.7652 H   0  0  0  0  0  0  0  0  0  0  0  0
   -5.1821    1.2937   -2.6875 H   0  0  0  0  0  0  0  0  0  0  0  0
   -6.3975    1.5415   -1.3859 H   0  0  0  0  0  0  0  0  0  0  0  0
   -4.9443    2.6114   -1.4895 H   0  0  0  0  0  0  0  0  0  0  0  0
   -2.1708   -1.1687   -0.9145 H   0  0  0  0  0  0  0  0  0  0  0  0
   -0.7694    1.4582   -0.9170 H   0  0  0  0  0  0  0  0  0  0  0  0
    0.1906   -1.2946    0.0093 H   0  0  0  0  0  0  0  0  0  0  0  0
    1.6695    1.3802   -0.7972 H   0  0  0  0  0  0  0  0  0  0  0  0
    2.6296   -1.3777    0.1170 H   0  0  0  0  0  0  0  0  0  0  0  0
    4.1032    1.2960   -0.6933 H   0  0  0  0  0  0  0  0  0  0  0  0
    5.0461   -1.4592    0.2208 H   0  0  0  0  0  0  0  0  0  0  0  0
    7.0955   -2.6311   -0.2897 H   0  0  0  0  0  0  0  0  0  0  0  0
    7.0399   -2.0772    1.4362 H   0  0  0  0  0  0  0  0  0  0  0  0
    8.6050   -2.4627    0.6577 H   0  0  0  0  0  0  0  0  0  0  0  0
   12.1577   -0.9031    0.2716 H   0  0  0  0  0  0  0  0  0  0  0  0
   11.6063    0.1884   -1.0535 H   0  0  0  0  0  0  0  0  0  0  0  0
   11.5504    0.7448    0.6802 H   0  0  0  0  0  0  0  0  0  0  0  0
    9.8889    1.9207   -0.7077 H   0  0  0  0  0  0  0  0  0  0  0  0
   -2.1304    0.4799    1.6663 H   0  0  0  0  0  0  0  0  0  0  0  0
   -2.3510   -2.3179    1.0906 H   0  0  0  0  0  0  0  0  0  0  0  0
  1  2  1  0
  2  3  1  0
  1  4  1  0
  4  5  1  0
  5  6  1  1
  5  7  1  0
  7  8  1  0
  8  9  1  0
  9 10  1  0
  9 11  2  0
  7 12  1  0
 12 13  1  6
 12 14  1  0
 14 15  1  0
 15 16  1  0
 16 17  2  0
 17 18  1  0
 18 19  2  0
 19 20  1  0
 20 21  2  0
 21 22  1  0
 22 23  2  0
 23 24  1  0
 23 25  1  0
 25 26  1  0
 26 27  1  0
 25 28  2  0
 28 29  1  0
 29 30  2  0
 29 31  1  0
 15 32  1  0
 32 33  1  0
 12  1  1  0
 31 22  1  0
 32  5  1  0
  1 34  1  1
  2 35  1  0
  2 36  1  0
  3 37  1  0
  3 38  1  0
  3 39  1  0
  6 40  1  0
  6 41  1  0
  6 42  1  0
  7 43  1  6
 10 44  1  0
 10 45  1  0
 10 46  1  0
 13 47  1  0
 13 48  1  0
 13 49  1  0
 15 50  1  6
 16 51  1  0
 17 52  1  0
 18 53  1  0
 19 54  1  0
 20 55  1  0
 21 56  1  0
 24 57  1  0
 24 58  1  0
 24 59  1  0
 27 60  1  0
 27 61  1  0
 27 62  1  0
 28 63  1  0
 32 64  1  1
 33 65  1  0
M  END
$$$$
