
     RDKit          3D

 74 77  0  0  0  0  0  0  0  0999 V2000
    1.5630    0.9176    0.5138 C   0  0  1  0  0  0  0  0  0  0  0  0
    1.7100    1.4491   -0.9332 C   0  0  0  0  0  0  0  0  0  0  0  0
    0.3410    1.2419   -1.6080 C   0  0  0  0  0  0  0  0  0  0  0  0
   -0.5910    0.8849   -0.4562 C   0  0  1  0  0  0  0  0  0  0  0  0
   -1.9649    0.2534   -0.7706 C   0  0  2  0  0  0  0  0  0  0  0  0
   -2.7812    1.1750   -1.6888 C   0  0  0  0  0  0  0  0  0  0  0  0
   -4.2194    0.7552   -1.8023 C   0  0  0  0  0  0  0  0  0  0  0  0
   -4.8737    0.0547   -0.8491 C   0  0  0  0  0  0  0  0  0  0  0  0
   -6.3582   -0.2016   -1.0331 C   0  0  0  0  0  0  0  0  0  0  0  0
   -7.1143    0.0027    0.2857 C   0  0  1  0  0  0  0  0  0  0  0  0
   -8.4590   -0.3665    0.1271 O   0  0  0  0  0  0  0  0  0  0  0  0
   -6.4923   -0.8434    1.4000 C   0  0  0  0  0  0  0  0  0  0  0  0
   -5.0132   -0.4828    1.6066 C   0  0  0  0  0  0  0  0  0  0  0  0
   -4.1432   -0.6319    0.3189 C   0  0  1  0  0  0  0  0  0  0  0  0
   -3.9899   -2.1394   -0.0249 C   0  0  0  0  0  0  0  0  0  0  0  0
   -2.7407    0.0461    0.5678 C   0  0  1  0  0  0  0  0  0  0  0  0
   -1.8789   -0.6557    1.6700 C   0  0  0  0  0  0  0  0  0  0  0  0
   -0.4782   -0.0246    1.8505 C   0  0  0  0  0  0  0  0  0  0  0  0
    0.2741    0.0465    0.5015 C   0  0  2  0  0  0  0  0  0  0  0  0
    0.5517   -1.3907   -0.0297 C   0  0  0  0  0  0  0  0  0  0  0  0
    2.8545    0.4325    1.2695 C   0  0  2  0  0  0  0  0  0  0  0  0
    3.7759    1.6284    1.5810 C   0  0  0  0  0  0  0  0  0  0  0  0
    3.6700   -0.8217    0.8038 C   0  0  0  0  0  0  0  0  0  0  0  0
    4.1965   -0.9493   -0.6435 C   0  0  0  0  0  0  0  0  0  0  0  0
    5.2321    0.0956   -1.1039 C   0  0  0  0  0  0  0  0  0  0  0  0
    6.5393    0.1397   -0.2752 C   0  0  0  0  0  0  0  0  0  0  0  0
    7.3312   -1.1726   -0.3754 C   0  0  0  0  0  0  0  0  0  0  0  0
    7.4116    1.3111   -0.7447 C   0  0  0  0  0  0  0  0  0  0  0  0
    1.2629    1.8226    1.0963 H   0  0  0  0  0  0  0  0  0  0  0  0
    2.4823    0.9380   -1.5219 H   0  0  0  0  0  0  0  0  0  0  0  0
    1.9677    2.5313   -0.9165 H   0  0  0  0  0  0  0  0  0  0  0  0
    0.0064    2.1667   -2.1266 H   0  0  0  0  0  0  0  0  0  0  0  0
    0.3882    0.4073   -2.3414 H   0  0  0  0  0  0  0  0  0  0  0  0
   -0.8192    1.8595    0.0447 H   0  0  0  0  0  0  0  0  0  0  0  0
   -1.8262   -0.7004   -1.3126 H   0  0  0  0  0  0  0  0  0  0  0  0
   -2.3322    1.1778   -2.7053 H   0  0  0  0  0  0  0  0  0  0  0  0
   -2.7633    2.2185   -1.3053 H   0  0  0  0  0  0  0  0  0  0  0  0
   -4.7747    1.1666   -2.6408 H   0  0  0  0  0  0  0  0  0  0  0  0
   -6.7940    0.4861   -1.7914 H   0  0  0  0  0  0  0  0  0  0  0  0
   -6.5124   -1.2370   -1.4042 H   0  0  0  0  0  0  0  0  0  0  0  0
   -7.0535    1.0772    0.5814 H   0  0  0  0  0  0  0  0  0  0  0  0
   -8.8975    0.3615   -0.3865 H   0  0  0  0  0  0  0  0  0  0  0  0
   -6.5992   -1.9247    1.1684 H   0  0  0  0  0  0  0  0  0  0  0  0
   -7.0416   -0.6531    2.3478 H   0  0  0  0  0  0  0  0  0  0  0  0
   -4.9676    0.5666    1.9740 H   0  0  0  0  0  0  0  0  0  0  0  0
   -4.6171   -1.1286    2.4191 H   0  0  0  0  0  0  0  0  0  0  0  0
   -3.2825   -2.3013   -0.8615 H   0  0  0  0  0  0  0  0  0  0  0  0
   -4.9551   -2.5875   -0.3344 H   0  0  0  0  0  0  0  0  0  0  0  0
   -3.6442   -2.7242    0.8517 H   0  0  0  0  0  0  0  0  0  0  0  0
   -2.9428    1.0686    0.9648 H   0  0  0  0  0  0  0  0  0  0  0  0
   -1.7508   -1.7329    1.4512 H   0  0  0  0  0  0  0  0  0  0  0  0
   -2.4002   -0.5874    2.6474 H   0  0  0  0  0  0  0  0  0  0  0  0
    0.1046   -0.6255    2.5818 H   0  0  0  0  0  0  0  0  0  0  0  0
   -0.5985    0.9926    2.2846 H   0  0  0  0  0  0  0  0  0  0  0  0
   -0.3644   -1.9251   -0.3374 H   0  0  0  0  0  0  0  0  0  0  0  0
    1.2215   -1.3846   -0.9084 H   0  0  0  0  0  0  0  0  0  0  0  0
    0.9822   -2.0214    0.7702 H   0  0  0  0  0  0  0  0  0  0  0  0
    2.4774    0.1293    2.2721 H   0  0  0  0  0  0  0  0  0  0  0  0
    4.6687    1.3066    2.1560 H   0  0  0  0  0  0  0  0  0  0  0  0
    4.0951    2.1530    0.6618 H   0  0  0  0  0  0  0  0  0  0  0  0
    3.2392    2.3675    2.2138 H   0  0  0  0  0  0  0  0  0  0  0  0
    4.5332   -0.9479    1.4908 H   0  0  0  0  0  0  0  0  0  0  0  0
    3.0782   -1.7299    1.0110 H   0  0  0  0  0  0  0  0  0  0  0  0
    3.3612   -0.9851   -1.3625 H   0  0  0  0  0  0  0  0  0  0  0  0
    4.6574   -1.9546   -0.7410 H   0  0  0  0  0  0  0  0  0  0  0  0
    5.4922   -0.1321   -2.1613 H   0  0  0  0  0  0  0  0  0  0  0  0
    4.7625    1.0961   -1.1265 H   0  0  0  0  0  0  0  0  0  0  0  0
    6.3032    0.3202    0.7922 H   0  0  0  0  0  0  0  0  0  0  0  0
    6.7815   -1.9995    0.1194 H   0  0  0  0  0  0  0  0  0  0  0  0
    7.5169   -1.4403   -1.4377 H   0  0  0  0  0  0  0  0  0  0  0  0
    8.3088   -1.0731    0.1429 H   0  0  0  0  0  0  0  0  0  0  0  0
    6.8604    2.2692   -0.6319 H   0  0  0  0  0  0  0  0  0  0  0  0
    8.3352    1.3749   -0.1304 H   0  0  0  0  0  0  0  0  0  0  0  0
    7.6978    1.1844   -1.8112 H   0  0  0  0  0  0  0  0  0  0  0  0
  1  2  1  0
  2  3  1  0
  3  4  1  0
  4  5  1  0
  5  6  1  0
  6  7  1  0
  7  8  2  0
  8  9  1  0
  9 10  1  0
 10 11  1  0
 10 12  1  0
 12 13  1  0
 13 14  1  0
 14 15  1  6
 14 16  1  0
 16 17  1  0
 17 18  1  0
 18 19  1  0
 19 20  1  6
  1 21  1  0
 21 22  1  0
 21 23  1  0
 23 24  1  0
 24 25  1  0
 25 26  1  0
 26 27  1  0
 26 28  1  0
 19  1  1  0
 19  4  1  0
 16  5  1  0
 14  8  1  0
  1 29  1  1
  2 30  1  0
  2 31  1  0
  3 32  1  0
  3 33  1  0
  4 34  1  1
  5 35  1  6
  6 36  1  0
  6 37  1  0
  7 38  1  0
  9 39  1  0
  9 40  1  0
 10 41  1  1
 11 42  1  0
 12 43  1  0
 12 44  1  0
 13 45  1  0
 13 46  1  0
 15 47  1  0
 15 48  1  0
 15 49  1  0
 16 50  1  1
 17 51  1  0
 17 52  1  0
 18 53  1  0
 18 54  1  0
 20 55  1  0
 20 56  1  0
 20 57  1  0
 21 58  1  1
 22 59  1  0
 22 60  1  0
 22 61  1  0
 23 62  1  0
 23 63  1  0
 24 64  1  0
 24 65  1  0
 25 66  1  0
 25 67  1  0
 26 68  1  0
 27 69  1  0
 27 70  1  0
 27 71  1  0
 28 72  1  0
 28 73  1  0
 28 74  1  0
M  END
$$$$
