
     RDKit          3D

 16 15  0  0  0  0  0  0  0  0999 V2000
    2.7356    0.7014   -0.1525 N   0  0  0  0  0  0  0  0  0  0  0  0
    1.4782    0.4149    0.5348 C   0  0  0  0  0  0  0  0  0  0  0  0
    0.7283   -0.7465   -0.1292 C   0  0  0  0  0  0  0  0  0  0  0  0
   -0.4520   -1.0329    0.5927 O   0  0  0  0  0  0  0  0  0  0  0  0
   -1.8055   -0.3872   -0.2240 P   0  0  0  0  0  5  0  0  0  0  0  0
   -1.5408    1.2393   -0.6149 O   0  0  0  0  0  0  0  0  0  0  0  0
   -3.1581   -0.5043    0.7861 O   0  0  0  0  0  0  0  0  0  0  0  0
   -2.0589   -1.1780   -1.4884 O   0  0  0  0  0  0  0  0  0  0  0  0
    3.3282   -0.1606   -0.1476 H   0  0  0  0  0  0  0  0  0  0  0  0
    2.5286    0.9403   -1.1496 H   0  0  0  0  0  0  0  0  0  0  0  0
    1.6935    0.1585    1.5948 H   0  0  0  0  0  0  0  0  0  0  0  0
    0.8456    1.3273    0.5268 H   0  0  0  0  0  0  0  0  0  0  0  0
    0.5685   -0.5371   -1.2133 H   0  0  0  0  0  0  0  0  0  0  0  0
    1.3740   -1.6492   -0.0852 H   0  0  0  0  0  0  0  0  0  0  0  0
   -2.3639    1.5251   -1.0856 H   0  0  0  0  0  0  0  0  0  0  0  0
   -3.9013   -0.1111    0.2626 H   0  0  0  0  0  0  0  0  0  0  0  0
  1  2  1  0
  2  3  1  0
  3  4  1  0
  4  5  1  0
  5  6  1  0
  5  7  1  0
  5  8  2  0
  1  9  1  0
  1 10  1  0
  2 11  1  0
  2 12  1  0
  3 13  1  0
  3 14  1  0
  6 15  1  0
  7 16  1  0
M  END
$$$$
