
     RDKit          3D

 39 41  0  0  0  0  0  0  0  0999 V2000
    1.2003   -1.0528    1.8520 C   0  0  0  0  0  0  0  0  0  0  0  0
    1.0056   -0.1144    0.6471 C   0  0  1  0  0  0  0  0  0  0  0  0
    2.3791    0.2537    0.1011 C   0  0  0  0  0  0  0  0  0  0  0  0
    3.0503   -0.6176   -0.7026 N   0  0  0  0  0  0  0  0  0  0  0  0
    4.2929   -0.3379   -1.1736 C   0  0  0  0  0  0  0  0  0  0  0  0
    4.9039    0.8248   -0.8318 N   0  0  0  0  0  0  0  0  0  0  0  0
    4.2900    1.7182   -0.0152 C   0  0  0  0  0  0  0  0  0  0  0  0
    3.0147    1.4493    0.4812 C   0  0  0  0  0  0  0  0  0  0  0  0
    2.4228    2.3330    1.3244 F   0  0  0  0  0  0  0  0  0  0  0  0
    0.0325   -0.7044   -0.4519 C   0  0  2  0  0  0  0  0  0  0  0  0
    0.6621   -1.8245   -1.0390 O   0  0  0  0  0  0  0  0  0  0  0  0
   -0.1801    0.3168   -1.6047 C   0  0  0  0  0  0  0  0  0  0  0  0
   -0.8732    1.5320   -1.1766 N   0  0  0  0  0  0  0  0  0  0  0  0
   -0.3142    2.6956   -0.8060 C   0  0  0  0  0  0  0  0  0  0  0  0
   -1.2536    3.6141   -0.5105 N   0  0  0  0  0  0  0  0  0  0  0  0
   -2.4023    2.9377   -0.7322 C   0  0  0  0  0  0  0  0  0  0  0  0
   -2.1853    1.6740   -1.1448 N   0  0  0  0  0  0  0  0  0  0  0  0
   -1.3632   -1.1318    0.0769 C   0  0  0  0  0  0  0  0  0  0  0  0
   -2.0673   -0.4438    1.1042 C   0  0  0  0  0  0  0  0  0  0  0  0
   -1.5661    0.6535    1.7176 F   0  0  0  0  0  0  0  0  0  0  0  0
   -3.3412   -0.8657    1.4997 C   0  0  0  0  0  0  0  0  0  0  0  0
   -3.9556   -1.9479    0.8740 C   0  0  0  0  0  0  0  0  0  0  0  0
   -5.1929   -2.3442    1.2617 F   0  0  0  0  0  0  0  0  0  0  0  0
   -3.3063   -2.6068   -0.1660 C   0  0  0  0  0  0  0  0  0  0  0  0
   -2.0341   -2.1974   -0.5701 C   0  0  0  0  0  0  0  0  0  0  0  0
    1.7687   -0.5262    2.6485 H   0  0  0  0  0  0  0  0  0  0  0  0
    0.2296   -1.3654    2.2861 H   0  0  0  0  0  0  0  0  0  0  0  0
    1.7727   -1.9606    1.5675 H   0  0  0  0  0  0  0  0  0  0  0  0
    0.5632    0.8189    1.0352 H   0  0  0  0  0  0  0  0  0  0  0  0
    4.7975   -1.0444   -1.8179 H   0  0  0  0  0  0  0  0  0  0  0  0
    4.7969    2.6349    0.2554 H   0  0  0  0  0  0  0  0  0  0  0  0
    0.6997   -2.5536   -0.3666 H   0  0  0  0  0  0  0  0  0  0  0  0
   -0.7732   -0.1638   -2.4142 H   0  0  0  0  0  0  0  0  0  0  0  0
    0.7949    0.5900   -2.0638 H   0  0  0  0  0  0  0  0  0  0  0  0
    0.7503    2.8812   -0.7637 H   0  0  0  0  0  0  0  0  0  0  0  0
   -3.3868    3.3651   -0.5987 H   0  0  0  0  0  0  0  0  0  0  0  0
   -3.8614   -0.3382    2.2891 H   0  0  0  0  0  0  0  0  0  0  0  0
   -3.7921   -3.4329   -0.6693 H   0  0  0  0  0  0  0  0  0  0  0  0
   -1.5788   -2.7183   -1.4023 H   0  0  0  0  0  0  0  0  0  0  0  0
  1  2  1  0
  2  3  1  0
  3  4  2  0
  4  5  1  0
  5  6  2  0
  6  7  1  0
  7  8  2  0
  8  9  1  0
  2 10  1  0
 10 11  1  6
 10 12  1  0
 12 13  1  0
 13 14  1  0
 14 15  2  0
 15 16  1  0
 16 17  2  0
 10 18  1  0
 18 19  2  0
 19 20  1  0
 19 21  1  0
 21 22  2  0
 22 23  1  0
 22 24  1  0
 24 25  2  0
  8  3  1  0
 17 13  1  0
 25 18  1  0
  1 26  1  0
  1 27  1  0
  1 28  1  0
  2 29  1  1
  5 30  1  0
  7 31  1  0
 11 32  1  0
 12 33  1  0
 12 34  1  0
 14 35  1  0
 16 36  1  0
 21 37  1  0
 24 38  1  0
 25 39  1  0
M  END
$$$$
