
     RDKit          3D

 13 12  0  0  0  0  0  0  0  0999 V2000
   -1.2669    0.3342   -0.7283 C   0  0  0  0  0  0  0  0  0  0  0  0
   -0.3643    0.1301    0.4893 C   0  0  1  0  0  0  0  0  0  0  0  0
   -0.4103   -1.2681    0.9203 N   0  0  0  0  0  0  0  0  0  0  0  0
    1.0476    0.5495    0.1778 C   0  0  0  0  0  0  0  0  0  0  0  0
    1.7612   -0.0904   -0.8319 O   0  0  0  0  0  0  0  0  0  0  0  0
    1.5870    1.4813    0.8327 O   0  0  0  0  0  0  0  0  0  0  0  0
   -1.2592    1.4020   -1.0357 H   0  0  0  0  0  0  0  0  0  0  0  0
   -0.9244   -0.2898   -1.5817 H   0  0  0  0  0  0  0  0  0  0  0  0
   -2.3104    0.0495   -0.4755 H   0  0  0  0  0  0  0  0  0  0  0  0
   -0.7592    0.7651    1.3140 H   0  0  0  0  0  0  0  0  0  0  0  0
    0.0171   -1.8764    0.1837 H   0  0  0  0  0  0  0  0  0  0  0  0
    0.1700   -1.3701    1.7850 H   0  0  0  0  0  0  0  0  0  0  0  0
    2.7119    0.1832   -1.0498 H   0  0  0  0  0  0  0  0  0  0  0  0
  1  2  1  0
  2  3  1  0
  2  4  1  0
  4  5  1  0
  4  6  2  0
  1  7  1  0
  1  8  1  0
  1  9  1  0
  2 10  1  1
  3 11  1  0
  3 12  1  0
  5 13  1  0
M  END
$$$$
