
     RDKit          3D

 14 15  0  0  0  0  0  0  0  0999 V2000
   -2.0672    1.6345    0.0447 O   0  0  0  0  0  0  0  0  0  0  0  0
   -1.3249    0.4573    0.0002 C   0  0  0  0  0  0  0  0  0  0  0  0
   -1.9546   -0.7531   -0.0685 N   0  0  0  0  0  0  0  0  0  0  0  0
   -1.2457   -1.9277   -0.1134 C   0  0  0  0  0  0  0  0  0  0  0  0
    0.1220   -1.9153   -0.0903 N   0  0  0  0  0  0  0  0  0  0  0  0
    0.7444   -0.7145   -0.0221 C   0  0  0  0  0  0  0  0  0  0  0  0
    0.0652    0.4572    0.0231 C   0  0  0  0  0  0  0  0  0  0  0  0
    1.0337    1.4367    0.0862 C   0  0  0  0  0  0  0  0  0  0  0  0
    2.2483    0.8293    0.0770 N   0  0  0  0  0  0  0  0  0  0  0  0
    2.0637   -0.4859    0.0106 N   0  0  0  0  0  0  0  0  0  0  0  0
   -1.6207    2.5422    0.0958 H   0  0  0  0  0  0  0  0  0  0  0  0
   -1.7726   -2.8703   -0.1675 H   0  0  0  0  0  0  0  0  0  0  0  0
    0.8804    2.5063    0.1352 H   0  0  0  0  0  0  0  0  0  0  0  0
    2.8280   -1.1966   -0.0111 H   0  0  0  0  0  0  0  0  0  0  0  0
  1  2  1  0
  2  3  2  0
  3  4  1  0
  4  5  2  0
  5  6  1  0
  6  7  2  0
  7  8  1  0
  8  9  2  0
  9 10  1  0
  7  2  1  0
 10  6  1  0
  1 11  1  0
  4 12  1  0
  8 13  1  0
 10 14  1  0
M  END
$$$$
