
     RDKit          3D

 41 44  0  0  0  0  0  0  0  0999 V2000
   -5.8604   -1.9928    0.6703 C   0  0  0  0  0  0  0  0  0  0  0  0
   -6.1030   -0.6792    0.1773 O   0  0  0  0  0  0  0  0  0  0  0  0
   -5.0986    0.2444   -0.1531 C   0  0  0  0  0  0  0  0  0  0  0  0
   -3.7282   -0.0585   -0.0262 C   0  0  0  0  0  0  0  0  0  0  0  0
   -2.7477    0.8910   -0.3679 C   0  0  0  0  0  0  0  0  0  0  0  0
   -3.1541    2.1501   -0.8412 C   0  0  0  0  0  0  0  0  0  0  0  0
   -4.5104    2.4543   -0.9680 C   0  0  0  0  0  0  0  0  0  0  0  0
   -5.4825    1.5067   -0.6256 C   0  0  0  0  0  0  0  0  0  0  0  0
   -6.8366    1.8125   -0.7522 O   0  0  0  0  0  0  0  0  0  0  0  0
   -1.3046    0.5682   -0.2315 C   0  0  0  0  0  0  0  0  0  0  0  0
   -0.3856    0.9746   -1.2254 C   0  0  0  0  0  0  0  0  0  0  0  0
    0.9608    0.6547   -1.0642 C   0  0  0  0  0  0  0  0  0  0  0  0
    1.4097   -0.0498    0.0352 C   0  0  0  0  0  0  0  0  0  0  0  0
    0.5288   -0.4624    1.0355 C   0  0  0  0  0  0  0  0  0  0  0  0
   -0.8334   -0.1502    0.8972 C   0  0  0  0  0  0  0  0  0  0  0  0
    2.8602   -0.2290   -0.0859 C   0  0  0  0  0  0  0  0  0  0  0  0
    3.6529   -0.8965    0.7669 C   0  0  0  0  0  0  0  0  0  0  0  0
    5.1187   -0.9847    0.6523 C   0  0  0  0  0  0  0  0  0  0  0  0
    5.9849    0.0541    0.3592 C   0  0  0  0  0  0  0  0  0  0  0  0
    7.2605   -0.4595    0.4820 C   0  0  0  0  0  0  0  0  0  0  0  0
    7.1197   -1.7782    0.8645 C   0  0  0  0  0  0  0  0  0  0  0  0
    5.8160   -2.0881    0.9802 N   0  0  0  0  0  0  0  0  0  0  0  0
    3.1814    0.4085   -1.3749 C   0  0  0  0  0  0  0  0  0  0  0  0
    4.2989    0.3894   -1.9537 O   0  0  0  0  0  0  0  0  0  0  0  0
    2.0140    0.9725   -1.9654 N   0  0  0  0  0  0  0  0  0  0  0  0
   -5.2876   -2.5815   -0.0770 H   0  0  0  0  0  0  0  0  0  0  0  0
   -6.8317   -2.4973    0.8504 H   0  0  0  0  0  0  0  0  0  0  0  0
   -5.3021   -1.9439    1.6291 H   0  0  0  0  0  0  0  0  0  0  0  0
   -3.4200   -1.0357    0.3194 H   0  0  0  0  0  0  0  0  0  0  0  0
   -2.4226    2.9066   -1.0966 H   0  0  0  0  0  0  0  0  0  0  0  0
   -4.8060    3.4309   -1.3300 H   0  0  0  0  0  0  0  0  0  0  0  0
   -7.1471    2.7158   -1.0907 H   0  0  0  0  0  0  0  0  0  0  0  0
   -0.7096    1.5100   -2.1088 H   0  0  0  0  0  0  0  0  0  0  0  0
    0.8786   -1.0063    1.9026 H   0  0  0  0  0  0  0  0  0  0  0  0
   -1.5174   -0.4541    1.6795 H   0  0  0  0  0  0  0  0  0  0  0  0
    3.1990   -1.4237    1.5956 H   0  0  0  0  0  0  0  0  0  0  0  0
    5.7258    1.0790    0.1287 H   0  0  0  0  0  0  0  0  0  0  0  0
    8.1893    0.0755    0.3365 H   0  0  0  0  0  0  0  0  0  0  0  0
    7.9286   -2.4677    1.0670 H   0  0  0  0  0  0  0  0  0  0  0  0
    5.4243   -3.0086    1.2800 H   0  0  0  0  0  0  0  0  0  0  0  0
    1.9373    1.4490   -2.8912 H   0  0  0  0  0  0  0  0  0  0  0  0
  1  2  1  0
  2  3  1  0
  3  4  2  0
  4  5  1  0
  5  6  2  0
  6  7  1  0
  7  8  2  0
  8  9  1  0
  5 10  1  0
 10 11  2  0
 11 12  1  0
 12 13  2  0
 13 14  1  0
 14 15  2  0
 13 16  1  0
 16 17  2  0
 17 18  1  0
 18 19  2  0
 19 20  1  0
 20 21  2  0
 21 22  1  0
 16 23  1  0
 23 24  2  0
 23 25  1  0
  8  3  1  0
 15 10  1  0
 22 18  1  0
 25 12  1  0
  1 26  1  0
  1 27  1  0
  1 28  1  0
  4 29  1  0
  6 30  1  0
  7 31  1  0
  9 32  1  0
 11 33  1  0
 14 34  1  0
 15 35  1  0
 17 36  1  0
 19 37  1  0
 20 38  1  0
 21 39  1  0
 22 40  1  0
 25 41  1  0
M  END
$$$$
