
     RDKit          3D

 56 61  0  0  0  0  0  0  0  0999 V2000
    7.7247   -0.2221   -1.1000 C   0  0  0  0  0  0  0  0  0  0  0  0
    6.3676   -0.5527   -0.4817 C   0  0  0  0  0  0  0  0  0  0  0  0
    6.5501   -1.0716    0.9485 C   0  0  0  0  0  0  0  0  0  0  0  0
    5.5651    0.6304   -0.4813 O   0  0  0  0  0  0  0  0  0  0  0  0
    4.1752    0.6823   -0.2819 C   0  0  0  0  0  0  0  0  0  0  0  0
    3.5694    1.9403   -0.2061 C   0  0  0  0  0  0  0  0  0  0  0  0
    2.1940    2.0579    0.0062 C   0  0  0  0  0  0  0  0  0  0  0  0
    1.4008    0.9126    0.1856 C   0  0  0  0  0  0  0  0  0  0  0  0
    1.9883   -0.3535    0.0156 C   0  0  0  0  0  0  0  0  0  0  0  0
    1.1128   -1.5743    0.0575 C   0  0  0  0  0  0  0  0  0  0  0  0
   -0.2210   -1.3045   -0.6575 C   0  0  0  0  0  0  0  0  0  0  0  0
   -0.8994   -0.0484   -0.1418 C   0  0  0  0  0  0  0  0  0  0  0  0
   -0.0729    0.9936    0.3854 C   0  0  0  0  0  0  0  0  0  0  0  0
   -0.6967    2.0424    1.1001 C   0  0  0  0  0  0  0  0  0  0  0  0
   -2.0646    2.1664    1.1797 C   0  0  0  0  0  0  0  0  0  0  0  0
   -2.3645    3.3086    2.0515 C   0  0  0  0  0  0  0  0  0  0  0  0
   -1.2779    3.8364    2.5236 N   0  0  0  0  0  0  0  0  0  0  0  0
   -0.1937    3.0818    1.9907 C   0  0  0  0  0  0  0  0  0  0  0  0
    0.9984    3.2329    2.3644 O   0  0  0  0  0  0  0  0  0  0  0  0
   -2.8780    1.2325    0.5425 C   0  0  0  0  0  0  0  0  0  0  0  0
   -2.3198    0.1417   -0.1273 C   0  0  0  0  0  0  0  0  0  0  0  0
   -3.3145   -0.6081   -0.6993 N   0  0  0  0  0  0  0  0  0  0  0  0
   -3.2266   -1.7650   -1.6019 C   0  0  0  0  0  0  0  0  0  0  0  0
   -3.4790   -3.0671   -0.8397 C   0  0  0  0  0  0  0  0  0  0  0  0
   -3.2149   -4.1579   -1.6766 O   0  0  0  0  0  0  0  0  0  0  0  0
   -4.4765    0.0015   -0.3458 C   0  0  0  0  0  0  0  0  0  0  0  0
   -5.7810   -0.3823   -0.6890 C   0  0  0  0  0  0  0  0  0  0  0  0
   -6.8507    0.4074   -0.2379 C   0  0  0  0  0  0  0  0  0  0  0  0
   -6.6105    1.5611    0.5325 C   0  0  0  0  0  0  0  0  0  0  0  0
   -5.2985    1.9365    0.8625 C   0  0  0  0  0  0  0  0  0  0  0  0
   -4.2485    1.1300    0.4134 C   0  0  0  0  0  0  0  0  0  0  0  0
    3.3729   -0.4700   -0.1811 C   0  0  0  0  0  0  0  0  0  0  0  0
    8.3654   -1.1292   -1.1340 H   0  0  0  0  0  0  0  0  0  0  0  0
    7.5834    0.1468   -2.1381 H   0  0  0  0  0  0  0  0  0  0  0  0
    8.2399    0.5660   -0.5099 H   0  0  0  0  0  0  0  0  0  0  0  0
    5.8966   -1.3371   -1.1125 H   0  0  0  0  0  0  0  0  0  0  0  0
    7.0295   -0.2955    1.5826 H   0  0  0  0  0  0  0  0  0  0  0  0
    7.1855   -1.9829    0.9479 H   0  0  0  0  0  0  0  0  0  0  0  0
    5.5701   -1.3344    1.3964 H   0  0  0  0  0  0  0  0  0  0  0  0
    4.1686    2.8344   -0.3239 H   0  0  0  0  0  0  0  0  0  0  0  0
    1.7505    3.0440   -0.0063 H   0  0  0  0  0  0  0  0  0  0  0  0
    0.9212   -1.8418    1.1195 H   0  0  0  0  0  0  0  0  0  0  0  0
    1.6139   -2.4378   -0.4323 H   0  0  0  0  0  0  0  0  0  0  0  0
   -0.8463   -2.1930   -0.4662 H   0  0  0  0  0  0  0  0  0  0  0  0
   -0.0387   -1.2009   -1.7490 H   0  0  0  0  0  0  0  0  0  0  0  0
   -3.3400    3.6808    2.3157 H   0  0  0  0  0  0  0  0  0  0  0  0
   -3.9851   -1.6688   -2.4081 H   0  0  0  0  0  0  0  0  0  0  0  0
   -2.2625   -1.7867   -2.1401 H   0  0  0  0  0  0  0  0  0  0  0  0
   -2.8328   -3.1187    0.0631 H   0  0  0  0  0  0  0  0  0  0  0  0
   -4.5394   -3.1013   -0.5061 H   0  0  0  0  0  0  0  0  0  0  0  0
   -3.3939   -4.9701   -1.1350 H   0  0  0  0  0  0  0  0  0  0  0  0
   -5.9792   -1.2625   -1.2844 H   0  0  0  0  0  0  0  0  0  0  0  0
   -7.8664    0.1301   -0.4882 H   0  0  0  0  0  0  0  0  0  0  0  0
   -7.4431    2.1657    0.8682 H   0  0  0  0  0  0  0  0  0  0  0  0
   -5.1329    2.8301    1.4388 H   0  0  0  0  0  0  0  0  0  0  0  0
    3.8056   -1.4558   -0.2742 H   0  0  0  0  0  0  0  0  0  0  0  0
  1  2  1  0
  2  3  1  0
  2  4  1  0
  4  5  1  0
  5  6  2  0
  6  7  1  0
  7  8  2  0
  8  9  1  0
  9 10  1  0
 10 11  1  0
 11 12  1  0
 12 13  2  0
 13 14  1  0
 14 15  2  0
 15 16  1  0
 16 17  2  0
 17 18  1  0
 18 19  2  0
 15 20  1  0
 20 21  2  0
 21 22  1  0
 22 23  1  0
 23 24  1  0
 24 25  1  0
 22 26  1  0
 26 27  2  0
 27 28  1  0
 28 29  2  0
 29 30  1  0
 30 31  2  0
  9 32  2  0
 32  5  1  0
 13  8  1  0
 18 14  1  0
 31 20  1  0
 21 12  1  0
 31 26  1  0
  1 33  1  0
  1 34  1  0
  1 35  1  0
  2 36  1  0
  3 37  1  0
  3 38  1  0
  3 39  1  0
  6 40  1  0
  7 41  1  0
 10 42  1  0
 10 43  1  0
 11 44  1  0
 11 45  1  0
 16 46  1  0
 23 47  1  0
 23 48  1  0
 24 49  1  0
 24 50  1  0
 25 51  1  0
 27 52  1  0
 28 53  1  0
 29 54  1  0
 30 55  1  0
 32 56  1  0
M  END
$$$$
