
     RDKit          3D

 38 41  0  0  0  0  0  0  0  0999 V2000
    4.4297   -2.7133    2.1874 O   0  0  0  0  0  0  0  0  0  0  0  0
    3.4051   -2.0441    1.5220 C   0  0  0  0  0  0  0  0  0  0  0  0
    3.3344   -0.6508    1.5867 C   0  0  0  0  0  0  0  0  0  0  0  0
    2.3115    0.0362    0.9264 C   0  0  0  0  0  0  0  0  0  0  0  0
    1.3222   -0.6673    0.2046 C   0  0  0  0  0  0  0  0  0  0  0  0
    1.4264   -2.0704    0.1224 C   0  0  0  0  0  0  0  0  0  0  0  0
    2.4505   -2.7526    0.7843 C   0  0  0  0  0  0  0  0  0  0  0  0
    0.2069    0.0387   -0.5688 C   0  0  0  0  0  0  0  0  0  0  0  0
    0.5464   -0.0138   -1.9650 O   0  0  0  0  0  0  0  0  0  0  0  0
    0.6642    1.2654   -2.4912 C   0  0  0  0  0  0  0  0  0  0  0  0
    0.9560    1.5154   -3.6896 O   0  0  0  0  0  0  0  0  0  0  0  0
    0.3935    2.2358   -1.4659 C   0  0  0  0  0  0  0  0  0  0  0  0
    0.3637    3.6279   -1.5165 C   0  0  0  0  0  0  0  0  0  0  0  0
    0.0358    4.3227   -0.3411 C   0  0  0  0  0  0  0  0  0  0  0  0
   -0.2573    3.6176    0.8437 C   0  0  0  0  0  0  0  0  0  0  0  0
   -0.2232    2.2127    0.8623 C   0  0  0  0  0  0  0  0  0  0  0  0
    0.1154    1.5345   -0.3149 C   0  0  0  0  0  0  0  0  0  0  0  0
   -1.1617   -0.5911   -0.3171 C   0  0  0  0  0  0  0  0  0  0  0  0
   -2.0888   -0.7575   -1.3659 C   0  0  0  0  0  0  0  0  0  0  0  0
   -3.3548   -1.2958   -1.1176 C   0  0  0  0  0  0  0  0  0  0  0  0
   -3.7232   -1.6610    0.1825 C   0  0  0  0  0  0  0  0  0  0  0  0
   -4.9820   -2.1990    0.4401 O   0  0  0  0  0  0  0  0  0  0  0  0
   -2.8216   -1.4802    1.2339 C   0  0  0  0  0  0  0  0  0  0  0  0
   -1.5551   -0.9422    0.9905 C   0  0  0  0  0  0  0  0  0  0  0  0
    4.5092   -3.7231    2.1578 H   0  0  0  0  0  0  0  0  0  0  0  0
    4.0794   -0.0973    2.1442 H   0  0  0  0  0  0  0  0  0  0  0  0
    2.3105    1.1155    0.9814 H   0  0  0  0  0  0  0  0  0  0  0  0
    0.7090   -2.6397   -0.4558 H   0  0  0  0  0  0  0  0  0  0  0  0
    2.5040   -3.8318    0.7178 H   0  0  0  0  0  0  0  0  0  0  0  0
    0.5824    4.1589   -2.4338 H   0  0  0  0  0  0  0  0  0  0  0  0
    0.0044    5.4044   -0.3461 H   0  0  0  0  0  0  0  0  0  0  0  0
   -0.5115    4.1611    1.7444 H   0  0  0  0  0  0  0  0  0  0  0  0
   -0.4460    1.6715    1.7718 H   0  0  0  0  0  0  0  0  0  0  0  0
   -1.8418   -0.4691   -2.3790 H   0  0  0  0  0  0  0  0  0  0  0  0
   -4.0512   -1.4231   -1.9367 H   0  0  0  0  0  0  0  0  0  0  0  0
   -5.6587   -2.3411   -0.3006 H   0  0  0  0  0  0  0  0  0  0  0  0
   -3.1042   -1.7527    2.2428 H   0  0  0  0  0  0  0  0  0  0  0  0
   -0.8798   -0.8016    1.8249 H   0  0  0  0  0  0  0  0  0  0  0  0
  1  2  1  0
  2  3  2  0
  3  4  1  0
  4  5  2  0
  5  6  1  0
  6  7  2  0
  5  8  1  0
  8  9  1  0
  9 10  1  0
 10 11  2  0
 10 12  1  0
 12 13  2  0
 13 14  1  0
 14 15  2  0
 15 16  1  0
 16 17  2  0
  8 18  1  0
 18 19  2  0
 19 20  1  0
 20 21  2  0
 21 22  1  0
 21 23  1  0
 23 24  2  0
  7  2  1  0
 17  8  1  0
 24 18  1  0
 17 12  1  0
  1 25  1  0
  3 26  1  0
  4 27  1  0
  6 28  1  0
  7 29  1  0
 13 30  1  0
 14 31  1  0
 15 32  1  0
 16 33  1  0
 19 34  1  0
 20 35  1  0
 22 36  1  0
 23 37  1  0
 24 38  1  0
M  END
$$$$
