
     RDKit          2D

198203  0  0  0  0  0  0  0  0999 V2000
   15.0704    0.7500    0.0000 C   0  0  0  0  0  0  0  0  0  0  0  0
   13.7713    0.0000    0.0000 C   0  0  0  0  0  0  0  0  0  0  0  0
   13.7713   -1.5000    0.0000 O   0  0  0  0  0  0  0  0  0  0  0  0
   12.4723    0.7500    0.0000 O   0  0  0  0  0  0  0  0  0  0  0  0
    1.2990   29.2603    0.0000 C   0  0  0  0  0  0  0  0  0  0  0  0
    0.0000   28.5103    0.0000 C   0  0  0  0  0  0  0  0  0  0  0  0
   -0.0000   27.0103    0.0000 O   0  0  0  0  0  0  0  0  0  0  0  0
   -1.2990   29.2603    0.0000 O   0  0  0  0  0  0  0  0  0  0  0  0
   -2.6145   12.0203    0.0000 C   0  0  0  0  0  0  0  0  0  0  0  0
   -4.0410   12.4838    0.0000 C   0  0  0  0  0  0  0  0  0  0  0  0
   -5.4676   12.9473    0.0000 O   0  0  0  0  0  0  0  0  0  0  0  0
   -2.1509   13.4469    0.0000 N   0  0  0  0  0  0  0  0  0  0  0  0
   -0.6837   13.7587    0.0000 C   0  0  0  0  0  0  0  0  0  0  0  0
    0.3200   12.6440    0.0000 O   0  0  0  0  0  0  0  0  0  0  0  0
   -0.2202   15.1853    0.0000 C   0  0  0  0  0  0  0  0  0  0  0  0
    0.2433   16.6119    0.0000 C   0  0  0  0  0  0  0  0  0  0  0  0
    0.7069   18.0385    0.0000 C   0  0  0  0  0  0  0  0  0  0  0  0
   -0.1748   19.2520    0.0000 C   0  0  0  0  0  0  0  0  0  0  0  0
    0.7069   20.4655    0.0000 N   0  0  0  0  0  0  0  0  0  0  0  0
    2.1335   20.0020    0.0000 C   0  0  0  0  0  0  0  0  0  0  0  0
    3.4325   20.7520    0.0000 C   0  0  0  0  0  0  0  0  0  0  0  0
    4.7315   20.0020    0.0000 C   0  0  0  0  0  0  0  0  0  0  0  0
    4.7315   18.5020    0.0000 C   0  0  0  0  0  0  0  0  0  0  0  0
    3.4325   17.7520    0.0000 C   0  0  0  0  0  0  0  0  0  0  0  0
    2.1335   18.5020    0.0000 C   0  0  0  0  0  0  0  0  0  0  0  0
   -1.6468   15.6488    0.0000 N   0  0  0  0  0  0  0  0  0  0  0  0
   -1.9586   17.1161    0.0000 C   0  0  0  0  0  0  0  0  0  0  0  0
   -0.8439   18.1198    0.0000 O   0  0  0  0  0  0  0  0  0  0  0  0
   -3.3852   17.5796    0.0000 C   0  0  0  0  0  0  0  0  0  0  0  0
   -4.8118   18.0431    0.0000 C   0  0  0  0  0  0  0  0  0  0  0  0
   -6.2384   18.5066    0.0000 C   0  0  0  0  0  0  0  0  0  0  0  0
   -6.7019   19.9332    0.0000 C   0  0  0  0  0  0  0  0  0  0  0  0
   -8.2019   19.9332    0.0000 N   0  0  0  0  0  0  0  0  0  0  0  0
   -8.6654   18.5066    0.0000 C   0  0  0  0  0  0  0  0  0  0  0  0
   -7.4519   17.6250    0.0000 N   0  0  0  0  0  0  0  0  0  0  0  0
   -2.9217   19.0062    0.0000 N   0  0  0  0  0  0  0  0  0  0  0  0
   -3.9254   20.1209    0.0000 C   0  0  0  0  0  0  0  0  0  0  0  0
   -5.3926   19.8090    0.0000 O   0  0  0  0  0  0  0  0  0  0  0  0
   -3.4619   21.5475    0.0000 C   0  0  0  0  0  0  0  0  0  0  0  0
   -2.7119   22.8465    0.0000 C   0  0  0  0  0  0  0  0  0  0  0  0
   -3.7156   23.9612    0.0000 C   0  0  0  0  0  0  0  0  0  0  0  0
   -5.0859   23.3511    0.0000 C   0  0  0  0  0  0  0  0  0  0  0  0
   -6.3849   24.1011    0.0000 O   0  0  0  0  0  0  0  0  0  0  0  0
   -4.9291   21.8593    0.0000 N   0  0  0  0  0  0  0  0  0  0  0  0
   -1.1879   11.5568    0.0000 C   0  0  0  0  0  0  0  0  0  0  0  0
   -0.0732   12.5604    0.0000 O   0  0  0  0  0  0  0  0  0  0  0  0
   -0.8760   10.0895    0.0000 N   0  0  0  0  0  0  0  0  0  0  0  0
    0.5506    9.6260    0.0000 C   0  0  0  0  0  0  0  0  0  0  0  0
    1.0141   11.0526    0.0000 C   0  0  0  0  0  0  0  0  0  0  0  0
    1.4776   12.4792    0.0000 C   0  0  0  0  0  0  0  0  0  0  0  0
    2.9449   12.7910    0.0000 C   0  0  0  0  0  0  0  0  0  0  0  0
    3.4084   14.2176    0.0000 C   0  0  0  0  0  0  0  0  0  0  0  0
    2.4047   15.3323    0.0000 C   0  0  0  0  0  0  0  0  0  0  0  0
    2.8682   16.7589    0.0000 O   0  0  0  0  0  0  0  0  0  0  0  0
    0.9375   15.0205    0.0000 C   0  0  0  0  0  0  0  0  0  0  0  0
    0.4739   13.5939    0.0000 C   0  0  0  0  0  0  0  0  0  0  0  0
    0.0871    8.1994    0.0000 C   0  0  0  0  0  0  0  0  0  0  0  0
    1.0908    7.0847    0.0000 O   0  0  0  0  0  0  0  0  0  0  0  0
   -1.3802    7.8876    0.0000 N   0  0  0  0  0  0  0  0  0  0  0  0
   -1.8437    6.4610    0.0000 C   0  0  0  0  0  0  0  0  0  0  0  0
   -3.2703    6.9245    0.0000 C   0  0  0  0  0  0  0  0  0  0  0  0
   -4.6969    7.3880    0.0000 C   0  0  0  0  0  0  0  0  0  0  0  0
   -5.9104    6.5063    0.0000 C   0  0  0  0  0  0  0  0  0  0  0  0
   -7.1239    7.3880    0.0000 N   0  0  0  0  0  0  0  0  0  0  0  0
   -8.5505    6.9245    0.0000 C   0  0  0  0  0  0  0  0  0  0  0  0
   -9.9771    6.4610    0.0000 C   0  0  0  0  0  0  0  0  0  0  0  0
  -11.0918    7.4647    0.0000 C   0  0  0  0  0  0  0  0  0  0  0  0
  -12.5184    7.0011    0.0000 C   0  0  0  0  0  0  0  0  0  0  0  0
  -12.8302    5.5339    0.0000 C   0  0  0  0  0  0  0  0  0  0  0  0
  -11.7155    4.5302    0.0000 C   0  0  0  0  0  0  0  0  0  0  0  0
  -10.2889    4.9937    0.0000 C   0  0  0  0  0  0  0  0  0  0  0  0
   -6.6604    8.8146    0.0000 C   0  0  0  0  0  0  0  0  0  0  0  0
   -5.1604    8.8146    0.0000 N   0  0  0  0  0  0  0  0  0  0  0  0
   -0.4171    5.9974    0.0000 C   0  0  0  0  0  0  0  0  0  0  0  0
    0.6976    7.0011    0.0000 O   0  0  0  0  0  0  0  0  0  0  0  0
   -0.1052    4.5302    0.0000 N   0  0  0  0  0  0  0  0  0  0  0  0
    1.3213    4.0667    0.0000 C   0  0  0  0  0  0  0  0  0  0  0  0
    0.8578    2.6401    0.0000 C   0  0  0  0  0  0  0  0  0  0  0  0
    0.3943    1.2135    0.0000 C   0  0  0  0  0  0  0  0  0  0  0  0
   -0.0692   -0.2131    0.0000 C   0  0  0  0  0  0  0  0  0  0  0  0
   -1.0323    1.6771    0.0000 C   0  0  0  0  0  0  0  0  0  0  0  0
    1.7849    5.4933    0.0000 C   0  0  0  0  0  0  0  0  0  0  0  0
    0.7812    6.6080    0.0000 O   0  0  0  0  0  0  0  0  0  0  0  0
    3.2521    5.8051    0.0000 N   0  0  0  0  0  0  0  0  0  0  0  0
    3.7156    7.2317    0.0000 C   0  0  0  0  0  0  0  0  0  0  0  0
    5.1422    6.7682    0.0000 C   0  0  0  0  0  0  0  0  0  0  0  0
    6.5688    6.3047    0.0000 C   0  0  0  0  0  0  0  0  0  0  0  0
    7.9954    5.8412    0.0000 C   0  0  0  0  0  0  0  0  0  0  0  0
    9.4220    5.3776    0.0000 N   0  0  0  0  0  0  0  0  0  0  0  0
    9.7338    3.9104    0.0000 C   0  0  0  0  0  0  0  0  0  0  0  0
    8.6191    2.9067    0.0000 N   0  0  0  0  0  0  0  0  0  0  0  0
   11.1604    3.4469    0.0000 N   0  0  0  0  0  0  0  0  0  0  0  0
    2.2890    7.6953    0.0000 C   0  0  0  0  0  0  0  0  0  0  0  0
    1.4503    6.4517    0.0000 O   0  0  0  0  0  0  0  0  0  0  0  0
    1.9772    9.1625    0.0000 N   0  0  0  0  0  0  0  0  0  0  0  0
    0.6069    9.7726    0.0000 C   0  0  0  0  0  0  0  0  0  0  0  0
    0.7636   11.2644    0.0000 C   0  0  0  0  0  0  0  0  0  0  0  0
    2.2309   11.5762    0.0000 C   0  0  0  0  0  0  0  0  0  0  0  0
    2.9809   10.2772    0.0000 C   0  0  0  0  0  0  0  0  0  0  0  0
    4.1944   11.1589    0.0000 C   0  0  0  0  0  0  0  0  0  0  0  0
    4.0376   12.6507    0.0000 O   0  0  0  0  0  0  0  0  0  0  0  0
    5.5647   10.5488    0.0000 N   0  0  0  0  0  0  0  0  0  0  0  0
    6.7782   11.4304    0.0000 C   0  0  0  0  0  0  0  0  0  0  0  0
    7.9918   12.3121    0.0000 C   0  0  0  0  0  0  0  0  0  0  0  0
   16.3694    1.5000    0.0000 H   0  0  0  0  0  0  0  0  0  0  0  0
   15.8204   -0.5490    0.0000 H   0  0  0  0  0  0  0  0  0  0  0  0
   14.3204    2.0490    0.0000 H   0  0  0  0  0  0  0  0  0  0  0  0
   12.4723   -2.2500    0.0000 H   0  0  0  0  0  0  0  0  0  0  0  0
    2.5981   30.0103    0.0000 H   0  0  0  0  0  0  0  0  0  0  0  0
    2.0490   27.9612    0.0000 H   0  0  0  0  0  0  0  0  0  0  0  0
    0.5490   30.5593    0.0000 H   0  0  0  0  0  0  0  0  0  0  0  0
   -1.2990   26.2603    0.0000 H   0  0  0  0  0  0  0  0  0  0  0  0
   -3.0780   10.5937    0.0000 H   0  0  0  0  0  0  0  0  0  0  0  0
   -4.5046   11.0572    0.0000 H   0  0  0  0  0  0  0  0  0  0  0  0
   -3.5775   13.9104    0.0000 H   0  0  0  0  0  0  0  0  0  0  0  0
   -6.5823   11.9436    0.0000 H   0  0  0  0  0  0  0  0  0  0  0  0
   -0.4750   11.3720    0.0000 H   0  0  0  0  0  0  0  0  0  0  0  0
    1.2762   15.0808    0.0000 H   0  0  0  0  0  0  0  0  0  0  0  0
   -1.0287   17.4068    0.0000 H   0  0  0  0  0  0  0  0  0  0  0  0
    1.6699   16.1484    0.0000 H   0  0  0  0  0  0  0  0  0  0  0  0
   -1.6636   19.4349    0.0000 H   0  0  0  0  0  0  0  0  0  0  0  0
    0.2433   21.8921    0.0000 H   0  0  0  0  0  0  0  0  0  0  0  0
    3.4325   22.2520    0.0000 H   0  0  0  0  0  0  0  0  0  0  0  0
    6.0306   20.7520    0.0000 H   0  0  0  0  0  0  0  0  0  0  0  0
    6.0306   17.7520    0.0000 H   0  0  0  0  0  0  0  0  0  0  0  0
    3.7955   16.2966    0.0000 H   0  0  0  0  0  0  0  0  0  0  0  0
   -1.3323   19.5380    0.0000 H   0  0  0  0  0  0  0  0  0  0  0  0
   -3.8487   16.1530    0.0000 H   0  0  0  0  0  0  0  0  0  0  0  0
   -4.7072   19.5395    0.0000 H   0  0  0  0  0  0  0  0  0  0  0  0
   -5.2753   16.6165    0.0000 H   0  0  0  0  0  0  0  0  0  0  0  0
   -5.9747   21.2452    0.0000 H   0  0  0  0  0  0  0  0  0  0  0  0
  -10.0920   18.0431    0.0000 H   0  0  0  0  0  0  0  0  0  0  0  0
   -7.4519   16.1250    0.0000 H   0  0  0  0  0  0  0  0  0  0  0  0
   -6.2529   21.0378    0.0000 H   0  0  0  0  0  0  0  0  0  0  0  0
   -2.0915   20.9374    0.0000 H   0  0  0  0  0  0  0  0  0  0  0  0
   -1.4983   21.9648    0.0000 H   0  0  0  0  0  0  0  0  0  0  0  0
   -1.7082   23.9612    0.0000 H   0  0  0  0  0  0  0  0  0  0  0  0
   -2.5020   24.8429    0.0000 H   0  0  0  0  0  0  0  0  0  0  0  0
   -4.4656   25.2603    0.0000 H   0  0  0  0  0  0  0  0  0  0  0  0
   -7.6840   23.3511    0.0000 H   0  0  0  0  0  0  0  0  0  0  0  0
    1.4232   12.4559    0.0000 H   0  0  0  0  0  0  0  0  0  0  0  0
    2.0469    9.5215    0.0000 H   0  0  0  0  0  0  0  0  0  0  0  0
   -0.4125   11.5161    0.0000 H   0  0  0  0  0  0  0  0  0  0  0  0
    2.5105   10.9480    0.0000 H   0  0  0  0  0  0  0  0  0  0  0  0
    4.2814   12.1102    0.0000 H   0  0  0  0  0  0  0  0  0  0  0  0
    4.8756   14.5295    0.0000 H   0  0  0  0  0  0  0  0  0  0  0  0
    2.1641   18.0834    0.0000 H   0  0  0  0  0  0  0  0  0  0  0  0
    0.2333   16.3449    0.0000 H   0  0  0  0  0  0  0  0  0  0  0  0
   -0.8742   12.9363    0.0000 H   0  0  0  0  0  0  0  0  0  0  0  0
    0.6272    5.6581    0.0000 H   0  0  0  0  0  0  0  0  0  0  0  0
   -2.3072    5.0344    0.0000 H   0  0  0  0  0  0  0  0  0  0  0  0
   -2.8067    8.3511    0.0000 H   0  0  0  0  0  0  0  0  0  0  0  0
   -3.7338    5.4979    0.0000 H   0  0  0  0  0  0  0  0  0  0  0  0
   -5.9104    5.0063    0.0000 H   0  0  0  0  0  0  0  0  0  0  0  0
   -8.0870    5.4979    0.0000 H   0  0  0  0  0  0  0  0  0  0  0  0
   -9.0140    8.3511    0.0000 H   0  0  0  0  0  0  0  0  0  0  0  0
  -10.7799    8.9319    0.0000 H   0  0  0  0  0  0  0  0  0  0  0  0
  -13.6331    8.0048    0.0000 H   0  0  0  0  0  0  0  0  0  0  0  0
  -14.2568    5.0704    0.0000 H   0  0  0  0  0  0  0  0  0  0  0  0
  -12.0274    3.0630    0.0000 H   0  0  0  0  0  0  0  0  0  0  0  0
   -9.1742    3.9901    0.0000 H   0  0  0  0  0  0  0  0  0  0  0  0
   -7.5421   10.0281    0.0000 H   0  0  0  0  0  0  0  0  0  0  0  0
    0.5669    8.4954    0.0000 H   0  0  0  0  0  0  0  0  0  0  0  0
    2.7479    3.6032    0.0000 H   0  0  0  0  0  0  0  0  0  0  0  0
    2.2844    2.1766    0.0000 H   0  0  0  0  0  0  0  0  0  0  0  0
   -0.5688    3.1036    0.0000 H   0  0  0  0  0  0  0  0  0  0  0  0
    1.8209    0.7500    0.0000 H   0  0  0  0  0  0  0  0  0  0  0  0
   -0.5328   -1.6396    0.0000 H   0  0  0  0  0  0  0  0  0  0  0  0
    1.2902   -0.8470    0.0000 H   0  0  0  0  0  0  0  0  0  0  0  0
    1.4032   -0.4992    0.0000 H   0  0  0  0  0  0  0  0  0  0  0  0
   -2.4589    2.1406    0.0000 H   0  0  0  0  0  0  0  0  0  0  0  0
   -1.6663    0.3176    0.0000 H   0  0  0  0  0  0  0  0  0  0  0  0
   -1.3185    0.2046    0.0000 H   0  0  0  0  0  0  0  0  0  0  0  0
   -0.7179    6.6604    0.0000 H   0  0  0  0  0  0  0  0  0  0  0  0
    4.3496    8.5912    0.0000 H   0  0  0  0  0  0  0  0  0  0  0  0
    5.6057    8.1948    0.0000 H   0  0  0  0  0  0  0  0  0  0  0  0
    4.6787    5.3416    0.0000 H   0  0  0  0  0  0  0  0  0  0  0  0
    6.1053    4.8781    0.0000 H   0  0  0  0  0  0  0  0  0  0  0  0
    7.0323    7.7313    0.0000 H   0  0  0  0  0  0  0  0  0  0  0  0
    8.4589    7.2677    0.0000 H   0  0  0  0  0  0  0  0  0  0  0  0
    7.5319    4.4146    0.0000 H   0  0  0  0  0  0  0  0  0  0  0  0
   10.5367    6.3813    0.0000 H   0  0  0  0  0  0  0  0  0  0  0  0
    8.9310    1.4395    0.0000 H   0  0  0  0  0  0  0  0  0  0  0  0
    7.1925    3.3702    0.0000 H   0  0  0  0  0  0  0  0  0  0  0  0
   11.4723    1.9797    0.0000 H   0  0  0  0  0  0  0  0  0  0  0  0
    0.3207    8.3001    0.0000 H   0  0  0  0  0  0  0  0  0  0  0  0
   -0.7413   10.4302    0.0000 H   0  0  0  0  0  0  0  0  0  0  0  0
   -0.6918   11.6273    0.0000 H   0  0  0  0  0  0  0  0  0  0  0  0
    1.3257   12.6551    0.0000 H   0  0  0  0  0  0  0  0  0  0  0  0
    2.1263   13.0726    0.0000 H   0  0  0  0  0  0  0  0  0  0  0  0
    3.5166   12.3488    0.0000 H   0  0  0  0  0  0  0  0  0  0  0  0
    4.1130    9.2931    0.0000 H   0  0  0  0  0  0  0  0  0  0  0  0
    5.2511   13.5323    0.0000 H   0  0  0  0  0  0  0  0  0  0  0  0
    5.8966   12.6440    0.0000 H   0  0  0  0  0  0  0  0  0  0  0  0
    7.6599   10.2169    0.0000 H   0  0  0  0  0  0  0  0  0  0  0  0
    9.2053   13.1938    0.0000 H   0  0  0  0  0  0  0  0  0  0  0  0
    7.1101   13.5257    0.0000 H   0  0  0  0  0  0  0  0  0  0  0  0
    8.8734   11.0986    0.0000 H   0  0  0  0  0  0  0  0  0  0  0  0
  1  2  1  0
  2  3  1  0
  2  4  2  0
  5  6  1  0
  6  7  1  0
  6  8  2  0
  9 10  1  0
 10 11  1  0
  9 12  1  0
 12 13  2  3
 13 14  1  0
 13 15  1  0
 15 16  1  0
 16 17  1  0
 17 18  2  0
 18 19  1  0
 19 20  1  0
 20 21  2  0
 21 22  1  0
 22 23  2  0
 23 24  1  0
 24 25  2  0
 15 26  1  0
 26 27  2  3
 27 28  1  0
 27 29  1  0
 29 30  1  0
 30 31  1  0
 31 32  2  0
 32 33  1  0
 33 34  2  0
 34 35  1  0
 29 36  1  0
 36 37  2  3
 37 38  1  0
 37 39  1  0
 39 40  1  0
 40 41  1  0
 41 42  1  0
 42 43  1  0
 42 44  2  0
  9 45  1  0
 45 46  1  0
 45 47  2  3
 47 48  1  0
 48 49  1  0
 49 50  1  0
 50 51  2  0
 51 52  1  0
 52 53  2  0
 53 54  1  0
 53 55  1  0
 55 56  2  0
 48 57  1  0
 57 58  1  0
 57 59  2  3
 59 60  1  0
 60 61  1  0
 61 62  1  0
 62 63  2  0
 63 64  1  0
 64 65  1  0
 65 66  1  0
 66 67  2  0
 67 68  1  0
 68 69  2  0
 69 70  1  0
 70 71  2  0
 64 72  1  0
 72 73  2  0
 60 74  1  0
 74 75  1  0
 74 76  2  3
 76 77  1  0
 77 78  1  0
 78 79  1  0
 79 80  1  0
 79 81  1  0
 77 82  1  0
 82 83  1  0
 82 84  2  3
 84 85  1  0
 85 86  1  0
 86 87  1  0
 87 88  1  0
 88 89  1  0
 89 90  1  0
 90 91  1  0
 90 92  2  3
 85 93  1  0
 93 94  2  0
 93 95  1  0
 95 96  1  0
 96 97  1  0
 97 98  1  0
 98 99  1  0
 99100  1  0
100101  1  0
100102  2  3
102103  1  0
103104  1  0
 25 17  1  0
 35 31  1  0
 44 39  1  0
 56 50  1  0
 73 62  1  0
 99 95  1  0
 25 20  1  0
 71 66  1  0
  1105  1  0
  1106  1  0
  1107  1  0
  3108  1  0
  5109  1  0
  5110  1  0
  5111  1  0
  7112  1  0
  9113  1  1
 10114  1  0
 10115  1  0
 11116  1  0
 14117  1  0
 15118  1  6
 16119  1  0
 16120  1  0
 18121  1  0
 19122  1  0
 21123  1  0
 22124  1  0
 23125  1  0
 24126  1  0
 28127  1  0
 29128  1  1
 30129  1  0
 30130  1  0
 32131  1  0
 34132  1  0
 35133  1  0
 38134  1  0
 39135  1  6
 40136  1  0
 40137  1  0
 41138  1  0
 41139  1  0
 43140  1  0
 46141  1  0
 48142  1  6
 49143  1  0
 49144  1  0
 51145  1  0
 52146  1  0
 54147  1  0
 55148  1  0
 56149  1  0
 58150  1  0
 60151  1  6
 61152  1  0
 61153  1  0
 63154  1  0
 65155  1  0
 65156  1  0
 67157  1  0
 68158  1  0
 69159  1  0
 70160  1  0
 71161  1  0
 72162  1  0
 75163  1  0
 77164  1  1
 78165  1  0
 78166  1  0
 79167  1  0
 80168  1  0
 80169  1  0
 80170  1  0
 81171  1  0
 81172  1  0
 81173  1  0
 83174  1  0
 85175  1  1
 86176  1  0
 86177  1  0
 87178  1  0
 87179  1  0
 88180  1  0
 88181  1  0
 89182  1  0
 91183  1  0
 91184  1  0
 92185  1  0
 96186  1  0
 96187  1  0
 97188  1  0
 97189  1  0
 98190  1  0
 98191  1  0
 99192  1  6
101193  1  0
103194  1  0
103195  1  0
104196  1  0
104197  1  0
104198  1  0
M  END
$$$$
