
     RDKit          3D

 48 52  0  0  0  0  0  0  0  0999 V2000
    7.4446    2.4993    1.4349 O   0  0  0  0  0  1  0  0  0  0  0  0
    7.1525    1.3293    0.7710 N   0  0  0  0  0  4  0  0  0  0  0  0
    8.1634    0.6065    0.1999 C   0  0  0  0  0  0  0  0  0  0  0  0
    7.8892   -0.5946   -0.4834 C   0  0  0  0  0  0  0  0  0  0  0  0
    6.5691   -1.0545   -0.5799 C   0  0  0  0  0  0  0  0  0  0  0  0
    5.5721   -0.2897    0.0126 C   0  0  0  0  0  0  0  0  0  0  0  0
    5.8662    0.8873    0.6787 C   0  0  0  0  0  0  0  0  0  0  0  0
    4.7419    1.5244    1.2185 C   0  0  0  0  0  0  0  0  0  0  0  0
    3.5595    0.8288    0.9517 C   0  0  0  0  0  0  0  0  0  0  0  0
    3.9206   -0.5763    0.0731 S   0  0  0  0  0  0  0  0  0  0  0  0
    2.2207    1.2174    1.4279 C   0  0  0  0  0  0  0  0  0  0  0  0
    2.1144    2.0928    2.3291 O   0  0  0  0  0  0  0  0  0  0  0  0
    1.0374    0.5966    0.9027 N   0  0  0  0  0  0  0  0  0  0  0  0
    0.7319    0.7497   -0.5269 C   0  0  0  0  0  0  0  0  0  0  0  0
   -0.5728    0.0404   -0.8879 C   0  0  0  0  0  0  0  0  0  0  0  0
   -0.6301   -1.2340   -0.1611 N   0  0  0  0  0  0  0  0  0  0  0  0
   -0.8346   -1.0131    1.2851 C   0  0  0  0  0  0  0  0  0  0  0  0
   -0.0138    0.1749    1.8369 C   0  0  0  0  0  0  0  0  0  0  0  0
   -1.9071   -2.2371   -0.8027 S   0  0  0  0  0  6  0  0  0  0  0  0
   -2.0426   -3.4795    0.0332 O   0  0  0  0  0  0  0  0  0  0  0  0
   -1.5640   -2.6473   -2.2073 O   0  0  0  0  0  0  0  0  0  0  0  0
   -3.4425   -1.3816   -0.8178 C   0  0  0  0  0  0  0  0  0  0  0  0
   -4.4049   -1.4507    0.1843 C   0  0  0  0  0  0  0  0  0  0  0  0
   -5.4105   -0.6090   -0.2383 C   0  0  0  0  0  0  0  0  0  0  0  0
   -6.6231   -0.2744    0.3602 C   0  0  0  0  0  0  0  0  0  0  0  0
   -7.4604    0.6340   -0.3156 C   0  0  0  0  0  0  0  0  0  0  0  0
   -8.9991    1.0918    0.3901 Cl  0  0  0  0  0  0  0  0  0  0  0  0
   -7.0660    1.1795   -1.5594 C   0  0  0  0  0  0  0  0  0  0  0  0
   -5.8336    0.8218   -2.1368 C   0  0  0  0  0  0  0  0  0  0  0  0
   -5.0280   -0.0803   -1.4443 C   0  0  0  0  0  0  0  0  0  0  0  0
   -3.8232   -0.5464   -1.8114 N   0  0  0  0  0  0  0  0  0  0  0  0
    9.1857    0.9562    0.2716 H   0  0  0  0  0  0  0  0  0  0  0  0
    8.6952   -1.1608   -0.9317 H   0  0  0  0  0  0  0  0  0  0  0  0
    6.3353   -1.9752   -1.0984 H   0  0  0  0  0  0  0  0  0  0  0  0
    4.7833    2.4491    1.7797 H   0  0  0  0  0  0  0  0  0  0  0  0
    0.6547    1.8285   -0.7830 H   0  0  0  0  0  0  0  0  0  0  0  0
    1.5483    0.3067   -1.1333 H   0  0  0  0  0  0  0  0  0  0  0  0
   -0.5886   -0.1321   -1.9866 H   0  0  0  0  0  0  0  0  0  0  0  0
   -1.4411    0.6865   -0.6238 H   0  0  0  0  0  0  0  0  0  0  0  0
   -0.5320   -1.9365    1.8247 H   0  0  0  0  0  0  0  0  0  0  0  0
   -1.9076   -0.8298    1.5147 H   0  0  0  0  0  0  0  0  0  0  0  0
    0.4326   -0.1137    2.8145 H   0  0  0  0  0  0  0  0  0  0  0  0
   -0.6912    1.0378    2.0189 H   0  0  0  0  0  0  0  0  0  0  0  0
   -4.3679   -2.0291    1.0981 H   0  0  0  0  0  0  0  0  0  0  0  0
   -6.9098   -0.6994    1.3138 H   0  0  0  0  0  0  0  0  0  0  0  0
   -7.7131    1.8780   -2.0742 H   0  0  0  0  0  0  0  0  0  0  0  0
   -5.5224    1.2352   -3.0874 H   0  0  0  0  0  0  0  0  0  0  0  0
   -3.2887   -0.3074   -2.6762 H   0  0  0  0  0  0  0  0  0  0  0  0
  1  2  1  0
  2  3  2  0
  3  4  1  0
  4  5  2  0
  5  6  1  0
  6  7  2  0
  7  8  1  0
  8  9  2  0
  9 10  1  0
  9 11  1  0
 11 12  2  0
 11 13  1  0
 13 14  1  0
 14 15  1  0
 15 16  1  0
 16 17  1  0
 17 18  1  0
 16 19  1  0
 19 20  2  0
 19 21  2  0
 19 22  1  0
 22 23  2  0
 23 24  1  0
 24 25  2  0
 25 26  1  0
 26 27  1  0
 26 28  2  0
 28 29  1  0
 29 30  2  0
 30 31  1  0
  7  2  1  0
 18 13  1  0
 31 22  1  0
 10  6  1  0
 30 24  1  0
  3 32  1  0
  4 33  1  0
  5 34  1  0
  8 35  1  0
 14 36  1  0
 14 37  1  0
 15 38  1  0
 15 39  1  0
 17 40  1  0
 17 41  1  0
 18 42  1  0
 18 43  1  0
 23 44  1  0
 25 45  1  0
 28 46  1  0
 29 47  1  0
 31 48  1  0
M  CHG  2   1  -1   2   1
M  END
$$$$
