
     RDKit          3D

 74 76  0  0  0  0  0  0  0  0999 V2000
   -1.4889    0.9924    0.4280 C   0  0  1  0  0  0  0  0  0  0  0  0
   -1.1185   -0.4427    0.8952 C   0  0  0  0  0  0  0  0  0  0  0  0
    0.4117   -0.5155    0.9754 C   0  0  0  0  0  0  0  0  0  0  0  0
    0.8547    0.9350    0.8396 C   0  0  1  0  0  0  0  0  0  0  0  0
    2.2823    1.2835    0.4766 C   0  0  0  0  0  0  0  0  0  0  0  0
    2.5593    2.7757    0.3614 C   0  0  0  0  0  0  0  0  0  0  0  0
    1.4438    3.5479   -0.3816 C   0  0  0  0  0  0  0  0  0  0  0  0
    0.0094    3.1011   -0.0180 C   0  0  0  0  0  0  0  0  0  0  0  0
   -0.1522    1.5620   -0.1341 C   0  0  2  0  0  0  0  0  0  0  0  0
    0.0885    1.0895   -1.6026 C   0  0  0  0  0  0  0  0  0  0  0  0
    3.2598    0.3538    0.4610 C   0  0  0  0  0  0  0  0  0  0  0  0
    4.6962    0.6791    0.3231 C   0  0  0  0  0  0  0  0  0  0  0  0
    5.6064   -0.1345   -0.2478 C   0  0  0  0  0  0  0  0  0  0  0  0
    7.0557    0.2885   -0.3034 C   0  0  0  0  0  0  0  0  0  0  0  0
    7.9791   -0.8792    0.0877 C   0  0  1  0  0  0  0  0  0  0  0  0
    7.8445   -1.1704    1.4557 O   0  0  0  0  0  0  0  0  0  0  0  0
    7.6579   -2.1353   -0.7406 C   0  0  0  0  0  0  0  0  0  0  0  0
    6.1786   -2.5470   -0.6002 C   0  0  2  0  0  0  0  0  0  0  0  0
    5.9149   -3.6585   -1.4154 O   0  0  0  0  0  0  0  0  0  0  0  0
    5.2498   -1.3951   -1.0093 C   0  0  0  0  0  0  0  0  0  0  0  0
   -2.7403    0.9915   -0.5064 C   0  0  2  0  0  0  0  0  0  0  0  0
   -3.1679    2.4014   -0.9345 C   0  0  0  0  0  0  0  0  0  0  0  0
   -3.9056    0.3506    0.2167 C   0  0  0  0  0  0  0  0  0  0  0  0
   -4.4753   -0.7840   -0.2199 C   0  0  0  0  0  0  0  0  0  0  0  0
   -5.6485   -1.4164    0.5008 C   0  0  2  0  0  0  0  0  0  0  0  0
   -5.3229   -2.8999    0.7425 C   0  0  0  0  0  0  0  0  0  0  0  0
   -6.9946   -1.2046   -0.2770 C   0  0  0  0  0  0  0  0  0  0  0  0
   -8.1788   -1.7610    0.5382 C   0  0  0  0  0  0  0  0  0  0  0  0
   -7.2585    0.3019   -0.5166 C   0  0  0  0  0  0  0  0  0  0  0  0
   -6.9710   -1.8867   -1.5105 O   0  0  0  0  0  0  0  0  0  0  0  0
   -1.7527    1.5773    1.3406 H   0  0  0  0  0  0  0  0  0  0  0  0
   -1.5690   -0.6483    1.8910 H   0  0  0  0  0  0  0  0  0  0  0  0
   -1.4823   -1.2136    0.1803 H   0  0  0  0  0  0  0  0  0  0  0  0
    0.8010   -1.1324    0.1362 H   0  0  0  0  0  0  0  0  0  0  0  0
    0.7466   -0.9515    1.9419 H   0  0  0  0  0  0  0  0  0  0  0  0
    0.7004    1.3827    1.8519 H   0  0  0  0  0  0  0  0  0  0  0  0
    3.5051    2.9747   -0.1839 H   0  0  0  0  0  0  0  0  0  0  0  0
    2.6635    3.1889    1.3876 H   0  0  0  0  0  0  0  0  0  0  0  0
    1.5950    3.4422   -1.4772 H   0  0  0  0  0  0  0  0  0  0  0  0
    1.5484    4.6311   -0.1556 H   0  0  0  0  0  0  0  0  0  0  0  0
   -0.2187    3.4352    1.0184 H   0  0  0  0  0  0  0  0  0  0  0  0
   -0.6936    3.6284   -0.6902 H   0  0  0  0  0  0  0  0  0  0  0  0
   -0.1607    0.0161   -1.7341 H   0  0  0  0  0  0  0  0  0  0  0  0
    1.1457    1.2127   -1.9131 H   0  0  0  0  0  0  0  0  0  0  0  0
   -0.5342    1.6731   -2.3104 H   0  0  0  0  0  0  0  0  0  0  0  0
    3.0026   -0.6813    0.6243 H   0  0  0  0  0  0  0  0  0  0  0  0
    5.0386    1.6125    0.7527 H   0  0  0  0  0  0  0  0  0  0  0  0
    7.2911    0.6120   -1.3405 H   0  0  0  0  0  0  0  0  0  0  0  0
    7.2608    1.1517    0.3677 H   0  0  0  0  0  0  0  0  0  0  0  0
    9.0337   -0.5883   -0.1275 H   0  0  0  0  0  0  0  0  0  0  0  0
    8.3185   -0.4516    1.9502 H   0  0  0  0  0  0  0  0  0  0  0  0
    7.8898   -1.9399   -1.8112 H   0  0  0  0  0  0  0  0  0  0  0  0
    8.3084   -2.9710   -0.4021 H   0  0  0  0  0  0  0  0  0  0  0  0
    5.9653   -2.8072    0.4637 H   0  0  0  0  0  0  0  0  0  0  0  0
    6.3185   -4.4461   -0.9650 H   0  0  0  0  0  0  0  0  0  0  0  0
    4.2022   -1.7196   -0.8598 H   0  0  0  0  0  0  0  0  0  0  0  0
    5.3712   -1.1912   -2.0956 H   0  0  0  0  0  0  0  0  0  0  0  0
   -2.5166    0.4124   -1.4288 H   0  0  0  0  0  0  0  0  0  0  0  0
   -4.1832    2.3773   -1.3870 H   0  0  0  0  0  0  0  0  0  0  0  0
   -3.1858    3.0925   -0.0646 H   0  0  0  0  0  0  0  0  0  0  0  0
   -2.4897    2.7976   -1.7143 H   0  0  0  0  0  0  0  0  0  0  0  0
   -4.2769    0.8288    1.1197 H   0  0  0  0  0  0  0  0  0  0  0  0
   -4.1095   -1.2543   -1.1289 H   0  0  0  0  0  0  0  0  0  0  0  0
   -5.7514   -0.9456    1.5054 H   0  0  0  0  0  0  0  0  0  0  0  0
   -5.3195   -3.4675   -0.2123 H   0  0  0  0  0  0  0  0  0  0  0  0
   -6.0553   -3.3580    1.4383 H   0  0  0  0  0  0  0  0  0  0  0  0
   -4.3214   -2.9990    1.2149 H   0  0  0  0  0  0  0  0  0  0  0  0
   -8.1277   -2.8670    0.6114 H   0  0  0  0  0  0  0  0  0  0  0  0
   -9.1428   -1.5164    0.0420 H   0  0  0  0  0  0  0  0  0  0  0  0
   -8.1920   -1.3304    1.5628 H   0  0  0  0  0  0  0  0  0  0  0  0
   -7.2787    0.8531    0.4483 H   0  0  0  0  0  0  0  0  0  0  0  0
   -8.2327    0.4495   -1.0306 H   0  0  0  0  0  0  0  0  0  0  0  0
   -6.4743    0.7513   -1.1614 H   0  0  0  0  0  0  0  0  0  0  0  0
   -6.3073   -1.4442   -2.1006 H   0  0  0  0  0  0  0  0  0  0  0  0
  1  2  1  0
  2  3  1  0
  3  4  1  0
  4  5  1  0
  5  6  1  0
  6  7  1  0
  7  8  1  0
  8  9  1  0
  9 10  1  6
  5 11  2  0
 11 12  1  0
 12 13  2  0
 13 14  1  0
 14 15  1  0
 15 16  1  0
 15 17  1  0
 17 18  1  0
 18 19  1  0
 18 20  1  0
  1 21  1  0
 21 22  1  0
 21 23  1  0
 23 24  2  0
 24 25  1  0
 25 26  1  0
 25 27  1  0
 27 28  1  0
 27 29  1  0
 27 30  1  0
  9  1  1  0
 20 13  1  0
  9  4  1  0
  1 31  1  1
  2 32  1  0
  2 33  1  0
  3 34  1  0
  3 35  1  0
  4 36  1  1
  6 37  1  0
  6 38  1  0
  7 39  1  0
  7 40  1  0
  8 41  1  0
  8 42  1  0
 10 43  1  0
 10 44  1  0
 10 45  1  0
 11 46  1  0
 12 47  1  0
 14 48  1  0
 14 49  1  0
 15 50  1  1
 16 51  1  0
 17 52  1  0
 17 53  1  0
 18 54  1  1
 19 55  1  0
 20 56  1  0
 20 57  1  0
 21 58  1  6
 22 59  1  0
 22 60  1  0
 22 61  1  0
 23 62  1  0
 24 63  1  0
 25 64  1  1
 26 65  1  0
 26 66  1  0
 26 67  1  0
 28 68  1  0
 28 69  1  0
 28 70  1  0
 29 71  1  0
 29 72  1  0
 29 73  1  0
 30 74  1  0
M  END
$$$$
