
     RDKit          3D

 24 24  0  0  0  0  0  0  0  0999 V2000
   -0.5263   -0.0372    1.7941 C   0  0  2  0  0  0  0  0  0  0  0  0
   -0.6046   -1.2752    2.4562 O   0  0  0  0  0  0  0  0  0  0  0  0
   -1.7050    0.1978    1.0168 O   0  0  0  0  0  0  0  0  0  0  0  0
   -1.8352   -0.2091   -0.3187 C   0  0  0  0  0  0  0  0  0  0  0  0
   -0.7749   -0.6908   -0.9891 C   0  0  0  0  0  0  0  0  0  0  0  0
    0.5711   -0.8640   -0.3357 C   0  0  2  0  0  0  0  0  0  0  0  0
    0.7364   -2.2149    0.0071 O   0  0  0  0  0  0  0  0  0  0  0  0
    0.7323    0.0392    0.9114 C   0  0  1  0  0  0  0  0  0  0  0  0
    0.8980    1.3817    0.4943 O   0  0  0  0  0  0  0  0  0  0  0  0
    2.5326    1.8253    0.5891 S   0  0  0  0  0  6  0  0  0  0  0  0
    3.4998    0.6705   -0.1609 O   0  0  0  0  0  0  0  0  0  0  0  0
    2.7156    3.1447   -0.1059 O   0  0  0  0  0  0  0  0  0  0  0  0
    2.9328    1.9653    2.0315 O   0  0  0  0  0  0  0  0  0  0  0  0
   -3.1526   -0.0683   -0.9645 C   0  0  0  0  0  0  0  0  0  0  0  0
   -4.2196    0.4458   -0.2345 O   0  0  0  0  0  0  0  0  0  0  0  0
   -3.3263   -0.4068   -2.1669 O   0  0  0  0  0  0  0  0  0  0  0  0
   -0.4623    0.7529    2.5724 H   0  0  0  0  0  0  0  0  0  0  0  0
   -1.0601   -1.9163    1.8514 H   0  0  0  0  0  0  0  0  0  0  0  0
   -0.8801   -1.0205   -2.0158 H   0  0  0  0  0  0  0  0  0  0  0  0
    1.3419   -0.5832   -1.0894 H   0  0  0  0  0  0  0  0  0  0  0  0
    1.7084   -2.3579    0.1513 H   0  0  0  0  0  0  0  0  0  0  0  0
    1.5858   -0.3311    1.5284 H   0  0  0  0  0  0  0  0  0  0  0  0
    4.4268    0.9999   -0.0465 H   0  0  0  0  0  0  0  0  0  0  0  0
   -5.1347    0.5521   -0.6559 H   0  0  0  0  0  0  0  0  0  0  0  0
  1  2  1  0
  1  3  1  0
  3  4  1  0
  4  5  2  0
  5  6  1  0
  6  7  1  0
  6  8  1  0
  8  9  1  0
  9 10  1  0
 10 11  1  0
 10 12  2  0
 10 13  2  0
  4 14  1  0
 14 15  1  0
 14 16  2  0
  8  1  1  0
  1 17  1  1
  2 18  1  0
  5 19  1  0
  6 20  1  6
  7 21  1  0
  8 22  1  1
 11 23  1  0
 15 24  1  0
M  END
$$$$
