
     RDKit          3D

 59 61  0  0  0  0  0  0  0  0999 V2000
   -2.2286   -0.0298    2.6729 C   0  0  0  0  0  0  0  0  0  0  0  0
   -1.7016    1.0657    1.7536 C   0  0  0  0  0  0  0  0  0  0  0  0
   -2.0637    0.8023    0.3990 O   0  0  0  0  0  0  0  0  0  0  0  0
   -3.3450    0.9509   -0.1640 C   0  0  0  0  0  0  0  0  0  0  0  0
   -4.3920    1.5910    0.5243 C   0  0  0  0  0  0  0  0  0  0  0  0
   -5.6444    1.7790   -0.0776 C   0  0  0  0  0  0  0  0  0  0  0  0
   -6.7036    2.3600    0.6943 N   0  0  0  0  0  0  0  0  0  0  0  0
   -5.8505    1.3520   -1.4079 C   0  0  0  0  0  0  0  0  0  0  0  0
   -4.8137    0.6901   -2.0839 C   0  0  0  0  0  0  0  0  0  0  0  0
   -3.5725    0.4702   -1.4689 C   0  0  0  0  0  0  0  0  0  0  0  0
   -2.5116   -0.2492   -2.2080 C   0  0  0  0  0  0  0  0  0  0  0  0
   -2.3767   -0.0632   -3.4481 O   0  0  0  0  0  0  0  0  0  0  0  0
   -1.6475   -1.1683   -1.5244 N   0  0  0  0  0  0  0  0  0  0  0  0
   -0.3121   -1.5072   -2.0281 C   0  0  0  0  0  0  0  0  0  0  0  0
    0.5859   -0.2450   -2.0044 C   0  0  0  0  0  0  0  0  0  0  0  0
    2.0513   -0.5928   -1.7127 C   0  0  0  0  0  0  0  0  0  0  0  0
    2.2220   -1.2769   -0.4024 N   0  0  0  0  0  0  0  0  0  0  0  0
    2.6594   -0.3596    0.6783 C   0  0  0  0  0  0  0  0  0  0  0  0
    4.1652   -0.5380    0.9596 C   0  0  0  0  0  0  0  0  0  0  0  0
    4.5846    0.2773    2.1959 C   0  0  0  0  0  0  0  0  0  0  0  0
    6.0528    0.0058    2.5452 C   0  0  0  0  0  0  0  0  0  0  0  0
    6.9567    0.0750    1.3404 C   0  0  0  0  0  0  0  0  0  0  0  0
    6.5017   -0.0733    0.0854 C   0  0  0  0  0  0  0  0  0  0  0  0
    5.0308   -0.1185   -0.2462 C   0  0  0  0  0  0  0  0  0  0  0  0
    1.0603   -2.1060    0.0088 C   0  0  0  0  0  0  0  0  0  0  0  0
    0.3001   -2.6612   -1.2005 C   0  0  0  0  0  0  0  0  0  0  0  0
   -7.0881    1.6064   -2.0923 N   0  0  0  0  0  4  0  0  0  0  0  0
   -7.6881    2.8410   -1.9986 O   0  0  0  0  0  1  0  0  0  0  0  0
   -7.5184    0.7902   -2.9334 O   0  0  0  0  0  0  0  0  0  0  0  0
   -1.8943    0.1636    3.7137 H   0  0  0  0  0  0  0  0  0  0  0  0
   -1.8364   -1.0164    2.3463 H   0  0  0  0  0  0  0  0  0  0  0  0
   -3.3375   -0.0575    2.6535 H   0  0  0  0  0  0  0  0  0  0  0  0
   -2.0584    2.0665    2.0752 H   0  0  0  0  0  0  0  0  0  0  0  0
   -0.5930    1.0725    1.8199 H   0  0  0  0  0  0  0  0  0  0  0  0
   -4.2483    1.9455    1.5347 H   0  0  0  0  0  0  0  0  0  0  0  0
   -6.5133    2.7568    1.6416 H   0  0  0  0  0  0  0  0  0  0  0  0
   -7.7002    2.3024    0.3924 H   0  0  0  0  0  0  0  0  0  0  0  0
   -4.9743    0.3484   -3.0996 H   0  0  0  0  0  0  0  0  0  0  0  0
   -1.9696   -1.5593   -0.6096 H   0  0  0  0  0  0  0  0  0  0  0  0
   -0.4080   -1.8666   -3.0768 H   0  0  0  0  0  0  0  0  0  0  0  0
    0.2391    0.4627   -1.2190 H   0  0  0  0  0  0  0  0  0  0  0  0
    0.5166    0.2796   -2.9819 H   0  0  0  0  0  0  0  0  0  0  0  0
    2.4267   -1.2651   -2.5141 H   0  0  0  0  0  0  0  0  0  0  0  0
    2.6635    0.3321   -1.7826 H   0  0  0  0  0  0  0  0  0  0  0  0
    2.4302    0.7039    0.4395 H   0  0  0  0  0  0  0  0  0  0  0  0
    2.1200   -0.5734    1.6295 H   0  0  0  0  0  0  0  0  0  0  0  0
    4.3485   -1.6162    1.1718 H   0  0  0  0  0  0  0  0  0  0  0  0
    3.9549    0.0026    3.0703 H   0  0  0  0  0  0  0  0  0  0  0  0
    4.4451    1.3636    1.9986 H   0  0  0  0  0  0  0  0  0  0  0  0
    6.3928    0.7468    3.2996 H   0  0  0  0  0  0  0  0  0  0  0  0
    6.1432   -1.0070    2.9937 H   0  0  0  0  0  0  0  0  0  0  0  0
    8.0281    0.1385    1.5045 H   0  0  0  0  0  0  0  0  0  0  0  0
    7.2130   -0.0509   -0.7347 H   0  0  0  0  0  0  0  0  0  0  0  0
    4.7302    0.8927   -0.5958 H   0  0  0  0  0  0  0  0  0  0  0  0
    4.8817   -0.8364   -1.0806 H   0  0  0  0  0  0  0  0  0  0  0  0
    0.3423   -1.5171    0.6250 H   0  0  0  0  0  0  0  0  0  0  0  0
    1.4257   -2.9545    0.6258 H   0  0  0  0  0  0  0  0  0  0  0  0
   -0.4885   -3.3689   -0.8637 H   0  0  0  0  0  0  0  0  0  0  0  0
    1.0075   -3.2412   -1.8335 H   0  0  0  0  0  0  0  0  0  0  0  0
  1  2  1  0
  2  3  1  0
  3  4  1  0
  4  5  2  0
  5  6  1  0
  6  7  1  0
  6  8  2  0
  8  9  1  0
  9 10  2  0
 10 11  1  0
 11 12  2  0
 11 13  1  0
 13 14  1  0
 14 15  1  0
 15 16  1  0
 16 17  1  0
 17 18  1  0
 18 19  1  0
 19 20  1  0
 20 21  1  0
 21 22  1  0
 22 23  2  0
 23 24  1  0
 17 25  1  0
 25 26  1  0
  8 27  1  0
 27 28  1  0
 27 29  2  0
 10  4  1  0
 26 14  1  0
 24 19  1  0
  1 30  1  0
  1 31  1  0
  1 32  1  0
  2 33  1  0
  2 34  1  0
  5 35  1  0
  7 36  1  0
  7 37  1  0
  9 38  1  0
 13 39  1  0
 14 40  1  0
 15 41  1  0
 15 42  1  0
 16 43  1  0
 16 44  1  0
 18 45  1  0
 18 46  1  0
 19 47  1  0
 20 48  1  0
 20 49  1  0
 21 50  1  0
 21 51  1  0
 22 52  1  0
 23 53  1  0
 24 54  1  0
 24 55  1  0
 25 56  1  0
 25 57  1  0
 26 58  1  0
 26 59  1  0
M  CHG  2  27   1  28  -1
M  END
$$$$
