
     RDKit          3D

  8  7  0  0  0  0  0  0  0  0999 V2000
    1.1975   -0.3095   -0.2051 N   0  0  0  0  0  0  0  0  0  0  0  0
    0.0535    0.5003    0.0605 C   0  0  0  0  0  0  0  0  0  0  0  0
   -1.2405   -0.0926    0.1565 N   0  0  0  0  0  0  0  0  0  0  0  0
    0.1864    1.7436    0.2109 O   0  0  0  0  0  0  0  0  0  0  0  0
    2.1454    0.1228   -0.2757 H   0  0  0  0  0  0  0  0  0  0  0  0
    1.0994   -1.3412   -0.3316 H   0  0  0  0  0  0  0  0  0  0  0  0
   -2.0789    0.4987    0.3509 H   0  0  0  0  0  0  0  0  0  0  0  0
   -1.3628   -1.1221    0.0336 H   0  0  0  0  0  0  0  0  0  0  0  0
  1  2  1  0
  2  3  1  0
  2  4  2  0
  1  5  1  0
  1  6  1  0
  3  7  1  0
  3  8  1  0
M  END
$$$$
