
     RDKit          3D

 60 62  0  0  0  0  0  0  0  0999 V2000
    0.7673    0.8175    2.4521 C   0  0  2  0  0  0  0  0  0  0  0  0
    0.6328    2.1933    1.7595 C   0  0  0  0  0  0  0  0  0  0  0  0
   -0.4720    2.2581    0.7281 C   0  0  0  0  0  0  0  0  0  0  0  0
   -0.2208    1.9483   -0.6176 C   0  0  0  0  0  0  0  0  0  0  0  0
   -1.2481    2.0208   -1.5626 C   0  0  0  0  0  0  0  0  0  0  0  0
   -2.5453    2.4114   -1.1811 C   0  0  0  0  0  0  0  0  0  0  0  0
   -2.7941    2.7152    0.1667 C   0  0  0  0  0  0  0  0  0  0  0  0
   -1.7679    2.6395    1.1114 C   0  0  0  0  0  0  0  0  0  0  0  0
   -3.6657    2.5124   -2.1985 C   0  0  2  0  0  0  0  0  0  0  0  0
   -3.9100    1.1663   -2.9312 C   0  0  0  0  0  0  0  0  0  0  0  0
   -3.4234    1.3051   -4.3468 C   0  0  0  0  0  0  0  0  0  0  0  0
   -3.3363    0.3184   -5.1239 O   0  0  0  0  0  0  0  0  0  0  0  0
   -3.0961    2.6156   -4.7766 N   0  0  0  0  0  0  0  0  0  0  0  0
   -3.2854    3.7043   -3.4753 S   0  0  0  0  0  6  0  0  0  0  0  0
   -2.0177    4.4696   -3.2152 O   0  0  0  0  0  0  0  0  0  0  0  0
   -4.4392    4.6350   -3.7206 O   0  0  0  0  0  0  0  0  0  0  0  0
    1.3709   -0.1790    1.5589 N   0  0  0  0  0  0  0  0  0  0  0  0
    1.8537   -1.4411    2.0438 C   0  0  0  0  0  0  0  0  0  0  0  0
    1.5613   -1.8266    3.2092 O   0  0  0  0  0  0  0  0  0  0  0  0
    2.6779   -2.3303    1.1468 C   0  0  2  0  0  0  0  0  0  0  0  0
    1.7784   -3.3271    0.3918 C   0  0  0  0  0  0  0  0  0  0  0  0
    0.9011   -2.6323   -0.6190 C   0  0  0  0  0  0  0  0  0  0  0  0
    1.4346   -2.2239   -1.8530 C   0  0  0  0  0  0  0  0  0  0  0  0
    0.6314   -1.5551   -2.7810 C   0  0  0  0  0  0  0  0  0  0  0  0
   -0.7063   -1.2859   -2.4829 C   0  0  0  0  0  0  0  0  0  0  0  0
   -1.2408   -1.6741   -1.2512 C   0  0  0  0  0  0  0  0  0  0  0  0
   -0.4415   -2.3452   -0.3211 C   0  0  0  0  0  0  0  0  0  0  0  0
    3.6797   -3.0507    1.9404 N   0  0  0  0  0  0  0  0  0  0  0  0
    4.8322   -2.3960    2.4886 C   0  0  0  0  0  0  0  0  0  0  0  0
    5.8086   -3.1715    3.3111 C   0  0  0  0  0  0  0  0  0  0  0  0
    5.0171   -1.1631    2.2988 O   0  0  0  0  0  0  0  0  0  0  0  0
   -0.5555    0.3323    2.9926 C   0  0  0  0  0  0  0  0  0  0  0  0
   -1.0002    0.7497    4.2830 N   0  0  0  0  0  0  0  0  0  0  0  0
   -1.2981   -0.4030    2.2877 O   0  0  0  0  0  0  0  0  0  0  0  0
    1.4597    0.9586    3.3116 H   0  0  0  0  0  0  0  0  0  0  0  0
    0.4479    2.9661    2.5382 H   0  0  0  0  0  0  0  0  0  0  0  0
    1.6033    2.4636    1.2884 H   0  0  0  0  0  0  0  0  0  0  0  0
    0.7722    1.6662   -0.9424 H   0  0  0  0  0  0  0  0  0  0  0  0
   -1.0289    1.7844   -2.5959 H   0  0  0  0  0  0  0  0  0  0  0  0
   -3.7829    3.0160    0.4896 H   0  0  0  0  0  0  0  0  0  0  0  0
   -1.9835    2.8820    2.1447 H   0  0  0  0  0  0  0  0  0  0  0  0
   -4.6097    2.8268   -1.7012 H   0  0  0  0  0  0  0  0  0  0  0  0
   -3.4028    0.3166   -2.4281 H   0  0  0  0  0  0  0  0  0  0  0  0
   -4.9994    0.9489   -2.9564 H   0  0  0  0  0  0  0  0  0  0  0  0
   -2.7441    2.8696   -5.7258 H   0  0  0  0  0  0  0  0  0  0  0  0
    1.5677    0.0679    0.5641 H   0  0  0  0  0  0  0  0  0  0  0  0
    3.2130   -1.7054    0.3971 H   0  0  0  0  0  0  0  0  0  0  0  0
    1.1600   -3.9047    1.1146 H   0  0  0  0  0  0  0  0  0  0  0  0
    2.4185   -4.0636   -0.1422 H   0  0  0  0  0  0  0  0  0  0  0  0
    2.4716   -2.4227   -2.0938 H   0  0  0  0  0  0  0  0  0  0  0  0
    1.0460   -1.2455   -3.7315 H   0  0  0  0  0  0  0  0  0  0  0  0
   -1.3252   -0.7728   -3.2061 H   0  0  0  0  0  0  0  0  0  0  0  0
   -2.2743   -1.4560   -1.0163 H   0  0  0  0  0  0  0  0  0  0  0  0
   -0.8670   -2.6388    0.6302 H   0  0  0  0  0  0  0  0  0  0  0  0
    3.5530   -4.0714    2.1303 H   0  0  0  0  0  0  0  0  0  0  0  0
    6.1258   -4.0794    2.7569 H   0  0  0  0  0  0  0  0  0  0  0  0
    5.3294   -3.4743    4.2653 H   0  0  0  0  0  0  0  0  0  0  0  0
    6.7063   -2.5568    3.5354 H   0  0  0  0  0  0  0  0  0  0  0  0
   -1.9239    0.4303    4.6504 H   0  0  0  0  0  0  0  0  0  0  0  0
   -0.4153    1.3863    4.8683 H   0  0  0  0  0  0  0  0  0  0  0  0
  1  2  1  0
  2  3  1  0
  3  4  2  0
  4  5  1  0
  5  6  2  0
  6  7  1  0
  7  8  2  0
  6  9  1  0
  9 10  1  0
 10 11  1  0
 11 12  2  0
 11 13  1  0
 13 14  1  0
 14 15  2  0
 14 16  2  0
  1 17  1  0
 17 18  1  0
 18 19  2  0
 18 20  1  0
 20 21  1  0
 21 22  1  0
 22 23  2  0
 23 24  1  0
 24 25  2  0
 25 26  1  0
 26 27  2  0
 20 28  1  0
 28 29  1  0
 29 30  1  0
 29 31  2  0
  1 32  1  0
 32 33  1  0
 32 34  2  0
  8  3  1  0
 14  9  1  0
 27 22  1  0
  1 35  1  1
  2 36  1  0
  2 37  1  0
  4 38  1  0
  5 39  1  0
  7 40  1  0
  8 41  1  0
  9 42  1  1
 10 43  1  0
 10 44  1  0
 13 45  1  0
 17 46  1  0
 20 47  1  6
 21 48  1  0
 21 49  1  0
 23 50  1  0
 24 51  1  0
 25 52  1  0
 26 53  1  0
 27 54  1  0
 28 55  1  0
 30 56  1  0
 30 57  1  0
 30 58  1  0
 33 59  1  0
 33 60  1  0
M  END
$$$$
