
     RDKit          3D

 32 33  0  0  0  0  0  0  0  0999 V2000
    4.2104    0.5530   -0.9730 C   0  0  0  0  0  0  0  0  0  0  0  0
    2.7801    0.7085   -0.7402 N   0  0  0  0  0  0  0  0  0  0  0  0
    2.1892    1.4387    0.3156 C   0  0  0  0  0  0  0  0  0  0  0  0
    2.8023    2.3068    0.9914 O   0  0  0  0  0  0  0  0  0  0  0  0
    0.8459    1.0601    0.5721 N   0  0  0  0  0  0  0  0  0  0  0  0
    0.4911   -0.0525   -0.3218 C   0  0  2  0  0  0  0  0  0  0  0  0
   -0.5266    0.3187   -1.2434 O   0  0  0  0  0  0  0  0  0  0  0  0
   -1.8379    0.4199   -0.6989 C   0  0  2  0  0  0  0  0  0  0  0  0
   -2.0825    1.7715    0.0102 C   0  0  0  0  0  0  0  0  0  0  0  0
   -3.4087    2.1935   -0.1719 O   0  0  0  0  0  0  0  0  0  0  0  0
   -2.2813   -0.8208    0.1171 C   0  0  1  0  0  0  0  0  0  0  0  0
   -2.5471   -1.8744   -0.7758 O   0  0  0  0  0  0  0  0  0  0  0  0
   -1.2189   -1.2633    1.1381 C   0  0  2  0  0  0  0  0  0  0  0  0
   -1.2076   -0.3863    2.2344 O   0  0  0  0  0  0  0  0  0  0  0  0
    0.1667   -1.3438    0.4785 C   0  0  1  0  0  0  0  0  0  0  0  0
    0.1872   -2.4649   -0.3737 O   0  0  0  0  0  0  0  0  0  0  0  0
    1.7728   -0.2258   -1.1072 C   0  0  0  0  0  0  0  0  0  0  0  0
    1.9333   -1.0711   -2.0285 O   0  0  0  0  0  0  0  0  0  0  0  0
    4.3884    0.1867   -2.0058 H   0  0  0  0  0  0  0  0  0  0  0  0
    4.7227    1.5303   -0.8508 H   0  0  0  0  0  0  0  0  0  0  0  0
    4.6295   -0.1753   -0.2475 H   0  0  0  0  0  0  0  0  0  0  0  0
    0.3105    1.3984    1.3985 H   0  0  0  0  0  0  0  0  0  0  0  0
   -2.5088    0.4431   -1.5870 H   0  0  0  0  0  0  0  0  0  0  0  0
   -1.8558    1.7232    1.0945 H   0  0  0  0  0  0  0  0  0  0  0  0
   -1.4180    2.5416   -0.4360 H   0  0  0  0  0  0  0  0  0  0  0  0
   -3.9608    1.7038    0.4916 H   0  0  0  0  0  0  0  0  0  0  0  0
   -3.2211   -0.5726    0.6640 H   0  0  0  0  0  0  0  0  0  0  0  0
   -3.1213   -2.5263   -0.2946 H   0  0  0  0  0  0  0  0  0  0  0  0
   -1.4970   -2.2790    1.5079 H   0  0  0  0  0  0  0  0  0  0  0  0
   -0.7187   -0.8443    2.9674 H   0  0  0  0  0  0  0  0  0  0  0  0
    0.9285   -1.4671    1.2874 H   0  0  0  0  0  0  0  0  0  0  0  0
    1.0532   -2.9305   -0.2351 H   0  0  0  0  0  0  0  0  0  0  0  0
  1  2  1  0
  2  3  1  0
  3  4  2  0
  3  5  1  0
  5  6  1  0
  6  7  1  6
  7  8  1  0
  8  9  1  0
  9 10  1  0
  8 11  1  0
 11 12  1  0
 11 13  1  0
 13 14  1  0
 13 15  1  0
 15 16  1  0
  6 17  1  0
 17 18  2  0
 17  2  1  0
 15  6  1  0
  1 19  1  0
  1 20  1  0
  1 21  1  0
  5 22  1  0
  8 23  1  6
  9 24  1  0
  9 25  1  0
 10 26  1  0
 11 27  1  1
 12 28  1  0
 13 29  1  1
 14 30  1  0
 15 31  1  1
 16 32  1  0
M  END
$$$$
