
     RDKit          3D

 73 75  0  0  0  0  0  0  0  0999 V2000
   -3.0945   -2.7082    0.1602 C   0  0  0  0  0  0  0  0  0  0  0  0
   -2.6717   -1.4191    0.8887 C   0  0  2  0  0  0  0  0  0  0  0  0
   -3.9296   -0.5937    1.2853 C   0  0  0  0  0  0  0  0  0  0  0  0
   -4.7298   -0.0353    0.0938 C   0  0  0  0  0  0  0  0  0  0  0  0
   -6.0171    0.6572    0.5761 C   0  0  0  0  0  0  0  0  0  0  0  0
   -6.8002    1.3827   -0.5549 C   0  0  0  0  0  0  0  0  0  0  0  0
   -7.3220    0.3759   -1.5954 C   0  0  0  0  0  0  0  0  0  0  0  0
   -8.0041    2.1272    0.0560 C   0  0  0  0  0  0  0  0  0  0  0  0
   -5.9693    2.3077   -1.2163 O   0  0  0  0  0  0  0  0  0  0  0  0
   -1.6268   -0.5810    0.0720 C   0  0  1  0  0  0  0  0  0  0  0  0
   -1.2224    0.7296    0.8008 C   0  0  0  0  0  0  0  0  0  0  0  0
    0.2542    0.9947    0.4801 C   0  0  0  0  0  0  0  0  0  0  0  0
    0.5790   -0.0094   -0.6176 C   0  0  1  0  0  0  0  0  0  0  0  0
    2.0126   -0.3706   -0.9431 C   0  0  0  0  0  0  0  0  0  0  0  0
    2.1693   -1.4011   -2.0515 C   0  0  0  0  0  0  0  0  0  0  0  0
    1.1661   -2.5725   -1.9393 C   0  0  0  0  0  0  0  0  0  0  0  0
   -0.2656   -2.1490   -1.5399 C   0  0  0  0  0  0  0  0  0  0  0  0
   -0.2608   -1.2481   -0.2755 C   0  0  2  0  0  0  0  0  0  0  0  0
    0.3184   -2.0208    0.9515 C   0  0  0  0  0  0  0  0  0  0  0  0
    3.0529    0.3142   -0.4254 C   0  0  0  0  0  0  0  0  0  0  0  0
    4.4588    0.1245   -0.8455 C   0  0  0  0  0  0  0  0  0  0  0  0
    5.5222    0.4354   -0.0753 C   0  0  0  0  0  0  0  0  0  0  0  0
    6.8864    0.4626   -0.7347 C   0  0  0  0  0  0  0  0  0  0  0  0
    7.9842    1.0461    0.1782 C   0  0  1  0  0  0  0  0  0  0  0  0
    9.1243    1.3859   -0.5706 O   0  0  0  0  0  0  0  0  0  0  0  0
    7.4543    2.2630    0.9563 C   0  0  0  0  0  0  0  0  0  0  0  0
    6.3634    1.8356    1.9484 C   0  0  0  0  0  0  0  0  0  0  0  0
    5.4172    0.8063    1.3702 C   0  0  0  0  0  0  0  0  0  0  0  0
    4.6011    0.1499    2.2050 C   0  0  0  0  0  0  0  0  0  0  0  0
   -4.0189   -3.1325    0.6069 H   0  0  0  0  0  0  0  0  0  0  0  0
   -2.3163   -3.4886    0.2655 H   0  0  0  0  0  0  0  0  0  0  0  0
   -3.2810   -2.5156   -0.9175 H   0  0  0  0  0  0  0  0  0  0  0  0
   -2.2049   -1.7285    1.8486 H   0  0  0  0  0  0  0  0  0  0  0  0
   -4.5980   -1.2388    1.8978 H   0  0  0  0  0  0  0  0  0  0  0  0
   -3.6346    0.2476    1.9473 H   0  0  0  0  0  0  0  0  0  0  0  0
   -4.9960   -0.8661   -0.5904 H   0  0  0  0  0  0  0  0  0  0  0  0
   -4.1090    0.7002   -0.4576 H   0  0  0  0  0  0  0  0  0  0  0  0
   -6.6760   -0.0987    1.0587 H   0  0  0  0  0  0  0  0  0  0  0  0
   -5.7446    1.4020    1.3570 H   0  0  0  0  0  0  0  0  0  0  0  0
   -6.4828   -0.0816   -2.1595 H   0  0  0  0  0  0  0  0  0  0  0  0
   -7.9095   -0.4303   -1.1056 H   0  0  0  0  0  0  0  0  0  0  0  0
   -7.9741    0.8875   -2.3358 H   0  0  0  0  0  0  0  0  0  0  0  0
   -7.6648    2.8607    0.8186 H   0  0  0  0  0  0  0  0  0  0  0  0
   -8.5570    2.6824   -0.7321 H   0  0  0  0  0  0  0  0  0  0  0  0
   -8.7019    1.4122    0.5432 H   0  0  0  0  0  0  0  0  0  0  0  0
   -5.6282    2.9501   -0.5397 H   0  0  0  0  0  0  0  0  0  0  0  0
   -2.1033   -0.2929   -0.8921 H   0  0  0  0  0  0  0  0  0  0  0  0
   -1.3344    0.6346    1.9031 H   0  0  0  0  0  0  0  0  0  0  0  0
   -1.8536    1.5754    0.4505 H   0  0  0  0  0  0  0  0  0  0  0  0
    0.4128    2.0387    0.1319 H   0  0  0  0  0  0  0  0  0  0  0  0
    0.8709    0.8090    1.3866 H   0  0  0  0  0  0  0  0  0  0  0  0
    0.1793    0.4459   -1.5567 H   0  0  0  0  0  0  0  0  0  0  0  0
    2.0196   -0.8880   -3.0257 H   0  0  0  0  0  0  0  0  0  0  0  0
    3.1840   -1.8494   -2.0544 H   0  0  0  0  0  0  0  0  0  0  0  0
    1.5495   -3.3112   -1.2031 H   0  0  0  0  0  0  0  0  0  0  0  0
    1.1229   -3.1000   -2.9167 H   0  0  0  0  0  0  0  0  0  0  0  0
   -0.7327   -1.6112   -2.3945 H   0  0  0  0  0  0  0  0  0  0  0  0
   -0.8565   -3.0691   -1.3734 H   0  0  0  0  0  0  0  0  0  0  0  0
    1.4021   -2.2279    0.8407 H   0  0  0  0  0  0  0  0  0  0  0  0
   -0.1930   -2.9960    1.0794 H   0  0  0  0  0  0  0  0  0  0  0  0
    0.1975   -1.4462    1.8931 H   0  0  0  0  0  0  0  0  0  0  0  0
    2.8692    1.0765    0.3179 H   0  0  0  0  0  0  0  0  0  0  0  0
    4.6423   -0.1709   -1.8716 H   0  0  0  0  0  0  0  0  0  0  0  0
    6.8181    1.0788   -1.6590 H   0  0  0  0  0  0  0  0  0  0  0  0
    7.1718   -0.5693   -1.0336 H   0  0  0  0  0  0  0  0  0  0  0  0
    8.2853    0.2645    0.9109 H   0  0  0  0  0  0  0  0  0  0  0  0
    8.8753    2.1301   -1.1795 H   0  0  0  0  0  0  0  0  0  0  0  0
    7.0387    3.0126    0.2466 H   0  0  0  0  0  0  0  0  0  0  0  0
    8.2865    2.7447    1.5142 H   0  0  0  0  0  0  0  0  0  0  0  0
    6.8592    1.4085    2.8486 H   0  0  0  0  0  0  0  0  0  0  0  0
    5.7862    2.7300    2.2675 H   0  0  0  0  0  0  0  0  0  0  0  0
    3.9829   -0.6710    1.8658 H   0  0  0  0  0  0  0  0  0  0  0  0
    4.5668    0.4021    3.2578 H   0  0  0  0  0  0  0  0  0  0  0  0
  1  2  1  0
  2  3  1  0
  3  4  1  0
  4  5  1  0
  5  6  1  0
  6  7  1  0
  6  8  1  0
  6  9  1  0
  2 10  1  0
 10 11  1  0
 11 12  1  0
 12 13  1  0
 13 14  1  0
 14 15  1  0
 15 16  1  0
 16 17  1  0
 17 18  1  0
 18 19  1  1
 14 20  2  0
 20 21  1  0
 21 22  2  0
 22 23  1  0
 23 24  1  0
 24 25  1  0
 24 26  1  0
 26 27  1  0
 27 28  1  0
 28 29  2  3
 18 10  1  0
 28 22  1  0
 18 13  1  0
  1 30  1  0
  1 31  1  0
  1 32  1  0
  2 33  1  1
  3 34  1  0
  3 35  1  0
  4 36  1  0
  4 37  1  0
  5 38  1  0
  5 39  1  0
  7 40  1  0
  7 41  1  0
  7 42  1  0
  8 43  1  0
  8 44  1  0
  8 45  1  0
  9 46  1  0
 10 47  1  6
 11 48  1  0
 11 49  1  0
 12 50  1  0
 12 51  1  0
 13 52  1  6
 15 53  1  0
 15 54  1  0
 16 55  1  0
 16 56  1  0
 17 57  1  0
 17 58  1  0
 19 59  1  0
 19 60  1  0
 19 61  1  0
 20 62  1  0
 21 63  1  0
 23 64  1  0
 23 65  1  0
 24 66  1  1
 25 67  1  0
 26 68  1  0
 26 69  1  0
 27 70  1  0
 27 71  1  0
 29 72  1  0
 29 73  1  0
M  END
$$$$
