
     RDKit          3D

 47 52  0  0  0  0  0  0  0  0999 V2000
    2.0998   -3.6200   -1.7381 O   0  0  0  0  0  0  0  0  0  0  0  0
    1.3244   -2.6573   -1.9795 C   0  0  0  0  0  0  0  0  0  0  0  0
    0.3608   -2.6963   -3.0128 N   0  0  0  0  0  0  0  0  0  0  0  0
   -0.3259   -1.4624   -2.9571 C   0  0  0  0  0  0  0  0  0  0  0  0
   -1.2626   -1.1701   -3.7467 O   0  0  0  0  0  0  0  0  0  0  0  0
    0.2037   -0.5394   -1.9047 C   0  0  2  0  0  0  0  0  0  0  0  0
    1.2840   -1.3908   -1.1796 C   0  0  2  0  0  0  0  0  0  0  0  0
    2.6119   -0.6795   -1.1424 C   0  0  0  0  0  0  0  0  0  0  0  0
    3.6068   -0.6775   -2.1203 C   0  0  0  0  0  0  0  0  0  0  0  0
    4.5948    0.1846   -1.7887 N   0  0  0  0  0  0  0  0  0  0  0  0
    4.2238    0.7452   -0.6250 C   0  0  0  0  0  0  0  0  0  0  0  0
    4.9013    1.7305    0.0921 C   0  0  0  0  0  0  0  0  0  0  0  0
    4.3056    2.2119    1.2723 C   0  0  0  0  0  0  0  0  0  0  0  0
    3.0568    1.7091    1.7003 C   0  0  0  0  0  0  0  0  0  0  0  0
    2.3945    0.7173    0.9547 C   0  0  0  0  0  0  0  0  0  0  0  0
    3.0157    0.2511   -0.2048 C   0  0  0  0  0  0  0  0  0  0  0  0
   -0.8715   -0.0678   -0.9613 C   0  0  0  0  0  0  0  0  0  0  0  0
   -1.0402    1.2484   -0.5168 C   0  0  0  0  0  0  0  0  0  0  0  0
   -2.0306    1.2954    0.4019 N   0  0  0  0  0  0  0  0  0  0  0  0
   -2.4851    2.4153    1.2242 C   0  0  0  0  0  0  0  0  0  0  0  0
   -3.8960    2.1149    1.7869 C   0  0  0  0  0  0  0  0  0  0  0  0
   -4.0029    0.6929    2.3984 C   0  0  0  0  0  0  0  0  0  0  0  0
   -3.4145   -0.3519    1.4820 C   0  0  0  0  0  0  0  0  0  0  0  0
   -2.4518    0.0403    0.5680 C   0  0  0  0  0  0  0  0  0  0  0  0
   -1.7841   -0.8311   -0.2399 C   0  0  0  0  0  0  0  0  0  0  0  0
   -2.0416   -2.2029   -0.1794 C   0  0  0  0  0  0  0  0  0  0  0  0
   -3.0182   -2.6489    0.7378 C   0  0  0  0  0  0  0  0  0  0  0  0
   -3.6978   -1.7288    1.5741 C   0  0  0  0  0  0  0  0  0  0  0  0
    0.1798   -3.4855   -3.6720 H   0  0  0  0  0  0  0  0  0  0  0  0
    0.6557    0.3381   -2.4198 H   0  0  0  0  0  0  0  0  0  0  0  0
    0.9775   -1.6531   -0.1429 H   0  0  0  0  0  0  0  0  0  0  0  0
    3.5966   -1.2567   -3.0345 H   0  0  0  0  0  0  0  0  0  0  0  0
    5.4549    0.3923   -2.3432 H   0  0  0  0  0  0  0  0  0  0  0  0
    5.8516    2.1190   -0.2508 H   0  0  0  0  0  0  0  0  0  0  0  0
    4.8044    2.9774    1.8523 H   0  0  0  0  0  0  0  0  0  0  0  0
    2.6044    2.0920    2.6058 H   0  0  0  0  0  0  0  0  0  0  0  0
    1.4333    0.3351    1.2731 H   0  0  0  0  0  0  0  0  0  0  0  0
   -0.4498    2.1031   -0.8212 H   0  0  0  0  0  0  0  0  0  0  0  0
   -2.5146    3.3443    0.6153 H   0  0  0  0  0  0  0  0  0  0  0  0
   -1.7735    2.5609    2.0652 H   0  0  0  0  0  0  0  0  0  0  0  0
   -4.1575    2.8715    2.5573 H   0  0  0  0  0  0  0  0  0  0  0  0
   -4.6341    2.2030    0.9598 H   0  0  0  0  0  0  0  0  0  0  0  0
   -3.4522    0.6684    3.3630 H   0  0  0  0  0  0  0  0  0  0  0  0
   -5.0707    0.4603    2.5995 H   0  0  0  0  0  0  0  0  0  0  0  0
   -1.5058   -2.9075   -0.8001 H   0  0  0  0  0  0  0  0  0  0  0  0
   -3.2371   -3.7059    0.8148 H   0  0  0  0  0  0  0  0  0  0  0  0
   -4.4242   -2.0889    2.2914 H   0  0  0  0  0  0  0  0  0  0  0  0
  1  2  2  0
  2  3  1  0
  3  4  1  0
  4  5  2  0
  4  6  1  0
  6  7  1  0
  7  8  1  0
  8  9  2  0
  9 10  1  0
 10 11  1  0
 11 12  2  0
 12 13  1  0
 13 14  2  0
 14 15  1  0
 15 16  2  0
  6 17  1  0
 17 18  2  0
 18 19  1  0
 19 20  1  0
 20 21  1  0
 21 22  1  0
 22 23  1  0
 23 24  1  0
 24 25  2  0
 25 26  1  0
 26 27  2  0
 27 28  1  0
  7  2  1  0
 16  8  1  0
 25 17  1  0
 16 11  1  0
 24 19  1  0
 28 23  2  0
  3 29  1  0
  6 30  1  6
  7 31  1  1
  9 32  1  0
 10 33  1  0
 12 34  1  0
 13 35  1  0
 14 36  1  0
 15 37  1  0
 18 38  1  0
 20 39  1  0
 20 40  1  0
 21 41  1  0
 21 42  1  0
 22 43  1  0
 22 44  1  0
 26 45  1  0
 27 46  1  0
 28 47  1  0
M  END
$$$$
