
     RDKit          3D

 84 89  0  0  0  0  0  0  0  0999 V2000
    0.4845    1.3837   -3.1626 C   0  0  1  0  0  0  0  0  0  0  0  0
   -0.8294    2.1302   -3.4463 C   0  0  0  0  0  0  0  0  0  0  0  0
   -1.5786    2.5604   -2.1631 C   0  0  1  0  0  0  0  0  0  0  0  0
   -2.4991    1.5273   -1.8115 O   0  0  0  0  0  0  0  0  0  0  0  0
   -3.6858    1.7298   -1.0995 C   0  0  0  0  0  0  0  0  0  0  0  0
   -4.1323    2.8972   -0.9255 O   0  0  0  0  0  0  0  0  0  0  0  0
   -4.4078    0.5610   -0.5505 C   0  0  0  0  0  0  0  0  0  0  0  0
   -5.6553    0.7113    0.0704 C   0  0  0  0  0  0  0  0  0  0  0  0
   -6.3394   -0.3992    0.6042 C   0  0  0  0  0  0  0  0  0  0  0  0
   -7.5910   -0.2441    1.2215 O   0  0  0  0  0  0  0  0  0  0  0  0
   -8.2818    0.9921    1.3736 C   0  0  0  0  0  0  0  0  0  0  0  0
   -5.7483   -1.6865    0.5138 C   0  0  0  0  0  0  0  0  0  0  0  0
   -6.3468   -2.8585    1.0158 O   0  0  0  0  0  0  0  0  0  0  0  0
   -7.6041   -2.9548    1.6758 C   0  0  0  0  0  0  0  0  0  0  0  0
   -4.4953   -1.8349   -0.1029 C   0  0  0  0  0  0  0  0  0  0  0  0
   -3.9336   -3.1213   -0.1669 O   0  0  0  0  0  0  0  0  0  0  0  0
   -2.6615   -3.4225   -0.7336 C   0  0  0  0  0  0  0  0  0  0  0  0
   -3.8356   -0.7143   -0.6333 C   0  0  0  0  0  0  0  0  0  0  0  0
   -0.6411    2.8615   -0.9536 C   0  0  2  0  0  0  0  0  0  0  0  0
   -1.2358    3.8954   -0.1778 O   0  0  0  0  0  0  0  0  0  0  0  0
   -1.5546    3.4481    1.1232 C   0  0  0  0  0  0  0  0  0  0  0  0
    0.7577    3.3275   -1.4248 C   0  0  1  0  0  0  0  0  0  0  0  0
    1.6147    3.7532   -0.2573 C   0  0  0  0  0  0  0  0  0  0  0  0
    2.2090    4.8657   -0.2920 O   0  0  0  0  0  0  0  0  0  0  0  0
    1.7792    2.8973    0.8365 O   0  0  0  0  0  0  0  0  0  0  0  0
    2.6075    3.2193    1.9460 C   0  0  0  0  0  0  0  0  0  0  0  0
    1.4727    2.3085   -2.3918 C   0  0  1  0  0  0  0  0  0  0  0  0
    2.6568    1.4920   -1.8146 C   0  0  0  0  0  0  0  0  0  0  0  0
    2.1790    0.2331   -1.0818 C   0  0  1  0  0  0  0  0  0  0  0  0
    1.4724   -0.6350   -2.0600 N   0  0  0  0  0  0  0  0  0  0  0  0
    1.1812   -1.9779   -1.4982 C   0  0  0  0  0  0  0  0  0  0  0  0
    2.4834   -2.7582   -1.2506 C   0  0  0  0  0  0  0  0  0  0  0  0
    3.4460   -1.8813   -0.5214 C   0  0  0  0  0  0  0  0  0  0  0  0
    3.3482   -0.5053   -0.4814 C   0  0  0  0  0  0  0  0  0  0  0  0
    4.3272    0.0263    0.2892 N   0  0  0  0  0  0  0  0  0  0  0  0
    5.0692   -1.0230    0.6947 C   0  0  0  0  0  0  0  0  0  0  0  0
    4.5634   -2.2057    0.2138 C   0  0  0  0  0  0  0  0  0  0  0  0
    5.1480   -3.4329    0.5115 C   0  0  0  0  0  0  0  0  0  0  0  0
    6.2931   -3.4327    1.3282 C   0  0  0  0  0  0  0  0  0  0  0  0
    6.8247   -2.2125    1.8339 C   0  0  0  0  0  0  0  0  0  0  0  0
    7.9624   -2.1747    2.6531 O   0  0  0  0  0  0  0  0  0  0  0  0
    8.6969   -3.3242    3.0609 C   0  0  0  0  0  0  0  0  0  0  0  0
    6.1977   -0.9921    1.5112 C   0  0  0  0  0  0  0  0  0  0  0  0
    0.2190    0.0128   -2.4828 C   0  0  0  0  0  0  0  0  0  0  0  0
    0.9519    1.1553   -4.1477 H   0  0  0  0  0  0  0  0  0  0  0  0
   -1.4918    1.5017   -4.0817 H   0  0  0  0  0  0  0  0  0  0  0  0
   -0.5920    3.0376   -4.0456 H   0  0  0  0  0  0  0  0  0  0  0  0
   -2.1474    3.4806   -2.4287 H   0  0  0  0  0  0  0  0  0  0  0  0
   -6.0923    1.6982    0.1337 H   0  0  0  0  0  0  0  0  0  0  0  0
   -8.5002    1.4331    0.3781 H   0  0  0  0  0  0  0  0  0  0  0  0
   -7.6762    1.6961    1.9825 H   0  0  0  0  0  0  0  0  0  0  0  0
   -9.2420    0.8072    1.8971 H   0  0  0  0  0  0  0  0  0  0  0  0
   -7.7867   -4.0152    1.9450 H   0  0  0  0  0  0  0  0  0  0  0  0
   -8.4202   -2.6243    0.9996 H   0  0  0  0  0  0  0  0  0  0  0  0
   -7.5943   -2.3574    2.6116 H   0  0  0  0  0  0  0  0  0  0  0  0
   -1.8620   -2.8747   -0.1913 H   0  0  0  0  0  0  0  0  0  0  0  0
   -2.4713   -4.5111   -0.6399 H   0  0  0  0  0  0  0  0  0  0  0  0
   -2.6479   -3.1513   -1.8105 H   0  0  0  0  0  0  0  0  0  0  0  0
   -2.8702   -0.8326   -1.1052 H   0  0  0  0  0  0  0  0  0  0  0  0
   -0.4882    1.9207   -0.3744 H   0  0  0  0  0  0  0  0  0  0  0  0
   -2.2184    2.5572    1.1001 H   0  0  0  0  0  0  0  0  0  0  0  0
   -2.0960    4.2580    1.6532 H   0  0  0  0  0  0  0  0  0  0  0  0
   -0.6349    3.2215    1.7017 H   0  0  0  0  0  0  0  0  0  0  0  0
    0.5685    4.2501   -2.0227 H   0  0  0  0  0  0  0  0  0  0  0  0
    2.5847    2.3807    2.6717 H   0  0  0  0  0  0  0  0  0  0  0  0
    3.6538    3.3728    1.6069 H   0  0  0  0  0  0  0  0  0  0  0  0
    2.2341    4.1388    2.4441 H   0  0  0  0  0  0  0  0  0  0  0  0
    1.9454    2.9554   -3.1675 H   0  0  0  0  0  0  0  0  0  0  0  0
    3.3075    2.1197   -1.1745 H   0  0  0  0  0  0  0  0  0  0  0  0
    3.3015    1.1686   -2.6632 H   0  0  0  0  0  0  0  0  0  0  0  0
    1.5002    0.5132   -0.2459 H   0  0  0  0  0  0  0  0  0  0  0  0
    0.5601   -2.5691   -2.2071 H   0  0  0  0  0  0  0  0  0  0  0  0
    0.6154   -1.8856   -0.5425 H   0  0  0  0  0  0  0  0  0  0  0  0
    2.9323   -3.0576   -2.2216 H   0  0  0  0  0  0  0  0  0  0  0  0
    2.2679   -3.6694   -0.6530 H   0  0  0  0  0  0  0  0  0  0  0  0
    4.4675    1.0293    0.5425 H   0  0  0  0  0  0  0  0  0  0  0  0
    4.7360   -4.3583    0.1301 H   0  0  0  0  0  0  0  0  0  0  0  0
    6.7564   -4.3806    1.5645 H   0  0  0  0  0  0  0  0  0  0  0  0
    9.5446   -3.0045    3.7008 H   0  0  0  0  0  0  0  0  0  0  0  0
    9.1018   -3.8535    2.1726 H   0  0  0  0  0  0  0  0  0  0  0  0
    8.0452   -4.0052    3.6481 H   0  0  0  0  0  0  0  0  0  0  0  0
    6.5823   -0.0529    1.8879 H   0  0  0  0  0  0  0  0  0  0  0  0
   -0.2973   -0.6334   -3.2276 H   0  0  0  0  0  0  0  0  0  0  0  0
   -0.4646    0.0987   -1.6158 H   0  0  0  0  0  0  0  0  0  0  0  0
  1  2  1  0
  2  3  1  0
  3  4  1  0
  4  5  1  0
  5  6  2  0
  5  7  1  0
  7  8  2  0
  8  9  1  0
  9 10  1  0
 10 11  1  0
  9 12  2  0
 12 13  1  0
 13 14  1  0
 12 15  1  0
 15 16  1  0
 16 17  1  0
 15 18  2  0
  3 19  1  0
 19 20  1  0
 20 21  1  0
 19 22  1  0
 22 23  1  0
 23 24  2  0
 23 25  1  0
 25 26  1  0
 22 27  1  0
 27 28  1  0
 28 29  1  0
 29 30  1  0
 30 31  1  0
 31 32  1  0
 32 33  1  0
 33 34  2  0
 34 35  1  0
 35 36  1  0
 36 37  2  0
 37 38  1  0
 38 39  2  0
 39 40  1  0
 40 41  1  0
 41 42  1  0
 40 43  2  0
 30 44  1  0
 27  1  1  0
 34 29  1  0
 43 36  1  0
 44  1  1  0
 18  7  1  0
 37 33  1  0
  1 45  1  6
  2 46  1  0
  2 47  1  0
  3 48  1  6
  8 49  1  0
 11 50  1  0
 11 51  1  0
 11 52  1  0
 14 53  1  0
 14 54  1  0
 14 55  1  0
 17 56  1  0
 17 57  1  0
 17 58  1  0
 18 59  1  0
 19 60  1  1
 21 61  1  0
 21 62  1  0
 21 63  1  0
 22 64  1  6
 26 65  1  0
 26 66  1  0
 26 67  1  0
 27 68  1  6
 28 69  1  0
 28 70  1  0
 29 71  1  1
 31 72  1  0
 31 73  1  0
 32 74  1  0
 32 75  1  0
 35 76  1  0
 38 77  1  0
 39 78  1  0
 42 79  1  0
 42 80  1  0
 42 81  1  0
 43 82  1  0
 44 83  1  0
 44 84  1  0
M  END
$$$$
