
     RDKit          3D

 41 43  0  0  0  0  0  0  0  0999 V2000
    6.5130   -0.0767    0.7137 C   0  0  0  0  0  0  0  0  0  0  0  0
    5.3568   -0.8757    1.3127 C   0  0  0  0  0  0  0  0  0  0  0  0
    3.9872   -0.4139    0.7977 C   0  0  0  0  0  0  0  0  0  0  0  0
    3.7218   -0.8162   -0.9289 S   0  0  0  0  0  6  0  0  0  0  0  0
    4.4741    0.1310   -1.8210 O   0  0  0  0  0  0  0  0  0  0  0  0
    4.2017   -2.2161   -1.1924 O   0  0  0  0  0  0  0  0  0  0  0  0
    2.0262   -0.7359   -1.2920 N   0  0  0  0  0  0  0  0  0  0  0  0
    1.2009    0.4152   -1.0323 C   0  0  0  0  0  0  0  0  0  0  0  0
   -0.1981    0.2677   -0.9822 C   0  0  0  0  0  0  0  0  0  0  0  0
   -0.7509   -0.9532   -1.2053 F   0  0  0  0  0  0  0  0  0  0  0  0
   -1.0282    1.3776   -0.7272 C   0  0  0  0  0  0  0  0  0  0  0  0
   -2.4987    1.2251   -0.6658 C   0  0  0  0  0  0  0  0  0  0  0  0
   -3.2238    2.0396   -1.2973 O   0  0  0  0  0  0  0  0  0  0  0  0
   -3.1329    0.1640    0.1460 C   0  0  0  0  0  0  0  0  0  0  0  0
   -2.5411   -0.5555    1.1872 C   0  0  0  0  0  0  0  0  0  0  0  0
   -3.4267   -1.4184    1.7355 N   0  0  0  0  0  0  0  0  0  0  0  0
   -4.5690   -1.2449    1.0542 C   0  0  0  0  0  0  0  0  0  0  0  0
   -5.7324   -1.9083    1.2690 N   0  0  0  0  0  0  0  0  0  0  0  0
   -6.8160   -1.6206    0.4877 C   0  0  0  0  0  0  0  0  0  0  0  0
   -6.7266   -0.6462   -0.5325 C   0  0  0  0  0  0  0  0  0  0  0  0
   -8.1218   -0.2888   -1.5331 Cl  0  0  0  0  0  0  0  0  0  0  0  0
   -5.5141    0.0345   -0.7445 C   0  0  0  0  0  0  0  0  0  0  0  0
   -4.4395   -0.2916    0.0819 C   0  0  0  0  0  0  0  0  0  0  0  0
   -0.4480    2.6464   -0.5602 C   0  0  0  0  0  0  0  0  0  0  0  0
   -1.2213    3.7354   -0.3173 F   0  0  0  0  0  0  0  0  0  0  0  0
    0.9377    2.7979   -0.6213 C   0  0  0  0  0  0  0  0  0  0  0  0
    1.7585    1.6939   -0.8541 C   0  0  0  0  0  0  0  0  0  0  0  0
    6.3514    1.0124    0.8608 H   0  0  0  0  0  0  0  0  0  0  0  0
    6.6192   -0.2931   -0.3690 H   0  0  0  0  0  0  0  0  0  0  0  0
    7.4599   -0.3645    1.2171 H   0  0  0  0  0  0  0  0  0  0  0  0
    5.5017   -1.9575    1.1049 H   0  0  0  0  0  0  0  0  0  0  0  0
    5.3771   -0.7427    2.4160 H   0  0  0  0  0  0  0  0  0  0  0  0
    3.1971   -0.9209    1.3912 H   0  0  0  0  0  0  0  0  0  0  0  0
    3.8733    0.6797    0.9505 H   0  0  0  0  0  0  0  0  0  0  0  0
    1.5785   -1.6228   -1.6135 H   0  0  0  0  0  0  0  0  0  0  0  0
   -1.5224   -0.4428    1.5348 H   0  0  0  0  0  0  0  0  0  0  0  0
   -3.2564   -2.0759    2.5284 H   0  0  0  0  0  0  0  0  0  0  0  0
   -7.7465   -2.1468    0.6542 H   0  0  0  0  0  0  0  0  0  0  0  0
   -5.4258    0.7771   -1.5256 H   0  0  0  0  0  0  0  0  0  0  0  0
    1.3795    3.7773   -0.4889 H   0  0  0  0  0  0  0  0  0  0  0  0
    2.8245    1.8541   -0.9113 H   0  0  0  0  0  0  0  0  0  0  0  0
  1  2  1  0
  2  3  1  0
  3  4  1  0
  4  5  2  0
  4  6  2  0
  4  7  1  0
  7  8  1  0
  8  9  2  0
  9 10  1  0
  9 11  1  0
 11 12  1  0
 12 13  2  0
 12 14  1  0
 14 15  2  0
 15 16  1  0
 16 17  1  0
 17 18  2  0
 18 19  1  0
 19 20  2  0
 20 21  1  0
 20 22  1  0
 22 23  2  0
 11 24  2  0
 24 25  1  0
 24 26  1  0
 26 27  2  0
 27  8  1  0
 23 14  1  0
 23 17  1  0
  1 28  1  0
  1 29  1  0
  1 30  1  0
  2 31  1  0
  2 32  1  0
  3 33  1  0
  3 34  1  0
  7 35  1  0
 15 36  1  0
 16 37  1  0
 19 38  1  0
 22 39  1  0
 26 40  1  0
 27 41  1  0
M  END
$$$$
