
     RDKit          3D

 39 41  0  0  0  0  0  0  0  0999 V2000
    4.4039    1.2673    1.1881 O   0  0  0  0  0  0  0  0  0  0  0  0
    4.5706    0.4346    0.0799 C   0  0  0  0  0  0  0  0  0  0  0  0
    5.9674    0.2411   -0.4692 C   0  0  0  0  0  0  0  0  0  0  0  0
    6.5312   -1.1671   -0.3229 C   0  0  0  0  0  0  0  0  0  0  0  0
    7.0388   -0.0546    0.5735 C   0  0  0  0  0  0  0  0  0  0  0  0
    3.4944   -0.1446   -0.5031 C   0  0  0  0  0  0  0  0  0  0  0  0
    3.6650   -0.9658   -1.6833 C   0  0  0  0  0  0  0  0  0  0  0  0
    3.8010   -1.6222   -2.6267 N   0  0  0  0  0  0  0  0  0  0  0  0
    2.1084    0.0539    0.0044 C   0  0  0  0  0  0  0  0  0  0  0  0
    1.8563    0.9807    0.8223 O   0  0  0  0  0  0  0  0  0  0  0  0
    1.0502   -0.8258   -0.4162 N   0  0  0  0  0  0  0  0  0  0  0  0
   -0.3484   -0.5220   -0.2733 C   0  0  0  0  0  0  0  0  0  0  0  0
   -0.8286    0.7935   -0.3908 C   0  0  0  0  0  0  0  0  0  0  0  0
   -2.1954    1.0611   -0.2725 C   0  0  0  0  0  0  0  0  0  0  0  0
   -3.1112    0.0182   -0.0465 C   0  0  0  0  0  0  0  0  0  0  0  0
   -2.6292   -1.2991    0.0492 C   0  0  0  0  0  0  0  0  0  0  0  0
   -1.2625   -1.5653   -0.0714 C   0  0  0  0  0  0  0  0  0  0  0  0
   -4.5638    0.3017    0.0805 C   0  0  0  0  0  0  0  0  0  0  0  0
   -5.1855    1.2463   -0.7584 C   0  0  0  0  0  0  0  0  0  0  0  0
   -6.5532    1.5103   -0.6365 C   0  0  0  0  0  0  0  0  0  0  0  0
   -7.3144    0.8374    0.3218 C   0  0  0  0  0  0  0  0  0  0  0  0
   -6.7096   -0.1017    1.1600 C   0  0  0  0  0  0  0  0  0  0  0  0
   -5.3425   -0.3704    1.0420 C   0  0  0  0  0  0  0  0  0  0  0  0
    5.1823    1.7641    1.6041 H   0  0  0  0  0  0  0  0  0  0  0  0
    6.3037    0.8129   -1.3598 H   0  0  0  0  0  0  0  0  0  0  0  0
    7.2415   -1.4623   -1.1238 H   0  0  0  0  0  0  0  0  0  0  0  0
    5.8809   -1.9024    0.1987 H   0  0  0  0  0  0  0  0  0  0  0  0
    8.0568    0.3002    0.3074 H   0  0  0  0  0  0  0  0  0  0  0  0
    6.7029   -0.1600    1.6274 H   0  0  0  0  0  0  0  0  0  0  0  0
    1.3074   -1.7812   -0.7527 H   0  0  0  0  0  0  0  0  0  0  0  0
   -0.1527    1.6134   -0.5944 H   0  0  0  0  0  0  0  0  0  0  0  0
   -2.5346    2.0866   -0.3479 H   0  0  0  0  0  0  0  0  0  0  0  0
   -3.3112   -2.1269    0.1979 H   0  0  0  0  0  0  0  0  0  0  0  0
   -0.9134   -2.5879   -0.0006 H   0  0  0  0  0  0  0  0  0  0  0  0
   -4.6187    1.7671   -1.5199 H   0  0  0  0  0  0  0  0  0  0  0  0
   -7.0239    2.2350   -1.2882 H   0  0  0  0  0  0  0  0  0  0  0  0
   -8.3729    1.0436    0.4147 H   0  0  0  0  0  0  0  0  0  0  0  0
   -7.2998   -0.6199    1.9048 H   0  0  0  0  0  0  0  0  0  0  0  0
   -4.8913   -1.0900    1.7135 H   0  0  0  0  0  0  0  0  0  0  0  0
  1  2  1  0
  2  3  1  0
  3  4  1  0
  4  5  1  0
  2  6  2  0
  6  7  1  0
  7  8  3  0
  6  9  1  0
  9 10  2  0
  9 11  1  0
 11 12  1  0
 12 13  2  0
 13 14  1  0
 14 15  2  0
 15 16  1  0
 16 17  2  0
 15 18  1  0
 18 19  2  0
 19 20  1  0
 20 21  2  0
 21 22  1  0
 22 23  2  0
  5  3  1  0
 17 12  1  0
 23 18  1  0
  1 24  1  0
  3 25  1  0
  4 26  1  0
  4 27  1  0
  5 28  1  0
  5 29  1  0
 11 30  1  0
 13 31  1  0
 14 32  1  0
 16 33  1  0
 17 34  1  0
 19 35  1  0
 20 36  1  0
 21 37  1  0
 22 38  1  0
 23 39  1  0
M  END
$$$$
