
     RDKit          3D

 49 50  0  0  0  0  0  0  0  0999 V2000
   -1.2323   -0.9773   -1.3051 C   0  0  2  0  0  0  0  0  0  0  0  0
   -1.2471   -0.0487   -2.4408 N   0  0  0  0  0  0  0  0  0  0  0  0
   -1.8252   -0.2827   -0.0514 C   0  0  0  0  0  0  0  0  0  0  0  0
   -3.2719    0.2382   -0.2447 C   0  0  0  0  0  0  0  0  0  0  0  0
   -3.6544    1.1525    0.9398 C   0  0  0  0  0  0  0  0  0  0  0  0
   -5.0895    1.6748    0.8049 C   0  0  0  0  0  0  0  0  0  0  0  0
   -6.0841    0.5163    0.6889 C   0  0  0  0  0  0  0  0  0  0  0  0
   -5.7251   -0.3923   -0.4907 C   0  0  0  0  0  0  0  0  0  0  0  0
   -4.2896   -0.9198   -0.3680 C   0  0  0  0  0  0  0  0  0  0  0  0
    0.1989   -1.5627   -1.0837 C   0  0  2  0  0  0  0  0  0  0  0  0
    0.1752   -2.7609   -0.3458 O   0  0  0  0  0  0  0  0  0  0  0  0
    1.1820   -0.5775   -0.4926 C   0  0  0  0  0  0  0  0  0  0  0  0
    1.8554    0.1528   -1.2694 O   0  0  0  0  0  0  0  0  0  0  0  0
    1.3284   -0.4320    0.9297 N   0  0  0  0  0  0  0  0  0  0  0  0
    2.3033    0.4089    1.4963 N   0  0  0  0  0  0  0  0  0  0  0  0
    3.6813    0.3963    1.0878 C   0  0  0  0  0  0  0  0  0  0  0  0
    4.4942    1.5044    1.3665 C   0  0  0  0  0  0  0  0  0  0  0  0
    5.8420    1.5057    0.9948 C   0  0  0  0  0  0  0  0  0  0  0  0
    6.3957    0.3968    0.3380 C   0  0  0  0  0  0  0  0  0  0  0  0
    7.8510    0.3821   -0.0246 C   0  0  0  0  0  0  0  0  0  0  0  0
    5.5944   -0.7278    0.0916 C   0  0  0  0  0  0  0  0  0  0  0  0
    4.2466   -0.7290    0.4631 C   0  0  0  0  0  0  0  0  0  0  0  0
   -1.8814   -1.8396   -1.5661 H   0  0  0  0  0  0  0  0  0  0  0  0
   -0.5657    0.7259   -2.2708 H   0  0  0  0  0  0  0  0  0  0  0  0
   -0.9467   -0.5559   -3.3048 H   0  0  0  0  0  0  0  0  0  0  0  0
   -1.1753    0.5813    0.2078 H   0  0  0  0  0  0  0  0  0  0  0  0
   -1.8141   -0.9764    0.8150 H   0  0  0  0  0  0  0  0  0  0  0  0
   -3.3148    0.8510   -1.1725 H   0  0  0  0  0  0  0  0  0  0  0  0
   -3.5554    0.5953    1.8981 H   0  0  0  0  0  0  0  0  0  0  0  0
   -2.9645    2.0237    0.9788 H   0  0  0  0  0  0  0  0  0  0  0  0
   -5.3426    2.2868    1.6973 H   0  0  0  0  0  0  0  0  0  0  0  0
   -5.1678    2.3280   -0.0920 H   0  0  0  0  0  0  0  0  0  0  0  0
   -6.0835   -0.0748    1.6312 H   0  0  0  0  0  0  0  0  0  0  0  0
   -7.1071    0.9241    0.5402 H   0  0  0  0  0  0  0  0  0  0  0  0
   -5.8353    0.1716   -1.4432 H   0  0  0  0  0  0  0  0  0  0  0  0
   -6.4301   -1.2509   -0.5186 H   0  0  0  0  0  0  0  0  0  0  0  0
   -4.2173   -1.5873    0.5191 H   0  0  0  0  0  0  0  0  0  0  0  0
   -4.0765   -1.5255   -1.2726 H   0  0  0  0  0  0  0  0  0  0  0  0
    0.5928   -1.8423   -2.0855 H   0  0  0  0  0  0  0  0  0  0  0  0
   -0.3266   -2.6074    0.4933 H   0  0  0  0  0  0  0  0  0  0  0  0
    0.5789   -0.7981    1.5563 H   0  0  0  0  0  0  0  0  0  0  0  0
    2.0314    0.9978    2.3156 H   0  0  0  0  0  0  0  0  0  0  0  0
    4.0805    2.3703    1.8680 H   0  0  0  0  0  0  0  0  0  0  0  0
    6.4532    2.3711    1.2199 H   0  0  0  0  0  0  0  0  0  0  0  0
    8.0245   -0.2483   -0.9227 H   0  0  0  0  0  0  0  0  0  0  0  0
    8.2084    1.4090   -0.2520 H   0  0  0  0  0  0  0  0  0  0  0  0
    8.4387   -0.0265    0.8238 H   0  0  0  0  0  0  0  0  0  0  0  0
    6.0141   -1.6062   -0.3833 H   0  0  0  0  0  0  0  0  0  0  0  0
    3.6530   -1.6148    0.2787 H   0  0  0  0  0  0  0  0  0  0  0  0
  1  2  1  0
  1  3  1  0
  3  4  1  0
  4  5  1  0
  5  6  1  0
  6  7  1  0
  7  8  1  0
  8  9  1  0
  1 10  1  0
 10 11  1  0
 10 12  1  0
 12 13  2  0
 12 14  1  0
 14 15  1  0
 15 16  1  0
 16 17  2  0
 17 18  1  0
 18 19  2  0
 19 20  1  0
 19 21  1  0
 21 22  2  0
  9  4  1  0
 22 16  1  0
  1 23  1  6
  2 24  1  0
  2 25  1  0
  3 26  1  0
  3 27  1  0
  4 28  1  0
  5 29  1  0
  5 30  1  0
  6 31  1  0
  6 32  1  0
  7 33  1  0
  7 34  1  0
  8 35  1  0
  8 36  1  0
  9 37  1  0
  9 38  1  0
 10 39  1  6
 11 40  1  0
 14 41  1  0
 15 42  1  0
 17 43  1  0
 18 44  1  0
 20 45  1  0
 20 46  1  0
 20 47  1  0
 21 48  1  0
 22 49  1  0
M  END
$$$$
