
     RDKit          3D

 63 65  0  0  0  0  0  0  0  0999 V2000
    5.3254    3.3448   -0.4791 C   0  0  0  0  0  0  0  0  0  0  0  0
    6.0073    2.1321   -0.0155 N   0  0  0  0  0  0  0  0  0  0  0  0
    6.6676    2.1176    1.2943 C   0  0  0  0  0  0  0  0  0  0  0  0
    6.0259    0.9685   -0.8714 C   0  0  0  0  0  0  0  0  0  0  0  0
    5.5441    1.0439   -2.0353 O   0  0  0  0  0  0  0  0  0  0  0  0
    6.6610   -0.3293   -0.4402 C   0  0  0  0  0  0  0  0  0  0  0  0
    6.0293   -1.4418   -1.0751 O   0  0  0  0  0  0  0  0  0  0  0  0
    4.7294   -1.8979   -0.7985 C   0  0  0  0  0  0  0  0  0  0  0  0
    4.2373   -2.9770   -1.5367 C   0  0  0  0  0  0  0  0  0  0  0  0
    2.9526   -3.4703   -1.3041 C   0  0  0  0  0  0  0  0  0  0  0  0
    2.1348   -2.8962   -0.3201 C   0  0  0  0  0  0  0  0  0  0  0  0
    0.7275   -3.4213   -0.1535 C   0  0  0  0  0  0  0  0  0  0  0  0
    0.0462   -2.9250    1.1274 C   0  0  0  0  0  0  0  0  0  0  0  0
    0.2901   -1.4213    1.3786 C   0  0  1  0  0  0  0  0  0  0  0  0
    1.7973   -1.1661    1.5284 C   0  0  0  0  0  0  0  0  0  0  0  0
    2.6128   -1.7877    0.4182 C   0  0  0  0  0  0  0  0  0  0  0  0
    3.9133   -1.3112    0.1869 C   0  0  0  0  0  0  0  0  0  0  0  0
   -0.2631   -0.5477    0.3232 N   0  0  0  0  0  0  0  0  0  0  0  0
   -1.7314   -0.5712    0.2779 C   0  0  0  0  0  0  0  0  0  0  0  0
   -2.2465    0.6212   -0.5361 C   0  0  2  0  0  0  0  0  0  0  0  0
   -1.8469    1.8182    0.0808 O   0  0  0  0  0  0  0  0  0  0  0  0
   -3.7551    0.5640   -0.6480 C   0  0  0  0  0  0  0  0  0  0  0  0
   -4.3567    0.1007   -1.8277 C   0  0  0  0  0  0  0  0  0  0  0  0
   -5.7471    0.0262   -1.9292 C   0  0  0  0  0  0  0  0  0  0  0  0
   -6.5584    0.4001   -0.8498 C   0  0  0  0  0  0  0  0  0  0  0  0
   -7.9466    0.3335   -0.9684 O   0  0  0  0  0  0  0  0  0  0  0  0
   -5.9678    0.8418    0.3504 C   0  0  0  0  0  0  0  0  0  0  0  0
   -6.8133    1.2723    1.5248 C   0  0  0  0  0  0  0  0  0  0  0  0
   -7.0362    2.7871    1.5300 C   0  0  0  0  0  0  0  0  0  0  0  0
   -7.8269    3.1777    0.4393 O   0  0  0  0  0  0  0  0  0  0  0  0
   -4.5682    0.9253    0.4400 C   0  0  0  0  0  0  0  0  0  0  0  0
    5.3579    4.1537    0.2806 H   0  0  0  0  0  0  0  0  0  0  0  0
    4.2596    3.1160   -0.6917 H   0  0  0  0  0  0  0  0  0  0  0  0
    5.8115    3.7169   -1.4056 H   0  0  0  0  0  0  0  0  0  0  0  0
    7.7261    1.8020    1.1801 H   0  0  0  0  0  0  0  0  0  0  0  0
    6.1389    1.4168    1.9738 H   0  0  0  0  0  0  0  0  0  0  0  0
    6.6634    3.1218    1.7676 H   0  0  0  0  0  0  0  0  0  0  0  0
    7.7283   -0.3101   -0.7427 H   0  0  0  0  0  0  0  0  0  0  0  0
    6.6268   -0.4686    0.6595 H   0  0  0  0  0  0  0  0  0  0  0  0
    4.8542   -3.4345   -2.2998 H   0  0  0  0  0  0  0  0  0  0  0  0
    2.5913   -4.3013   -1.8976 H   0  0  0  0  0  0  0  0  0  0  0  0
    0.7457   -4.5328   -0.1347 H   0  0  0  0  0  0  0  0  0  0  0  0
    0.1239   -3.1163   -1.0351 H   0  0  0  0  0  0  0  0  0  0  0  0
   -1.0405   -3.1466    1.0840 H   0  0  0  0  0  0  0  0  0  0  0  0
    0.4510   -3.4994    1.9901 H   0  0  0  0  0  0  0  0  0  0  0  0
   -0.1794   -1.1518    2.3516 H   0  0  0  0  0  0  0  0  0  0  0  0
    1.9772   -0.0688    1.5677 H   0  0  0  0  0  0  0  0  0  0  0  0
    2.1447   -1.5950    2.4936 H   0  0  0  0  0  0  0  0  0  0  0  0
    4.2790   -0.4841    0.7801 H   0  0  0  0  0  0  0  0  0  0  0  0
    0.1129   -0.8160   -0.6154 H   0  0  0  0  0  0  0  0  0  0  0  0
   -2.1546   -0.5161    1.3062 H   0  0  0  0  0  0  0  0  0  0  0  0
   -2.0808   -1.5128   -0.2016 H   0  0  0  0  0  0  0  0  0  0  0  0
   -1.7897    0.5668   -1.5527 H   0  0  0  0  0  0  0  0  0  0  0  0
   -1.9951    2.5436   -0.5811 H   0  0  0  0  0  0  0  0  0  0  0  0
   -3.7497   -0.2008   -2.6723 H   0  0  0  0  0  0  0  0  0  0  0  0
   -6.1950   -0.3233   -2.8508 H   0  0  0  0  0  0  0  0  0  0  0  0
   -8.3927    0.0205   -1.8227 H   0  0  0  0  0  0  0  0  0  0  0  0
   -7.7950    0.7513    1.5200 H   0  0  0  0  0  0  0  0  0  0  0  0
   -6.3063    0.9816    2.4709 H   0  0  0  0  0  0  0  0  0  0  0  0
   -6.0605    3.3264    1.5305 H   0  0  0  0  0  0  0  0  0  0  0  0
   -7.5687    3.0642    2.4641 H   0  0  0  0  0  0  0  0  0  0  0  0
   -7.2112    3.3133   -0.3275 H   0  0  0  0  0  0  0  0  0  0  0  0
   -4.1112    1.2723    1.3593 H   0  0  0  0  0  0  0  0  0  0  0  0
  1  2  1  0
  2  3  1  0
  2  4  1  0
  4  5  2  0
  4  6  1  0
  6  7  1  0
  7  8  1  0
  8  9  2  0
  9 10  1  0
 10 11  2  0
 11 12  1  0
 12 13  1  0
 13 14  1  0
 14 15  1  0
 15 16  1  0
 16 17  2  0
 14 18  1  0
 18 19  1  0
 19 20  1  0
 20 21  1  0
 20 22  1  0
 22 23  2  0
 23 24  1  0
 24 25  2  0
 25 26  1  0
 25 27  1  0
 27 28  1  0
 28 29  1  0
 29 30  1  0
 27 31  2  0
 17  8  1  0
 31 22  1  0
 16 11  1  0
  1 32  1  0
  1 33  1  0
  1 34  1  0
  3 35  1  0
  3 36  1  0
  3 37  1  0
  6 38  1  0
  6 39  1  0
  9 40  1  0
 10 41  1  0
 12 42  1  0
 12 43  1  0
 13 44  1  0
 13 45  1  0
 14 46  1  1
 15 47  1  0
 15 48  1  0
 17 49  1  0
 18 50  1  0
 19 51  1  0
 19 52  1  0
 20 53  1  6
 21 54  1  0
 23 55  1  0
 24 56  1  0
 26 57  1  0
 28 58  1  0
 28 59  1  0
 29 60  1  0
 29 61  1  0
 30 62  1  0
 31 63  1  0
M  END
$$$$
