
     RDKit          3D

 21 21  0  0  0  0  0  0  0  0999 V2000
    3.4658    0.8405    0.3969 C   0  0  0  0  0  0  0  0  0  0  0  0
    2.2921    0.0107    0.0019 C   0  0  0  0  0  0  0  0  0  0  0  0
    2.4767   -1.0655   -0.6285 O   0  0  0  0  0  0  0  0  0  0  0  0
    0.9999    0.4957    0.2411 O   0  0  0  0  0  0  0  0  0  0  0  0
   -0.1817   -0.2569    0.1438 C   0  0  0  0  0  0  0  0  0  0  0  0
   -0.1890   -1.6306    0.4570 C   0  0  0  0  0  0  0  0  0  0  0  0
   -1.3676   -2.3721    0.3740 C   0  0  0  0  0  0  0  0  0  0  0  0
   -2.5551   -1.7545   -0.0107 C   0  0  0  0  0  0  0  0  0  0  0  0
   -2.5712   -0.3906   -0.3060 C   0  0  0  0  0  0  0  0  0  0  0  0
   -1.3925    0.3781   -0.2288 C   0  0  0  0  0  0  0  0  0  0  0  0
   -1.4482    1.8290   -0.5506 C   0  0  0  0  0  0  0  0  0  0  0  0
   -0.2986    2.6140   -0.5256 O   0  0  0  0  0  0  0  0  0  0  0  0
   -2.5467    2.3690   -0.8542 O   0  0  0  0  0  0  0  0  0  0  0  0
    3.7598    1.4926   -0.4516 H   0  0  0  0  0  0  0  0  0  0  0  0
    4.3208    0.1874    0.6719 H   0  0  0  0  0  0  0  0  0  0  0  0
    3.2036    1.4740    1.2699 H   0  0  0  0  0  0  0  0  0  0  0  0
    0.7103   -2.1265    0.7958 H   0  0  0  0  0  0  0  0  0  0  0  0
   -1.3615   -3.4267    0.6179 H   0  0  0  0  0  0  0  0  0  0  0  0
   -3.4685   -2.3320   -0.0728 H   0  0  0  0  0  0  0  0  0  0  0  0
   -3.5112    0.0624   -0.5957 H   0  0  0  0  0  0  0  0  0  0  0  0
   -0.3373    3.6021   -0.7457 H   0  0  0  0  0  0  0  0  0  0  0  0
  1  2  1  0
  2  3  2  0
  2  4  1  0
  4  5  1  0
  5  6  2  0
  6  7  1  0
  7  8  2  0
  8  9  1  0
  9 10  2  0
 10 11  1  0
 11 12  1  0
 11 13  2  0
 10  5  1  0
  1 14  1  0
  1 15  1  0
  1 16  1  0
  6 17  1  0
  7 18  1  0
  8 19  1  0
  9 20  1  0
 12 21  1  0
M  END
$$$$
