
     RDKit          3D

 67 69  0  0  0  0  0  0  0  0999 V2000
   -0.7945    0.0240    3.8748 C   0  0  0  0  0  0  0  0  0  0  0  0
   -0.1451   -0.8302    2.7808 C   0  0  0  0  0  0  0  0  0  0  0  0
   -0.8607   -2.1791    2.6313 C   0  0  0  0  0  0  0  0  0  0  0  0
   -0.0944   -0.0939    1.5011 N   0  0  0  0  0  0  0  0  0  0  0  0
    1.2005    0.0902    0.8283 C   0  0  0  0  0  0  0  0  0  0  0  0
    1.6478   -1.2209    0.1677 C   0  0  0  0  0  0  0  0  0  0  0  0
    2.8909   -1.0454   -0.7181 C   0  0  0  0  0  0  0  0  0  0  0  0
    4.1645   -0.7731    0.0939 C   0  0  0  0  0  0  0  0  0  0  0  0
    5.2996   -0.8277   -0.7500 O   0  0  0  0  0  0  0  0  0  0  0  0
    5.6549    0.4663   -1.1892 C   0  0  0  0  0  0  0  0  0  0  0  0
    6.7667    0.3507   -2.1814 C   0  0  0  0  0  0  0  0  0  0  0  0
    6.5108    0.4149   -3.4142 O   0  0  0  0  0  0  0  0  0  0  0  0
    8.1066    0.1223   -1.7326 N   0  0  0  0  0  0  0  0  0  0  0  0
    9.4242   -0.0404   -2.8448 S   0  0  0  0  0  6  0  0  0  0  0  0
   10.9312   -0.3006   -1.9368 C   0  0  0  0  0  0  0  0  0  0  0  0
    9.1829   -1.2173   -3.7474 O   0  0  0  0  0  0  0  0  0  0  0  0
    9.5529    1.2125   -3.6645 O   0  0  0  0  0  0  0  0  0  0  0  0
   -1.2897    0.4496    0.9053 C   0  0  0  0  0  0  0  0  0  0  0  0
   -2.3726   -0.3430    0.6983 N   0  0  0  0  0  0  0  0  0  0  0  0
   -3.5245    0.1258    0.1474 C   0  0  0  0  0  0  0  0  0  0  0  0
   -4.6186   -0.8382   -0.1047 C   0  0  0  0  0  0  0  0  0  0  0  0
   -5.2462   -0.9090   -1.3616 C   0  0  0  0  0  0  0  0  0  0  0  0
   -6.2674   -1.8365   -1.5883 C   0  0  0  0  0  0  0  0  0  0  0  0
   -6.6590   -2.7099   -0.5704 C   0  0  0  0  0  0  0  0  0  0  0  0
   -6.0256   -2.6616    0.6741 C   0  0  0  0  0  0  0  0  0  0  0  0
   -5.0046   -1.7347    0.9057 C   0  0  0  0  0  0  0  0  0  0  0  0
   -3.6042    1.4987   -0.1936 C   0  0  0  0  0  0  0  0  0  0  0  0
   -2.5105    2.2840    0.0042 N   0  0  0  0  0  0  0  0  0  0  0  0
   -1.3613    1.7967    0.5358 C   0  0  0  0  0  0  0  0  0  0  0  0
   -4.8381    2.1353   -0.7064 C   0  0  0  0  0  0  0  0  0  0  0  0
   -4.7733    2.9837   -1.8242 C   0  0  0  0  0  0  0  0  0  0  0  0
   -5.9304    3.6011   -2.3093 C   0  0  0  0  0  0  0  0  0  0  0  0
   -7.1570    3.3878   -1.6750 C   0  0  0  0  0  0  0  0  0  0  0  0
   -7.2276    2.5627   -0.5497 C   0  0  0  0  0  0  0  0  0  0  0  0
   -6.0731    1.9441   -0.0606 C   0  0  0  0  0  0  0  0  0  0  0  0
   -1.8602    0.2293    3.6374 H   0  0  0  0  0  0  0  0  0  0  0  0
   -0.2552    0.9906    3.9668 H   0  0  0  0  0  0  0  0  0  0  0  0
   -0.7421   -0.5027    4.8515 H   0  0  0  0  0  0  0  0  0  0  0  0
    0.8924   -1.0529    3.1179 H   0  0  0  0  0  0  0  0  0  0  0  0
   -0.6676   -2.8066    3.5274 H   0  0  0  0  0  0  0  0  0  0  0  0
   -1.9583   -2.0505    2.5370 H   0  0  0  0  0  0  0  0  0  0  0  0
   -0.4807   -2.7198    1.7394 H   0  0  0  0  0  0  0  0  0  0  0  0
    1.9543    0.4273    1.5709 H   0  0  0  0  0  0  0  0  0  0  0  0
    1.1302    0.8791    0.0488 H   0  0  0  0  0  0  0  0  0  0  0  0
    0.8180   -1.5952   -0.4710 H   0  0  0  0  0  0  0  0  0  0  0  0
    1.8474   -1.9900    0.9449 H   0  0  0  0  0  0  0  0  0  0  0  0
    3.0378   -1.9820   -1.2991 H   0  0  0  0  0  0  0  0  0  0  0  0
    2.7202   -0.2244   -1.4471 H   0  0  0  0  0  0  0  0  0  0  0  0
    4.0804    0.1874    0.6541 H   0  0  0  0  0  0  0  0  0  0  0  0
    4.2767   -1.5723    0.8572 H   0  0  0  0  0  0  0  0  0  0  0  0
    4.7928    0.9815   -1.6712 H   0  0  0  0  0  0  0  0  0  0  0  0
    6.0095    1.0827   -0.3327 H   0  0  0  0  0  0  0  0  0  0  0  0
    8.3037    0.0461   -0.7099 H   0  0  0  0  0  0  0  0  0  0  0  0
   10.8427   -1.2241   -1.3284 H   0  0  0  0  0  0  0  0  0  0  0  0
   11.7790   -0.4053   -2.6450 H   0  0  0  0  0  0  0  0  0  0  0  0
   11.1147    0.5648   -1.2672 H   0  0  0  0  0  0  0  0  0  0  0  0
   -4.9404   -0.2543   -2.1680 H   0  0  0  0  0  0  0  0  0  0  0  0
   -6.7510   -1.8822   -2.5554 H   0  0  0  0  0  0  0  0  0  0  0  0
   -7.4489   -3.4283   -0.7480 H   0  0  0  0  0  0  0  0  0  0  0  0
   -6.3254   -3.3428    1.4599 H   0  0  0  0  0  0  0  0  0  0  0  0
   -4.5250   -1.7069    1.8765 H   0  0  0  0  0  0  0  0  0  0  0  0
   -0.5241    2.4625    0.6971 H   0  0  0  0  0  0  0  0  0  0  0  0
   -3.8300    3.1563   -2.3278 H   0  0  0  0  0  0  0  0  0  0  0  0
   -5.8758    4.2456   -3.1772 H   0  0  0  0  0  0  0  0  0  0  0  0
   -8.0515    3.8668   -2.0517 H   0  0  0  0  0  0  0  0  0  0  0  0
   -8.1762    2.4067   -0.0525 H   0  0  0  0  0  0  0  0  0  0  0  0
   -6.1420    1.3246    0.8248 H   0  0  0  0  0  0  0  0  0  0  0  0
  1  2  1  0
  2  3  1  0
  2  4  1  0
  4  5  1  0
  5  6  1  0
  6  7  1  0
  7  8  1  0
  8  9  1  0
  9 10  1  0
 10 11  1  0
 11 12  2  0
 11 13  1  0
 13 14  1  0
 14 15  1  0
 14 16  2  0
 14 17  2  0
  4 18  1  0
 18 19  2  0
 19 20  1  0
 20 21  1  0
 21 22  2  0
 22 23  1  0
 23 24  2  0
 24 25  1  0
 25 26  2  0
 20 27  2  0
 27 28  1  0
 28 29  2  0
 27 30  1  0
 30 31  2  0
 31 32  1  0
 32 33  2  0
 33 34  1  0
 34 35  2  0
 29 18  1  0
 35 30  1  0
 26 21  1  0
  1 36  1  0
  1 37  1  0
  1 38  1  0
  2 39  1  0
  3 40  1  0
  3 41  1  0
  3 42  1  0
  5 43  1  0
  5 44  1  0
  6 45  1  0
  6 46  1  0
  7 47  1  0
  7 48  1  0
  8 49  1  0
  8 50  1  0
 10 51  1  0
 10 52  1  0
 13 53  1  0
 15 54  1  0
 15 55  1  0
 15 56  1  0
 22 57  1  0
 23 58  1  0
 24 59  1  0
 25 60  1  0
 26 61  1  0
 29 62  1  0
 31 63  1  0
 32 64  1  0
 33 65  1  0
 34 66  1  0
 35 67  1  0
M  END
$$$$
