
     RDKit          3D

 49 52  0  0  0  0  0  0  0  0999 V2000
    6.9207   -1.7328   -0.8745 C   0  0  0  0  0  0  0  0  0  0  0  0
    6.1427   -0.8897   -1.7178 O   0  0  0  0  0  0  0  0  0  0  0  0
    4.8683   -0.4024   -1.3916 C   0  0  0  0  0  0  0  0  0  0  0  0
    4.2327   -0.7060   -0.1726 C   0  0  0  0  0  0  0  0  0  0  0  0
    2.9603   -0.1974    0.1045 C   0  0  0  0  0  0  0  0  0  0  0  0
    2.2959    0.6072   -0.8365 C   0  0  0  0  0  0  0  0  0  0  0  0
    1.0016    1.1639   -0.5582 N   0  0  0  0  0  0  0  0  0  0  0  0
   -0.0124    0.4802    0.1981 C   0  0  0  0  0  0  0  0  0  0  0  0
   -0.9589    1.0652    0.9405 C   0  0  0  0  0  0  0  0  0  0  0  0
   -1.7273   -0.0008    1.5889 C   0  0  0  0  0  0  0  0  0  0  0  0
   -2.7176    0.1756    2.3474 O   0  0  0  0  0  0  0  0  0  0  0  0
   -1.2292   -1.2830    1.2204 N   0  0  0  0  0  0  0  0  0  0  0  0
   -1.9491   -2.5508    1.3117 C   0  0  0  0  0  0  0  0  0  0  0  0
   -2.9432   -2.6677    0.1880 C   0  0  0  0  0  0  0  0  0  0  0  0
   -4.2425   -2.1539    0.3350 C   0  0  0  0  0  0  0  0  0  0  0  0
   -5.1523   -2.2258   -0.7244 C   0  0  0  0  0  0  0  0  0  0  0  0
   -4.7699   -2.8030   -1.9384 C   0  0  0  0  0  0  0  0  0  0  0  0
   -3.4761   -3.3074   -2.0956 C   0  0  0  0  0  0  0  0  0  0  0  0
   -2.5632   -3.2374   -1.0387 C   0  0  0  0  0  0  0  0  0  0  0  0
   -0.1773   -0.9724    0.3134 C   0  0  0  0  0  0  0  0  0  0  0  0
    0.4634   -1.8378   -0.3403 O   0  0  0  0  0  0  0  0  0  0  0  0
   -1.1759    2.5120    1.1326 C   0  0  0  0  0  0  0  0  0  0  0  0
   -1.3917    3.3582    0.0321 C   0  0  0  0  0  0  0  0  0  0  0  0
   -1.6191    4.7239    0.2282 C   0  0  0  0  0  0  0  0  0  0  0  0
   -1.6448    5.2511    1.5222 C   0  0  0  0  0  0  0  0  0  0  0  0
   -1.4504    4.4119    2.6226 C   0  0  0  0  0  0  0  0  0  0  0  0
   -1.2231    3.0455    2.4305 C   0  0  0  0  0  0  0  0  0  0  0  0
    2.9414    0.9278   -2.0384 C   0  0  0  0  0  0  0  0  0  0  0  0
    4.2134    0.4193   -2.3160 C   0  0  0  0  0  0  0  0  0  0  0  0
    7.1415   -1.2159    0.0832 H   0  0  0  0  0  0  0  0  0  0  0  0
    7.8794   -1.9668   -1.3809 H   0  0  0  0  0  0  0  0  0  0  0  0
    6.3796   -2.6830   -0.6806 H   0  0  0  0  0  0  0  0  0  0  0  0
    4.7155   -1.3269    0.5695 H   0  0  0  0  0  0  0  0  0  0  0  0
    2.5017   -0.4196    1.0594 H   0  0  0  0  0  0  0  0  0  0  0  0
    0.7921    2.1099   -0.9449 H   0  0  0  0  0  0  0  0  0  0  0  0
   -2.4680   -2.6136    2.2927 H   0  0  0  0  0  0  0  0  0  0  0  0
   -1.2243   -3.3928    1.2749 H   0  0  0  0  0  0  0  0  0  0  0  0
   -4.5503   -1.6981    1.2676 H   0  0  0  0  0  0  0  0  0  0  0  0
   -6.1531   -1.8312   -0.6052 H   0  0  0  0  0  0  0  0  0  0  0  0
   -5.4749   -2.8567   -2.7579 H   0  0  0  0  0  0  0  0  0  0  0  0
   -3.1794   -3.7499   -3.0377 H   0  0  0  0  0  0  0  0  0  0  0  0
   -1.5622   -3.6262   -1.1768 H   0  0  0  0  0  0  0  0  0  0  0  0
   -1.4051    2.9594   -0.9746 H   0  0  0  0  0  0  0  0  0  0  0  0
   -1.7832    5.3723   -0.6228 H   0  0  0  0  0  0  0  0  0  0  0  0
   -1.8224    6.3082    1.6725 H   0  0  0  0  0  0  0  0  0  0  0  0
   -1.4771    4.8198    3.6248 H   0  0  0  0  0  0  0  0  0  0  0  0
   -1.0732    2.4063    3.2920 H   0  0  0  0  0  0  0  0  0  0  0  0
    2.4527    1.5646   -2.7653 H   0  0  0  0  0  0  0  0  0  0  0  0
    4.6943    0.6668   -3.2539 H   0  0  0  0  0  0  0  0  0  0  0  0
  1  2  1  0
  2  3  1  0
  3  4  2  0
  4  5  1  0
  5  6  2  0
  6  7  1  0
  7  8  1  0
  8  9  2  0
  9 10  1  0
 10 11  2  0
 10 12  1  0
 12 13  1  0
 13 14  1  0
 14 15  2  0
 15 16  1  0
 16 17  2  0
 17 18  1  0
 18 19  2  0
 12 20  1  0
 20 21  2  0
  9 22  1  0
 22 23  2  0
 23 24  1  0
 24 25  2  0
 25 26  1  0
 26 27  2  0
  6 28  1  0
 28 29  2  0
 29  3  1  0
 20  8  1  0
 27 22  1  0
 19 14  1  0
  1 30  1  0
  1 31  1  0
  1 32  1  0
  4 33  1  0
  5 34  1  0
  7 35  1  0
 13 36  1  0
 13 37  1  0
 15 38  1  0
 16 39  1  0
 17 40  1  0
 18 41  1  0
 19 42  1  0
 23 43  1  0
 24 44  1  0
 25 45  1  0
 26 46  1  0
 27 47  1  0
 28 48  1  0
 29 49  1  0
M  END
$$$$
