
     RDKit          3D

 75 78  0  0  0  0  0  0  0  0999 V2000
   -2.8718    2.0833    2.0615 C   0  0  0  0  0  0  0  0  0  0  0  0
   -2.8302    0.7134    1.4688 C   0  0  0  0  0  0  0  0  0  0  0  0
   -2.5372   -0.2712    2.2000 O   0  0  0  0  0  0  0  0  0  0  0  0
   -3.1884    0.5186    0.0932 N   0  0  0  0  0  0  0  0  0  0  0  0
   -3.1194   -0.7635   -0.5559 C   0  0  0  0  0  0  0  0  0  0  0  0
   -4.1278   -1.1876   -1.3432 C   0  0  0  0  0  0  0  0  0  0  0  0
   -5.4181   -0.4788   -1.5015 C   0  0  0  0  0  0  0  0  0  0  0  0
   -6.0027   -0.4087   -2.7690 C   0  0  0  0  0  0  0  0  0  0  0  0
   -7.2278    0.2323   -2.9475 C   0  0  0  0  0  0  0  0  0  0  0  0
   -7.9045    0.8119   -1.8602 C   0  0  0  0  0  0  0  0  0  0  0  0
   -9.2315    1.4880   -2.1225 C   0  0  0  0  0  0  0  0  0  0  0  0
  -10.3645    0.5655   -1.7977 C   0  0  0  0  0  0  0  0  0  0  0  0
  -10.5223   -0.6168   -2.5145 O   0  0  0  0  0  0  0  0  0  0  0  0
  -11.1781    0.8588   -0.8814 O   0  0  0  0  0  0  0  0  0  0  0  0
   -7.3444    0.7049   -0.5590 C   0  0  0  0  0  0  0  0  0  0  0  0
   -8.0326    1.2475    0.6383 C   0  0  0  0  0  0  0  0  0  0  0  0
   -7.4900    1.2015    1.7746 O   0  0  0  0  0  0  0  0  0  0  0  0
   -6.1062    0.0529   -0.3987 C   0  0  0  0  0  0  0  0  0  0  0  0
   -1.8840   -1.5777   -0.4400 C   0  0  0  0  0  0  0  0  0  0  0  0
   -1.9242   -2.8176   -0.6721 O   0  0  0  0  0  0  0  0  0  0  0  0
   -0.6407   -0.9571   -0.0754 N   0  0  0  0  0  0  0  0  0  0  0  0
    0.5866   -1.7218    0.1755 C   0  0  1  0  0  0  0  0  0  0  0  0
    1.4658   -1.7143   -1.0934 C   0  0  0  0  0  0  0  0  0  0  0  0
    2.9615   -2.0019   -0.8601 C   0  0  0  0  0  0  0  0  0  0  0  0
    3.2429   -3.2735   -0.0399 C   0  0  0  0  0  0  0  0  0  0  0  0
    2.7816   -3.2444    1.4381 C   0  0  0  0  0  0  0  0  0  0  0  0
    2.4595   -1.8904    1.9222 N   0  0  0  0  0  0  0  0  0  0  0  0
    3.3133   -1.2616    2.9402 C   0  0  0  0  0  0  0  0  0  0  0  0
    4.3792   -0.4362    2.2742 C   0  0  0  0  0  0  0  0  0  0  0  0
    5.5579   -1.0444    1.8186 C   0  0  0  0  0  0  0  0  0  0  0  0
    6.5224   -0.2957    1.1393 C   0  0  0  0  0  0  0  0  0  0  0  0
    6.3218    1.0750    0.8964 C   0  0  0  0  0  0  0  0  0  0  0  0
    5.1352    1.6789    1.3497 C   0  0  0  0  0  0  0  0  0  0  0  0
    4.1716    0.9288    2.0291 C   0  0  0  0  0  0  0  0  0  0  0  0
    7.3432    1.8696    0.1677 C   0  0  0  0  0  0  0  0  0  0  0  0
    8.7148    1.6753    0.4194 C   0  0  0  0  0  0  0  0  0  0  0  0
    9.6743    2.4246   -0.2685 C   0  0  0  0  0  0  0  0  0  0  0  0
    9.2776    3.3730   -1.2138 C   0  0  0  0  0  0  0  0  0  0  0  0
    7.9202    3.5746   -1.4732 C   0  0  0  0  0  0  0  0  0  0  0  0
    6.9563    2.8289   -0.7876 C   0  0  0  0  0  0  0  0  0  0  0  0
    1.3274   -1.1747    1.3774 C   0  0  0  0  0  0  0  0  0  0  0  0
    0.9768   -0.0724    1.8824 O   0  0  0  0  0  0  0  0  0  0  0  0
   -2.2984    2.1125    3.0123 H   0  0  0  0  0  0  0  0  0  0  0  0
   -3.9261    2.3661    2.2622 H   0  0  0  0  0  0  0  0  0  0  0  0
   -2.4254    2.8130    1.3539 H   0  0  0  0  0  0  0  0  0  0  0  0
   -3.5924    1.3276   -0.4314 H   0  0  0  0  0  0  0  0  0  0  0  0
   -3.9933   -2.0860   -1.9352 H   0  0  0  0  0  0  0  0  0  0  0  0
   -5.5028   -0.8421   -3.6270 H   0  0  0  0  0  0  0  0  0  0  0  0
   -7.6509    0.2768   -3.9438 H   0  0  0  0  0  0  0  0  0  0  0  0
   -9.3103    2.4337   -1.5457 H   0  0  0  0  0  0  0  0  0  0  0  0
   -9.3162    1.7802   -3.1916 H   0  0  0  0  0  0  0  0  0  0  0  0
  -11.2836   -1.2521   -2.3075 H   0  0  0  0  0  0  0  0  0  0  0  0
   -9.0137    1.6914    0.5664 H   0  0  0  0  0  0  0  0  0  0  0  0
   -5.6856   -0.0648    0.5922 H   0  0  0  0  0  0  0  0  0  0  0  0
   -0.5697    0.0839   -0.1425 H   0  0  0  0  0  0  0  0  0  0  0  0
    0.3118   -2.7722    0.4062 H   0  0  0  0  0  0  0  0  0  0  0  0
    1.0605   -2.4614   -1.8104 H   0  0  0  0  0  0  0  0  0  0  0  0
    1.3928   -0.7194   -1.5856 H   0  0  0  0  0  0  0  0  0  0  0  0
    3.4478   -1.1241   -0.3835 H   0  0  0  0  0  0  0  0  0  0  0  0
    3.4452   -2.1177   -1.8543 H   0  0  0  0  0  0  0  0  0  0  0  0
    4.3422   -3.4406   -0.0571 H   0  0  0  0  0  0  0  0  0  0  0  0
    2.7808   -4.1464   -0.5504 H   0  0  0  0  0  0  0  0  0  0  0  0
    3.5799   -3.7034    2.0612 H   0  0  0  0  0  0  0  0  0  0  0  0
    1.8958   -3.9011    1.5717 H   0  0  0  0  0  0  0  0  0  0  0  0
    3.7877   -2.0341    3.5839 H   0  0  0  0  0  0  0  0  0  0  0  0
    2.7038   -0.6372    3.6292 H   0  0  0  0  0  0  0  0  0  0  0  0
    5.7246   -2.1024    1.9781 H   0  0  0  0  0  0  0  0  0  0  0  0
    7.4147   -0.7947    0.7828 H   0  0  0  0  0  0  0  0  0  0  0  0
    4.9572    2.7349    1.1897 H   0  0  0  0  0  0  0  0  0  0  0  0
    3.2629    1.4140    2.3623 H   0  0  0  0  0  0  0  0  0  0  0  0
    9.0444    0.9573    1.1598 H   0  0  0  0  0  0  0  0  0  0  0  0
   10.7265    2.2717   -0.0658 H   0  0  0  0  0  0  0  0  0  0  0  0
   10.0220    3.9515   -1.7454 H   0  0  0  0  0  0  0  0  0  0  0  0
    7.6141    4.3071   -2.2089 H   0  0  0  0  0  0  0  0  0  0  0  0
    5.9104    2.9895   -1.0173 H   0  0  0  0  0  0  0  0  0  0  0  0
  1  2  1  0
  2  3  2  0
  2  4  1  0
  4  5  1  0
  5  6  2  0
  6  7  1  0
  7  8  2  0
  8  9  1  0
  9 10  2  0
 10 11  1  0
 11 12  1  0
 12 13  1  0
 12 14  2  0
 10 15  1  0
 15 16  1  0
 16 17  2  0
 15 18  2  0
  5 19  1  0
 19 20  2  0
 19 21  1  0
 21 22  1  0
 22 23  1  0
 23 24  1  0
 24 25  1  0
 25 26  1  0
 26 27  1  0
 27 28  1  0
 28 29  1  0
 29 30  2  0
 30 31  1  0
 31 32  2  0
 32 33  1  0
 33 34  2  0
 32 35  1  0
 35 36  2  0
 36 37  1  0
 37 38  2  0
 38 39  1  0
 39 40  2  0
 27 41  1  0
 41 42  2  0
 18  7  1  0
 41 22  1  0
 34 29  1  0
 40 35  1  0
  1 43  1  0
  1 44  1  0
  1 45  1  0
  4 46  1  0
  6 47  1  0
  8 48  1  0
  9 49  1  0
 11 50  1  0
 11 51  1  0
 13 52  1  0
 16 53  1  0
 18 54  1  0
 21 55  1  0
 22 56  1  1
 23 57  1  0
 23 58  1  0
 24 59  1  0
 24 60  1  0
 25 61  1  0
 25 62  1  0
 26 63  1  0
 26 64  1  0
 28 65  1  0
 28 66  1  0
 30 67  1  0
 31 68  1  0
 33 69  1  0
 34 70  1  0
 36 71  1  0
 37 72  1  0
 38 73  1  0
 39 74  1  0
 40 75  1  0
M  END
$$$$
