
     RDKit          3D

 38 40  0  0  0  0  0  0  0  0999 V2000
    4.0776    2.4941   -0.0629 C   0  0  0  0  0  0  0  0  0  0  0  0
    2.5984    2.2789   -0.0213 C   0  0  0  0  0  0  0  0  0  0  0  0
    1.6303    3.2061   -0.3567 C   0  0  0  0  0  0  0  0  0  0  0  0
    0.4067    2.6735   -0.1815 N   0  0  0  0  0  0  0  0  0  0  0  0
    0.5809    1.4102    0.2572 C   0  0  0  0  0  0  0  0  0  0  0  0
   -0.5181    0.4998    0.6236 C   0  0  0  0  0  0  0  0  0  0  0  0
   -1.6087    0.3045   -0.1308 C   0  0  0  0  0  0  0  0  0  0  0  0
   -1.9131    0.7895   -1.4880 C   0  0  0  0  0  0  0  0  0  0  0  0
   -1.1493    1.4724   -2.2194 O   0  0  0  0  0  0  0  0  0  0  0  0
   -3.1761    0.2995   -1.9296 N   0  0  0  0  0  0  0  0  0  0  0  0
   -3.6423   -0.5165   -0.8620 C   0  0  0  0  0  0  0  0  0  0  0  0
   -4.8345   -1.2386   -0.8340 C   0  0  0  0  0  0  0  0  0  0  0  0
   -5.1245   -2.0006    0.3101 C   0  0  0  0  0  0  0  0  0  0  0  0
   -4.2253   -2.0286    1.3955 C   0  0  0  0  0  0  0  0  0  0  0  0
   -3.0273   -1.2956    1.3470 C   0  0  0  0  0  0  0  0  0  0  0  0
   -2.7567   -0.5446    0.2000 C   0  0  0  0  0  0  0  0  0  0  0  0
    1.9326    1.1409    0.4050 C   0  0  0  0  0  0  0  0  0  0  0  0
    2.5532   -0.1616    0.8281 C   0  0  0  0  0  0  0  0  0  0  0  0
    2.6261   -1.1281   -0.3553 C   0  0  0  0  0  0  0  0  0  0  0  0
    3.2315   -2.4282    0.0683 C   0  0  0  0  0  0  0  0  0  0  0  0
    2.4207   -3.4338    0.5850 O   0  0  0  0  0  0  0  0  0  0  0  0
    4.4779   -2.5983   -0.0046 O   0  0  0  0  0  0  0  0  0  0  0  0
    4.5657    1.6495   -0.5926 H   0  0  0  0  0  0  0  0  0  0  0  0
    4.3177    3.4366   -0.5988 H   0  0  0  0  0  0  0  0  0  0  0  0
    4.4727    2.5559    0.9724 H   0  0  0  0  0  0  0  0  0  0  0  0
    1.8085    4.2168   -0.7005 H   0  0  0  0  0  0  0  0  0  0  0  0
   -0.5021    3.1669   -0.3270 H   0  0  0  0  0  0  0  0  0  0  0  0
   -0.4179   -0.0520    1.5486 H   0  0  0  0  0  0  0  0  0  0  0  0
   -3.6280    0.4528   -2.8583 H   0  0  0  0  0  0  0  0  0  0  0  0
   -5.5192   -1.2135   -1.6717 H   0  0  0  0  0  0  0  0  0  0  0  0
   -6.0437   -2.5698    0.3581 H   0  0  0  0  0  0  0  0  0  0  0  0
   -4.4589   -2.6187    2.2721 H   0  0  0  0  0  0  0  0  0  0  0  0
   -2.3385   -1.3174    2.1806 H   0  0  0  0  0  0  0  0  0  0  0  0
    1.9504   -0.6106    1.6465 H   0  0  0  0  0  0  0  0  0  0  0  0
    3.5741    0.0225    1.2275 H   0  0  0  0  0  0  0  0  0  0  0  0
    1.6048   -1.3173   -0.7519 H   0  0  0  0  0  0  0  0  0  0  0  0
    3.2376   -0.6823   -1.1704 H   0  0  0  0  0  0  0  0  0  0  0  0
    2.8169   -4.3142    0.8918 H   0  0  0  0  0  0  0  0  0  0  0  0
  1  2  1  0
  2  3  2  0
  3  4  1  0
  4  5  1  0
  5  6  1  0
  6  7  2  0
  7  8  1  0
  8  9  2  0
  8 10  1  0
 10 11  1  0
 11 12  2  0
 12 13  1  0
 13 14  2  0
 14 15  1  0
 15 16  2  0
  5 17  2  0
 17 18  1  0
 18 19  1  0
 19 20  1  0
 20 21  1  0
 20 22  2  0
 17  2  1  0
 16  7  1  0
 16 11  1  0
  1 23  1  0
  1 24  1  0
  1 25  1  0
  3 26  1  0
  4 27  1  0
  6 28  1  0
 10 29  1  0
 12 30  1  0
 13 31  1  0
 14 32  1  0
 15 33  1  0
 18 34  1  0
 18 35  1  0
 19 36  1  0
 19 37  1  0
 21 38  1  0
M  END
$$$$
