
     RDKit          3D

 38 38  0  0  0  0  0  0  0  0999 V2000
   -3.1699    0.2649    0.3669 C   0  0  1  0  0  0  0  0  0  0  0  0
   -2.8491    0.9503   -0.9714 C   0  0  0  0  0  0  0  0  0  0  0  0
   -3.2269   -1.2702    0.1490 C   0  0  0  0  0  0  0  0  0  0  0  0
   -3.7490   -2.0465    1.3574 C   0  0  0  0  0  0  0  0  0  0  0  0
   -2.1643    0.7327    1.4649 C   0  0  2  0  0  0  0  0  0  0  0  0
   -0.8517    0.0962    1.2880 N   0  0  0  0  0  0  0  0  0  0  0  0
    0.2303    0.7245    0.5861 C   0  0  0  0  0  0  0  0  0  0  0  0
    0.1631    1.9391    0.2561 O   0  0  0  0  0  0  0  0  0  0  0  0
    1.4659   -0.0519    0.2669 C   0  0  1  0  0  0  0  0  0  0  0  0
    1.1557   -1.2605   -0.3885 O   0  0  0  0  0  0  0  0  0  0  0  0
    1.7375   -0.2485   -1.1769 C   0  0  2  0  0  0  0  0  0  0  0  0
    3.1496   -0.5794   -1.5239 C   0  0  0  0  0  0  0  0  0  0  0  0
    3.4065   -1.6459   -2.1458 O   0  0  0  0  0  0  0  0  0  0  0  0
    4.1691    0.3130   -1.1821 O   0  0  0  0  0  0  0  0  0  0  0  0
    5.5381    0.0659   -1.4841 C   0  0  0  0  0  0  0  0  0  0  0  0
    6.3881    1.2189   -0.9750 C   0  0  0  0  0  0  0  0  0  0  0  0
   -2.6901    0.5033    2.8608 C   0  0  0  0  0  0  0  0  0  0  0  0
   -3.9681    0.9398    3.1981 O   0  0  0  0  0  0  0  0  0  0  0  0
   -1.9649   -0.0324    3.7428 O   0  0  0  0  0  0  0  0  0  0  0  0
   -4.1898    0.6097    0.6489 H   0  0  0  0  0  0  0  0  0  0  0  0
   -1.8662    0.6124   -1.3632 H   0  0  0  0  0  0  0  0  0  0  0  0
   -3.6299    0.7087   -1.7240 H   0  0  0  0  0  0  0  0  0  0  0  0
   -2.8291    2.0543   -0.8497 H   0  0  0  0  0  0  0  0  0  0  0  0
   -3.9160   -1.4825   -0.6981 H   0  0  0  0  0  0  0  0  0  0  0  0
   -2.2297   -1.6648   -0.1417 H   0  0  0  0  0  0  0  0  0  0  0  0
   -2.9853   -2.0820    2.1602 H   0  0  0  0  0  0  0  0  0  0  0  0
   -4.6836   -1.5880    1.7444 H   0  0  0  0  0  0  0  0  0  0  0  0
   -3.9690   -3.0925    1.0562 H   0  0  0  0  0  0  0  0  0  0  0  0
   -2.0513    1.8363    1.3876 H   0  0  0  0  0  0  0  0  0  0  0  0
   -0.7317   -0.8994    1.5840 H   0  0  0  0  0  0  0  0  0  0  0  0
    2.2742   -0.1820    1.0176 H   0  0  0  0  0  0  0  0  0  0  0  0
    1.0317    0.1401   -1.9417 H   0  0  0  0  0  0  0  0  0  0  0  0
    5.8664   -0.8765   -0.9943 H   0  0  0  0  0  0  0  0  0  0  0  0
    5.6688   -0.0292   -2.5840 H   0  0  0  0  0  0  0  0  0  0  0  0
    7.4568    1.0287   -1.2086 H   0  0  0  0  0  0  0  0  0  0  0  0
    6.2712    1.3194    0.1249 H   0  0  0  0  0  0  0  0  0  0  0  0
    6.0746    2.1658   -1.4635 H   0  0  0  0  0  0  0  0  0  0  0  0
   -4.3321    0.8085    4.1342 H   0  0  0  0  0  0  0  0  0  0  0  0
  1  2  1  0
  1  3  1  0
  3  4  1  0
  1  5  1  0
  5  6  1  0
  6  7  1  0
  7  8  2  0
  7  9  1  0
  9 10  1  0
 10 11  1  0
 11 12  1  0
 12 13  2  0
 12 14  1  0
 14 15  1  0
 15 16  1  0
  5 17  1  0
 17 18  1  0
 17 19  2  0
 11  9  1  0
  1 20  1  1
  2 21  1  0
  2 22  1  0
  2 23  1  0
  3 24  1  0
  3 25  1  0
  4 26  1  0
  4 27  1  0
  4 28  1  0
  5 29  1  6
  6 30  1  0
  9 31  1  1
 11 32  1  6
 15 33  1  0
 15 34  1  0
 16 35  1  0
 16 36  1  0
 16 37  1  0
 18 38  1  0
M  END
$$$$
