
     RDKit          3D

 79 82  0  0  0  0  0  0  0  0999 V2000
   -3.9156   -1.9274   -1.0880 C   0  0  0  0  0  0  0  0  0  0  0  0
   -3.6077   -1.7945    0.4127 C   0  0  1  0  0  0  0  0  0  0  0  0
   -2.0863   -1.8616    0.7051 C   0  0  0  0  0  0  0  0  0  0  0  0
   -1.5288   -3.2969    0.6487 C   0  0  0  0  0  0  0  0  0  0  0  0
   -0.0226   -3.3564    0.9862 C   0  0  0  0  0  0  0  0  0  0  0  0
    0.8852   -3.3777   -0.2667 C   0  0  1  0  0  0  0  0  0  0  0  0
    1.1453   -4.7271   -0.9388 C   0  0  0  0  0  0  0  0  0  0  0  0
    0.5458   -2.3907   -1.2148 O   0  0  0  0  0  0  0  0  0  0  0  0
    1.8128   -2.2530   -0.6082 C   0  0  1  0  0  0  0  0  0  0  0  0
    1.8659   -0.9835    0.2569 C   0  0  0  0  0  0  0  0  0  0  0  0
    2.4519    0.2396   -0.4957 C   0  0  2  0  0  0  0  0  0  0  0  0
    2.1685    0.1812   -1.9022 O   0  0  0  0  0  0  0  0  0  0  0  0
    1.3062    1.0145   -2.6363 C   0  0  0  0  0  0  0  0  0  0  0  0
    1.3095    0.9076   -3.8910 O   0  0  0  0  0  0  0  0  0  0  0  0
    0.3318    1.9806   -2.0063 C   0  0  0  0  0  0  0  0  0  0  0  0
   -0.8198    1.2321   -1.2973 C   0  0  2  0  0  0  0  0  0  0  0  0
   -1.4127    0.3226   -2.1938 O   0  0  0  0  0  0  0  0  0  0  0  0
   -1.9334    2.1374   -0.6636 C   0  0  0  0  0  0  0  0  0  0  0  0
   -2.8977    2.6454   -1.7682 C   0  0  0  0  0  0  0  0  0  0  0  0
   -1.3251    3.3864    0.0225 C   0  0  0  0  0  0  0  0  0  0  0  0
   -2.6422    1.3166    0.4385 C   0  0  0  0  0  0  0  0  0  0  0  0
   -2.0159    1.0916    1.4665 O   0  0  0  0  0  0  0  0  0  0  0  0
   -4.0902    0.8331    0.3754 C   0  0  2  0  0  0  0  0  0  0  0  0
   -5.0172    1.9147    0.9942 C   0  0  0  0  0  0  0  0  0  0  0  0
   -4.7725    2.1360    2.4667 C   0  0  0  0  0  0  0  0  0  0  0  0
   -5.5957    1.6521    3.4012 C   0  0  0  0  0  0  0  0  0  0  0  0
   -4.3188   -0.5611    1.0632 C   0  0  1  0  0  0  0  0  0  0  0  0
   -5.7023   -0.8227    1.0902 O   0  0  0  0  0  0  0  0  0  0  0  0
    3.9497    0.3122   -0.2898 C   0  0  0  0  0  0  0  0  0  0  0  0
    4.8373   -0.4008   -1.1356 C   0  0  0  0  0  0  0  0  0  0  0  0
    6.2225   -0.3631   -0.9155 C   0  0  0  0  0  0  0  0  0  0  0  0
    6.6970    0.3831    0.1572 C   0  0  0  0  0  0  0  0  0  0  0  0
    8.2816    0.5970    0.6665 S   0  0  0  0  0  0  0  0  0  0  0  0
    7.8057    1.5918    1.9523 C   0  0  0  0  0  0  0  0  0  0  0  0
    8.7394    2.1584    2.9664 C   0  0  0  0  0  0  0  0  0  0  0  0
    6.4603    1.7457    2.0141 N   0  0  0  0  0  0  0  0  0  0  0  0
    5.8489    1.0758    1.0039 C   0  0  0  0  0  0  0  0  0  0  0  0
    4.4693    1.0473    0.7998 C   0  0  0  0  0  0  0  0  0  0  0  0
   -5.0095   -1.8571   -1.2654 H   0  0  0  0  0  0  0  0  0  0  0  0
   -3.5775   -2.9128   -1.4691 H   0  0  0  0  0  0  0  0  0  0  0  0
   -3.4100   -1.1358   -1.6726 H   0  0  0  0  0  0  0  0  0  0  0  0
   -4.0595   -2.6878    0.9007 H   0  0  0  0  0  0  0  0  0  0  0  0
   -1.8901   -1.4708    1.7265 H   0  0  0  0  0  0  0  0  0  0  0  0
   -1.5377   -1.2322   -0.0153 H   0  0  0  0  0  0  0  0  0  0  0  0
   -1.7166   -3.7494   -0.3477 H   0  0  0  0  0  0  0  0  0  0  0  0
   -2.0760   -3.9118    1.3967 H   0  0  0  0  0  0  0  0  0  0  0  0
    0.2584   -2.5609    1.7045 H   0  0  0  0  0  0  0  0  0  0  0  0
    0.1645   -4.3035    1.5374 H   0  0  0  0  0  0  0  0  0  0  0  0
    1.6689   -4.6082   -1.9120 H   0  0  0  0  0  0  0  0  0  0  0  0
    1.7728   -5.3543   -0.2722 H   0  0  0  0  0  0  0  0  0  0  0  0
    0.1827   -5.2487   -1.1213 H   0  0  0  0  0  0  0  0  0  0  0  0
    2.6362   -2.4670   -1.3212 H   0  0  0  0  0  0  0  0  0  0  0  0
    2.4710   -1.2042    1.1632 H   0  0  0  0  0  0  0  0  0  0  0  0
    0.8587   -0.7212    0.6296 H   0  0  0  0  0  0  0  0  0  0  0  0
    2.0091    1.1560   -0.0535 H   0  0  0  0  0  0  0  0  0  0  0  0
   -0.0868    2.6396   -2.7965 H   0  0  0  0  0  0  0  0  0  0  0  0
    0.8848    2.6324   -1.3006 H   0  0  0  0  0  0  0  0  0  0  0  0
   -0.3485    0.6798   -0.4663 H   0  0  0  0  0  0  0  0  0  0  0  0
   -0.8540   -0.4959   -2.2099 H   0  0  0  0  0  0  0  0  0  0  0  0
   -3.6785    3.3094   -1.3486 H   0  0  0  0  0  0  0  0  0  0  0  0
   -2.3437    3.2411   -2.5235 H   0  0  0  0  0  0  0  0  0  0  0  0
   -3.3911    1.8149   -2.3125 H   0  0  0  0  0  0  0  0  0  0  0  0
   -2.1059    3.9312    0.5971 H   0  0  0  0  0  0  0  0  0  0  0  0
   -0.9053    4.0963   -0.7221 H   0  0  0  0  0  0  0  0  0  0  0  0
   -0.5138    3.0980    0.7257 H   0  0  0  0  0  0  0  0  0  0  0  0
   -4.4020    0.7275   -0.6801 H   0  0  0  0  0  0  0  0  0  0  0  0
   -6.0819    1.6503    0.8114 H   0  0  0  0  0  0  0  0  0  0  0  0
   -4.8642    2.8859    0.4847 H   0  0  0  0  0  0  0  0  0  0  0  0
   -3.8840    2.6782    2.7762 H   0  0  0  0  0  0  0  0  0  0  0  0
   -5.3790    1.8160    4.4516 H   0  0  0  0  0  0  0  0  0  0  0  0
   -6.4843    1.0904    3.1304 H   0  0  0  0  0  0  0  0  0  0  0  0
   -3.9597   -0.4811    2.1167 H   0  0  0  0  0  0  0  0  0  0  0  0
   -5.8750   -1.4264    1.8599 H   0  0  0  0  0  0  0  0  0  0  0  0
    4.4590   -0.9838   -1.9649 H   0  0  0  0  0  0  0  0  0  0  0  0
    6.9018   -0.9045   -1.5610 H   0  0  0  0  0  0  0  0  0  0  0  0
    8.9073    1.4129    3.7708 H   0  0  0  0  0  0  0  0  0  0  0  0
    9.7101    2.4083    2.4895 H   0  0  0  0  0  0  0  0  0  0  0  0
    8.3073    3.0814    3.4068 H   0  0  0  0  0  0  0  0  0  0  0  0
    3.8118    1.5814    1.4750 H   0  0  0  0  0  0  0  0  0  0  0  0
  1  2  1  0
  2  3  1  0
  3  4  1  0
  4  5  1  0
  5  6  1  0
  6  7  1  6
  6  8  1  0
  8  9  1  0
  9 10  1  0
 10 11  1  0
 11 12  1  0
 12 13  1  0
 13 14  2  0
 13 15  1  0
 15 16  1  0
 16 17  1  0
 16 18  1  0
 18 19  1  0
 18 20  1  0
 18 21  1  0
 21 22  2  0
 21 23  1  0
 23 24  1  0
 24 25  1  0
 25 26  2  3
 23 27  1  0
 27 28  1  0
 11 29  1  0
 29 30  2  0
 30 31  1  0
 31 32  2  0
 32 33  1  0
 33 34  1  0
 34 35  1  0
 34 36  2  0
 36 37  1  0
 37 38  2  0
 27  2  1  0
 38 29  1  0
  9  6  1  0
 37 32  1  0
  1 39  1  0
  1 40  1  0
  1 41  1  0
  2 42  1  1
  3 43  1  0
  3 44  1  0
  4 45  1  0
  4 46  1  0
  5 47  1  0
  5 48  1  0
  7 49  1  0
  7 50  1  0
  7 51  1  0
  9 52  1  6
 10 53  1  0
 10 54  1  0
 11 55  1  1
 15 56  1  0
 15 57  1  0
 16 58  1  1
 17 59  1  0
 19 60  1  0
 19 61  1  0
 19 62  1  0
 20 63  1  0
 20 64  1  0
 20 65  1  0
 23 66  1  6
 24 67  1  0
 24 68  1  0
 25 69  1  0
 26 70  1  0
 26 71  1  0
 27 72  1  1
 28 73  1  0
 30 74  1  0
 31 75  1  0
 35 76  1  0
 35 77  1  0
 35 78  1  0
 38 79  1  0
M  END
$$$$
