
     RDKit          3D

 51 52  0  0  0  0  0  0  0  0999 V2000
    7.6835    1.3838   -0.5092 N   0  0  0  0  0  0  0  0  0  0  0  0
    6.4094    1.7970   -0.0046 C   0  0  0  0  0  0  0  0  0  0  0  0
    5.4531    2.1429   -0.8092 N   0  0  0  0  0  0  0  0  0  0  0  0
    5.6075    2.1318   -2.1785 O   0  0  0  0  0  0  0  0  0  0  0  0
    4.5209    2.4581   -3.0354 C   0  0  0  0  0  0  0  0  0  0  0  0
    3.5582    1.2775   -3.1710 C   0  0  0  0  0  0  0  0  0  0  0  0
    2.9117    0.9866   -1.8920 N   0  0  0  0  0  0  0  0  0  0  0  0
    3.2997   -0.1119   -1.0534 C   0  0  0  0  0  0  0  0  0  0  0  0
    4.1494   -0.9526   -1.4549 O   0  0  0  0  0  0  0  0  0  0  0  0
    2.6867   -0.2749    0.3050 C   0  0  0  0  0  0  0  0  0  0  0  0
    1.2952   -0.8538    0.1915 C   0  0  0  0  0  0  0  0  0  0  0  0
    1.0961   -2.2426    0.0368 C   0  0  0  0  0  0  0  0  0  0  0  0
    2.4399   -3.3807    0.0024 Cl  0  0  0  0  0  0  0  0  0  0  0  0
   -0.1976   -2.7510   -0.0962 C   0  0  0  0  0  0  0  0  0  0  0  0
   -1.3004   -1.8981   -0.0835 C   0  0  0  0  0  0  0  0  0  0  0  0
   -1.1286   -0.5100    0.0669 C   0  0  0  0  0  0  0  0  0  0  0  0
   -2.2508    0.3986    0.0703 N   0  0  0  0  0  0  0  0  0  0  0  0
   -3.6573    0.0016    0.1722 C   0  0  0  0  0  0  0  0  0  0  0  0
   -4.0299   -0.3471    1.6206 C   0  0  0  0  0  0  0  0  0  0  0  0
   -3.2452   -1.3917    2.0802 F   0  0  0  0  0  0  0  0  0  0  0  0
   -3.7852    0.7507    2.4307 F   0  0  0  0  0  0  0  0  0  0  0  0
   -5.4901   -0.7351    1.6979 C   0  0  0  0  0  0  0  0  0  0  0  0
   -6.4798    0.2400    1.9244 C   0  0  0  0  0  0  0  0  0  0  0  0
   -7.8316   -0.1170    1.9510 C   0  0  0  0  0  0  0  0  0  0  0  0
   -8.2105   -1.4442    1.7362 C   0  0  0  0  0  0  0  0  0  0  0  0
   -7.2389   -2.4161    1.4867 C   0  0  0  0  0  0  0  0  0  0  0  0
   -5.8859   -2.0646    1.4591 C   0  0  0  0  0  0  0  0  0  0  0  0
    0.1755    0.0039    0.1960 C   0  0  0  0  0  0  0  0  0  0  0  0
    0.3519    1.3435    0.3386 F   0  0  0  0  0  0  0  0  0  0  0  0
    6.1797    1.8182    1.4038 N   0  0  0  0  0  0  0  0  0  0  0  0
    7.8824    1.3513   -1.5335 H   0  0  0  0  0  0  0  0  0  0  0  0
    8.4424    1.1037    0.1506 H   0  0  0  0  0  0  0  0  0  0  0  0
    3.9867    3.3537   -2.6497 H   0  0  0  0  0  0  0  0  0  0  0  0
    4.9259    2.7038   -4.0396 H   0  0  0  0  0  0  0  0  0  0  0  0
    2.7752    1.5358   -3.9156 H   0  0  0  0  0  0  0  0  0  0  0  0
    4.1044    0.3901   -3.5568 H   0  0  0  0  0  0  0  0  0  0  0  0
    2.2163    1.6765   -1.5289 H   0  0  0  0  0  0  0  0  0  0  0  0
    3.3265   -0.9277    0.9368 H   0  0  0  0  0  0  0  0  0  0  0  0
    2.6690    0.7116    0.8155 H   0  0  0  0  0  0  0  0  0  0  0  0
   -0.3515   -3.8163   -0.2146 H   0  0  0  0  0  0  0  0  0  0  0  0
   -2.2805   -2.3373   -0.1958 H   0  0  0  0  0  0  0  0  0  0  0  0
   -2.0634    1.4236   -0.0120 H   0  0  0  0  0  0  0  0  0  0  0  0
   -3.8798   -0.8374   -0.5196 H   0  0  0  0  0  0  0  0  0  0  0  0
   -4.2901    0.8555   -0.1569 H   0  0  0  0  0  0  0  0  0  0  0  0
   -6.2085    1.2771    2.0761 H   0  0  0  0  0  0  0  0  0  0  0  0
   -8.5862    0.6374    2.1324 H   0  0  0  0  0  0  0  0  0  0  0  0
   -9.2575   -1.7179    1.7551 H   0  0  0  0  0  0  0  0  0  0  0  0
   -7.5345   -3.4419    1.3085 H   0  0  0  0  0  0  0  0  0  0  0  0
   -5.1488   -2.8290    1.2468 H   0  0  0  0  0  0  0  0  0  0  0  0
    6.9354    1.5411    2.0686 H   0  0  0  0  0  0  0  0  0  0  0  0
    5.2503    2.1038    1.7853 H   0  0  0  0  0  0  0  0  0  0  0  0
  1  2  1  0
  2  3  2  3
  3  4  1  0
  4  5  1  0
  5  6  1  0
  6  7  1  0
  7  8  1  0
  8  9  2  0
  8 10  1  0
 10 11  1  0
 11 12  2  0
 12 13  1  0
 12 14  1  0
 14 15  2  0
 15 16  1  0
 16 17  1  0
 17 18  1  0
 18 19  1  0
 19 20  1  0
 19 21  1  0
 19 22  1  0
 22 23  2  0
 23 24  1  0
 24 25  2  0
 25 26  1  0
 26 27  2  0
 16 28  2  0
 28 29  1  0
  2 30  1  0
 28 11  1  0
 27 22  1  0
  1 31  1  0
  1 32  1  0
  5 33  1  0
  5 34  1  0
  6 35  1  0
  6 36  1  0
  7 37  1  0
 10 38  1  0
 10 39  1  0
 14 40  1  0
 15 41  1  0
 17 42  1  0
 18 43  1  0
 18 44  1  0
 23 45  1  0
 24 46  1  0
 25 47  1  0
 26 48  1  0
 27 49  1  0
 30 50  1  0
 30 51  1  0
M  END
$$$$
