
     RDKit          3D

111119  0  0  0  0  0  0  0  0999 V2000
    6.8517   -3.1406   -1.0445 C   0  0  2  0  0  0  0  0  0  0  0  0
    5.6799   -3.4760   -1.7843 O   0  0  0  0  0  0  0  0  0  0  0  0
    4.4423   -3.0710   -1.2142 C   0  0  1  0  0  0  0  0  0  0  0  0
    3.3070   -3.8069   -1.9462 C   0  0  0  0  0  0  0  0  0  0  0  0
    2.0364   -3.9150   -1.0838 C   0  0  0  0  0  0  0  0  0  0  0  0
    1.9891   -2.7870   -0.0160 C   0  0  0  0  0  0  0  0  0  0  0  0
    0.7245   -2.8638    0.8654 C   0  0  0  0  0  0  0  0  0  0  0  0
   -0.5511   -3.1325    0.1018 C   0  0  0  0  0  0  0  0  0  0  0  0
   -1.1121   -4.2073    0.2527 O   0  0  0  0  0  0  0  0  0  0  0  0
   -1.1061   -2.1496   -0.9007 C   0  0  0  0  0  0  0  0  0  0  0  0
   -2.3290   -1.3624   -0.3683 C   0  0  1  0  0  0  0  0  0  0  0  0
   -3.0108   -0.5332   -1.4667 C   0  0  2  0  0  0  0  0  0  0  0  0
   -2.3364    0.8393   -1.7135 C   0  0  0  0  0  0  0  0  0  0  0  0
   -2.7624    1.9552   -0.7294 C   0  0  1  0  0  0  0  0  0  0  0  0
   -1.7105    2.9010   -0.6697 O   0  0  0  0  0  0  0  0  0  0  0  0
   -1.8915    3.7890    0.4200 C   0  0  2  0  0  0  0  0  0  0  0  0
   -3.1191    4.6834    0.1503 C   0  0  0  0  0  0  0  0  0  0  0  0
   -4.3799    3.8211   -0.0589 C   0  0  1  0  0  0  0  0  0  0  0  0
   -5.5727    4.7169   -0.4304 C   0  0  0  0  0  0  0  0  0  0  0  0
   -4.0595    2.7039   -1.0511 C   0  0  0  0  0  0  0  0  0  0  0  0
   -4.8597    2.4035   -2.0985 C   0  0  0  0  0  0  0  0  0  0  0  0
   -0.6202    4.6432    0.5905 C   0  0  0  0  0  0  0  0  0  0  0  0
    0.5461    3.8798    1.2516 C   0  0  0  0  0  0  0  0  0  0  0  0
    1.1468    2.7143    0.4328 C   0  0  2  0  0  0  0  0  0  0  0  0
    1.9797    1.9593    1.2832 O   0  0  0  0  0  0  0  0  0  0  0  0
    3.3294    2.1252    0.8836 C   0  0  2  0  0  0  0  0  0  0  0  0
    3.3980    2.8905   -0.4415 C   0  0  0  0  0  0  0  0  0  0  0  0
    1.9875    3.1794   -0.7016 C   0  0  0  0  0  0  0  0  0  0  0  0
    1.5285    3.6311   -1.8752 C   0  0  0  0  0  0  0  0  0  0  0  0
    3.9828    0.7365    0.7877 C   0  0  0  0  0  0  0  0  0  0  0  0
    5.5176    0.8103    0.8562 C   0  0  0  0  0  0  0  0  0  0  0  0
    6.1725   -0.5690    0.6364 C   0  0  1  0  0  0  0  0  0  0  0  0
    7.6385   -0.5111    1.0205 C   0  0  0  0  0  0  0  0  0  0  0  0
    8.1679   -1.6591    0.2262 C   0  0  1  0  0  0  0  0  0  0  0  0
    7.9700   -2.8445    0.9755 O   0  0  0  0  0  0  0  0  0  0  0  0
    6.8280   -3.4578    0.4278 C   0  0  1  0  0  0  0  0  0  0  0  0
    5.5377   -2.9200    1.0972 C   0  0  1  0  0  0  0  0  0  0  0  0
    5.4854   -1.5298    1.4486 O   0  0  0  0  0  0  0  0  0  0  0  0
    4.3023   -3.3628    0.2995 C   0  0  1  0  0  0  0  0  0  0  0  0
    3.1294   -2.7676    0.8502 O   0  0  0  0  0  0  0  0  0  0  0  0
    7.2540   -1.6917   -1.0028 C   0  0  2  0  0  0  0  0  0  0  0  0
    6.1313   -0.8806   -0.7374 O   0  0  0  0  0  0  0  0  0  0  0  0
   -4.3768   -0.3867   -1.1420 O   0  0  0  0  0  0  0  0  0  0  0  0
   -4.6932   -1.3162   -0.1249 C   0  0  2  0  0  0  0  0  0  0  0  0
   -5.1312   -0.5541    1.1511 C   0  0  0  0  0  0  0  0  0  0  0  0
   -6.3127    0.4182    0.9256 C   0  0  2  0  0  0  0  0  0  0  0  0
   -6.4229    1.2926    2.0215 O   0  0  0  0  0  0  0  0  0  0  0  0
   -7.6457   -0.3192    0.6900 C   0  0  0  0  0  0  0  0  0  0  0  0
   -8.7295    0.6387    0.4868 N   0  0  0  0  0  0  0  0  0  0  0  0
   -3.4756   -2.2306    0.0971 C   0  0  2  0  0  0  0  0  0  0  0  0
   -3.2994   -2.6062    1.4539 O   0  0  0  0  0  0  0  0  0  0  0  0
   -4.0327   -3.7801    1.7322 C   0  0  0  0  0  0  0  0  0  0  0  0
    7.6939   -3.7107   -1.4987 H   0  0  0  0  0  0  0  0  0  0  0  0
    4.2671   -1.9948   -1.4098 H   0  0  0  0  0  0  0  0  0  0  0  0
    3.6344   -4.8336   -2.2230 H   0  0  0  0  0  0  0  0  0  0  0  0
    3.0745   -3.2672   -2.8909 H   0  0  0  0  0  0  0  0  0  0  0  0
    2.0153   -4.9017   -0.5705 H   0  0  0  0  0  0  0  0  0  0  0  0
    1.1544   -3.8645   -1.7570 H   0  0  0  0  0  0  0  0  0  0  0  0
    1.9560   -1.8140   -0.5548 H   0  0  0  0  0  0  0  0  0  0  0  0
    0.6106   -1.9073    1.4200 H   0  0  0  0  0  0  0  0  0  0  0  0
    0.8674   -3.6651    1.6243 H   0  0  0  0  0  0  0  0  0  0  0  0
   -0.3144   -1.4240   -1.1793 H   0  0  0  0  0  0  0  0  0  0  0  0
   -1.3737   -2.7072   -1.8248 H   0  0  0  0  0  0  0  0  0  0  0  0
   -2.0018   -0.7021    0.4668 H   0  0  0  0  0  0  0  0  0  0  0  0
   -2.9649   -1.0979   -2.4256 H   0  0  0  0  0  0  0  0  0  0  0  0
   -2.4910    1.1662   -2.7627 H   0  0  0  0  0  0  0  0  0  0  0  0
   -1.2366    0.7003   -1.6319 H   0  0  0  0  0  0  0  0  0  0  0  0
   -2.8845    1.4719    0.2652 H   0  0  0  0  0  0  0  0  0  0  0  0
   -2.0557    3.2335    1.3738 H   0  0  0  0  0  0  0  0  0  0  0  0
   -3.2788    5.3687    1.0118 H   0  0  0  0  0  0  0  0  0  0  0  0
   -2.9315    5.2986   -0.7584 H   0  0  0  0  0  0  0  0  0  0  0  0
   -4.6265    3.3373    0.9124 H   0  0  0  0  0  0  0  0  0  0  0  0
   -5.4146    5.1930   -1.4219 H   0  0  0  0  0  0  0  0  0  0  0  0
   -5.6988    5.5177    0.3292 H   0  0  0  0  0  0  0  0  0  0  0  0
   -6.5110    4.1226   -0.4440 H   0  0  0  0  0  0  0  0  0  0  0  0
   -5.7775    2.9416   -2.2970 H   0  0  0  0  0  0  0  0  0  0  0  0
   -4.6402    1.6033   -2.7916 H   0  0  0  0  0  0  0  0  0  0  0  0
   -0.8573    5.5025    1.2560 H   0  0  0  0  0  0  0  0  0  0  0  0
   -0.3089    5.0791   -0.3801 H   0  0  0  0  0  0  0  0  0  0  0  0
    0.1909    3.4814    2.2275 H   0  0  0  0  0  0  0  0  0  0  0  0
    1.3547    4.6070    1.4866 H   0  0  0  0  0  0  0  0  0  0  0  0
    0.3624    2.0277    0.0634 H   0  0  0  0  0  0  0  0  0  0  0  0
    3.8424    2.7177    1.6741 H   0  0  0  0  0  0  0  0  0  0  0  0
    3.9698    3.8372   -0.3309 H   0  0  0  0  0  0  0  0  0  0  0  0
    3.8260    2.2839   -1.2703 H   0  0  0  0  0  0  0  0  0  0  0  0
    2.2185    3.8867   -2.6732 H   0  0  0  0  0  0  0  0  0  0  0  0
    0.4651    3.7173   -2.0651 H   0  0  0  0  0  0  0  0  0  0  0  0
    3.6579    0.2233   -0.1441 H   0  0  0  0  0  0  0  0  0  0  0  0
    3.6203    0.1255    1.6436 H   0  0  0  0  0  0  0  0  0  0  0  0
    5.8957    1.5246    0.0917 H   0  0  0  0  0  0  0  0  0  0  0  0
    5.8037    1.2005    1.8585 H   0  0  0  0  0  0  0  0  0  0  0  0
    8.1131    0.4333    0.6698 H   0  0  0  0  0  0  0  0  0  0  0  0
    7.7987   -0.6339    2.1147 H   0  0  0  0  0  0  0  0  0  0  0  0
    9.2409   -1.5366   -0.0370 H   0  0  0  0  0  0  0  0  0  0  0  0
    6.8949   -4.5592    0.5699 H   0  0  0  0  0  0  0  0  0  0  0  0
    5.4754   -3.4571    2.0694 H   0  0  0  0  0  0  0  0  0  0  0  0
    4.2292   -4.4678    0.4343 H   0  0  0  0  0  0  0  0  0  0  0  0
    7.7668   -1.3627   -1.9323 H   0  0  0  0  0  0  0  0  0  0  0  0
   -5.5359   -1.9499   -0.4722 H   0  0  0  0  0  0  0  0  0  0  0  0
   -4.2651    0.0264    1.5348 H   0  0  0  0  0  0  0  0  0  0  0  0
   -5.4175   -1.2763    1.9452 H   0  0  0  0  0  0  0  0  0  0  0  0
   -6.1051    1.0394    0.0315 H   0  0  0  0  0  0  0  0  0  0  0  0
   -6.6144    0.7422    2.8259 H   0  0  0  0  0  0  0  0  0  0  0  0
   -7.5647   -0.9544   -0.2171 H   0  0  0  0  0  0  0  0  0  0  0  0
   -7.8811   -0.9792    1.5552 H   0  0  0  0  0  0  0  0  0  0  0  0
   -8.9632    1.0730    1.4092 H   0  0  0  0  0  0  0  0  0  0  0  0
   -9.5778    0.1023    0.1932 H   0  0  0  0  0  0  0  0  0  0  0  0
   -3.5511   -3.1122   -0.5883 H   0  0  0  0  0  0  0  0  0  0  0  0
   -5.1080   -3.6668    1.4700 H   0  0  0  0  0  0  0  0  0  0  0  0
   -3.9711   -3.9858    2.8203 H   0  0  0  0  0  0  0  0  0  0  0  0
   -3.6004   -4.6536    1.1979 H   0  0  0  0  0  0  0  0  0  0  0  0
  1  2  1  0
  2  3  1  0
  3  4  1  0
  4  5  1  0
  5  6  1  0
  6  7  1  0
  7  8  1  0
  8  9  2  0
  8 10  1  0
 10 11  1  0
 11 12  1  0
 12 13  1  0
 13 14  1  0
 14 15  1  0
 15 16  1  0
 16 17  1  0
 17 18  1  0
 18 19  1  0
 18 20  1  0
 20 21  2  3
 16 22  1  0
 22 23  1  0
 23 24  1  0
 24 25  1  0
 25 26  1  0
 26 27  1  0
 27 28  1  0
 28 29  2  3
 26 30  1  0
 30 31  1  0
 32 31  1  6
 32 33  1  0
 33 34  1  0
 34 35  1  0
 35 36  1  0
 36 37  1  0
 37 38  1  0
 37 39  1  0
 39 40  1  0
 34 41  1  0
 41 42  1  0
 12 43  1  0
 43 44  1  0
 44 45  1  0
 45 46  1  0
 46 47  1  0
 46 48  1  0
 48 49  1  0
 44 50  1  0
 50 51  1  0
 51 52  1  0
 36  1  1  0
 41  1  1  0
 39  3  1  0
 40  6  1  0
 50 11  1  0
 20 14  1  0
 28 24  1  0
 38 32  1  0
 42 32  1  0
  1 53  1  6
  3 54  1  1
  4 55  1  0
  4 56  1  0
  5 57  1  0
  5 58  1  0
  6 59  1  0
  7 60  1  0
  7 61  1  0
 10 62  1  0
 10 63  1  0
 11 64  1  1
 12 65  1  6
 13 66  1  0
 13 67  1  0
 14 68  1  1
 16 69  1  1
 17 70  1  0
 17 71  1  0
 18 72  1  1
 19 73  1  0
 19 74  1  0
 19 75  1  0
 21 76  1  0
 21 77  1  0
 22 78  1  0
 22 79  1  0
 23 80  1  0
 23 81  1  0
 24 82  1  6
 26 83  1  1
 27 84  1  0
 27 85  1  0
 29 86  1  0
 29 87  1  0
 30 88  1  0
 30 89  1  0
 31 90  1  0
 31 91  1  0
 33 92  1  0
 33 93  1  0
 34 94  1  6
 36 95  1  6
 37 96  1  1
 39 97  1  6
 41 98  1  6
 44 99  1  6
 45100  1  0
 45101  1  0
 46102  1  6
 47103  1  0
 48104  1  0
 48105  1  0
 49106  1  0
 49107  1  0
 50108  1  6
 52109  1  0
 52110  1  0
 52111  1  0
M  END
$$$$
