
     RDKit          2D

132131  0  0  0  0  0  0  0  0999 V2000
  -29.3827   -0.9904    0.0000 C   0  0  0  0  0  0  0  0  0  0  0  0
  -28.0836   -1.7404    0.0000 C   0  0  0  0  0  0  0  0  0  0  0  0
  -26.7846   -2.4904    0.0000 C   0  0  0  0  0  0  0  0  0  0  0  0
  -25.4856   -3.2404    0.0000 C   0  0  0  0  0  0  0  0  0  0  0  0
  -24.1865   -3.9904    0.0000 C   0  0  0  0  0  0  0  0  0  0  0  0
  -22.8875   -4.7404    0.0000 C   0  0  0  0  0  0  0  0  0  0  0  0
  -21.5885   -5.4904    0.0000 C   0  0  0  0  0  0  0  0  0  0  0  0
  -20.2894   -6.2404    0.0000 C   0  0  0  0  0  0  0  0  0  0  0  0
  -18.9904   -6.9904    0.0000 C   0  0  0  0  0  0  0  0  0  0  0  0
  -17.6913   -7.7404    0.0000 C   0  0  0  0  0  0  0  0  0  0  0  0
  -16.3923   -8.4904    0.0000 C   0  0  0  0  0  0  0  0  0  0  0  0
  -15.0933   -9.2404    0.0000 C   0  0  0  0  0  0  0  0  0  0  0  0
  -13.7942   -9.9904    0.0000 C   0  0  0  0  0  0  0  0  0  0  0  0
  -12.4952  -10.7404    0.0000 C   0  0  0  0  0  0  0  0  0  0  0  0
  -11.1962  -11.4904    0.0000 C   0  0  0  0  0  0  0  0  0  0  0  0
   -9.8971  -12.2404    0.0000 C   0  0  0  0  0  0  0  0  0  0  0  0
   -9.8971  -13.7404    0.0000 O   0  0  0  0  0  0  0  0  0  0  0  0
   -8.5981  -11.4904    0.0000 O   0  0  0  0  0  0  0  0  0  0  0  0
   -7.2990  -12.2404    0.0000 C   0  0  0  0  0  0  0  0  0  0  0  0
   -6.0000  -12.9904    0.0000 C   0  0  0  0  0  0  0  0  0  0  0  0
   -6.7500  -14.2894    0.0000 C   0  0  0  0  0  0  0  0  0  0  0  0
   -7.5000  -15.5885    0.0000 O   0  0  0  0  0  0  0  0  0  0  0  0
   -6.7500  -16.8875    0.0000 P   0  0  0  0  0  5  0  0  0  0  0  0
   -5.4510  -16.1375    0.0000 O   0  0  0  0  0  1  0  0  0  0  0  0
   -8.0490  -17.6375    0.0000 O   0  0  0  0  0  0  0  0  0  0  0  0
   -6.0000  -18.1865    0.0000 O   0  0  0  0  0  0  0  0  0  0  0  0
   -4.5000  -18.1865    0.0000 C   0  0  0  0  0  0  0  0  0  0  0  0
   -3.0000  -18.1865    0.0000 C   0  0  0  0  0  0  0  0  0  0  0  0
   -1.5000  -18.1865    0.0000 N   0  0  0  0  0  4  0  0  0  0  0  0
   -1.5000  -19.6865    0.0000 C   0  0  0  0  0  0  0  0  0  0  0  0
   -1.5000  -16.6865    0.0000 C   0  0  0  0  0  0  0  0  0  0  0  0
   -0.0000  -18.1865    0.0000 C   0  0  0  0  0  0  0  0  0  0  0  0
   -5.2500  -11.6913    0.0000 O   0  0  0  0  0  0  0  0  0  0  0  0
   -3.7500  -11.6913    0.0000 C   0  0  0  0  0  0  0  0  0  0  0  0
   -3.0000  -12.9904    0.0000 O   0  0  0  0  0  0  0  0  0  0  0  0
   -3.0000  -10.3923    0.0000 C   0  0  0  0  0  0  0  0  0  0  0  0
   -2.2500   -9.0933    0.0000 C   0  0  0  0  0  0  0  0  0  0  0  0
   -1.5000   -7.7942    0.0000 C   0  0  0  0  0  0  0  0  0  0  0  0
   -0.7500   -6.4952    0.0000 C   0  0  0  0  0  0  0  0  0  0  0  0
    0.0000   -5.1962    0.0000 C   0  0  0  0  0  0  0  0  0  0  0  0
    0.7500   -3.8971    0.0000 C   0  0  0  0  0  0  0  0  0  0  0  0
    1.5000   -2.5981    0.0000 C   0  0  0  0  0  0  0  0  0  0  0  0
    2.2500   -1.2990    0.0000 C   0  0  0  0  0  0  0  0  0  0  0  0
    1.5000   -0.0000    0.0000 C   0  0  0  0  0  0  0  0  0  0  0  0
    0.0000   -0.0000    0.0000 C   0  0  0  0  0  0  0  0  0  0  0  0
   -1.5000   -0.0000    0.0000 C   0  0  0  0  0  0  0  0  0  0  0  0
   -2.2500    1.2990    0.0000 C   0  0  0  0  0  0  0  0  0  0  0  0
   -1.5000    2.5981    0.0000 C   0  0  0  0  0  0  0  0  0  0  0  0
   -0.7500    3.8971    0.0000 C   0  0  0  0  0  0  0  0  0  0  0  0
    0.0000    5.1962    0.0000 C   0  0  0  0  0  0  0  0  0  0  0  0
    0.7500    6.4952    0.0000 C   0  0  0  0  0  0  0  0  0  0  0  0
    1.5000    7.7942    0.0000 C   0  0  0  0  0  0  0  0  0  0  0  0
  -30.1327   -2.2894    0.0000 H   0  0  0  0  0  0  0  0  0  0  0  0
  -28.6327    0.3087    0.0000 H   0  0  0  0  0  0  0  0  0  0  0  0
  -30.6817   -0.2404    0.0000 H   0  0  0  0  0  0  0  0  0  0  0  0
  -27.3336   -0.4413    0.0000 H   0  0  0  0  0  0  0  0  0  0  0  0
  -28.8336   -3.0394    0.0000 H   0  0  0  0  0  0  0  0  0  0  0  0
  -27.5346   -3.7894    0.0000 H   0  0  0  0  0  0  0  0  0  0  0  0
  -26.0346   -1.1913    0.0000 H   0  0  0  0  0  0  0  0  0  0  0  0
  -24.7356   -1.9413    0.0000 H   0  0  0  0  0  0  0  0  0  0  0  0
  -26.2356   -4.5394    0.0000 H   0  0  0  0  0  0  0  0  0  0  0  0
  -24.9365   -5.2894    0.0000 H   0  0  0  0  0  0  0  0  0  0  0  0
  -23.4365   -2.6913    0.0000 H   0  0  0  0  0  0  0  0  0  0  0  0
  -22.1375   -3.4413    0.0000 H   0  0  0  0  0  0  0  0  0  0  0  0
  -23.6375   -6.0394    0.0000 H   0  0  0  0  0  0  0  0  0  0  0  0
  -22.3385   -6.7894    0.0000 H   0  0  0  0  0  0  0  0  0  0  0  0
  -20.8385   -4.1913    0.0000 H   0  0  0  0  0  0  0  0  0  0  0  0
  -19.5394   -4.9413    0.0000 H   0  0  0  0  0  0  0  0  0  0  0  0
  -21.0394   -7.5394    0.0000 H   0  0  0  0  0  0  0  0  0  0  0  0
  -19.7404   -8.2894    0.0000 H   0  0  0  0  0  0  0  0  0  0  0  0
  -18.2404   -5.6913    0.0000 H   0  0  0  0  0  0  0  0  0  0  0  0
  -16.9413   -6.4413    0.0000 H   0  0  0  0  0  0  0  0  0  0  0  0
  -18.4413   -9.0394    0.0000 H   0  0  0  0  0  0  0  0  0  0  0  0
  -17.1423   -9.7894    0.0000 H   0  0  0  0  0  0  0  0  0  0  0  0
  -15.6423   -7.1913    0.0000 H   0  0  0  0  0  0  0  0  0  0  0  0
  -14.3433   -7.9413    0.0000 H   0  0  0  0  0  0  0  0  0  0  0  0
  -15.8433  -10.5394    0.0000 H   0  0  0  0  0  0  0  0  0  0  0  0
  -14.5442  -11.2894    0.0000 H   0  0  0  0  0  0  0  0  0  0  0  0
  -13.0442   -8.6913    0.0000 H   0  0  0  0  0  0  0  0  0  0  0  0
  -11.7452   -9.4413    0.0000 H   0  0  0  0  0  0  0  0  0  0  0  0
  -13.2452  -12.0394    0.0000 H   0  0  0  0  0  0  0  0  0  0  0  0
  -11.9462  -12.7894    0.0000 H   0  0  0  0  0  0  0  0  0  0  0  0
  -10.4462  -10.1913    0.0000 H   0  0  0  0  0  0  0  0  0  0  0  0
   -6.5490  -10.9413    0.0000 H   0  0  0  0  0  0  0  0  0  0  0  0
   -7.8321  -12.9477    0.0000 H   0  0  0  0  0  0  0  0  0  0  0  0
   -4.7010  -13.7404    0.0000 H   0  0  0  0  0  0  0  0  0  0  0  0
   -5.4510  -15.0394    0.0000 H   0  0  0  0  0  0  0  0  0  0  0  0
   -7.5653  -13.9434    0.0000 H   0  0  0  0  0  0  0  0  0  0  0  0
   -4.5000  -19.6865    0.0000 H   0  0  0  0  0  0  0  0  0  0  0  0
   -4.5000  -16.6865    0.0000 H   0  0  0  0  0  0  0  0  0  0  0  0
   -3.1080  -19.0657    0.0000 H   0  0  0  0  0  0  0  0  0  0  0  0
   -3.1080  -17.3074    0.0000 H   0  0  0  0  0  0  0  0  0  0  0  0
   -0.0112  -19.8694    0.0000 H   0  0  0  0  0  0  0  0  0  0  0  0
   -2.3791  -19.7945    0.0000 H   0  0  0  0  0  0  0  0  0  0  0  0
   -1.5000  -21.1865    0.0000 H   0  0  0  0  0  0  0  0  0  0  0  0
   -0.0112  -16.5037    0.0000 H   0  0  0  0  0  0  0  0  0  0  0  0
   -2.3791  -16.5786    0.0000 H   0  0  0  0  0  0  0  0  0  0  0  0
   -1.5000  -15.1865    0.0000 H   0  0  0  0  0  0  0  0  0  0  0  0
    0.1828  -16.6977    0.0000 H   0  0  0  0  0  0  0  0  0  0  0  0
    0.1828  -19.6753    0.0000 H   0  0  0  0  0  0  0  0  0  0  0  0
    1.5000  -18.1865    0.0000 H   0  0  0  0  0  0  0  0  0  0  0  0
   -4.2990   -9.6423    0.0000 H   0  0  0  0  0  0  0  0  0  0  0  0
   -1.7010  -11.1423    0.0000 H   0  0  0  0  0  0  0  0  0  0  0  0
   -0.9510   -9.8433    0.0000 H   0  0  0  0  0  0  0  0  0  0  0  0
   -3.5490   -8.3433    0.0000 H   0  0  0  0  0  0  0  0  0  0  0  0
   -2.7990   -7.0442    0.0000 H   0  0  0  0  0  0  0  0  0  0  0  0
   -0.2010   -8.5442    0.0000 H   0  0  0  0  0  0  0  0  0  0  0  0
    0.5490   -7.2452    0.0000 H   0  0  0  0  0  0  0  0  0  0  0  0
   -2.0490   -5.7452    0.0000 H   0  0  0  0  0  0  0  0  0  0  0  0
    1.2990   -5.9462    0.0000 H   0  0  0  0  0  0  0  0  0  0  0  0
   -1.2990   -4.4462    0.0000 H   0  0  0  0  0  0  0  0  0  0  0  0
   -0.5490   -3.1471    0.0000 H   0  0  0  0  0  0  0  0  0  0  0  0
    2.0490   -4.6471    0.0000 H   0  0  0  0  0  0  0  0  0  0  0  0
    2.7990   -3.3481    0.0000 H   0  0  0  0  0  0  0  0  0  0  0  0
    0.1192   -2.0120    0.0000 H   0  0  0  0  0  0  0  0  0  0  0  0
    3.7500   -1.2990    0.0000 H   0  0  0  0  0  0  0  0  0  0  0  0
    2.2500    1.2990    0.0000 H   0  0  0  0  0  0  0  0  0  0  0  0
    0.1828    1.4888    0.0000 H   0  0  0  0  0  0  0  0  0  0  0  0
   -0.1828   -1.4888    0.0000 H   0  0  0  0  0  0  0  0  0  0  0  0
   -2.2500   -1.2990    0.0000 H   0  0  0  0  0  0  0  0  0  0  0  0
   -3.7500    1.2990    0.0000 H   0  0  0  0  0  0  0  0  0  0  0  0
   -2.7990    3.3481    0.0000 H   0  0  0  0  0  0  0  0  0  0  0  0
   -0.1192    2.0120    0.0000 H   0  0  0  0  0  0  0  0  0  0  0  0
   -2.0490    4.6471    0.0000 H   0  0  0  0  0  0  0  0  0  0  0  0
    0.5490    3.1471    0.0000 H   0  0  0  0  0  0  0  0  0  0  0  0
    1.2990    4.4462    0.0000 H   0  0  0  0  0  0  0  0  0  0  0  0
   -1.2990    5.9462    0.0000 H   0  0  0  0  0  0  0  0  0  0  0  0
   -0.5490    7.2452    0.0000 H   0  0  0  0  0  0  0  0  0  0  0  0
    2.0490    5.7452    0.0000 H   0  0  0  0  0  0  0  0  0  0  0  0
    2.7990    7.0442    0.0000 H   0  0  0  0  0  0  0  0  0  0  0  0
    0.2010    8.5442    0.0000 H   0  0  0  0  0  0  0  0  0  0  0  0
    2.2500    9.0933    0.0000 H   0  0  0  0  0  0  0  0  0  0  0  0
  1  2  1  0
  2  3  1  0
  3  4  1  0
  4  5  1  0
  5  6  1  0
  6  7  1  0
  7  8  1  0
  8  9  1  0
  9 10  1  0
 10 11  1  0
 11 12  1  0
 12 13  1  0
 13 14  1  0
 14 15  1  0
 15 16  1  0
 16 17  2  0
 16 18  1  0
 18 19  1  0
 19 20  1  0
 20 21  1  0
 21 22  1  0
 22 23  1  0
 23 24  1  0
 23 25  2  0
 23 26  1  0
 26 27  1  0
 27 28  1  0
 28 29  1  0
 29 30  1  0
 29 31  1  0
 29 32  1  0
 20 33  1  0
 33 34  1  0
 34 35  2  0
 34 36  1  0
 36 37  1  0
 37 38  1  0
 38 39  1  0
 39 40  1  0
 40 41  1  0
 41 42  1  0
 42 43  1  0
 43 44  2  0
 44 45  1  0
 45 46  1  0
 46 47  2  0
 47 48  1  0
 48 49  1  0
 49 50  1  0
 50 51  1  0
 51 52  1  0
  1 53  1  0
  1 54  1  0
  1 55  1  0
  2 56  1  0
  2 57  1  0
  3 58  1  0
  3 59  1  0
  4 60  1  0
  4 61  1  0
  5 62  1  0
  5 63  1  0
  6 64  1  0
  6 65  1  0
  7 66  1  0
  7 67  1  0
  8 68  1  0
  8 69  1  0
  9 70  1  0
  9 71  1  0
 10 72  1  0
 10 73  1  0
 11 74  1  0
 11 75  1  0
 12 76  1  0
 12 77  1  0
 13 78  1  0
 13 79  1  0
 14 80  1  0
 14 81  1  0
 15 82  1  0
 15 83  1  0
 19 84  1  0
 19 85  1  0
 20 86  1  6
 21 87  1  0
 21 88  1  0
 27 89  1  0
 27 90  1  0
 28 91  1  0
 28 92  1  0
 30 93  1  0
 30 94  1  0
 30 95  1  0
 31 96  1  0
 31 97  1  0
 31 98  1  0
 32 99  1  0
 32100  1  0
 32101  1  0
 36102  1  0
 36103  1  0
 37104  1  0
 37105  1  0
 38106  1  0
 38107  1  0
 39108  1  0
 39109  1  0
 40110  1  0
 40111  1  0
 41112  1  0
 41113  1  0
 42114  1  0
 42115  1  0
 43116  1  0
 44117  1  0
 45118  1  0
 45119  1  0
 46120  1  0
 47121  1  0
 48122  1  0
 48123  1  0
 49124  1  0
 49125  1  0
 50126  1  0
 50127  1  0
 51128  1  0
 51129  1  0
 52130  1  0
 52131  1  0
 52132  1  0
M  CHG  2  24  -1  29   1
M  END
$$$$
