
     RDKit          3D

 51 55  0  0  0  0  0  0  0  0999 V2000
   -2.1674    1.1615   -1.0423 C   0  0  2  0  0  0  0  0  0  0  0  0
   -1.7154    0.1815   -2.0350 N   0  0  0  0  0  0  0  0  0  0  0  0
   -1.2329    2.3879   -1.0498 C   0  0  0  0  0  0  0  0  0  0  0  0
    0.1402    2.0038   -0.9364 O   0  0  0  0  0  0  0  0  0  0  0  0
    0.8545    1.7800    0.2552 C   0  0  0  0  0  0  0  0  0  0  0  0
    2.0788    1.0864    0.1987 C   0  0  0  0  0  0  0  0  0  0  0  0
    2.5989    0.5988   -1.0098 C   0  0  0  0  0  0  0  0  0  0  0  0
    3.8125   -0.0915   -1.0230 C   0  0  0  0  0  0  0  0  0  0  0  0
    4.5156   -0.2933    0.1783 C   0  0  0  0  0  0  0  0  0  0  0  0
    3.9861    0.1790    1.3416 N   0  0  0  0  0  0  0  0  0  0  0  0
    2.8066    0.8535    1.3832 C   0  0  0  0  0  0  0  0  0  0  0  0
    2.3060    1.3193    2.5986 C   0  0  0  0  0  0  0  0  0  0  0  0
    1.1292    1.9950    2.6331 N   0  0  0  0  0  0  0  0  0  0  0  0
    0.4022    2.2359    1.5099 C   0  0  0  0  0  0  0  0  0  0  0  0
    5.8076   -1.0258    0.2142 C   0  0  0  0  0  0  0  0  0  0  0  0
    6.1915   -1.7132    1.3789 C   0  0  0  0  0  0  0  0  0  0  0  0
    7.4099   -2.3954    1.4132 C   0  0  0  0  0  0  0  0  0  0  0  0
    8.2270   -2.3883    0.3279 N   0  0  0  0  0  0  0  0  0  0  0  0
    7.8920   -1.7258   -0.8098 C   0  0  0  0  0  0  0  0  0  0  0  0
    6.6823   -1.0312   -0.8884 C   0  0  0  0  0  0  0  0  0  0  0  0
   -2.2416    0.5171    0.3564 C   0  0  0  0  0  0  0  0  0  0  0  0
   -3.3498   -0.4919    0.4454 C   0  0  0  0  0  0  0  0  0  0  0  0
   -3.2251   -1.8747    0.3478 C   0  0  0  0  0  0  0  0  0  0  0  0
   -4.4402   -2.4643    0.4233 N   0  0  0  0  0  0  0  0  0  0  0  0
   -5.3301   -1.4658    0.5605 C   0  0  0  0  0  0  0  0  0  0  0  0
   -4.7025   -0.2465    0.5749 C   0  0  0  0  0  0  0  0  0  0  0  0
   -5.4157    0.9464    0.6949 C   0  0  0  0  0  0  0  0  0  0  0  0
   -6.8158    0.8646    0.8054 C   0  0  0  0  0  0  0  0  0  0  0  0
   -7.4629   -0.3912    0.7920 C   0  0  0  0  0  0  0  0  0  0  0  0
   -6.7158   -1.5770    0.6671 C   0  0  0  0  0  0  0  0  0  0  0  0
   -3.1844    1.5214   -1.3220 H   0  0  0  0  0  0  0  0  0  0  0  0
   -2.4483   -0.5578   -2.1323 H   0  0  0  0  0  0  0  0  0  0  0  0
   -1.6685    0.6514   -2.9685 H   0  0  0  0  0  0  0  0  0  0  0  0
   -1.3549    2.9021   -2.0269 H   0  0  0  0  0  0  0  0  0  0  0  0
   -1.5266    3.1328   -0.2837 H   0  0  0  0  0  0  0  0  0  0  0  0
    2.0689    0.7406   -1.9436 H   0  0  0  0  0  0  0  0  0  0  0  0
    4.1788   -0.4828   -1.9626 H   0  0  0  0  0  0  0  0  0  0  0  0
    2.8517    1.1489    3.5179 H   0  0  0  0  0  0  0  0  0  0  0  0
   -0.5173    2.7891    1.6112 H   0  0  0  0  0  0  0  0  0  0  0  0
    5.5503   -1.7339    2.2513 H   0  0  0  0  0  0  0  0  0  0  0  0
    7.7059   -2.9316    2.3049 H   0  0  0  0  0  0  0  0  0  0  0  0
    8.5689   -1.7321   -1.6537 H   0  0  0  0  0  0  0  0  0  0  0  0
    6.4519   -0.4872   -1.7945 H   0  0  0  0  0  0  0  0  0  0  0  0
   -2.4266    1.2990    1.1235 H   0  0  0  0  0  0  0  0  0  0  0  0
   -1.2780    0.0203    0.5993 H   0  0  0  0  0  0  0  0  0  0  0  0
   -2.2975   -2.4171    0.2188 H   0  0  0  0  0  0  0  0  0  0  0  0
   -4.6425   -3.4876    0.3745 H   0  0  0  0  0  0  0  0  0  0  0  0
   -4.9132    1.9049    0.7027 H   0  0  0  0  0  0  0  0  0  0  0  0
   -7.4008    1.7701    0.9006 H   0  0  0  0  0  0  0  0  0  0  0  0
   -8.5406   -0.4417    0.8768 H   0  0  0  0  0  0  0  0  0  0  0  0
   -7.2028   -2.5435    0.6526 H   0  0  0  0  0  0  0  0  0  0  0  0
  1  2  1  0
  1  3  1  0
  3  4  1  0
  4  5  1  0
  5  6  1  0
  6  7  2  0
  7  8  1  0
  8  9  2  0
  9 10  1  0
 10 11  2  0
 11 12  1  0
 12 13  2  0
 13 14  1  0
  9 15  1  0
 15 16  2  0
 16 17  1  0
 17 18  2  0
 18 19  1  0
 19 20  2  0
  1 21  1  0
 21 22  1  0
 22 23  2  0
 23 24  1  0
 24 25  1  0
 25 26  2  0
 26 27  1  0
 27 28  2  0
 28 29  1  0
 29 30  2  0
 14  5  2  0
 20 15  1  0
 26 22  1  0
 11  6  1  0
 30 25  1  0
  1 31  1  6
  2 32  1  0
  2 33  1  0
  3 34  1  0
  3 35  1  0
  7 36  1  0
  8 37  1  0
 12 38  1  0
 14 39  1  0
 16 40  1  0
 17 41  1  0
 19 42  1  0
 20 43  1  0
 21 44  1  0
 21 45  1  0
 23 46  1  0
 24 47  1  0
 27 48  1  0
 28 49  1  0
 29 50  1  0
 30 51  1  0
M  END
$$$$
