
     RDKit          3D

 34 36  0  0  0  0  0  0  0  0999 V2000
   -0.0838   -1.4048    0.9894 O   0  0  0  0  0  0  0  0  0  0  0  0
    0.1078   -0.5140   -0.0882 C   0  0  0  0  0  0  0  0  0  0  0  0
   -1.2488    0.1525   -0.4629 C   0  0  0  0  0  0  0  0  0  0  0  0
   -1.7495    0.9834    0.6309 N   0  0  0  0  0  0  0  0  0  0  0  0
   -2.4397    0.5725    1.7070 C   0  0  0  0  0  0  0  0  0  0  0  0
   -2.6908    1.5980    2.5431 N   0  0  0  0  0  0  0  0  0  0  0  0
   -2.1090    2.6403    1.9090 C   0  0  0  0  0  0  0  0  0  0  0  0
   -1.5292    2.2796    0.7478 N   0  0  0  0  0  0  0  0  0  0  0  0
    0.6843   -1.3139   -1.2920 C   0  0  0  0  0  0  0  0  0  0  0  0
   -0.1508   -2.4597   -1.6512 N   0  0  0  0  0  0  0  0  0  0  0  0
   -1.1380   -2.4875   -2.5616 C   0  0  0  0  0  0  0  0  0  0  0  0
   -1.6966   -3.7106   -2.6350 N   0  0  0  0  0  0  0  0  0  0  0  0
   -0.9878   -4.4101   -1.7211 C   0  0  0  0  0  0  0  0  0  0  0  0
   -0.0442   -3.6621   -1.1168 N   0  0  0  0  0  0  0  0  0  0  0  0
    1.1193    0.5785    0.3083 C   0  0  0  0  0  0  0  0  0  0  0  0
    1.6693    0.6779    1.6139 C   0  0  0  0  0  0  0  0  0  0  0  0
    1.3466   -0.1970    2.5992 F   0  0  0  0  0  0  0  0  0  0  0  0
    2.5669    1.7038    1.9293 C   0  0  0  0  0  0  0  0  0  0  0  0
    2.9295    2.6473    0.9695 C   0  0  0  0  0  0  0  0  0  0  0  0
    3.7982    3.6389    1.2863 F   0  0  0  0  0  0  0  0  0  0  0  0
    2.3930    2.5739   -0.3140 C   0  0  0  0  0  0  0  0  0  0  0  0
    1.4963    1.5552   -0.6426 C   0  0  0  0  0  0  0  0  0  0  0  0
   -0.8689   -1.9809    0.7981 H   0  0  0  0  0  0  0  0  0  0  0  0
   -1.1395    0.7766   -1.3759 H   0  0  0  0  0  0  0  0  0  0  0  0
   -2.0098   -0.6211   -0.7014 H   0  0  0  0  0  0  0  0  0  0  0  0
   -2.7496   -0.4487    1.8868 H   0  0  0  0  0  0  0  0  0  0  0  0
   -2.1048    3.6512    2.2936 H   0  0  0  0  0  0  0  0  0  0  0  0
    0.7973   -0.6618   -2.1842 H   0  0  0  0  0  0  0  0  0  0  0  0
    1.7008   -1.6835   -1.0314 H   0  0  0  0  0  0  0  0  0  0  0  0
   -1.4483   -1.6399   -3.1591 H   0  0  0  0  0  0  0  0  0  0  0  0
   -1.1587   -5.4549   -1.4998 H   0  0  0  0  0  0  0  0  0  0  0  0
    2.9806    1.7688    2.9277 H   0  0  0  0  0  0  0  0  0  0  0  0
    2.6680    3.3107   -1.0578 H   0  0  0  0  0  0  0  0  0  0  0  0
    1.0898    1.5415   -1.6445 H   0  0  0  0  0  0  0  0  0  0  0  0
  1  2  1  0
  2  3  1  0
  3  4  1  0
  4  5  1  0
  5  6  2  0
  6  7  1  0
  7  8  2  0
  2  9  1  0
  9 10  1  0
 10 11  1  0
 11 12  2  0
 12 13  1  0
 13 14  2  0
  2 15  1  0
 15 16  2  0
 16 17  1  0
 16 18  1  0
 18 19  2  0
 19 20  1  0
 19 21  1  0
 21 22  2  0
  8  4  1  0
 14 10  1  0
 22 15  1  0
  1 23  1  0
  3 24  1  0
  3 25  1  0
  5 26  1  0
  7 27  1  0
  9 28  1  0
  9 29  1  0
 11 30  1  0
 13 31  1  0
 18 32  1  0
 21 33  1  0
 22 34  1  0
M  END
$$$$
