
     RDKit          3D

 55 58  0  0  0  0  0  0  0  0999 V2000
   -6.7034   -1.8554   -2.6622 C   0  0  0  0  0  0  0  0  0  0  0  0
   -6.7523   -0.9990   -1.5252 O   0  0  0  0  0  0  0  0  0  0  0  0
   -5.6366   -0.4033   -0.9157 C   0  0  0  0  0  0  0  0  0  0  0  0
   -4.3380   -0.6244   -1.4148 C   0  0  0  0  0  0  0  0  0  0  0  0
   -3.2216   -0.0457   -0.8044 C   0  0  0  0  0  0  0  0  0  0  0  0
   -1.9150   -0.2814   -1.3568 N   0  0  0  0  0  0  0  0  0  0  0  0
   -0.7214   -0.4158   -0.5720 C   0  0  0  0  0  0  0  0  0  0  0  0
    0.4897   -0.4157   -1.1897 N   0  0  0  0  0  0  0  0  0  0  0  0
    1.6502   -0.5614   -0.4918 C   0  0  0  0  0  0  0  0  0  0  0  0
    1.5855   -0.7438    0.8991 C   0  0  0  0  0  0  0  0  0  0  0  0
    0.3365   -0.7538    1.5166 C   0  0  0  0  0  0  0  0  0  0  0  0
   -0.7884   -0.5946    0.7749 N   0  0  0  0  0  0  0  0  0  0  0  0
    2.9137   -0.5622   -1.1930 N   0  0  0  0  0  0  0  0  0  0  0  0
    2.9418   -0.9092   -2.6173 C   0  0  0  0  0  0  0  0  0  0  0  0
    4.1471   -0.2500   -0.5163 C   0  0  0  0  0  0  0  0  0  0  0  0
    5.2563   -1.1215   -0.6210 C   0  0  0  0  0  0  0  0  0  0  0  0
    6.4241   -0.7710    0.0511 C   0  0  0  0  0  0  0  0  0  0  0  0
    6.5182    0.3721    0.7896 C   0  0  0  0  0  0  0  0  0  0  0  0
    5.4557    1.2622    0.9153 C   0  0  0  0  0  0  0  0  0  0  0  0
    4.2573    0.9416    0.2506 C   0  0  0  0  0  0  0  0  0  0  0  0
    7.8042    0.3701    1.2886 C   0  0  0  0  0  0  0  0  0  0  0  0
    8.4359    1.4237    2.1368 C   0  0  0  0  0  0  0  0  0  0  0  0
    8.4425   -0.7396    0.8440 N   0  0  0  0  0  0  0  0  0  0  0  0
    7.5921   -1.4326    0.0937 N   0  0  0  0  0  0  0  0  0  0  0  0
   -3.4036    0.8022    0.2949 C   0  0  0  0  0  0  0  0  0  0  0  0
   -4.6888    1.0373    0.8131 C   0  0  0  0  0  0  0  0  0  0  0  0
   -4.8976    1.8712    1.9242 O   0  0  0  0  0  0  0  0  0  0  0  0
   -3.8643    2.5411    2.6395 C   0  0  0  0  0  0  0  0  0  0  0  0
   -5.8089    0.4345    0.2168 C   0  0  0  0  0  0  0  0  0  0  0  0
   -7.0608    0.7149    0.7982 O   0  0  0  0  0  0  0  0  0  0  0  0
   -8.3249    0.2167    0.3743 C   0  0  0  0  0  0  0  0  0  0  0  0
   -7.7344   -2.1740   -2.9190 H   0  0  0  0  0  0  0  0  0  0  0  0
   -6.2733   -1.3135   -3.5308 H   0  0  0  0  0  0  0  0  0  0  0  0
   -6.0996   -2.7591   -2.4345 H   0  0  0  0  0  0  0  0  0  0  0  0
   -4.1803   -1.2588   -2.2764 H   0  0  0  0  0  0  0  0  0  0  0  0
   -1.8368   -0.4468   -2.3860 H   0  0  0  0  0  0  0  0  0  0  0  0
    2.4767   -0.8942    1.4942 H   0  0  0  0  0  0  0  0  0  0  0  0
    0.2600   -0.8967    2.5861 H   0  0  0  0  0  0  0  0  0  0  0  0
    2.2270   -0.2724   -3.1800 H   0  0  0  0  0  0  0  0  0  0  0  0
    3.9508   -0.7444   -3.0527 H   0  0  0  0  0  0  0  0  0  0  0  0
    2.6651   -1.9766   -2.7466 H   0  0  0  0  0  0  0  0  0  0  0  0
    5.2022   -2.0376   -1.1953 H   0  0  0  0  0  0  0  0  0  0  0  0
    5.5456    2.1684    1.5001 H   0  0  0  0  0  0  0  0  0  0  0  0
    3.4154    1.6181    0.3244 H   0  0  0  0  0  0  0  0  0  0  0  0
    9.4239    1.0766    2.5053 H   0  0  0  0  0  0  0  0  0  0  0  0
    8.5752    2.3478    1.5382 H   0  0  0  0  0  0  0  0  0  0  0  0
    7.7844    1.6451    3.0080 H   0  0  0  0  0  0  0  0  0  0  0  0
    7.8185   -2.3357   -0.3790 H   0  0  0  0  0  0  0  0  0  0  0  0
   -2.5459    1.2962    0.7280 H   0  0  0  0  0  0  0  0  0  0  0  0
   -3.3314    3.2475    1.9685 H   0  0  0  0  0  0  0  0  0  0  0  0
   -3.1513    1.8021    3.0626 H   0  0  0  0  0  0  0  0  0  0  0  0
   -4.3156    3.1166    3.4734 H   0  0  0  0  0  0  0  0  0  0  0  0
   -9.1112    0.6183    1.0457 H   0  0  0  0  0  0  0  0  0  0  0  0
   -8.3445   -0.8913    0.4425 H   0  0  0  0  0  0  0  0  0  0  0  0
   -8.5459    0.5571   -0.6591 H   0  0  0  0  0  0  0  0  0  0  0  0
  1  2  1  0
  2  3  1  0
  3  4  2  0
  4  5  1  0
  5  6  1  0
  6  7  1  0
  7  8  2  0
  8  9  1  0
  9 10  2  0
 10 11  1  0
 11 12  2  0
  9 13  1  0
 13 14  1  0
 13 15  1  0
 15 16  2  0
 16 17  1  0
 17 18  2  0
 18 19  1  0
 19 20  2  0
 18 21  1  0
 21 22  1  0
 21 23  2  0
 23 24  1  0
  5 25  2  0
 25 26  1  0
 26 27  1  0
 27 28  1  0
 26 29  2  0
 29 30  1  0
 30 31  1  0
 29  3  1  0
 12  7  1  0
 20 15  1  0
 24 17  1  0
  1 32  1  0
  1 33  1  0
  1 34  1  0
  4 35  1  0
  6 36  1  0
 10 37  1  0
 11 38  1  0
 14 39  1  0
 14 40  1  0
 14 41  1  0
 16 42  1  0
 19 43  1  0
 20 44  1  0
 22 45  1  0
 22 46  1  0
 22 47  1  0
 24 48  1  0
 25 49  1  0
 28 50  1  0
 28 51  1  0
 28 52  1  0
 31 53  1  0
 31 54  1  0
 31 55  1  0
M  END
$$$$
