
     RDKit          3D

 49 46  0  0  0  0  0  0  0  0999 V2000
    0.0000    0.0000    0.0000 Fe  0  0  0  0  0 15  0  0  0  0  0  0
    1.1931    0.2039    0.9183 C   0  0  2  0  0  0  0  0  0  0  0  0
    0.2329    0.7207    1.8024 O   0  0  0  0  0  0  0  0  0  0  0  0
    1.7791    1.3353    0.0523 C   0  0  0  0  0  0  0  0  0  0  0  0
    2.7234    0.8381   -0.8578 O   0  0  0  0  0  0  0  0  0  0  0  0
    0.5989   -0.9836    0.1056 C   0  0  1  0  0  0  0  0  0  0  0  0
    0.0776   -1.9425    0.9917 O   0  0  0  0  0  0  0  0  0  0  0  0
   -0.4757   -0.6409   -0.9694 C   0  0  2  0  0  0  0  0  0  0  0  0
    0.1376    0.0352   -2.0391 O   0  0  0  0  0  0  0  0  0  0  0  0
   -1.6937    0.1740   -0.4644 C   0  0  1  0  0  0  0  0  0  0  0  0
   -2.5594    0.4184   -1.5427 O   0  0  0  0  0  0  0  0  0  0  0  0
   -2.4547   -0.5636    0.6034 C   0  0  0  0  0  0  0  0  0  0  0  0
   -3.0059   -1.8105    0.3337 O   0  0  0  0  0  1  0  0  0  0  0  0
   -2.6199   -0.0443    1.7384 O   0  0  0  0  0  0  0  0  0  0  0  0
    1.6505   -0.1989   -0.3580 C   0  0  2  0  0  0  0  0  0  0  0  0
    2.7718   -0.6293   -1.0906 O   0  0  0  0  0  0  0  0  0  0  0  0
    1.8157   -0.5874    1.1301 C   0  0  0  0  0  0  0  0  0  0  0  0
    1.0002    0.1981    1.9569 O   0  0  0  0  0  0  0  0  0  0  0  0
    0.3545   -0.7496   -1.0189 C   0  0  1  0  0  0  0  0  0  0  0  0
    0.3689   -2.1553   -0.9551 O   0  0  0  0  0  0  0  0  0  0  0  0
   -0.9725   -0.2208   -0.4040 C   0  0  2  0  0  0  0  0  0  0  0  0
   -2.0585   -0.8003   -1.0871 O   0  0  0  0  0  0  0  0  0  0  0  0
   -1.1043    1.3234   -0.4688 C   0  0  1  0  0  0  0  0  0  0  0  0
   -0.9227    1.8140   -1.7754 O   0  0  0  0  0  0  0  0  0  0  0  0
   -2.4232    1.7805    0.0961 C   0  0  0  0  0  0  0  0  0  0  0  0
   -2.5241    2.0958    1.4454 O   0  0  0  0  0  1  0  0  0  0  0  0
   -3.4508    1.8330   -0.6309 O   0  0  0  0  0  0  0  0  0  0  0  0
    2.0348   -0.2157    1.5191 H   0  0  0  0  0  0  0  0  0  0  0  0
    0.7226    1.2343    2.4970 H   0  0  0  0  0  0  0  0  0  0  0  0
    2.2557    2.0981    0.7094 H   0  0  0  0  0  0  0  0  0  0  0  0
    0.9738    1.8555   -0.5049 H   0  0  0  0  0  0  0  0  0  0  0  0
    3.5350    0.6147   -0.3315 H   0  0  0  0  0  0  0  0  0  0  0  0
    1.4441   -1.4562   -0.4499 H   0  0  0  0  0  0  0  0  0  0  0  0
    0.8499   -2.3889    1.4283 H   0  0  0  0  0  0  0  0  0  0  0  0
   -0.8583   -1.6202   -1.3482 H   0  0  0  0  0  0  0  0  0  0  0  0
   -0.3867   -0.1654   -2.8582 H   0  0  0  0  0  0  0  0  0  0  0  0
   -1.3359    1.1505   -0.0682 H   0  0  0  0  0  0  0  0  0  0  0  0
   -3.1682    1.1529   -1.2654 H   0  0  0  0  0  0  0  0  0  0  0  0
    1.6500    0.9080   -0.4296 H   0  0  0  0  0  0  0  0  0  0  0  0
    2.8575   -1.6111   -0.9682 H   0  0  0  0  0  0  0  0  0  0  0  0
    1.5595   -1.6569    1.2825 H   0  0  0  0  0  0  0  0  0  0  0  0
    2.8806   -0.4623    1.4338 H   0  0  0  0  0  0  0  0  0  0  0  0
    1.4322    1.0897    2.0202 H   0  0  0  0  0  0  0  0  0  0  0  0
    0.3849   -0.4310   -2.0887 H   0  0  0  0  0  0  0  0  0  0  0  0
   -0.0988   -2.4935   -1.7631 H   0  0  0  0  0  0  0  0  0  0  0  0
   -1.0169   -0.5202    0.6689 H   0  0  0  0  0  0  0  0  0  0  0  0
   -2.2474   -1.6743   -0.6551 H   0  0  0  0  0  0  0  0  0  0  0  0
   -0.3205    1.7783    0.1697 H   0  0  0  0  0  0  0  0  0  0  0  0
   -1.5865    1.3699   -2.3651 H   0  0  0  0  0  0  0  0  0  0  0  0
  2  3  1  0
  2  4  1  0
  4  5  1  0
  2  6  1  0
  6  7  1  0
  6  8  1  0
  8  9  1  0
  8 10  1  0
 10 11  1  0
 10 12  1  0
 12 13  1  0
 12 14  2  0
 15 16  1  0
 15 17  1  0
 17 18  1  0
 15 19  1  0
 19 20  1  0
 19 21  1  0
 21 22  1  0
 21 23  1  0
 23 24  1  0
 23 25  1  0
 25 26  1  0
 25 27  2  0
  2 28  1  1
  3 29  1  0
  4 30  1  0
  4 31  1  0
  5 32  1  0
  6 33  1  6
  7 34  1  0
  8 35  1  6
  9 36  1  0
 10 37  1  1
 11 38  1  0
 15 39  1  1
 16 40  1  0
 17 41  1  0
 17 42  1  0
 18 43  1  0
 19 44  1  6
 20 45  1  0
 21 46  1  1
 22 47  1  0
 23 48  1  1
 24 49  1  0
M  CHG  3   1   2  13  -1  26  -1
M  END
$$$$
