
     RDKit          3D

 50 52  0  0  0  0  0  0  0  0999 V2000
    3.2295   -0.6887    1.4884 O   0  0  0  0  0  0  0  0  0  0  0  0
    3.0877    0.4859    1.0500 C   0  0  0  0  0  0  0  0  0  0  0  0
    2.0290    1.3664    1.6767 C   0  0  2  0  0  0  0  0  0  0  0  0
    2.4913    1.8577    3.0534 C   0  0  0  0  0  0  0  0  0  0  0  0
    0.7541    0.6376    1.7584 N   0  0  0  0  0  0  0  0  0  0  0  0
    0.3052   -0.1770    2.8781 C   0  0  0  0  0  0  0  0  0  0  0  0
   -1.0082   -0.8433    2.4281 C   0  0  0  0  0  0  0  0  0  0  0  0
   -1.1792   -0.5645    0.9197 C   0  0  2  0  0  0  0  0  0  0  0  0
   -1.0069   -1.7977    0.1347 N   0  0  0  0  0  0  0  0  0  0  0  0
   -2.5137   -2.6615    0.0169 S   0  0  0  0  0  6  0  0  0  0  0  0
   -3.1186   -2.8380    1.3820 O   0  0  0  0  0  0  0  0  0  0  0  0
   -2.2524   -4.0108   -0.5902 O   0  0  0  0  0  0  0  0  0  0  0  0
   -3.6281   -1.7741   -1.0115 C   0  0  0  0  0  0  0  0  0  0  0  0
   -4.8821   -2.1966   -1.1781 C   0  0  0  0  0  0  0  0  0  0  0  0
   -5.8515   -1.4843   -2.0281 C   0  0  0  0  0  0  0  0  0  0  0  0
   -7.1670   -1.8860   -2.2340 C   0  0  0  0  0  0  0  0  0  0  0  0
   -7.8812   -1.0341   -3.0851 C   0  0  0  0  0  0  0  0  0  0  0  0
   -7.1265    0.0343   -3.5455 C   0  0  0  0  0  0  0  0  0  0  0  0
   -7.6892    1.2948   -4.6227 Cl  0  0  0  0  0  0  0  0  0  0  0  0
   -5.5772   -0.0682   -2.9050 S   0  0  0  0  0  0  0  0  0  0  0  0
   -0.0802    0.3925    0.6413 C   0  0  0  0  0  0  0  0  0  0  0  0
    0.0980    0.9422   -0.4790 O   0  0  0  0  0  0  0  0  0  0  0  0
    3.9381    0.9489   -0.0226 N   0  0  0  0  0  0  0  0  0  0  0  0
    4.3917   -0.0122   -1.0366 C   0  0  0  0  0  0  0  0  0  0  0  0
    5.7093    0.4542   -1.6616 C   0  0  0  0  0  0  0  0  0  0  0  0
    5.6050    1.7895   -2.1134 O   0  0  0  0  0  0  0  0  0  0  0  0
    5.4262    2.6492   -1.0057 C   0  0  0  0  0  0  0  0  0  0  0  0
    4.0848    2.3806   -0.3165 C   0  0  0  0  0  0  0  0  0  0  0  0
    1.8570    2.2668    1.0509 H   0  0  0  0  0  0  0  0  0  0  0  0
    3.4135    2.4682    2.9524 H   0  0  0  0  0  0  0  0  0  0  0  0
    2.7083    1.0031    3.7294 H   0  0  0  0  0  0  0  0  0  0  0  0
    1.7036    2.4919    3.5126 H   0  0  0  0  0  0  0  0  0  0  0  0
    1.0665   -0.9529    3.1085 H   0  0  0  0  0  0  0  0  0  0  0  0
    0.1333    0.4574    3.7740 H   0  0  0  0  0  0  0  0  0  0  0  0
   -1.8618   -0.3983    2.9850 H   0  0  0  0  0  0  0  0  0  0  0  0
   -0.9768   -1.9322    2.6509 H   0  0  0  0  0  0  0  0  0  0  0  0
   -2.1533   -0.0686    0.7091 H   0  0  0  0  0  0  0  0  0  0  0  0
   -0.7474   -1.5488   -0.8481 H   0  0  0  0  0  0  0  0  0  0  0  0
   -3.2699   -0.8804   -1.5052 H   0  0  0  0  0  0  0  0  0  0  0  0
   -5.2094   -3.0970   -0.6720 H   0  0  0  0  0  0  0  0  0  0  0  0
   -7.6004   -2.7692   -1.7829 H   0  0  0  0  0  0  0  0  0  0  0  0
   -8.9166   -1.1941   -3.3550 H   0  0  0  0  0  0  0  0  0  0  0  0
    3.6157   -0.0974   -1.8277 H   0  0  0  0  0  0  0  0  0  0  0  0
    4.5515   -1.0180   -0.5920 H   0  0  0  0  0  0  0  0  0  0  0  0
    6.5479    0.3365   -0.9373 H   0  0  0  0  0  0  0  0  0  0  0  0
    5.9398   -0.1958   -2.5319 H   0  0  0  0  0  0  0  0  0  0  0  0
    6.2648    2.5504   -0.2785 H   0  0  0  0  0  0  0  0  0  0  0  0
    5.4354    3.6987   -1.3684 H   0  0  0  0  0  0  0  0  0  0  0  0
    3.2547    2.7056   -0.9804 H   0  0  0  0  0  0  0  0  0  0  0  0
    4.0559    2.9775    0.6197 H   0  0  0  0  0  0  0  0  0  0  0  0
  1  2  2  0
  2  3  1  0
  3  4  1  0
  3  5  1  0
  5  6  1  0
  6  7  1  0
  7  8  1  0
  8  9  1  0
  9 10  1  0
 10 11  2  0
 10 12  2  0
 10 13  1  0
 13 14  2  0
 14 15  1  0
 15 16  2  0
 16 17  1  0
 17 18  2  0
 18 19  1  0
 18 20  1  0
  8 21  1  0
 21 22  2  0
  2 23  1  0
 23 24  1  0
 24 25  1  0
 25 26  1  0
 26 27  1  0
 27 28  1  0
 21  5  1  0
 28 23  1  0
 20 15  1  0
  3 29  1  6
  4 30  1  0
  4 31  1  0
  4 32  1  0
  6 33  1  0
  6 34  1  0
  7 35  1  0
  7 36  1  0
  8 37  1  1
  9 38  1  0
 13 39  1  0
 14 40  1  0
 16 41  1  0
 17 42  1  0
 24 43  1  0
 24 44  1  0
 25 45  1  0
 25 46  1  0
 27 47  1  0
 27 48  1  0
 28 49  1  0
 28 50  1  0
M  END
$$$$
