
     RDKit          3D

 64 66  0  0  0  0  0  0  0  0999 V2000
    7.4901   -2.8667    1.6282 C   0  0  0  0  0  0  0  0  0  0  0  0
    6.4167   -2.0277    1.2143 O   0  0  0  0  0  0  0  0  0  0  0  0
    5.8218   -2.0670   -0.0567 C   0  0  0  0  0  0  0  0  0  0  0  0
    6.2496   -2.9642   -1.0557 C   0  0  0  0  0  0  0  0  0  0  0  0
    5.6311   -2.9724   -2.3077 C   0  0  0  0  0  0  0  0  0  0  0  0
    4.5845   -2.0905   -2.5771 C   0  0  0  0  0  0  0  0  0  0  0  0
    4.1516   -1.1965   -1.5956 C   0  0  0  0  0  0  0  0  0  0  0  0
    4.7676   -1.1788   -0.3281 C   0  0  0  0  0  0  0  0  0  0  0  0
    4.3616   -0.2967    0.6853 O   0  0  0  0  0  0  0  0  0  0  0  0
    3.3048    0.6513    0.5544 C   0  0  0  0  0  0  0  0  0  0  0  0
    3.1417    1.4234    1.8696 C   0  0  0  0  0  0  0  0  0  0  0  0
    2.5891    0.6001    2.8644 O   0  0  0  0  0  0  0  0  0  0  0  0
    2.3294    2.7395    1.7348 C   0  0  0  0  0  0  0  0  0  0  0  0
    0.9436    2.6416    1.2124 N   0  0  0  0  0  0  0  0  0  0  0  0
    0.0984    1.6069    1.8268 C   0  0  0  0  0  0  0  0  0  0  0  0
   -1.3679    1.8108    1.4111 C   0  0  0  0  0  0  0  0  0  0  0  0
   -1.5394    1.9033   -0.0577 N   0  0  0  0  0  0  0  0  0  0  0  0
   -1.4553    0.5932   -0.7388 C   0  0  0  0  0  0  0  0  0  0  0  0
   -2.7073   -0.1944   -0.5009 C   0  0  0  0  0  0  0  0  0  0  0  0
   -2.6527   -1.2702    0.1547 O   0  0  0  0  0  0  0  0  0  0  0  0
   -3.9577    0.2769   -1.0198 N   0  0  0  0  0  0  0  0  0  0  0  0
   -5.1968   -0.3978   -0.7560 C   0  0  0  0  0  0  0  0  0  0  0  0
   -5.7513   -0.4006    0.5461 C   0  0  0  0  0  0  0  0  0  0  0  0
   -5.0728    0.3046    1.6898 C   0  0  0  0  0  0  0  0  0  0  0  0
   -6.9507   -1.0896    0.7838 C   0  0  0  0  0  0  0  0  0  0  0  0
   -7.6180   -1.7295   -0.2601 C   0  0  0  0  0  0  0  0  0  0  0  0
   -7.0945   -1.6970   -1.5522 C   0  0  0  0  0  0  0  0  0  0  0  0
   -5.8827   -1.0383   -1.8116 C   0  0  0  0  0  0  0  0  0  0  0  0
   -5.3283   -1.0194   -3.2100 C   0  0  0  0  0  0  0  0  0  0  0  0
   -0.6297    2.9081   -0.6473 C   0  0  0  0  0  0  0  0  0  0  0  0
    0.8311    2.6583   -0.2551 C   0  0  0  0  0  0  0  0  0  0  0  0
    7.7592   -2.6204    2.6758 H   0  0  0  0  0  0  0  0  0  0  0  0
    8.3782   -2.6965    0.9837 H   0  0  0  0  0  0  0  0  0  0  0  0
    7.1815   -3.9324    1.5817 H   0  0  0  0  0  0  0  0  0  0  0  0
    7.0584   -3.6587   -0.8743 H   0  0  0  0  0  0  0  0  0  0  0  0
    5.9642   -3.6640   -3.0708 H   0  0  0  0  0  0  0  0  0  0  0  0
    4.1074   -2.0994   -3.5486 H   0  0  0  0  0  0  0  0  0  0  0  0
    3.3384   -0.5240   -1.8322 H   0  0  0  0  0  0  0  0  0  0  0  0
    2.3675    0.1076    0.3164 H   0  0  0  0  0  0  0  0  0  0  0  0
    3.5551    1.3599   -0.2650 H   0  0  0  0  0  0  0  0  0  0  0  0
    4.1619    1.7367    2.1963 H   0  0  0  0  0  0  0  0  0  0  0  0
    3.2975   -0.0379    3.1419 H   0  0  0  0  0  0  0  0  0  0  0  0
    2.9148    3.4548    1.1156 H   0  0  0  0  0  0  0  0  0  0  0  0
    2.2791    3.2067    2.7422 H   0  0  0  0  0  0  0  0  0  0  0  0
    0.4307    0.5911    1.5329 H   0  0  0  0  0  0  0  0  0  0  0  0
    0.1570    1.6843    2.9344 H   0  0  0  0  0  0  0  0  0  0  0  0
   -1.9856    0.9872    1.8290 H   0  0  0  0  0  0  0  0  0  0  0  0
   -1.7426    2.7502    1.8732 H   0  0  0  0  0  0  0  0  0  0  0  0
   -0.5673    0.0139   -0.4084 H   0  0  0  0  0  0  0  0  0  0  0  0
   -1.3619    0.7293   -1.8384 H   0  0  0  0  0  0  0  0  0  0  0  0
   -3.9524    1.0573   -1.7144 H   0  0  0  0  0  0  0  0  0  0  0  0
   -4.6032    1.2501    1.3458 H   0  0  0  0  0  0  0  0  0  0  0  0
   -5.8032    0.5670    2.4845 H   0  0  0  0  0  0  0  0  0  0  0  0
   -4.2962   -0.3557    2.1278 H   0  0  0  0  0  0  0  0  0  0  0  0
   -7.3782   -1.1212    1.7785 H   0  0  0  0  0  0  0  0  0  0  0  0
   -8.5483   -2.2484   -0.0679 H   0  0  0  0  0  0  0  0  0  0  0  0
   -7.6337   -2.1932   -2.3497 H   0  0  0  0  0  0  0  0  0  0  0  0
   -5.9046   -1.6846   -3.8877 H   0  0  0  0  0  0  0  0  0  0  0  0
   -5.3701    0.0142   -3.6128 H   0  0  0  0  0  0  0  0  0  0  0  0
   -4.2736   -1.3671   -3.2041 H   0  0  0  0  0  0  0  0  0  0  0  0
   -0.9301    3.9183   -0.2922 H   0  0  0  0  0  0  0  0  0  0  0  0
   -0.7248    2.9240   -1.7552 H   0  0  0  0  0  0  0  0  0  0  0  0
    1.1684    1.7046   -0.7037 H   0  0  0  0  0  0  0  0  0  0  0  0
    1.4487    3.4795   -0.6795 H   0  0  0  0  0  0  0  0  0  0  0  0
  1  2  1  0
  2  3  1  0
  3  4  2  0
  4  5  1  0
  5  6  2  0
  6  7  1  0
  7  8  2  0
  8  9  1  0
  9 10  1  0
 10 11  1  0
 11 12  1  0
 11 13  1  0
 13 14  1  0
 14 15  1  0
 15 16  1  0
 16 17  1  0
 17 18  1  0
 18 19  1  0
 19 20  2  0
 19 21  1  0
 21 22  1  0
 22 23  2  0
 23 24  1  0
 23 25  1  0
 25 26  2  0
 26 27  1  0
 27 28  2  0
 28 29  1  0
 17 30  1  0
 30 31  1  0
  8  3  1  0
 31 14  1  0
 28 22  1  0
  1 32  1  0
  1 33  1  0
  1 34  1  0
  4 35  1  0
  5 36  1  0
  6 37  1  0
  7 38  1  0
 10 39  1  0
 10 40  1  0
 11 41  1  0
 12 42  1  0
 13 43  1  0
 13 44  1  0
 15 45  1  0
 15 46  1  0
 16 47  1  0
 16 48  1  0
 18 49  1  0
 18 50  1  0
 21 51  1  0
 24 52  1  0
 24 53  1  0
 24 54  1  0
 25 55  1  0
 26 56  1  0
 27 57  1  0
 29 58  1  0
 29 59  1  0
 29 60  1  0
 30 61  1  0
 30 62  1  0
 31 63  1  0
 31 64  1  0
M  END
$$$$
