
     RDKit          3D

 94 97  0  0  0  0  0  0  0  0999 V2000
    3.9942    1.1038   -1.7664 C   0  0  2  0  0  0  0  0  0  0  0  0
    3.1171    2.2653   -1.2908 C   0  0  0  0  0  0  0  0  0  0  0  0
    1.7951    2.3036   -2.0739 C   0  0  2  0  0  0  0  0  0  0  0  0
    2.0604    2.6019   -3.4221 O   0  0  0  0  0  0  0  0  0  0  0  0
    0.8477    3.3736   -1.4892 C   0  0  0  0  0  0  0  0  0  0  0  0
   -0.5979    3.2675   -2.0425 C   0  0  2  0  0  0  0  0  0  0  0  0
   -0.5636    3.3345   -3.4519 O   0  0  0  0  0  0  0  0  0  0  0  0
   -1.4740    4.4380   -1.4796 C   0  0  0  0  0  0  0  0  0  0  0  0
   -2.5186    3.9487   -0.4670 C   0  0  2  0  0  0  0  0  0  0  0  0
   -1.8537    3.5216    0.6957 O   0  0  0  0  0  0  0  0  0  0  0  0
   -3.3558    2.7844   -1.0563 C   0  0  1  0  0  0  0  0  0  0  0  0
   -4.5596    3.2890   -1.8127 C   0  0  0  0  0  0  0  0  0  0  0  0
   -5.8256    2.8087   -1.4901 O   0  0  0  0  0  0  0  0  0  0  0  0
   -4.4276    4.1190   -2.7523 O   0  0  0  0  0  0  0  0  0  0  0  0
   -2.4811    1.8608   -1.9594 C   0  0  2  0  0  0  0  0  0  0  0  0
   -2.8899    0.3712   -1.8824 C   0  0  0  0  0  0  0  0  0  0  0  0
   -2.6190   -0.3467   -0.5360 C   0  0  1  0  0  0  0  0  0  0  0  0
   -3.3480   -1.5684   -0.5385 O   0  0  0  0  0  0  0  0  0  0  0  0
   -4.3157   -1.6344    0.4976 C   0  0  2  0  0  0  0  0  0  0  0  0
   -4.6435   -2.9992    0.6941 O   0  0  0  0  0  0  0  0  0  0  0  0
   -5.5050   -3.1592    1.8098 C   0  0  2  0  0  0  0  0  0  0  0  0
   -5.6634   -4.6565    2.0806 C   0  0  0  0  0  0  0  0  0  0  0  0
   -6.8787   -2.5050    1.5360 C   0  0  1  0  0  0  0  0  0  0  0  0
   -7.6838   -2.6100    2.6832 O   0  0  0  0  0  0  0  0  0  0  0  0
   -6.6824   -1.0181    1.1751 C   0  0  2  0  0  0  0  0  0  0  0  0
   -7.9522   -0.4134    0.7614 N   0  0  0  0  0  0  0  0  0  0  0  0
   -5.5854   -0.8407    0.0980 C   0  0  2  0  0  0  0  0  0  0  0  0
   -6.0395   -1.2136   -1.1821 O   0  0  0  0  0  0  0  0  0  0  0  0
   -1.1571   -0.6691   -0.3443 C   0  0  0  0  0  0  0  0  0  0  0  0
   -0.7409   -1.2598    0.7843 C   0  0  0  0  0  0  0  0  0  0  0  0
    0.6652   -1.6001    1.0771 C   0  0  0  0  0  0  0  0  0  0  0  0
    1.7116   -0.9149    0.5939 C   0  0  0  0  0  0  0  0  0  0  0  0
    3.1087   -1.1909    0.9930 C   0  0  0  0  0  0  0  0  0  0  0  0
    3.5365   -2.4042    1.3742 C   0  0  0  0  0  0  0  0  0  0  0  0
    4.9106   -2.6880    1.8377 C   0  0  0  0  0  0  0  0  0  0  0  0
    5.7166   -1.7697    2.3869 C   0  0  0  0  0  0  0  0  0  0  0  0
    7.0733   -2.1316    2.9217 C   0  0  0  0  0  0  0  0  0  0  0  0
    8.2084   -1.5511    2.0603 C   0  0  1  0  0  0  0  0  0  0  0  0
    9.5552   -1.8150    2.7336 C   0  0  0  0  0  0  0  0  0  0  0  0
    8.2262   -2.1737    0.7722 O   0  0  0  0  0  0  0  0  0  0  0  0
    7.5548   -1.7322   -0.3791 C   0  0  0  0  0  0  0  0  0  0  0  0
    7.6381   -2.4437   -1.4158 O   0  0  0  0  0  0  0  0  0  0  0  0
    6.7781   -0.4701   -0.4247 C   0  0  0  0  0  0  0  0  0  0  0  0
    6.2361   -0.0134   -1.5560 C   0  0  0  0  0  0  0  0  0  0  0  0
    5.4514    1.2595   -1.5567 C   0  0  1  0  0  0  0  0  0  0  0  0
    4.8547    1.4865   -2.8143 O   0  0  0  0  0  0  0  0  0  0  0  0
   -1.1073    1.9976   -1.6443 O   0  0  0  0  0  0  0  0  0  0  0  0
    3.5787    0.0821   -1.9067 H   0  0  0  0  0  0  0  0  0  0  0  0
    2.9080    2.1099   -0.2106 H   0  0  0  0  0  0  0  0  0  0  0  0
    3.6430    3.2406   -1.4012 H   0  0  0  0  0  0  0  0  0  0  0  0
    1.3020    1.3074   -1.9856 H   0  0  0  0  0  0  0  0  0  0  0  0
    2.2040    1.7385   -3.8907 H   0  0  0  0  0  0  0  0  0  0  0  0
    0.8043    3.2622   -0.3828 H   0  0  0  0  0  0  0  0  0  0  0  0
    1.2670    4.3812   -1.7074 H   0  0  0  0  0  0  0  0  0  0  0  0
   -0.1854    4.2179   -3.7044 H   0  0  0  0  0  0  0  0  0  0  0  0
   -2.0086    4.9423   -2.3134 H   0  0  0  0  0  0  0  0  0  0  0  0
   -0.8503    5.2259   -1.0024 H   0  0  0  0  0  0  0  0  0  0  0  0
   -3.1824    4.8085   -0.2091 H   0  0  0  0  0  0  0  0  0  0  0  0
   -2.5274    3.5078    1.4250 H   0  0  0  0  0  0  0  0  0  0  0  0
   -3.7629    2.2204   -0.1950 H   0  0  0  0  0  0  0  0  0  0  0  0
   -6.6455    3.1241   -1.9943 H   0  0  0  0  0  0  0  0  0  0  0  0
   -2.6423    2.1414   -3.0273 H   0  0  0  0  0  0  0  0  0  0  0  0
   -2.3748   -0.1845   -2.6972 H   0  0  0  0  0  0  0  0  0  0  0  0
   -3.9757    0.3099   -2.1102 H   0  0  0  0  0  0  0  0  0  0  0  0
   -2.8986    0.3301    0.2994 H   0  0  0  0  0  0  0  0  0  0  0  0
   -3.8967   -1.2247    1.4499 H   0  0  0  0  0  0  0  0  0  0  0  0
   -5.0503   -2.7101    2.7243 H   0  0  0  0  0  0  0  0  0  0  0  0
   -6.1270   -5.1629    1.2070 H   0  0  0  0  0  0  0  0  0  0  0  0
   -6.2949   -4.8272    2.9782 H   0  0  0  0  0  0  0  0  0  0  0  0
   -4.6667   -5.1107    2.2655 H   0  0  0  0  0  0  0  0  0  0  0  0
   -7.3618   -3.0380    0.6828 H   0  0  0  0  0  0  0  0  0  0  0  0
   -8.6259   -2.5155    2.3845 H   0  0  0  0  0  0  0  0  0  0  0  0
   -6.3378   -0.4908    2.0941 H   0  0  0  0  0  0  0  0  0  0  0  0
   -7.7864    0.5937    0.5318 H   0  0  0  0  0  0  0  0  0  0  0  0
   -8.3018   -0.8813   -0.1061 H   0  0  0  0  0  0  0  0  0  0  0  0
   -5.3287    0.2392    0.0597 H   0  0  0  0  0  0  0  0  0  0  0  0
   -6.1964   -2.1927   -1.1823 H   0  0  0  0  0  0  0  0  0  0  0  0
   -0.4483   -0.4365   -1.1286 H   0  0  0  0  0  0  0  0  0  0  0  0
   -1.4730   -1.5538    1.5259 H   0  0  0  0  0  0  0  0  0  0  0  0
    0.8254   -2.3768    1.8133 H   0  0  0  0  0  0  0  0  0  0  0  0
    1.5412   -0.0460   -0.0240 H   0  0  0  0  0  0  0  0  0  0  0  0
    3.8067   -0.3675    0.9230 H   0  0  0  0  0  0  0  0  0  0  0  0
    2.8679   -3.2528    1.3112 H   0  0  0  0  0  0  0  0  0  0  0  0
    5.2344   -3.7211    1.8016 H   0  0  0  0  0  0  0  0  0  0  0  0
    5.3987   -0.7401    2.4845 H   0  0  0  0  0  0  0  0  0  0  0  0
    7.1909   -3.2359    2.9957 H   0  0  0  0  0  0  0  0  0  0  0  0
    7.1463   -1.7235    3.9531 H   0  0  0  0  0  0  0  0  0  0  0  0
    8.1095   -0.4488    1.9770 H   0  0  0  0  0  0  0  0  0  0  0  0
    9.7232   -2.9067    2.8556 H   0  0  0  0  0  0  0  0  0  0  0  0
   10.3741   -1.3979    2.1096 H   0  0  0  0  0  0  0  0  0  0  0  0
    9.5926   -1.3272    3.7312 H   0  0  0  0  0  0  0  0  0  0  0  0
    6.6368    0.1110    0.4745 H   0  0  0  0  0  0  0  0  0  0  0  0
    6.3523   -0.5598   -2.4851 H   0  0  0  0  0  0  0  0  0  0  0  0
    5.8715    2.1961   -1.1316 H   0  0  0  0  0  0  0  0  0  0  0  0
  1  2  1  0
  2  3  1  0
  3  4  1  0
  3  5  1  0
  5  6  1  0
  6  7  1  6
  6  8  1  0
  8  9  1  0
  9 10  1  0
  9 11  1  0
 11 12  1  0
 12 13  1  0
 12 14  2  0
 11 15  1  0
 15 16  1  0
 16 17  1  0
 17 18  1  0
 18 19  1  0
 19 20  1  0
 20 21  1  0
 21 22  1  0
 21 23  1  0
 23 24  1  0
 23 25  1  0
 25 26  1  0
 25 27  1  0
 27 28  1  0
 17 29  1  0
 29 30  2  0
 30 31  1  0
 31 32  2  0
 32 33  1  0
 33 34  2  0
 34 35  1  0
 35 36  2  0
 36 37  1  0
 37 38  1  0
 38 39  1  0
 38 40  1  0
 40 41  1  0
 41 42  2  0
 41 43  1  0
 43 44  2  0
 44 45  1  0
 45 46  1  0
 15 47  1  0
 45  1  1  0
 46  1  1  0
 47  6  1  0
 27 19  1  0
  1 48  1  6
  2 49  1  0
  2 50  1  0
  3 51  1  6
  4 52  1  0
  5 53  1  0
  5 54  1  0
  7 55  1  0
  8 56  1  0
  8 57  1  0
  9 58  1  1
 10 59  1  0
 11 60  1  1
 13 61  1  0
 15 62  1  6
 16 63  1  0
 16 64  1  0
 17 65  1  1
 19 66  1  1
 21 67  1  1
 22 68  1  0
 22 69  1  0
 22 70  1  0
 23 71  1  6
 24 72  1  0
 25 73  1  1
 26 74  1  0
 26 75  1  0
 27 76  1  6
 28 77  1  0
 29 78  1  0
 30 79  1  0
 31 80  1  0
 32 81  1  0
 33 82  1  0
 34 83  1  0
 35 84  1  0
 36 85  1  0
 37 86  1  0
 37 87  1  0
 38 88  1  6
 39 89  1  0
 39 90  1  0
 39 91  1  0
 43 92  1  0
 44 93  1  0
 45 94  1  1
M  END
$$$$
