
     RDKit          3D

 38 41  0  0  0  0  0  0  0  0999 V2000
   -3.8422    2.8723    1.2863 N   0  0  0  0  0  0  0  0  0  0  0  0
   -3.9899    1.4514    1.2173 C   0  0  0  0  0  0  0  0  0  0  0  0
   -5.0511    0.8217    1.8798 C   0  0  0  0  0  0  0  0  0  0  0  0
   -5.2010   -0.5641    1.8043 C   0  0  0  0  0  0  0  0  0  0  0  0
   -4.2916   -1.3303    1.0707 C   0  0  0  0  0  0  0  0  0  0  0  0
   -3.2147   -0.7168    0.4061 C   0  0  0  0  0  0  0  0  0  0  0  0
   -3.0764    0.6820    0.4814 C   0  0  0  0  0  0  0  0  0  0  0  0
   -2.2548   -1.5386   -0.3700 C   0  0  0  0  0  0  0  0  0  0  0  0
   -0.9383   -1.2753   -0.6912 C   0  0  0  0  0  0  0  0  0  0  0  0
   -0.1764   -0.2052   -0.3564 N   0  0  0  0  0  0  0  0  0  0  0  0
    1.1295   -0.1628   -0.7561 C   0  0  0  0  0  0  0  0  0  0  0  0
    1.9182    0.9925   -0.4313 N   0  0  0  0  0  0  0  0  0  0  0  0
    3.3453    0.9839   -0.2566 C   0  0  0  0  0  0  0  0  0  0  0  0
    4.0858    2.1318   -0.5771 C   0  0  0  0  0  0  0  0  0  0  0  0
    5.4710    2.1548   -0.3892 C   0  0  0  0  0  0  0  0  0  0  0  0
    6.1257    1.0375    0.1352 C   0  0  0  0  0  0  0  0  0  0  0  0
    5.3944   -0.1032    0.4812 C   0  0  0  0  0  0  0  0  0  0  0  0
    6.2137   -1.4978    1.1600 Cl  0  0  0  0  0  0  0  0  0  0  0  0
    4.0076   -0.1286    0.2944 C   0  0  0  0  0  0  0  0  0  0  0  0
    1.6601   -1.2220   -1.5339 C   0  0  0  0  0  0  0  0  0  0  0  0
    0.8394   -2.3145   -1.8427 C   0  0  0  0  0  0  0  0  0  0  0  0
   -0.4384   -2.2945   -1.3962 N   0  0  0  0  0  0  0  0  0  0  0  0
   -1.3548   -3.2310   -1.5651 N   0  0  0  0  0  0  0  0  0  0  0  0
   -2.4763   -2.7942   -0.9421 C   0  0  0  0  0  0  0  0  0  0  0  0
   -4.5183    3.4544    1.8294 H   0  0  0  0  0  0  0  0  0  0  0  0
   -3.0551    3.3529    0.7959 H   0  0  0  0  0  0  0  0  0  0  0  0
   -5.7626    1.4046    2.4511 H   0  0  0  0  0  0  0  0  0  0  0  0
   -6.0229   -1.0465    2.3174 H   0  0  0  0  0  0  0  0  0  0  0  0
   -4.4236   -2.4040    1.0382 H   0  0  0  0  0  0  0  0  0  0  0  0
   -2.2784    1.1845   -0.0475 H   0  0  0  0  0  0  0  0  0  0  0  0
    1.4144    1.8998   -0.3069 H   0  0  0  0  0  0  0  0  0  0  0  0
    3.5890    3.0047   -0.9817 H   0  0  0  0  0  0  0  0  0  0  0  0
    6.0368    3.0404   -0.6483 H   0  0  0  0  0  0  0  0  0  0  0  0
    7.1983    1.0620    0.2794 H   0  0  0  0  0  0  0  0  0  0  0  0
    3.4489   -1.0060    0.5938 H   0  0  0  0  0  0  0  0  0  0  0  0
    2.6770   -1.1954   -1.9024 H   0  0  0  0  0  0  0  0  0  0  0  0
    1.2139   -3.1473   -2.4243 H   0  0  0  0  0  0  0  0  0  0  0  0
   -3.4023   -3.3526   -0.9179 H   0  0  0  0  0  0  0  0  0  0  0  0
  1  2  1  0
  2  3  2  0
  3  4  1  0
  4  5  2  0
  5  6  1  0
  6  7  2  0
  6  8  1  0
  8  9  2  0
  9 10  1  0
 10 11  2  0
 11 12  1  0
 12 13  1  0
 13 14  2  0
 14 15  1  0
 15 16  2  0
 16 17  1  0
 17 18  1  0
 17 19  2  0
 11 20  1  0
 20 21  2  0
 21 22  1  0
 22 23  1  0
 23 24  2  0
  7  2  1  0
 24  8  1  0
 22  9  1  0
 19 13  1  0
  1 25  1  0
  1 26  1  0
  3 27  1  0
  4 28  1  0
  5 29  1  0
  7 30  1  0
 12 31  1  0
 14 32  1  0
 15 33  1  0
 16 34  1  0
 19 35  1  0
 20 36  1  0
 21 37  1  0
 24 38  1  0
M  END
$$$$
