
     RDKit          3D

 22 23  0  0  0  0  0  0  0  0999 V2000
   -1.0766   -0.6566    0.5043 C   0  0  1  0  0  0  0  0  0  0  0  0
   -1.2227   -1.5412   -0.5883 O   0  0  0  0  0  0  0  0  0  0  0  0
   -0.0550   -1.4408   -1.3674 C   0  0  0  0  0  0  0  0  0  0  0  0
    1.0669   -0.9412   -0.4840 C   0  0  1  0  0  0  0  0  0  0  0  0
    2.0094   -0.1795   -1.2375 O   0  0  0  0  0  0  0  0  0  0  0  0
    3.1910    0.2748   -0.6870 N   0  0  0  0  0  4  0  0  0  0  0  0
    3.5251   -0.0184    0.6155 O   0  0  0  0  0  1  0  0  0  0  0  0
    3.9730    0.9506   -1.3843 O   0  0  0  0  0  0  0  0  0  0  0  0
    0.3389   -0.1137    0.5465 C   0  0  1  0  0  0  0  0  0  0  0  0
    0.3212    1.2534    0.1933 O   0  0  0  0  0  0  0  0  0  0  0  0
   -0.9654    1.7275    0.4996 C   0  0  0  0  0  0  0  0  0  0  0  0
   -1.9421    0.5759    0.3236 C   0  0  2  0  0  0  0  0  0  0  0  0
   -3.0037    0.6307    1.2458 O   0  0  0  0  0  0  0  0  0  0  0  0
   -1.3094   -1.1983    1.4480 H   0  0  0  0  0  0  0  0  0  0  0  0
   -0.2408   -0.7318   -2.2047 H   0  0  0  0  0  0  0  0  0  0  0  0
    0.1994   -2.4348   -1.7929 H   0  0  0  0  0  0  0  0  0  0  0  0
    1.5695   -1.8083    0.0011 H   0  0  0  0  0  0  0  0  0  0  0  0
    0.7967   -0.2359    1.5539 H   0  0  0  0  0  0  0  0  0  0  0  0
   -0.9693    2.1124    1.5436 H   0  0  0  0  0  0  0  0  0  0  0  0
   -1.2266    2.5639   -0.1830 H   0  0  0  0  0  0  0  0  0  0  0  0
   -2.3595    0.6084   -0.7077 H   0  0  0  0  0  0  0  0  0  0  0  0
   -2.6198    0.6028    2.1616 H   0  0  0  0  0  0  0  0  0  0  0  0
  1  2  1  0
  2  3  1  0
  3  4  1  0
  4  5  1  0
  5  6  1  0
  6  7  1  0
  6  8  2  0
  4  9  1  0
  9 10  1  0
 10 11  1  0
 11 12  1  0
 12 13  1  0
  9  1  1  0
 12  1  1  0
  1 14  1  1
  3 15  1  0
  3 16  1  0
  4 17  1  1
  9 18  1  1
 11 19  1  0
 11 20  1  0
 12 21  1  6
 13 22  1  0
M  CHG  2   6   1   7  -1
M  END
$$$$
