
     RDKit          3D

 61 63  0  0  0  0  0  0  0  0999 V2000
   -5.7945    0.0527   -1.7670 C   0  0  0  0  0  0  0  0  0  0  0  0
   -5.5094   -0.7449   -0.4904 C   0  0  0  0  0  0  0  0  0  0  0  0
   -4.7670    0.0455    0.6181 C   0  0  2  0  0  0  0  0  0  0  0  0
   -5.6732    1.1818    1.1391 C   0  0  0  0  0  0  0  0  0  0  0  0
   -3.3544    0.5970    0.2079 C   0  0  1  0  0  0  0  0  0  0  0  0
   -2.6737    1.3578    1.3816 C   0  0  0  0  0  0  0  0  0  0  0  0
   -1.1663    1.0936    1.2928 C   0  0  0  0  0  0  0  0  0  0  0  0
   -0.9907    0.4271   -0.0627 C   0  0  1  0  0  0  0  0  0  0  0  0
    0.2617   -0.3619   -0.3814 C   0  0  0  0  0  0  0  0  0  0  0  0
    0.2818   -0.9403   -1.7884 C   0  0  0  0  0  0  0  0  0  0  0  0
   -1.0499   -1.6235   -2.1677 C   0  0  0  0  0  0  0  0  0  0  0  0
   -2.3049   -0.8193   -1.7550 C   0  0  0  0  0  0  0  0  0  0  0  0
   -2.2609   -0.4179   -0.2540 C   0  0  2  0  0  0  0  0  0  0  0  0
   -2.2550   -1.6869    0.6556 C   0  0  0  0  0  0  0  0  0  0  0  0
    1.3534   -0.3134    0.4096 C   0  0  0  0  0  0  0  0  0  0  0  0
    2.6109   -1.0351    0.1222 C   0  0  0  0  0  0  0  0  0  0  0  0
    3.8347   -0.5733    0.4454 C   0  0  0  0  0  0  0  0  0  0  0  0
    5.0510   -1.4386    0.2250 C   0  0  0  0  0  0  0  0  0  0  0  0
    6.1143   -0.7040   -0.6114 C   0  0  1  0  0  0  0  0  0  0  0  0
    5.7757   -0.7093   -1.9764 O   0  0  0  0  0  0  0  0  0  0  0  0
    6.3312    0.7204   -0.1228 C   0  0  0  0  0  0  0  0  0  0  0  0
    7.5656    1.2522   -0.1808 C   0  0  0  0  0  0  0  0  0  0  0  0
    5.1093    1.5752    0.2000 C   0  0  2  0  0  0  0  0  0  0  0  0
    5.4648    2.7391    0.9052 O   0  0  0  0  0  0  0  0  0  0  0  0
    4.0935    0.7919    1.0452 C   0  0  0  0  0  0  0  0  0  0  0  0
   -6.3127   -0.6030   -2.4979 H   0  0  0  0  0  0  0  0  0  0  0  0
   -6.4571    0.9163   -1.5531 H   0  0  0  0  0  0  0  0  0  0  0  0
   -4.8601    0.4152   -2.2374 H   0  0  0  0  0  0  0  0  0  0  0  0
   -4.9599   -1.6695   -0.7425 H   0  0  0  0  0  0  0  0  0  0  0  0
   -6.4833   -1.0978   -0.0858 H   0  0  0  0  0  0  0  0  0  0  0  0
   -4.6355   -0.6571    1.4693 H   0  0  0  0  0  0  0  0  0  0  0  0
   -5.7155    2.0204    0.4124 H   0  0  0  0  0  0  0  0  0  0  0  0
   -6.7048    0.8119    1.3208 H   0  0  0  0  0  0  0  0  0  0  0  0
   -5.2978    1.5770    2.1054 H   0  0  0  0  0  0  0  0  0  0  0  0
   -3.5027    1.3386   -0.6093 H   0  0  0  0  0  0  0  0  0  0  0  0
   -3.0369    0.9984    2.3695 H   0  0  0  0  0  0  0  0  0  0  0  0
   -2.8814    2.4477    1.3041 H   0  0  0  0  0  0  0  0  0  0  0  0
   -0.5845    2.0392    1.3562 H   0  0  0  0  0  0  0  0  0  0  0  0
   -0.8554    0.4124    2.1150 H   0  0  0  0  0  0  0  0  0  0  0  0
   -1.0022    1.2645   -0.8027 H   0  0  0  0  0  0  0  0  0  0  0  0
    0.4677   -0.1054   -2.4982 H   0  0  0  0  0  0  0  0  0  0  0  0
    1.0921   -1.6791   -1.9398 H   0  0  0  0  0  0  0  0  0  0  0  0
   -1.0710   -1.7778   -3.2682 H   0  0  0  0  0  0  0  0  0  0  0  0
   -1.0867   -2.6341   -1.7081 H   0  0  0  0  0  0  0  0  0  0  0  0
   -2.3709    0.0898   -2.3925 H   0  0  0  0  0  0  0  0  0  0  0  0
   -3.1895   -1.4415   -1.9819 H   0  0  0  0  0  0  0  0  0  0  0  0
   -1.3141   -2.2653    0.5595 H   0  0  0  0  0  0  0  0  0  0  0  0
   -2.3596   -1.4235    1.7284 H   0  0  0  0  0  0  0  0  0  0  0  0
   -3.0886   -2.3673    0.3902 H   0  0  0  0  0  0  0  0  0  0  0  0
    1.3125    0.2478    1.3315 H   0  0  0  0  0  0  0  0  0  0  0  0
    2.5338   -2.0168   -0.3267 H   0  0  0  0  0  0  0  0  0  0  0  0
    4.7962   -2.4009   -0.2718 H   0  0  0  0  0  0  0  0  0  0  0  0
    5.4821   -1.6884    1.2189 H   0  0  0  0  0  0  0  0  0  0  0  0
    7.0590   -1.2817   -0.5027 H   0  0  0  0  0  0  0  0  0  0  0  0
    4.9065   -0.2406   -2.0778 H   0  0  0  0  0  0  0  0  0  0  0  0
    7.7555    2.2889    0.0748 H   0  0  0  0  0  0  0  0  0  0  0  0
    8.4158    0.6533   -0.4929 H   0  0  0  0  0  0  0  0  0  0  0  0
    4.6130    1.8460   -0.7626 H   0  0  0  0  0  0  0  0  0  0  0  0
    5.6161    3.4543    0.2329 H   0  0  0  0  0  0  0  0  0  0  0  0
    4.4943    0.6524    2.0730 H   0  0  0  0  0  0  0  0  0  0  0  0
    3.1774    1.4100    1.1268 H   0  0  0  0  0  0  0  0  0  0  0  0
  1  2  1  0
  2  3  1  0
  3  4  1  0
  3  5  1  0
  5  6  1  0
  6  7  1  0
  7  8  1  0
  8  9  1  0
  9 10  1  0
 10 11  1  0
 11 12  1  0
 12 13  1  0
 13 14  1  1
  9 15  2  0
 15 16  1  0
 16 17  2  0
 17 18  1  0
 18 19  1  0
 19 20  1  0
 19 21  1  0
 21 22  2  3
 21 23  1  0
 23 24  1  0
 23 25  1  0
 13  5  1  0
 25 17  1  0
 13  8  1  0
  1 26  1  0
  1 27  1  0
  1 28  1  0
  2 29  1  0
  2 30  1  0
  3 31  1  1
  4 32  1  0
  4 33  1  0
  4 34  1  0
  5 35  1  6
  6 36  1  0
  6 37  1  0
  7 38  1  0
  7 39  1  0
  8 40  1  6
 10 41  1  0
 10 42  1  0
 11 43  1  0
 11 44  1  0
 12 45  1  0
 12 46  1  0
 14 47  1  0
 14 48  1  0
 14 49  1  0
 15 50  1  0
 16 51  1  0
 18 52  1  0
 18 53  1  0
 19 54  1  6
 20 55  1  0
 22 56  1  0
 22 57  1  0
 23 58  1  6
 24 59  1  0
 25 60  1  0
 25 61  1  0
M  END
$$$$
