
     RDKit          3D

 58 60  0  0  0  0  0  0  0  0999 V2000
   10.6428    1.5632   -0.7743 C   0  0  0  0  0  0  0  0  0  0  0  0
    9.1912    1.2959   -0.5358 C   0  0  0  0  0  0  0  0  0  0  0  0
    8.4980    2.0416    0.3654 N   0  0  0  0  0  0  0  0  0  0  0  0
    7.1795    1.8177    0.6063 C   0  0  0  0  0  0  0  0  0  0  0  0
    6.5122    0.7945   -0.0865 C   0  0  0  0  0  0  0  0  0  0  0  0
    7.2125    0.0497   -0.9853 N   0  0  0  0  0  0  0  0  0  0  0  0
    8.5305    0.2740   -1.2257 C   0  0  0  0  0  0  0  0  0  0  0  0
    5.0786    0.5163    0.1472 C   0  0  0  0  0  0  0  0  0  0  0  0
    4.4380    1.2003    0.9921 O   0  0  0  0  0  0  0  0  0  0  0  0
    4.4086   -0.5237   -0.5840 N   0  0  0  0  0  0  0  0  0  0  0  0
    3.0055   -0.8635   -0.3548 C   0  0  0  0  0  0  0  0  0  0  0  0
    2.8518   -1.6548    0.9468 C   0  0  0  0  0  0  0  0  0  0  0  0
    1.4106   -2.0234    1.1745 C   0  0  0  0  0  0  0  0  0  0  0  0
    0.5535   -1.1420    1.8522 C   0  0  0  0  0  0  0  0  0  0  0  0
   -0.7935   -1.4683    2.0333 C   0  0  0  0  0  0  0  0  0  0  0  0
   -1.3020   -2.6717    1.5277 C   0  0  0  0  0  0  0  0  0  0  0  0
   -0.4509   -3.5505    0.8443 C   0  0  0  0  0  0  0  0  0  0  0  0
    0.8967   -3.2256    0.6628 C   0  0  0  0  0  0  0  0  0  0  0  0
   -3.0015   -3.0706    1.7540 S   0  0  0  0  0  6  0  0  0  0  0  0
   -3.1894   -3.6565    3.1246 O   0  0  0  0  0  0  0  0  0  0  0  0
   -3.4503   -4.0710    0.7256 O   0  0  0  0  0  0  0  0  0  0  0  0
   -3.9661   -1.6393    1.6029 N   0  0  0  0  0  0  0  0  0  0  0  0
   -3.9742   -0.8599    0.4026 C   0  0  0  0  0  0  0  0  0  0  0  0
   -3.2856   -1.2227   -0.5900 O   0  0  0  0  0  0  0  0  0  0  0  0
   -4.7588    0.3390    0.3380 N   0  0  0  0  0  0  0  0  0  0  0  0
   -4.8272    1.1698   -0.8718 C   0  0  0  0  0  0  0  0  0  0  0  0
   -5.6778    0.4856   -1.9612 C   0  0  0  0  0  0  0  0  0  0  0  0
   -7.1641    0.4539   -1.5845 C   0  0  0  0  0  0  0  0  0  0  0  0
   -7.6895    1.8684   -1.3198 C   0  0  0  0  0  0  0  0  0  0  0  0
   -6.8796    2.5572   -0.2165 C   0  0  0  0  0  0  0  0  0  0  0  0
   -5.3798    2.5759   -0.5529 C   0  0  0  0  0  0  0  0  0  0  0  0
   10.8129    1.7830   -1.8493 H   0  0  0  0  0  0  0  0  0  0  0  0
   10.9828    2.4340   -0.1745 H   0  0  0  0  0  0  0  0  0  0  0  0
   11.2397    0.6734   -0.4834 H   0  0  0  0  0  0  0  0  0  0  0  0
    6.6623    2.4331    1.3308 H   0  0  0  0  0  0  0  0  0  0  0  0
    9.0568   -0.3382   -1.9468 H   0  0  0  0  0  0  0  0  0  0  0  0
    4.9143   -1.0275   -1.3468 H   0  0  0  0  0  0  0  0  0  0  0  0
    2.6398   -1.4836   -1.2028 H   0  0  0  0  0  0  0  0  0  0  0  0
    2.3938    0.0648   -0.3223 H   0  0  0  0  0  0  0  0  0  0  0  0
    3.2234   -1.0528    1.8040 H   0  0  0  0  0  0  0  0  0  0  0  0
    3.4756   -2.5742    0.8961 H   0  0  0  0  0  0  0  0  0  0  0  0
    0.9283   -0.2020    2.2383 H   0  0  0  0  0  0  0  0  0  0  0  0
   -1.4405   -0.7806    2.5630 H   0  0  0  0  0  0  0  0  0  0  0  0
   -0.8287   -4.4845    0.4487 H   0  0  0  0  0  0  0  0  0  0  0  0
    1.5391   -3.9098    0.1223 H   0  0  0  0  0  0  0  0  0  0  0  0
   -4.5417   -1.3371    2.4198 H   0  0  0  0  0  0  0  0  0  0  0  0
   -5.2356    0.6533    1.2127 H   0  0  0  0  0  0  0  0  0  0  0  0
   -3.7950    1.3039   -1.2651 H   0  0  0  0  0  0  0  0  0  0  0  0
   -5.3223   -0.5522   -2.1334 H   0  0  0  0  0  0  0  0  0  0  0  0
   -5.5563    1.0375   -2.9194 H   0  0  0  0  0  0  0  0  0  0  0  0
   -7.3117   -0.1782   -0.6814 H   0  0  0  0  0  0  0  0  0  0  0  0
   -7.7426   -0.0007   -2.4173 H   0  0  0  0  0  0  0  0  0  0  0  0
   -7.6347    2.4691   -2.2544 H   0  0  0  0  0  0  0  0  0  0  0  0
   -8.7556    1.8120   -1.0113 H   0  0  0  0  0  0  0  0  0  0  0  0
   -7.2388    3.6024   -0.1009 H   0  0  0  0  0  0  0  0  0  0  0  0
   -7.0510    2.0375    0.7503 H   0  0  0  0  0  0  0  0  0  0  0  0
   -4.8164    3.0149    0.2989 H   0  0  0  0  0  0  0  0  0  0  0  0
   -5.2173    3.2368   -1.4329 H   0  0  0  0  0  0  0  0  0  0  0  0
  1  2  1  0
  2  3  2  0
  3  4  1  0
  4  5  2  0
  5  6  1  0
  6  7  2  0
  5  8  1  0
  8  9  2  0
  8 10  1  0
 10 11  1  0
 11 12  1  0
 12 13  1  0
 13 14  2  0
 14 15  1  0
 15 16  2  0
 16 17  1  0
 17 18  2  0
 16 19  1  0
 19 20  2  0
 19 21  2  0
 19 22  1  0
 22 23  1  0
 23 24  2  0
 23 25  1  0
 25 26  1  0
 26 27  1  0
 27 28  1  0
 28 29  1  0
 29 30  1  0
 30 31  1  0
  7  2  1  0
 18 13  1  0
 31 26  1  0
  1 32  1  0
  1 33  1  0
  1 34  1  0
  4 35  1  0
  7 36  1  0
 10 37  1  0
 11 38  1  0
 11 39  1  0
 12 40  1  0
 12 41  1  0
 14 42  1  0
 15 43  1  0
 17 44  1  0
 18 45  1  0
 22 46  1  0
 25 47  1  0
 26 48  1  0
 27 49  1  0
 27 50  1  0
 28 51  1  0
 28 52  1  0
 29 53  1  0
 29 54  1  0
 30 55  1  0
 30 56  1  0
 31 57  1  0
 31 58  1  0
M  END
$$$$
