
     RDKit          3D

 67 69  0  0  0  0  0  0  0  0999 V2000
   -1.3004   -3.4469    0.8274 C   0  0  0  0  0  0  0  0  0  0  0  0
   -0.8545   -2.1608    0.4570 O   0  0  0  0  0  0  0  0  0  0  0  0
   -1.5456   -1.6979   -0.6929 C   0  0  2  0  0  0  0  0  0  0  0  0
   -0.6819   -1.9355   -1.9596 C   0  0  1  0  0  0  0  0  0  0  0  0
   -1.4708   -1.5949   -3.2487 C   0  0  0  0  0  0  0  0  0  0  0  0
   -2.4836   -0.4398   -3.0963 C   0  0  0  0  0  0  0  0  0  0  0  0
   -2.1281    0.4594   -1.9064 C   0  0  1  0  0  0  0  0  0  0  0  0
   -1.3595    1.6936   -2.2246 C   0  0  0  0  0  0  0  0  0  0  0  0
   -2.7363    1.7299   -1.9175 O   0  0  0  0  0  0  0  0  0  0  0  0
   -1.8605   -0.1877   -0.5146 C   0  0  1  0  0  0  0  0  0  0  0  0
   -2.9844   -0.0115    0.5505 C   0  0  1  0  0  0  0  0  0  0  0  0
   -2.5788    0.0521    2.0300 C   0  0  0  0  0  0  0  0  0  0  0  0
   -3.9593    0.9554    0.2399 O   0  0  0  0  0  0  0  0  0  0  0  0
   -4.3790   -0.3949    0.1616 C   0  0  2  0  0  0  0  0  0  0  0  0
   -5.4010   -0.7710    1.2528 C   0  0  0  0  0  0  0  0  0  0  0  0
   -6.2200    0.4030    1.7362 C   0  0  0  0  0  0  0  0  0  0  0  0
   -7.1709    1.0230    1.0032 C   0  0  0  0  0  0  0  0  0  0  0  0
   -7.5064    0.5866   -0.4035 C   0  0  0  0  0  0  0  0  0  0  0  0
   -7.9180    2.1759    1.6221 C   0  0  0  0  0  0  0  0  0  0  0  0
    0.5030   -1.1341   -1.9168 O   0  0  0  0  0  0  0  0  0  0  0  0
    1.6549   -1.4776   -1.2016 C   0  0  0  0  0  0  0  0  0  0  0  0
    1.7509   -2.6035   -0.6392 O   0  0  0  0  0  0  0  0  0  0  0  0
    2.7560   -0.5048   -1.1278 C   0  0  0  0  0  0  0  0  0  0  0  0
    3.8878   -0.7512   -0.4610 C   0  0  0  0  0  0  0  0  0  0  0  0
    4.9659    0.2502   -0.4063 C   0  0  0  0  0  0  0  0  0  0  0  0
    6.0963    0.0073    0.2602 C   0  0  0  0  0  0  0  0  0  0  0  0
    7.1739    1.0091    0.3153 C   0  0  0  0  0  0  0  0  0  0  0  0
    8.3043    0.7663    0.9821 C   0  0  0  0  0  0  0  0  0  0  0  0
    9.3821    1.7681    1.0377 C   0  0  0  0  0  0  0  0  0  0  0  0
   10.5134    1.5228    1.7060 C   0  0  0  0  0  0  0  0  0  0  0  0
   11.6118    2.4993    1.7838 C   0  0  0  0  0  0  0  0  0  0  0  0
   12.7606    2.1750    2.4976 O   0  0  0  0  0  0  0  0  0  0  0  0
   11.5254    3.6212    1.2143 O   0  0  0  0  0  0  0  0  0  0  0  0
   -2.3578   -3.4121    1.1713 H   0  0  0  0  0  0  0  0  0  0  0  0
   -1.1867   -4.1727   -0.0079 H   0  0  0  0  0  0  0  0  0  0  0  0
   -0.6810   -3.8060    1.6744 H   0  0  0  0  0  0  0  0  0  0  0  0
   -2.5183   -2.2286   -0.8509 H   0  0  0  0  0  0  0  0  0  0  0  0
   -0.3965   -3.0092   -2.0215 H   0  0  0  0  0  0  0  0  0  0  0  0
   -0.7502   -1.3448   -4.0580 H   0  0  0  0  0  0  0  0  0  0  0  0
   -2.0222   -2.5004   -3.5851 H   0  0  0  0  0  0  0  0  0  0  0  0
   -2.5425    0.1371   -4.0454 H   0  0  0  0  0  0  0  0  0  0  0  0
   -3.4924   -0.8672   -2.9206 H   0  0  0  0  0  0  0  0  0  0  0  0
   -0.7724    2.1749   -1.4147 H   0  0  0  0  0  0  0  0  0  0  0  0
   -1.1907    1.9420   -3.2934 H   0  0  0  0  0  0  0  0  0  0  0  0
   -0.9424    0.2839   -0.0984 H   0  0  0  0  0  0  0  0  0  0  0  0
   -1.6447    0.6407    2.1423 H   0  0  0  0  0  0  0  0  0  0  0  0
   -3.3579    0.5426    2.6511 H   0  0  0  0  0  0  0  0  0  0  0  0
   -2.4013   -0.9736    2.4136 H   0  0  0  0  0  0  0  0  0  0  0  0
   -4.5897   -0.6818   -0.8873 H   0  0  0  0  0  0  0  0  0  0  0  0
   -6.0791   -1.5531    0.8520 H   0  0  0  0  0  0  0  0  0  0  0  0
   -4.8902   -1.2420    2.1177 H   0  0  0  0  0  0  0  0  0  0  0  0
   -6.0358    0.7432    2.7524 H   0  0  0  0  0  0  0  0  0  0  0  0
   -7.8066   -0.4819   -0.4121 H   0  0  0  0  0  0  0  0  0  0  0  0
   -8.3483    1.1765   -0.8214 H   0  0  0  0  0  0  0  0  0  0  0  0
   -6.6304    0.7334   -1.0675 H   0  0  0  0  0  0  0  0  0  0  0  0
   -7.2034    2.9796    1.8997 H   0  0  0  0  0  0  0  0  0  0  0  0
   -8.4498    1.8321    2.5345 H   0  0  0  0  0  0  0  0  0  0  0  0
   -8.6666    2.6040    0.9235 H   0  0  0  0  0  0  0  0  0  0  0  0
    2.6258    0.4441   -1.6352 H   0  0  0  0  0  0  0  0  0  0  0  0
    4.0221   -1.6979    0.0503 H   0  0  0  0  0  0  0  0  0  0  0  0
    4.8348    1.1985   -0.9166 H   0  0  0  0  0  0  0  0  0  0  0  0
    6.2276   -0.9409    0.7707 H   0  0  0  0  0  0  0  0  0  0  0  0
    7.0426    1.9573   -0.1950 H   0  0  0  0  0  0  0  0  0  0  0  0
    8.4354   -0.1821    1.4924 H   0  0  0  0  0  0  0  0  0  0  0  0
    9.2476    2.7150    0.5267 H   0  0  0  0  0  0  0  0  0  0  0  0
   10.6428    0.5747    2.2151 H   0  0  0  0  0  0  0  0  0  0  0  0
   13.5314    2.8288    2.5671 H   0  0  0  0  0  0  0  0  0  0  0  0
  1  2  1  0
  2  3  1  0
  3  4  1  0
  4  5  1  0
  5  6  1  0
  6  7  1  0
  7  8  1  0
  8  9  1  0
  7 10  1  0
 10 11  1  0
 11 12  1  1
 11 13  1  0
 13 14  1  0
 14 15  1  0
 15 16  1  0
 16 17  2  3
 17 18  1  0
 17 19  1  0
  4 20  1  0
 20 21  1  0
 21 22  2  0
 21 23  1  0
 23 24  2  0
 24 25  1  0
 25 26  2  0
 26 27  1  0
 27 28  2  0
 28 29  1  0
 29 30  2  0
 30 31  1  0
 31 32  1  0
 31 33  2  0
 10  3  1  0
 14 11  1  0
  7  9  1  1
  1 34  1  0
  1 35  1  0
  1 36  1  0
  3 37  1  6
  4 38  1  6
  5 39  1  0
  5 40  1  0
  6 41  1  0
  6 42  1  0
  8 43  1  0
  8 44  1  0
 10 45  1  1
 12 46  1  0
 12 47  1  0
 12 48  1  0
 14 49  1  6
 15 50  1  0
 15 51  1  0
 16 52  1  0
 18 53  1  0
 18 54  1  0
 18 55  1  0
 19 56  1  0
 19 57  1  0
 19 58  1  0
 23 59  1  0
 24 60  1  0
 25 61  1  0
 26 62  1  0
 27 63  1  0
 28 64  1  0
 29 65  1  0
 30 66  1  0
 32 67  1  0
M  END
$$$$
