
     RDKit          3D

 31 31  0  0  0  0  0  0  0  0999 V2000
    3.8431   -1.1362   -0.2150 C   0  0  0  0  0  0  0  0  0  0  0  0
    3.3268    0.3098   -0.1559 C   0  0  2  0  0  0  0  0  0  0  0  0
    4.0610    1.0714   -1.0874 O   0  0  0  0  0  0  0  0  0  0  0  0
    3.5195    0.8961    1.2648 C   0  0  0  0  0  0  0  0  0  0  0  0
    5.3935    1.1725    1.7068 Br  0  0  0  0  0  0  0  0  0  0  0  0
    1.8544    0.3164   -0.5317 C   0  0  0  0  0  0  0  0  0  0  0  0
    1.5105    0.7069   -1.6814 O   0  0  0  0  0  0  0  0  0  0  0  0
    0.8632   -0.1991    0.3747 N   0  0  0  0  0  0  0  0  0  0  0  0
   -0.5496    0.0274    0.2292 C   0  0  0  0  0  0  0  0  0  0  0  0
   -1.4515   -0.9500    0.6695 C   0  0  0  0  0  0  0  0  0  0  0  0
   -2.8442   -0.7660    0.5537 C   0  0  0  0  0  0  0  0  0  0  0  0
   -3.3327    0.4693    0.0495 C   0  0  0  0  0  0  0  0  0  0  0  0
   -2.4193    1.4441   -0.3850 C   0  0  0  0  0  0  0  0  0  0  0  0
   -1.0450    1.2297   -0.2926 C   0  0  0  0  0  0  0  0  0  0  0  0
   -4.7395    0.7606   -0.0153 N   0  0  0  0  0  4  0  0  0  0  0  0
   -5.5579    0.4810    1.0542 O   0  0  0  0  0  1  0  0  0  0  0  0
   -5.1927    1.4460   -0.9552 O   0  0  0  0  0  0  0  0  0  0  0  0
   -3.7754   -1.8805    0.9890 C   0  0  0  0  0  0  0  0  0  0  0  0
   -3.1194   -3.0995    1.0225 F   0  0  0  0  0  0  0  0  0  0  0  0
   -4.8337   -2.0015    0.1057 F   0  0  0  0  0  0  0  0  0  0  0  0
   -4.2596   -1.6095    2.2552 F   0  0  0  0  0  0  0  0  0  0  0  0
    3.3371   -1.7746    0.5403 H   0  0  0  0  0  0  0  0  0  0  0  0
    4.9368   -1.1694   -0.0256 H   0  0  0  0  0  0  0  0  0  0  0  0
    3.6598   -1.5685   -1.2225 H   0  0  0  0  0  0  0  0  0  0  0  0
    3.7485    2.0130   -1.0262 H   0  0  0  0  0  0  0  0  0  0  0  0
    3.0093    1.8806    1.3401 H   0  0  0  0  0  0  0  0  0  0  0  0
    3.0832    0.2257    2.0351 H   0  0  0  0  0  0  0  0  0  0  0  0
    1.1765   -0.8426    1.1354 H   0  0  0  0  0  0  0  0  0  0  0  0
   -1.0550   -1.8667    1.0881 H   0  0  0  0  0  0  0  0  0  0  0  0
   -2.7752    2.3923   -0.7683 H   0  0  0  0  0  0  0  0  0  0  0  0
   -0.3723    2.0212   -0.5952 H   0  0  0  0  0  0  0  0  0  0  0  0
  1  2  1  0
  2  3  1  6
  2  4  1  0
  4  5  1  0
  2  6  1  0
  6  7  2  0
  6  8  1  0
  8  9  1  0
  9 10  2  0
 10 11  1  0
 11 12  2  0
 12 13  1  0
 13 14  2  0
 12 15  1  0
 15 16  1  0
 15 17  2  0
 11 18  1  0
 18 19  1  0
 18 20  1  0
 18 21  1  0
 14  9  1  0
  1 22  1  0
  1 23  1  0
  1 24  1  0
  3 25  1  0
  4 26  1  0
  4 27  1  0
  8 28  1  0
 10 29  1  0
 13 30  1  0
 14 31  1  0
M  CHG  2  15   1  16  -1
M  END
$$$$
