
     RDKit          3D

 22 22  0  0  0  0  0  0  0  0999 V2000
   -2.8966    0.1478   -0.1383 C   0  0  0  0  0  0  0  0  0  0  0  0
   -1.4859    0.0287    0.2609 N   0  0  0  0  0  0  0  0  0  0  0  0
   -0.9046   -1.2001   -0.3104 C   0  0  0  0  0  0  0  0  0  0  0  0
    0.5368   -1.3779    0.1719 C   0  0  0  0  0  0  0  0  0  0  0  0
    1.3174   -0.1587   -0.0798 N   0  0  0  0  0  0  0  0  0  0  0  0
    0.7184    1.1332    0.2795 C   0  0  0  0  0  0  0  0  0  0  0  0
   -0.7308    1.2056   -0.2069 C   0  0  0  0  0  0  0  0  0  0  0  0
    2.7384   -0.2466   -0.3046 C   0  0  0  0  0  0  0  0  0  0  0  0
    3.5181    0.9069   -0.3439 O   0  0  0  0  0  0  0  0  0  0  0  0
    3.2916   -1.3678   -0.4692 O   0  0  0  0  0  0  0  0  0  0  0  0
   -3.3462    1.0580    0.3137 H   0  0  0  0  0  0  0  0  0  0  0  0
   -3.4749   -0.7238    0.2371 H   0  0  0  0  0  0  0  0  0  0  0  0
   -3.0015    0.2029   -1.2452 H   0  0  0  0  0  0  0  0  0  0  0  0
   -1.4905   -2.0872    0.0179 H   0  0  0  0  0  0  0  0  0  0  0  0
   -0.9208   -1.1678   -1.4244 H   0  0  0  0  0  0  0  0  0  0  0  0
    0.5407   -1.5950    1.2622 H   0  0  0  0  0  0  0  0  0  0  0  0
    0.9755   -2.2489   -0.3611 H   0  0  0  0  0  0  0  0  0  0  0  0
    1.2801    1.9741   -0.1813 H   0  0  0  0  0  0  0  0  0  0  0  0
    0.7475    1.2544    1.3841 H   0  0  0  0  0  0  0  0  0  0  0  0
   -1.1854    2.1362    0.1997 H   0  0  0  0  0  0  0  0  0  0  0  0
   -0.7449    1.2714   -1.3195 H   0  0  0  0  0  0  0  0  0  0  0  0
    4.5174    0.8546   -0.5016 H   0  0  0  0  0  0  0  0  0  0  0  0
  1  2  1  0
  2  3  1  0
  3  4  1  0
  4  5  1  0
  5  6  1  0
  6  7  1  0
  5  8  1  0
  8  9  1  0
  8 10  2  0
  7  2  1  0
  1 11  1  0
  1 12  1  0
  1 13  1  0
  3 14  1  0
  3 15  1  0
  4 16  1  0
  4 17  1  0
  6 18  1  0
  6 19  1  0
  7 20  1  0
  7 21  1  0
  9 22  1  0
M  END
$$$$
