
     RDKit          3D

 38 39  0  0  0  0  0  0  0  0999 V2000
   -2.4666    1.8132   -3.3629 N   0  0  0  0  0  0  0  0  0  0  0  0
   -3.5052    1.4999   -2.4308 C   0  0  0  0  0  0  0  0  0  0  0  0
   -4.6248    2.0660   -2.5548 O   0  0  0  0  0  0  0  0  0  0  0  0
   -3.2980    0.5164   -1.3399 C   0  0  0  0  0  0  0  0  0  0  0  0
   -4.3974   -0.1277   -0.7553 C   0  0  0  0  0  0  0  0  0  0  0  0
   -4.2033   -1.0583    0.2618 C   0  0  0  0  0  0  0  0  0  0  0  0
   -2.9105   -1.3339    0.7041 C   0  0  0  0  0  0  0  0  0  0  0  0
   -1.8356   -0.6860    0.1611 N   0  0  0  0  0  4  0  0  0  0  0  0
   -2.0125    0.2186   -0.8533 C   0  0  0  0  0  0  0  0  0  0  0  0
   -0.4796   -1.0115    0.6379 C   0  0  2  0  0  0  0  0  0  0  0  0
    0.3032    0.1607    0.7495 O   0  0  0  0  0  0  0  0  0  0  0  0
    1.5254   -0.0666    0.0770 C   0  0  1  0  0  0  0  0  0  0  0  0
    2.6910    0.4538    0.9221 C   0  0  0  0  0  0  0  0  0  0  0  0
    2.5465    1.8432    1.0993 O   0  0  0  0  0  0  0  0  0  0  0  0
    3.8452    2.3980    2.0548 P   0  0  0  0  0  5  0  0  0  0  0  0
    3.8203    1.6409    3.5688 O   0  0  0  0  0  0  0  0  0  0  0  0
    5.3177    2.0684    1.2870 O   0  0  0  0  0  0  0  0  0  0  0  0
    3.7118    3.8915    2.2471 O   0  0  0  0  0  0  0  0  0  0  0  0
    1.6584   -1.5575   -0.2232 C   0  0  2  0  0  0  0  0  0  0  0  0
    2.3346   -1.7649   -1.4354 O   0  0  0  0  0  0  0  0  0  0  0  0
    0.2158   -1.9842   -0.3151 C   0  0  1  0  0  0  0  0  0  0  0  0
    0.0227   -3.3312    0.0454 O   0  0  0  0  0  0  0  0  0  0  0  0
   -2.6204    2.5537   -4.0829 H   0  0  0  0  0  0  0  0  0  0  0  0
   -1.5831    1.2605   -3.4086 H   0  0  0  0  0  0  0  0  0  0  0  0
   -5.4050    0.0750   -1.0965 H   0  0  0  0  0  0  0  0  0  0  0  0
   -5.0503   -1.5679    0.7029 H   0  0  0  0  0  0  0  0  0  0  0  0
   -2.7745   -2.0686    1.4889 H   0  0  0  0  0  0  0  0  0  0  0  0
   -1.1515    0.7225   -1.2721 H   0  0  0  0  0  0  0  0  0  0  0  0
   -0.5303   -1.4564    1.6582 H   0  0  0  0  0  0  0  0  0  0  0  0
    1.5009    0.5020   -0.8809 H   0  0  0  0  0  0  0  0  0  0  0  0
    2.6784   -0.0726    1.9042 H   0  0  0  0  0  0  0  0  0  0  0  0
    3.6402    0.2252    0.3857 H   0  0  0  0  0  0  0  0  0  0  0  0
    2.9101    1.8105    3.9209 H   0  0  0  0  0  0  0  0  0  0  0  0
    5.2330    2.4810    0.3905 H   0  0  0  0  0  0  0  0  0  0  0  0
    2.1783   -2.0817    0.6141 H   0  0  0  0  0  0  0  0  0  0  0  0
    2.5087   -2.7404   -1.4952 H   0  0  0  0  0  0  0  0  0  0  0  0
   -0.1517   -1.8333   -1.3554 H   0  0  0  0  0  0  0  0  0  0  0  0
    0.3582   -3.4584    0.9713 H   0  0  0  0  0  0  0  0  0  0  0  0
  1  2  1  0
  2  3  2  0
  2  4  1  0
  4  5  2  0
  5  6  1  0
  6  7  2  0
  7  8  1  0
  8  9  2  0
  8 10  1  0
 10 11  1  0
 11 12  1  0
 12 13  1  0
 13 14  1  0
 14 15  1  0
 15 16  1  0
 15 17  1  0
 15 18  2  0
 12 19  1  0
 19 20  1  0
 19 21  1  0
 21 22  1  0
  9  4  1  0
 21 10  1  0
  1 23  1  0
  1 24  1  0
  5 25  1  0
  6 26  1  0
  7 27  1  0
  9 28  1  0
 10 29  1  1
 12 30  1  6
 13 31  1  0
 13 32  1  0
 16 33  1  0
 17 34  1  0
 19 35  1  1
 20 36  1  0
 21 37  1  6
 22 38  1  0
M  CHG  1   8   1
M  END
$$$$
