
     RDKit          3D

 62 65  0  0  0  0  0  0  0  0999 V2000
    4.9315   -0.6558    0.2343 C   0  0  1  0  0  0  0  0  0  0  0  0
    3.5793    0.0812    0.3549 C   0  0  0  0  0  0  0  0  0  0  0  0
    3.6138    1.4979   -0.2417 C   0  0  0  0  0  0  0  0  0  0  0  0
    2.2665    2.0616   -0.3131 N   0  0  0  0  0  0  0  0  0  0  0  0
    1.3279    1.7301   -1.1559 C   0  0  0  0  0  0  0  0  0  0  0  0
    1.5578    0.7980   -2.2249 N   0  0  0  0  0  0  0  0  0  0  0  0
    0.4536    0.1288   -2.9097 C   0  0  0  0  0  0  0  0  0  0  0  0
   -0.8717    0.9213   -2.8297 C   0  0  2  0  0  0  0  0  0  0  0  0
   -0.9383    2.1656   -4.1155 Cl  0  0  0  0  0  0  0  0  0  0  0  0
   -1.0989    1.5368   -1.4994 N   0  0  0  0  0  0  0  0  0  0  0  0
   -1.4525    0.5306   -0.4653 C   0  0  0  0  0  0  0  0  0  0  0  0
   -2.9683    0.4946   -0.2746 C   0  0  0  0  0  0  0  0  0  0  0  0
   -3.4539    1.8044    0.1796 N   0  0  0  0  0  0  0  0  0  0  0  0
   -4.9227    1.8753    0.1835 C   0  0  0  0  0  0  0  0  0  0  0  0
   -5.5278    1.0380    1.2854 C   0  0  0  0  0  0  0  0  0  0  0  0
   -5.5665    1.4770    2.6115 C   0  0  0  0  0  0  0  0  0  0  0  0
   -6.2592    0.2773    3.5763 S   0  0  0  0  0  0  0  0  0  0  0  0
   -6.5087   -0.8078    2.3233 C   0  0  0  0  0  0  0  0  0  0  0  0
   -7.0645   -2.0823    2.3952 C   0  0  0  0  0  0  0  0  0  0  0  0
   -7.1669   -2.8296    1.2137 C   0  0  0  0  0  0  0  0  0  0  0  0
   -6.7147   -2.2938   -0.0076 C   0  0  0  0  0  0  0  0  0  0  0  0
   -6.8448   -3.2423   -1.4772 Cl  0  0  0  0  0  0  0  0  0  0  0  0
   -6.1576   -1.0038   -0.0559 C   0  0  0  0  0  0  0  0  0  0  0  0
   -6.0582   -0.2596    1.1294 C   0  0  0  0  0  0  0  0  0  0  0  0
    0.0076    2.4422   -1.1064 C   0  0  0  0  0  0  0  0  0  0  0  0
   -0.2196    2.9927    0.1676 O   0  0  0  0  0  0  0  0  0  0  0  0
    6.0122    0.0117    1.1151 C   0  0  0  0  0  0  0  0  0  0  0  0
    7.3272   -0.7705    1.0517 C   0  0  0  0  0  0  0  0  0  0  0  0
    7.0966   -2.2450    1.3835 C   0  0  0  0  0  0  0  0  0  0  0  0
    6.0016   -2.8229    0.4848 C   0  0  0  0  0  0  0  0  0  0  0  0
    4.7543   -2.0630    0.6415 N   0  0  0  0  0  0  0  0  0  0  0  0
    5.2562   -0.6179   -0.8320 H   0  0  0  0  0  0  0  0  0  0  0  0
    3.2717    0.1378    1.4222 H   0  0  0  0  0  0  0  0  0  0  0  0
    2.8053   -0.5128   -0.1766 H   0  0  0  0  0  0  0  0  0  0  0  0
    4.0927    1.5104   -1.2440 H   0  0  0  0  0  0  0  0  0  0  0  0
    4.2168    2.1538    0.4192 H   0  0  0  0  0  0  0  0  0  0  0  0
    2.5152    0.4311   -2.4167 H   0  0  0  0  0  0  0  0  0  0  0  0
    0.3192   -0.8777   -2.4615 H   0  0  0  0  0  0  0  0  0  0  0  0
    0.7279   -0.0331   -3.9744 H   0  0  0  0  0  0  0  0  0  0  0  0
   -1.7054    0.2220   -3.0604 H   0  0  0  0  0  0  0  0  0  0  0  0
   -1.1101   -0.4898   -0.7391 H   0  0  0  0  0  0  0  0  0  0  0  0
   -0.9811    0.7474    0.5179 H   0  0  0  0  0  0  0  0  0  0  0  0
   -3.2145   -0.2896    0.4752 H   0  0  0  0  0  0  0  0  0  0  0  0
   -3.4413    0.2205   -1.2432 H   0  0  0  0  0  0  0  0  0  0  0  0
   -3.0985    1.9826    1.1489 H   0  0  0  0  0  0  0  0  0  0  0  0
   -5.2192    2.9339    0.3447 H   0  0  0  0  0  0  0  0  0  0  0  0
   -5.3311    1.6005   -0.8114 H   0  0  0  0  0  0  0  0  0  0  0  0
   -5.2035    2.4320    2.9678 H   0  0  0  0  0  0  0  0  0  0  0  0
   -7.4066   -2.4880    3.3384 H   0  0  0  0  0  0  0  0  0  0  0  0
   -7.5945   -3.8235    1.2454 H   0  0  0  0  0  0  0  0  0  0  0  0
   -5.8129   -0.6075   -1.0004 H   0  0  0  0  0  0  0  0  0  0  0  0
    0.0694    3.2835   -1.8326 H   0  0  0  0  0  0  0  0  0  0  0  0
   -1.0232    3.5698    0.0855 H   0  0  0  0  0  0  0  0  0  0  0  0
    6.2109    1.0469    0.7667 H   0  0  0  0  0  0  0  0  0  0  0  0
    5.6644    0.0584    2.1708 H   0  0  0  0  0  0  0  0  0  0  0  0
    7.7637   -0.6823    0.0323 H   0  0  0  0  0  0  0  0  0  0  0  0
    8.0519   -0.3373    1.7744 H   0  0  0  0  0  0  0  0  0  0  0  0
    6.7956   -2.3469    2.4494 H   0  0  0  0  0  0  0  0  0  0  0  0
    8.0404   -2.8116    1.2318 H   0  0  0  0  0  0  0  0  0  0  0  0
    6.3339   -2.8157   -0.5784 H   0  0  0  0  0  0  0  0  0  0  0  0
    5.8224   -3.8802    0.7772 H   0  0  0  0  0  0  0  0  0  0  0  0
    4.0494   -2.5053    0.0054 H   0  0  0  0  0  0  0  0  0  0  0  0
  1  2  1  0
  2  3  1  0
  3  4  1  0
  4  5  2  0
  5  6  1  0
  6  7  1  0
  7  8  1  0
  8  9  1  0
  8 10  1  0
 10 11  1  0
 11 12  1  0
 12 13  1  0
 13 14  1  0
 14 15  1  0
 15 16  2  0
 16 17  1  0
 17 18  1  0
 18 19  2  0
 19 20  1  0
 20 21  2  0
 21 22  1  0
 21 23  1  0
 23 24  2  0
 10 25  1  0
 25 26  1  0
  1 27  1  0
 27 28  1  0
 28 29  1  0
 29 30  1  0
 30 31  1  0
 31  1  1  0
 25  5  1  0
 24 15  1  0
 24 18  1  0
  1 32  1  6
  2 33  1  0
  2 34  1  0
  3 35  1  0
  3 36  1  0
  6 37  1  0
  7 38  1  0
  7 39  1  0
  8 40  1  6
 11 41  1  0
 11 42  1  0
 12 43  1  0
 12 44  1  0
 13 45  1  0
 14 46  1  0
 14 47  1  0
 16 48  1  0
 19 49  1  0
 20 50  1  0
 23 51  1  0
 25 52  1  0
 26 53  1  0
 27 54  1  0
 27 55  1  0
 28 56  1  0
 28 57  1  0
 29 58  1  0
 29 59  1  0
 30 60  1  0
 30 61  1  0
 31 62  1  0
M  END
$$$$
