
     RDKit          3D

 29 28  0  0  0  0  0  0  0  0999 V2000
    5.0806   -0.2907    0.6254 O   0  0  0  0  0  0  0  0  0  0  0  0
    3.9654    0.4718    0.2468 C   0  0  0  0  0  0  0  0  0  0  0  0
    2.6773   -0.2128    0.6348 C   0  0  0  0  0  0  0  0  0  0  0  0
    2.7095   -1.2102    1.3415 O   0  0  0  0  0  0  0  0  0  0  0  0
    1.3332    0.3261    0.1884 C   0  0  1  0  0  0  0  0  0  0  0  0
    1.4745    1.6019   -0.3851 O   0  0  0  0  0  0  0  0  0  0  0  0
    0.6809   -0.6407   -0.8284 C   0  0  2  0  0  0  0  0  0  0  0  0
    1.5121   -0.7524   -1.9571 O   0  0  0  0  0  0  0  0  0  0  0  0
   -0.7412   -0.2143   -1.2783 C   0  0  2  0  0  0  0  0  0  0  0  0
   -0.6857    1.0149   -1.9573 O   0  0  0  0  0  0  0  0  0  0  0  0
   -1.7355   -0.1297   -0.1083 C   0  0  0  0  0  0  0  0  0  0  0  0
   -3.0441   -0.0357   -0.6204 O   0  0  0  0  0  0  0  0  0  0  0  0
   -4.1347    0.0065    0.6902 P   0  0  0  0  0  5  0  0  0  0  0  0
   -4.0114   -1.4175    1.5989 O   0  0  0  0  0  0  0  0  0  0  0  0
   -3.8129    1.3441    1.6779 O   0  0  0  0  0  0  0  0  0  0  0  0
   -5.5416    0.1259    0.1510 O   0  0  0  0  0  0  0  0  0  0  0  0
    5.2184   -0.1307    1.5957 H   0  0  0  0  0  0  0  0  0  0  0  0
    4.0103    1.4826    0.7117 H   0  0  0  0  0  0  0  0  0  0  0  0
    3.9870    0.5991   -0.8559 H   0  0  0  0  0  0  0  0  0  0  0  0
    0.6882    0.3914    1.0943 H   0  0  0  0  0  0  0  0  0  0  0  0
    1.5545    2.2481    0.3647 H   0  0  0  0  0  0  0  0  0  0  0  0
    0.5962   -1.6401   -0.3377 H   0  0  0  0  0  0  0  0  0  0  0  0
    1.2648   -1.5969   -2.4172 H   0  0  0  0  0  0  0  0  0  0  0  0
   -1.1065   -1.0050   -1.9764 H   0  0  0  0  0  0  0  0  0  0  0  0
   -1.5043    1.0756   -2.5158 H   0  0  0  0  0  0  0  0  0  0  0  0
   -1.4969    0.7713    0.4994 H   0  0  0  0  0  0  0  0  0  0  0  0
   -1.6264   -1.0461    0.5157 H   0  0  0  0  0  0  0  0  0  0  0  0
   -4.1351   -2.1480    0.9415 H   0  0  0  0  0  0  0  0  0  0  0  0
   -3.1766    1.0115    2.3600 H   0  0  0  0  0  0  0  0  0  0  0  0
  1  2  1  0
  2  3  1  0
  3  4  2  0
  3  5  1  0
  5  6  1  0
  5  7  1  0
  7  8  1  0
  7  9  1  0
  9 10  1  0
  9 11  1  0
 11 12  1  0
 12 13  1  0
 13 14  1  0
 13 15  1  0
 13 16  2  0
  1 17  1  0
  2 18  1  0
  2 19  1  0
  5 20  1  1
  6 21  1  0
  7 22  1  1
  8 23  1  0
  9 24  1  6
 10 25  1  0
 11 26  1  0
 11 27  1  0
 14 28  1  0
 15 29  1  0
M  END
$$$$
