
     RDKit          3D

 89 92  0  0  0  0  0  0  0  0999 V2000
  -10.3505   -1.6142   -3.2942 C   0  0  0  0  0  0  0  0  0  0  0  0
   -9.7415   -1.8321   -1.9028 C   0  0  0  0  0  0  0  0  0  0  0  0
  -10.7430   -1.3939   -0.8230 C   0  0  0  0  0  0  0  0  0  0  0  0
   -8.3969   -1.0722   -1.7923 C   0  0  0  0  0  0  0  0  0  0  0  0
   -7.6033   -1.3894   -0.5105 C   0  0  1  0  0  0  0  0  0  0  0  0
   -7.3085   -2.8236   -0.4492 N   0  0  0  0  0  0  0  0  0  0  0  0
   -6.8376   -3.4740    0.5771 C   0  0  0  0  0  0  0  0  0  0  0  0
   -6.6035   -4.8768    0.4569 N   0  0  0  0  0  0  0  0  0  0  0  0
   -6.5514   -2.8206    1.8209 N   0  0  0  0  0  0  0  0  0  0  0  0
   -6.3226   -0.5949   -0.5071 C   0  0  0  0  0  0  0  0  0  0  0  0
   -5.3446   -0.9817   -1.2043 O   0  0  0  0  0  0  0  0  0  0  0  0
   -6.2298    0.6184    0.2533 N   0  0  0  0  0  0  0  0  0  0  0  0
   -5.0011    1.4083    0.3130 C   0  0  0  0  0  0  0  0  0  0  0  0
   -3.9429    0.7049    1.1267 C   0  0  0  0  0  0  0  0  0  0  0  0
   -4.3079   -0.1124    2.0163 O   0  0  0  0  0  0  0  0  0  0  0  0
   -2.5377    1.0026    0.9566 N   0  0  0  0  0  0  0  0  0  0  0  0
   -1.5126    0.1676    1.6051 C   0  0  0  0  0  0  0  0  0  0  0  0
   -0.5078    1.0301    2.3894 C   0  0  0  0  0  0  0  0  0  0  0  0
   -0.2352    2.4081    1.7352 C   0  0  0  0  0  0  0  0  0  0  0  0
   -0.6140    2.4193    0.2441 C   0  0  0  0  0  0  0  0  0  0  0  0
   -2.1096    2.1113    0.0846 C   0  0  0  0  0  0  0  0  0  0  0  0
    1.2037    2.8255    1.9422 C   0  0  0  0  0  0  0  0  0  0  0  0
    2.2996    2.3370    1.2545 C   0  0  0  0  0  0  0  0  0  0  0  0
    3.3901    2.9461    1.8560 C   0  0  0  0  0  0  0  0  0  0  0  0
    2.9640    3.7496    2.8518 N   0  0  0  0  0  0  0  0  0  0  0  0
    1.6449    3.6624    2.9061 N   0  0  0  0  0  0  0  0  0  0  0  0
    0.8353    4.3792    3.8850 C   0  0  0  0  0  0  0  0  0  0  0  0
    4.8111    2.7788    1.4608 C   0  0  0  0  0  0  0  0  0  0  0  0
    5.8721    2.8883    2.3921 C   0  0  0  0  0  0  0  0  0  0  0  0
    5.5595    3.1435    4.1129 Cl  0  0  0  0  0  0  0  0  0  0  0  0
    7.2046    2.7393    1.9574 C   0  0  0  0  0  0  0  0  0  0  0  0
    8.5418    2.8631    3.1011 Cl  0  0  0  0  0  0  0  0  0  0  0  0
    7.4901    2.4748    0.6094 C   0  0  0  0  0  0  0  0  0  0  0  0
    8.8339    2.3282    0.2225 O   0  0  0  0  0  0  0  0  0  0  0  0
    9.2849    1.9225   -1.0705 C   0  0  0  0  0  0  0  0  0  0  0  0
    8.9480    0.4771   -1.3251 C   0  0  0  0  0  0  0  0  0  0  0  0
    8.2833    0.0946   -2.5003 C   0  0  0  0  0  0  0  0  0  0  0  0
    7.9770   -1.2493   -2.7332 C   0  0  0  0  0  0  0  0  0  0  0  0
    8.3514   -2.2356   -1.8033 C   0  0  0  0  0  0  0  0  0  0  0  0
    8.0262   -3.6218   -2.0057 N   0  0  0  0  0  0  0  0  0  0  0  0
    7.9823   -4.2604   -3.2911 C   0  0  0  0  0  0  0  0  0  0  0  0
    7.4407   -5.6472   -3.4137 C   0  0  0  0  0  0  0  0  0  0  0  0
    8.4726   -3.6970   -4.3067 O   0  0  0  0  0  0  0  0  0  0  0  0
    9.0067   -1.8485   -0.6251 C   0  0  0  0  0  0  0  0  0  0  0  0
    9.3137   -0.5051   -0.3925 C   0  0  0  0  0  0  0  0  0  0  0  0
    6.4324    2.3648   -0.3072 C   0  0  0  0  0  0  0  0  0  0  0  0
    5.1127    2.5119    0.1152 C   0  0  0  0  0  0  0  0  0  0  0  0
  -10.5631   -0.5367   -3.4645 H   0  0  0  0  0  0  0  0  0  0  0  0
  -11.2971   -2.1872   -3.3951 H   0  0  0  0  0  0  0  0  0  0  0  0
   -9.6514   -1.9708   -4.0805 H   0  0  0  0  0  0  0  0  0  0  0  0
   -9.5584   -2.9231   -1.7882 H   0  0  0  0  0  0  0  0  0  0  0  0
  -10.8784   -0.2911   -0.8362 H   0  0  0  0  0  0  0  0  0  0  0  0
  -10.3978   -1.7077    0.1832 H   0  0  0  0  0  0  0  0  0  0  0  0
  -11.7295   -1.8755   -0.9943 H   0  0  0  0  0  0  0  0  0  0  0  0
   -7.7635   -1.3352   -2.6694 H   0  0  0  0  0  0  0  0  0  0  0  0
   -8.5906    0.0230   -1.8412 H   0  0  0  0  0  0  0  0  0  0  0  0
   -8.2153   -1.0982    0.3687 H   0  0  0  0  0  0  0  0  0  0  0  0
   -6.2272   -5.4233    1.2629 H   0  0  0  0  0  0  0  0  0  0  0  0
   -6.8061   -5.3737   -0.4391 H   0  0  0  0  0  0  0  0  0  0  0  0
   -6.1657   -3.3714    2.6194 H   0  0  0  0  0  0  0  0  0  0  0  0
   -6.7168   -1.8026    1.9739 H   0  0  0  0  0  0  0  0  0  0  0  0
   -7.0687    0.9613    0.7736 H   0  0  0  0  0  0  0  0  0  0  0  0
   -5.2169    2.3876    0.7907 H   0  0  0  0  0  0  0  0  0  0  0  0
   -4.6473    1.6000   -0.7212 H   0  0  0  0  0  0  0  0  0  0  0  0
   -1.9571   -0.5817    2.2938 H   0  0  0  0  0  0  0  0  0  0  0  0
   -0.9707   -0.4008    0.8181 H   0  0  0  0  0  0  0  0  0  0  0  0
    0.4331    0.4450    2.4932 H   0  0  0  0  0  0  0  0  0  0  0  0
   -0.8987    1.1964    3.4172 H   0  0  0  0  0  0  0  0  0  0  0  0
   -0.8915    3.1562    2.2319 H   0  0  0  0  0  0  0  0  0  0  0  0
   -0.3964    3.4161   -0.1987 H   0  0  0  0  0  0  0  0  0  0  0  0
   -0.0218    1.6589   -0.3106 H   0  0  0  0  0  0  0  0  0  0  0  0
   -2.3165    1.8569   -0.9768 H   0  0  0  0  0  0  0  0  0  0  0  0
   -2.6825    3.0271    0.3490 H   0  0  0  0  0  0  0  0  0  0  0  0
    2.3043    1.6173    0.4468 H   0  0  0  0  0  0  0  0  0  0  0  0
    0.2190    3.6593    4.4637 H   0  0  0  0  0  0  0  0  0  0  0  0
    0.1736    5.1038    3.3658 H   0  0  0  0  0  0  0  0  0  0  0  0
    1.4888    4.9347    4.5907 H   0  0  0  0  0  0  0  0  0  0  0  0
    8.8620    2.5945   -1.8484 H   0  0  0  0  0  0  0  0  0  0  0  0
   10.3885    2.0352   -1.1084 H   0  0  0  0  0  0  0  0  0  0  0  0
    7.9890    0.8374   -3.2313 H   0  0  0  0  0  0  0  0  0  0  0  0
    7.4263   -1.5102   -3.6268 H   0  0  0  0  0  0  0  0  0  0  0  0
    7.8922   -4.2234   -1.1613 H   0  0  0  0  0  0  0  0  0  0  0  0
    7.1342   -5.8511   -4.4616 H   0  0  0  0  0  0  0  0  0  0  0  0
    8.2213   -6.3766   -3.1134 H   0  0  0  0  0  0  0  0  0  0  0  0
    6.5552   -5.7671   -2.7548 H   0  0  0  0  0  0  0  0  0  0  0  0
    9.2895   -2.5921    0.1094 H   0  0  0  0  0  0  0  0  0  0  0  0
    9.8311   -0.2291    0.5181 H   0  0  0  0  0  0  0  0  0  0  0  0
    6.6160    2.1748   -1.3544 H   0  0  0  0  0  0  0  0  0  0  0  0
    4.3243    2.4371   -0.6232 H   0  0  0  0  0  0  0  0  0  0  0  0
  1  2  1  0
  2  3  1  0
  2  4  1  0
  4  5  1  0
  5  6  1  0
  6  7  2  3
  7  8  1  0
  7  9  1  0
  5 10  1  0
 10 11  2  0
 10 12  1  0
 12 13  1  0
 13 14  1  0
 14 15  2  0
 14 16  1  0
 16 17  1  0
 17 18  1  0
 18 19  1  0
 19 20  1  0
 20 21  1  0
 19 22  1  0
 22 23  2  0
 23 24  1  0
 24 25  2  0
 25 26  1  0
 26 27  1  0
 24 28  1  0
 28 29  2  0
 29 30  1  0
 29 31  1  0
 31 32  1  0
 31 33  2  0
 33 34  1  0
 34 35  1  0
 35 36  1  0
 36 37  2  0
 37 38  1  0
 38 39  2  0
 39 40  1  0
 40 41  1  0
 41 42  1  0
 41 43  2  0
 39 44  1  0
 44 45  2  0
 33 46  1  0
 46 47  2  0
 21 16  1  0
 26 22  1  0
 47 28  1  0
 45 36  1  0
  1 48  1  0
  1 49  1  0
  1 50  1  0
  2 51  1  0
  3 52  1  0
  3 53  1  0
  3 54  1  0
  4 55  1  0
  4 56  1  0
  5 57  1  1
  8 58  1  0
  8 59  1  0
  9 60  1  0
  9 61  1  0
 12 62  1  0
 13 63  1  0
 13 64  1  0
 17 65  1  0
 17 66  1  0
 18 67  1  0
 18 68  1  0
 19 69  1  0
 20 70  1  0
 20 71  1  0
 21 72  1  0
 21 73  1  0
 23 74  1  0
 27 75  1  0
 27 76  1  0
 27 77  1  0
 35 78  1  0
 35 79  1  0
 37 80  1  0
 38 81  1  0
 40 82  1  0
 42 83  1  0
 42 84  1  0
 42 85  1  0
 44 86  1  0
 45 87  1  0
 46 88  1  0
 47 89  1  0
M  END
$$$$
