
     RDKit          3D

 27 29  0  0  0  0  0  0  0  0999 V2000
   -2.0276   -2.7193   -1.2732 O   0  0  0  0  0  0  0  0  0  0  0  0
   -1.5330   -1.6710   -0.7758 C   0  0  0  0  0  0  0  0  0  0  0  0
   -0.1458   -1.5175   -0.7332 C   0  0  0  0  0  0  0  0  0  0  0  0
    0.4075   -0.3451   -0.1769 C   0  0  0  0  0  0  0  0  0  0  0  0
   -0.4136    0.5933    0.2975 O   0  0  0  0  0  0  0  0  0  0  0  0
   -1.7384    0.4894    0.2776 C   0  0  0  0  0  0  0  0  0  0  0  0
   -2.5225    1.5249    0.7982 C   0  0  0  0  0  0  0  0  0  0  0  0
   -3.9167    1.4256    0.7821 C   0  0  0  0  0  0  0  0  0  0  0  0
   -4.5335    0.2917    0.2459 C   0  0  0  0  0  0  0  0  0  0  0  0
   -3.7599   -0.7492   -0.2771 C   0  0  0  0  0  0  0  0  0  0  0  0
   -2.3558   -0.6576   -0.2650 C   0  0  0  0  0  0  0  0  0  0  0  0
    1.8807   -0.1010   -0.0923 C   0  0  0  0  0  0  0  0  0  0  0  0
    2.8403   -1.0262   -0.5635 C   0  0  0  0  0  0  0  0  0  0  0  0
    4.2074   -0.7496   -0.4607 C   0  0  0  0  0  0  0  0  0  0  0  0
    4.6424    0.4464    0.1098 C   0  0  0  0  0  0  0  0  0  0  0  0
    3.7111    1.3712    0.5802 C   0  0  0  0  0  0  0  0  0  0  0  0
    2.3431    1.1026    0.4813 C   0  0  0  0  0  0  0  0  0  0  0  0
    0.4657   -2.3113   -1.1326 H   0  0  0  0  0  0  0  0  0  0  0  0
   -2.0517    2.4063    1.2152 H   0  0  0  0  0  0  0  0  0  0  0  0
   -4.5199    2.2285    1.1857 H   0  0  0  0  0  0  0  0  0  0  0  0
   -5.6135    0.2193    0.2357 H   0  0  0  0  0  0  0  0  0  0  0  0
   -4.2584   -1.6187   -0.6876 H   0  0  0  0  0  0  0  0  0  0  0  0
    2.5612   -1.9652   -1.0129 H   0  0  0  0  0  0  0  0  0  0  0  0
    4.9321   -1.4663   -0.8253 H   0  0  0  0  0  0  0  0  0  0  0  0
    5.7014    0.6563    0.1873 H   0  0  0  0  0  0  0  0  0  0  0  0
    4.0490    2.2994    1.0230 H   0  0  0  0  0  0  0  0  0  0  0  0
    1.6482    1.8431    0.8568 H   0  0  0  0  0  0  0  0  0  0  0  0
  1  2  2  0
  2  3  1  0
  3  4  2  0
  4  5  1  0
  5  6  1  0
  6  7  2  0
  7  8  1  0
  8  9  2  0
  9 10  1  0
 10 11  2  0
  4 12  1  0
 12 13  2  0
 13 14  1  0
 14 15  2  0
 15 16  1  0
 16 17  2  0
 11  2  1  0
 17 12  1  0
 11  6  1  0
  3 18  1  0
  7 19  1  0
  8 20  1  0
  9 21  1  0
 10 22  1  0
 13 23  1  0
 14 24  1  0
 15 25  1  0
 16 26  1  0
 17 27  1  0
M  END
$$$$
