
     RDKit          2D

222234  0  0  0  0  0  0  0  0999 V2000
    6.1670   -8.4820    0.0000 C   0  0  0  0  0  0  0  0  0  0  0  0
    5.5930   -7.0962    0.0000 N   0  0  0  0  0  0  0  0  0  0  0  0
    6.5061   -5.9062    0.0000 C   0  0  0  0  0  0  0  0  0  0  0  0
    7.6962   -6.8193    0.0000 C   0  0  0  0  0  0  0  0  0  0  0  0
    8.8862   -7.7325    0.0000 C   0  0  0  0  0  0  0  0  0  0  0  0
   10.0762   -8.6456    0.0000 C   0  0  0  0  0  0  0  0  0  0  0  0
    7.9731   -8.9225    0.0000 C   0  0  0  0  0  0  0  0  0  0  0  0
    5.3161   -4.9931    0.0000 C   0  0  0  0  0  0  0  0  0  0  0  0
    3.9303   -5.5671    0.0000 O   0  0  0  0  0  0  0  0  0  0  0  0
    5.5119   -3.5059    0.0000 N   0  0  0  0  0  0  0  0  0  0  0  0
    4.3219   -2.5927    0.0000 C   0  0  0  0  0  0  0  0  0  0  0  0
    2.8347   -2.7885    0.0000 C   0  0  0  0  0  0  0  0  0  0  0  0
    3.5847   -4.0876    0.0000 O   0  0  0  0  0  0  0  0  0  0  0  0
    0.7500   -1.2990    0.0000 C   0  0  0  0  0  0  0  0  0  0  0  0
    1.5000    0.0000    0.0000 C   0  0  0  0  0  0  0  0  0  0  0  0
    0.7500    1.2990    0.0000 C   0  0  0  0  0  0  0  0  0  0  0  0
   -0.7500    1.2990    0.0000 C   0  0  0  0  0  0  0  0  0  0  0  0
   -0.3618    2.7479    0.0000 O   0  0  0  0  0  0  0  0  0  0  0  0
    0.5514    3.9380    0.0000 C   0  0  0  0  0  0  0  0  0  0  0  0
    0.3369    6.0353    0.0000 C   0  0  0  0  0  0  0  0  0  0  0  0
   -1.1120    6.4235    0.0000 O   0  0  0  0  0  0  0  0  0  0  0  0
   -2.1727    5.3628    0.0000 C   0  0  0  0  0  0  0  0  0  0  0  0
   -0.9439    4.5025    0.0000 O   0  0  0  0  0  0  0  0  0  0  0  0
   -1.0747    3.0082    0.0000 C   0  0  0  0  0  0  0  0  0  0  0  0
   -0.6864    1.5593    0.0000 C   0  0  0  0  0  0  0  0  0  0  0  0
   -0.2982    0.1104    0.0000 O   0  0  0  0  0  0  0  0  0  0  0  0
   -2.4341    2.3743    0.0000 C   0  0  0  0  0  0  0  0  0  0  0  0
   -3.4948    1.3136    0.0000 O   0  0  0  0  0  0  0  0  0  0  0  0
   -3.6629    3.2346    0.0000 C   0  0  0  0  0  0  0  0  0  0  0  0
   -5.1117    3.6228    0.0000 O   0  0  0  0  0  0  0  0  0  0  0  0
   -3.5321    4.7289    0.0000 C   0  0  0  0  0  0  0  0  0  0  0  0
   -3.9204    6.1778    0.0000 O   0  0  0  0  0  0  0  0  0  0  0  0
   -5.3692    6.5660    0.0000 C   0  0  0  0  0  0  0  0  0  0  0  0
   -5.5000    5.0717    0.0000 C   0  0  0  0  0  0  0  0  0  0  0  0
   -6.8594    4.4378    0.0000 C   0  0  0  0  0  0  0  0  0  0  0  0
   -7.9201    3.3771    0.0000 C   0  0  0  0  0  0  0  0  0  0  0  0
   -5.9991    3.2091    0.0000 N   0  0  0  0  0  0  0  0  0  0  0  0
   -6.6330    1.8496    0.0000 C   0  0  0  0  0  0  0  0  0  0  0  0
   -7.2669    0.4902    0.0000 C   0  0  0  0  0  0  0  0  0  0  0  0
   -6.4066   -0.7386    0.0000 C   0  0  0  0  0  0  0  0  0  0  0  0
   -7.0405   -2.0980    0.0000 C   0  0  0  0  0  0  0  0  0  0  0  0
   -8.5348   -2.2288    0.0000 C   0  0  0  0  0  0  0  0  0  0  0  0
   -9.3951   -1.0000    0.0000 C   0  0  0  0  0  0  0  0  0  0  0  0
   -8.7612    0.3594    0.0000 C   0  0  0  0  0  0  0  0  0  0  0  0
   -9.1687   -3.5882    0.0000 C   0  0  0  0  0  0  0  0  0  0  0  0
   -8.3083   -4.8170    0.0000 C   0  0  0  0  0  0  0  0  0  0  0  0
   -8.9423   -6.1764    0.0000 C   0  0  0  0  0  0  0  0  0  0  0  0
  -10.4366   -6.3072    0.0000 C   0  0  0  0  0  0  0  0  0  0  0  0
  -11.0705   -7.6666    0.0000 Cl  0  0  0  0  0  0  0  0  0  0  0  0
  -11.2969   -5.0784    0.0000 C   0  0  0  0  0  0  0  0  0  0  0  0
  -10.6630   -3.7190    0.0000 C   0  0  0  0  0  0  0  0  0  0  0  0
   -8.0882    5.2982    0.0000 C   0  0  0  0  0  0  0  0  0  0  0  0
   -9.5371    5.6864    0.0000 O   0  0  0  0  0  0  0  0  0  0  0  0
   -7.9574    6.7925    0.0000 C   0  0  0  0  0  0  0  0  0  0  0  0
   -8.3457    8.2414    0.0000 C   0  0  0  0  0  0  0  0  0  0  0  0
   -6.5980    7.4264    0.0000 O   0  0  0  0  0  0  0  0  0  0  0  0
    1.3975    7.0959    0.0000 C   0  0  0  0  0  0  0  0  0  0  0  0
    2.1475    5.7969    0.0000 C   0  0  0  0  0  0  0  0  0  0  0  0
    3.3376    4.8837    0.0000 C   0  0  0  0  0  0  0  0  0  0  0  0
    1.8504    4.6880    0.0000 C   0  0  0  0  0  0  0  0  0  0  0  0
    4.7865    4.4955    0.0000 C   0  0  0  0  0  0  0  0  0  0  0  0
    5.9765    3.5824    0.0000 N   0  0  0  0  0  0  0  0  0  0  0  0
    6.7265    2.2833    0.0000 C   0  0  0  0  0  0  0  0  0  0  0  0
    8.0775    2.9350    0.0000 O   0  0  0  0  0  0  0  0  0  0  0  0
    6.9223    0.7962    0.0000 C   0  0  0  0  0  0  0  0  0  0  0  0
    8.2213    1.5462    0.0000 C   0  0  0  0  0  0  0  0  0  0  0  0
    9.5204    2.2962    0.0000 C   0  0  0  0  0  0  0  0  0  0  0  0
   10.8194    1.5462    0.0000 N   0  0  0  0  0  0  0  0  0  0  0  0
    9.3375    3.7850    0.0000 O   0  0  0  0  0  0  0  0  0  0  0  0
    6.5341   -0.6527    0.0000 N   0  0  0  0  0  0  0  0  0  0  0  0
    5.6209   -1.8427    0.0000 C   0  0  0  0  0  0  0  0  0  0  0  0
    6.7400   -2.8415    0.0000 O   0  0  0  0  0  0  0  0  0  0  0  0
    6.2736    4.6913    0.0000 C   0  0  0  0  0  0  0  0  0  0  0  0
    7.2329    3.5381    0.0000 O   0  0  0  0  0  0  0  0  0  0  0  0
    7.5727    5.4413    0.0000 N   0  0  0  0  0  0  0  0  0  0  0  0
    8.4858    6.6313    0.0000 C   0  0  0  0  0  0  0  0  0  0  0  0
    9.8490    6.2294    0.0000 C   0  0  0  0  0  0  0  0  0  0  0  0
   11.3361    6.4252    0.0000 C   0  0  0  0  0  0  0  0  0  0  0  0
   12.5262    7.3383    0.0000 C   0  0  0  0  0  0  0  0  0  0  0  0
   12.8233    5.8378    0.0000 C   0  0  0  0  0  0  0  0  0  0  0  0
   14.3105    5.6420    0.0000 O   0  0  0  0  0  0  0  0  0  0  0  0
   11.9102    4.6478    0.0000 C   0  0  0  0  0  0  0  0  0  0  0  0
   10.4230    4.8436    0.0000 C   0  0  0  0  0  0  0  0  0  0  0  0
   13.1002    8.7241    0.0000 C   0  0  0  0  0  0  0  0  0  0  0  0
   14.4860    8.1501    0.0000 C   0  0  0  0  0  0  0  0  0  0  0  0
   14.6818    6.6629    0.0000 O   0  0  0  0  0  0  0  0  0  0  0  0
   15.6760    9.0633    0.0000 C   0  0  0  0  0  0  0  0  0  0  0  0
   15.4803   10.5504    0.0000 C   0  0  0  0  0  0  0  0  0  0  0  0
   16.6703   11.4636    0.0000 O   0  0  0  0  0  0  0  0  0  0  0  0
   14.0944   11.1244    0.0000 C   0  0  0  0  0  0  0  0  0  0  0  0
   12.9044   10.2113    0.0000 C   0  0  0  0  0  0  0  0  0  0  0  0
   11.9913   11.4013    0.0000 C   0  0  0  0  0  0  0  0  0  0  0  0
   10.6054   11.9754    0.0000 N   0  0  0  0  0  0  0  0  0  0  0  0
    9.1183   11.7796    0.0000 C   0  0  0  0  0  0  0  0  0  0  0  0
    8.5443   13.1654    0.0000 O   0  0  0  0  0  0  0  0  0  0  0  0
    7.9283   10.8664    0.0000 C   0  0  0  0  0  0  0  0  0  0  0  0
    8.6783    9.5674    0.0000 N   0  0  0  0  0  0  0  0  0  0  0  0
    8.8740    8.0802    0.0000 C   0  0  0  0  0  0  0  0  0  0  0  0
   10.3708    7.9821    0.0000 O   0  0  0  0  0  0  0  0  0  0  0  0
    6.7382   11.7796    0.0000 C   0  0  0  0  0  0  0  0  0  0  0  0
    6.5424   13.2667    0.0000 O   0  0  0  0  0  0  0  0  0  0  0  0
    7.7325   14.1799    0.0000 C   0  0  0  0  0  0  0  0  0  0  0  0
    6.6265   15.1933    0.0000 C   0  0  0  0  0  0  0  0  0  0  0  0
    6.9512   16.6577    0.0000 C   0  0  0  0  0  0  0  0  0  0  0  0
    6.7554   18.1449    0.0000 C   0  0  0  0  0  0  0  0  0  0  0  0
    5.4526   16.7231    0.0000 N   0  0  0  0  0  0  0  0  0  0  0  0
    8.3818   17.1088    0.0000 C   0  0  0  0  0  0  0  0  0  0  0  0
    9.5718   18.0219    0.0000 O   0  0  0  0  0  0  0  0  0  0  0  0
    9.4877   16.0954    0.0000 C   0  0  0  0  0  0  0  0  0  0  0  0
   10.8735   15.5214    0.0000 C   0  0  0  0  0  0  0  0  0  0  0  0
    9.1630   14.6309    0.0000 O   0  0  0  0  0  0  0  0  0  0  0  0
    5.2893   12.1678    0.0000 C   0  0  0  0  0  0  0  0  0  0  0  0
    3.8022   11.9720    0.0000 C   0  0  0  0  0  0  0  0  0  0  0  0
    2.5031   11.2220    0.0000 C   0  0  0  0  0  0  0  0  0  0  0  0
    1.5141   12.3498    0.0000 Cl  0  0  0  0  0  0  0  0  0  0  0  0
    1.5900   10.0320    0.0000 C   0  0  0  0  0  0  0  0  0  0  0  0
    1.2018    8.5831    0.0000 O   0  0  0  0  0  0  0  0  0  0  0  0
    3.0772   10.2278    0.0000 C   0  0  0  0  0  0  0  0  0  0  0  0
    4.3762   10.9778    0.0000 C   0  0  0  0  0  0  0  0  0  0  0  0
   12.0567   12.8999    0.0000 C   0  0  0  0  0  0  0  0  0  0  0  0
   10.7916   13.7059    0.0000 O   0  0  0  0  0  0  0  0  0  0  0  0
   13.3872   13.5925    0.0000 O   0  0  0  0  0  0  0  0  0  0  0  0
   -1.5000    0.0000    0.0000 C   0  0  0  0  0  0  0  0  0  0  0  0
   -2.9888   -0.1828    0.0000 Cl  0  0  0  0  0  0  0  0  0  0  0  0
   -0.7500   -1.2990    0.0000 C   0  0  0  0  0  0  0  0  0  0  0  0
    6.5678   -9.9275    0.0000 H   0  0  0  0  0  0  0  0  0  0  0  0
    4.7812   -9.0561    0.0000 H   0  0  0  0  0  0  0  0  0  0  0  0
    7.5528   -7.9080    0.0000 H   0  0  0  0  0  0  0  0  0  0  0  0
    4.1058   -6.9004    0.0000 H   0  0  0  0  0  0  0  0  0  0  0  0
    7.4193   -4.7162    0.0000 H   0  0  0  0  0  0  0  0  0  0  0  0
    8.6093   -5.6293    0.0000 H   0  0  0  0  0  0  0  0  0  0  0  0
    7.0981   -8.1950    0.0000 H   0  0  0  0  0  0  0  0  0  0  0  0
    9.7993   -6.5425    0.0000 H   0  0  0  0  0  0  0  0  0  0  0  0
   11.2663   -9.5588    0.0000 H   0  0  0  0  0  0  0  0  0  0  0  0
   10.9894   -7.4556    0.0000 H   0  0  0  0  0  0  0  0  0  0  0  0
    9.3150   -9.9381    0.0000 H   0  0  0  0  0  0  0  0  0  0  0  0
    7.2118  -10.2150    0.0000 H   0  0  0  0  0  0  0  0  0  0  0  0
    9.0429   -9.9739    0.0000 H   0  0  0  0  0  0  0  0  0  0  0  0
    6.5974   -8.3245    0.0000 H   0  0  0  0  0  0  0  0  0  0  0  0
    6.9574   -3.1051    0.0000 H   0  0  0  0  0  0  0  0  0  0  0  0
    4.2958   -4.0925    0.0000 H   0  0  0  0  0  0  0  0  0  0  0  0
    1.9216   -3.9786    0.0000 H   0  0  0  0  0  0  0  0  0  0  0  0
    2.8347   -5.3866    0.0000 H   0  0  0  0  0  0  0  0  0  0  0  0
    3.0000    0.0000    0.0000 H   0  0  0  0  0  0  0  0  0  0  0  0
    1.5000    2.5981    0.0000 H   0  0  0  0  0  0  0  0  0  0  0  0
   -3.0330    6.5916    0.0000 H   0  0  0  0  0  0  0  0  0  0  0  0
    0.4069    2.7734    0.0000 H   0  0  0  0  0  0  0  0  0  0  0  0
    0.6255    2.2866    0.0000 H   0  0  0  0  0  0  0  0  0  0  0  0
   -2.0772    0.9973    0.0000 H   0  0  0  0  0  0  0  0  0  0  0  0
    1.0137   -0.6169    0.0000 H   0  0  0  0  0  0  0  0  0  0  0  0
   -1.7300    1.0498    0.0000 H   0  0  0  0  0  0  0  0  0  0  0  0
   -3.2861   -0.1718    0.0000 H   0  0  0  0  0  0  0  0  0  0  0  0
   -4.2968    1.8752    0.0000 H   0  0  0  0  0  0  0  0  0  0  0  0
   -5.7217    2.2525    0.0000 H   0  0  0  0  0  0  0  0  0  0  0  0
   -4.9504    4.2405    0.0000 H   0  0  0  0  0  0  0  0  0  0  0  0
   -4.7353    7.9255    0.0000 H   0  0  0  0  0  0  0  0  0  0  0  0
   -5.2913    3.5863    0.0000 H   0  0  0  0  0  0  0  0  0  0  0  0
   -4.0185    4.8370    0.0000 H   0  0  0  0  0  0  0  0  0  0  0  0
   -8.9808    2.3165    0.0000 H   0  0  0  0  0  0  0  0  0  0  0  0
   -7.3101    2.0068    0.0000 H   0  0  0  0  0  0  0  0  0  0  0  0
   -9.1021    4.3006    0.0000 H   0  0  0  0  0  0  0  0  0  0  0  0
   -4.5319    3.5210    0.0000 H   0  0  0  0  0  0  0  0  0  0  0  0
   -7.9925    2.4835    0.0000 H   0  0  0  0  0  0  0  0  0  0  0  0
   -5.2735    1.2157    0.0000 H   0  0  0  0  0  0  0  0  0  0  0  0
   -4.9123   -0.6078    0.0000 H   0  0  0  0  0  0  0  0  0  0  0  0
   -6.1801   -3.3268    0.0000 H   0  0  0  0  0  0  0  0  0  0  0  0
  -10.8894   -1.1308    0.0000 H   0  0  0  0  0  0  0  0  0  0  0  0
   -9.6216    1.5881    0.0000 H   0  0  0  0  0  0  0  0  0  0  0  0
   -6.8141   -4.6862    0.0000 H   0  0  0  0  0  0  0  0  0  0  0  0
   -8.0819   -7.4051    0.0000 H   0  0  0  0  0  0  0  0  0  0  0  0
  -12.7912   -5.2092    0.0000 H   0  0  0  0  0  0  0  0  0  0  0  0
  -11.5234   -2.4902    0.0000 H   0  0  0  0  0  0  0  0  0  0  0  0
   -8.8831    4.0261    0.0000 H   0  0  0  0  0  0  0  0  0  0  0  0
  -10.5977    4.6257    0.0000 H   0  0  0  0  0  0  0  0  0  0  0  0
   -9.4517    6.6617    0.0000 H   0  0  0  0  0  0  0  0  0  0  0  0
   -8.7339    9.6902    0.0000 H   0  0  0  0  0  0  0  0  0  0  0  0
   -9.7945    7.8531    0.0000 H   0  0  0  0  0  0  0  0  0  0  0  0
   -6.8968    8.6296    0.0000 H   0  0  0  0  0  0  0  0  0  0  0  0
    1.0198    4.8079    0.0000 H   0  0  0  0  0  0  0  0  0  0  0  0
    1.3682    6.1084    0.0000 H   0  0  0  0  0  0  0  0  0  0  0  0
    6.2480    4.8331    0.0000 H   0  0  0  0  0  0  0  0  0  0  0  0
    7.1043    4.5714    0.0000 H   0  0  0  0  0  0  0  0  0  0  0  0
    8.1123   -0.1170    0.0000 H   0  0  0  0  0  0  0  0  0  0  0  0
    7.8079    2.9881    0.0000 H   0  0  0  0  0  0  0  0  0  0  0  0
    8.9713    0.2471    0.0000 H   0  0  0  0  0  0  0  0  0  0  0  0
   12.1184    2.2962    0.0000 H   0  0  0  0  0  0  0  0  0  0  0  0
   10.8194    0.0462    0.0000 H   0  0  0  0  0  0  0  0  0  0  0  0
    7.8794   -1.3162    0.0000 H   0  0  0  0  0  0  0  0  0  0  0  0
    8.5617    4.3135    0.0000 H   0  0  0  0  0  0  0  0  0  0  0  0
    9.9517    6.3131    0.0000 H   0  0  0  0  0  0  0  0  0  0  0  0
   11.5578    4.9416    0.0000 H   0  0  0  0  0  0  0  0  0  0  0  0
   14.8845    4.2562    0.0000 H   0  0  0  0  0  0  0  0  0  0  0  0
   12.4842    3.2620    0.0000 H   0  0  0  0  0  0  0  0  0  0  0  0
    9.3716    3.7737    0.0000 H   0  0  0  0  0  0  0  0  0  0  0  0
   16.0676    6.0889    0.0000 H   0  0  0  0  0  0  0  0  0  0  0  0
   17.0619    8.4892    0.0000 H   0  0  0  0  0  0  0  0  0  0  0  0
   16.4745   12.9507    0.0000 H   0  0  0  0  0  0  0  0  0  0  0  0
   14.0814   12.6244    0.0000 H   0  0  0  0  0  0  0  0  0  0  0  0
   13.3562   12.0234    0.0000 H   0  0  0  0  0  0  0  0  0  0  0  0
   10.2552   13.4339    0.0000 H   0  0  0  0  0  0  0  0  0  0  0  0
    8.7832   12.0989    0.0000 H   0  0  0  0  0  0  0  0  0  0  0  0
   10.0986   10.0496    0.0000 H   0  0  0  0  0  0  0  0  0  0  0  0
    8.0373   12.5296    0.0000 H   0  0  0  0  0  0  0  0  0  0  0  0
    8.4251   12.8494    0.0000 H   0  0  0  0  0  0  0  0  0  0  0  0
    5.1811   15.5941    0.0000 H   0  0  0  0  0  0  0  0  0  0  0  0
    5.8206   13.9282    0.0000 H   0  0  0  0  0  0  0  0  0  0  0  0
    6.5596   19.6320    0.0000 H   0  0  0  0  0  0  0  0  0  0  0  0
    8.2076   18.5205    0.0000 H   0  0  0  0  0  0  0  0  0  0  0  0
    5.2555   18.1318    0.0000 H   0  0  0  0  0  0  0  0  0  0  0  0
    4.6030   17.9593    0.0000 H   0  0  0  0  0  0  0  0  0  0  0  0
    4.4985   15.5657    0.0000 H   0  0  0  0  0  0  0  0  0  0  0  0
    7.8565   18.5138    0.0000 H   0  0  0  0  0  0  0  0  0  0  0  0
    9.3760   19.5091    0.0000 H   0  0  0  0  0  0  0  0  0  0  0  0
   10.2936   17.3605    0.0000 H   0  0  0  0  0  0  0  0  0  0  0  0
   12.2593   14.9473    0.0000 H   0  0  0  0  0  0  0  0  0  0  0  0
   11.4475   16.9072    0.0000 H   0  0  0  0  0  0  0  0  0  0  0  0
    9.8409   14.4334    0.0000 H   0  0  0  0  0  0  0  0  0  0  0  0
    3.3200   13.3924    0.0000 H   0  0  0  0  0  0  0  0  0  0  0  0
    3.5593    8.8074    0.0000 H   0  0  0  0  0  0  0  0  0  0  0  0
    5.3652    9.8500    0.0000 H   0  0  0  0  0  0  0  0  0  0  0  0
   11.2177   15.1441    0.0000 H   0  0  0  0  0  0  0  0  0  0  0  0
   -1.5000   -2.5981    0.0000 H   0  0  0  0  0  0  0  0  0  0  0  0
  1  2  1  0
  2  3  1  0
  3  4  1  0
  4  5  1  0
  5  6  1  0
  5  7  1  0
  3  8  1  0
  8  9  2  0
  8 10  1  0
 10 11  1  0
 11 12  1  0
 12 13  1  0
 12 14  1  0
 14 15  2  0
 15 16  1  0
 16 17  2  0
 17 18  1  0
 18 19  1  0
 19 20  1  0
 20 21  1  0
 21 22  1  0
 22 23  1  0
 23 24  1  0
 24 25  1  0
 25 26  1  0
 24 27  1  0
 27 28  1  0
 27 29  1  0
 29 30  1  0
 29 31  1  0
 31 32  1  0
 32 33  1  0
 33 34  1  0
 34 35  1  0
 35 36  1  0
 35 37  1  6
 37 38  1  0
 38 39  1  0
 39 40  2  0
 40 41  1  0
 41 42  2  0
 42 43  1  0
 43 44  2  0
 42 45  1  0
 45 46  2  0
 46 47  1  0
 47 48  2  0
 48 49  1  0
 48 50  1  0
 50 51  2  0
 35 52  1  0
 52 53  1  0
 52 54  1  0
 54 55  1  0
 54 56  1  0
 20 57  2  0
 57 58  1  0
 58 59  2  0
 59 60  1  0
 59 61  1  0
 61 62  1  0
 62 63  1  0
 63 64  2  0
 63 65  1  0
 65 66  1  0
 66 67  1  0
 67 68  1  0
 67 69  2  0
 65 70  1  0
 70 71  1  0
 71 72  2  0
 61 73  1  0
 73 74  2  0
 73 75  1  0
 75 76  1  0
 76 77  1  0
 77 78  2  0
 78 79  1  0
 79 80  2  0
 80 81  1  0
 80 82  1  0
 82 83  2  0
 79 84  1  0
 84 85  2  0
 85 86  1  0
 85 87  1  0
 87 88  2  0
 88 89  1  0
 88 90  1  0
 90 91  2  0
 91 92  1  0
 92 93  1  0
 93 94  1  0
 94 95  2  0
 94 96  1  0
 96 97  1  0
 97 98  1  0
 98 99  2  0
 96100  1  0
100101  1  0
101102  1  0
102103  1  0
103104  1  0
104105  1  0
104106  1  6
104107  1  0
107108  1  0
107109  1  0
109110  1  0
109111  1  0
100112  1  0
112113  2  0
113114  1  0
114115  1  0
114116  2  0
116117  1  0
116118  1  0
118119  2  0
 92120  1  0
120121  1  0
120122  2  0
 17123  1  0
123124  1  0
123125  2  0
 71 11  1  0
 98 76  1  0
111102  1  0
119112  1  0
125 14  1  0
 60 19  2  0
 83 77  1  0
 91 84  1  0
 31 22  1  0
 56 33  1  0
117 57  1  0
 44 39  1  0
 51 45  1  0
  1126  1  0
  1127  1  0
  1128  1  0
  2129  1  0
  3130  1  6
  4131  1  0
  4132  1  0
  5133  1  0
  6134  1  0
  6135  1  0
  6136  1  0
  7137  1  0
  7138  1  0
  7139  1  0
 10140  1  0
 11141  1  1
 12142  1  1
 13143  1  0
 15144  1  0
 16145  1  0
 22146  1  1
 24147  1  1
 25148  1  0
 25149  1  0
 26150  1  0
 27151  1  6
 28152  1  0
 29153  1  1
 30154  1  0
 31155  1  6
 33156  1  6
 34157  1  0
 34158  1  0
 36159  1  0
 36160  1  0
 36161  1  0
 37162  1  0
 38163  1  0
 38164  1  0
 40165  1  0
 41166  1  0
 43167  1  0
 44168  1  0
 46169  1  0
 47170  1  0
 50171  1  0
 51172  1  0
 52173  1  6
 53174  1  0
 54175  1  1
 55176  1  0
 55177  1  0
 55178  1  0
 58179  1  0
 60180  1  0
 61181  1  1
 62182  1  0
 65183  1  1
 66184  1  0
 66185  1  0
 68186  1  0
 68187  1  0
 70188  1  0
 75189  1  0
 76190  1  6
 78191  1  0
 81192  1  0
 82193  1  0
 83194  1  0
 86195  1  0
 87196  1  0
 89197  1  0
 90198  1  0
 92199  1  1
 93200  1  0
 96201  1  6
 97202  1  0
100203  1  6
102204  1  6
103205  1  0
103206  1  0
105207  1  0
105208  1  0
105209  1  0
106210  1  0
106211  1  0
107212  1  6
108213  1  0
109214  1  1
110215  1  0
110216  1  0
110217  1  0
113218  1  0
118219  1  0
119220  1  0
121221  1  0
125222  1  0
M  END
$$$$
