
     RDKit          3D

 45 47  0  0  0  0  0  0  0  0999 V2000
    5.0269    1.1722   -1.6933 O   0  0  0  0  0  0  0  0  0  0  0  0
    5.2327    0.3140   -0.6038 C   0  0  0  0  0  0  0  0  0  0  0  0
    4.1156   -0.7374   -0.5055 C   0  0  0  0  0  0  0  0  0  0  0  0
    2.8131   -0.2013    0.1334 C   0  0  0  0  0  0  0  0  0  0  0  0
    1.8510   -1.3722    0.4123 C   0  0  0  0  0  0  0  0  0  0  0  0
    0.5242   -0.8555    0.9704 C   0  0  0  0  0  0  0  0  0  0  0  0
   -0.1084    0.0595   -0.0117 N   0  0  0  0  0  0  0  0  0  0  0  0
    0.7538    1.2550   -0.1812 C   0  0  0  0  0  0  0  0  0  0  0  0
    2.1173    0.8494   -0.7569 C   0  0  0  0  0  0  0  0  0  0  0  0
   -1.5474    0.3776    0.2792 C   0  0  2  0  0  0  0  0  0  0  0  0
   -2.1012    1.2636   -0.8281 C   0  0  0  0  0  0  0  0  0  0  0  0
   -2.2032    0.8106   -2.0011 O   0  0  0  0  0  0  0  0  0  0  0  0
   -2.4421    2.6301   -0.5827 N   0  0  0  0  0  0  0  0  0  0  0  0
   -2.3117    3.2083    0.7155 C   0  0  0  0  0  0  0  0  0  0  0  0
   -2.5752    4.5631    0.8920 O   0  0  0  0  0  0  0  0  0  0  0  0
   -1.9638    2.4819    1.7305 N   0  0  0  0  0  0  0  0  0  0  0  0
   -1.6731    1.0842    1.6334 C   0  0  0  0  0  0  0  0  0  0  0  0
   -1.5143    0.4313    2.6997 O   0  0  0  0  0  0  0  0  0  0  0  0
   -2.4127   -0.8966    0.2460 C   0  0  0  0  0  0  0  0  0  0  0  0
   -3.6387   -0.9680    0.9466 C   0  0  0  0  0  0  0  0  0  0  0  0
   -4.4514   -2.1014    0.8526 C   0  0  0  0  0  0  0  0  0  0  0  0
   -4.0773   -3.1670    0.0338 C   0  0  0  0  0  0  0  0  0  0  0  0
   -2.8981   -3.0946   -0.7077 C   0  0  0  0  0  0  0  0  0  0  0  0
   -2.0812   -1.9643   -0.6190 C   0  0  0  0  0  0  0  0  0  0  0  0
    5.2555    0.6563   -2.5102 H   0  0  0  0  0  0  0  0  0  0  0  0
    6.2152   -0.1997   -0.7125 H   0  0  0  0  0  0  0  0  0  0  0  0
    5.2789    0.9146    0.3293 H   0  0  0  0  0  0  0  0  0  0  0  0
    4.5000   -1.5685    0.1262 H   0  0  0  0  0  0  0  0  0  0  0  0
    3.9066   -1.1631   -1.5117 H   0  0  0  0  0  0  0  0  0  0  0  0
    3.0675    0.2731    1.1084 H   0  0  0  0  0  0  0  0  0  0  0  0
    2.3077   -2.0668    1.1509 H   0  0  0  0  0  0  0  0  0  0  0  0
    1.6548   -1.9399   -0.5246 H   0  0  0  0  0  0  0  0  0  0  0  0
   -0.1197   -1.7323    1.1867 H   0  0  0  0  0  0  0  0  0  0  0  0
    0.7220   -0.3381    1.9351 H   0  0  0  0  0  0  0  0  0  0  0  0
    0.8954    1.7837    0.7884 H   0  0  0  0  0  0  0  0  0  0  0  0
    0.3086    1.9772   -0.8959 H   0  0  0  0  0  0  0  0  0  0  0  0
    2.7442    1.7627   -0.8273 H   0  0  0  0  0  0  0  0  0  0  0  0
    1.9718    0.4423   -1.7820 H   0  0  0  0  0  0  0  0  0  0  0  0
   -2.7701    3.2278   -1.3742 H   0  0  0  0  0  0  0  0  0  0  0  0
   -2.4943    4.9972    1.8040 H   0  0  0  0  0  0  0  0  0  0  0  0
   -3.9783   -0.1446    1.5610 H   0  0  0  0  0  0  0  0  0  0  0  0
   -5.3799   -2.1476    1.4069 H   0  0  0  0  0  0  0  0  0  0  0  0
   -4.7106   -4.0416   -0.0400 H   0  0  0  0  0  0  0  0  0  0  0  0
   -2.6211   -3.9112   -1.3619 H   0  0  0  0  0  0  0  0  0  0  0  0
   -1.1890   -1.9243   -1.2306 H   0  0  0  0  0  0  0  0  0  0  0  0
  1  2  1  0
  2  3  1  0
  3  4  1  0
  4  5  1  0
  5  6  1  0
  6  7  1  0
  7  8  1  0
  8  9  1  0
 10  7  1  6
 10 11  1  0
 11 12  2  0
 11 13  1  0
 13 14  1  0
 14 15  1  0
 14 16  2  0
 16 17  1  0
 17 18  2  0
 10 19  1  0
 19 20  2  0
 20 21  1  0
 21 22  2  0
 22 23  1  0
 23 24  2  0
  9  4  1  0
 17 10  1  0
 24 19  1  0
  1 25  1  0
  2 26  1  0
  2 27  1  0
  3 28  1  0
  3 29  1  0
  4 30  1  0
  5 31  1  0
  5 32  1  0
  6 33  1  0
  6 34  1  0
  8 35  1  0
  8 36  1  0
  9 37  1  0
  9 38  1  0
 13 39  1  0
 15 40  1  0
 20 41  1  0
 21 42  1  0
 22 43  1  0
 23 44  1  0
 24 45  1  0
M  END
$$$$
