
     RDKit          3D

 69 73  0  0  0  0  0  0  0  0999 V2000
    8.7950    1.1840    1.7930 C   0  0  0  0  0  0  0  0  0  0  0  0
    7.3931    1.3686    1.6251 O   0  0  0  0  0  0  0  0  0  0  0  0
    6.5936    0.6138    0.7539 C   0  0  0  0  0  0  0  0  0  0  0  0
    7.1181   -0.4156   -0.0504 C   0  0  0  0  0  0  0  0  0  0  0  0
    6.2793   -1.1378   -0.9024 C   0  0  0  0  0  0  0  0  0  0  0  0
    4.9160   -0.8422   -0.9629 C   0  0  0  0  0  0  0  0  0  0  0  0
    4.3773    0.1843   -0.1707 C   0  0  0  0  0  0  0  0  0  0  0  0
    5.2249    0.9036    0.6886 C   0  0  0  0  0  0  0  0  0  0  0  0
    2.9693    0.4808   -0.2229 N   0  0  0  0  0  0  0  0  0  0  0  0
    2.2946    0.6729   -1.5135 C   0  0  0  0  0  0  0  0  0  0  0  0
    1.0752   -0.2473   -1.5939 C   0  0  0  0  0  0  0  0  0  0  0  0
    0.2684   -0.1622   -0.3700 N   0  0  0  0  0  0  0  0  0  0  0  0
    0.6895    0.6882    0.7517 C   0  0  0  0  0  0  0  0  0  0  0  0
    2.1878    0.5050    1.0243 C   0  0  0  0  0  0  0  0  0  0  0  0
   -0.9262   -0.9515   -0.2718 C   0  0  0  0  0  0  0  0  0  0  0  0
   -0.8235   -2.2464   -0.2718 N   0  0  0  0  0  0  0  0  0  0  0  0
   -1.9550   -3.1026   -0.0885 C   0  0  0  0  0  0  0  0  0  0  0  0
   -3.2506   -2.5581   -0.0518 C   0  0  0  0  0  0  0  0  0  0  0  0
   -4.3445   -3.3930    0.2313 C   0  0  0  0  0  0  0  0  0  0  0  0
   -4.1471   -4.7589    0.4521 C   0  0  0  0  0  0  0  0  0  0  0  0
   -2.8602   -5.3000    0.3906 C   0  0  0  0  0  0  0  0  0  0  0  0
   -1.7641   -4.4740    0.1238 C   0  0  0  0  0  0  0  0  0  0  0  0
   -0.5152   -5.0030    0.0934 F   0  0  0  0  0  0  0  0  0  0  0  0
   -3.4498   -1.0975   -0.3977 C   0  0  2  0  0  0  0  0  0  0  0  0
   -3.8173   -0.9343   -1.8881 C   0  0  0  0  0  0  0  0  0  0  0  0
   -5.1641   -1.5072   -2.2071 C   0  0  0  0  0  0  0  0  0  0  0  0
   -6.3142   -0.8560   -1.7724 O   0  0  0  0  0  0  0  0  0  0  0  0
   -5.2562   -2.5875   -2.8493 O   0  0  0  0  0  0  0  0  0  0  0  0
   -2.2232   -0.3287   -0.1152 N   0  0  0  0  0  0  0  0  0  0  0  0
   -2.3324    1.0920    0.0715 C   0  0  0  0  0  0  0  0  0  0  0  0
   -1.9643    1.9639   -0.9642 C   0  0  0  0  0  0  0  0  0  0  0  0
   -2.0531    3.3541   -0.7960 C   0  0  0  0  0  0  0  0  0  0  0  0
   -2.4863    3.8640    0.4384 C   0  0  0  0  0  0  0  0  0  0  0  0
   -2.8629    3.0005    1.4702 C   0  0  0  0  0  0  0  0  0  0  0  0
   -2.7891    1.6062    1.2956 C   0  0  0  0  0  0  0  0  0  0  0  0
   -3.1418    0.7061    2.3136 O   0  0  0  0  0  0  0  0  0  0  0  0
   -3.6115    1.0891    3.6015 C   0  0  0  0  0  0  0  0  0  0  0  0
   -1.5881    4.2800   -1.8912 C   0  0  0  0  0  0  0  0  0  0  0  0
   -1.8739    3.7423   -3.1342 F   0  0  0  0  0  0  0  0  0  0  0  0
   -0.2220    4.4618   -1.7823 F   0  0  0  0  0  0  0  0  0  0  0  0
   -2.2159    5.5102   -1.7974 F   0  0  0  0  0  0  0  0  0  0  0  0
    9.3210    1.3584    0.8307 H   0  0  0  0  0  0  0  0  0  0  0  0
    9.1697    1.9134    2.5400 H   0  0  0  0  0  0  0  0  0  0  0  0
    9.0034    0.1577    2.1624 H   0  0  0  0  0  0  0  0  0  0  0  0
    8.1698   -0.6658   -0.0233 H   0  0  0  0  0  0  0  0  0  0  0  0
    6.6864   -1.9323   -1.5146 H   0  0  0  0  0  0  0  0  0  0  0  0
    4.2771   -1.4247   -1.6145 H   0  0  0  0  0  0  0  0  0  0  0  0
    4.8275    1.7039    1.2990 H   0  0  0  0  0  0  0  0  0  0  0  0
    1.9642    1.7312   -1.5952 H   0  0  0  0  0  0  0  0  0  0  0  0
    2.9755    0.4712   -2.3681 H   0  0  0  0  0  0  0  0  0  0  0  0
    0.4560    0.0398   -2.4709 H   0  0  0  0  0  0  0  0  0  0  0  0
    1.4220   -1.2942   -1.7331 H   0  0  0  0  0  0  0  0  0  0  0  0
    0.1168    0.4403    1.6725 H   0  0  0  0  0  0  0  0  0  0  0  0
    0.4929    1.7521    0.4986 H   0  0  0  0  0  0  0  0  0  0  0  0
    2.3367   -0.4566    1.5622 H   0  0  0  0  0  0  0  0  0  0  0  0
    2.5365    1.3316    1.6784 H   0  0  0  0  0  0  0  0  0  0  0  0
   -5.3484   -2.9891    0.2679 H   0  0  0  0  0  0  0  0  0  0  0  0
   -4.9931   -5.3997    0.6640 H   0  0  0  0  0  0  0  0  0  0  0  0
   -2.7119   -6.3588    0.5599 H   0  0  0  0  0  0  0  0  0  0  0  0
   -4.2792   -0.6943    0.2269 H   0  0  0  0  0  0  0  0  0  0  0  0
   -3.8438    0.1447   -2.1486 H   0  0  0  0  0  0  0  0  0  0  0  0
   -3.0393   -1.4104   -2.5252 H   0  0  0  0  0  0  0  0  0  0  0  0
   -7.2321   -1.2365   -1.9692 H   0  0  0  0  0  0  0  0  0  0  0  0
   -1.5999    1.5516   -1.8970 H   0  0  0  0  0  0  0  0  0  0  0  0
   -2.5307    4.9323    0.6087 H   0  0  0  0  0  0  0  0  0  0  0  0
   -3.1983    3.4283    2.4049 H   0  0  0  0  0  0  0  0  0  0  0  0
   -2.8395    1.6911    4.1257 H   0  0  0  0  0  0  0  0  0  0  0  0
   -3.8162    0.1767    4.1981 H   0  0  0  0  0  0  0  0  0  0  0  0
   -4.5526    1.6709    3.5070 H   0  0  0  0  0  0  0  0  0  0  0  0
  1  2  1  0
  2  3  1  0
  3  4  2  0
  4  5  1  0
  5  6  2  0
  6  7  1  0
  7  8  2  0
  7  9  1  0
  9 10  1  0
 10 11  1  0
 11 12  1  0
 12 13  1  0
 13 14  1  0
 12 15  1  0
 15 16  2  0
 16 17  1  0
 17 18  2  0
 18 19  1  0
 19 20  2  0
 20 21  1  0
 21 22  2  0
 22 23  1  0
 18 24  1  0
 24 25  1  0
 25 26  1  0
 26 27  1  0
 26 28  2  0
 24 29  1  0
 29 30  1  0
 30 31  2  0
 31 32  1  0
 32 33  2  0
 33 34  1  0
 34 35  2  0
 35 36  1  0
 36 37  1  0
 32 38  1  0
 38 39  1  0
 38 40  1  0
 38 41  1  0
  8  3  1  0
 14  9  1  0
 29 15  1  0
 35 30  1  0
 22 17  1  0
  1 42  1  0
  1 43  1  0
  1 44  1  0
  4 45  1  0
  5 46  1  0
  6 47  1  0
  8 48  1  0
 10 49  1  0
 10 50  1  0
 11 51  1  0
 11 52  1  0
 13 53  1  0
 13 54  1  0
 14 55  1  0
 14 56  1  0
 19 57  1  0
 20 58  1  0
 21 59  1  0
 24 60  1  1
 25 61  1  0
 25 62  1  0
 27 63  1  0
 31 64  1  0
 33 65  1  0
 34 66  1  0
 37 67  1  0
 37 68  1  0
 37 69  1  0
M  END
$$$$
