
     RDKit          3D

 48 51  0  0  0  0  0  0  0  0999 V2000
   -2.2407    2.1508    2.5954 C   0  0  0  0  0  0  0  0  0  0  0  0
   -1.0961    1.4382    1.9228 C   0  0  0  0  0  0  0  0  0  0  0  0
    0.1914    1.5595    2.4673 C   0  0  0  0  0  0  0  0  0  0  0  0
    1.2834    0.9338    1.8643 C   0  0  0  0  0  0  0  0  0  0  0  0
    1.1122    0.1605    0.7055 C   0  0  0  0  0  0  0  0  0  0  0  0
   -0.1763    0.0286    0.1610 C   0  0  0  0  0  0  0  0  0  0  0  0
   -1.2856    0.6423    0.7671 C   0  0  0  0  0  0  0  0  0  0  0  0
   -2.6237    0.4375    0.1674 C   0  0  0  0  0  0  0  0  0  0  0  0
   -2.8679    0.8332   -1.1587 C   0  0  0  0  0  0  0  0  0  0  0  0
   -4.1257    0.6358   -1.7370 C   0  0  0  0  0  0  0  0  0  0  0  0
   -5.1489    0.0338   -0.9984 C   0  0  0  0  0  0  0  0  0  0  0  0
   -6.3733   -0.1608   -1.5543 N   0  0  0  0  0  0  0  0  0  0  0  0
   -7.3767   -0.7485   -0.8493 C   0  0  0  0  0  0  0  0  0  0  0  0
   -8.6533   -0.9419   -1.4533 N   0  0  0  0  0  0  0  0  0  0  0  0
   -7.1624   -1.1525    0.4318 N   0  0  0  0  0  0  0  0  0  0  0  0
   -5.9556   -0.9804    1.0315 C   0  0  0  0  0  0  0  0  0  0  0  0
   -4.9090   -0.3770    0.3275 C   0  0  0  0  0  0  0  0  0  0  0  0
   -3.6477   -0.1794    0.9059 C   0  0  0  0  0  0  0  0  0  0  0  0
    2.2700   -0.4964    0.0506 C   0  0  0  0  0  0  0  0  0  0  0  0
    2.1698   -0.8810   -1.1469 O   0  0  0  0  0  0  0  0  0  0  0  0
    3.4856   -0.7432    0.7777 N   0  0  0  0  0  0  0  0  0  0  0  0
    4.7567   -0.9838    0.1491 C   0  0  0  0  0  0  0  0  0  0  0  0
    5.6955   -1.8057    0.7884 C   0  0  0  0  0  0  0  0  0  0  0  0
    6.9375   -2.0504    0.1998 C   0  0  0  0  0  0  0  0  0  0  0  0
    7.2645   -1.4587   -1.0221 C   0  0  0  0  0  0  0  0  0  0  0  0
    6.3588   -0.5911   -1.6563 C   0  0  0  0  0  0  0  0  0  0  0  0
    5.0984   -0.3715   -1.0712 C   0  0  0  0  0  0  0  0  0  0  0  0
    6.6959    0.0255   -2.9911 C   0  0  0  0  0  0  0  0  0  0  0  0
    6.2370   -0.7987   -4.0014 F   0  0  0  0  0  0  0  0  0  0  0  0
    8.0640    0.1867   -3.1274 F   0  0  0  0  0  0  0  0  0  0  0  0
    6.1001    1.2685   -3.1174 F   0  0  0  0  0  0  0  0  0  0  0  0
   -2.7740    1.4486    3.2689 H   0  0  0  0  0  0  0  0  0  0  0  0
   -1.8769    3.0098    3.1987 H   0  0  0  0  0  0  0  0  0  0  0  0
   -2.9505    2.5536    1.8426 H   0  0  0  0  0  0  0  0  0  0  0  0
    0.3558    2.1544    3.3576 H   0  0  0  0  0  0  0  0  0  0  0  0
    2.2644    1.0778    2.2977 H   0  0  0  0  0  0  0  0  0  0  0  0
   -0.3264   -0.5753   -0.7267 H   0  0  0  0  0  0  0  0  0  0  0  0
   -2.0852    1.3032   -1.7416 H   0  0  0  0  0  0  0  0  0  0  0  0
   -4.3018    0.9511   -2.7580 H   0  0  0  0  0  0  0  0  0  0  0  0
   -8.8250   -0.6346   -2.4364 H   0  0  0  0  0  0  0  0  0  0  0  0
   -9.4285   -1.3926   -0.9184 H   0  0  0  0  0  0  0  0  0  0  0  0
   -5.8175   -1.3129    2.0527 H   0  0  0  0  0  0  0  0  0  0  0  0
   -3.4581   -0.5119    1.9199 H   0  0  0  0  0  0  0  0  0  0  0  0
    3.4210   -0.8703    1.8129 H   0  0  0  0  0  0  0  0  0  0  0  0
    5.4562   -2.2719    1.7360 H   0  0  0  0  0  0  0  0  0  0  0  0
    7.6473   -2.7042    0.6899 H   0  0  0  0  0  0  0  0  0  0  0  0
    8.2272   -1.6754   -1.4678 H   0  0  0  0  0  0  0  0  0  0  0  0
    4.3941    0.2916   -1.5563 H   0  0  0  0  0  0  0  0  0  0  0  0
  1  2  1  0
  2  3  2  0
  3  4  1  0
  4  5  2  0
  5  6  1  0
  6  7  2  0
  7  8  1  0
  8  9  2  0
  9 10  1  0
 10 11  2  0
 11 12  1  0
 12 13  2  0
 13 14  1  0
 13 15  1  0
 15 16  2  0
 16 17  1  0
 17 18  2  0
  5 19  1  0
 19 20  2  0
 19 21  1  0
 21 22  1  0
 22 23  2  0
 23 24  1  0
 24 25  2  0
 25 26  1  0
 26 27  2  0
 26 28  1  0
 28 29  1  0
 28 30  1  0
 28 31  1  0
  7  2  1  0
 18  8  1  0
 27 22  1  0
 17 11  1  0
  1 32  1  0
  1 33  1  0
  1 34  1  0
  3 35  1  0
  4 36  1  0
  6 37  1  0
  9 38  1  0
 10 39  1  0
 14 40  1  0
 14 41  1  0
 16 42  1  0
 18 43  1  0
 21 44  1  0
 23 45  1  0
 24 46  1  0
 25 47  1  0
 27 48  1  0
M  END
$$$$
