
     RDKit          3D

 37 38  0  0  0  0  0  0  0  0999 V2000
   -1.4044    0.6739    0.0647 C   0  0  1  0  0  0  0  0  0  0  0  0
   -0.0627    0.9421    0.7943 C   0  0  0  0  0  0  0  0  0  0  0  0
    0.3427   -0.4253    1.3276 C   0  0  0  0  0  0  0  0  0  0  0  0
    1.8734   -0.7089    2.2288 S   0  0  0  0  0  0  0  0  0  0  0  0
    2.7749   -1.4462    0.8196 C   0  0  0  0  0  0  0  0  0  0  0  0
    3.4585   -0.3689   -0.0149 C   0  0  0  0  0  0  0  0  0  0  0  0
    4.2584   -0.9952   -1.0603 N   0  0  0  0  0  0  0  0  0  0  0  0
    4.9428   -0.3011   -1.9140 C   0  0  0  0  0  0  0  0  0  0  0  0
    5.7092   -0.9606   -2.9180 N   0  0  0  0  0  0  0  0  0  0  0  0
   -0.6355   -1.3145    1.1527 C   0  0  0  0  0  0  0  0  0  0  0  0
   -1.6900   -0.6582    0.5006 N   0  0  0  0  0  0  0  0  0  0  0  0
   -3.0221   -0.1982    0.9527 C   0  0  0  0  0  0  0  0  0  0  0  0
   -4.0218   -0.7507    1.4815 O   0  0  0  0  0  0  0  0  0  0  0  0
   -2.6331    1.2137    0.6159 C   0  0  2  0  0  0  0  0  0  0  0  0
   -3.5568    1.8669   -0.4312 C   0  0  1  0  0  0  0  0  0  0  0  0
   -4.8889    2.2797    0.2026 C   0  0  0  0  0  0  0  0  0  0  0  0
   -2.9192    3.0041   -0.9528 O   0  0  0  0  0  0  0  0  0  0  0  0
   -0.7081   -2.7069    1.6270 C   0  0  0  0  0  0  0  0  0  0  0  0
    0.3552   -3.2894    2.3093 O   0  0  0  0  0  0  0  0  0  0  0  0
   -1.7487   -3.3821    1.4075 O   0  0  0  0  0  0  0  0  0  0  0  0
   -1.3110    0.7085   -1.0456 H   0  0  0  0  0  0  0  0  0  0  0  0
    0.6937    1.3273    0.0813 H   0  0  0  0  0  0  0  0  0  0  0  0
   -0.1777    1.6564    1.6372 H   0  0  0  0  0  0  0  0  0  0  0  0
    2.0923   -2.0506    0.1838 H   0  0  0  0  0  0  0  0  0  0  0  0
    3.5479   -2.1284    1.2330 H   0  0  0  0  0  0  0  0  0  0  0  0
    2.6938    0.2859   -0.4813 H   0  0  0  0  0  0  0  0  0  0  0  0
    4.1162    0.2462    0.6379 H   0  0  0  0  0  0  0  0  0  0  0  0
    4.9390    0.7823   -1.8734 H   0  0  0  0  0  0  0  0  0  0  0  0
    5.7275   -2.0032   -2.9763 H   0  0  0  0  0  0  0  0  0  0  0  0
    6.2599   -0.4001   -3.6050 H   0  0  0  0  0  0  0  0  0  0  0  0
   -2.4902    1.8319    1.5299 H   0  0  0  0  0  0  0  0  0  0  0  0
   -3.7640    1.1395   -1.2530 H   0  0  0  0  0  0  0  0  0  0  0  0
   -4.7181    2.9983    1.0327 H   0  0  0  0  0  0  0  0  0  0  0  0
   -5.4261    1.3914    0.5954 H   0  0  0  0  0  0  0  0  0  0  0  0
   -5.5349    2.7645   -0.5598 H   0  0  0  0  0  0  0  0  0  0  0  0
   -3.3757    3.2241   -1.8067 H   0  0  0  0  0  0  0  0  0  0  0  0
    0.3038   -4.2482    2.6320 H   0  0  0  0  0  0  0  0  0  0  0  0
  1  2  1  0
  2  3  1  0
  3  4  1  0
  4  5  1  0
  5  6  1  0
  6  7  1  0
  7  8  2  0
  8  9  1  0
  3 10  2  0
 10 11  1  0
 11 12  1  0
 12 13  2  0
 12 14  1  0
 14 15  1  0
 15 16  1  0
 15 17  1  0
 10 18  1  0
 18 19  1  0
 18 20  2  0
 11  1  1  0
 14  1  1  0
  1 21  1  6
  2 22  1  0
  2 23  1  0
  5 24  1  0
  5 25  1  0
  6 26  1  0
  6 27  1  0
  8 28  1  0
  9 29  1  0
  9 30  1  0
 14 31  1  1
 15 32  1  6
 16 33  1  0
 16 34  1  0
 16 35  1  0
 17 36  1  0
 19 37  1  0
M  END
$$$$
