
     RDKit          3D

 49 51  0  0  0  0  0  0  0  0999 V2000
    4.1484   -1.1149    2.7562 O   0  0  0  0  0  0  0  0  0  0  0  0
    3.3109   -0.6293    1.7323 C   0  0  2  0  0  0  0  0  0  0  0  0
    3.8788    0.5820    0.9933 C   0  0  1  0  0  0  0  0  0  0  0  0
    4.8148    0.1683   -0.1453 C   0  0  0  0  0  0  0  0  0  0  0  0
    5.3374    1.3251   -0.7553 O   0  0  0  0  0  0  0  0  0  0  0  0
    6.3355    0.8465   -2.0527 P   0  0  0  0  0  5  0  0  0  0  0  0
    7.5370   -0.2166   -1.5110 O   0  0  0  0  0  0  0  0  0  0  0  0
    7.0684    2.2209   -2.7132 O   0  0  0  0  0  0  0  0  0  0  0  0
    5.5053    0.1680   -3.1197 O   0  0  0  0  0  0  0  0  0  0  0  0
    2.7967    1.3294    0.4816 O   0  0  0  0  0  0  0  0  0  0  0  0
    1.6358    0.9774    1.2115 C   0  0  2  0  0  0  0  0  0  0  0  0
    1.9797   -0.1177    2.2324 C   0  0  2  0  0  0  0  0  0  0  0  0
    2.0573    0.4016    3.5406 O   0  0  0  0  0  0  0  0  0  0  0  0
    0.6010    0.5064    0.2878 N   0  0  0  0  0  0  0  0  0  0  0  0
    0.7551   -0.2609   -0.8234 C   0  0  0  0  0  0  0  0  0  0  0  0
   -0.4250   -0.6139   -1.4037 N   0  0  0  0  0  0  0  0  0  0  0  0
   -1.3374   -0.0403   -0.5964 C   0  0  0  0  0  0  0  0  0  0  0  0
   -2.7266   -0.0762   -0.6670 C   0  0  0  0  0  0  0  0  0  0  0  0
   -3.4023   -0.7700   -1.7309 N   0  0  0  0  0  0  0  0  0  0  0  0
   -4.8599   -0.8885   -1.8534 C   0  0  1  0  0  0  0  0  0  0  0  0
   -5.4418   -1.7146   -0.6886 C   0  0  0  0  0  0  0  0  0  0  0  0
   -6.8755   -2.0758   -0.9341 C   0  0  0  0  0  0  0  0  0  0  0  0
   -7.8911   -1.3160   -0.3622 O   0  0  0  0  0  0  0  0  0  0  0  0
   -7.1620   -3.0485   -1.6822 O   0  0  0  0  0  0  0  0  0  0  0  0
   -5.4887    0.4747   -1.9909 C   0  0  0  0  0  0  0  0  0  0  0  0
   -6.0511    1.1165   -0.8902 O   0  0  0  0  0  0  0  0  0  0  0  0
   -5.4698    1.0571   -3.1081 O   0  0  0  0  0  0  0  0  0  0  0  0
   -3.4197    0.5754    0.3162 N   0  0  0  0  0  0  0  0  0  0  0  0
   -2.7784    1.2332    1.3346 C   0  0  0  0  0  0  0  0  0  0  0  0
   -1.4132    1.2567    1.3932 N   0  0  0  0  0  0  0  0  0  0  0  0
   -0.7266    0.6188    0.4150 C   0  0  0  0  0  0  0  0  0  0  0  0
    4.4654   -0.3491    3.3013 H   0  0  0  0  0  0  0  0  0  0  0  0
    3.1173   -1.4571    1.0131 H   0  0  0  0  0  0  0  0  0  0  0  0
    4.4450    1.2346    1.6956 H   0  0  0  0  0  0  0  0  0  0  0  0
    4.2370   -0.4393   -0.8790 H   0  0  0  0  0  0  0  0  0  0  0  0
    5.6359   -0.4482    0.2862 H   0  0  0  0  0  0  0  0  0  0  0  0
    8.0423    0.3000   -0.8338 H   0  0  0  0  0  0  0  0  0  0  0  0
    7.6895    1.8706   -3.4006 H   0  0  0  0  0  0  0  0  0  0  0  0
    1.2626    1.8875    1.7318 H   0  0  0  0  0  0  0  0  0  0  0  0
    1.2267   -0.9372    2.2278 H   0  0  0  0  0  0  0  0  0  0  0  0
    2.6644    1.1879    3.5295 H   0  0  0  0  0  0  0  0  0  0  0  0
    1.7168   -0.5769   -1.2051 H   0  0  0  0  0  0  0  0  0  0  0  0
   -2.8221   -1.2208   -2.4746 H   0  0  0  0  0  0  0  0  0  0  0  0
   -5.0739   -1.4476   -2.7929 H   0  0  0  0  0  0  0  0  0  0  0  0
   -4.8545   -2.6523   -0.5780 H   0  0  0  0  0  0  0  0  0  0  0  0
   -5.3642   -1.1623    0.2712 H   0  0  0  0  0  0  0  0  0  0  0  0
   -8.8646   -1.5396   -0.5302 H   0  0  0  0  0  0  0  0  0  0  0  0
   -6.4591    2.0393   -0.9788 H   0  0  0  0  0  0  0  0  0  0  0  0
   -3.3573    1.7354    2.0973 H   0  0  0  0  0  0  0  0  0  0  0  0
  1  2  1  0
  2  3  1  0
  3  4  1  0
  4  5  1  0
  5  6  1  0
  6  7  1  0
  6  8  1  0
  6  9  2  0
  3 10  1  0
 10 11  1  0
 11 12  1  0
 12 13  1  0
 11 14  1  0
 14 15  1  0
 15 16  2  0
 16 17  1  0
 17 18  2  0
 18 19  1  0
 19 20  1  0
 20 21  1  0
 21 22  1  0
 22 23  1  0
 22 24  2  0
 20 25  1  0
 25 26  1  0
 25 27  2  0
 18 28  1  0
 28 29  2  0
 29 30  1  0
 30 31  2  0
 12  2  1  0
 31 14  1  0
 31 17  1  0
  1 32  1  0
  2 33  1  6
  3 34  1  1
  4 35  1  0
  4 36  1  0
  7 37  1  0
  8 38  1  0
 11 39  1  1
 12 40  1  1
 13 41  1  0
 15 42  1  0
 19 43  1  0
 20 44  1  6
 21 45  1  0
 21 46  1  0
 23 47  1  0
 26 48  1  0
 29 49  1  0
M  END
$$$$
