
     RDKit          3D

 81 87  0  0  0  0  0  0  0  0999 V2000
    1.4258    3.2284    1.4724 C   0  0  0  0  0  0  0  0  0  0  0  0
    1.6842    2.8686    0.0123 C   0  0  0  0  0  0  0  0  0  0  0  0
    2.3043    1.4918   -0.1044 C   0  0  0  0  0  0  0  0  0  0  0  0
    3.6986    1.3667   -0.1936 C   0  0  0  0  0  0  0  0  0  0  0  0
    4.7718    2.4243   -0.2015 C   0  0  0  0  0  0  0  0  0  0  0  0
    6.0021    1.6288   -0.2963 N   0  0  0  0  0  0  0  0  0  0  0  0
    5.7138    0.3135   -0.3425 C   0  0  0  0  0  0  0  0  0  0  0  0
    6.7103   -0.6535   -0.4209 C   0  0  0  0  0  0  0  0  0  0  0  0
    8.0623   -0.2360   -0.4656 C   0  0  0  0  0  0  0  0  0  0  0  0
    8.3389    1.1626   -0.4422 C   0  0  0  0  0  0  0  0  0  0  0  0
    9.7726    1.6241   -0.5003 C   0  0  0  0  0  0  0  0  0  0  0  0
   10.5227    0.7656   -1.3525 O   0  0  0  0  0  0  0  0  0  0  0  0
   10.3411   -0.6188   -1.3344 C   0  0  0  0  0  0  0  0  0  0  0  0
   11.1317   -1.3420   -1.9978 O   0  0  0  0  0  0  0  0  0  0  0  0
    9.2442   -1.2249   -0.4621 C   0  0  1  0  0  0  0  0  0  0  0  0
    9.7274   -1.3004    0.8587 O   0  0  0  0  0  0  0  0  0  0  0  0
    8.8535   -2.6551   -0.9745 C   0  0  0  0  0  0  0  0  0  0  0  0
    8.3139   -3.5842    0.1240 C   0  0  0  0  0  0  0  0  0  0  0  0
    7.2791    2.0900   -0.3393 C   0  0  0  0  0  0  0  0  0  0  0  0
    7.5051    3.3299   -0.2876 O   0  0  0  0  0  0  0  0  0  0  0  0
    4.2865    0.1308   -0.2802 C   0  0  0  0  0  0  0  0  0  0  0  0
    3.5779   -1.0200   -0.2749 N   0  0  0  0  0  0  0  0  0  0  0  0
    2.2189   -0.9704   -0.1809 C   0  0  0  0  0  0  0  0  0  0  0  0
    1.4936   -2.1644   -0.1612 C   0  0  0  0  0  0  0  0  0  0  0  0
    0.1041   -2.1428   -0.0495 C   0  0  0  0  0  0  0  0  0  0  0  0
   -0.5852   -0.9306    0.0364 C   0  0  0  0  0  0  0  0  0  0  0  0
   -1.9818   -0.9682    0.1625 O   0  0  0  0  0  0  0  0  0  0  0  0
   -2.8648    0.0191   -0.2991 C   0  0  0  0  0  0  0  0  0  0  0  0
   -2.4798    0.8573   -1.1605 O   0  0  0  0  0  0  0  0  0  0  0  0
   -4.2294    0.0379    0.1678 N   0  0  0  0  0  0  0  0  0  0  0  0
   -5.1071    1.1737   -0.1597 C   0  0  0  0  0  0  0  0  0  0  0  0
   -6.5471    0.6987   -0.3781 C   0  0  0  0  0  0  0  0  0  0  0  0
   -7.0260   -0.1450    0.8262 C   0  0  0  0  0  0  0  0  0  0  0  0
   -6.0823   -1.3399    1.0488 C   0  0  0  0  0  0  0  0  0  0  0  0
   -4.6407   -0.8632    1.2557 C   0  0  0  0  0  0  0  0  0  0  0  0
   -8.4374   -0.6005    0.7185 N   0  0  0  0  0  0  0  0  0  0  0  0
   -9.3988    0.4465    1.1418 C   0  0  0  0  0  0  0  0  0  0  0  0
  -10.8378    0.0727    0.7724 C   0  0  0  0  0  0  0  0  0  0  0  0
  -11.0016   -0.0713   -0.7506 C   0  0  0  0  0  0  0  0  0  0  0  0
   -9.6964   -0.4797   -1.4557 C   0  0  0  0  0  0  0  0  0  0  0  0
   -8.8020   -1.3193   -0.5330 C   0  0  0  0  0  0  0  0  0  0  0  0
    0.1335    0.2793    0.0386 C   0  0  0  0  0  0  0  0  0  0  0  0
    1.5395    0.2849   -0.0844 C   0  0  0  0  0  0  0  0  0  0  0  0
    2.3805    3.2330    2.0406 H   0  0  0  0  0  0  0  0  0  0  0  0
    0.7295    2.5005    1.9391 H   0  0  0  0  0  0  0  0  0  0  0  0
    0.9726    4.2403    1.5312 H   0  0  0  0  0  0  0  0  0  0  0  0
    2.3547    3.6369   -0.4276 H   0  0  0  0  0  0  0  0  0  0  0  0
    0.7427    2.9307   -0.5712 H   0  0  0  0  0  0  0  0  0  0  0  0
    4.7570    3.0071    0.7443 H   0  0  0  0  0  0  0  0  0  0  0  0
    4.6693    3.0835   -1.0898 H   0  0  0  0  0  0  0  0  0  0  0  0
    6.4150   -1.6891   -0.4579 H   0  0  0  0  0  0  0  0  0  0  0  0
   10.2039    1.5957    0.5229 H   0  0  0  0  0  0  0  0  0  0  0  0
    9.8528    2.6609   -0.8889 H   0  0  0  0  0  0  0  0  0  0  0  0
   10.5414   -1.8708    0.8533 H   0  0  0  0  0  0  0  0  0  0  0  0
    8.1188   -2.5787   -1.8052 H   0  0  0  0  0  0  0  0  0  0  0  0
    9.7344   -3.1811   -1.3997 H   0  0  0  0  0  0  0  0  0  0  0  0
    9.1535   -3.9673    0.7422 H   0  0  0  0  0  0  0  0  0  0  0  0
    7.6021   -3.0695    0.7994 H   0  0  0  0  0  0  0  0  0  0  0  0
    7.8032   -4.4535   -0.3412 H   0  0  0  0  0  0  0  0  0  0  0  0
    2.0080   -3.1153   -0.2285 H   0  0  0  0  0  0  0  0  0  0  0  0
   -0.4439   -3.0765   -0.0338 H   0  0  0  0  0  0  0  0  0  0  0  0
   -5.0762    1.9113    0.6716 H   0  0  0  0  0  0  0  0  0  0  0  0
   -4.7724    1.6886   -1.0856 H   0  0  0  0  0  0  0  0  0  0  0  0
   -7.1970    1.5882   -0.5114 H   0  0  0  0  0  0  0  0  0  0  0  0
   -6.5746    0.1096   -1.3180 H   0  0  0  0  0  0  0  0  0  0  0  0
   -6.9335    0.4939    1.7362 H   0  0  0  0  0  0  0  0  0  0  0  0
   -6.1033   -2.0293    0.1789 H   0  0  0  0  0  0  0  0  0  0  0  0
   -6.4095   -1.9098    1.9455 H   0  0  0  0  0  0  0  0  0  0  0  0
   -4.5568   -0.3271    2.2261 H   0  0  0  0  0  0  0  0  0  0  0  0
   -3.9887   -1.7613    1.3033 H   0  0  0  0  0  0  0  0  0  0  0  0
   -9.1553    1.4269    0.6776 H   0  0  0  0  0  0  0  0  0  0  0  0
   -9.3391    0.5686    2.2449 H   0  0  0  0  0  0  0  0  0  0  0  0
  -11.5371    0.8485    1.1526 H   0  0  0  0  0  0  0  0  0  0  0  0
  -11.0962   -0.8893    1.2674 H   0  0  0  0  0  0  0  0  0  0  0  0
  -11.7873   -0.8309   -0.9555 H   0  0  0  0  0  0  0  0  0  0  0  0
  -11.3519    0.8930   -1.1791 H   0  0  0  0  0  0  0  0  0  0  0  0
   -9.9348   -1.0587   -2.3740 H   0  0  0  0  0  0  0  0  0  0  0  0
   -9.1422    0.4316   -1.7678 H   0  0  0  0  0  0  0  0  0  0  0  0
   -7.9149   -1.6625   -1.1013 H   0  0  0  0  0  0  0  0  0  0  0  0
   -9.3533   -2.2431   -0.2540 H   0  0  0  0  0  0  0  0  0  0  0  0
   -0.4107    1.2001    0.1759 H   0  0  0  0  0  0  0  0  0  0  0  0
  1  2  1  0
  2  3  1  0
  3  4  2  0
  4  5  1  0
  5  6  1  0
  6  7  1  0
  7  8  2  0
  8  9  1  0
  9 10  2  0
 10 11  1  0
 11 12  1  0
 12 13  1  0
 13 14  2  0
 13 15  1  0
 15 16  1  1
 15 17  1  0
 17 18  1  0
 10 19  1  0
 19 20  2  0
  7 21  1  0
 21 22  2  0
 22 23  1  0
 23 24  2  0
 24 25  1  0
 25 26  2  0
 26 27  1  0
 27 28  1  0
 28 29  2  0
 28 30  1  0
 30 31  1  0
 31 32  1  0
 32 33  1  0
 33 34  1  0
 34 35  1  0
 33 36  1  0
 36 37  1  0
 37 38  1  0
 38 39  1  0
 39 40  1  0
 40 41  1  0
 26 42  1  0
 42 43  2  0
 43  3  1  0
 21  4  1  0
 43 23  1  0
 19  6  1  0
 35 30  1  0
 41 36  1  0
 15  9  1  0
  1 44  1  0
  1 45  1  0
  1 46  1  0
  2 47  1  0
  2 48  1  0
  5 49  1  0
  5 50  1  0
  8 51  1  0
 11 52  1  0
 11 53  1  0
 16 54  1  0
 17 55  1  0
 17 56  1  0
 18 57  1  0
 18 58  1  0
 18 59  1  0
 24 60  1  0
 25 61  1  0
 31 62  1  0
 31 63  1  0
 32 64  1  0
 32 65  1  0
 33 66  1  0
 34 67  1  0
 34 68  1  0
 35 69  1  0
 35 70  1  0
 37 71  1  0
 37 72  1  0
 38 73  1  0
 38 74  1  0
 39 75  1  0
 39 76  1  0
 40 77  1  0
 40 78  1  0
 41 79  1  0
 41 80  1  0
 42 81  1  0
M  END
$$$$
