
     RDKit          3D

 49 49  0  0  0  0  0  0  0  0999 V2000
   -4.4984   -0.9824   -0.3272 C   0  0  2  0  0  0  0  0  0  0  0  0
   -5.7754   -0.8383   -0.8987 O   0  0  0  0  0  0  0  0  0  0  0  0
   -4.2929    0.0543    0.7705 C   0  0  0  0  0  0  0  0  0  0  0  0
   -5.2175    0.0301    1.9643 C   0  0  0  0  0  0  0  0  0  0  0  0
   -6.0952    1.1231    1.9219 O   0  0  0  0  0  0  0  0  0  0  0  0
   -3.3636    1.0290    0.6799 C   0  0  0  0  0  0  0  0  0  0  0  0
   -2.3310    1.0982   -0.4236 C   0  0  1  0  0  0  0  0  0  0  0  0
   -1.0794    0.4515    0.0222 N   0  0  0  0  0  0  0  0  0  0  0  0
   -0.3119    1.3138    0.9356 C   0  0  0  0  0  0  0  0  0  0  0  0
    0.7761    0.5089    1.6581 C   0  0  0  0  0  0  0  0  0  0  0  0
    1.8968    0.0501    0.7135 C   0  0  0  0  0  0  0  0  0  0  0  0
    3.0321   -0.6246    1.4982 C   0  0  0  0  0  0  0  0  0  0  0  0
    4.1043   -1.2360    0.5823 C   0  0  0  0  0  0  0  0  0  0  0  0
    4.9522   -0.1714   -0.1297 C   0  0  0  0  0  0  0  0  0  0  0  0
    6.0931   -0.8198   -0.9224 C   0  0  0  0  0  0  0  0  0  0  0  0
    6.9326    0.2321   -1.6418 C   0  0  0  0  0  0  0  0  0  0  0  0
   -2.8691    0.4395   -1.7149 C   0  0  2  0  0  0  0  0  0  0  0  0
   -3.8789    1.2501   -2.2610 O   0  0  0  0  0  0  0  0  0  0  0  0
   -3.4079   -0.9792   -1.4315 C   0  0  1  0  0  0  0  0  0  0  0  0
   -2.3416   -1.8154   -1.0570 O   0  0  0  0  0  0  0  0  0  0  0  0
   -4.4812   -1.9811    0.1611 H   0  0  0  0  0  0  0  0  0  0  0  0
   -5.8613    0.0957   -1.2219 H   0  0  0  0  0  0  0  0  0  0  0  0
   -5.8229   -0.9009    1.9592 H   0  0  0  0  0  0  0  0  0  0  0  0
   -4.6252    0.0275    2.9084 H   0  0  0  0  0  0  0  0  0  0  0  0
   -5.6231    1.8888    2.3417 H   0  0  0  0  0  0  0  0  0  0  0  0
   -3.2953    1.7666    1.4746 H   0  0  0  0  0  0  0  0  0  0  0  0
   -2.1359    2.1711   -0.6552 H   0  0  0  0  0  0  0  0  0  0  0  0
   -0.4735    0.2931   -0.8165 H   0  0  0  0  0  0  0  0  0  0  0  0
   -0.9738    1.7426    1.7178 H   0  0  0  0  0  0  0  0  0  0  0  0
    0.1461    2.1620    0.3778 H   0  0  0  0  0  0  0  0  0  0  0  0
    0.3131   -0.3744    2.1506 H   0  0  0  0  0  0  0  0  0  0  0  0
    1.2134    1.1530    2.4524 H   0  0  0  0  0  0  0  0  0  0  0  0
    1.4880   -0.6730   -0.0244 H   0  0  0  0  0  0  0  0  0  0  0  0
    2.2934    0.9330    0.1687 H   0  0  0  0  0  0  0  0  0  0  0  0
    3.5021    0.1081    2.1904 H   0  0  0  0  0  0  0  0  0  0  0  0
    2.6030   -1.4437    2.1162 H   0  0  0  0  0  0  0  0  0  0  0  0
    3.6239   -1.9017   -0.1681 H   0  0  0  0  0  0  0  0  0  0  0  0
    4.7722   -1.8651    1.2109 H   0  0  0  0  0  0  0  0  0  0  0  0
    4.3139    0.4083   -0.8302 H   0  0  0  0  0  0  0  0  0  0  0  0
    5.3796    0.5266    0.6235 H   0  0  0  0  0  0  0  0  0  0  0  0
    6.7506   -1.3935   -0.2334 H   0  0  0  0  0  0  0  0  0  0  0  0
    5.6741   -1.5222   -1.6757 H   0  0  0  0  0  0  0  0  0  0  0  0
    7.3831    0.9341   -0.9081 H   0  0  0  0  0  0  0  0  0  0  0  0
    7.7499   -0.2659   -2.2048 H   0  0  0  0  0  0  0  0  0  0  0  0
    6.3046    0.8033   -2.3584 H   0  0  0  0  0  0  0  0  0  0  0  0
   -2.0378    0.3668   -2.4552 H   0  0  0  0  0  0  0  0  0  0  0  0
   -4.0174    0.9486   -3.1969 H   0  0  0  0  0  0  0  0  0  0  0  0
   -3.8494   -1.3707   -2.3789 H   0  0  0  0  0  0  0  0  0  0  0  0
   -2.6386   -2.7508   -1.2086 H   0  0  0  0  0  0  0  0  0  0  0  0
  1  2  1  0
  1  3  1  0
  3  4  1  0
  4  5  1  0
  3  6  2  0
  6  7  1  0
  7  8  1  0
  8  9  1  0
  9 10  1  0
 10 11  1  0
 11 12  1  0
 12 13  1  0
 13 14  1  0
 14 15  1  0
 15 16  1  0
  7 17  1  0
 17 18  1  0
 17 19  1  0
 19 20  1  0
 19  1  1  0
  1 21  1  1
  2 22  1  0
  4 23  1  0
  4 24  1  0
  5 25  1  0
  6 26  1  0
  7 27  1  6
  8 28  1  0
  9 29  1  0
  9 30  1  0
 10 31  1  0
 10 32  1  0
 11 33  1  0
 11 34  1  0
 12 35  1  0
 12 36  1  0
 13 37  1  0
 13 38  1  0
 14 39  1  0
 14 40  1  0
 15 41  1  0
 15 42  1  0
 16 43  1  0
 16 44  1  0
 16 45  1  0
 17 46  1  6
 18 47  1  0
 19 48  1  6
 20 49  1  0
M  END
$$$$
