
     RDKit          3D

 42 43  0  0  0  0  0  0  0  0999 V2000
    3.2384   -1.8701    0.2544 C   0  0  0  0  0  0  0  0  0  0  0  0
    1.7979   -1.8907   -0.0597 N   0  0  0  0  0  0  0  0  0  0  0  0
    1.3039   -2.8712   -0.8857 C   0  0  0  0  0  0  0  0  0  0  0  0
    2.0830   -3.7208   -1.4029 O   0  0  0  0  0  0  0  0  0  0  0  0
   -0.0696   -2.9438   -1.1665 C   0  0  0  0  0  0  0  0  0  0  0  0
   -0.6151   -4.0115   -2.0762 C   0  0  0  0  0  0  0  0  0  0  0  0
   -0.9242   -1.9841   -0.6232 C   0  0  0  0  0  0  0  0  0  0  0  0
   -0.4226   -0.9597    0.1852 C   0  0  0  0  0  0  0  0  0  0  0  0
   -1.3508    0.0739    0.7078 C   0  0  0  0  0  0  0  0  0  0  0  0
   -0.9673    1.2700    0.8169 O   0  0  0  0  0  0  0  0  0  0  0  0
   -2.6926   -0.2672    1.0782 N   0  0  0  0  0  0  0  0  0  0  0  0
   -3.5664    0.6953    1.4758 O   0  0  0  0  0  0  0  0  0  0  0  0
   -4.3353    1.0295    0.3458 C   0  0  0  0  0  0  0  0  0  0  0  0
   -5.3401    2.1133    0.7240 C   0  0  0  0  0  0  0  0  0  0  0  0
   -6.0956    2.4894   -0.3952 O   0  0  0  0  0  0  0  0  0  0  0  0
    0.9658   -0.9139    0.4418 C   0  0  0  0  0  0  0  0  0  0  0  0
    1.4952    0.1394    1.2651 N   0  0  0  0  0  0  0  0  0  0  0  0
    2.3402    1.1885    0.7563 C   0  0  0  0  0  0  0  0  0  0  0  0
    2.5158    1.3786   -0.6285 C   0  0  0  0  0  0  0  0  0  0  0  0
    3.3338    2.4077   -1.1029 C   0  0  0  0  0  0  0  0  0  0  0  0
    3.9798    3.2610   -0.2048 C   0  0  0  0  0  0  0  0  0  0  0  0
    5.2131    4.8131   -0.9244 I   0  0  0  0  0  0  0  0  0  0  0  0
    3.8054    3.0864    1.1707 C   0  0  0  0  0  0  0  0  0  0  0  0
    2.9882    2.0582    1.6516 C   0  0  0  0  0  0  0  0  0  0  0  0
    2.8371    1.9046    2.9912 F   0  0  0  0  0  0  0  0  0  0  0  0
    3.7790   -1.2646   -0.5028 H   0  0  0  0  0  0  0  0  0  0  0  0
    3.4272   -1.4530    1.2660 H   0  0  0  0  0  0  0  0  0  0  0  0
    3.6646   -2.8959    0.2669 H   0  0  0  0  0  0  0  0  0  0  0  0
   -1.7257   -4.0328   -2.0616 H   0  0  0  0  0  0  0  0  0  0  0  0
   -0.2498   -5.0091   -1.7526 H   0  0  0  0  0  0  0  0  0  0  0  0
   -0.2778   -3.8200   -3.1165 H   0  0  0  0  0  0  0  0  0  0  0  0
   -1.9801   -2.0159   -0.8637 H   0  0  0  0  0  0  0  0  0  0  0  0
   -2.9808   -1.2694    1.1457 H   0  0  0  0  0  0  0  0  0  0  0  0
   -4.8909    0.1360   -0.0209 H   0  0  0  0  0  0  0  0  0  0  0  0
   -3.6819    1.4180   -0.4689 H   0  0  0  0  0  0  0  0  0  0  0  0
   -6.0067    1.7501    1.5393 H   0  0  0  0  0  0  0  0  0  0  0  0
   -4.7931    3.0046    1.0985 H   0  0  0  0  0  0  0  0  0  0  0  0
   -6.7659    1.7713   -0.5399 H   0  0  0  0  0  0  0  0  0  0  0  0
    1.1786    0.1765    2.2603 H   0  0  0  0  0  0  0  0  0  0  0  0
    2.0186    0.7377   -1.3446 H   0  0  0  0  0  0  0  0  0  0  0  0
    3.4628    2.5429   -2.1690 H   0  0  0  0  0  0  0  0  0  0  0  0
    4.3038    3.7478    1.8677 H   0  0  0  0  0  0  0  0  0  0  0  0
  1  2  1  0
  2  3  1  0
  3  4  2  0
  3  5  1  0
  5  6  1  0
  5  7  2  0
  7  8  1  0
  8  9  1  0
  9 10  2  0
  9 11  1  0
 11 12  1  0
 12 13  1  0
 13 14  1  0
 14 15  1  0
  8 16  2  0
 16 17  1  0
 17 18  1  0
 18 19  2  0
 19 20  1  0
 20 21  2  0
 21 22  1  0
 21 23  1  0
 23 24  2  0
 24 25  1  0
 16  2  1  0
 24 18  1  0
  1 26  1  0
  1 27  1  0
  1 28  1  0
  6 29  1  0
  6 30  1  0
  6 31  1  0
  7 32  1  0
 11 33  1  0
 13 34  1  0
 13 35  1  0
 14 36  1  0
 14 37  1  0
 15 38  1  0
 17 39  1  0
 19 40  1  0
 20 41  1  0
 23 42  1  0
M  END
$$$$
