
     RDKit          3D

 32 34  0  0  0  0  0  0  0  0999 V2000
    7.1651    1.2514    0.0325 C   0  0  0  0  0  0  0  0  0  0  0  0
    6.1726    0.2331   -0.0091 O   0  0  0  0  0  0  0  0  0  0  0  0
    4.8100    0.5016    0.1486 C   0  0  0  0  0  0  0  0  0  0  0  0
    4.4130    1.6845    0.3369 O   0  0  0  0  0  0  0  0  0  0  0  0
    3.8755   -0.5840    0.0931 N   0  0  0  0  0  0  0  0  0  0  0  0
    2.4564   -0.4332    0.2409 C   0  0  0  0  0  0  0  0  0  0  0  0
    1.8429    0.7627    0.4520 N   0  0  0  0  0  0  0  0  0  0  0  0
    0.5450    0.4163    0.5242 C   0  0  0  0  0  0  0  0  0  0  0  0
   -0.5471    1.2504    0.7390 C   0  0  0  0  0  0  0  0  0  0  0  0
   -1.8244    0.6607    0.7816 C   0  0  0  0  0  0  0  0  0  0  0  0
   -1.9856   -0.7404    0.5975 C   0  0  0  0  0  0  0  0  0  0  0  0
   -0.8441   -1.5519    0.3991 C   0  0  0  0  0  0  0  0  0  0  0  0
    0.4001   -0.9283    0.3638 C   0  0  0  0  0  0  0  0  0  0  0  0
    1.6036   -1.4850    0.1824 N   0  0  0  0  0  0  0  0  0  0  0  0
   -3.3256   -1.3659    0.6616 C   0  0  0  0  0  0  0  0  0  0  0  0
   -3.4443   -2.5026    1.1937 O   0  0  0  0  0  0  0  0  0  0  0  0
   -4.5304   -0.7115    0.1153 C   0  0  0  0  0  0  0  0  0  0  0  0
   -4.5727    0.2950   -0.8460 C   0  0  0  0  0  0  0  0  0  0  0  0
   -5.8747    0.6727   -1.1964 C   0  0  0  0  0  0  0  0  0  0  0  0
   -6.8619   -0.0380   -0.5273 C   0  0  0  0  0  0  0  0  0  0  0  0
   -6.1125   -1.1394    0.4976 S   0  0  0  0  0  0  0  0  0  0  0  0
    6.9844    1.9919   -0.7754 H   0  0  0  0  0  0  0  0  0  0  0  0
    7.1466    1.7605    1.0194 H   0  0  0  0  0  0  0  0  0  0  0  0
    8.1642    0.7932   -0.1169 H   0  0  0  0  0  0  0  0  0  0  0  0
    4.2536   -1.5448   -0.0652 H   0  0  0  0  0  0  0  0  0  0  0  0
   -0.4190    2.3161    0.8778 H   0  0  0  0  0  0  0  0  0  0  0  0
   -2.6819    1.2917    0.9768 H   0  0  0  0  0  0  0  0  0  0  0  0
   -0.9254   -2.6238    0.2671 H   0  0  0  0  0  0  0  0  0  0  0  0
    1.8316   -2.4931    0.0321 H   0  0  0  0  0  0  0  0  0  0  0  0
   -3.6950    0.7326   -1.3025 H   0  0  0  0  0  0  0  0  0  0  0  0
   -6.0915    1.4381   -1.9295 H   0  0  0  0  0  0  0  0  0  0  0  0
   -7.9284    0.0893   -0.6541 H   0  0  0  0  0  0  0  0  0  0  0  0
  1  2  1  0
  2  3  1  0
  3  4  2  0
  3  5  1  0
  5  6  1  0
  6  7  2  0
  7  8  1  0
  8  9  2  0
  9 10  1  0
 10 11  2  0
 11 12  1  0
 12 13  2  0
 13 14  1  0
 11 15  1  0
 15 16  2  0
 15 17  1  0
 17 18  2  0
 18 19  1  0
 19 20  2  0
 20 21  1  0
 14  6  1  0
 21 17  1  0
 13  8  1  0
  1 22  1  0
  1 23  1  0
  1 24  1  0
  5 25  1  0
  9 26  1  0
 10 27  1  0
 12 28  1  0
 14 29  1  0
 18 30  1  0
 19 31  1  0
 20 32  1  0
M  END
$$$$
