
     RDKit          3D

 20 20  0  0  0  0  0  0  0  0999 V2000
   -0.9750    0.9492   -1.4579 N   0  0  0  0  0  0  0  0  0  0  0  0
   -1.1970   -0.2208   -0.6045 C   0  0  1  0  0  0  0  0  0  0  0  0
   -0.4702   -0.0880    0.7473 C   0  0  0  0  0  0  0  0  0  0  0  0
    0.9750   -0.0094    0.5545 N   0  0  0  0  0  0  0  0  0  0  0  0
    1.6665    1.0901    0.5002 O   0  0  0  0  0  0  0  0  0  0  0  0
    2.9198    0.7766    0.2597 C   0  0  0  0  0  0  0  0  0  0  0  0
    3.8484    1.6191    0.1500 O   0  0  0  0  0  0  0  0  0  0  0  0
    3.0933   -0.5552    0.1384 N   0  0  0  0  0  0  0  0  0  0  0  0
    1.8426   -1.0141    0.3253 C   0  0  0  0  0  0  0  0  0  0  0  0
    1.5260   -2.2328    0.2836 O   0  0  0  0  0  0  0  0  0  0  0  0
   -2.6700   -0.4035   -0.3816 C   0  0  0  0  0  0  0  0  0  0  0  0
   -3.4333    0.6419    0.1310 O   0  0  0  0  0  0  0  0  0  0  0  0
   -3.2154   -1.5097   -0.6406 O   0  0  0  0  0  0  0  0  0  0  0  0
    0.0254    0.9618   -1.7622 H   0  0  0  0  0  0  0  0  0  0  0  0
   -1.1481    1.8239   -0.9100 H   0  0  0  0  0  0  0  0  0  0  0  0
   -0.8062   -1.1216   -1.1299 H   0  0  0  0  0  0  0  0  0  0  0  0
   -0.7047   -0.9673    1.3869 H   0  0  0  0  0  0  0  0  0  0  0  0
   -0.8187    0.8209    1.2850 H   0  0  0  0  0  0  0  0  0  0  0  0
    3.9686   -1.0900   -0.0579 H   0  0  0  0  0  0  0  0  0  0  0  0
   -4.4268    0.5289    0.2932 H   0  0  0  0  0  0  0  0  0  0  0  0
  1  2  1  0
  2  3  1  0
  3  4  1  0
  4  5  1  0
  5  6  1  0
  6  7  2  0
  6  8  1  0
  8  9  1  0
  9 10  2  0
  2 11  1  0
 11 12  1  0
 11 13  2  0
  9  4  1  0
  1 14  1  0
  1 15  1  0
  2 16  1  6
  3 17  1  0
  3 18  1  0
  8 19  1  0
 12 20  1  0
M  END
$$$$
