
     RDKit          3D

 56 58  0  0  0  0  0  0  0  0999 V2000
   -6.2457   -0.6332   -0.6282 C   0  0  1  0  0  0  0  0  0  0  0  0
   -6.8337   -1.1725    0.5281 O   0  0  0  0  0  0  0  0  0  0  0  0
   -4.7194   -0.7074   -0.4948 C   0  0  0  0  0  0  0  0  0  0  0  0
   -4.2963    0.0591    0.6307 O   0  0  0  0  0  0  0  0  0  0  0  0
   -2.9612    0.2037    1.0354 C   0  0  0  0  0  0  0  0  0  0  0  0
   -2.6897    0.9851    2.1638 C   0  0  0  0  0  0  0  0  0  0  0  0
   -1.3757    1.1615    2.6063 C   0  0  0  0  0  0  0  0  0  0  0  0
   -0.3079    0.5716    1.9155 C   0  0  0  0  0  0  0  0  0  0  0  0
    1.0327    0.7485    2.4040 N   0  0  0  0  0  0  0  0  0  0  0  0
    2.1901    0.8475    1.5581 C   0  0  0  0  0  0  0  0  0  0  0  0
    2.0571    1.0852    0.2246 N   0  0  0  0  0  0  0  0  0  0  0  0
    3.1441    1.2114   -0.5788 C   0  0  0  0  0  0  0  0  0  0  0  0
    4.3924    1.1092   -0.0551 N   0  0  0  0  0  0  0  0  0  0  0  0
    4.5829    0.8726    1.2716 C   0  0  0  0  0  0  0  0  0  0  0  0
    5.9093    0.7969    1.8191 N   0  0  0  0  0  0  0  0  0  0  0  0
    7.0981    0.6592    1.0215 C   0  0  0  0  0  0  0  0  0  0  0  0
    8.2819    1.2981    1.4230 C   0  0  0  0  0  0  0  0  0  0  0  0
    8.2986    2.0775    2.5336 F   0  0  0  0  0  0  0  0  0  0  0  0
    9.4530    1.1435    0.6776 C   0  0  0  0  0  0  0  0  0  0  0  0
    9.4573    0.3479   -0.4699 C   0  0  0  0  0  0  0  0  0  0  0  0
    8.2827   -0.2971   -0.8919 C   0  0  0  0  0  0  0  0  0  0  0  0
    7.1140   -0.1604   -0.1219 C   0  0  0  0  0  0  0  0  0  0  0  0
    8.3007   -1.2099   -2.0923 C   0  0  0  0  0  0  0  0  0  0  0  0
    7.0657   -1.2162   -2.7177 F   0  0  0  0  0  0  0  0  0  0  0  0
    9.2482   -0.7932   -3.0114 F   0  0  0  0  0  0  0  0  0  0  0  0
    8.6050   -2.4946   -1.6827 F   0  0  0  0  0  0  0  0  0  0  0  0
    3.4712    0.7523    2.1127 C   0  0  0  0  0  0  0  0  0  0  0  0
   -0.5793   -0.2329    0.7952 C   0  0  0  0  0  0  0  0  0  0  0  0
   -1.8939   -0.4102    0.3532 C   0  0  0  0  0  0  0  0  0  0  0  0
   -6.7103   -1.4319   -1.8720 C   0  0  0  0  0  0  0  0  0  0  0  0
   -8.1116   -1.1866   -2.2868 N   0  0  0  0  0  0  0  0  0  0  0  0
   -8.3473    0.1876   -2.7572 C   0  0  0  0  0  0  0  0  0  0  0  0
   -9.1042   -1.5860   -1.2783 C   0  0  0  0  0  0  0  0  0  0  0  0
   -6.5227    0.4383   -0.7450 H   0  0  0  0  0  0  0  0  0  0  0  0
   -6.8586   -0.4484    1.2069 H   0  0  0  0  0  0  0  0  0  0  0  0
   -4.4083   -1.7672   -0.3624 H   0  0  0  0  0  0  0  0  0  0  0  0
   -4.2454   -0.2971   -1.4135 H   0  0  0  0  0  0  0  0  0  0  0  0
   -3.5023    1.4566    2.7019 H   0  0  0  0  0  0  0  0  0  0  0  0
   -1.1875    1.7683    3.4832 H   0  0  0  0  0  0  0  0  0  0  0  0
    1.1623    0.8934    3.4315 H   0  0  0  0  0  0  0  0  0  0  0  0
    3.0156    1.3989   -1.6359 H   0  0  0  0  0  0  0  0  0  0  0  0
    6.0222    0.9221    2.8510 H   0  0  0  0  0  0  0  0  0  0  0  0
   10.3632    1.6372    0.9932 H   0  0  0  0  0  0  0  0  0  0  0  0
   10.3813    0.2297   -1.0219 H   0  0  0  0  0  0  0  0  0  0  0  0
    6.2247   -0.7122   -0.3984 H   0  0  0  0  0  0  0  0  0  0  0  0
    3.6000    0.5798    3.1742 H   0  0  0  0  0  0  0  0  0  0  0  0
    0.2198   -0.7448    0.2757 H   0  0  0  0  0  0  0  0  0  0  0  0
   -2.0694   -1.0327   -0.5135 H   0  0  0  0  0  0  0  0  0  0  0  0
   -6.5723   -2.5188   -1.6790 H   0  0  0  0  0  0  0  0  0  0  0  0
   -6.0455   -1.1962   -2.7325 H   0  0  0  0  0  0  0  0  0  0  0  0
   -9.3075    0.2280   -3.3142 H   0  0  0  0  0  0  0  0  0  0  0  0
   -7.5449    0.5064   -3.4567 H   0  0  0  0  0  0  0  0  0  0  0  0
   -8.4047    0.9072   -1.9126 H   0  0  0  0  0  0  0  0  0  0  0  0
  -10.1090   -1.6398   -1.7486 H   0  0  0  0  0  0  0  0  0  0  0  0
   -8.8702   -2.5960   -0.8784 H   0  0  0  0  0  0  0  0  0  0  0  0
   -9.1497   -0.8573   -0.4403 H   0  0  0  0  0  0  0  0  0  0  0  0
  1  2  1  0
  1  3  1  0
  3  4  1  0
  4  5  1  0
  5  6  2  0
  6  7  1  0
  7  8  2  0
  8  9  1  0
  9 10  1  0
 10 11  2  0
 11 12  1  0
 12 13  2  0
 13 14  1  0
 14 15  1  0
 15 16  1  0
 16 17  2  0
 17 18  1  0
 17 19  1  0
 19 20  2  0
 20 21  1  0
 21 22  2  0
 21 23  1  0
 23 24  1  0
 23 25  1  0
 23 26  1  0
 14 27  2  0
  8 28  1  0
 28 29  2  0
  1 30  1  0
 30 31  1  0
 31 32  1  0
 31 33  1  0
 29  5  1  0
 27 10  1  0
 22 16  1  0
  1 34  1  6
  2 35  1  0
  3 36  1  0
  3 37  1  0
  6 38  1  0
  7 39  1  0
  9 40  1  0
 12 41  1  0
 15 42  1  0
 19 43  1  0
 20 44  1  0
 22 45  1  0
 27 46  1  0
 28 47  1  0
 29 48  1  0
 30 49  1  0
 30 50  1  0
 32 51  1  0
 32 52  1  0
 32 53  1  0
 33 54  1  0
 33 55  1  0
 33 56  1  0
M  END
$$$$
