
     RDKit          3D

 20 19  0  0  0  0  0  0  0  0999 V2000
    2.9420   -0.7122    1.1076 N   0  0  0  0  0  0  0  0  0  0  0  0
    1.8828   -0.0901    0.3737 C   0  0  0  0  0  0  0  0  0  0  0  0
    2.0044    0.0167   -1.0523 N   0  0  0  0  0  0  0  0  0  0  0  0
    0.8404    0.3706    1.0161 N   0  0  0  0  0  4  0  0  0  0  0  0
   -0.3148    1.0235    0.3935 C   0  0  0  0  0  0  0  0  0  0  0  0
   -1.2521   -0.0168   -0.2356 C   0  0  0  0  0  0  0  0  0  0  0  0
   -2.4426    0.6432   -0.9389 C   0  0  0  0  0  0  0  0  0  0  0  0
   -3.2386    1.3477   -0.0241 O   0  0  0  0  0  0  0  0  0  0  0  0
    2.8942   -0.8096    2.1464 H   0  0  0  0  0  0  0  0  0  0  0  0
    3.7829   -1.0816    0.6114 H   0  0  0  0  0  0  0  0  0  0  0  0
    1.2912    0.4822   -1.6532 H   0  0  0  0  0  0  0  0  0  0  0  0
    2.8470   -0.3734   -1.5294 H   0  0  0  0  0  0  0  0  0  0  0  0
    0.8205    0.2890    2.0584 H   0  0  0  0  0  0  0  0  0  0  0  0
    0.0153    1.7810   -0.3494 H   0  0  0  0  0  0  0  0  0  0  0  0
   -0.8761    1.5739    1.1801 H   0  0  0  0  0  0  0  0  0  0  0  0
   -1.6245   -0.7045    0.5548 H   0  0  0  0  0  0  0  0  0  0  0  0
   -0.6986   -0.6275   -0.9793 H   0  0  0  0  0  0  0  0  0  0  0  0
   -3.0495   -0.1353   -1.4547 H   0  0  0  0  0  0  0  0  0  0  0  0
   -2.0748    1.3481   -1.7147 H   0  0  0  0  0  0  0  0  0  0  0  0
   -3.7493    0.6687    0.4896 H   0  0  0  0  0  0  0  0  0  0  0  0
  1  2  1  0
  2  3  1  0
  2  4  2  3
  4  5  1  0
  5  6  1  0
  6  7  1  0
  7  8  1  0
  1  9  1  0
  1 10  1  0
  3 11  1  0
  3 12  1  0
  4 13  1  0
  5 14  1  0
  5 15  1  0
  6 16  1  0
  6 17  1  0
  7 18  1  0
  7 19  1  0
  8 20  1  0
M  CHG  1   4   1
M  END
$$$$
