
     RDKit          3D

 41 42  0  0  0  0  0  0  0  0999 V2000
   -5.5340   -0.1230    0.7734 C   0  0  0  0  0  0  0  0  0  0  0  0
   -4.3789   -0.2809   -0.2241 C   0  0  0  0  0  0  0  0  0  0  0  0
   -3.9838    1.0919   -0.8205 C   0  0  0  0  0  0  0  0  0  0  0  0
   -2.5040    1.1170   -1.2090 C   0  0  0  0  0  0  0  0  0  0  0  0
   -1.6518    0.9446   -0.0119 N   0  0  0  0  0  0  0  0  0  0  0  0
   -0.2108    0.8257   -0.3206 C   0  0  0  0  0  0  0  0  0  0  0  0
    0.1707   -0.4982   -1.0213 C   0  0  0  0  0  0  0  0  0  0  0  0
    1.6943   -0.6513   -1.1612 C   0  0  0  0  0  0  0  0  0  0  0  0
    2.3990   -0.8541    0.1606 C   0  0  0  0  0  0  0  0  0  0  0  0
    1.7938   -1.4433    1.0985 O   0  0  0  0  0  0  0  0  0  0  0  0
    3.8068   -0.4281    0.3652 C   0  0  0  0  0  0  0  0  0  0  0  0
    4.6736   -0.2135   -0.7248 C   0  0  0  0  0  0  0  0  0  0  0  0
    5.9971    0.1838   -0.5102 C   0  0  0  0  0  0  0  0  0  0  0  0
    6.4729    0.3673    0.7899 C   0  0  0  0  0  0  0  0  0  0  0  0
    7.7567    0.7521    0.9946 F   0  0  0  0  0  0  0  0  0  0  0  0
    5.6265    0.1496    1.8792 C   0  0  0  0  0  0  0  0  0  0  0  0
    4.3025   -0.2486    1.6707 C   0  0  0  0  0  0  0  0  0  0  0  0
   -2.1467   -0.0273    0.9970 C   0  0  0  0  0  0  0  0  0  0  0  0
   -3.1750   -1.0130    0.4199 C   0  0  0  0  0  0  0  0  0  0  0  0
   -5.2109    0.4677    1.6573 H   0  0  0  0  0  0  0  0  0  0  0  0
   -6.3894    0.3939    0.2881 H   0  0  0  0  0  0  0  0  0  0  0  0
   -5.8832   -1.1201    1.1167 H   0  0  0  0  0  0  0  0  0  0  0  0
   -4.7497   -0.9218   -1.0555 H   0  0  0  0  0  0  0  0  0  0  0  0
   -4.1616    1.9085   -0.0852 H   0  0  0  0  0  0  0  0  0  0  0  0
   -4.6080    1.3041   -1.7158 H   0  0  0  0  0  0  0  0  0  0  0  0
   -2.3224    0.3178   -1.9578 H   0  0  0  0  0  0  0  0  0  0  0  0
   -2.2750    2.0953   -1.6842 H   0  0  0  0  0  0  0  0  0  0  0  0
    0.0987    1.6786   -0.9640 H   0  0  0  0  0  0  0  0  0  0  0  0
    0.3620    0.9305    0.6263 H   0  0  0  0  0  0  0  0  0  0  0  0
   -0.2573   -0.5112   -2.0447 H   0  0  0  0  0  0  0  0  0  0  0  0
   -0.2394   -1.3751   -0.4792 H   0  0  0  0  0  0  0  0  0  0  0  0
    2.0899    0.2530   -1.6721 H   0  0  0  0  0  0  0  0  0  0  0  0
    1.9089   -1.5295   -1.8069 H   0  0  0  0  0  0  0  0  0  0  0  0
    4.3411   -0.3693   -1.7425 H   0  0  0  0  0  0  0  0  0  0  0  0
    6.6553    0.3444   -1.3545 H   0  0  0  0  0  0  0  0  0  0  0  0
    5.9951    0.2895    2.8873 H   0  0  0  0  0  0  0  0  0  0  0  0
    3.6634   -0.4062    2.5307 H   0  0  0  0  0  0  0  0  0  0  0  0
   -1.3151   -0.5994    1.4646 H   0  0  0  0  0  0  0  0  0  0  0  0
   -2.6277    0.5427    1.8202 H   0  0  0  0  0  0  0  0  0  0  0  0
   -3.5108   -1.7104    1.2183 H   0  0  0  0  0  0  0  0  0  0  0  0
   -2.6726   -1.6336   -0.3536 H   0  0  0  0  0  0  0  0  0  0  0  0
  1  2  1  0
  2  3  1  0
  3  4  1  0
  4  5  1  0
  5  6  1  0
  6  7  1  0
  7  8  1  0
  8  9  1  0
  9 10  2  0
  9 11  1  0
 11 12  2  0
 12 13  1  0
 13 14  2  0
 14 15  1  0
 14 16  1  0
 16 17  2  0
  5 18  1  0
 18 19  1  0
 19  2  1  0
 17 11  1  0
  1 20  1  0
  1 21  1  0
  1 22  1  0
  2 23  1  0
  3 24  1  0
  3 25  1  0
  4 26  1  0
  4 27  1  0
  6 28  1  0
  6 29  1  0
  7 30  1  0
  7 31  1  0
  8 32  1  0
  8 33  1  0
 12 34  1  0
 13 35  1  0
 16 36  1  0
 17 37  1  0
 18 38  1  0
 18 39  1  0
 19 40  1  0
 19 41  1  0
M  END
$$$$
