
     RDKit          3D

 21 22  0  0  0  0  0  0  0  0999 V2000
   -4.8019   -0.6894   -0.7046 O   0  0  0  0  0  1  0  0  0  0  0  0
   -3.9887    0.4201   -0.7453 N   0  0  0  0  0  4  0  0  0  0  0  0
   -4.5015    1.5327   -0.9867 O   0  0  0  0  0  0  0  0  0  0  0  0
   -2.5733    0.2985   -0.5135 C   0  0  0  0  0  0  0  0  0  0  0  0
   -2.0022   -0.9556   -0.2424 C   0  0  0  0  0  0  0  0  0  0  0  0
   -0.6280   -1.0784   -0.0167 C   0  0  0  0  0  0  0  0  0  0  0  0
    0.2075    0.0524   -0.0571 C   0  0  0  0  0  0  0  0  0  0  0  0
   -0.3653    1.3069   -0.3285 C   0  0  0  0  0  0  0  0  0  0  0  0
   -1.7392    1.4291   -0.5541 C   0  0  0  0  0  0  0  0  0  0  0  0
    1.6678   -0.0587    0.1799 C   0  0  0  0  0  0  0  0  0  0  0  0
    2.5123    0.9934    0.1525 N   0  0  0  0  0  0  0  0  0  0  0  0
    3.7296    0.5414    0.4030 N   0  0  0  0  0  0  0  0  0  0  0  0
    3.6885   -0.7879    0.5926 C   0  0  0  0  0  0  0  0  0  0  0  0
    2.3850   -1.2135    0.4584 C   0  0  0  0  0  0  0  0  0  0  0  0
   -2.6181   -1.8449   -0.2044 H   0  0  0  0  0  0  0  0  0  0  0  0
   -0.2280   -2.0614    0.1887 H   0  0  0  0  0  0  0  0  0  0  0  0
    0.2489    2.1979   -0.3671 H   0  0  0  0  0  0  0  0  0  0  0  0
   -2.1488    2.4096   -0.7605 H   0  0  0  0  0  0  0  0  0  0  0  0
    4.5825    1.1417    0.4433 H   0  0  0  0  0  0  0  0  0  0  0  0
    4.5486   -1.4059    0.8137 H   0  0  0  0  0  0  0  0  0  0  0  0
    2.0242   -2.2281    0.5534 H   0  0  0  0  0  0  0  0  0  0  0  0
  1  2  1  0
  2  3  2  0
  2  4  1  0
  4  5  2  0
  5  6  1  0
  6  7  2  0
  7  8  1  0
  8  9  2  0
  7 10  1  0
 10 11  2  0
 11 12  1  0
 12 13  1  0
 13 14  2  0
  9  4  1  0
 14 10  1  0
  5 15  1  0
  6 16  1  0
  8 17  1  0
  9 18  1  0
 12 19  1  0
 13 20  1  0
 14 21  1  0
M  CHG  2   1  -1   2   1
M  END
$$$$
