
     RDKit          3D

 36 37  0  0  0  0  0  0  0  0999 V2000
    5.3964   -1.5789   -0.3102 C   0  0  0  0  0  0  0  0  0  0  0  0
    5.5636   -0.3114    0.2848 O   0  0  0  0  0  0  0  0  0  0  0  0
    4.9106   -0.2598    1.5407 C   0  0  0  0  0  0  0  0  0  0  0  0
    3.7054    0.6709    1.4622 C   0  0  0  0  0  0  0  0  0  0  0  0
    2.7342    0.1285    0.5713 O   0  0  0  0  0  0  0  0  0  0  0  0
    1.5083    0.7390    0.2719 C   0  0  0  0  0  0  0  0  0  0  0  0
    1.1052    1.9615    0.8321 C   0  0  0  0  0  0  0  0  0  0  0  0
   -0.0979    2.4962    0.4984 N   0  0  0  0  0  0  0  0  0  0  0  0
   -0.9284    1.8683   -0.3752 C   0  0  0  0  0  0  0  0  0  0  0  0
   -2.1917    2.4559   -0.6998 N   0  0  0  0  0  0  0  0  0  0  0  0
   -3.3139    1.6854   -1.7724 S   0  0  0  0  0  6  0  0  0  0  0  0
   -4.5678    2.5087   -1.8583 O   0  0  0  0  0  0  0  0  0  0  0  0
   -2.6940    1.5893   -3.1385 O   0  0  0  0  0  0  0  0  0  0  0  0
   -3.7198    0.0841   -1.1637 C   0  0  0  0  0  0  0  0  0  0  0  0
   -3.8882   -0.1182    0.2135 C   0  0  0  0  0  0  0  0  0  0  0  0
   -4.2029   -1.3896    0.7035 C   0  0  0  0  0  0  0  0  0  0  0  0
   -4.3542   -2.4625   -0.1797 C   0  0  0  0  0  0  0  0  0  0  0  0
   -4.1925   -2.2646   -1.5541 C   0  0  0  0  0  0  0  0  0  0  0  0
   -3.8771   -0.9942   -2.0469 C   0  0  0  0  0  0  0  0  0  0  0  0
   -0.5535    0.6837   -0.9286 N   0  0  0  0  0  0  0  0  0  0  0  0
    0.6396    0.1128   -0.6228 C   0  0  0  0  0  0  0  0  0  0  0  0
    4.3195   -1.8211   -0.4500 H   0  0  0  0  0  0  0  0  0  0  0  0
    5.8722   -1.5660   -1.3122 H   0  0  0  0  0  0  0  0  0  0  0  0
    5.8977   -2.3677    0.2933 H   0  0  0  0  0  0  0  0  0  0  0  0
    5.6245    0.1594    2.2811 H   0  0  0  0  0  0  0  0  0  0  0  0
    4.5875   -1.2521    1.9397 H   0  0  0  0  0  0  0  0  0  0  0  0
    4.0341    1.6696    1.1003 H   0  0  0  0  0  0  0  0  0  0  0  0
    3.2629    0.7766    2.4766 H   0  0  0  0  0  0  0  0  0  0  0  0
    1.7365    2.4920    1.5309 H   0  0  0  0  0  0  0  0  0  0  0  0
   -2.4600    3.3675   -0.2670 H   0  0  0  0  0  0  0  0  0  0  0  0
   -3.7740    0.7060    0.9061 H   0  0  0  0  0  0  0  0  0  0  0  0
   -4.3297   -1.5430    1.7673 H   0  0  0  0  0  0  0  0  0  0  0  0
   -4.5978   -3.4462    0.2004 H   0  0  0  0  0  0  0  0  0  0  0  0
   -4.3116   -3.0953   -2.2376 H   0  0  0  0  0  0  0  0  0  0  0  0
   -3.7562   -0.8539   -3.1133 H   0  0  0  0  0  0  0  0  0  0  0  0
    0.9130   -0.8307   -1.0767 H   0  0  0  0  0  0  0  0  0  0  0  0
  1  2  1  0
  2  3  1  0
  3  4  1  0
  4  5  1  0
  5  6  1  0
  6  7  2  0
  7  8  1  0
  8  9  2  0
  9 10  1  0
 10 11  1  0
 11 12  2  0
 11 13  2  0
 11 14  1  0
 14 15  2  0
 15 16  1  0
 16 17  2  0
 17 18  1  0
 18 19  2  0
  9 20  1  0
 20 21  2  0
 21  6  1  0
 19 14  1  0
  1 22  1  0
  1 23  1  0
  1 24  1  0
  3 25  1  0
  3 26  1  0
  4 27  1  0
  4 28  1  0
  7 29  1  0
 10 30  1  0
 15 31  1  0
 16 32  1  0
 17 33  1  0
 18 34  1  0
 19 35  1  0
 21 36  1  0
M  END
$$$$
