
     RDKit          3D

 32 33  0  0  0  0  0  0  0  0999 V2000
    7.5179   -1.2397    0.8427 Cl  0  0  0  0  0  0  0  0  0  0  0  0
    5.7986   -0.9345    0.6751 C   0  0  0  0  0  0  0  0  0  0  0  0
    5.1125   -0.2309    1.6687 C   0  0  0  0  0  0  0  0  0  0  0  0
    3.7420    0.0133    1.5379 C   0  0  0  0  0  0  0  0  0  0  0  0
    3.0404   -0.4413    0.4043 C   0  0  0  0  0  0  0  0  0  0  0  0
    3.7411   -1.1582   -0.5842 C   0  0  0  0  0  0  0  0  0  0  0  0
    5.1117   -1.3991   -0.4496 C   0  0  0  0  0  0  0  0  0  0  0  0
    1.5833   -0.1962    0.2531 C   0  0  0  0  0  0  0  0  0  0  0  0
    0.8623   -1.0864   -0.3737 N   0  0  0  0  0  0  0  0  0  0  0  0
   -0.5302   -0.9889   -0.5546 N   0  0  0  0  0  0  0  0  0  0  0  0
   -1.2348    0.2188   -0.2698 C   0  0  0  0  0  0  0  0  0  0  0  0
   -0.2990    1.7471   -0.2164 S   0  0  0  0  0  0  0  0  0  0  0  0
    0.9332    1.0100    0.8992 C   0  0  0  0  0  0  0  0  0  0  0  0
   -2.5080    0.1767   -0.0139 N   0  0  0  0  0  0  0  0  0  0  0  0
   -3.3245    1.3419    0.3151 C   0  0  0  0  0  0  0  0  0  0  0  0
   -4.7786    0.9262    0.5492 C   0  0  0  0  0  0  0  0  0  0  0  0
   -5.4545    0.4999   -0.7269 C   0  0  0  0  0  0  0  0  0  0  0  0
   -5.2548   -0.7071   -1.2646 C   0  0  0  0  0  0  0  0  0  0  0  0
    5.6388    0.1226    2.5463 H   0  0  0  0  0  0  0  0  0  0  0  0
    3.2319    0.5380    2.3352 H   0  0  0  0  0  0  0  0  0  0  0  0
    3.2309   -1.5220   -1.4676 H   0  0  0  0  0  0  0  0  0  0  0  0
    5.6383   -1.9467   -1.2209 H   0  0  0  0  0  0  0  0  0  0  0  0
   -1.0594   -1.8351   -0.8616 H   0  0  0  0  0  0  0  0  0  0  0  0
    1.6875    1.7959    1.1104 H   0  0  0  0  0  0  0  0  0  0  0  0
    0.4538    0.7124    1.8562 H   0  0  0  0  0  0  0  0  0  0  0  0
   -3.2744    2.0876   -0.5091 H   0  0  0  0  0  0  0  0  0  0  0  0
   -2.9347    1.8119    1.2443 H   0  0  0  0  0  0  0  0  0  0  0  0
   -4.8325    0.1133    1.3064 H   0  0  0  0  0  0  0  0  0  0  0  0
   -5.3287    1.8007    0.9585 H   0  0  0  0  0  0  0  0  0  0  0  0
   -6.1520    1.1815   -1.2049 H   0  0  0  0  0  0  0  0  0  0  0  0
   -5.7708   -0.9861   -2.1774 H   0  0  0  0  0  0  0  0  0  0  0  0
   -4.5876   -1.4255   -0.7987 H   0  0  0  0  0  0  0  0  0  0  0  0
  1  2  1  0
  2  3  2  0
  3  4  1  0
  4  5  2  0
  5  6  1  0
  6  7  2  0
  5  8  1  0
  8  9  2  0
  9 10  1  0
 10 11  1  0
 11 12  1  0
 12 13  1  0
 11 14  2  0
 14 15  1  0
 15 16  1  0
 16 17  1  0
 17 18  2  3
  7  2  1  0
 13  8  1  0
  3 19  1  0
  4 20  1  0
  6 21  1  0
  7 22  1  0
 10 23  1  0
 13 24  1  0
 13 25  1  0
 15 26  1  0
 15 27  1  0
 16 28  1  0
 16 29  1  0
 17 30  1  0
 18 31  1  0
 18 32  1  0
M  END
$$$$
