
     RDKit          3D

 30 32  0  0  0  0  0  0  0  0999 V2000
   -2.1282    1.4501   -2.6600 N   0  0  0  0  0  0  0  0  0  0  0  0
   -2.1810    0.5814   -1.5198 C   0  0  0  0  0  0  0  0  0  0  0  0
   -3.4368    0.2191   -1.0215 C   0  0  0  0  0  0  0  0  0  0  0  0
   -3.5515   -0.5074    0.1587 C   0  0  0  0  0  0  0  0  0  0  0  0
   -2.4137   -0.8923    0.8744 C   0  0  0  0  0  0  0  0  0  0  0  0
   -2.5919   -1.5188    2.1526 N   0  0  0  0  0  0  0  0  0  0  0  0
   -1.1278   -0.6074    0.3478 C   0  0  0  0  0  0  0  0  0  0  0  0
   -1.0090    0.1306   -0.8575 C   0  0  0  0  0  0  0  0  0  0  0  0
    0.3558    0.3655   -1.4068 C   0  0  0  0  0  0  0  0  0  0  0  0
    0.5228    0.5643   -2.6404 O   0  0  0  0  0  0  0  0  0  0  0  0
    1.5337    0.2731   -0.5072 C   0  0  0  0  0  0  0  0  0  0  0  0
    2.7755    0.8448   -0.8590 C   0  0  0  0  0  0  0  0  0  0  0  0
    2.9249    1.5372   -2.0609 O   0  0  0  0  0  0  0  0  0  0  0  0
    3.8671    0.7261    0.0074 C   0  0  0  0  0  0  0  0  0  0  0  0
    3.7293    0.0736    1.2300 C   0  0  0  0  0  0  0  0  0  0  0  0
    2.5030   -0.4774    1.6092 C   0  0  0  0  0  0  0  0  0  0  0  0
    2.4126   -1.0418    2.8837 O   0  0  0  0  0  0  0  0  0  0  0  0
    1.4015   -0.4168    0.7190 C   0  0  0  0  0  0  0  0  0  0  0  0
    0.1160   -1.1032    0.9934 C   0  0  0  0  0  0  0  0  0  0  0  0
    0.1040   -2.1793    1.6493 O   0  0  0  0  0  0  0  0  0  0  0  0
   -1.3099    2.0702   -2.8416 H   0  0  0  0  0  0  0  0  0  0  0  0
   -2.9853    1.6220   -3.2316 H   0  0  0  0  0  0  0  0  0  0  0  0
   -4.3376    0.5437   -1.5276 H   0  0  0  0  0  0  0  0  0  0  0  0
   -4.5387   -0.7323    0.5432 H   0  0  0  0  0  0  0  0  0  0  0  0
   -1.8442   -1.5116    2.8794 H   0  0  0  0  0  0  0  0  0  0  0  0
   -3.5359   -1.8537    2.4491 H   0  0  0  0  0  0  0  0  0  0  0  0
    3.8081    1.9565   -2.3281 H   0  0  0  0  0  0  0  0  0  0  0  0
    4.8231    1.1588   -0.2588 H   0  0  0  0  0  0  0  0  0  0  0  0
    4.5770    0.0170    1.9014 H   0  0  0  0  0  0  0  0  0  0  0  0
    1.5370   -1.2920    3.3222 H   0  0  0  0  0  0  0  0  0  0  0  0
  1  2  1  0
  2  3  2  0
  3  4  1  0
  4  5  2  0
  5  6  1  0
  5  7  1  0
  7  8  2  0
  8  9  1  0
  9 10  2  0
  9 11  1  0
 11 12  2  0
 12 13  1  0
 12 14  1  0
 14 15  2  0
 15 16  1  0
 16 17  1  0
 16 18  2  0
 18 19  1  0
 19 20  2  0
  8  2  1  0
 18 11  1  0
 19  7  1  0
  1 21  1  0
  1 22  1  0
  3 23  1  0
  4 24  1  0
  6 25  1  0
  6 26  1  0
 13 27  1  0
 14 28  1  0
 15 29  1  0
 17 30  1  0
M  END
$$$$
