
     RDKit          3D

 40 41  0  0  0  0  0  0  0  0999 V2000
    1.8354   -2.1687    0.7877 C   0  0  0  0  0  0  0  0  0  0  0  0
    2.3555   -0.7872    0.8285 N   0  0  0  0  0  0  0  0  0  0  0  0
    3.7914   -0.8134    0.4724 C   0  0  0  0  0  0  0  0  0  0  0  0
    4.4011    0.5880    0.5486 C   0  0  0  0  0  0  0  0  0  0  0  0
    3.6585    1.5374   -0.3887 C   0  0  0  0  0  0  0  0  0  0  0  0
    2.1645    1.5301   -0.0693 C   0  0  0  0  0  0  0  0  0  0  0  0
    1.5994    0.0955   -0.0999 C   0  0  0  0  0  0  0  0  0  0  0  0
    0.1389    0.1602    0.2780 C   0  0  0  0  0  0  0  0  0  0  0  0
   -0.1866    0.4574    1.4606 O   0  0  0  0  0  0  0  0  0  0  0  0
   -0.8726   -0.1189   -0.6995 N   0  0  0  0  0  0  0  0  0  0  0  0
   -2.2715   -0.0039   -0.3998 C   0  0  0  0  0  0  0  0  0  0  0  0
   -2.8551    1.2642   -0.1663 C   0  0  0  0  0  0  0  0  0  0  0  0
   -2.0394    2.5280   -0.2286 C   0  0  0  0  0  0  0  0  0  0  0  0
   -4.2196    1.3474    0.1511 C   0  0  0  0  0  0  0  0  0  0  0  0
   -5.0078    0.1978    0.1937 C   0  0  0  0  0  0  0  0  0  0  0  0
   -4.4441   -1.0499   -0.0711 C   0  0  0  0  0  0  0  0  0  0  0  0
   -3.0763   -1.1640   -0.3640 C   0  0  0  0  0  0  0  0  0  0  0  0
   -2.4820   -2.5191   -0.6366 C   0  0  0  0  0  0  0  0  0  0  0  0
    0.8009   -2.2082    1.1881 H   0  0  0  0  0  0  0  0  0  0  0  0
    1.8404   -2.5724   -0.2494 H   0  0  0  0  0  0  0  0  0  0  0  0
    2.4455   -2.8341    1.4365 H   0  0  0  0  0  0  0  0  0  0  0  0
    3.9389   -1.2276   -0.5520 H   0  0  0  0  0  0  0  0  0  0  0  0
    4.3466   -1.4607    1.1870 H   0  0  0  0  0  0  0  0  0  0  0  0
    4.3403    0.9652    1.5932 H   0  0  0  0  0  0  0  0  0  0  0  0
    5.4724    0.5435    0.2564 H   0  0  0  0  0  0  0  0  0  0  0  0
    4.0592    2.5669   -0.2678 H   0  0  0  0  0  0  0  0  0  0  0  0
    3.8184    1.2258   -1.4446 H   0  0  0  0  0  0  0  0  0  0  0  0
    1.6324    2.1605   -0.8155 H   0  0  0  0  0  0  0  0  0  0  0  0
    2.0091    1.9810    0.9365 H   0  0  0  0  0  0  0  0  0  0  0  0
    1.6900   -0.2892   -1.1424 H   0  0  0  0  0  0  0  0  0  0  0  0
   -0.5950   -0.5545   -1.6074 H   0  0  0  0  0  0  0  0  0  0  0  0
   -1.2682    2.4615   -1.0247 H   0  0  0  0  0  0  0  0  0  0  0  0
   -1.5449    2.7021    0.7492 H   0  0  0  0  0  0  0  0  0  0  0  0
   -2.6822    3.4036   -0.4615 H   0  0  0  0  0  0  0  0  0  0  0  0
   -4.6786    2.3072    0.3546 H   0  0  0  0  0  0  0  0  0  0  0  0
   -6.0617    0.2747    0.4284 H   0  0  0  0  0  0  0  0  0  0  0  0
   -5.0761   -1.9288   -0.0398 H   0  0  0  0  0  0  0  0  0  0  0  0
   -1.5917   -2.6790    0.0076 H   0  0  0  0  0  0  0  0  0  0  0  0
   -2.1783   -2.5847   -1.7023 H   0  0  0  0  0  0  0  0  0  0  0  0
   -3.2074   -3.3337   -0.4268 H   0  0  0  0  0  0  0  0  0  0  0  0
  1  2  1  0
  2  3  1  0
  3  4  1  0
  4  5  1  0
  5  6  1  0
  6  7  1  0
  7  8  1  0
  8  9  2  0
  8 10  1  0
 10 11  1  0
 11 12  2  0
 12 13  1  0
 12 14  1  0
 14 15  2  0
 15 16  1  0
 16 17  2  0
 17 18  1  0
  7  2  1  0
 17 11  1  0
  1 19  1  0
  1 20  1  0
  1 21  1  0
  3 22  1  0
  3 23  1  0
  4 24  1  0
  4 25  1  0
  5 26  1  0
  5 27  1  0
  6 28  1  0
  6 29  1  0
  7 30  1  0
 10 31  1  0
 13 32  1  0
 13 33  1  0
 13 34  1  0
 14 35  1  0
 15 36  1  0
 16 37  1  0
 18 38  1  0
 18 39  1  0
 18 40  1  0
M  END
$$$$
