
     RDKit          3D

 51 50  0  0  0  0  0  0  0  0999 V2000
   -2.7104    0.2098    0.2211 C   0  0  1  0  0  0  0  0  0  0  0  0
   -1.8062    0.8454   -0.8512 C   0  0  0  0  0  0  0  0  0  0  0  0
   -1.8986    2.2449   -0.8277 O   0  0  0  0  0  0  0  0  0  0  0  0
   -2.3506    0.6726    1.6405 C   0  0  0  0  0  0  0  0  0  0  0  0
   -1.0572    0.2024    2.0201 O   0  0  0  0  0  0  0  0  0  0  0  0
    0.1103    0.9678    1.9203 C   0  0  0  0  0  0  0  0  0  0  0  0
    0.0642    2.1784    1.5695 O   0  0  0  0  0  0  0  0  0  0  0  0
    1.4327    0.3213    2.1807 C   0  0  0  0  0  0  0  0  0  0  0  0
    1.9251   -0.4000    0.9229 C   0  0  0  0  0  0  0  0  0  0  0  0
    3.2913   -1.0576    1.1644 C   0  0  0  0  0  0  0  0  0  0  0  0
    3.7507   -1.9312   -0.0166 C   0  0  0  0  0  0  0  0  0  0  0  0
    3.9251   -1.1836   -1.3544 C   0  0  0  0  0  0  0  0  0  0  0  0
    4.8875    0.0166   -1.3102 C   0  0  0  0  0  0  0  0  0  0  0  0
    6.3203   -0.3825   -0.9292 C   0  0  0  0  0  0  0  0  0  0  0  0
    7.2714    0.8047   -1.0484 C   0  0  0  0  0  0  0  0  0  0  0  0
   -4.0777    0.5364   -0.0314 O   0  0  0  0  0  0  0  0  0  0  0  0
   -4.8421   -0.0558   -1.0431 C   0  0  0  0  0  0  0  0  0  0  0  0
   -4.3593   -0.9674   -1.7689 O   0  0  0  0  0  0  0  0  0  0  0  0
   -6.2671    0.3642   -1.2277 C   0  0  0  0  0  0  0  0  0  0  0  0
   -7.2328   -0.5696   -0.4874 C   0  0  0  0  0  0  0  0  0  0  0  0
   -7.1034   -0.4564    1.0317 C   0  0  0  0  0  0  0  0  0  0  0  0
   -2.5856   -0.8958    0.1852 H   0  0  0  0  0  0  0  0  0  0  0  0
   -0.7506    0.5510   -0.6778 H   0  0  0  0  0  0  0  0  0  0  0  0
   -2.0788    0.4592   -1.8590 H   0  0  0  0  0  0  0  0  0  0  0  0
   -2.7439    2.4829   -1.2906 H   0  0  0  0  0  0  0  0  0  0  0  0
   -3.0899    0.2343    2.3443 H   0  0  0  0  0  0  0  0  0  0  0  0
   -2.4276    1.7777    1.7369 H   0  0  0  0  0  0  0  0  0  0  0  0
    1.3208   -0.4053    3.0143 H   0  0  0  0  0  0  0  0  0  0  0  0
    2.1714    1.0939    2.4883 H   0  0  0  0  0  0  0  0  0  0  0  0
    2.0077    0.3389    0.0968 H   0  0  0  0  0  0  0  0  0  0  0  0
    1.1852   -1.1784    0.6318 H   0  0  0  0  0  0  0  0  0  0  0  0
    3.2209   -1.7132    2.0599 H   0  0  0  0  0  0  0  0  0  0  0  0
    4.0538   -0.2824    1.3899 H   0  0  0  0  0  0  0  0  0  0  0  0
    3.0090   -2.7457   -0.1668 H   0  0  0  0  0  0  0  0  0  0  0  0
    4.7068   -2.4266    0.2556 H   0  0  0  0  0  0  0  0  0  0  0  0
    4.2932   -1.9080   -2.1134 H   0  0  0  0  0  0  0  0  0  0  0  0
    2.9335   -0.8343   -1.7129 H   0  0  0  0  0  0  0  0  0  0  0  0
    4.9005    0.4746   -2.3236 H   0  0  0  0  0  0  0  0  0  0  0  0
    4.5073    0.7905   -0.6105 H   0  0  0  0  0  0  0  0  0  0  0  0
    6.6754   -1.1967   -1.5978 H   0  0  0  0  0  0  0  0  0  0  0  0
    6.3472   -0.7471    0.1195 H   0  0  0  0  0  0  0  0  0  0  0  0
    6.9465    1.6278   -0.3768 H   0  0  0  0  0  0  0  0  0  0  0  0
    8.2959    0.4912   -0.7564 H   0  0  0  0  0  0  0  0  0  0  0  0
    7.2989    1.1744   -2.0956 H   0  0  0  0  0  0  0  0  0  0  0  0
   -6.3987    1.4089   -0.8714 H   0  0  0  0  0  0  0  0  0  0  0  0
   -6.5101    0.3486   -2.3123 H   0  0  0  0  0  0  0  0  0  0  0  0
   -8.2731   -0.3021   -0.7730 H   0  0  0  0  0  0  0  0  0  0  0  0
   -7.0569   -1.6228   -0.7979 H   0  0  0  0  0  0  0  0  0  0  0  0
   -6.0996   -0.7948    1.3647 H   0  0  0  0  0  0  0  0  0  0  0  0
   -7.2645    0.5935    1.3567 H   0  0  0  0  0  0  0  0  0  0  0  0
   -7.8678   -1.0989    1.5171 H   0  0  0  0  0  0  0  0  0  0  0  0
  1  2  1  0
  2  3  1  0
  1  4  1  0
  4  5  1  0
  5  6  1  0
  6  7  2  0
  6  8  1  0
  8  9  1  0
  9 10  1  0
 10 11  1  0
 11 12  1  0
 12 13  1  0
 13 14  1  0
 14 15  1  0
  1 16  1  0
 16 17  1  0
 17 18  2  0
 17 19  1  0
 19 20  1  0
 20 21  1  0
  1 22  1  1
  2 23  1  0
  2 24  1  0
  3 25  1  0
  4 26  1  0
  4 27  1  0
  8 28  1  0
  8 29  1  0
  9 30  1  0
  9 31  1  0
 10 32  1  0
 10 33  1  0
 11 34  1  0
 11 35  1  0
 12 36  1  0
 12 37  1  0
 13 38  1  0
 13 39  1  0
 14 40  1  0
 14 41  1  0
 15 42  1  0
 15 43  1  0
 15 44  1  0
 19 45  1  0
 19 46  1  0
 20 47  1  0
 20 48  1  0
 21 49  1  0
 21 50  1  0
 21 51  1  0
M  END
$$$$
