
     RDKit          3D

 27 29  0  0  0  0  0  0  0  0999 V2000
    5.2652    1.0754   -0.4718 O   0  0  0  0  0  0  0  0  0  0  0  0
    3.9484    0.6718   -0.2649 C   0  0  0  0  0  0  0  0  0  0  0  0
    3.6667   -0.4980    0.4737 C   0  0  0  0  0  0  0  0  0  0  0  0
    2.3307   -0.8476    0.6460 C   0  0  0  0  0  0  0  0  0  0  0  0
    1.3136   -0.0960    0.1330 C   0  0  0  0  0  0  0  0  0  0  0  0
    1.5511    1.0591   -0.6107 C   0  0  0  0  0  0  0  0  0  0  0  0
    2.8915    1.4437   -0.8046 C   0  0  0  0  0  0  0  0  0  0  0  0
    0.1650   -0.7673    0.5019 C   0  0  0  0  0  0  0  0  0  0  0  0
    0.5264   -1.8632    1.2132 N   0  0  0  0  0  0  0  0  0  0  0  0
    1.8319   -1.8816    1.2769 O   0  0  0  0  0  0  0  0  0  0  0  0
   -1.2337   -0.3622    0.2515 C   0  0  0  0  0  0  0  0  0  0  0  0
   -2.2073   -1.2859   -0.1981 C   0  0  0  0  0  0  0  0  0  0  0  0
   -1.8880   -2.6063   -0.5217 O   0  0  0  0  0  0  0  0  0  0  0  0
   -3.5359   -0.8720   -0.3551 C   0  0  0  0  0  0  0  0  0  0  0  0
   -3.9060    0.4524   -0.0912 C   0  0  0  0  0  0  0  0  0  0  0  0
   -5.2259    0.8672   -0.2533 O   0  0  0  0  0  0  0  0  0  0  0  0
   -2.9436    1.3680    0.3377 C   0  0  0  0  0  0  0  0  0  0  0  0
   -1.6179    0.9648    0.5112 C   0  0  0  0  0  0  0  0  0  0  0  0
    6.0450    0.5456   -0.1003 H   0  0  0  0  0  0  0  0  0  0  0  0
    4.4583   -1.1068    0.8912 H   0  0  0  0  0  0  0  0  0  0  0  0
    0.7409    1.6377   -1.0340 H   0  0  0  0  0  0  0  0  0  0  0  0
    3.1130    2.3362   -1.3755 H   0  0  0  0  0  0  0  0  0  0  0  0
   -0.9403   -2.9588   -0.5363 H   0  0  0  0  0  0  0  0  0  0  0  0
   -4.2797   -1.5810   -0.6969 H   0  0  0  0  0  0  0  0  0  0  0  0
   -5.9480    0.2273   -0.5634 H   0  0  0  0  0  0  0  0  0  0  0  0
   -3.2253    2.3921    0.5474 H   0  0  0  0  0  0  0  0  0  0  0  0
   -0.8959    1.6853    0.8752 H   0  0  0  0  0  0  0  0  0  0  0  0
  1  2  1  0
  2  3  2  0
  3  4  1  0
  4  5  2  0
  5  6  1  0
  6  7  2  0
  5  8  1  0
  8  9  2  0
  9 10  1  0
  8 11  1  0
 11 12  2  0
 12 13  1  0
 12 14  1  0
 14 15  2  0
 15 16  1  0
 15 17  1  0
 17 18  2  0
  7  2  1  0
 18 11  1  0
 10  4  1  0
  1 19  1  0
  3 20  1  0
  6 21  1  0
  7 22  1  0
 13 23  1  0
 14 24  1  0
 16 25  1  0
 17 26  1  0
 18 27  1  0
M  END
$$$$
