
     RDKit          3D

 64 67  0  0  0  0  0  0  0  0999 V2000
    6.0470   -2.1688   -1.7738 C   0  0  0  0  0  0  0  0  0  0  0  0
    4.8897   -1.1798   -1.9444 C   0  0  0  0  0  0  0  0  0  0  0  0
    3.5551   -1.9277   -2.0300 C   0  0  0  0  0  0  0  0  0  0  0  0
    4.8609   -0.2326   -0.8259 N   0  0  0  0  0  0  0  0  0  0  0  0
    4.0955    0.9803   -0.8739 C   0  0  0  0  0  0  0  0  0  0  0  0
    3.5882    1.3690   -1.9612 O   0  0  0  0  0  0  0  0  0  0  0  0
    3.8515    1.7766    0.3776 C   0  0  0  0  0  0  0  0  0  0  0  0
    2.4330    1.5199    0.9439 C   0  0  1  0  0  0  0  0  0  0  0  0
    2.3042    0.0977    1.5497 C   0  0  0  0  0  0  0  0  0  0  0  0
    0.8818   -0.4778    1.4242 C   0  0  0  0  0  0  0  0  0  0  0  0
   -0.1545    0.2814    2.2609 C   0  0  0  0  0  0  0  0  0  0  0  0
   -0.3130    1.6626    1.7854 N   0  0  0  0  0  0  0  0  0  0  0  0
   -1.1292    1.9959    0.6420 C   0  0  0  0  0  0  0  0  0  0  0  0
   -1.0278    3.1346    0.1087 O   0  0  0  0  0  0  0  0  0  0  0  0
   -2.0719    1.0274    0.0536 C   0  0  0  0  0  0  0  0  0  0  0  0
   -1.8688    0.5116   -1.2390 C   0  0  0  0  0  0  0  0  0  0  0  0
   -0.4582    0.9593   -2.1945 Cl  0  0  0  0  0  0  0  0  0  0  0  0
   -2.7835   -0.3998   -1.7789 C   0  0  0  0  0  0  0  0  0  0  0  0
   -3.9170   -0.8065   -1.0479 C   0  0  0  0  0  0  0  0  0  0  0  0
   -4.1126   -0.2741    0.2408 C   0  0  0  0  0  0  0  0  0  0  0  0
   -3.2010    0.6344    0.7824 C   0  0  0  0  0  0  0  0  0  0  0  0
   -4.8594   -1.7511   -1.6086 N   0  0  0  0  0  0  0  0  0  0  0  0
   -4.6412   -2.4779   -2.8510 C   0  0  0  0  0  0  0  0  0  0  0  0
   -5.7884   -3.4724   -2.9598 C   0  0  0  0  0  0  0  0  0  0  0  0
   -6.8606   -2.9737   -1.9985 C   0  0  0  0  0  0  0  0  0  0  0  0
   -6.1359   -2.0879   -0.9949 C   0  0  0  0  0  0  0  0  0  0  0  0
    0.6051    2.6390    2.2952 C   0  0  0  0  0  0  0  0  0  0  0  0
    0.1429    3.6147    3.1874 C   0  0  0  0  0  0  0  0  0  0  0  0
    1.0383    4.5033    3.7822 C   0  0  0  0  0  0  0  0  0  0  0  0
    2.4015    4.4109    3.5023 C   0  0  0  0  0  0  0  0  0  0  0  0
    2.8729    3.4462    2.6075 C   0  0  0  0  0  0  0  0  0  0  0  0
    1.9763    2.5662    1.9617 C   0  0  0  0  0  0  0  0  0  0  0  0
    7.0089   -1.6165   -1.7135 H   0  0  0  0  0  0  0  0  0  0  0  0
    5.9181   -2.7665   -0.8457 H   0  0  0  0  0  0  0  0  0  0  0  0
    6.0941   -2.8585   -2.6434 H   0  0  0  0  0  0  0  0  0  0  0  0
    5.0557   -0.6240   -2.8937 H   0  0  0  0  0  0  0  0  0  0  0  0
    2.7227   -1.2129   -2.2012 H   0  0  0  0  0  0  0  0  0  0  0  0
    3.5715   -2.6484   -2.8752 H   0  0  0  0  0  0  0  0  0  0  0  0
    3.3590   -2.4800   -1.0859 H   0  0  0  0  0  0  0  0  0  0  0  0
    5.3757   -0.4622    0.0548 H   0  0  0  0  0  0  0  0  0  0  0  0
    4.6213    1.5304    1.1408 H   0  0  0  0  0  0  0  0  0  0  0  0
    3.9606    2.8513    0.1134 H   0  0  0  0  0  0  0  0  0  0  0  0
    1.7437    1.6008    0.0727 H   0  0  0  0  0  0  0  0  0  0  0  0
    2.9777   -0.6091    1.0228 H   0  0  0  0  0  0  0  0  0  0  0  0
    2.6233    0.0991    2.6156 H   0  0  0  0  0  0  0  0  0  0  0  0
    0.9010   -1.5332    1.7723 H   0  0  0  0  0  0  0  0  0  0  0  0
    0.5713   -0.4927    0.3575 H   0  0  0  0  0  0  0  0  0  0  0  0
    0.1596    0.2812    3.3284 H   0  0  0  0  0  0  0  0  0  0  0  0
   -1.1218   -0.2588    2.2249 H   0  0  0  0  0  0  0  0  0  0  0  0
   -2.6026   -0.7843   -2.7734 H   0  0  0  0  0  0  0  0  0  0  0  0
   -4.9672   -0.5602    0.8383 H   0  0  0  0  0  0  0  0  0  0  0  0
   -3.3753    1.0324    1.7750 H   0  0  0  0  0  0  0  0  0  0  0  0
   -3.6678   -3.0145   -2.8228 H   0  0  0  0  0  0  0  0  0  0  0  0
   -4.6633   -1.7694   -3.7073 H   0  0  0  0  0  0  0  0  0  0  0  0
   -5.4418   -4.4790   -2.6372 H   0  0  0  0  0  0  0  0  0  0  0  0
   -6.1745   -3.5351   -4.0004 H   0  0  0  0  0  0  0  0  0  0  0  0
   -7.6075   -2.3691   -2.5590 H   0  0  0  0  0  0  0  0  0  0  0  0
   -7.3783   -3.8188   -1.4950 H   0  0  0  0  0  0  0  0  0  0  0  0
   -6.7274   -1.1678   -0.7957 H   0  0  0  0  0  0  0  0  0  0  0  0
   -5.9602   -2.6429   -0.0478 H   0  0  0  0  0  0  0  0  0  0  0  0
   -0.9094    3.6672    3.4373 H   0  0  0  0  0  0  0  0  0  0  0  0
    0.6778    5.2510    4.4768 H   0  0  0  0  0  0  0  0  0  0  0  0
    3.0968    5.0881    3.9816 H   0  0  0  0  0  0  0  0  0  0  0  0
    3.9376    3.4016    2.4288 H   0  0  0  0  0  0  0  0  0  0  0  0
  1  2  1  0
  2  3  1  0
  2  4  1  0
  4  5  1  0
  5  6  2  0
  5  7  1  0
  7  8  1  0
  8  9  1  0
  9 10  1  0
 10 11  1  0
 11 12  1  0
 12 13  1  0
 13 14  2  0
 13 15  1  0
 15 16  2  0
 16 17  1  0
 16 18  1  0
 18 19  2  0
 19 20  1  0
 20 21  2  0
 19 22  1  0
 22 23  1  0
 23 24  1  0
 24 25  1  0
 25 26  1  0
 12 27  1  0
 27 28  2  0
 28 29  1  0
 29 30  2  0
 30 31  1  0
 31 32  2  0
 32  8  1  0
 21 15  1  0
 26 22  1  0
 32 27  1  0
  1 33  1  0
  1 34  1  0
  1 35  1  0
  2 36  1  0
  3 37  1  0
  3 38  1  0
  3 39  1  0
  4 40  1  0
  7 41  1  0
  7 42  1  0
  8 43  1  6
  9 44  1  0
  9 45  1  0
 10 46  1  0
 10 47  1  0
 11 48  1  0
 11 49  1  0
 18 50  1  0
 20 51  1  0
 21 52  1  0
 23 53  1  0
 23 54  1  0
 24 55  1  0
 24 56  1  0
 25 57  1  0
 25 58  1  0
 26 59  1  0
 26 60  1  0
 28 61  1  0
 29 62  1  0
 30 63  1  0
 31 64  1  0
M  END
$$$$
