
     RDKit          3D

 47 50  0  0  0  0  0  0  0  0999 V2000
   -4.5129   -0.9144   -0.1671 C   0  0  1  0  0  0  0  0  0  0  0  0
   -5.7684   -1.3007    0.3341 O   0  0  0  0  0  0  0  0  0  0  0  0
   -4.6757    0.1136   -1.3015 C   0  0  0  0  0  0  0  0  0  0  0  0
   -5.4703   -0.4145   -2.3292 O   0  0  0  0  0  0  0  0  0  0  0  0
   -3.6300   -0.3811    0.9760 C   0  0  0  0  0  0  0  0  0  0  0  0
   -2.2550   -0.1728    0.5223 N   0  0  0  0  0  0  0  0  0  0  0  0
   -1.6932    1.1334    0.3205 C   0  0  0  0  0  0  0  0  0  0  0  0
   -0.3139    1.3412    0.1777 C   0  0  0  0  0  0  0  0  0  0  0  0
    0.1451    2.5878   -0.1490 C   0  0  0  0  0  0  0  0  0  0  0  0
    1.4783    2.6130   -0.2899 N   0  0  0  0  0  0  0  0  0  0  0  0
    1.9004    1.3544   -0.0240 C   0  0  0  0  0  0  0  0  0  0  0  0
    0.8085    0.5263    0.2790 C   0  0  0  0  0  0  0  0  0  0  0  0
    0.8620   -0.8974    0.6596 C   0  0  0  0  0  0  0  0  0  0  0  0
    1.4654   -1.8342   -0.1940 C   0  0  0  0  0  0  0  0  0  0  0  0
    1.5405   -3.1792    0.1804 C   0  0  0  0  0  0  0  0  0  0  0  0
    1.0194   -3.5945    1.4092 C   0  0  0  0  0  0  0  0  0  0  0  0
    0.4258   -2.6645    2.2676 C   0  0  0  0  0  0  0  0  0  0  0  0
    0.3509   -1.3183    1.8980 C   0  0  0  0  0  0  0  0  0  0  0  0
    3.3304    0.9725   -0.0237 C   0  0  0  0  0  0  0  0  0  0  0  0
    4.1850    1.4683   -1.0227 C   0  0  0  0  0  0  0  0  0  0  0  0
    5.5390    1.1192   -1.0316 C   0  0  0  0  0  0  0  0  0  0  0  0
    6.0530    0.2816   -0.0386 C   0  0  0  0  0  0  0  0  0  0  0  0
    5.2151   -0.2030    0.9686 C   0  0  0  0  0  0  0  0  0  0  0  0
    3.8607    0.1439    0.9816 C   0  0  0  0  0  0  0  0  0  0  0  0
   -0.6820    3.6508   -0.2896 N   0  0  0  0  0  0  0  0  0  0  0  0
   -2.0204    3.4625   -0.1095 C   0  0  0  0  0  0  0  0  0  0  0  0
   -2.5118    2.2196    0.1810 N   0  0  0  0  0  0  0  0  0  0  0  0
   -4.0254   -1.8208   -0.5887 H   0  0  0  0  0  0  0  0  0  0  0  0
   -6.2051   -0.4895    0.7056 H   0  0  0  0  0  0  0  0  0  0  0  0
   -5.1164    1.0607   -0.9126 H   0  0  0  0  0  0  0  0  0  0  0  0
   -3.6799    0.3555   -1.7287 H   0  0  0  0  0  0  0  0  0  0  0  0
   -6.4158   -0.2856   -2.0555 H   0  0  0  0  0  0  0  0  0  0  0  0
   -3.6164   -1.1295    1.7973 H   0  0  0  0  0  0  0  0  0  0  0  0
   -4.0591    0.5554    1.3943 H   0  0  0  0  0  0  0  0  0  0  0  0
   -1.7215   -1.0149    0.2163 H   0  0  0  0  0  0  0  0  0  0  0  0
    2.0668    3.4446   -0.5206 H   0  0  0  0  0  0  0  0  0  0  0  0
    1.8744   -1.5231   -1.1474 H   0  0  0  0  0  0  0  0  0  0  0  0
    2.0038   -3.8993   -0.4815 H   0  0  0  0  0  0  0  0  0  0  0  0
    1.0783   -4.6360    1.6975 H   0  0  0  0  0  0  0  0  0  0  0  0
    0.0270   -2.9862    3.2209 H   0  0  0  0  0  0  0  0  0  0  0  0
   -0.1026   -0.6044    2.5747 H   0  0  0  0  0  0  0  0  0  0  0  0
    3.8015    2.1123   -1.8045 H   0  0  0  0  0  0  0  0  0  0  0  0
    6.1897    1.4976   -1.8093 H   0  0  0  0  0  0  0  0  0  0  0  0
    7.1014    0.0128   -0.0465 H   0  0  0  0  0  0  0  0  0  0  0  0
    5.6165   -0.8423    1.7442 H   0  0  0  0  0  0  0  0  0  0  0  0
    3.2365   -0.2186    1.7875 H   0  0  0  0  0  0  0  0  0  0  0  0
   -2.6993    4.2976   -0.2132 H   0  0  0  0  0  0  0  0  0  0  0  0
  1  2  1  0
  1  3  1  0
  3  4  1  0
  1  5  1  0
  5  6  1  0
  6  7  1  0
  7  8  2  0
  8  9  1  0
  9 10  1  0
 10 11  1  0
 11 12  2  0
 12 13  1  0
 13 14  2  0
 14 15  1  0
 15 16  2  0
 16 17  1  0
 17 18  2  0
 11 19  1  0
 19 20  2  0
 20 21  1  0
 21 22  2  0
 22 23  1  0
 23 24  2  0
  9 25  2  0
 25 26  1  0
 26 27  2  0
 27  7  1  0
 12  8  1  0
 18 13  1  0
 24 19  1  0
  1 28  1  6
  2 29  1  0
  3 30  1  0
  3 31  1  0
  4 32  1  0
  5 33  1  0
  5 34  1  0
  6 35  1  0
 10 36  1  0
 14 37  1  0
 15 38  1  0
 16 39  1  0
 17 40  1  0
 18 41  1  0
 20 42  1  0
 21 43  1  0
 22 44  1  0
 23 45  1  0
 24 46  1  0
 26 47  1  0
M  END
$$$$
