
     RDKit          3D

122125  0  0  0  0  0  0  0  0999 V2000
   -5.8006   -3.8199    2.2037 C   0  0  0  0  0  0  0  0  0  0  0  0
   -4.7957   -4.7045    1.4638 C   0  0  0  0  0  0  0  0  0  0  0  0
   -4.1992   -3.9809    0.2287 C   0  0  1  0  0  0  0  0  0  0  0  0
   -3.5909   -2.7615    0.6647 O   0  0  0  0  0  0  0  0  0  0  0  0
   -3.7875   -1.5261    0.0350 C   0  0  0  0  0  0  0  0  0  0  0  0
   -4.1850   -1.4716   -1.1612 O   0  0  0  0  0  0  0  0  0  0  0  0
   -3.5292   -0.2568    0.8110 C   0  0  2  0  0  0  0  0  0  0  0  0
   -4.7254    0.6955    0.6550 C   0  0  0  0  0  0  0  0  0  0  0  0
   -2.1970    0.4228    0.3905 C   0  0  1  0  0  0  0  0  0  0  0  0
   -2.0796    1.6546    1.0997 O   0  0  0  0  0  0  0  0  0  0  0  0
   -1.9403    2.7722    0.2428 C   0  0  1  0  0  0  0  0  0  0  0  0
   -2.2426    4.0470    1.0543 C   0  0  0  0  0  0  0  0  0  0  0  0
   -1.5775    5.3248    0.4464 C   0  0  1  0  0  0  0  0  0  0  0  0
   -2.5309    6.5456    0.5931 C   0  0  0  0  0  0  0  0  0  0  0  0
   -0.2904    5.5428    1.0329 O   0  0  0  0  0  0  0  0  0  0  0  0
   -0.3233    6.1588    2.3069 C   0  0  0  0  0  0  0  0  0  0  0  0
   -1.3380    5.0765   -1.0672 C   0  0  1  0  0  0  0  0  0  0  0  0
   -0.6893    6.1797   -1.6532 O   0  0  0  0  0  0  0  0  0  0  0  0
   -0.4579    3.8074   -1.2653 C   0  0  2  0  0  0  0  0  0  0  0  0
   -0.6621    3.1791   -2.6462 C   0  0  0  0  0  0  0  0  0  0  0  0
   -0.6146    2.8246   -0.2482 O   0  0  0  0  0  0  0  0  0  0  0  0
   -0.9655   -0.4973    0.7124 C   0  0  2  0  0  0  0  0  0  0  0  0
   -0.4100   -0.1996    2.1246 C   0  0  0  0  0  0  0  0  0  0  0  0
    0.1409   -0.4596   -0.4153 C   0  0  1  0  0  0  0  0  0  0  0  0
    1.4159   -0.6972    0.1769 O   0  0  0  0  0  0  0  0  0  0  0  0
    2.2303    0.4659    0.1707 C   0  0  2  0  0  0  0  0  0  0  0  0
    2.5850    0.7874   -1.1640 O   0  0  0  0  0  0  0  0  0  0  0  0
    3.2910    2.0111   -1.1988 C   0  0  2  0  0  0  0  0  0  0  0  0
    3.4997    2.4141   -2.6575 C   0  0  0  0  0  0  0  0  0  0  0  0
    4.6441    1.8557   -0.4874 C   0  0  0  0  0  0  0  0  0  0  0  0
    4.4526    1.4133    0.9798 C   0  0  1  0  0  0  0  0  0  0  0  0
    3.4968    0.1812    1.0045 C   0  0  1  0  0  0  0  0  0  0  0  0
    3.1040   -0.0933    2.3254 O   0  0  0  0  0  0  0  0  0  0  0  0
    5.8087    1.1902    1.5761 N   0  0  0  0  0  0  0  0  0  0  0  0
    5.9460    0.0631    2.5241 C   0  0  0  0  0  0  0  0  0  0  0  0
    6.4254    2.4563    2.0718 C   0  0  0  0  0  0  0  0  0  0  0  0
    7.9483    2.4208    1.8963 C   0  0  0  0  0  0  0  0  0  0  0  0
    6.0420    2.8034    3.5230 C   0  0  0  0  0  0  0  0  0  0  0  0
   -0.1011   -1.5025   -1.5914 C   0  0  1  0  0  0  0  0  0  0  0  0
   -0.9366   -0.9054   -2.7408 C   0  0  0  0  0  0  0  0  0  0  0  0
    1.2189   -2.1032   -2.1760 C   0  0  0  0  0  0  0  0  0  0  0  0
    1.1620   -3.5313   -1.7460 C   0  0  0  0  0  0  0  0  0  0  0  0
    2.2984   -4.4879   -1.9441 C   0  0  0  0  0  0  0  0  0  0  0  0
   -0.0168   -3.7990   -1.1926 C   0  0  0  0  0  0  0  0  0  0  0  0
   -0.7818   -2.6530   -1.1100 O   0  0  0  0  0  0  0  0  0  0  0  0
   -0.4966   -5.1338   -0.6586 C   0  0  2  0  0  0  0  0  0  0  0  0
   -0.5577   -6.2129   -1.7483 C   0  0  0  0  0  0  0  0  0  0  0  0
   -1.8322   -5.0025    0.0787 C   0  0  0  0  0  0  0  0  0  0  0  0
   -1.7991   -5.0636    1.2984 O   0  0  0  0  0  0  0  0  0  0  0  0
   -3.1910   -4.8374   -0.6368 C   0  0  1  0  0  0  0  0  0  0  0  0
   -3.7608   -6.2676   -0.8806 C   0  0  0  0  0  0  0  0  0  0  0  0
   -2.9260   -4.1339   -1.8539 O   0  0  0  0  0  0  0  0  0  0  0  0
   -3.8995   -4.2910   -2.8701 C   0  0  0  0  0  0  0  0  0  0  0  0
   -6.2445   -4.3881    3.0482 H   0  0  0  0  0  0  0  0  0  0  0  0
   -6.6184   -3.5062    1.5204 H   0  0  0  0  0  0  0  0  0  0  0  0
   -5.2998   -2.9176    2.6143 H   0  0  0  0  0  0  0  0  0  0  0  0
   -5.3365   -5.6215    1.1506 H   0  0  0  0  0  0  0  0  0  0  0  0
   -4.0083   -4.9995    2.1837 H   0  0  0  0  0  0  0  0  0  0  0  0
   -5.0813   -3.7341   -0.3982 H   0  0  0  0  0  0  0  0  0  0  0  0
   -3.4653   -0.5213    1.8896 H   0  0  0  0  0  0  0  0  0  0  0  0
   -4.6240    1.5641    1.3395 H   0  0  0  0  0  0  0  0  0  0  0  0
   -5.6698    0.1704    0.9150 H   0  0  0  0  0  0  0  0  0  0  0  0
   -4.7976    1.0693   -0.3891 H   0  0  0  0  0  0  0  0  0  0  0  0
   -2.2587    0.5751   -0.7063 H   0  0  0  0  0  0  0  0  0  0  0  0
   -2.6835    2.7189   -0.5901 H   0  0  0  0  0  0  0  0  0  0  0  0
   -3.3485    4.1619    1.1008 H   0  0  0  0  0  0  0  0  0  0  0  0
   -1.8999    3.8920    2.0981 H   0  0  0  0  0  0  0  0  0  0  0  0
   -3.4335    6.4175   -0.0427 H   0  0  0  0  0  0  0  0  0  0  0  0
   -2.8830    6.6598    1.6401 H   0  0  0  0  0  0  0  0  0  0  0  0
   -2.0182    7.4825    0.2884 H   0  0  0  0  0  0  0  0  0  0  0  0
   -1.1234    5.7651    2.9676 H   0  0  0  0  0  0  0  0  0  0  0  0
    0.6448    5.9675    2.8131 H   0  0  0  0  0  0  0  0  0  0  0  0
   -0.4277    7.2589    2.1973 H   0  0  0  0  0  0  0  0  0  0  0  0
   -2.3251    4.9051   -1.5649 H   0  0  0  0  0  0  0  0  0  0  0  0
   -1.3929    6.7726   -2.0259 H   0  0  0  0  0  0  0  0  0  0  0  0
    0.6049    4.1320   -1.2198 H   0  0  0  0  0  0  0  0  0  0  0  0
   -1.6957    2.7897   -2.7567 H   0  0  0  0  0  0  0  0  0  0  0  0
   -0.4723    3.9311   -3.4413 H   0  0  0  0  0  0  0  0  0  0  0  0
    0.0507    2.3402   -2.7815 H   0  0  0  0  0  0  0  0  0  0  0  0
   -1.3093   -1.5417    0.8181 H   0  0  0  0  0  0  0  0  0  0  0  0
    0.0559    0.8054    2.1750 H   0  0  0  0  0  0  0  0  0  0  0  0
   -1.2274   -0.2415    2.8754 H   0  0  0  0  0  0  0  0  0  0  0  0
    0.3397   -0.9637    2.4197 H   0  0  0  0  0  0  0  0  0  0  0  0
    0.0966    0.5481   -0.8856 H   0  0  0  0  0  0  0  0  0  0  0  0
    1.6789    1.3118    0.6480 H   0  0  0  0  0  0  0  0  0  0  0  0
    2.7032    2.8258   -0.7146 H   0  0  0  0  0  0  0  0  0  0  0  0
    2.5165    2.5345   -3.1586 H   0  0  0  0  0  0  0  0  0  0  0  0
    4.0800    1.6354   -3.1973 H   0  0  0  0  0  0  0  0  0  0  0  0
    4.0436    3.3809   -2.7169 H   0  0  0  0  0  0  0  0  0  0  0  0
    5.1870    2.8227   -0.5348 H   0  0  0  0  0  0  0  0  0  0  0  0
    5.2569    1.0936   -1.0191 H   0  0  0  0  0  0  0  0  0  0  0  0
    3.9308    2.2352    1.5229 H   0  0  0  0  0  0  0  0  0  0  0  0
    4.0182   -0.6949    0.5505 H   0  0  0  0  0  0  0  0  0  0  0  0
    2.9143   -1.0665    2.3754 H   0  0  0  0  0  0  0  0  0  0  0  0
    5.7323   -0.9003    2.0194 H   0  0  0  0  0  0  0  0  0  0  0  0
    6.9892   -0.0217    2.8884 H   0  0  0  0  0  0  0  0  0  0  0  0
    5.2819    0.1883    3.4043 H   0  0  0  0  0  0  0  0  0  0  0  0
    6.0802    3.3120    1.4518 H   0  0  0  0  0  0  0  0  0  0  0  0
    8.3752    3.4286    2.0879 H   0  0  0  0  0  0  0  0  0  0  0  0
    8.4247    1.7056    2.5977 H   0  0  0  0  0  0  0  0  0  0  0  0
    8.2011    2.1277    0.8552 H   0  0  0  0  0  0  0  0  0  0  0  0
    6.3779    3.8346    3.7640 H   0  0  0  0  0  0  0  0  0  0  0  0
    6.5220    2.1098    4.2453 H   0  0  0  0  0  0  0  0  0  0  0  0
    4.9407    2.7598    3.6543 H   0  0  0  0  0  0  0  0  0  0  0  0
   -0.4588    0.0128   -3.1395 H   0  0  0  0  0  0  0  0  0  0  0  0
   -1.0306   -1.6381   -3.5714 H   0  0  0  0  0  0  0  0  0  0  0  0
   -1.9682   -0.6814   -2.4191 H   0  0  0  0  0  0  0  0  0  0  0  0
    1.2464   -2.0752   -3.2874 H   0  0  0  0  0  0  0  0  0  0  0  0
    2.1547   -1.6331   -1.8211 H   0  0  0  0  0  0  0  0  0  0  0  0
    2.4434   -5.1145   -1.0395 H   0  0  0  0  0  0  0  0  0  0  0  0
    2.1061   -5.1265   -2.8296 H   0  0  0  0  0  0  0  0  0  0  0  0
    3.2372   -3.9252   -2.1300 H   0  0  0  0  0  0  0  0  0  0  0  0
    0.2613   -5.4744    0.0821 H   0  0  0  0  0  0  0  0  0  0  0  0
    0.4555   -6.4796   -2.1015 H   0  0  0  0  0  0  0  0  0  0  0  0
   -1.1557   -5.8740   -2.6197 H   0  0  0  0  0  0  0  0  0  0  0  0
   -0.9902   -7.1473   -1.3333 H   0  0  0  0  0  0  0  0  0  0  0  0
   -3.6606   -6.8973    0.0297 H   0  0  0  0  0  0  0  0  0  0  0  0
   -4.8375   -6.2293   -1.1505 H   0  0  0  0  0  0  0  0  0  0  0  0
   -3.2332   -6.7837   -1.7055 H   0  0  0  0  0  0  0  0  0  0  0  0
   -3.7878   -3.4544   -3.5896 H   0  0  0  0  0  0  0  0  0  0  0  0
   -3.7207   -5.2318   -3.4312 H   0  0  0  0  0  0  0  0  0  0  0  0
   -4.9424   -4.2625   -2.4966 H   0  0  0  0  0  0  0  0  0  0  0  0
  1  2  1  0
  2  3  1  0
  3  4  1  0
  4  5  1  0
  5  6  2  0
  5  7  1  0
  7  8  1  0
  7  9  1  0
  9 10  1  0
 10 11  1  0
 11 12  1  0
 12 13  1  0
 13 14  1  0
 13 15  1  1
 15 16  1  0
 13 17  1  0
 17 18  1  0
 17 19  1  0
 19 20  1  0
 19 21  1  0
  9 22  1  0
 22 23  1  0
 22 24  1  0
 24 25  1  0
 25 26  1  0
 26 27  1  0
 27 28  1  0
 28 29  1  0
 28 30  1  0
 30 31  1  0
 31 32  1  0
 32 33  1  0
 31 34  1  0
 34 35  1  0
 34 36  1  0
 36 37  1  0
 36 38  1  0
 24 39  1  0
 39 40  1  6
 39 41  1  0
 41 42  1  0
 42 43  1  0
 42 44  2  0
 44 45  1  0
 44 46  1  0
 46 47  1  0
 46 48  1  0
 48 49  2  0
 48 50  1  0
 50 51  1  0
 50 52  1  6
 52 53  1  0
 50  3  1  0
 21 11  1  0
 32 26  1  0
 45 39  1  0
  1 54  1  0
  1 55  1  0
  1 56  1  0
  2 57  1  0
  2 58  1  0
  3 59  1  6
  7 60  1  1
  8 61  1  0
  8 62  1  0
  8 63  1  0
  9 64  1  6
 11 65  1  6
 12 66  1  0
 12 67  1  0
 14 68  1  0
 14 69  1  0
 14 70  1  0
 16 71  1  0
 16 72  1  0
 16 73  1  0
 17 74  1  6
 18 75  1  0
 19 76  1  6
 20 77  1  0
 20 78  1  0
 20 79  1  0
 22 80  1  1
 23 81  1  0
 23 82  1  0
 23 83  1  0
 24 84  1  6
 26 85  1  1
 28 86  1  1
 29 87  1  0
 29 88  1  0
 29 89  1  0
 30 90  1  0
 30 91  1  0
 31 92  1  1
 32 93  1  6
 33 94  1  0
 35 95  1  0
 35 96  1  0
 35 97  1  0
 36 98  1  0
 37 99  1  0
 37100  1  0
 37101  1  0
 38102  1  0
 38103  1  0
 38104  1  0
 40105  1  0
 40106  1  0
 40107  1  0
 41108  1  0
 41109  1  0
 43110  1  0
 43111  1  0
 43112  1  0
 46113  1  1
 47114  1  0
 47115  1  0
 47116  1  0
 51117  1  0
 51118  1  0
 51119  1  0
 53120  1  0
 53121  1  0
 53122  1  0
M  END
$$$$
