
     RDKit          3D

 62 61  0  0  0  0  0  0  0  0999 V2000
    8.1501   -3.0823   -0.9256 C   0  0  0  0  0  0  0  0  0  0  0  0
    8.7788   -1.7398   -0.5541 C   0  0  0  0  0  0  0  0  0  0  0  0
    8.5035   -0.6379   -1.5928 C   0  0  0  0  0  0  0  0  0  0  0  0
    7.0163   -0.2888   -1.7823 C   0  0  0  0  0  0  0  0  0  0  0  0
    6.3641    0.2582   -0.5006 C   0  0  0  0  0  0  0  0  0  0  0  0
    4.9796    0.8731   -0.7586 C   0  0  0  0  0  0  0  0  0  0  0  0
    3.9260   -0.1816   -1.1292 C   0  0  0  0  0  0  0  0  0  0  0  0
    2.5373    0.4443   -1.2483 C   0  0  0  0  0  0  0  0  0  0  0  0
    1.6084   -0.5589   -1.6019 O   0  0  0  0  0  0  0  0  0  0  0  0
    0.2913   -0.0381   -1.6227 C   0  0  0  0  0  0  0  0  0  0  0  0
   -0.5235   -0.6339   -0.4727 C   0  0  0  0  0  0  0  0  0  0  0  0
    0.0610   -0.3207    0.7781 O   0  0  0  0  0  0  0  0  0  0  0  0
   -0.4130    0.9164    1.2816 C   0  0  0  0  0  0  0  0  0  0  0  0
   -1.4116    0.6779    2.4106 C   0  0  0  0  0  0  0  0  0  0  0  0
   -2.5589    0.0359    1.8970 O   0  0  0  0  0  0  0  0  0  0  0  0
   -3.4843   -0.1845    2.9402 C   0  0  0  0  0  0  0  0  0  0  0  0
   -4.7239   -0.8765    2.3772 C   0  0  0  0  0  0  0  0  0  0  0  0
   -5.2825   -0.1130    1.3238 O   0  0  0  0  0  0  0  0  0  0  0  0
   -6.3408    0.6926    1.8005 C   0  0  0  0  0  0  0  0  0  0  0  0
   -6.8176    1.6166    0.6807 C   0  0  0  0  0  0  0  0  0  0  0  0
   -7.2203    0.8684   -0.4518 O   0  0  0  0  0  0  0  0  0  0  0  0
   -8.5915    0.5163   -0.3856 C   0  0  0  0  0  0  0  0  0  0  0  0
   -9.4059    1.3820   -1.3474 C   0  0  0  0  0  0  0  0  0  0  0  0
   -9.3644    2.7289   -0.9619 O   0  0  0  0  0  0  0  0  0  0  0  0
    7.0446   -3.0337   -0.8407 H   0  0  0  0  0  0  0  0  0  0  0  0
    8.5139   -3.8657   -0.2279 H   0  0  0  0  0  0  0  0  0  0  0  0
    8.4320   -3.3714   -1.9604 H   0  0  0  0  0  0  0  0  0  0  0  0
    8.4272   -1.4266    0.4513 H   0  0  0  0  0  0  0  0  0  0  0  0
    9.8793   -1.8798   -0.4839 H   0  0  0  0  0  0  0  0  0  0  0  0
    8.9205   -0.9559   -2.5733 H   0  0  0  0  0  0  0  0  0  0  0  0
    9.0537    0.2796   -1.2904 H   0  0  0  0  0  0  0  0  0  0  0  0
    6.4656   -1.1809   -2.1454 H   0  0  0  0  0  0  0  0  0  0  0  0
    6.9514    0.4837   -2.5794 H   0  0  0  0  0  0  0  0  0  0  0  0
    6.2685   -0.5505    0.2553 H   0  0  0  0  0  0  0  0  0  0  0  0
    7.0166    1.0499   -0.0716 H   0  0  0  0  0  0  0  0  0  0  0  0
    4.6575    1.3927    0.1705 H   0  0  0  0  0  0  0  0  0  0  0  0
    5.0504    1.6373   -1.5636 H   0  0  0  0  0  0  0  0  0  0  0  0
    3.8989   -0.9739   -0.3492 H   0  0  0  0  0  0  0  0  0  0  0  0
    4.1869   -0.6509   -2.1016 H   0  0  0  0  0  0  0  0  0  0  0  0
    2.2676    0.9033   -0.2695 H   0  0  0  0  0  0  0  0  0  0  0  0
    2.5644    1.2328   -2.0349 H   0  0  0  0  0  0  0  0  0  0  0  0
   -0.1835   -0.3473   -2.5778 H   0  0  0  0  0  0  0  0  0  0  0  0
    0.2317    1.0763   -1.5936 H   0  0  0  0  0  0  0  0  0  0  0  0
   -0.5244   -1.7392   -0.5822 H   0  0  0  0  0  0  0  0  0  0  0  0
   -1.5893   -0.3154   -0.5475 H   0  0  0  0  0  0  0  0  0  0  0  0
   -0.8639    1.5849    0.5104 H   0  0  0  0  0  0  0  0  0  0  0  0
    0.4554    1.4683    1.6997 H   0  0  0  0  0  0  0  0  0  0  0  0
   -0.9203    0.0506    3.1896 H   0  0  0  0  0  0  0  0  0  0  0  0
   -1.6787    1.6664    2.8498 H   0  0  0  0  0  0  0  0  0  0  0  0
   -3.0450   -0.8453    3.7222 H   0  0  0  0  0  0  0  0  0  0  0  0
   -3.7918    0.7776    3.4086 H   0  0  0  0  0  0  0  0  0  0  0  0
   -4.4158   -1.8595    1.9616 H   0  0  0  0  0  0  0  0  0  0  0  0
   -5.4433   -1.0979    3.2015 H   0  0  0  0  0  0  0  0  0  0  0  0
   -7.1911    0.0563    2.1332 H   0  0  0  0  0  0  0  0  0  0  0  0
   -6.0088    1.3281    2.6526 H   0  0  0  0  0  0  0  0  0  0  0  0
   -7.6112    2.3039    1.0556 H   0  0  0  0  0  0  0  0  0  0  0  0
   -5.9670    2.2639    0.3786 H   0  0  0  0  0  0  0  0  0  0  0  0
   -8.6866   -0.5411   -0.7112 H   0  0  0  0  0  0  0  0  0  0  0  0
   -9.0319    0.5656    0.6383 H   0  0  0  0  0  0  0  0  0  0  0  0
   -8.9848    1.2894   -2.3711 H   0  0  0  0  0  0  0  0  0  0  0  0
  -10.4592    1.0216   -1.3793 H   0  0  0  0  0  0  0  0  0  0  0  0
   -9.9677    2.8182   -0.1784 H   0  0  0  0  0  0  0  0  0  0  0  0
  1  2  1  0
  2  3  1  0
  3  4  1  0
  4  5  1  0
  5  6  1  0
  6  7  1  0
  7  8  1  0
  8  9  1  0
  9 10  1  0
 10 11  1  0
 11 12  1  0
 12 13  1  0
 13 14  1  0
 14 15  1  0
 15 16  1  0
 16 17  1  0
 17 18  1  0
 18 19  1  0
 19 20  1  0
 20 21  1  0
 21 22  1  0
 22 23  1  0
 23 24  1  0
  1 25  1  0
  1 26  1  0
  1 27  1  0
  2 28  1  0
  2 29  1  0
  3 30  1  0
  3 31  1  0
  4 32  1  0
  4 33  1  0
  5 34  1  0
  5 35  1  0
  6 36  1  0
  6 37  1  0
  7 38  1  0
  7 39  1  0
  8 40  1  0
  8 41  1  0
 10 42  1  0
 10 43  1  0
 11 44  1  0
 11 45  1  0
 13 46  1  0
 13 47  1  0
 14 48  1  0
 14 49  1  0
 16 50  1  0
 16 51  1  0
 17 52  1  0
 17 53  1  0
 19 54  1  0
 19 55  1  0
 20 56  1  0
 20 57  1  0
 22 58  1  0
 22 59  1  0
 23 60  1  0
 23 61  1  0
 24 62  1  0
M  END
$$$$
