
     RDKit          3D

 84 88  0  0  0  0  0  0  0  0999 V2000
   -1.9122   -0.6408   -2.2281 N   0  0  0  0  0  0  0  0  0  0  0  0
   -1.7160    0.7522   -1.9437 C   0  0  0  0  0  0  0  0  0  0  0  0
   -1.3289    1.6510   -3.0884 C   0  0  0  0  0  0  0  0  0  0  0  0
   -1.8831    1.2058   -0.6781 C   0  0  0  0  0  0  0  0  0  0  0  0
   -2.2944    0.2407    0.4254 C   0  0  1  0  0  0  0  0  0  0  0  0
   -3.7424    0.4878    0.8037 C   0  0  0  0  0  0  0  0  0  0  0  0
   -4.7782    0.2536   -0.1206 C   0  0  0  0  0  0  0  0  0  0  0  0
   -6.1213    0.4919    0.2257 C   0  0  0  0  0  0  0  0  0  0  0  0
   -6.4175    0.9725    1.5123 C   0  0  0  0  0  0  0  0  0  0  0  0
   -5.3942    1.2111    2.4317 C   0  0  0  0  0  0  0  0  0  0  0  0
   -4.0644    0.9728    2.0818 C   0  0  0  0  0  0  0  0  0  0  0  0
   -7.1780    0.2497   -0.7214 N   0  0  0  0  0  4  0  0  0  0  0  0
   -8.4902    0.4853   -0.3802 O   0  0  0  0  0  1  0  0  0  0  0  0
   -6.9221   -0.1778   -1.8663 O   0  0  0  0  0  0  0  0  0  0  0  0
   -2.0837   -1.2286    0.0971 C   0  0  0  0  0  0  0  0  0  0  0  0
   -1.9944   -2.1830    1.2310 C   0  0  0  0  0  0  0  0  0  0  0  0
   -2.5954   -1.9310    2.3109 O   0  0  0  0  0  0  0  0  0  0  0  0
   -1.1724   -3.3098    1.1289 O   0  0  0  0  0  0  0  0  0  0  0  0
   -0.7760   -4.1133    2.2380 C   0  0  0  0  0  0  0  0  0  0  0  0
    0.7338   -4.3657    2.1741 C   0  0  0  0  0  0  0  0  0  0  0  0
    1.5548   -3.0985    2.4811 C   0  0  0  0  0  0  0  0  0  0  0  0
    1.2549   -1.9959    1.5384 N   0  0  0  0  0  0  0  0  0  0  0  0
    1.7688   -2.2807    0.1739 C   0  0  0  0  0  0  0  0  0  0  0  0
    1.8741   -0.9985   -0.6662 C   0  0  0  0  0  0  0  0  0  0  0  0
    2.9339   -0.0045   -0.0826 C   0  0  0  0  0  0  0  0  0  0  0  0
    3.0113   -0.1958    1.4720 C   0  0  0  0  0  0  0  0  0  0  0  0
    1.6763   -0.6729    2.0711 C   0  0  0  0  0  0  0  0  0  0  0  0
    4.3668   -0.2357   -0.6157 C   0  0  0  0  0  0  0  0  0  0  0  0
    4.7550   -1.3882   -1.3401 C   0  0  0  0  0  0  0  0  0  0  0  0
    6.0756   -1.5515   -1.7695 C   0  0  0  0  0  0  0  0  0  0  0  0
    7.0362   -0.5842   -1.4764 C   0  0  0  0  0  0  0  0  0  0  0  0
    6.6816    0.5482   -0.7453 C   0  0  0  0  0  0  0  0  0  0  0  0
    5.3646    0.7189   -0.3123 C   0  0  0  0  0  0  0  0  0  0  0  0
    2.4872    1.4100   -0.5167 C   0  0  0  0  0  0  0  0  0  0  0  0
    1.9287    2.3590    0.3718 C   0  0  0  0  0  0  0  0  0  0  0  0
    1.5488    3.6253   -0.0823 C   0  0  0  0  0  0  0  0  0  0  0  0
    1.6901    3.9630   -1.4275 C   0  0  0  0  0  0  0  0  0  0  0  0
    2.2076    3.0325   -2.3267 C   0  0  0  0  0  0  0  0  0  0  0  0
    2.5916    1.7659   -1.8808 C   0  0  0  0  0  0  0  0  0  0  0  0
   -2.0113   -1.6266   -1.1919 C   0  0  0  0  0  0  0  0  0  0  0  0
   -1.9999   -3.0791   -1.5930 C   0  0  0  0  0  0  0  0  0  0  0  0
   -1.7796    2.6464   -0.3115 C   0  0  0  0  0  0  0  0  0  0  0  0
   -1.5266    2.9642    0.8834 O   0  0  0  0  0  0  0  0  0  0  0  0
   -2.0208    3.6489   -1.2564 O   0  0  0  0  0  0  0  0  0  0  0  0
   -1.9997    5.0338   -0.9330 C   0  0  0  0  0  0  0  0  0  0  0  0
   -1.8876   -0.9595   -3.2230 H   0  0  0  0  0  0  0  0  0  0  0  0
   -0.9767    1.0531   -3.9547 H   0  0  0  0  0  0  0  0  0  0  0  0
   -2.2065    2.2476   -3.4136 H   0  0  0  0  0  0  0  0  0  0  0  0
   -0.4953    2.3207   -2.7962 H   0  0  0  0  0  0  0  0  0  0  0  0
   -1.6384    0.4565    1.2983 H   0  0  0  0  0  0  0  0  0  0  0  0
   -4.5347   -0.1123   -1.1096 H   0  0  0  0  0  0  0  0  0  0  0  0
   -7.4404    1.1656    1.8083 H   0  0  0  0  0  0  0  0  0  0  0  0
   -5.6329    1.5833    3.4197 H   0  0  0  0  0  0  0  0  0  0  0  0
   -3.2864    1.1668    2.8095 H   0  0  0  0  0  0  0  0  0  0  0  0
   -1.3147   -5.0828    2.1844 H   0  0  0  0  0  0  0  0  0  0  0  0
   -1.0276   -3.6314    3.2081 H   0  0  0  0  0  0  0  0  0  0  0  0
    0.9926   -5.1389    2.9296 H   0  0  0  0  0  0  0  0  0  0  0  0
    1.0072   -4.7789    1.1801 H   0  0  0  0  0  0  0  0  0  0  0  0
    1.3034   -2.7998    3.5230 H   0  0  0  0  0  0  0  0  0  0  0  0
    2.6404   -3.3427    2.4668 H   0  0  0  0  0  0  0  0  0  0  0  0
    1.0722   -2.9711   -0.3426 H   0  0  0  0  0  0  0  0  0  0  0  0
    2.7613   -2.7791    0.2185 H   0  0  0  0  0  0  0  0  0  0  0  0
    0.8643   -0.5283   -0.6563 H   0  0  0  0  0  0  0  0  0  0  0  0
    2.0684   -1.2353   -1.7331 H   0  0  0  0  0  0  0  0  0  0  0  0
    3.3696    0.7214    1.9845 H   0  0  0  0  0  0  0  0  0  0  0  0
    3.7648   -0.9766    1.7240 H   0  0  0  0  0  0  0  0  0  0  0  0
    0.8792    0.0613    1.8336 H   0  0  0  0  0  0  0  0  0  0  0  0
    1.7620   -0.6729    3.1798 H   0  0  0  0  0  0  0  0  0  0  0  0
    4.0600   -2.1754   -1.5843 H   0  0  0  0  0  0  0  0  0  0  0  0
    6.3558   -2.4352   -2.3285 H   0  0  0  0  0  0  0  0  0  0  0  0
    8.0574   -0.7161   -1.8099 H   0  0  0  0  0  0  0  0  0  0  0  0
    7.4292    1.2944   -0.5091 H   0  0  0  0  0  0  0  0  0  0  0  0
    5.1202    1.6026    0.2639 H   0  0  0  0  0  0  0  0  0  0  0  0
    1.7783    2.1476    1.4182 H   0  0  0  0  0  0  0  0  0  0  0  0
    1.1352    4.3449    0.6123 H   0  0  0  0  0  0  0  0  0  0  0  0
    1.3887    4.9425   -1.7751 H   0  0  0  0  0  0  0  0  0  0  0  0
    2.3043    3.2893   -3.3736 H   0  0  0  0  0  0  0  0  0  0  0  0
    2.9805    1.0593   -2.6034 H   0  0  0  0  0  0  0  0  0  0  0  0
   -0.9791   -3.4968   -1.4808 H   0  0  0  0  0  0  0  0  0  0  0  0
   -2.7198   -3.6638   -0.9821 H   0  0  0  0  0  0  0  0  0  0  0  0
   -2.3052   -3.1907   -2.6543 H   0  0  0  0  0  0  0  0  0  0  0  0
   -1.0008    5.3203   -0.5432 H   0  0  0  0  0  0  0  0  0  0  0  0
   -2.7770    5.2575   -0.1721 H   0  0  0  0  0  0  0  0  0  0  0  0
   -2.2106    5.6243   -1.8479 H   0  0  0  0  0  0  0  0  0  0  0  0
  1  2  1  0
  2  3  1  0
  2  4  2  0
  4  5  1  0
  5  6  1  0
  6  7  2  0
  7  8  1  0
  8  9  2  0
  9 10  1  0
 10 11  2  0
  8 12  1  0
 12 13  1  0
 12 14  2  0
  5 15  1  0
 15 16  1  0
 16 17  2  0
 16 18  1  0
 18 19  1  0
 19 20  1  0
 20 21  1  0
 21 22  1  0
 22 23  1  0
 23 24  1  0
 24 25  1  0
 25 26  1  0
 26 27  1  0
 25 28  1  0
 28 29  2  0
 29 30  1  0
 30 31  2  0
 31 32  1  0
 32 33  2  0
 25 34  1  0
 34 35  2  0
 35 36  1  0
 36 37  2  0
 37 38  1  0
 38 39  2  0
 15 40  2  0
 40 41  1  0
  4 42  1  0
 42 43  2  0
 42 44  1  0
 44 45  1  0
 40  1  1  0
 11  6  1  0
 27 22  1  0
 33 28  1  0
 39 34  1  0
  1 46  1  0
  3 47  1  0
  3 48  1  0
  3 49  1  0
  5 50  1  1
  7 51  1  0
  9 52  1  0
 10 53  1  0
 11 54  1  0
 19 55  1  0
 19 56  1  0
 20 57  1  0
 20 58  1  0
 21 59  1  0
 21 60  1  0
 23 61  1  0
 23 62  1  0
 24 63  1  0
 24 64  1  0
 26 65  1  0
 26 66  1  0
 27 67  1  0
 27 68  1  0
 29 69  1  0
 30 70  1  0
 31 71  1  0
 32 72  1  0
 33 73  1  0
 35 74  1  0
 36 75  1  0
 37 76  1  0
 38 77  1  0
 39 78  1  0
 41 79  1  0
 41 80  1  0
 41 81  1  0
 45 82  1  0
 45 83  1  0
 45 84  1  0
M  CHG  2  12   1  13  -1
M  END
$$$$
