
     RDKit          3D

 81 84  0  0  0  0  0  0  0  0999 V2000
   -6.5456   -0.8730   -4.7304 C   0  0  0  0  0  0  0  0  0  0  0  0
   -5.1744   -0.4768   -4.3989 N   0  0  0  0  0  0  0  0  0  0  0  0
   -4.5720   -1.3569   -3.3787 C   0  0  1  0  0  0  0  0  0  0  0  0
   -4.0274   -2.6580   -3.9885 C   0  0  0  0  0  0  0  0  0  0  0  0
   -3.4542   -0.6269   -2.6839 C   0  0  0  0  0  0  0  0  0  0  0  0
   -2.6940    0.1305   -3.3480 O   0  0  0  0  0  0  0  0  0  0  0  0
   -3.2137   -0.8460   -1.2852 N   0  0  0  0  0  0  0  0  0  0  0  0
   -2.0629   -0.2558   -0.5873 C   0  0  2  0  0  0  0  0  0  0  0  0
   -0.8543   -1.1537   -0.7911 C   0  0  0  0  0  0  0  0  0  0  0  0
   -1.0079   -2.4028   -0.6962 O   0  0  0  0  0  0  0  0  0  0  0  0
    0.4584   -0.6272   -1.0819 N   0  0  0  0  0  0  0  0  0  0  0  0
    0.7099    0.7341   -1.5294 C   0  0  0  0  0  0  0  0  0  0  0  0
    2.1394    0.7492   -2.0745 C   0  0  2  0  0  0  0  0  0  0  0  0
    2.7900   -0.5440   -1.5838 C   0  0  0  0  0  0  0  0  0  0  0  0
    1.6376   -1.4756   -1.2009 C   0  0  1  0  0  0  0  0  0  0  0  0
    1.9201   -2.2115    0.0846 C   0  0  0  0  0  0  0  0  0  0  0  0
    2.0195   -3.4684    0.0644 O   0  0  0  0  0  0  0  0  0  0  0  0
    2.0990   -1.4930    1.3150 N   0  0  0  0  0  0  0  0  0  0  0  0
    2.5534   -2.1502    2.5451 C   0  0  2  0  0  0  0  0  0  0  0  0
    1.3608   -2.7847    3.2830 C   0  0  0  0  0  0  0  0  0  0  0  0
    0.5578   -1.7314    4.0459 C   0  0  0  0  0  0  0  0  0  0  0  0
    1.4239   -1.0751    5.1211 C   0  0  0  0  0  0  0  0  0  0  0  0
    2.7482   -0.5974    4.5772 C   0  0  0  0  0  0  0  0  0  0  0  0
    3.4783    0.3530    5.3092 C   0  0  0  0  0  0  0  0  0  0  0  0
    4.7363    0.7714    4.8708 C   0  0  0  0  0  0  0  0  0  0  0  0
    5.2840    0.2370    3.7045 C   0  0  0  0  0  0  0  0  0  0  0  0
    4.5773   -0.7201    2.9740 C   0  0  0  0  0  0  0  0  0  0  0  0
    3.3131   -1.1577    3.4049 C   0  0  0  0  0  0  0  0  0  0  0  0
    2.8702    1.8801   -1.5933 O   0  0  0  0  0  0  0  0  0  0  0  0
    2.6463    3.2131   -1.9723 C   0  0  0  0  0  0  0  0  0  0  0  0
    1.7198    3.5760   -2.9707 C   0  0  0  0  0  0  0  0  0  0  0  0
    1.5360    4.9218   -3.3040 C   0  0  0  0  0  0  0  0  0  0  0  0
    2.2721    5.9133   -2.6507 C   0  0  0  0  0  0  0  0  0  0  0  0
    3.1953    5.5605   -1.6634 C   0  0  0  0  0  0  0  0  0  0  0  0
    3.3816    4.2162   -1.3273 C   0  0  0  0  0  0  0  0  0  0  0  0
   -2.3792    0.0271    0.9262 C   0  0  0  0  0  0  0  0  0  0  0  0
   -1.2611    0.9024    1.5334 C   0  0  0  0  0  0  0  0  0  0  0  0
   -3.7057    0.8120    1.0454 C   0  0  0  0  0  0  0  0  0  0  0  0
   -2.4958   -1.2709    1.7606 C   0  0  0  0  0  0  0  0  0  0  0  0
   -6.9655   -0.1541   -5.4649 H   0  0  0  0  0  0  0  0  0  0  0  0
   -7.1883   -0.8468   -3.8244 H   0  0  0  0  0  0  0  0  0  0  0  0
   -6.5722   -1.8866   -5.1831 H   0  0  0  0  0  0  0  0  0  0  0  0
   -4.6023   -0.4962   -5.2762 H   0  0  0  0  0  0  0  0  0  0  0  0
   -5.3327   -1.6219   -2.6094 H   0  0  0  0  0  0  0  0  0  0  0  0
   -3.5576   -3.2809   -3.1969 H   0  0  0  0  0  0  0  0  0  0  0  0
   -4.8471   -3.2509   -4.4430 H   0  0  0  0  0  0  0  0  0  0  0  0
   -3.2652   -2.4399   -4.7672 H   0  0  0  0  0  0  0  0  0  0  0  0
   -3.7763   -1.5840   -0.8070 H   0  0  0  0  0  0  0  0  0  0  0  0
   -1.8664    0.7327   -1.0512 H   0  0  0  0  0  0  0  0  0  0  0  0
    0.6011    1.4343   -0.6749 H   0  0  0  0  0  0  0  0  0  0  0  0
    0.0022    1.0100   -2.3401 H   0  0  0  0  0  0  0  0  0  0  0  0
    2.1303    0.7389   -3.1875 H   0  0  0  0  0  0  0  0  0  0  0  0
    3.4179   -0.9989   -2.3809 H   0  0  0  0  0  0  0  0  0  0  0  0
    3.4458   -0.3262   -0.7109 H   0  0  0  0  0  0  0  0  0  0  0  0
    1.4694   -2.2053   -2.0249 H   0  0  0  0  0  0  0  0  0  0  0  0
    1.9465   -0.4588    1.3165 H   0  0  0  0  0  0  0  0  0  0  0  0
    3.2596   -2.9685    2.2787 H   0  0  0  0  0  0  0  0  0  0  0  0
    1.7344   -3.5499    3.9991 H   0  0  0  0  0  0  0  0  0  0  0  0
    0.6958   -3.3039    2.5593 H   0  0  0  0  0  0  0  0  0  0  0  0
   -0.3235   -2.2108    4.5239 H   0  0  0  0  0  0  0  0  0  0  0  0
    0.1879   -0.9560    3.3451 H   0  0  0  0  0  0  0  0  0  0  0  0
    1.6179   -1.8076    5.9344 H   0  0  0  0  0  0  0  0  0  0  0  0
    0.8611   -0.2203    5.5559 H   0  0  0  0  0  0  0  0  0  0  0  0
    3.0727    0.7688    6.2235 H   0  0  0  0  0  0  0  0  0  0  0  0
    5.2888    1.5089    5.4385 H   0  0  0  0  0  0  0  0  0  0  0  0
    6.2576    0.5659    3.3648 H   0  0  0  0  0  0  0  0  0  0  0  0
    5.0121   -1.1179    2.0650 H   0  0  0  0  0  0  0  0  0  0  0  0
    1.1413    2.8316   -3.4980 H   0  0  0  0  0  0  0  0  0  0  0  0
    0.8230    5.1961   -4.0709 H   0  0  0  0  0  0  0  0  0  0  0  0
    2.1284    6.9541   -2.9105 H   0  0  0  0  0  0  0  0  0  0  0  0
    3.7665    6.3285   -1.1581 H   0  0  0  0  0  0  0  0  0  0  0  0
    4.0982    3.9518   -0.5600 H   0  0  0  0  0  0  0  0  0  0  0  0
   -1.1937    1.8779    1.0054 H   0  0  0  0  0  0  0  0  0  0  0  0
   -1.4570    1.1070    2.6084 H   0  0  0  0  0  0  0  0  0  0  0  0
   -0.2785    0.3976    1.4556 H   0  0  0  0  0  0  0  0  0  0  0  0
   -3.8958    1.1081    2.1000 H   0  0  0  0  0  0  0  0  0  0  0  0
   -3.6716    1.7349    0.4268 H   0  0  0  0  0  0  0  0  0  0  0  0
   -4.5681    0.1980    0.7095 H   0  0  0  0  0  0  0  0  0  0  0  0
   -1.5380   -1.8309    1.7690 H   0  0  0  0  0  0  0  0  0  0  0  0
   -2.7478   -1.0321    2.8166 H   0  0  0  0  0  0  0  0  0  0  0  0
   -3.2906   -1.9376    1.3693 H   0  0  0  0  0  0  0  0  0  0  0  0
  1  2  1  0
  2  3  1  0
  3  4  1  0
  3  5  1  0
  5  6  2  0
  5  7  1  0
  7  8  1  0
  8  9  1  0
  9 10  2  0
  9 11  1  0
 11 12  1  0
 12 13  1  0
 13 14  1  0
 14 15  1  0
 15 16  1  0
 16 17  2  0
 16 18  1  0
 18 19  1  0
 19 20  1  0
 20 21  1  0
 21 22  1  0
 22 23  1  0
 23 24  2  0
 24 25  1  0
 25 26  2  0
 26 27  1  0
 27 28  2  0
 13 29  1  0
 29 30  1  0
 30 31  2  0
 31 32  1  0
 32 33  2  0
 33 34  1  0
 34 35  2  0
  8 36  1  0
 36 37  1  0
 36 38  1  0
 36 39  1  0
 15 11  1  0
 28 19  1  0
 35 30  1  0
 28 23  1  0
  1 40  1  0
  1 41  1  0
  1 42  1  0
  2 43  1  0
  3 44  1  1
  4 45  1  0
  4 46  1  0
  4 47  1  0
  7 48  1  0
  8 49  1  6
 12 50  1  0
 12 51  1  0
 13 52  1  6
 14 53  1  0
 14 54  1  0
 15 55  1  6
 18 56  1  0
 19 57  1  6
 20 58  1  0
 20 59  1  0
 21 60  1  0
 21 61  1  0
 22 62  1  0
 22 63  1  0
 24 64  1  0
 25 65  1  0
 26 66  1  0
 27 67  1  0
 31 68  1  0
 32 69  1  0
 33 70  1  0
 34 71  1  0
 35 72  1  0
 37 73  1  0
 37 74  1  0
 37 75  1  0
 38 76  1  0
 38 77  1  0
 38 78  1  0
 39 79  1  0
 39 80  1  0
 39 81  1  0
M  END
$$$$
