
     RDKit          3D

 71 53  0  0  0  0  0  0  0  0999 V2000
    0.0034    0.4041    0.0000 O   0  0  0  0  0  0  0  0  0  0  0  0
    0.0028    0.4041    0.0000 O   0  0  0  0  0  0  0  0  0  0  0  0
    0.0117    0.4040    0.0000 O   0  0  0  0  0  0  0  0  0  0  0  0
    0.4951    0.0000    0.0000 O   0  0  0  0  0  1  0  0  0  0  0  0
    0.0000    0.0000    0.0000 O   0  0  0  0  0 15  0  0  0  0  0  0
    0.0000    0.0000    0.0000 O   0  0  0  0  0 15  0  0  0  0  0  0
    0.0000    0.0000    0.0000 O   0  0  0  0  0 15  0  0  0  0  0  0
    0.0000    0.0000    0.0000 O   0  0  0  0  0 15  0  0  0  0  0  0
    0.0000    0.0000    0.0000 O   0  0  0  0  0 15  0  0  0  0  0  0
    0.0000    0.0000    0.0000 O   0  0  0  0  0 15  0  0  0  0  0  0
    0.0000    0.0000    0.0000 O   0  0  0  0  0 15  0  0  0  0  0  0
    0.0000    0.0000    0.0000 O   0  0  0  0  0 15  0  0  0  0  0  0
    0.0000    0.0000    0.0000 Na  0  0  0  0  0 15  0  0  0  0  0  0
    0.0000    0.0000    0.0000 Na  0  0  0  0  0 15  0  0  0  0  0  0
    0.0000    0.0000    0.0000 Fe  0  0  0  0  0 15  0  0  0  0  0  0
    0.0000    0.0000    0.0000 Fe  0  0  0  0  0 15  0  0  0  0  0  0
    0.0000    0.0000    0.0000 Fe  0  0  0  0  0 15  0  0  0  0  0  0
    0.0000    0.0000    0.0000 Fe  0  0  0  0  0 15  0  0  0  0  0  0
    0.0000    0.0000    0.0000 Fe  0  0  0  0  0 15  0  0  0  0  0  0
   -3.0174   -3.0176   -0.4564 O   0  0  0  0  0  0  0  0  0  0  0  0
   -1.9574   -2.1149   -0.2984 C   0  0  0  0  0  0  0  0  0  0  0  0
   -2.3121   -1.0665    0.7676 C   0  0  1  0  0  0  0  0  0  0  0  0
   -1.1926   -0.2451    1.0181 O   0  0  0  0  0  0  0  0  0  0  0  0
   -1.3822    1.0009    0.3621 C   0  0  1  0  0  0  0  0  0  0  0  0
   -1.2608    2.1478    1.3988 C   0  0  0  0  0  0  0  0  0  0  0  0
   -2.1773    1.9748    2.4487 O   0  0  0  0  0  0  0  0  0  0  0  0
   -0.4228    1.1913   -0.6786 O   0  0  0  0  0  0  0  0  0  0  0  0
    0.8874    0.7425   -0.3609 C   0  0  1  0  0  0  0  0  0  0  0  0
    0.9695   -0.6632   -0.5333 O   0  0  0  0  0  0  0  0  0  0  0  0
    2.1890   -1.1990   -0.0185 C   0  0  2  0  0  0  0  0  0  0  0  0
    2.0275   -1.6165    1.4515 C   0  0  0  0  0  0  0  0  0  0  0  0
    1.0177   -2.5790    1.5662 O   0  0  0  0  0  0  0  0  0  0  0  0
    3.4198   -0.2605   -0.2092 C   0  0  1  0  0  0  0  0  0  0  0  0
    4.6113   -1.0017   -0.3139 O   0  0  0  0  0  0  0  0  0  0  0  0
    3.2098    0.6356   -1.4396 C   0  0  2  0  0  0  0  0  0  0  0  0
    4.3040    1.5049   -1.5768 O   0  0  0  0  0  0  0  0  0  0  0  0
    1.8949    1.4458   -1.3031 C   0  0  1  0  0  0  0  0  0  0  0  0
    1.3194    1.6189   -2.5741 O   0  0  0  0  0  0  0  0  0  0  0  0
   -2.8002    1.0157   -0.2666 C   0  0  1  0  0  0  0  0  0  0  0  0
   -2.7461    0.8555   -1.6637 O   0  0  0  0  0  0  0  0  0  0  0  0
   -3.4819   -0.1842    0.3405 C   0  0  2  0  0  0  0  0  0  0  0  0
   -4.2293    0.2092    1.4630 O   0  0  0  0  0  0  0  0  0  0  0  0
    0.7813   -0.2086    0.0000 H   0  0  0  0  0  0  0  0  0  0  0  0
   -0.7847   -0.1956    0.0000 H   0  0  0  0  0  0  0  0  0  0  0  0
    0.7816   -0.2074    0.0000 H   0  0  0  0  0  0  0  0  0  0  0  0
   -0.7844   -0.1967    0.0000 H   0  0  0  0  0  0  0  0  0  0  0  0
    0.7769   -0.2246    0.0000 H   0  0  0  0  0  0  0  0  0  0  0  0
   -0.7885   -0.1794    0.0000 H   0  0  0  0  0  0  0  0  0  0  0  0
   -0.4951    0.0000    0.0000 H   0  0  0  0  0  0  0  0  0  0  0  0
   -2.7335   -3.6548   -1.1623 H   0  0  0  0  0  0  0  0  0  0  0  0
   -1.0518   -2.6713    0.0238 H   0  0  0  0  0  0  0  0  0  0  0  0
   -1.7340   -1.6166   -1.2681 H   0  0  0  0  0  0  0  0  0  0  0  0
   -2.5660   -1.6079    1.7057 H   0  0  0  0  0  0  0  0  0  0  0  0
   -0.2498    2.1699    1.8491 H   0  0  0  0  0  0  0  0  0  0  0  0
   -1.4028    3.1318    0.8920 H   0  0  0  0  0  0  0  0  0  0  0  0
   -2.9250    2.6091    2.2949 H   0  0  0  0  0  0  0  0  0  0  0  0
    1.1560    1.0207    0.6817 H   0  0  0  0  0  0  0  0  0  0  0  0
    2.3834   -2.1290   -0.5967 H   0  0  0  0  0  0  0  0  0  0  0  0
    1.7763   -0.7326    2.0784 H   0  0  0  0  0  0  0  0  0  0  0  0
    2.9861   -2.0471    1.8186 H   0  0  0  0  0  0  0  0  0  0  0  0
    0.9408   -2.7848    2.5339 H   0  0  0  0  0  0  0  0  0  0  0  0
    3.5186    0.4050    0.6780 H   0  0  0  0  0  0  0  0  0  0  0  0
    4.5620   -1.5404   -1.1466 H   0  0  0  0  0  0  0  0  0  0  0  0
    3.1433   -0.0275   -2.3357 H   0  0  0  0  0  0  0  0  0  0  0  0
    4.2776    1.8535   -2.5059 H   0  0  0  0  0  0  0  0  0  0  0  0
    2.1154    2.4455   -0.8580 H   0  0  0  0  0  0  0  0  0  0  0  0
    1.8435    2.3261   -3.0332 H   0  0  0  0  0  0  0  0  0  0  0  0
   -3.3740    1.9440   -0.0289 H   0  0  0  0  0  0  0  0  0  0  0  0
   -2.5745    1.7547   -2.0482 H   0  0  0  0  0  0  0  0  0  0  0  0
   -4.1539   -0.6817   -0.3991 H   0  0  0  0  0  0  0  0  0  0  0  0
   -4.8076   -0.5613    1.7033 H   0  0  0  0  0  0  0  0  0  0  0  0
 20 21  1  0
 21 22  1  0
 22 23  1  0
 23 24  1  0
 24 25  1  0
 25 26  1  0
 24 27  1  6
 27 28  1  0
 28 29  1  0
 29 30  1  0
 30 31  1  0
 31 32  1  0
 30 33  1  0
 33 34  1  0
 33 35  1  0
 35 36  1  0
 35 37  1  0
 37 38  1  0
 24 39  1  0
 39 40  1  0
 39 41  1  0
 41 42  1  0
 41 22  1  0
 37 28  1  0
  1 43  1  0
  1 44  1  0
  2 45  1  0
  2 46  1  0
  3 47  1  0
  3 48  1  0
  4 49  1  0
 20 50  1  0
 21 51  1  0
 21 52  1  0
 22 53  1  1
 25 54  1  0
 25 55  1  0
 26 56  1  0
 28 57  1  1
 30 58  1  6
 31 59  1  0
 31 60  1  0
 32 61  1  0
 33 62  1  1
 34 63  1  0
 35 64  1  6
 36 65  1  0
 37 66  1  1
 38 67  1  0
 39 68  1  6
 40 69  1  0
 41 70  1  6
 42 71  1  0
M  CHG  8   4  -1   5  -2   6  -2   7  -2   8  -2   9  -2  10  -2  11  -2
M  CHG  8  12  -2  13   1  14   1  15   3  16   3  17   3  18   3  19   3
M  END
$$$$
