
     RDKit          3D

 16 16  0  0  0  0  0  0  0  0999 V2000
    2.8017   -0.3163    0.8169 O   0  0  0  0  0  0  0  0  0  0  0  0
    2.0234    0.4153   -0.0755 C   0  0  0  0  0  0  0  0  0  0  0  0
    2.5756    1.2689   -0.8211 O   0  0  0  0  0  0  0  0  0  0  0  0
    0.5544    0.2453   -0.1078 C   0  0  0  0  0  0  0  0  0  0  0  0
   -0.0698   -1.0097    0.1080 C   0  0  0  0  0  0  0  0  0  0  0  0
    0.6626   -2.1931    0.2293 O   0  0  0  0  0  0  0  0  0  0  0  0
   -1.4711   -1.0863    0.1679 C   0  0  0  0  0  0  0  0  0  0  0  0
   -2.4424   -2.9335    0.5139 I   0  0  0  0  0  0  0  0  0  0  0  0
   -2.2502    0.0564   -0.0282 C   0  0  0  0  0  0  0  0  0  0  0  0
   -1.6416    1.2848   -0.2841 C   0  0  0  0  0  0  0  0  0  0  0  0
   -2.8256    3.0036   -0.5892 I   0  0  0  0  0  0  0  0  0  0  0  0
   -0.2489    1.3797   -0.3237 C   0  0  0  0  0  0  0  0  0  0  0  0
    3.8059   -0.1894    0.8567 H   0  0  0  0  0  0  0  0  0  0  0  0
    1.6498   -2.2607    0.0237 H   0  0  0  0  0  0  0  0  0  0  0  0
   -3.3296   -0.0125    0.0095 H   0  0  0  0  0  0  0  0  0  0  0  0
    0.2057    2.3476   -0.4963 H   0  0  0  0  0  0  0  0  0  0  0  0
  1  2  1  0
  2  3  2  0
  2  4  1  0
  4  5  2  0
  5  6  1  0
  5  7  1  0
  7  8  1  0
  7  9  2  0
  9 10  1  0
 10 11  1  0
 10 12  2  0
 12  4  1  0
  1 13  1  0
  6 14  1  0
  9 15  1  0
 12 16  1  0
M  END
$$$$
