
     RDKit          3D

 10  9  0  0  0  0  0  0  0  0999 V2000
   -1.4787    0.6260   -0.6455 O   0  0  0  0  0  0  0  0  0  0  0  0
   -0.7615   -0.0057    0.3812 C   0  0  0  0  0  0  0  0  0  0  0  0
    0.4541   -0.7391   -0.1838 C   0  0  0  0  0  0  0  0  0  0  0  0
    1.6817    0.4304   -0.8497 S   0  0  0  0  0  0  0  0  0  0  0  0
   -1.0655    1.5187   -0.7780 H   0  0  0  0  0  0  0  0  0  0  0  0
   -1.4288   -0.7476    0.8683 H   0  0  0  0  0  0  0  0  0  0  0  0
   -0.4486    0.7258    1.1615 H   0  0  0  0  0  0  0  0  0  0  0  0
    0.1331   -1.4283   -0.9935 H   0  0  0  0  0  0  0  0  0  0  0  0
    0.9308   -1.3399    0.6197 H   0  0  0  0  0  0  0  0  0  0  0  0
    1.9835    0.9598    0.4197 H   0  0  0  0  0  0  0  0  0  0  0  0
  1  2  1  0
  2  3  1  0
  3  4  1  0
  1  5  1  0
  2  6  1  0
  2  7  1  0
  3  8  1  0
  3  9  1  0
  4 10  1  0
M  END
$$$$
