
     RDKit          3D

 36 36  0  0  0  0  0  0  0  0999 V2000
   -4.7238    2.8150    0.4353 C   0  0  0  0  0  0  0  0  0  0  0  0
   -3.3565    2.4493    0.5914 O   0  0  0  0  0  0  0  0  0  0  0  0
   -2.8366    1.1800    0.2962 C   0  0  0  0  0  0  0  0  0  0  0  0
   -1.4714    0.9593    0.4969 C   0  0  0  0  0  0  0  0  0  0  0  0
   -0.8848   -0.2912    0.2194 C   0  0  0  0  0  0  0  0  0  0  0  0
    0.6068   -0.4938    0.4513 C   0  0  0  0  0  0  0  0  0  0  0  0
    0.9191   -0.3500    1.8151 O   0  0  0  0  0  0  0  0  0  0  0  0
    1.4498    0.4505   -0.4289 C   0  0  0  0  0  0  0  0  0  0  0  0
    2.8656    0.0909   -0.3619 N   0  0  0  0  0  0  0  0  0  0  0  0
    3.7441    0.5720    0.6650 C   0  0  0  0  0  0  0  0  0  0  0  0
    3.3373    1.4113    1.5132 O   0  0  0  0  0  0  0  0  0  0  0  0
    5.1706    0.1195    0.7022 C   0  0  0  0  0  0  0  0  0  0  0  0
    5.9495    0.8519   -0.2896 N   0  0  0  0  0  0  0  0  0  0  0  0
   -1.6977   -1.3401   -0.2701 C   0  0  0  0  0  0  0  0  0  0  0  0
   -1.1171   -2.5895   -0.5478 O   0  0  0  0  0  0  0  0  0  0  0  0
   -1.8243   -3.7211   -1.0448 C   0  0  0  0  0  0  0  0  0  0  0  0
   -3.0729   -1.1112   -0.4697 C   0  0  0  0  0  0  0  0  0  0  0  0
   -3.6361    0.1339   -0.1900 C   0  0  0  0  0  0  0  0  0  0  0  0
   -5.0274    2.7127   -0.6280 H   0  0  0  0  0  0  0  0  0  0  0  0
   -5.3655    2.1774    1.0795 H   0  0  0  0  0  0  0  0  0  0  0  0
   -4.8532    3.8732    0.7415 H   0  0  0  0  0  0  0  0  0  0  0  0
   -0.8667    1.7758    0.8702 H   0  0  0  0  0  0  0  0  0  0  0  0
    0.8956   -1.5272    0.1670 H   0  0  0  0  0  0  0  0  0  0  0  0
    0.7799    0.5999    2.0653 H   0  0  0  0  0  0  0  0  0  0  0  0
    1.3111    1.5133   -0.1354 H   0  0  0  0  0  0  0  0  0  0  0  0
    1.1107    0.3533   -1.4837 H   0  0  0  0  0  0  0  0  0  0  0  0
    3.2528   -0.5341   -1.1047 H   0  0  0  0  0  0  0  0  0  0  0  0
    5.2132   -0.9683    0.4777 H   0  0  0  0  0  0  0  0  0  0  0  0
    5.5980    0.2794    1.7176 H   0  0  0  0  0  0  0  0  0  0  0  0
    6.0306    1.8457    0.0277 H   0  0  0  0  0  0  0  0  0  0  0  0
    6.9186    0.4591   -0.2858 H   0  0  0  0  0  0  0  0  0  0  0  0
   -1.1152   -4.5648   -1.1700 H   0  0  0  0  0  0  0  0  0  0  0  0
   -2.6136   -4.0248   -0.3250 H   0  0  0  0  0  0  0  0  0  0  0  0
   -2.2748   -3.4866   -2.0323 H   0  0  0  0  0  0  0  0  0  0  0  0
   -3.7200   -1.8930   -0.8429 H   0  0  0  0  0  0  0  0  0  0  0  0
   -4.6958    0.2722   -0.3560 H   0  0  0  0  0  0  0  0  0  0  0  0
  1  2  1  0
  2  3  1  0
  3  4  2  0
  4  5  1  0
  5  6  1  0
  6  7  1  0
  6  8  1  0
  8  9  1  0
  9 10  1  0
 10 11  2  0
 10 12  1  0
 12 13  1  0
  5 14  2  0
 14 15  1  0
 15 16  1  0
 14 17  1  0
 17 18  2  0
 18  3  1  0
  1 19  1  0
  1 20  1  0
  1 21  1  0
  4 22  1  0
  6 23  1  0
  7 24  1  0
  8 25  1  0
  8 26  1  0
  9 27  1  0
 12 28  1  0
 12 29  1  0
 13 30  1  0
 13 31  1  0
 16 32  1  0
 16 33  1  0
 16 34  1  0
 17 35  1  0
 18 36  1  0
M  END
$$$$
