
     RDKit          3D

 23 22  0  0  0  0  0  0  0  0999 V2000
   -1.9507    1.2830    0.8433 C   0  0  0  0  0  0  0  0  0  0  0  0
   -0.9022    0.5848    0.0929 N   0  0  0  0  0  0  0  0  0  0  0  0
   -1.1213    0.2488   -1.3196 C   0  0  0  0  0  0  0  0  0  0  0  0
   -2.2338   -0.7428   -1.4493 C   0  0  0  0  0  0  0  0  0  0  0  0
   -3.4862   -0.3286   -1.8914 O   0  0  0  0  0  0  0  0  0  0  0  0
   -2.0440   -1.9471   -1.1310 O   0  0  0  0  0  0  0  0  0  0  0  0
    0.3621    0.2992    0.7246 C   0  0  0  0  0  0  0  0  0  0  0  0
    0.4006   -0.1449    1.9430 N   0  0  0  0  0  0  0  0  0  0  0  0
    1.5860    0.5365    0.0133 N   0  0  0  0  0  0  0  0  0  0  0  0
    3.1517    0.0279    0.6274 P   0  0  0  0  0  5  0  0  0  0  0  0
    4.3633    0.5425   -0.4349 O   0  0  0  0  0  0  0  0  0  0  0  0
    3.1986   -1.6600    0.7492 O   0  0  0  0  0  0  0  0  0  0  0  0
    3.3899    0.6436    1.9876 O   0  0  0  0  0  0  0  0  0  0  0  0
   -2.7644    1.6231    0.1676 H   0  0  0  0  0  0  0  0  0  0  0  0
   -2.3923    0.6043    1.6020 H   0  0  0  0  0  0  0  0  0  0  0  0
   -1.5239    2.1763    1.3466 H   0  0  0  0  0  0  0  0  0  0  0  0
   -0.2104   -0.1959   -1.7743 H   0  0  0  0  0  0  0  0  0  0  0  0
   -1.3654    1.1714   -1.8889 H   0  0  0  0  0  0  0  0  0  0  0  0
   -4.2522   -0.9865   -1.9718 H   0  0  0  0  0  0  0  0  0  0  0  0
   -0.4607   -0.3342    2.5006 H   0  0  0  0  0  0  0  0  0  0  0  0
    1.5640    1.0526   -0.8937 H   0  0  0  0  0  0  0  0  0  0  0  0
    4.1583    0.0864   -1.2898 H   0  0  0  0  0  0  0  0  0  0  0  0
    2.5332   -1.8863    1.4466 H   0  0  0  0  0  0  0  0  0  0  0  0
  1  2  1  0
  2  3  1  0
  3  4  1  0
  4  5  1  0
  4  6  2  0
  2  7  1  0
  7  8  2  3
  7  9  1  0
  9 10  1  0
 10 11  1  0
 10 12  1  0
 10 13  2  0
  1 14  1  0
  1 15  1  0
  1 16  1  0
  3 17  1  0
  3 18  1  0
  5 19  1  0
  8 20  1  0
  9 21  1  0
 11 22  1  0
 12 23  1  0
M  END
$$$$
