
     RDKit          3D

 38 41  0  0  0  0  0  0  0  0999 V2000
    4.7347    2.5275    0.3282 C   0  0  0  0  0  0  0  0  0  0  0  0
    3.9001    1.2844    0.2397 C   0  0  0  0  0  0  0  0  0  0  0  0
    4.5149    0.0291    0.1067 C   0  0  0  0  0  0  0  0  0  0  0  0
    3.7401   -1.1280   -0.0204 C   0  0  0  0  0  0  0  0  0  0  0  0
    2.3405   -1.0387   -0.0198 C   0  0  0  0  0  0  0  0  0  0  0  0
    1.7205    0.2189    0.0971 C   0  0  0  0  0  0  0  0  0  0  0  0
    2.4995    1.3752    0.2103 C   0  0  0  0  0  0  0  0  0  0  0  0
    0.2936    0.3239   -0.0107 N   0  0  0  0  0  0  0  0  0  0  0  0
   -0.4792   -0.7225    0.0451 C   0  0  0  0  0  0  0  0  0  0  0  0
   -1.8316   -0.6988   -0.3841 N   0  0  0  0  0  0  0  0  0  0  0  0
   -2.2323   -2.0564   -0.7374 C   0  0  0  0  0  0  0  0  0  0  0  0
   -0.9583   -2.9186   -0.6264 C   0  0  0  0  0  0  0  0  0  0  0  0
    0.0205   -2.1112    0.2500 C   0  0  2  0  0  0  0  0  0  0  0  0
   -0.1425   -2.4414    1.6066 O   0  0  0  0  0  0  0  0  0  0  0  0
    1.4769   -2.2312   -0.1409 C   0  0  0  0  0  0  0  0  0  0  0  0
    1.9599   -3.3495   -0.4674 O   0  0  0  0  0  0  0  0  0  0  0  0
   -2.7131    0.4432   -0.3533 C   0  0  0  0  0  0  0  0  0  0  0  0
   -2.5037    1.4881    0.5675 C   0  0  0  0  0  0  0  0  0  0  0  0
   -3.3654    2.5887    0.5995 C   0  0  0  0  0  0  0  0  0  0  0  0
   -4.4474    2.6574   -0.2801 C   0  0  0  0  0  0  0  0  0  0  0  0
   -4.6728    1.6230   -1.1904 C   0  0  0  0  0  0  0  0  0  0  0  0
   -3.8145    0.5196   -1.2263 C   0  0  0  0  0  0  0  0  0  0  0  0
    5.7016    2.3152    0.8321 H   0  0  0  0  0  0  0  0  0  0  0  0
    4.9353    2.9109   -0.6939 H   0  0  0  0  0  0  0  0  0  0  0  0
    4.2082    3.3118    0.9128 H   0  0  0  0  0  0  0  0  0  0  0  0
    5.5948   -0.0536    0.1001 H   0  0  0  0  0  0  0  0  0  0  0  0
    4.2323   -2.0878   -0.1146 H   0  0  0  0  0  0  0  0  0  0  0  0
    2.0143    2.3422    0.2691 H   0  0  0  0  0  0  0  0  0  0  0  0
   -3.0028   -2.4143   -0.0206 H   0  0  0  0  0  0  0  0  0  0  0  0
   -2.6289   -2.0965   -1.7738 H   0  0  0  0  0  0  0  0  0  0  0  0
   -1.1853   -3.9171   -0.1936 H   0  0  0  0  0  0  0  0  0  0  0  0
   -0.5322   -3.0618   -1.6447 H   0  0  0  0  0  0  0  0  0  0  0  0
    0.1434   -3.3860    1.7204 H   0  0  0  0  0  0  0  0  0  0  0  0
   -1.6888    1.4459    1.2776 H   0  0  0  0  0  0  0  0  0  0  0  0
   -3.1972    3.3862    1.3118 H   0  0  0  0  0  0  0  0  0  0  0  0
   -5.1138    3.5099   -0.2533 H   0  0  0  0  0  0  0  0  0  0  0  0
   -5.5134    1.6760   -1.8702 H   0  0  0  0  0  0  0  0  0  0  0  0
   -4.0078   -0.2637   -1.9457 H   0  0  0  0  0  0  0  0  0  0  0  0
  1  2  1  0
  2  3  2  0
  3  4  1  0
  4  5  2  0
  5  6  1  0
  6  7  2  0
  6  8  1  0
  8  9  2  0
  9 10  1  0
 10 11  1  0
 11 12  1  0
 12 13  1  0
 13 14  1  1
 13 15  1  0
 15 16  2  0
 10 17  1  0
 17 18  2  0
 18 19  1  0
 19 20  2  0
 20 21  1  0
 21 22  2  0
  7  2  1  0
 13  9  1  0
 22 17  1  0
 15  5  1  0
  1 23  1  0
  1 24  1  0
  1 25  1  0
  3 26  1  0
  4 27  1  0
  7 28  1  0
 11 29  1  0
 11 30  1  0
 12 31  1  0
 12 32  1  0
 14 33  1  0
 18 34  1  0
 19 35  1  0
 20 36  1  0
 21 37  1  0
 22 38  1  0
M  END
$$$$
