
     RDKit          3D

 18 18  0  0  0  0  0  0  0  0999 V2000
    2.9956   -0.9085   -0.1707 N   0  0  0  0  0  0  0  0  0  0  0  0
    2.3225    0.2596    0.3069 C   0  0  0  0  0  0  0  0  0  0  0  0
    3.0028    1.1796    0.8362 O   0  0  0  0  0  0  0  0  0  0  0  0
    0.8528    0.4160    0.1770 C   0  0  0  0  0  0  0  0  0  0  0  0
    0.0075   -0.7022    0.0629 C   0  0  0  0  0  0  0  0  0  0  0  0
   -1.3854   -0.5485   -0.0654 C   0  0  0  0  0  0  0  0  0  0  0  0
   -1.9386    0.7503   -0.0500 C   0  0  0  0  0  0  0  0  0  0  0  0
   -4.0269    1.1227   -0.0952 I   0  0  0  0  0  0  0  0  0  0  0  0
   -1.0986    1.8609    0.0760 C   0  0  0  0  0  0  0  0  0  0  0  0
    0.2825    1.6985    0.1879 C   0  0  0  0  0  0  0  0  0  0  0  0
   -2.2149   -1.7141   -0.2031 N   0  0  0  0  0  4  0  0  0  0  0  0
   -3.2484   -1.7291   -1.1104 O   0  0  0  0  0  1  0  0  0  0  0  0
   -1.8926   -2.7819    0.3578 O   0  0  0  0  0  0  0  0  0  0  0  0
    2.5104   -1.6216   -0.7575 H   0  0  0  0  0  0  0  0  0  0  0  0
    4.0217   -1.0187   -0.0120 H   0  0  0  0  0  0  0  0  0  0  0  0
    0.4226   -1.7007    0.0806 H   0  0  0  0  0  0  0  0  0  0  0  0
   -1.5189    2.8583    0.0988 H   0  0  0  0  0  0  0  0  0  0  0  0
    0.9059    2.5794    0.2803 H   0  0  0  0  0  0  0  0  0  0  0  0
  1  2  1  0
  2  3  2  0
  2  4  1  0
  4  5  2  0
  5  6  1  0
  6  7  2  0
  7  8  1  0
  7  9  1  0
  9 10  2  0
  6 11  1  0
 11 12  1  0
 11 13  2  0
 10  4  1  0
  1 14  1  0
  1 15  1  0
  5 16  1  0
  9 17  1  0
 10 18  1  0
M  CHG  2  11   1  12  -1
M  END
$$$$
