
     RDKit          3D

 44 46  0  0  0  0  0  0  0  0999 V2000
   -5.7684    0.8235    1.7805 C   0  0  0  0  0  0  0  0  0  0  0  0
   -5.9235   -0.1858    0.6360 C   0  0  0  0  0  0  0  0  0  0  0  0
   -5.7331   -1.6192    1.1474 C   0  0  0  0  0  0  0  0  0  0  0  0
   -4.9536    0.1263   -0.5143 C   0  0  0  0  0  0  0  0  0  0  0  0
   -3.6019    0.0301   -0.0675 O   0  0  0  0  0  0  0  0  0  0  0  0
   -2.4742    0.2555   -0.8721 C   0  0  0  0  0  0  0  0  0  0  0  0
   -1.1941    0.1225   -0.2976 C   0  0  0  0  0  0  0  0  0  0  0  0
   -1.0660   -0.2689    1.0368 O   0  0  0  0  0  0  0  0  0  0  0  0
   -0.0392    0.3567   -1.0772 C   0  0  0  0  0  0  0  0  0  0  0  0
   -0.1826    0.6817   -2.4357 C   0  0  0  0  0  0  0  0  0  0  0  0
   -1.4490    0.8072   -3.0049 C   0  0  0  0  0  0  0  0  0  0  0  0
   -2.5901    0.6028   -2.2307 C   0  0  0  0  0  0  0  0  0  0  0  0
    1.3237    0.2484   -0.5067 C   0  0  0  0  0  0  0  0  0  0  0  0
    2.3960   -0.1532   -1.2428 N   0  0  0  0  0  0  0  0  0  0  0  0
    3.4114   -0.0739   -0.3652 C   0  0  0  0  0  0  0  0  0  0  0  0
    4.7534   -0.3671   -0.5880 C   0  0  0  0  0  0  0  0  0  0  0  0
    5.6604   -0.1986    0.4864 C   0  0  0  0  0  0  0  0  0  0  0  0
    7.0976   -0.5111    0.2974 C   0  0  0  0  0  0  0  0  0  0  0  0
    7.8217   -1.2127    1.3106 N   0  0  0  0  0  0  0  0  0  0  0  0
    7.7136   -0.1650   -0.7900 N   0  0  0  0  0  0  0  0  0  0  0  0
    5.1792    0.2691    1.7429 C   0  0  0  0  0  0  0  0  0  0  0  0
    6.0332    0.4839    2.7753 F   0  0  0  0  0  0  0  0  0  0  0  0
    3.8131    0.5572    1.9237 C   0  0  0  0  0  0  0  0  0  0  0  0
    2.9623    0.3655    0.8405 C   0  0  0  0  0  0  0  0  0  0  0  0
    1.6431    0.5804    0.7717 N   0  0  0  0  0  0  0  0  0  0  0  0
   -4.7543    0.7594    2.2302 H   0  0  0  0  0  0  0  0  0  0  0  0
   -5.9300    1.8564    1.4048 H   0  0  0  0  0  0  0  0  0  0  0  0
   -6.5221    0.6219    2.5713 H   0  0  0  0  0  0  0  0  0  0  0  0
   -6.9599   -0.0984    0.2410 H   0  0  0  0  0  0  0  0  0  0  0  0
   -5.8693   -2.3437    0.3164 H   0  0  0  0  0  0  0  0  0  0  0  0
   -4.7179   -1.7541    1.5788 H   0  0  0  0  0  0  0  0  0  0  0  0
   -6.4864   -1.8475    1.9314 H   0  0  0  0  0  0  0  0  0  0  0  0
   -5.1247   -0.5932   -1.3449 H   0  0  0  0  0  0  0  0  0  0  0  0
   -5.1499    1.1537   -0.8923 H   0  0  0  0  0  0  0  0  0  0  0  0
   -1.8663   -0.4558    1.6288 H   0  0  0  0  0  0  0  0  0  0  0  0
    0.6884    0.8567   -3.0554 H   0  0  0  0  0  0  0  0  0  0  0  0
   -1.5465    1.0684   -4.0509 H   0  0  0  0  0  0  0  0  0  0  0  0
   -3.5579    0.7110   -2.7004 H   0  0  0  0  0  0  0  0  0  0  0  0
    5.0787   -0.7282   -1.5556 H   0  0  0  0  0  0  0  0  0  0  0  0
    7.3350   -1.6054    2.1465 H   0  0  0  0  0  0  0  0  0  0  0  0
    8.8432   -1.3980    1.1967 H   0  0  0  0  0  0  0  0  0  0  0  0
    7.2419    0.3563   -1.5624 H   0  0  0  0  0  0  0  0  0  0  0  0
    3.4383    0.9217    2.8714 H   0  0  0  0  0  0  0  0  0  0  0  0
    1.0269    0.9635    1.5222 H   0  0  0  0  0  0  0  0  0  0  0  0
  1  2  1  0
  2  3  1  0
  2  4  1  0
  4  5  1  0
  5  6  1  0
  6  7  2  0
  7  8  1  0
  7  9  1  0
  9 10  2  0
 10 11  1  0
 11 12  2  0
  9 13  1  0
 13 14  2  0
 14 15  1  0
 15 16  2  0
 16 17  1  0
 17 18  1  0
 18 19  1  0
 18 20  2  3
 17 21  2  0
 21 22  1  0
 21 23  1  0
 23 24  2  0
 24 25  1  0
 12  6  1  0
 25 13  1  0
 24 15  1  0
  1 26  1  0
  1 27  1  0
  1 28  1  0
  2 29  1  0
  3 30  1  0
  3 31  1  0
  3 32  1  0
  4 33  1  0
  4 34  1  0
  8 35  1  0
 10 36  1  0
 11 37  1  0
 12 38  1  0
 16 39  1  0
 19 40  1  0
 19 41  1  0
 20 42  1  0
 23 43  1  0
 25 44  1  0
M  END
$$$$
