
     RDKit          3D

 44 47  0  0  0  0  0  0  0  0999 V2000
   -0.6861    1.0983    0.4017 C   0  0  1  0  0  0  0  0  0  0  0  0
    0.2467   -0.0566    0.6991 C   0  0  0  0  0  0  0  0  0  0  0  0
    0.0424   -0.7448    1.7378 O   0  0  0  0  0  0  0  0  0  0  0  0
    1.4610   -0.3395   -0.1154 C   0  0  0  0  0  0  0  0  0  0  0  0
    2.5688   -0.9587    0.4946 C   0  0  0  0  0  0  0  0  0  0  0  0
    3.7321   -1.2348   -0.2391 C   0  0  0  0  0  0  0  0  0  0  0  0
    4.8380   -1.8445    0.3747 C   0  0  0  0  0  0  0  0  0  0  0  0
    5.9922   -2.1141   -0.3665 C   0  0  0  0  0  0  0  0  0  0  0  0
    6.0517   -1.7786   -1.7216 C   0  0  0  0  0  0  0  0  0  0  0  0
    4.9576   -1.1713   -2.3444 C   0  0  0  0  0  0  0  0  0  0  0  0
    3.7935   -0.8949   -1.6103 C   0  0  0  0  0  0  0  0  0  0  0  0
    2.6897   -0.2889   -2.2222 C   0  0  0  0  0  0  0  0  0  0  0  0
    1.5347   -0.0158   -1.4849 C   0  0  0  0  0  0  0  0  0  0  0  0
   -2.1110    0.7986    0.8827 C   0  0  0  0  0  0  0  0  0  0  0  0
   -2.4968    1.1304    2.1999 C   0  0  0  0  0  0  0  0  0  0  0  0
   -3.7947    0.9065    2.6524 C   0  0  0  0  0  0  0  0  0  0  0  0
   -4.7369    0.3149    1.8201 C   0  0  0  0  0  0  0  0  0  0  0  0
   -4.3776   -0.1015    0.5337 C   0  0  0  0  0  0  0  0  0  0  0  0
   -5.3269   -0.7466   -0.2752 C   0  0  0  0  0  0  0  0  0  0  0  0
   -4.9739   -1.2129   -1.5400 C   0  0  0  0  0  0  0  0  0  0  0  0
   -3.6705   -1.0528   -2.0041 C   0  0  0  0  0  0  0  0  0  0  0  0
   -2.7142   -0.4074   -1.2166 C   0  0  0  0  0  0  0  0  0  0  0  0
   -3.0518    0.1074    0.0579 C   0  0  0  0  0  0  0  0  0  0  0  0
    0.0309    2.6491    1.0693 P   0  0  0  0  0  5  0  0  0  0  0  0
   -1.1149    3.8932    0.9857 O   0  0  0  0  0  0  0  0  0  0  0  0
    0.5382    2.4303    2.6703 O   0  0  0  0  0  0  0  0  0  0  0  0
    1.2276    3.0324    0.2283 O   0  0  0  0  0  0  0  0  0  0  0  0
   -0.7382    1.3039   -0.6792 H   0  0  0  0  0  0  0  0  0  0  0  0
    2.5323   -1.2142    1.5477 H   0  0  0  0  0  0  0  0  0  0  0  0
    4.8100   -2.1118    1.4244 H   0  0  0  0  0  0  0  0  0  0  0  0
    6.8424   -2.5842    0.1106 H   0  0  0  0  0  0  0  0  0  0  0  0
    6.9479   -1.9899   -2.2907 H   0  0  0  0  0  0  0  0  0  0  0  0
    5.0211   -0.9182   -3.3961 H   0  0  0  0  0  0  0  0  0  0  0  0
    2.7168   -0.0309   -3.2744 H   0  0  0  0  0  0  0  0  0  0  0  0
    0.7015    0.4258   -2.0088 H   0  0  0  0  0  0  0  0  0  0  0  0
   -1.7984    1.5697    2.8945 H   0  0  0  0  0  0  0  0  0  0  0  0
   -4.0708    1.1925    3.6593 H   0  0  0  0  0  0  0  0  0  0  0  0
   -5.7416    0.1553    2.1938 H   0  0  0  0  0  0  0  0  0  0  0  0
   -6.3404   -0.9004    0.0765 H   0  0  0  0  0  0  0  0  0  0  0  0
   -5.7090   -1.7145   -2.1561 H   0  0  0  0  0  0  0  0  0  0  0  0
   -3.3960   -1.4379   -2.9779 H   0  0  0  0  0  0  0  0  0  0  0  0
   -1.7136   -0.3503   -1.6157 H   0  0  0  0  0  0  0  0  0  0  0  0
   -1.5700    3.8851    1.8649 H   0  0  0  0  0  0  0  0  0  0  0  0
    0.8560    3.3226    2.9592 H   0  0  0  0  0  0  0  0  0  0  0  0
  1  2  1  0
  2  3  2  0
  2  4  1  0
  4  5  2  0
  5  6  1  0
  6  7  2  0
  7  8  1  0
  8  9  2  0
  9 10  1  0
 10 11  2  0
 11 12  1  0
 12 13  2  0
  1 14  1  0
 14 15  2  0
 15 16  1  0
 16 17  2  0
 17 18  1  0
 18 19  2  0
 19 20  1  0
 20 21  2  0
 21 22  1  0
 22 23  2  0
  1 24  1  0
 24 25  1  0
 24 26  1  0
 24 27  2  0
 13  4  1  0
 23 14  1  0
 11  6  1  0
 23 18  1  0
  1 28  1  6
  5 29  1  0
  7 30  1  0
  8 31  1  0
  9 32  1  0
 10 33  1  0
 12 34  1  0
 13 35  1  0
 15 36  1  0
 16 37  1  0
 17 38  1  0
 19 39  1  0
 20 40  1  0
 21 41  1  0
 22 42  1  0
 25 43  1  0
 26 44  1  0
M  END
$$$$
