
     RDKit          3D

 21 21  0  0  0  0  0  0  0  0999 V2000
    1.9150   -1.0848   -0.3022 C   0  0  0  0  0  0  0  0  0  0  0  0
    1.4517    0.2801    0.2243 C   0  0  0  0  0  0  0  0  0  0  0  0
   -0.0904    0.4732    0.2573 C   0  0  0  0  0  0  0  0  0  0  0  0
   -0.4339    1.7960    0.9671 C   0  0  0  0  0  0  0  0  0  0  0  0
   -0.7238    0.4398   -1.1701 C   0  0  0  0  0  0  0  0  0  0  0  0
   -1.6221   -0.7519   -1.1322 C   0  0  0  0  0  0  0  0  0  0  0  0
   -2.2955   -1.1540   -2.1169 O   0  0  0  0  0  0  0  0  0  0  0  0
   -1.6599   -1.3891    0.1279 N   0  0  0  0  0  0  0  0  0  0  0  0
   -0.7741   -0.6695    0.9606 C   0  0  0  0  0  0  0  0  0  0  0  0
   -0.5793   -0.9774    2.1668 O   0  0  0  0  0  0  0  0  0  0  0  0
    1.5475   -1.2684   -1.3320 H   0  0  0  0  0  0  0  0  0  0  0  0
    3.0249   -1.1115   -0.3222 H   0  0  0  0  0  0  0  0  0  0  0  0
    1.5643   -1.9022    0.3618 H   0  0  0  0  0  0  0  0  0  0  0  0
    1.8618    0.4030    1.2511 H   0  0  0  0  0  0  0  0  0  0  0  0
    1.9055    1.0750   -0.4075 H   0  0  0  0  0  0  0  0  0  0  0  0
   -0.0332    1.8009    2.0037 H   0  0  0  0  0  0  0  0  0  0  0  0
    0.0069    2.6541    0.4155 H   0  0  0  0  0  0  0  0  0  0  0  0
   -1.5353    1.9399    1.0198 H   0  0  0  0  0  0  0  0  0  0  0  0
    0.0290    0.3295   -1.9785 H   0  0  0  0  0  0  0  0  0  0  0  0
   -1.3342    1.3443   -1.3842 H   0  0  0  0  0  0  0  0  0  0  0  0
   -2.2252   -2.2268    0.3899 H   0  0  0  0  0  0  0  0  0  0  0  0
  1  2  1  0
  2  3  1  0
  3  4  1  0
  3  5  1  0
  5  6  1  0
  6  7  2  0
  6  8  1  0
  8  9  1  0
  9 10  2  0
  9  3  1  0
  1 11  1  0
  1 12  1  0
  1 13  1  0
  2 14  1  0
  2 15  1  0
  4 16  1  0
  4 17  1  0
  4 18  1  0
  5 19  1  0
  5 20  1  0
  8 21  1  0
M  END
$$$$
