
     RDKit          3D

 43 45  0  0  0  0  0  0  0  0999 V2000
    7.8655    0.7902   -0.7130 C   0  0  0  0  0  0  0  0  0  0  0  0
    6.5065    0.1554   -0.7042 C   0  0  0  0  0  0  0  0  0  0  0  0
    5.9844   -0.3814    0.4827 C   0  0  0  0  0  0  0  0  0  0  0  0
    4.7024   -0.9392    0.4998 C   0  0  0  0  0  0  0  0  0  0  0  0
    3.9263   -0.9597   -0.6668 C   0  0  0  0  0  0  0  0  0  0  0  0
    4.4355   -0.4002   -1.8464 C   0  0  0  0  0  0  0  0  0  0  0  0
    5.7174    0.1578   -1.8646 C   0  0  0  0  0  0  0  0  0  0  0  0
    2.3043   -1.6435   -0.6394 S   0  0  0  0  0  6  0  0  0  0  0  0
    2.2421   -2.7481    0.3784 O   0  0  0  0  0  0  0  0  0  0  0  0
    1.9723   -2.2033   -1.9945 O   0  0  0  0  0  0  0  0  0  0  0  0
    1.1709   -0.4015   -0.2254 N   0  0  0  0  0  0  0  0  0  0  0  0
   -0.2319   -0.6645   -0.1264 C   0  0  0  0  0  0  0  0  0  0  0  0
   -0.6769   -1.8243   -0.3421 O   0  0  0  0  0  0  0  0  0  0  0  0
   -1.1322    0.3908    0.2183 N   0  0  0  0  0  0  0  0  0  0  0  0
   -2.5154    0.1377    0.3175 N   0  0  0  0  0  0  0  0  0  0  0  0
   -3.2467    1.0127   -0.5980 C   0  0  0  0  0  0  0  0  0  0  0  0
   -4.6302    1.2354    0.0214 C   0  0  0  0  0  0  0  0  0  0  0  0
   -5.6954    0.2782   -0.5295 C   0  0  0  0  0  0  0  0  0  0  0  0
   -5.7720   -0.8722    0.4557 C   0  0  0  0  0  0  0  0  0  0  0  0
   -5.4306   -0.2567    1.7990 C   0  0  0  0  0  0  0  0  0  0  0  0
   -4.4619    0.8953    1.5015 C   0  0  0  0  0  0  0  0  0  0  0  0
   -2.9908    0.4955    1.6534 C   0  0  0  0  0  0  0  0  0  0  0  0
    7.7721    1.8658   -0.4554 H   0  0  0  0  0  0  0  0  0  0  0  0
    8.5329    0.2971    0.0256 H   0  0  0  0  0  0  0  0  0  0  0  0
    8.3349    0.6968   -1.7154 H   0  0  0  0  0  0  0  0  0  0  0  0
    6.5686   -0.3668    1.3945 H   0  0  0  0  0  0  0  0  0  0  0  0
    4.3140   -1.3483    1.4237 H   0  0  0  0  0  0  0  0  0  0  0  0
    3.8392   -0.3895   -2.7499 H   0  0  0  0  0  0  0  0  0  0  0  0
    6.0934    0.5928   -2.7825 H   0  0  0  0  0  0  0  0  0  0  0  0
    1.5298    0.5623   -0.0449 H   0  0  0  0  0  0  0  0  0  0  0  0
   -0.7488    1.3487    0.3947 H   0  0  0  0  0  0  0  0  0  0  0  0
   -2.7418    2.0019   -0.6976 H   0  0  0  0  0  0  0  0  0  0  0  0
   -3.2948    0.5507   -1.6071 H   0  0  0  0  0  0  0  0  0  0  0  0
   -4.9519    2.2918   -0.1193 H   0  0  0  0  0  0  0  0  0  0  0  0
   -6.6773    0.8011   -0.5494 H   0  0  0  0  0  0  0  0  0  0  0  0
   -5.4770   -0.0847   -1.5569 H   0  0  0  0  0  0  0  0  0  0  0  0
   -6.7821   -1.3360    0.4640 H   0  0  0  0  0  0  0  0  0  0  0  0
   -5.0126   -1.6415    0.1926 H   0  0  0  0  0  0  0  0  0  0  0  0
   -6.3588    0.1576    2.2515 H   0  0  0  0  0  0  0  0  0  0  0  0
   -5.0161   -1.0159    2.4967 H   0  0  0  0  0  0  0  0  0  0  0  0
   -4.6940    1.7707    2.1490 H   0  0  0  0  0  0  0  0  0  0  0  0
   -2.8449   -0.3581    2.3490 H   0  0  0  0  0  0  0  0  0  0  0  0
   -2.4284    1.3686    2.0593 H   0  0  0  0  0  0  0  0  0  0  0  0
  1  2  1  0
  2  3  2  0
  3  4  1  0
  4  5  2  0
  5  6  1  0
  6  7  2  0
  5  8  1  0
  8  9  2  0
  8 10  2  0
  8 11  1  0
 11 12  1  0
 12 13  2  0
 12 14  1  0
 14 15  1  0
 15 16  1  0
 16 17  1  0
 17 18  1  0
 18 19  1  0
 19 20  1  0
 20 21  1  0
 21 22  1  0
  7  2  1  0
 22 15  1  0
 21 17  1  0
  1 23  1  0
  1 24  1  0
  1 25  1  0
  3 26  1  0
  4 27  1  0
  6 28  1  0
  7 29  1  0
 11 30  1  0
 14 31  1  0
 16 32  1  0
 16 33  1  0
 17 34  1  0
 18 35  1  0
 18 36  1  0
 19 37  1  0
 19 38  1  0
 20 39  1  0
 20 40  1  0
 21 41  1  0
 22 42  1  0
 22 43  1  0
M  END
$$$$
