
     RDKit          3D

 24 24  0  0  0  0  0  0  0  0999 V2000
    1.8420    0.3376    1.7415 O   0  0  0  0  0  0  0  0  0  0  0  0
    2.7381    0.4277    0.6682 C   0  0  0  0  0  0  0  0  0  0  0  0
    1.9742    0.4157   -0.6665 C   0  0  0  0  0  0  0  0  0  0  0  0
    2.8395    0.7519   -1.7217 O   0  0  0  0  0  0  0  0  0  0  0  0
    1.3058   -0.9458   -0.9459 C   0  0  0  0  0  0  0  0  0  0  0  0
    0.2914   -1.2389    0.0164 O   0  0  0  0  0  0  0  0  0  0  0  0
   -0.9803   -0.6450    0.0710 C   0  0  0  0  0  0  0  0  0  0  0  0
   -1.4539    0.2396   -0.9192 C   0  0  0  0  0  0  0  0  0  0  0  0
   -2.7305    0.8003   -0.8100 C   0  0  0  0  0  0  0  0  0  0  0  0
   -3.5458    0.4842    0.2809 C   0  0  0  0  0  0  0  0  0  0  0  0
   -5.1464    1.1891    0.4150 Cl  0  0  0  0  0  0  0  0  0  0  0  0
   -3.0836   -0.3957    1.2638 C   0  0  0  0  0  0  0  0  0  0  0  0
   -1.8078   -0.9575    1.1571 C   0  0  0  0  0  0  0  0  0  0  0  0
    2.3965    0.3393    2.5644 H   0  0  0  0  0  0  0  0  0  0  0  0
    3.4594   -0.4198    0.7028 H   0  0  0  0  0  0  0  0  0  0  0  0
    3.3093    1.3796    0.7484 H   0  0  0  0  0  0  0  0  0  0  0  0
    1.1903    1.2009   -0.6198 H   0  0  0  0  0  0  0  0  0  0  0  0
    3.5501    0.0587   -1.7599 H   0  0  0  0  0  0  0  0  0  0  0  0
    0.8820   -0.9729   -1.9723 H   0  0  0  0  0  0  0  0  0  0  0  0
    2.0738   -1.7470   -0.8967 H   0  0  0  0  0  0  0  0  0  0  0  0
   -0.8501    0.5006   -1.7764 H   0  0  0  0  0  0  0  0  0  0  0  0
   -3.0850    1.4796   -1.5749 H   0  0  0  0  0  0  0  0  0  0  0  0
   -3.7108   -0.6451    2.1102 H   0  0  0  0  0  0  0  0  0  0  0  0
   -1.4582   -1.6372    1.9238 H   0  0  0  0  0  0  0  0  0  0  0  0
  1  2  1  0
  2  3  1  0
  3  4  1  0
  3  5  1  0
  5  6  1  0
  6  7  1  0
  7  8  2  0
  8  9  1  0
  9 10  2  0
 10 11  1  0
 10 12  1  0
 12 13  2  0
 13  7  1  0
  1 14  1  0
  2 15  1  0
  2 16  1  0
  3 17  1  0
  4 18  1  0
  5 19  1  0
  5 20  1  0
  8 21  1  0
  9 22  1  0
 12 23  1  0
 13 24  1  0
M  END
$$$$
