
     RDKit          3D

 24 24  0  0  0  0  0  0  0  0999 V2000
    1.1589   -0.2656   -0.7234 C   0  0  1  0  0  0  0  0  0  0  0  0
    1.9354   -1.3498    0.0450 C   0  0  0  0  0  0  0  0  0  0  0  0
    0.0345   -0.7895   -1.4187 O   0  0  0  0  0  0  0  0  0  0  0  0
   -1.0280   -1.1465   -0.5481 C   0  0  2  0  0  0  0  0  0  0  0  0
   -2.0674   -1.7037   -1.3062 O   0  0  0  0  0  0  0  0  0  0  0  0
   -1.5672    0.0820    0.1985 C   0  0  2  0  0  0  0  0  0  0  0  0
   -2.0973    0.9975   -0.7266 O   0  0  0  0  0  0  0  0  0  0  0  0
   -0.4387    0.7387    1.0171 C   0  0  1  0  0  0  0  0  0  0  0  0
   -0.0942   -0.0745    2.1099 O   0  0  0  0  0  0  0  0  0  0  0  0
    0.8085    0.9827    0.1370 C   0  0  2  0  0  0  0  0  0  0  0  0
    0.5821    2.1378   -0.7390 N   0  0  0  0  0  0  0  0  0  0  0  0
    1.8707    0.0738   -1.5075 H   0  0  0  0  0  0  0  0  0  0  0  0
    2.9183   -0.9478    0.3711 H   0  0  0  0  0  0  0  0  0  0  0  0
    1.3969   -1.7026    0.9452 H   0  0  0  0  0  0  0  0  0  0  0  0
    2.1197   -2.2196   -0.6204 H   0  0  0  0  0  0  0  0  0  0  0  0
   -0.7014   -1.9115    0.1922 H   0  0  0  0  0  0  0  0  0  0  0  0
   -1.7127   -2.5462   -1.6938 H   0  0  0  0  0  0  0  0  0  0  0  0
   -2.3760   -0.2549    0.8892 H   0  0  0  0  0  0  0  0  0  0  0  0
   -2.6652    1.6288   -0.2121 H   0  0  0  0  0  0  0  0  0  0  0  0
   -0.7986    1.7189    1.4103 H   0  0  0  0  0  0  0  0  0  0  0  0
   -0.8252    0.0104    2.7766 H   0  0  0  0  0  0  0  0  0  0  0  0
    1.6710    1.2183    0.8028 H   0  0  0  0  0  0  0  0  0  0  0  0
    1.4680    2.3433   -1.2559 H   0  0  0  0  0  0  0  0  0  0  0  0
    0.4078    2.9798   -0.1431 H   0  0  0  0  0  0  0  0  0  0  0  0
  1  2  1  0
  1  3  1  0
  3  4  1  0
  4  5  1  0
  4  6  1  0
  6  7  1  0
  6  8  1  0
  8  9  1  0
  8 10  1  0
 10 11  1  0
 10  1  1  0
  1 12  1  6
  2 13  1  0
  2 14  1  0
  2 15  1  0
  4 16  1  1
  5 17  1  0
  6 18  1  1
  7 19  1  0
  8 20  1  1
  9 21  1  0
 10 22  1  1
 11 23  1  0
 11 24  1  0
M  END
$$$$
