
     RDKit          3D

 53 52  0  0  0  0  0  0  0  0999 V2000
    4.1400    0.2952    1.5000 C   0  0  2  0  0  0  0  0  0  0  0  0
    4.8370    1.4614    1.1317 O   0  0  0  0  0  0  0  0  0  0  0  0
    5.1123   -0.8758    1.7546 C   0  0  0  0  0  0  0  0  0  0  0  0
    6.0208   -1.2000    0.5559 C   0  0  0  0  0  0  0  0  0  0  0  0
    6.8742   -2.4403    0.8369 C   0  0  0  0  0  0  0  0  0  0  0  0
    7.7683   -2.7356   -0.3255 C   0  0  0  0  0  0  0  0  0  0  0  0
    9.0235   -2.1406   -0.4029 O   0  0  0  0  0  0  0  0  0  0  0  0
    7.3701   -3.4899   -1.2531 O   0  0  0  0  0  0  0  0  0  0  0  0
    3.0645   -0.0526    0.4953 C   0  0  0  0  0  0  0  0  0  0  0  0
    2.0885    0.8117    0.2064 C   0  0  0  0  0  0  0  0  0  0  0  0
    1.0337    0.4644   -0.7672 C   0  0  0  0  0  0  0  0  0  0  0  0
    0.0222    1.2805   -1.0880 C   0  0  0  0  0  0  0  0  0  0  0  0
   -0.1658    2.6474   -0.4866 C   0  0  0  0  0  0  0  0  0  0  0  0
   -1.4043    3.3085   -1.0342 C   0  0  0  0  0  0  0  0  0  0  0  0
   -2.6407    3.1615   -0.5207 C   0  0  0  0  0  0  0  0  0  0  0  0
   -2.9703    2.3672    0.7196 C   0  0  0  0  0  0  0  0  0  0  0  0
   -2.7482    0.8890    0.5235 C   0  0  0  0  0  0  0  0  0  0  0  0
   -3.5414    0.0849   -0.2088 C   0  0  0  0  0  0  0  0  0  0  0  0
   -4.8130    0.5230   -0.8864 C   0  0  0  0  0  0  0  0  0  0  0  0
   -5.9700    0.4314    0.0772 C   0  0  0  0  0  0  0  0  0  0  0  0
   -6.9995   -0.4319   -0.0193 C   0  0  0  0  0  0  0  0  0  0  0  0
   -7.1812   -1.4504   -1.1161 C   0  0  0  0  0  0  0  0  0  0  0  0
   -6.2727   -2.6601   -0.9145 C   0  0  0  0  0  0  0  0  0  0  0  0
    3.6290    0.5033    2.4654 H   0  0  0  0  0  0  0  0  0  0  0  0
    5.0880    1.3810    0.1744 H   0  0  0  0  0  0  0  0  0  0  0  0
    5.7519   -0.6184    2.6273 H   0  0  0  0  0  0  0  0  0  0  0  0
    4.5223   -1.7778    2.0311 H   0  0  0  0  0  0  0  0  0  0  0  0
    5.4049   -1.3815   -0.3512 H   0  0  0  0  0  0  0  0  0  0  0  0
    6.6950   -0.3380    0.3587 H   0  0  0  0  0  0  0  0  0  0  0  0
    7.4994   -2.2711    1.7404 H   0  0  0  0  0  0  0  0  0  0  0  0
    6.2171   -3.3168    1.0285 H   0  0  0  0  0  0  0  0  0  0  0  0
    9.6343   -2.3172   -1.1915 H   0  0  0  0  0  0  0  0  0  0  0  0
    3.0740   -1.0265    0.0188 H   0  0  0  0  0  0  0  0  0  0  0  0
    2.0807    1.7773    0.6968 H   0  0  0  0  0  0  0  0  0  0  0  0
    1.0740   -0.5044   -1.2520 H   0  0  0  0  0  0  0  0  0  0  0  0
   -0.7008    0.9247   -1.8141 H   0  0  0  0  0  0  0  0  0  0  0  0
   -0.2104    2.5832    0.6206 H   0  0  0  0  0  0  0  0  0  0  0  0
    0.7095    3.2770   -0.7545 H   0  0  0  0  0  0  0  0  0  0  0  0
   -1.2913    3.9216   -1.9239 H   0  0  0  0  0  0  0  0  0  0  0  0
   -3.4572    3.6851   -1.0098 H   0  0  0  0  0  0  0  0  0  0  0  0
   -2.3441    2.7272    1.5628 H   0  0  0  0  0  0  0  0  0  0  0  0
   -4.0252    2.5528    1.0097 H   0  0  0  0  0  0  0  0  0  0  0  0
   -1.8834    0.4451    1.0084 H   0  0  0  0  0  0  0  0  0  0  0  0
   -3.2738   -0.9653   -0.2770 H   0  0  0  0  0  0  0  0  0  0  0  0
   -4.9632   -0.1083   -1.7836 H   0  0  0  0  0  0  0  0  0  0  0  0
   -4.7327    1.5635   -1.2585 H   0  0  0  0  0  0  0  0  0  0  0  0
   -5.9685    1.1157    0.9203 H   0  0  0  0  0  0  0  0  0  0  0  0
   -7.7785   -0.3742    0.7359 H   0  0  0  0  0  0  0  0  0  0  0  0
   -7.0161   -0.9941   -2.1148 H   0  0  0  0  0  0  0  0  0  0  0  0
   -8.2343   -1.8044   -1.0928 H   0  0  0  0  0  0  0  0  0  0  0  0
   -6.4772   -3.4120   -1.7054 H   0  0  0  0  0  0  0  0  0  0  0  0
   -5.2045   -2.3706   -0.9758 H   0  0  0  0  0  0  0  0  0  0  0  0
   -6.4669   -3.1254    0.0756 H   0  0  0  0  0  0  0  0  0  0  0  0
  1  2  1  0
  1  3  1  0
  3  4  1  0
  4  5  1  0
  5  6  1  0
  6  7  1  0
  6  8  2  0
  1  9  1  0
  9 10  2  0
 10 11  1  0
 11 12  2  0
 12 13  1  0
 13 14  1  0
 14 15  2  0
 15 16  1  0
 16 17  1  0
 17 18  2  0
 18 19  1  0
 19 20  1  0
 20 21  2  0
 21 22  1  0
 22 23  1  0
  1 24  1  1
  2 25  1  0
  3 26  1  0
  3 27  1  0
  4 28  1  0
  4 29  1  0
  5 30  1  0
  5 31  1  0
  7 32  1  0
  9 33  1  0
 10 34  1  0
 11 35  1  0
 12 36  1  0
 13 37  1  0
 13 38  1  0
 14 39  1  0
 15 40  1  0
 16 41  1  0
 16 42  1  0
 17 43  1  0
 18 44  1  0
 19 45  1  0
 19 46  1  0
 20 47  1  0
 21 48  1  0
 22 49  1  0
 22 50  1  0
 23 51  1  0
 23 52  1  0
 23 53  1  0
M  END
$$$$
