
     RDKit          3D

 40 42  0  0  0  0  0  0  0  0999 V2000
    5.4326    1.0067   -1.1823 N   0  0  0  0  0  0  0  0  0  0  0  0
    4.6680    0.7007   -2.7027 S   0  0  0  0  0  6  0  0  0  0  0  0
    5.7180    0.5526   -3.7673 O   0  0  0  0  0  0  0  0  0  0  0  0
    3.7654    1.8493   -3.0561 O   0  0  0  0  0  0  0  0  0  0  0  0
    3.7569   -0.7446   -2.6120 O   0  0  0  0  0  0  0  0  0  0  0  0
    2.6924   -0.9669   -1.7258 C   0  0  0  0  0  0  0  0  0  0  0  0
    2.2571    0.0091   -0.8099 C   0  0  0  0  0  0  0  0  0  0  0  0
    1.1900   -0.2560    0.0519 C   0  0  0  0  0  0  0  0  0  0  0  0
    0.5308   -1.4937    0.0098 C   0  0  0  0  0  0  0  0  0  0  0  0
   -0.6292   -1.7656    0.9339 C   0  0  0  0  0  0  0  0  0  0  0  0
   -1.7895   -0.9380    0.5683 N   0  0  0  0  0  0  0  0  0  0  0  0
   -2.7279   -1.3843   -0.3922 N   0  0  0  0  0  0  0  0  0  0  0  0
   -2.6478   -2.4541   -1.2049 C   0  0  0  0  0  0  0  0  0  0  0  0
   -3.7638   -2.5710   -1.9494 N   0  0  0  0  0  0  0  0  0  0  0  0
   -4.5704   -1.5750   -1.6079 N   0  0  0  0  0  0  0  0  0  0  0  0
   -3.9382   -0.8591   -0.6590 C   0  0  0  0  0  0  0  0  0  0  0  0
   -1.9007    0.3900    1.1131 C   0  0  0  0  0  0  0  0  0  0  0  0
   -1.9346    1.5009    0.2559 C   0  0  0  0  0  0  0  0  0  0  0  0
   -2.0272    2.7937    0.7794 C   0  0  0  0  0  0  0  0  0  0  0  0
   -2.0879    2.9870    2.1650 C   0  0  0  0  0  0  0  0  0  0  0  0
   -2.0564    1.8817    3.0247 C   0  0  0  0  0  0  0  0  0  0  0  0
   -1.9628    0.5886    2.5013 C   0  0  0  0  0  0  0  0  0  0  0  0
   -2.1828    4.3181    2.7043 C   0  0  0  0  0  0  0  0  0  0  0  0
   -2.2591    5.3884    3.1379 N   0  0  0  0  0  0  0  0  0  0  0  0
    0.9747   -2.4732   -0.8915 C   0  0  0  0  0  0  0  0  0  0  0  0
    2.0431   -2.2107   -1.7557 C   0  0  0  0  0  0  0  0  0  0  0  0
    2.6081   -3.5735   -2.9751 Br  0  0  0  0  0  0  0  0  0  0  0  0
    6.0454    0.1855   -0.9794 H   0  0  0  0  0  0  0  0  0  0  0  0
    6.0623    1.8293   -1.3161 H   0  0  0  0  0  0  0  0  0  0  0  0
    2.7331    0.9765   -0.7502 H   0  0  0  0  0  0  0  0  0  0  0  0
    0.8814    0.5063    0.7557 H   0  0  0  0  0  0  0  0  0  0  0  0
   -0.9118   -2.8400    0.9221 H   0  0  0  0  0  0  0  0  0  0  0  0
   -0.3104   -1.5512    1.9763 H   0  0  0  0  0  0  0  0  0  0  0  0
   -1.8145   -3.1369   -1.2626 H   0  0  0  0  0  0  0  0  0  0  0  0
   -4.3617    0.0091   -0.1715 H   0  0  0  0  0  0  0  0  0  0  0  0
   -1.8769    1.3622   -0.8164 H   0  0  0  0  0  0  0  0  0  0  0  0
   -2.0486    3.6413    0.1049 H   0  0  0  0  0  0  0  0  0  0  0  0
   -2.1058    2.0195    4.0982 H   0  0  0  0  0  0  0  0  0  0  0  0
   -1.9507   -0.2578    3.1760 H   0  0  0  0  0  0  0  0  0  0  0  0
    0.4995   -3.4450   -0.9210 H   0  0  0  0  0  0  0  0  0  0  0  0
  1  2  1  0
  2  3  2  0
  2  4  2  0
  2  5  1  0
  5  6  1  0
  6  7  2  0
  7  8  1  0
  8  9  2  0
  9 10  1  0
 10 11  1  0
 11 12  1  0
 12 13  1  0
 13 14  2  0
 14 15  1  0
 15 16  2  0
 11 17  1  0
 17 18  2  0
 18 19  1  0
 19 20  2  0
 20 21  1  0
 21 22  2  0
 20 23  1  0
 23 24  3  0
  9 25  1  0
 25 26  2  0
 26 27  1  0
 26  6  1  0
 16 12  1  0
 22 17  1  0
  1 28  1  0
  1 29  1  0
  7 30  1  0
  8 31  1  0
 10 32  1  0
 10 33  1  0
 13 34  1  0
 16 35  1  0
 18 36  1  0
 19 37  1  0
 21 38  1  0
 22 39  1  0
 25 40  1  0
M  END
$$$$
