
     RDKit          3D

 40 41  0  0  0  0  0  0  0  0999 V2000
    1.1401   -1.1039    0.3383 C   0  0  2  0  0  0  0  0  0  0  0  0
   -0.0215   -0.3834   -0.3878 C   0  0  0  0  0  0  0  0  0  0  0  0
   -1.1145   -1.3013   -0.8049 N   0  0  0  0  0  0  0  0  0  0  0  0
   -2.3452   -1.1372   -0.0007 C   0  0  0  0  0  0  0  0  0  0  0  0
   -3.0756    0.1124   -0.4170 C   0  0  0  0  0  0  0  0  0  0  0  0
   -3.1832    1.2061    0.4587 C   0  0  0  0  0  0  0  0  0  0  0  0
   -3.8521    2.3665    0.0568 C   0  0  0  0  0  0  0  0  0  0  0  0
   -4.4166    2.4439   -1.2198 C   0  0  0  0  0  0  0  0  0  0  0  0
   -5.0641    3.5701   -1.6077 F   0  0  0  0  0  0  0  0  0  0  0  0
   -4.3120    1.3603   -2.0968 C   0  0  0  0  0  0  0  0  0  0  0  0
   -3.6436    0.1984   -1.6987 C   0  0  0  0  0  0  0  0  0  0  0  0
   -0.6802   -2.7106   -0.8731 C   0  0  0  0  0  0  0  0  0  0  0  0
   -0.0935   -3.2065    0.4678 C   0  0  0  0  0  0  0  0  0  0  0  0
    0.6235   -2.1600    1.2205 N   0  0  0  0  0  0  0  0  0  0  0  0
    1.9752   -0.1178    1.1145 C   0  0  0  0  0  0  0  0  0  0  0  0
    1.6550    0.1871    2.2964 O   0  0  0  0  0  0  0  0  0  0  0  0
    3.0941    0.5225    0.4872 N   0  0  0  0  0  0  0  0  0  0  0  0
    3.9148    1.4985    1.2052 C   0  0  0  0  0  0  0  0  0  0  0  0
    5.0563    2.0203    0.3318 C   0  0  0  0  0  0  0  0  0  0  0  0
    6.2561    0.6975   -0.0245 S   0  0  0  0  0  0  0  0  0  0  0  0
    1.8028   -1.5756   -0.4227 H   0  0  0  0  0  0  0  0  0  0  0  0
   -0.4107    0.4374    0.2563 H   0  0  0  0  0  0  0  0  0  0  0  0
    0.3850    0.1088   -1.2972 H   0  0  0  0  0  0  0  0  0  0  0  0
   -3.0389   -1.9923   -0.1616 H   0  0  0  0  0  0  0  0  0  0  0  0
   -2.1125   -1.1193    1.0862 H   0  0  0  0  0  0  0  0  0  0  0  0
   -2.7476    1.1629    1.4493 H   0  0  0  0  0  0  0  0  0  0  0  0
   -3.9312    3.2059    0.7355 H   0  0  0  0  0  0  0  0  0  0  0  0
   -4.7475    1.4200   -3.0860 H   0  0  0  0  0  0  0  0  0  0  0  0
   -3.5663   -0.6336   -2.3879 H   0  0  0  0  0  0  0  0  0  0  0  0
   -1.5196   -3.3687   -1.1879 H   0  0  0  0  0  0  0  0  0  0  0  0
    0.0928   -2.8065   -1.6671 H   0  0  0  0  0  0  0  0  0  0  0  0
    0.6051   -4.0465    0.2668 H   0  0  0  0  0  0  0  0  0  0  0  0
   -0.9173   -3.6140    1.0951 H   0  0  0  0  0  0  0  0  0  0  0  0
   -0.0347   -1.7368    1.9164 H   0  0  0  0  0  0  0  0  0  0  0  0
    3.3120    0.2885   -0.5083 H   0  0  0  0  0  0  0  0  0  0  0  0
    4.3340    1.0318    2.1230 H   0  0  0  0  0  0  0  0  0  0  0  0
    3.2764    2.3561    1.5089 H   0  0  0  0  0  0  0  0  0  0  0  0
    5.5809    2.8396    0.8675 H   0  0  0  0  0  0  0  0  0  0  0  0
    4.6534    2.4244   -0.6215 H   0  0  0  0  0  0  0  0  0  0  0  0
    7.0710    1.5546   -0.7881 H   0  0  0  0  0  0  0  0  0  0  0  0
  1  2  1  0
  2  3  1  0
  3  4  1  0
  4  5  1  0
  5  6  2  0
  6  7  1  0
  7  8  2  0
  8  9  1  0
  8 10  1  0
 10 11  2  0
  3 12  1  0
 12 13  1  0
 13 14  1  0
  1 15  1  0
 15 16  2  0
 15 17  1  0
 17 18  1  0
 18 19  1  0
 19 20  1  0
 14  1  1  0
 11  5  1  0
  1 21  1  6
  2 22  1  0
  2 23  1  0
  4 24  1  0
  4 25  1  0
  6 26  1  0
  7 27  1  0
 10 28  1  0
 11 29  1  0
 12 30  1  0
 12 31  1  0
 13 32  1  0
 13 33  1  0
 14 34  1  0
 17 35  1  0
 18 36  1  0
 18 37  1  0
 19 38  1  0
 19 39  1  0
 20 40  1  0
M  END
$$$$
