
     RDKit          3D

 47 49  0  0  0  0  0  0  0  0999 V2000
   -0.0564   -2.0399   -0.8799 C   0  0  0  0  0  0  0  0  0  0  0  0
   -0.1212   -0.5695   -0.4488 C   0  0  1  0  0  0  0  0  0  0  0  0
    0.8492    0.2963   -1.2743 C   0  0  0  0  0  0  0  0  0  0  0  0
    2.2375   -0.0761   -1.0128 N   0  0  0  0  0  0  0  0  0  0  0  0
    3.0397   -0.7770   -1.8348 C   0  0  0  0  0  0  0  0  0  0  0  0
    4.2573   -0.9481   -1.2129 C   0  0  0  0  0  0  0  0  0  0  0  0
    4.1186   -0.3125    0.0143 C   0  0  0  0  0  0  0  0  0  0  0  0
    2.8771    0.2076    0.1099 N   0  0  0  0  0  0  0  0  0  0  0  0
    5.1391   -0.2032    1.0854 C   0  0  0  0  0  0  0  0  0  0  0  0
    6.4244   -0.7534    0.9287 C   0  0  0  0  0  0  0  0  0  0  0  0
    7.3730   -0.6413    1.9487 C   0  0  0  0  0  0  0  0  0  0  0  0
    7.0561    0.0204    3.1403 C   0  0  0  0  0  0  0  0  0  0  0  0
    8.0529    0.1220    4.1771 C   0  0  0  0  0  0  0  0  0  0  0  0
    8.8532    0.2034    5.0090 N   0  0  0  0  0  0  0  0  0  0  0  0
    5.7756    0.5745    3.3089 C   0  0  0  0  0  0  0  0  0  0  0  0
    5.3287    1.4164    4.7896 Cl  0  0  0  0  0  0  0  0  0  0  0  0
    4.8271    0.4609    2.2855 C   0  0  0  0  0  0  0  0  0  0  0  0
   -1.4928   -0.0708   -0.6004 N   0  0  0  0  0  0  0  0  0  0  0  0
   -2.5321   -0.3936    0.3389 C   0  0  0  0  0  0  0  0  0  0  0  0
   -2.2631   -1.0758    1.3647 O   0  0  0  0  0  0  0  0  0  0  0  0
   -3.9184    0.0629    0.1331 C   0  0  0  0  0  0  0  0  0  0  0  0
   -4.9158   -0.1857    1.0064 N   0  0  0  0  0  0  0  0  0  0  0  0
   -6.0216    0.3525    0.5197 N   0  0  0  0  0  0  0  0  0  0  0  0
   -5.7491    0.9446   -0.6580 C   0  0  0  0  0  0  0  0  0  0  0  0
   -4.4095    0.7810   -0.9457 C   0  0  0  0  0  0  0  0  0  0  0  0
   -6.7598    1.6537   -1.5202 C   0  0  0  0  0  0  0  0  0  0  0  0
   -7.8393    0.6861   -2.0145 C   0  0  0  0  0  0  0  0  0  0  0  0
   -7.3302    2.7349   -0.8270 O   0  0  0  0  0  0  0  0  0  0  0  0
   -0.3094   -2.1398   -1.9571 H   0  0  0  0  0  0  0  0  0  0  0  0
    0.9593   -2.4524   -0.7051 H   0  0  0  0  0  0  0  0  0  0  0  0
   -0.7744   -2.6463   -0.2893 H   0  0  0  0  0  0  0  0  0  0  0  0
    0.1762   -0.4930    0.6209 H   0  0  0  0  0  0  0  0  0  0  0  0
    0.7101    1.3647   -0.9996 H   0  0  0  0  0  0  0  0  0  0  0  0
    0.6232    0.1982   -2.3595 H   0  0  0  0  0  0  0  0  0  0  0  0
    2.7587   -1.1461   -2.8128 H   0  0  0  0  0  0  0  0  0  0  0  0
    5.1155   -1.4722   -1.6095 H   0  0  0  0  0  0  0  0  0  0  0  0
    6.7048   -1.2705    0.0219 H   0  0  0  0  0  0  0  0  0  0  0  0
    8.3570   -1.0724    1.8066 H   0  0  0  0  0  0  0  0  0  0  0  0
    3.8449    0.8932    2.4318 H   0  0  0  0  0  0  0  0  0  0  0  0
   -1.7121    0.5577   -1.4050 H   0  0  0  0  0  0  0  0  0  0  0  0
   -6.9510    0.3065    0.9929 H   0  0  0  0  0  0  0  0  0  0  0  0
   -3.8819    1.1329   -1.8215 H   0  0  0  0  0  0  0  0  0  0  0  0
   -6.2401    2.0627   -2.4138 H   0  0  0  0  0  0  0  0  0  0  0  0
   -8.5579    1.2273   -2.6658 H   0  0  0  0  0  0  0  0  0  0  0  0
   -7.3758   -0.1331   -2.6048 H   0  0  0  0  0  0  0  0  0  0  0  0
   -8.3958    0.2442   -1.1605 H   0  0  0  0  0  0  0  0  0  0  0  0
   -7.8514    2.3682   -0.0654 H   0  0  0  0  0  0  0  0  0  0  0  0
  1  2  1  0
  2  3  1  0
  3  4  1  0
  4  5  1  0
  5  6  2  0
  6  7  1  0
  7  8  2  0
  7  9  1  0
  9 10  2  0
 10 11  1  0
 11 12  2  0
 12 13  1  0
 13 14  3  0
 12 15  1  0
 15 16  1  0
 15 17  2  0
  2 18  1  0
 18 19  1  0
 19 20  2  0
 19 21  1  0
 21 22  2  0
 22 23  1  0
 23 24  1  0
 24 25  2  0
 24 26  1  0
 26 27  1  0
 26 28  1  0
  8  4  1  0
 17  9  1  0
 25 21  1  0
  1 29  1  0
  1 30  1  0
  1 31  1  0
  2 32  1  1
  3 33  1  0
  3 34  1  0
  5 35  1  0
  6 36  1  0
 10 37  1  0
 11 38  1  0
 17 39  1  0
 18 40  1  0
 23 41  1  0
 25 42  1  0
 26 43  1  0
 27 44  1  0
 27 45  1  0
 27 46  1  0
 28 47  1  0
M  END
$$$$
