
     RDKit          3D

 41 42  0  0  0  0  0  0  0  0999 V2000
   -0.6789   -2.6553   -0.7850 C   0  0  0  0  0  0  0  0  0  0  0  0
   -0.0292   -1.3474   -0.3069 C   0  0  0  0  0  0  0  0  0  0  0  0
   -0.9291   -0.6183    0.7148 C   0  0  0  0  0  0  0  0  0  0  0  0
   -2.2606   -0.2968    0.1518 N   0  0  0  0  0  0  0  0  0  0  0  0
   -2.1771    0.8022   -0.8466 C   0  0  0  0  0  0  0  0  0  0  0  0
   -3.5444    1.4573   -1.1411 C   0  0  0  0  0  0  0  0  0  0  0  0
   -4.6955    0.5147   -0.7921 C   0  0  0  0  0  0  0  0  0  0  0  0
   -4.6457    0.1169    0.6913 C   0  0  0  0  0  0  0  0  0  0  0  0
   -3.2062    0.0450    1.2336 C   0  0  0  0  0  0  0  0  0  0  0  0
    1.3296   -1.6141    0.3083 C   0  0  0  0  0  0  0  0  0  0  0  0
    1.4747   -2.6280    1.0466 O   0  0  0  0  0  0  0  0  0  0  0  0
    2.4857   -0.6987    0.1076 C   0  0  0  0  0  0  0  0  0  0  0  0
    3.7921   -1.1642    0.3465 C   0  0  0  0  0  0  0  0  0  0  0  0
    4.8932   -0.3217    0.1695 C   0  0  0  0  0  0  0  0  0  0  0  0
    4.7095    1.0084   -0.2313 C   0  0  0  0  0  0  0  0  0  0  0  0
    5.8938    1.9006   -0.4583 C   0  0  0  0  0  0  0  0  0  0  0  0
    3.4129    1.4779   -0.4804 C   0  0  0  0  0  0  0  0  0  0  0  0
    2.3099    0.6371   -0.3051 C   0  0  0  0  0  0  0  0  0  0  0  0
   -1.6196   -2.4394   -1.3347 H   0  0  0  0  0  0  0  0  0  0  0  0
    0.0061   -3.1906   -1.4771 H   0  0  0  0  0  0  0  0  0  0  0  0
   -0.9144   -3.3198    0.0740 H   0  0  0  0  0  0  0  0  0  0  0  0
    0.1106   -0.7175   -1.2087 H   0  0  0  0  0  0  0  0  0  0  0  0
   -0.4270    0.3053    1.0818 H   0  0  0  0  0  0  0  0  0  0  0  0
   -1.0390   -1.2897    1.5968 H   0  0  0  0  0  0  0  0  0  0  0  0
   -1.4697    1.5969   -0.5180 H   0  0  0  0  0  0  0  0  0  0  0  0
   -1.7959    0.3837   -1.8020 H   0  0  0  0  0  0  0  0  0  0  0  0
   -3.6053    1.7409   -2.2142 H   0  0  0  0  0  0  0  0  0  0  0  0
   -3.6473    2.3886   -0.5411 H   0  0  0  0  0  0  0  0  0  0  0  0
   -4.6205   -0.3975   -1.4248 H   0  0  0  0  0  0  0  0  0  0  0  0
   -5.6667    1.0063   -1.0164 H   0  0  0  0  0  0  0  0  0  0  0  0
   -5.2200    0.8542    1.2937 H   0  0  0  0  0  0  0  0  0  0  0  0
   -5.1406   -0.8716    0.8112 H   0  0  0  0  0  0  0  0  0  0  0  0
   -3.1842   -0.7244    2.0372 H   0  0  0  0  0  0  0  0  0  0  0  0
   -2.9267    1.0211    1.6930 H   0  0  0  0  0  0  0  0  0  0  0  0
    3.9651   -2.1868    0.6585 H   0  0  0  0  0  0  0  0  0  0  0  0
    5.8896   -0.7079    0.3459 H   0  0  0  0  0  0  0  0  0  0  0  0
    6.2335    1.8023   -1.5104 H   0  0  0  0  0  0  0  0  0  0  0  0
    6.7291    1.6234    0.2197 H   0  0  0  0  0  0  0  0  0  0  0  0
    5.6291    2.9612   -0.2604 H   0  0  0  0  0  0  0  0  0  0  0  0
    3.2539    2.4988   -0.8057 H   0  0  0  0  0  0  0  0  0  0  0  0
    1.3252    1.0470   -0.4803 H   0  0  0  0  0  0  0  0  0  0  0  0
  1  2  1  0
  2  3  1  0
  3  4  1  0
  4  5  1  0
  5  6  1  0
  6  7  1  0
  7  8  1  0
  8  9  1  0
  2 10  1  0
 10 11  2  0
 10 12  1  0
 12 13  2  0
 13 14  1  0
 14 15  2  0
 15 16  1  0
 15 17  1  0
 17 18  2  0
  9  4  1  0
 18 12  1  0
  1 19  1  0
  1 20  1  0
  1 21  1  0
  2 22  1  0
  3 23  1  0
  3 24  1  0
  5 25  1  0
  5 26  1  0
  6 27  1  0
  6 28  1  0
  7 29  1  0
  7 30  1  0
  8 31  1  0
  8 32  1  0
  9 33  1  0
  9 34  1  0
 13 35  1  0
 14 36  1  0
 16 37  1  0
 16 38  1  0
 16 39  1  0
 17 40  1  0
 18 41  1  0
M  END
$$$$
