
     RDKit          3D

 22 21  0  0  0  0  0  0  0  0999 V2000
    3.0158    0.4294    0.5586 N   0  0  0  0  0  0  0  0  0  0  0  0
    2.3863   -0.8003    0.0851 C   0  0  0  0  0  0  0  0  0  0  0  0
    1.2650   -0.4950   -0.9188 C   0  0  0  0  0  0  0  0  0  0  0  0
    0.1427    0.3903   -0.3485 C   0  0  0  0  0  0  0  0  0  0  0  0
   -0.7071   -0.3362    0.7083 C   0  0  0  0  0  0  0  0  0  0  0  0
   -1.8807    0.5229    1.1973 C   0  0  0  0  0  0  0  0  0  0  0  0
   -2.9260    0.6907    0.1374 C   0  0  0  0  0  0  0  0  0  0  0  0
   -3.7728   -0.3684   -0.1740 O   0  0  0  0  0  0  0  0  0  0  0  0
   -3.0244    1.7806   -0.4874 O   0  0  0  0  0  0  0  0  0  0  0  0
    3.5390    0.8575   -0.2397 H   0  0  0  0  0  0  0  0  0  0  0  0
    3.7301    0.1657    1.2753 H   0  0  0  0  0  0  0  0  0  0  0  0
    3.1489   -1.4416   -0.4107 H   0  0  0  0  0  0  0  0  0  0  0  0
    1.9845   -1.3718    0.9481 H   0  0  0  0  0  0  0  0  0  0  0  0
    1.7086    0.0197   -1.7989 H   0  0  0  0  0  0  0  0  0  0  0  0
    0.8334   -1.4522   -1.2841 H   0  0  0  0  0  0  0  0  0  0  0  0
   -0.5105    0.6891   -1.1964 H   0  0  0  0  0  0  0  0  0  0  0  0
    0.5711    1.3203    0.0839 H   0  0  0  0  0  0  0  0  0  0  0  0
   -0.0740   -0.5727    1.5891 H   0  0  0  0  0  0  0  0  0  0  0  0
   -1.0916   -1.2954    0.2967 H   0  0  0  0  0  0  0  0  0  0  0  0
   -2.3487    0.0258    2.0739 H   0  0  0  0  0  0  0  0  0  0  0  0
   -1.5117    1.5163    1.5349 H   0  0  0  0  0  0  0  0  0  0  0  0
   -4.4779   -0.2748   -0.8953 H   0  0  0  0  0  0  0  0  0  0  0  0
  1  2  1  0
  2  3  1  0
  3  4  1  0
  4  5  1  0
  5  6  1  0
  6  7  1  0
  7  8  1  0
  7  9  2  0
  1 10  1  0
  1 11  1  0
  2 12  1  0
  2 13  1  0
  3 14  1  0
  3 15  1  0
  4 16  1  0
  4 17  1  0
  5 18  1  0
  5 19  1  0
  6 20  1  0
  6 21  1  0
  8 22  1  0
M  END
$$$$
