
     RDKit          3D

 51 53  0  0  0  0  0  0  0  0999 V2000
    5.7831   -0.3339    3.2601 C   0  0  0  0  0  0  0  0  0  0  0  0
    5.2794   -1.0830    2.1590 O   0  0  0  0  0  0  0  0  0  0  0  0
    4.2021   -0.6815    1.3555 C   0  0  0  0  0  0  0  0  0  0  0  0
    3.8051   -1.5197    0.3072 C   0  0  0  0  0  0  0  0  0  0  0  0
    2.7342   -1.1660   -0.5181 C   0  0  0  0  0  0  0  0  0  0  0  0
    2.0406    0.0315   -0.3006 C   0  0  0  0  0  0  0  0  0  0  0  0
    2.4400    0.8794    0.7402 C   0  0  0  0  0  0  0  0  0  0  0  0
    3.5116    0.5275    1.5661 C   0  0  0  0  0  0  0  0  0  0  0  0
    0.6711    0.4655   -1.3203 S   0  0  0  0  0  6  0  0  0  0  0  0
    0.6997    1.9385   -1.6144 O   0  0  0  0  0  0  0  0  0  0  0  0
    0.7768   -0.2682   -2.6288 O   0  0  0  0  0  0  0  0  0  0  0  0
   -0.8239    0.0391   -0.5374 N   0  0  0  0  0  0  0  0  0  0  0  0
   -1.2414    0.7094    0.7007 C   0  0  0  0  0  0  0  0  0  0  0  0
   -1.8805    2.0430    0.4214 C   0  0  0  0  0  0  0  0  0  0  0  0
   -1.1240    3.2236    0.4342 C   0  0  0  0  0  0  0  0  0  0  0  0
   -1.7358    4.4491    0.1654 C   0  0  0  0  0  0  0  0  0  0  0  0
   -3.1045    4.4853   -0.1057 C   0  0  0  0  0  0  0  0  0  0  0  0
   -3.8297    3.3358   -0.1010 N   0  0  0  0  0  0  0  0  0  0  0  0
   -3.2562    2.1302    0.1574 C   0  0  0  0  0  0  0  0  0  0  0  0
   -1.6074   -1.0384   -1.0793 C   0  0  0  0  0  0  0  0  0  0  0  0
   -1.3776   -2.3719   -0.6555 C   0  0  0  0  0  0  0  0  0  0  0  0
   -2.1231   -3.4175   -1.2183 C   0  0  0  0  0  0  0  0  0  0  0  0
   -3.0926   -3.1565   -2.1835 C   0  0  0  0  0  0  0  0  0  0  0  0
   -3.3018   -1.8539   -2.6300 C   0  0  0  0  0  0  0  0  0  0  0  0
   -2.5500   -0.7904   -2.1095 C   0  0  0  0  0  0  0  0  0  0  0  0
   -2.7697    0.5782   -2.6967 C   0  0  0  0  0  0  0  0  0  0  0  0
   -0.3023   -2.7188    0.2934 C   0  0  0  0  0  0  0  0  0  0  0  0
    0.6205   -3.4919   -0.0789 O   0  0  0  0  0  0  0  0  0  0  0  0
   -0.3245   -2.2451    1.6409 N   0  0  0  0  0  0  0  0  0  0  0  0
    0.7533   -2.4092    2.4442 O   0  0  0  0  0  0  0  0  0  0  0  0
    6.1474    0.6562    2.9135 H   0  0  0  0  0  0  0  0  0  0  0  0
    6.6312   -0.8849    3.7157 H   0  0  0  0  0  0  0  0  0  0  0  0
    4.9908   -0.2030    4.0271 H   0  0  0  0  0  0  0  0  0  0  0  0
    4.3282   -2.4514    0.1330 H   0  0  0  0  0  0  0  0  0  0  0  0
    2.4442   -1.8308   -1.3213 H   0  0  0  0  0  0  0  0  0  0  0  0
    1.9212    1.8118    0.9163 H   0  0  0  0  0  0  0  0  0  0  0  0
    3.7934    1.2001    2.3645 H   0  0  0  0  0  0  0  0  0  0  0  0
   -1.9759    0.0813    1.2466 H   0  0  0  0  0  0  0  0  0  0  0  0
   -0.3683    0.8310    1.3754 H   0  0  0  0  0  0  0  0  0  0  0  0
   -0.0654    3.1979    0.6550 H   0  0  0  0  0  0  0  0  0  0  0  0
   -1.1552    5.3625    0.1699 H   0  0  0  0  0  0  0  0  0  0  0  0
   -3.5916    5.4281   -0.3155 H   0  0  0  0  0  0  0  0  0  0  0  0
   -3.8709    1.2392    0.1523 H   0  0  0  0  0  0  0  0  0  0  0  0
   -1.9517   -4.4413   -0.9078 H   0  0  0  0  0  0  0  0  0  0  0  0
   -3.6684   -3.9707   -2.6044 H   0  0  0  0  0  0  0  0  0  0  0  0
   -4.0396   -1.6750   -3.4030 H   0  0  0  0  0  0  0  0  0  0  0  0
   -2.0158    1.3156   -2.3594 H   0  0  0  0  0  0  0  0  0  0  0  0
   -2.7049    0.5232   -3.8041 H   0  0  0  0  0  0  0  0  0  0  0  0
   -3.7804    0.9435   -2.4204 H   0  0  0  0  0  0  0  0  0  0  0  0
   -1.2040   -1.8595    2.0472 H   0  0  0  0  0  0  0  0  0  0  0  0
    1.2631   -1.5637    2.3588 H   0  0  0  0  0  0  0  0  0  0  0  0
  1  2  1  0
  2  3  1  0
  3  4  2  0
  4  5  1  0
  5  6  2  0
  6  7  1  0
  7  8  2  0
  6  9  1  0
  9 10  2  0
  9 11  2  0
  9 12  1  0
 12 13  1  0
 13 14  1  0
 14 15  2  0
 15 16  1  0
 16 17  2  0
 17 18  1  0
 18 19  2  0
 12 20  1  0
 20 21  2  0
 21 22  1  0
 22 23  2  0
 23 24  1  0
 24 25  2  0
 25 26  1  0
 21 27  1  0
 27 28  2  0
 27 29  1  0
 29 30  1  0
  8  3  1  0
 19 14  1  0
 25 20  1  0
  1 31  1  0
  1 32  1  0
  1 33  1  0
  4 34  1  0
  5 35  1  0
  7 36  1  0
  8 37  1  0
 13 38  1  0
 13 39  1  0
 15 40  1  0
 16 41  1  0
 17 42  1  0
 19 43  1  0
 22 44  1  0
 23 45  1  0
 24 46  1  0
 26 47  1  0
 26 48  1  0
 26 49  1  0
 29 50  1  0
 30 51  1  0
M  END
$$$$
