
     RDKit          2D

 48 51  0  0  0  0  0  0  0  0999 V2000
    2.2500   -3.8971    0.0000 C   0  0  0  0  0  0  0  0  0  0  0  0
    3.3991   -2.9329    0.0000 C   0  0  0  0  0  0  0  0  0  0  0  0
    4.8086   -3.4460    0.0000 C   0  0  0  0  0  0  0  0  0  0  0  0
    5.0691   -4.9232    0.0000 C   0  0  0  0  0  0  0  0  0  0  0  0
    3.9200   -5.8874    0.0000 C   0  0  0  0  0  0  0  0  0  0  0  0
    2.5105   -5.3743    0.0000 N   0  0  0  0  0  0  0  0  0  0  0  0
    3.1725   -4.8847    0.0000 C   0  0  0  0  0  0  0  0  0  0  0  0
    4.2115   -4.0129    0.0000 C   0  0  0  0  0  0  0  0  0  0  0  0
    5.8191   -6.2222    0.0000 C   0  0  0  0  0  0  0  0  0  0  0  0
    7.3191   -6.2222    0.0000 C   0  0  0  0  0  0  0  0  0  0  0  0
    1.5000   -2.5981    0.0000 C   0  0  0  0  0  0  0  0  0  0  0  0
    2.7990   -1.8481    0.0000 O   0  0  0  0  0  0  0  0  0  0  0  0
    0.7500   -1.2990    0.0000 C   0  0  0  0  0  0  0  0  0  0  0  0
    1.5000    0.0000    0.0000 C   0  0  0  0  0  0  0  0  0  0  0  0
    0.7500    1.2990    0.0000 C   0  0  0  0  0  0  0  0  0  0  0  0
   -0.7500    1.2990    0.0000 N   0  0  0  0  0  0  0  0  0  0  0  0
   -1.5000    0.0000    0.0000 C   0  0  0  0  0  0  0  0  0  0  0  0
   -3.0000    0.0000    0.0000 C   0  0  0  0  0  0  0  0  0  0  0  0
   -3.7500   -1.2990    0.0000 C   0  0  0  0  0  0  0  0  0  0  0  0
   -3.0000   -2.5981    0.0000 C   0  0  0  0  0  0  0  0  0  0  0  0
   -3.7500   -3.8971    0.0000 O   0  0  0  0  0  0  0  0  0  0  0  0
   -3.0000   -5.1962    0.0000 C   0  0  0  0  0  0  0  0  0  0  0  0
   -1.5000   -2.5981    0.0000 C   0  0  0  0  0  0  0  0  0  0  0  0
   -0.7500   -1.2990    0.0000 C   0  0  0  0  0  0  0  0  0  0  0  0
    0.8405   -4.4101    0.0000 H   0  0  0  0  0  0  0  0  0  0  0  0
    4.1491   -1.6339    0.0000 H   0  0  0  0  0  0  0  0  0  0  0  0
    2.9305   -2.2880    0.0000 H   0  0  0  0  0  0  0  0  0  0  0  0
    5.9577   -2.4818    0.0000 H   0  0  0  0  0  0  0  0  0  0  0  0
    6.1111   -6.0021    0.0000 H   0  0  0  0  0  0  0  0  0  0  0  0
    6.5306   -4.5858    0.0000 H   0  0  0  0  0  0  0  0  0  0  0  0
    3.0173   -7.0853    0.0000 H   0  0  0  0  0  0  0  0  0  0  0  0
    4.8016   -7.1009    0.0000 H   0  0  0  0  0  0  0  0  0  0  0  0
    3.3340   -7.2681    0.0000 H   0  0  0  0  0  0  0  0  0  0  0  0
    5.0691   -6.8515    0.0000 H   0  0  0  0  0  0  0  0  0  0  0  0
    6.4056   -4.2422    0.0000 H   0  0  0  0  0  0  0  0  0  0  0  0
    5.4057   -7.6641    0.0000 H   0  0  0  0  0  0  0  0  0  0  0  0
    8.0691   -7.5213    0.0000 H   0  0  0  0  0  0  0  0  0  0  0  0
    8.0691   -4.9232    0.0000 H   0  0  0  0  0  0  0  0  0  0  0  0
    0.2010   -3.3481    0.0000 H   0  0  0  0  0  0  0  0  0  0  0  0
    4.2410   -2.2615    0.0000 H   0  0  0  0  0  0  0  0  0  0  0  0
    3.0000    0.0000    0.0000 H   0  0  0  0  0  0  0  0  0  0  0  0
    1.5000    2.5981    0.0000 H   0  0  0  0  0  0  0  0  0  0  0  0
   -3.7500    1.2990    0.0000 H   0  0  0  0  0  0  0  0  0  0  0  0
   -5.2500   -1.2990    0.0000 H   0  0  0  0  0  0  0  0  0  0  0  0
   -2.2500   -6.4952    0.0000 H   0  0  0  0  0  0  0  0  0  0  0  0
   -4.2990   -5.9462    0.0000 H   0  0  0  0  0  0  0  0  0  0  0  0
   -1.7010   -4.4462    0.0000 H   0  0  0  0  0  0  0  0  0  0  0  0
   -0.7500   -3.8971    0.0000 H   0  0  0  0  0  0  0  0  0  0  0  0
  1  2  1  0
  2  3  1  0
  3  4  1  0
  4  5  1  0
  6  5  1  1
  6  7  1  0
  7  8  1  0
  8  9  1  0
  9 10  2  3
  1 11  1  0
 11 12  1  0
 11 13  1  0
 13 14  2  0
 14 15  1  0
 15 16  2  0
 16 17  1  0
 17 18  2  0
 18 19  1  0
 19 20  2  0
 20 21  1  0
 21 22  1  0
 20 23  1  0
 23 24  2  0
  6  1  1  0
 24 13  1  0
  8  3  1  0
 24 17  1  0
  1 25  1  1
  2 26  1  0
  2 27  1  0
  3 28  1  1
  4 29  1  0
  4 30  1  0
  5 31  1  0
  5 32  1  0
  7 33  1  0
  7 34  1  0
  8 35  1  6
  9 36  1  0
 10 37  1  0
 10 38  1  0
 11 39  1  6
 12 40  1  0
 14 41  1  0
 15 42  1  0
 18 43  1  0
 19 44  1  0
 22 45  1  0
 22 46  1  0
 22 47  1  0
 23 48  1  0
M  END
$$$$
