
     RDKit          3D

 48 50  0  0  0  0  0  0  0  0999 V2000
   -7.8170    1.8492   -1.8391 N   0  0  0  0  0  0  0  0  0  0  0  0
   -6.8420    1.7207   -0.8042 C   0  0  0  0  0  0  0  0  0  0  0  0
   -7.1196    2.1346    0.4685 N   0  0  0  0  0  0  0  0  0  0  0  0
   -6.1977    2.0115    1.4776 C   0  0  0  0  0  0  0  0  0  0  0  0
   -4.9679    1.4672    1.2313 N   0  0  0  0  0  0  0  0  0  0  0  0
   -4.6948    1.0635   -0.0332 C   0  0  0  0  0  0  0  0  0  0  0  0
   -5.5876    1.1711   -1.0433 C   0  0  0  0  0  0  0  0  0  0  0  0
   -5.0760    0.6667   -2.1823 N   0  0  0  0  0  0  0  0  0  0  0  0
   -3.8352    0.2571   -1.7981 C   0  0  0  0  0  0  0  0  0  0  0  0
   -3.5699    0.4985   -0.4873 N   0  0  0  0  0  0  0  0  0  0  0  0
   -2.3850    0.1075    0.2775 C   0  0  2  0  0  0  0  0  0  0  0  0
   -1.2246    0.2721   -0.5106 O   0  0  0  0  0  0  0  0  0  0  0  0
   -0.4919   -0.9330   -0.4578 C   0  0  1  0  0  0  0  0  0  0  0  0
    0.9954   -0.6238   -0.2633 C   0  0  0  0  0  0  0  0  0  0  0  0
    1.7302   -1.8258   -0.2742 O   0  0  0  0  0  0  0  0  0  0  0  0
    3.3668   -1.4589    0.0329 P   0  0  2  0  0  5  0  0  0  0  0  0
    4.2656   -2.8818   -0.1444 O   0  0  0  0  0  0  0  0  0  0  0  0
    3.5031   -0.9574    1.4541 O   0  0  0  0  0  0  0  0  0  0  0  0
    3.9047   -0.2934   -1.0892 O   0  0  0  0  0  0  0  0  0  0  0  0
    5.4666    0.2220   -0.6388 P   0  0  1  0  0  5  0  0  0  0  0  0
    6.4085   -1.0601   -0.0489 O   0  0  0  0  0  0  0  0  0  0  0  0
    6.1376    0.7714   -1.8774 O   0  0  0  0  0  0  0  0  0  0  0  0
    5.3325    1.5002    0.5663 N   0  0  0  0  0  0  0  0  0  0  0  0
    6.9057    2.2499    0.8006 P   0  0  0  0  0  5  0  0  0  0  0  0
    7.3760    3.0522   -0.6144 O   0  0  0  0  0  0  0  0  0  0  0  0
    8.0619    1.0836    1.2142 O   0  0  0  0  0  0  0  0  0  0  0  0
    6.8042    3.2564    1.9238 O   0  0  0  0  0  0  0  0  0  0  0  0
   -1.0557   -1.8011    0.6637 C   0  0  2  0  0  0  0  0  0  0  0  0
   -0.9610   -3.1633    0.3384 O   0  0  0  0  0  0  0  0  0  0  0  0
   -2.4870   -1.3480    0.7237 C   0  0  1  0  0  0  0  0  0  0  0  0
   -2.9892   -1.4537    2.0297 O   0  0  0  0  0  0  0  0  0  0  0  0
   -8.7521    2.2638   -1.6300 H   0  0  0  0  0  0  0  0  0  0  0  0
   -7.6121    1.5339   -2.8133 H   0  0  0  0  0  0  0  0  0  0  0  0
   -6.4464    2.3457    2.4753 H   0  0  0  0  0  0  0  0  0  0  0  0
   -3.1389   -0.2277   -2.4703 H   0  0  0  0  0  0  0  0  0  0  0  0
   -2.2839    0.7688    1.1676 H   0  0  0  0  0  0  0  0  0  0  0  0
   -0.6215   -1.4530   -1.4345 H   0  0  0  0  0  0  0  0  0  0  0  0
    1.1229   -0.0776    0.7000 H   0  0  0  0  0  0  0  0  0  0  0  0
    1.3196    0.0341   -1.1010 H   0  0  0  0  0  0  0  0  0  0  0  0
    4.1588   -3.1285   -1.0976 H   0  0  0  0  0  0  0  0  0  0  0  0
    6.2746   -1.0553    0.9321 H   0  0  0  0  0  0  0  0  0  0  0  0
    5.0752    1.0536    1.4735 H   0  0  0  0  0  0  0  0  0  0  0  0
    8.2829    3.3992   -0.4192 H   0  0  0  0  0  0  0  0  0  0  0  0
    8.4686    0.8095    0.3538 H   0  0  0  0  0  0  0  0  0  0  0  0
   -0.5364   -1.5854    1.6287 H   0  0  0  0  0  0  0  0  0  0  0  0
   -1.1957   -3.6650    1.1621 H   0  0  0  0  0  0  0  0  0  0  0  0
   -3.1052   -1.9452    0.0108 H   0  0  0  0  0  0  0  0  0  0  0  0
   -3.9670   -1.2955    1.9663 H   0  0  0  0  0  0  0  0  0  0  0  0
  1  2  1  0
  2  3  2  0
  3  4  1  0
  4  5  2  0
  5  6  1  0
  6  7  2  0
  7  8  1  0
  8  9  2  0
  9 10  1  0
 10 11  1  0
 11 12  1  0
 12 13  1  0
 13 14  1  0
 14 15  1  0
 16 15  1  6
 16 17  1  0
 16 18  2  0
 16 19  1  0
 20 19  1  6
 20 21  1  0
 20 22  2  0
 20 23  1  0
 23 24  1  0
 24 25  1  0
 24 26  1  0
 24 27  2  0
 13 28  1  0
 28 29  1  0
 28 30  1  0
 30 31  1  0
  7  2  1  0
 30 11  1  0
 10  6  1  0
  1 32  1  0
  1 33  1  0
  4 34  1  0
  9 35  1  0
 11 36  1  1
 13 37  1  6
 14 38  1  0
 14 39  1  0
 17 40  1  0
 21 41  1  0
 23 42  1  0
 25 43  1  0
 26 44  1  0
 28 45  1  1
 29 46  1  0
 30 47  1  6
 31 48  1  0
M  END
$$$$
