
     RDKit          3D

 37 38  0  0  0  0  0  0  0  0999 V2000
    5.0775    1.4467    0.6804 N   0  0  0  0  0  0  0  0  0  0  0  0
    3.9111    0.9678   -0.0542 C   0  0  0  0  0  0  0  0  0  0  0  0
    3.3811   -0.3200    0.5797 C   0  0  0  0  0  0  0  0  0  0  0  0
    2.1894   -0.8355   -0.1832 C   0  0  0  0  0  0  0  0  0  0  0  0
    2.3641   -1.7380   -1.2371 C   0  0  0  0  0  0  0  0  0  0  0  0
    1.2602   -2.2172   -1.9392 C   0  0  0  0  0  0  0  0  0  0  0  0
   -0.0336   -1.7896   -1.6212 C   0  0  0  0  0  0  0  0  0  0  0  0
   -1.0904   -2.3918   -2.3097 O   0  0  0  0  0  0  0  0  0  0  0  0
   -0.2235   -0.7984   -0.6189 C   0  0  0  0  0  0  0  0  0  0  0  0
    0.9017   -0.3702    0.1193 C   0  0  0  0  0  0  0  0  0  0  0  0
   -1.6010   -0.2252   -0.2956 C   0  0  0  0  0  0  0  0  0  0  0  0
   -1.5999    1.3184   -0.2002 C   0  0  0  0  0  0  0  0  0  0  0  0
   -3.0103    1.8436    0.0990 C   0  0  0  0  0  0  0  0  0  0  0  0
   -3.5619    1.2222    1.3888 C   0  0  0  0  0  0  0  0  0  0  0  0
   -3.5588   -0.3102    1.3106 C   0  0  0  0  0  0  0  0  0  0  0  0
   -2.1554   -0.8482    0.9988 C   0  0  0  0  0  0  0  0  0  0  0  0
    4.7566    1.7916    1.6145 H   0  0  0  0  0  0  0  0  0  0  0  0
    5.4542    2.2787    0.1711 H   0  0  0  0  0  0  0  0  0  0  0  0
    4.2029    0.7658   -1.1086 H   0  0  0  0  0  0  0  0  0  0  0  0
    3.1170    1.7486   -0.0509 H   0  0  0  0  0  0  0  0  0  0  0  0
    3.0960   -0.1262    1.6371 H   0  0  0  0  0  0  0  0  0  0  0  0
    4.1870   -1.0867    0.5908 H   0  0  0  0  0  0  0  0  0  0  0  0
    3.3543   -2.0885   -1.5012 H   0  0  0  0  0  0  0  0  0  0  0  0
    1.4079   -2.9488   -2.7239 H   0  0  0  0  0  0  0  0  0  0  0  0
   -2.0599   -2.3271   -2.0338 H   0  0  0  0  0  0  0  0  0  0  0  0
    0.7868    0.3272    0.9375 H   0  0  0  0  0  0  0  0  0  0  0  0
   -2.3055   -0.4553   -1.1182 H   0  0  0  0  0  0  0  0  0  0  0  0
   -1.2479    1.7503   -1.1624 H   0  0  0  0  0  0  0  0  0  0  0  0
   -0.9244    1.6763    0.6042 H   0  0  0  0  0  0  0  0  0  0  0  0
   -2.9747    2.9488    0.2108 H   0  0  0  0  0  0  0  0  0  0  0  0
   -3.6883    1.6081   -0.7507 H   0  0  0  0  0  0  0  0  0  0  0  0
   -4.6017    1.5786    1.5516 H   0  0  0  0  0  0  0  0  0  0  0  0
   -2.9474    1.5525    2.2551 H   0  0  0  0  0  0  0  0  0  0  0  0
   -3.9038   -0.7272    2.2811 H   0  0  0  0  0  0  0  0  0  0  0  0
   -4.2700   -0.6445    0.5234 H   0  0  0  0  0  0  0  0  0  0  0  0
   -2.2114   -1.9530    0.8857 H   0  0  0  0  0  0  0  0  0  0  0  0
   -1.4780   -0.6238    1.8523 H   0  0  0  0  0  0  0  0  0  0  0  0
  1  2  1  0
  2  3  1  0
  3  4  1  0
  4  5  2  0
  5  6  1  0
  6  7  2  0
  7  8  1  0
  7  9  1  0
  9 10  2  0
  9 11  1  0
 11 12  1  0
 12 13  1  0
 13 14  1  0
 14 15  1  0
 15 16  1  0
 10  4  1  0
 16 11  1  0
  1 17  1  0
  1 18  1  0
  2 19  1  0
  2 20  1  0
  3 21  1  0
  3 22  1  0
  5 23  1  0
  6 24  1  0
  8 25  1  0
 10 26  1  0
 11 27  1  0
 12 28  1  0
 12 29  1  0
 13 30  1  0
 13 31  1  0
 14 32  1  0
 14 33  1  0
 15 34  1  0
 15 35  1  0
 16 36  1  0
 16 37  1  0
M  END
$$$$
