
     RDKit          3D

 65 67  0  0  0  0  0  0  0  0999 V2000
   -1.0580    0.9803   -0.8289 C   0  0  1  0  0  0  0  0  0  0  0  0
   -1.1478    1.2256    0.7193 C   0  0  0  0  0  0  0  0  0  0  0  0
   -1.0861    2.6317    1.1937 N   0  0  0  0  0  0  0  0  0  0  0  0
   -2.2669    3.4550    0.9279 C   0  0  0  0  0  0  0  0  0  0  0  0
   -1.8392    4.5585   -0.0203 C   0  0  0  0  0  0  0  0  0  0  0  0
   -0.3656    4.7448    0.2647 C   0  0  0  0  0  0  0  0  0  0  0  0
    0.1051    3.4037    0.8115 C   0  0  0  0  0  0  0  0  0  0  0  0
   -0.2931   -0.2530   -1.0711 N   0  0  0  0  0  0  0  0  0  0  0  0
    0.9821   -0.4404   -1.2762 C   0  0  0  0  0  0  0  0  0  0  0  0
    1.4327   -1.7401   -1.4920 O   0  0  0  0  0  0  0  0  0  0  0  0
    2.0066    0.6647   -1.3064 C   0  0  0  0  0  0  0  0  0  0  0  0
    2.7151    0.8531    0.0483 C   0  0  0  0  0  0  0  0  0  0  0  0
    3.5326   -0.3596    0.5311 C   0  0  0  0  0  0  0  0  0  0  0  0
    4.7679   -0.6383   -0.3420 C   0  0  0  0  0  0  0  0  0  0  0  0
    5.5807   -1.8536    0.1415 C   0  0  0  0  0  0  0  0  0  0  0  0
    6.2283   -1.6958    1.5290 C   0  0  0  0  0  0  0  0  0  0  0  0
    7.2212   -0.5363    1.5992 C   0  0  0  0  0  0  0  0  0  0  0  0
   -2.4253    0.7983   -1.5529 C   0  0  2  0  0  0  0  0  0  0  0  0
   -3.1062    2.0197   -1.6580 O   0  0  0  0  0  0  0  0  0  0  0  0
   -3.3045   -0.2826   -0.9383 C   0  0  0  0  0  0  0  0  0  0  0  0
   -3.0615   -1.6352   -1.2444 C   0  0  0  0  0  0  0  0  0  0  0  0
   -3.8508   -2.6398   -0.6788 C   0  0  0  0  0  0  0  0  0  0  0  0
   -4.8730   -2.3098    0.2189 C   0  0  0  0  0  0  0  0  0  0  0  0
   -5.6188   -3.3358    0.8080 O   0  0  0  0  0  0  0  0  0  0  0  0
   -5.1892   -4.6976    0.7317 C   0  0  0  0  0  0  0  0  0  0  0  0
   -4.5905   -4.9889   -0.6506 C   0  0  0  0  0  0  0  0  0  0  0  0
   -3.6339   -3.9842   -0.9975 O   0  0  0  0  0  0  0  0  0  0  0  0
   -5.1383   -0.9721    0.5155 C   0  0  0  0  0  0  0  0  0  0  0  0
   -4.3597    0.0379   -0.0588 C   0  0  0  0  0  0  0  0  0  0  0  0
   -0.5708    1.8309   -1.3389 H   0  0  0  0  0  0  0  0  0  0  0  0
   -2.0498    0.7443    1.1457 H   0  0  0  0  0  0  0  0  0  0  0  0
   -0.3117    0.6850    1.2111 H   0  0  0  0  0  0  0  0  0  0  0  0
   -3.1302    2.8789    0.5512 H   0  0  0  0  0  0  0  0  0  0  0  0
   -2.5876    3.9149    1.8878 H   0  0  0  0  0  0  0  0  0  0  0  0
   -2.4125    5.4945    0.1553 H   0  0  0  0  0  0  0  0  0  0  0  0
   -1.9753    4.2337   -1.0733 H   0  0  0  0  0  0  0  0  0  0  0  0
    0.1902    5.0301   -0.6551 H   0  0  0  0  0  0  0  0  0  0  0  0
   -0.2310    5.5351    1.0361 H   0  0  0  0  0  0  0  0  0  0  0  0
    0.7239    2.8953    0.0549 H   0  0  0  0  0  0  0  0  0  0  0  0
    0.7404    3.5609    1.7092 H   0  0  0  0  0  0  0  0  0  0  0  0
    0.7922   -2.5254   -1.4841 H   0  0  0  0  0  0  0  0  0  0  0  0
    2.7543    0.4309   -2.0908 H   0  0  0  0  0  0  0  0  0  0  0  0
    1.5623    1.6221   -1.6333 H   0  0  0  0  0  0  0  0  0  0  0  0
    3.3849    1.7378   -0.0197 H   0  0  0  0  0  0  0  0  0  0  0  0
    1.9595    1.0820    0.8261 H   0  0  0  0  0  0  0  0  0  0  0  0
    2.8893   -1.2625    0.5873 H   0  0  0  0  0  0  0  0  0  0  0  0
    3.8662   -0.1304    1.5646 H   0  0  0  0  0  0  0  0  0  0  0  0
    5.4135    0.2636   -0.3922 H   0  0  0  0  0  0  0  0  0  0  0  0
    4.4402   -0.8641   -1.3775 H   0  0  0  0  0  0  0  0  0  0  0  0
    4.9182   -2.7465    0.1587 H   0  0  0  0  0  0  0  0  0  0  0  0
    6.3808   -2.0603   -0.6026 H   0  0  0  0  0  0  0  0  0  0  0  0
    5.4536   -1.5752    2.3144 H   0  0  0  0  0  0  0  0  0  0  0  0
    6.7763   -2.6349    1.7602 H   0  0  0  0  0  0  0  0  0  0  0  0
    7.7730   -0.5809    2.5618 H   0  0  0  0  0  0  0  0  0  0  0  0
    7.9547   -0.6005    0.7675 H   0  0  0  0  0  0  0  0  0  0  0  0
    6.6899    0.4369    1.5535 H   0  0  0  0  0  0  0  0  0  0  0  0
   -2.1825    0.4742   -2.5941 H   0  0  0  0  0  0  0  0  0  0  0  0
   -3.8171    1.8999   -2.3413 H   0  0  0  0  0  0  0  0  0  0  0  0
   -2.2709   -1.9096   -1.9316 H   0  0  0  0  0  0  0  0  0  0  0  0
   -4.4155   -4.8761    1.5089 H   0  0  0  0  0  0  0  0  0  0  0  0
   -6.0505   -5.3704    0.9265 H   0  0  0  0  0  0  0  0  0  0  0  0
   -5.4041   -4.9893   -1.4074 H   0  0  0  0  0  0  0  0  0  0  0  0
   -4.1009   -5.9853   -0.6546 H   0  0  0  0  0  0  0  0  0  0  0  0
   -5.9368   -0.7156    1.1999 H   0  0  0  0  0  0  0  0  0  0  0  0
   -4.5797    1.0661    0.1916 H   0  0  0  0  0  0  0  0  0  0  0  0
  1  2  1  0
  2  3  1  0
  3  4  1  0
  4  5  1  0
  5  6  1  0
  6  7  1  0
  1  8  1  0
  8  9  2  3
  9 10  1  0
  9 11  1  0
 11 12  1  0
 12 13  1  0
 13 14  1  0
 14 15  1  0
 15 16  1  0
 16 17  1  0
  1 18  1  0
 18 19  1  0
 18 20  1  0
 20 21  2  0
 21 22  1  0
 22 23  2  0
 23 24  1  0
 24 25  1  0
 25 26  1  0
 26 27  1  0
 23 28  1  0
 28 29  2  0
  7  3  1  0
 29 20  1  0
 27 22  1  0
  1 30  1  6
  2 31  1  0
  2 32  1  0
  4 33  1  0
  4 34  1  0
  5 35  1  0
  5 36  1  0
  6 37  1  0
  6 38  1  0
  7 39  1  0
  7 40  1  0
 10 41  1  0
 11 42  1  0
 11 43  1  0
 12 44  1  0
 12 45  1  0
 13 46  1  0
 13 47  1  0
 14 48  1  0
 14 49  1  0
 15 50  1  0
 15 51  1  0
 16 52  1  0
 16 53  1  0
 17 54  1  0
 17 55  1  0
 17 56  1  0
 18 57  1  6
 19 58  1  0
 21 59  1  0
 25 60  1  0
 25 61  1  0
 26 62  1  0
 26 63  1  0
 28 64  1  0
 29 65  1  0
M  END
$$$$
