
     RDKit          3D

 54 56  0  0  0  0  0  0  0  0999 V2000
    7.0535    2.0166   -2.1090 O   0  0  0  0  0  0  0  0  0  0  0  0
    7.6123    1.9080   -0.8276 C   0  0  0  0  0  0  0  0  0  0  0  0
    8.9005    2.4657   -0.8399 O   0  0  0  0  0  0  0  0  0  0  0  0
    7.6941    0.4293   -0.4279 C   0  0  0  0  0  0  0  0  0  0  0  0
    6.3222   -0.1871   -0.3324 C   0  0  0  0  0  0  0  0  0  0  0  0
    5.5676   -0.0506    0.8424 C   0  0  0  0  0  0  0  0  0  0  0  0
    4.2807   -0.5925    0.9267 C   0  0  0  0  0  0  0  0  0  0  0  0
    3.3303   -0.4466    2.5838 Br  0  0  0  0  0  0  0  0  0  0  0  0
    3.7278   -1.2644   -0.1804 C   0  0  0  0  0  0  0  0  0  0  0  0
    2.4395   -1.8093   -0.1257 O   0  0  0  0  0  0  0  0  0  0  0  0
    1.2656   -1.0519    0.0045 C   0  0  0  0  0  0  0  0  0  0  0  0
    0.0736   -1.7157    0.3124 C   0  0  0  0  0  0  0  0  0  0  0  0
   -1.1361   -1.0099    0.4456 C   0  0  0  0  0  0  0  0  0  0  0  0
   -2.4022   -1.7662    0.8136 C   0  0  0  0  0  0  0  0  0  0  0  0
   -2.7014   -1.5645    2.1719 O   0  0  0  0  0  0  0  0  0  0  0  0
   -3.5299   -1.3534   -0.0433 N   0  0  0  0  0  0  0  0  0  0  0  0
   -4.7422   -2.1598    0.1912 C   0  0  0  0  0  0  0  0  0  0  0  0
   -5.7419   -1.4059    1.0762 C   0  0  0  0  0  0  0  0  0  0  0  0
   -6.1274   -0.0795    0.4733 C   0  0  0  0  0  0  0  0  0  0  0  0
   -5.5427    1.1104    0.9386 C   0  0  0  0  0  0  0  0  0  0  0  0
   -5.8758    2.3353    0.3525 C   0  0  0  0  0  0  0  0  0  0  0  0
   -6.7924    2.3813   -0.7014 C   0  0  0  0  0  0  0  0  0  0  0  0
   -7.3763    1.2019   -1.1721 C   0  0  0  0  0  0  0  0  0  0  0  0
   -7.0443   -0.0254   -0.5899 C   0  0  0  0  0  0  0  0  0  0  0  0
   -1.1324    0.3928    0.2793 C   0  0  0  0  0  0  0  0  0  0  0  0
   -2.3089    1.1265    0.4287 O   0  0  0  0  0  0  0  0  0  0  0  0
    0.0603    1.0551   -0.0404 C   0  0  0  0  0  0  0  0  0  0  0  0
    1.2500    0.3406   -0.1830 C   0  0  0  0  0  0  0  0  0  0  0  0
    4.4859   -1.4110   -1.3512 C   0  0  0  0  0  0  0  0  0  0  0  0
    3.7642   -2.3264   -2.8685 Br  0  0  0  0  0  0  0  0  0  0  0  0
    5.7715   -0.8665   -1.4293 C   0  0  0  0  0  0  0  0  0  0  0  0
    6.8982    2.9845   -2.2657 H   0  0  0  0  0  0  0  0  0  0  0  0
    6.9677    2.4525   -0.0947 H   0  0  0  0  0  0  0  0  0  0  0  0
    9.1512    2.6283    0.1070 H   0  0  0  0  0  0  0  0  0  0  0  0
    8.2067    0.3403    0.5551 H   0  0  0  0  0  0  0  0  0  0  0  0
    8.3143   -0.1226   -1.1683 H   0  0  0  0  0  0  0  0  0  0  0  0
    5.9834    0.4720    1.6952 H   0  0  0  0  0  0  0  0  0  0  0  0
    0.0965   -2.7895    0.4534 H   0  0  0  0  0  0  0  0  0  0  0  0
   -2.2215   -2.8554    0.6652 H   0  0  0  0  0  0  0  0  0  0  0  0
   -2.9364   -0.6076    2.2880 H   0  0  0  0  0  0  0  0  0  0  0  0
   -3.2396   -1.5003   -1.0393 H   0  0  0  0  0  0  0  0  0  0  0  0
   -4.5088   -3.1434    0.6577 H   0  0  0  0  0  0  0  0  0  0  0  0
   -5.2367   -2.3836   -0.7814 H   0  0  0  0  0  0  0  0  0  0  0  0
   -5.3174   -1.2642    2.0925 H   0  0  0  0  0  0  0  0  0  0  0  0
   -6.6538   -2.0299    1.1992 H   0  0  0  0  0  0  0  0  0  0  0  0
   -4.8284    1.0901    1.7519 H   0  0  0  0  0  0  0  0  0  0  0  0
   -5.4215    3.2487    0.7141 H   0  0  0  0  0  0  0  0  0  0  0  0
   -7.0488    3.3302   -1.1544 H   0  0  0  0  0  0  0  0  0  0  0  0
   -8.0838    1.2383   -1.9904 H   0  0  0  0  0  0  0  0  0  0  0  0
   -7.4978   -0.9332   -0.9684 H   0  0  0  0  0  0  0  0  0  0  0  0
   -2.3284    2.1328    0.3122 H   0  0  0  0  0  0  0  0  0  0  0  0
    0.0657    2.1288   -0.1792 H   0  0  0  0  0  0  0  0  0  0  0  0
    2.1541    0.8760   -0.4410 H   0  0  0  0  0  0  0  0  0  0  0  0
    6.3394   -0.9699   -2.3456 H   0  0  0  0  0  0  0  0  0  0  0  0
  1  2  1  0
  2  3  1  0
  2  4  1  0
  4  5  1  0
  5  6  2  0
  6  7  1  0
  7  8  1  0
  7  9  2  0
  9 10  1  0
 10 11  1  0
 11 12  2  0
 12 13  1  0
 13 14  1  0
 14 15  1  0
 14 16  1  0
 16 17  1  0
 17 18  1  0
 18 19  1  0
 19 20  2  0
 20 21  1  0
 21 22  2  0
 22 23  1  0
 23 24  2  0
 13 25  2  0
 25 26  1  0
 25 27  1  0
 27 28  2  0
  9 29  1  0
 29 30  1  0
 29 31  2  0
 31  5  1  0
 28 11  1  0
 24 19  1  0
  1 32  1  0
  2 33  1  0
  3 34  1  0
  4 35  1  0
  4 36  1  0
  6 37  1  0
 12 38  1  0
 14 39  1  0
 15 40  1  0
 16 41  1  0
 17 42  1  0
 17 43  1  0
 18 44  1  0
 18 45  1  0
 20 46  1  0
 21 47  1  0
 22 48  1  0
 23 49  1  0
 24 50  1  0
 26 51  1  0
 27 52  1  0
 28 53  1  0
 31 54  1  0
M  END
$$$$
