
     RDKit          3D

 53 56  0  0  0  0  0  0  0  0999 V2000
    5.3226   -0.6380    0.2966 C   0  0  0  0  0  0  0  0  0  0  0  0
    3.9310   -1.2538    0.1925 C   0  0  0  0  0  0  0  0  0  0  0  0
    3.3241   -1.0263   -1.1979 C   0  0  0  0  0  0  0  0  0  0  0  0
    1.9017   -1.5477   -1.2553 C   0  0  0  0  0  0  0  0  0  0  0  0
    1.7283   -2.8405   -1.7701 C   0  0  0  0  0  0  0  0  0  0  0  0
    0.4558   -3.3921   -1.8419 C   0  0  0  0  0  0  0  0  0  0  0  0
    0.2960   -4.5474   -2.3156 O   0  0  0  0  0  0  0  0  0  0  0  0
   -0.5929   -2.7110   -1.4119 O   0  0  0  0  0  0  0  0  0  0  0  0
   -0.5094   -1.4899   -0.8908 C   0  0  0  0  0  0  0  0  0  0  0  0
    0.7529   -0.8371   -0.7849 C   0  0  0  0  0  0  0  0  0  0  0  0
    0.7898    0.4684   -0.2231 C   0  0  0  0  0  0  0  0  0  0  0  0
   -0.4010    1.1125    0.1505 C   0  0  0  0  0  0  0  0  0  0  0  0
   -0.3347    2.5049    0.6375 C   0  0  0  0  0  0  0  0  0  0  0  0
    0.8366    3.0990    0.8640 C   0  0  0  0  0  0  0  0  0  0  0  0
    2.1405    2.3420    0.7510 C   0  0  0  0  0  0  0  0  0  0  0  0
    3.1954    3.2418    0.0979 C   0  0  0  0  0  0  0  0  0  0  0  0
    2.6022    1.9276    2.1540 C   0  0  0  0  0  0  0  0  0  0  0  0
    1.9935    1.1649   -0.0547 O   0  0  0  0  0  0  0  0  0  0  0  0
   -1.6346    0.4656    0.0114 C   0  0  0  0  0  0  0  0  0  0  0  0
   -1.6920   -0.8596   -0.4496 C   0  0  0  0  0  0  0  0  0  0  0  0
   -3.0350   -1.5706   -0.5564 C   0  0  1  0  0  0  0  0  0  0  0  0
   -2.9023   -2.8866   -0.0747 O   0  0  0  0  0  0  0  0  0  0  0  0
   -4.1589   -0.8629    0.2454 C   0  0  2  0  0  0  0  0  0  0  0  0
   -5.5308   -1.4561   -0.1232 C   0  0  0  0  0  0  0  0  0  0  0  0
   -4.1030    0.6611   -0.0056 C   0  0  1  0  0  0  0  0  0  0  0  0
   -5.1418    1.4408    0.8050 C   0  0  0  0  0  0  0  0  0  0  0  0
   -2.8106    1.1461    0.3432 O   0  0  0  0  0  0  0  0  0  0  0  0
    6.0033   -1.0942   -0.4534 H   0  0  0  0  0  0  0  0  0  0  0  0
    5.7354   -0.8218    1.3108 H   0  0  0  0  0  0  0  0  0  0  0  0
    5.2729    0.4580    0.1275 H   0  0  0  0  0  0  0  0  0  0  0  0
    3.2812   -0.8146    0.9777 H   0  0  0  0  0  0  0  0  0  0  0  0
    4.0057   -2.3461    0.3868 H   0  0  0  0  0  0  0  0  0  0  0  0
    3.9552   -1.5613   -1.9423 H   0  0  0  0  0  0  0  0  0  0  0  0
    3.3802    0.0337   -1.5138 H   0  0  0  0  0  0  0  0  0  0  0  0
    2.5771   -3.4191   -2.1172 H   0  0  0  0  0  0  0  0  0  0  0  0
   -1.2440    3.0686    0.8062 H   0  0  0  0  0  0  0  0  0  0  0  0
    0.8439    4.1163    1.2382 H   0  0  0  0  0  0  0  0  0  0  0  0
    3.3672    4.1569    0.7053 H   0  0  0  0  0  0  0  0  0  0  0  0
    4.1584    2.6978   -0.0028 H   0  0  0  0  0  0  0  0  0  0  0  0
    2.8618    3.5456   -0.9177 H   0  0  0  0  0  0  0  0  0  0  0  0
    3.5778    1.3993    2.1005 H   0  0  0  0  0  0  0  0  0  0  0  0
    1.8596    1.2412    2.6150 H   0  0  0  0  0  0  0  0  0  0  0  0
    2.7191    2.8177    2.8096 H   0  0  0  0  0  0  0  0  0  0  0  0
   -3.3089   -1.5707   -1.6396 H   0  0  0  0  0  0  0  0  0  0  0  0
   -3.3728   -3.4851   -0.7119 H   0  0  0  0  0  0  0  0  0  0  0  0
   -3.9825   -1.0457    1.3299 H   0  0  0  0  0  0  0  0  0  0  0  0
   -6.3201   -1.0683    0.5530 H   0  0  0  0  0  0  0  0  0  0  0  0
   -5.5232   -2.5601   -0.0077 H   0  0  0  0  0  0  0  0  0  0  0  0
   -5.7958   -1.2086   -1.1735 H   0  0  0  0  0  0  0  0  0  0  0  0
   -4.2745    0.8634   -1.0866 H   0  0  0  0  0  0  0  0  0  0  0  0
   -4.9521    2.5306    0.7047 H   0  0  0  0  0  0  0  0  0  0  0  0
   -6.1663    1.2428    0.4274 H   0  0  0  0  0  0  0  0  0  0  0  0
   -5.0821    1.1686    1.8803 H   0  0  0  0  0  0  0  0  0  0  0  0
  1  2  1  0
  2  3  1  0
  3  4  1  0
  4  5  2  0
  5  6  1  0
  6  7  2  0
  6  8  1  0
  8  9  1  0
  9 10  2  0
 10 11  1  0
 11 12  2  0
 12 13  1  0
 13 14  2  0
 14 15  1  0
 15 16  1  0
 15 17  1  0
 15 18  1  0
 12 19  1  0
 19 20  2  0
 20 21  1  0
 21 22  1  0
 21 23  1  0
 23 24  1  0
 23 25  1  0
 25 26  1  0
 25 27  1  0
 10  4  1  0
 18 11  1  0
 27 19  1  0
 20  9  1  0
  1 28  1  0
  1 29  1  0
  1 30  1  0
  2 31  1  0
  2 32  1  0
  3 33  1  0
  3 34  1  0
  5 35  1  0
 13 36  1  0
 14 37  1  0
 16 38  1  0
 16 39  1  0
 16 40  1  0
 17 41  1  0
 17 42  1  0
 17 43  1  0
 21 44  1  6
 22 45  1  0
 23 46  1  1
 24 47  1  0
 24 48  1  0
 24 49  1  0
 25 50  1  6
 26 51  1  0
 26 52  1  0
 26 53  1  0
M  END
$$$$
