
     RDKit          3D

 41 45  0  0  0  0  0  0  0  0999 V2000
    1.9999   -3.1954   -1.1064 N   0  0  0  0  0  0  0  0  0  0  0  0
    0.6047   -3.0519   -0.8373 C   0  0  0  0  0  0  0  0  0  0  0  0
    0.0220   -1.8262   -0.4967 C   0  0  0  0  0  0  0  0  0  0  0  0
   -1.3344   -1.7324   -0.4075 C   0  0  0  0  0  0  0  0  0  0  0  0
   -2.1523   -2.7998   -0.5734 N   0  0  0  0  0  0  0  0  0  0  0  0
   -1.5857   -4.0087   -0.8572 C   0  0  0  0  0  0  0  0  0  0  0  0
   -0.2279   -4.1234   -0.9979 N   0  0  0  0  0  0  0  0  0  0  0  0
   -1.6985   -0.4703   -0.1273 N   0  0  0  0  0  0  0  0  0  0  0  0
   -0.5958    0.2610   -0.0001 N   0  0  0  0  0  0  0  0  0  0  0  0
    0.4768   -0.5408   -0.2174 C   0  0  0  0  0  0  0  0  0  0  0  0
    1.8616   -0.0802   -0.0257 C   0  0  0  0  0  0  0  0  0  0  0  0
    2.2829    1.1340   -0.6062 C   0  0  0  0  0  0  0  0  0  0  0  0
    3.5862    1.5472   -0.3568 C   0  0  0  0  0  0  0  0  0  0  0  0
    4.4200    0.8148    0.4356 C   0  0  0  0  0  0  0  0  0  0  0  0
    5.6240    1.3940    0.5494 N   0  0  0  0  0  0  0  0  0  0  0  0
    5.5499    2.5240   -0.1927 C   0  0  0  0  0  0  0  0  0  0  0  0
    4.2900    2.6549   -0.7750 C   0  0  0  0  0  0  0  0  0  0  0  0
    4.0277   -0.3408    1.0257 N   0  0  0  0  0  0  0  0  0  0  0  0
    2.7567   -0.7966    0.8121 C   0  0  0  0  0  0  0  0  0  0  0  0
   -3.0610    0.0280    0.0874 C   0  0  0  0  0  0  0  0  0  0  0  0
   -3.2891    0.4352    1.5365 C   0  0  0  0  0  0  0  0  0  0  0  0
   -4.3477    1.5331    1.4941 C   0  0  0  0  0  0  0  0  0  0  0  0
   -4.4343    2.0160    0.0455 C   0  0  0  0  0  0  0  0  0  0  0  0
   -3.3467    1.2822   -0.7263 C   0  0  0  0  0  0  0  0  0  0  0  0
    2.4016   -4.1456   -1.2664 H   0  0  0  0  0  0  0  0  0  0  0  0
    2.6041   -2.3702   -1.3068 H   0  0  0  0  0  0  0  0  0  0  0  0
   -2.2146   -4.8780   -0.9912 H   0  0  0  0  0  0  0  0  0  0  0  0
    1.6227    1.7237   -1.2306 H   0  0  0  0  0  0  0  0  0  0  0  0
    6.4442    1.0504    1.0964 H   0  0  0  0  0  0  0  0  0  0  0  0
    6.3669    3.2239   -0.3074 H   0  0  0  0  0  0  0  0  0  0  0  0
    3.9417    3.4549   -1.4148 H   0  0  0  0  0  0  0  0  0  0  0  0
    2.4362   -1.7093    1.2977 H   0  0  0  0  0  0  0  0  0  0  0  0
   -3.8072   -0.7513   -0.1902 H   0  0  0  0  0  0  0  0  0  0  0  0
   -3.6277   -0.4312    2.1452 H   0  0  0  0  0  0  0  0  0  0  0  0
   -2.3542    0.8446    1.9800 H   0  0  0  0  0  0  0  0  0  0  0  0
   -4.0659    2.3693    2.1709 H   0  0  0  0  0  0  0  0  0  0  0  0
   -5.3312    1.1278    1.8188 H   0  0  0  0  0  0  0  0  0  0  0  0
   -4.2901    3.1165   -0.0195 H   0  0  0  0  0  0  0  0  0  0  0  0
   -5.4306    1.7592   -0.3774 H   0  0  0  0  0  0  0  0  0  0  0  0
   -2.4447    1.9304   -0.7864 H   0  0  0  0  0  0  0  0  0  0  0  0
   -3.6804    1.0270   -1.7555 H   0  0  0  0  0  0  0  0  0  0  0  0
  1  2  1  0
  2  3  2  0
  3  4  1  0
  4  5  2  0
  5  6  1  0
  6  7  2  0
  4  8  1  0
  8  9  1  0
  9 10  2  0
 10 11  1  0
 11 12  2  0
 12 13  1  0
 13 14  2  0
 14 15  1  0
 15 16  1  0
 16 17  2  0
 14 18  1  0
 18 19  2  0
  8 20  1  0
 20 21  1  0
 21 22  1  0
 22 23  1  0
 23 24  1  0
  7  2  1  0
 19 11  1  0
 24 20  1  0
 10  3  1  0
 17 13  1  0
  1 25  1  0
  1 26  1  0
  6 27  1  0
 12 28  1  0
 15 29  1  0
 16 30  1  0
 17 31  1  0
 19 32  1  0
 20 33  1  0
 21 34  1  0
 21 35  1  0
 22 36  1  0
 22 37  1  0
 23 38  1  0
 23 39  1  0
 24 40  1  0
 24 41  1  0
M  END
$$$$
