
     RDKit          3D

 60 63  0  0  0  0  0  0  0  0999 V2000
    3.5019    0.4769   -1.8542 C   0  0  1  0  0  0  0  0  0  0  0  0
    2.9837   -0.9698   -1.7446 C   0  0  0  0  0  0  0  0  0  0  0  0
    3.7244   -1.8028   -2.5935 O   0  0  0  0  0  0  0  0  0  0  0  0
    2.6220    1.4909   -1.0829 C   0  0  0  0  0  0  0  0  0  0  0  0
    2.8699    1.5983    0.4364 C   0  0  0  0  0  0  0  0  0  0  0  0
    2.4527    0.3979    1.1649 N   0  0  0  0  0  0  0  0  0  0  0  0
    3.2739   -0.4464    1.8362 C   0  0  0  0  0  0  0  0  0  0  0  0
    2.5449   -1.4635    2.4401 C   0  0  0  0  0  0  0  0  0  0  0  0
    1.2282   -1.1964    2.1347 C   0  0  0  0  0  0  0  0  0  0  0  0
    1.1990   -0.0573    1.3734 C   0  0  0  0  0  0  0  0  0  0  0  0
   -0.0103    0.5042    0.9537 C   0  0  0  0  0  0  0  0  0  0  0  0
   -1.2121   -0.1421    1.3140 C   0  0  0  0  0  0  0  0  0  0  0  0
   -2.4622    0.4045    0.8615 N   0  0  0  0  0  0  0  0  0  0  0  0
   -3.6885    0.3357    1.6061 C   0  0  0  0  0  0  0  0  0  0  0  0
   -3.6885   -0.0235    2.8146 O   0  0  0  0  0  0  0  0  0  0  0  0
   -4.9848    0.6979    0.9467 C   0  0  0  0  0  0  0  0  0  0  0  0
   -5.4828   -0.4591    0.0773 C   0  0  0  0  0  0  0  0  0  0  0  0
   -6.7810   -0.0965   -0.5924 C   0  0  0  0  0  0  0  0  0  0  0  0
   -8.0051   -0.3517    0.0483 C   0  0  0  0  0  0  0  0  0  0  0  0
   -9.2089    0.0152   -0.5615 C   0  0  0  0  0  0  0  0  0  0  0  0
   -9.1988    0.6469   -1.8082 C   0  0  0  0  0  0  0  0  0  0  0  0
   -7.9845    0.9166   -2.4455 C   0  0  0  0  0  0  0  0  0  0  0  0
   -6.7783    0.5514   -1.8392 C   0  0  0  0  0  0  0  0  0  0  0  0
   -1.1626   -1.3448    2.0679 C   0  0  0  0  0  0  0  0  0  0  0  0
    0.0675   -1.8724    2.4964 C   0  0  0  0  0  0  0  0  0  0  0  0
    4.9223    0.6080   -1.4923 N   0  0  0  0  0  0  0  0  0  0  0  0
    5.7325    1.6237   -1.8544 C   0  0  0  0  0  0  0  0  0  0  0  0
    6.9713    1.5148   -1.3318 N   0  0  0  0  0  0  0  0  0  0  0  0
    6.9271    0.3780   -0.6069 C   0  0  0  0  0  0  0  0  0  0  0  0
    5.6702   -0.1839   -0.6997 C   0  0  0  0  0  0  0  0  0  0  0  0
    8.0746   -0.1391    0.1591 C   0  0  0  0  0  0  0  0  0  0  0  0
    7.9723   -1.3266    0.9480 N   0  0  0  0  0  0  0  0  0  0  0  0
    9.1702    0.4815    0.1203 O   0  0  0  0  0  0  0  0  0  0  0  0
    3.4063    0.7443   -2.9313 H   0  0  0  0  0  0  0  0  0  0  0  0
    3.0535   -1.3436   -0.7043 H   0  0  0  0  0  0  0  0  0  0  0  0
    1.9133   -0.9998   -2.0487 H   0  0  0  0  0  0  0  0  0  0  0  0
    3.3517   -2.7155   -2.4791 H   0  0  0  0  0  0  0  0  0  0  0  0
    2.8187    2.4975   -1.5127 H   0  0  0  0  0  0  0  0  0  0  0  0
    1.5520    1.2810   -1.2858 H   0  0  0  0  0  0  0  0  0  0  0  0
    3.9417    1.8154    0.6334 H   0  0  0  0  0  0  0  0  0  0  0  0
    2.2975    2.4669    0.8278 H   0  0  0  0  0  0  0  0  0  0  0  0
    4.3478   -0.3311    1.8988 H   0  0  0  0  0  0  0  0  0  0  0  0
    2.9297   -2.2776    3.0398 H   0  0  0  0  0  0  0  0  0  0  0  0
   -0.0334    1.4255    0.3878 H   0  0  0  0  0  0  0  0  0  0  0  0
   -2.4643    0.9506   -0.0299 H   0  0  0  0  0  0  0  0  0  0  0  0
   -5.7444    0.9377    1.7233 H   0  0  0  0  0  0  0  0  0  0  0  0
   -4.8362    1.6049    0.3212 H   0  0  0  0  0  0  0  0  0  0  0  0
   -4.7194   -0.7062   -0.6935 H   0  0  0  0  0  0  0  0  0  0  0  0
   -5.6235   -1.3663    0.7060 H   0  0  0  0  0  0  0  0  0  0  0  0
   -8.0263   -0.8323    1.0186 H   0  0  0  0  0  0  0  0  0  0  0  0
  -10.1496   -0.1871   -0.0659 H   0  0  0  0  0  0  0  0  0  0  0  0
  -10.1313    0.9314   -2.2781 H   0  0  0  0  0  0  0  0  0  0  0  0
   -7.9775    1.4118   -3.4078 H   0  0  0  0  0  0  0  0  0  0  0  0
   -5.8438    0.7742   -2.3392 H   0  0  0  0  0  0  0  0  0  0  0  0
   -2.0693   -1.8825    2.3097 H   0  0  0  0  0  0  0  0  0  0  0  0
    0.1088   -2.7796    3.0856 H   0  0  0  0  0  0  0  0  0  0  0  0
    5.4235    2.4458   -2.4872 H   0  0  0  0  0  0  0  0  0  0  0  0
    5.3299   -1.0959   -0.2316 H   0  0  0  0  0  0  0  0  0  0  0  0
    8.8029   -1.6731    1.4776 H   0  0  0  0  0  0  0  0  0  0  0  0
    7.0812   -1.8633    1.0220 H   0  0  0  0  0  0  0  0  0  0  0  0
  1  2  1  0
  2  3  1  0
  1  4  1  0
  4  5  1  0
  5  6  1  0
  6  7  1  0
  7  8  2  0
  8  9  1  0
  9 10  2  0
 10 11  1  0
 11 12  2  0
 12 13  1  0
 13 14  1  0
 14 15  2  0
 14 16  1  0
 16 17  1  0
 17 18  1  0
 18 19  2  0
 19 20  1  0
 20 21  2  0
 21 22  1  0
 22 23  2  0
 12 24  1  0
 24 25  2  0
  1 26  1  0
 26 27  1  0
 27 28  2  0
 28 29  1  0
 29 30  2  0
 29 31  1  0
 31 32  1  0
 31 33  2  0
 10  6  1  0
 23 18  1  0
 30 26  1  0
 25  9  1  0
  1 34  1  6
  2 35  1  0
  2 36  1  0
  3 37  1  0
  4 38  1  0
  4 39  1  0
  5 40  1  0
  5 41  1  0
  7 42  1  0
  8 43  1  0
 11 44  1  0
 13 45  1  0
 16 46  1  0
 16 47  1  0
 17 48  1  0
 17 49  1  0
 19 50  1  0
 20 51  1  0
 21 52  1  0
 22 53  1  0
 23 54  1  0
 24 55  1  0
 25 56  1  0
 27 57  1  0
 30 58  1  0
 32 59  1  0
 32 60  1  0
M  END
$$$$
