
     RDKit          3D

 55 58  0  0  0  0  0  0  0  0999 V2000
    1.0974   -3.5187    3.1256 C   0  0  0  0  0  0  0  0  0  0  0  0
    0.9372   -2.4025    2.2563 O   0  0  0  0  0  0  0  0  0  0  0  0
   -0.2907   -1.9771    1.7243 C   0  0  0  0  0  0  0  0  0  0  0  0
   -0.2960   -0.8584    0.8779 C   0  0  0  0  0  0  0  0  0  0  0  0
    0.9276   -0.2223    0.6157 O   0  0  0  0  0  0  0  0  0  0  0  0
    1.0902    0.9092   -0.2369 C   0  0  0  0  0  0  0  0  0  0  0  0
    2.5639    1.3124   -0.2905 C   0  0  0  0  0  0  0  0  0  0  0  0
    3.4326    0.2102   -0.9137 C   0  0  0  0  0  0  0  0  0  0  0  0
    4.8287    0.6737   -1.0650 N   0  0  0  0  0  0  0  0  0  0  0  0
    5.5978    0.4937    0.1818 C   0  0  0  0  0  0  0  0  0  0  0  0
    7.0352    1.0272   -0.0005 C   0  0  0  0  0  0  0  0  0  0  0  0
    7.3307    1.3337   -1.3520 O   0  0  0  0  0  0  0  0  0  0  0  0
    7.0157    0.2270   -2.1723 C   0  0  0  0  0  0  0  0  0  0  0  0
    5.4978   -0.0444   -2.1698 C   0  0  0  0  0  0  0  0  0  0  0  0
   -1.5087   -0.4054    0.3217 C   0  0  0  0  0  0  0  0  0  0  0  0
   -2.7158   -1.0722    0.6004 C   0  0  0  0  0  0  0  0  0  0  0  0
   -3.9598   -0.6617    0.0713 C   0  0  0  0  0  0  0  0  0  0  0  0
   -4.0566    0.4194   -0.8723 N   0  0  0  0  0  0  0  0  0  0  0  0
   -5.2050    1.2794   -0.9745 C   0  0  0  0  0  0  0  0  0  0  0  0
   -5.4976    1.8992   -2.1999 C   0  0  0  0  0  0  0  0  0  0  0  0
   -6.5983    2.7557   -2.3176 C   0  0  0  0  0  0  0  0  0  0  0  0
   -6.9531    3.5095   -3.8629 Cl  0  0  0  0  0  0  0  0  0  0  0  0
   -7.4087    3.0091   -1.2044 C   0  0  0  0  0  0  0  0  0  0  0  0
   -8.4767    3.8392   -1.3075 F   0  0  0  0  0  0  0  0  0  0  0  0
   -7.1132    2.4117    0.0238 C   0  0  0  0  0  0  0  0  0  0  0  0
   -6.0146    1.5556    0.1429 C   0  0  0  0  0  0  0  0  0  0  0  0
   -5.0859   -1.3429    0.4190 N   0  0  0  0  0  0  0  0  0  0  0  0
   -5.0458   -2.4035    1.2636 C   0  0  0  0  0  0  0  0  0  0  0  0
   -3.8621   -2.8199    1.7771 N   0  0  0  0  0  0  0  0  0  0  0  0
   -2.7023   -2.1849    1.4680 C   0  0  0  0  0  0  0  0  0  0  0  0
   -1.4993   -2.6342    2.0186 C   0  0  0  0  0  0  0  0  0  0  0  0
    2.1705   -3.6240    3.3858 H   0  0  0  0  0  0  0  0  0  0  0  0
    0.7616   -4.4483    2.6194 H   0  0  0  0  0  0  0  0  0  0  0  0
    0.5191   -3.3609    4.0604 H   0  0  0  0  0  0  0  0  0  0  0  0
    0.5010    1.7623    0.1638 H   0  0  0  0  0  0  0  0  0  0  0  0
    0.7287    0.6694   -1.2609 H   0  0  0  0  0  0  0  0  0  0  0  0
    2.9063    1.5397    0.7407 H   0  0  0  0  0  0  0  0  0  0  0  0
    2.6592    2.2383   -0.8986 H   0  0  0  0  0  0  0  0  0  0  0  0
    3.3814   -0.7177   -0.2994 H   0  0  0  0  0  0  0  0  0  0  0  0
    2.9975   -0.0313   -1.9108 H   0  0  0  0  0  0  0  0  0  0  0  0
    5.6398   -0.5847    0.4598 H   0  0  0  0  0  0  0  0  0  0  0  0
    5.1174    1.0419    1.0197 H   0  0  0  0  0  0  0  0  0  0  0  0
    7.7740    0.2962    0.3980 H   0  0  0  0  0  0  0  0  0  0  0  0
    7.1523    1.9588    0.5932 H   0  0  0  0  0  0  0  0  0  0  0  0
    7.3491    0.4473   -3.2086 H   0  0  0  0  0  0  0  0  0  0  0  0
    7.5745   -0.6789   -1.8415 H   0  0  0  0  0  0  0  0  0  0  0  0
    5.3249   -1.1426   -2.0920 H   0  0  0  0  0  0  0  0  0  0  0  0
    5.0698    0.3040   -3.1356 H   0  0  0  0  0  0  0  0  0  0  0  0
   -1.5066    0.4707   -0.3084 H   0  0  0  0  0  0  0  0  0  0  0  0
   -3.3171    0.5044   -1.6054 H   0  0  0  0  0  0  0  0  0  0  0  0
   -4.8738    1.7088   -3.0645 H   0  0  0  0  0  0  0  0  0  0  0  0
   -7.7318    2.6173    0.8879 H   0  0  0  0  0  0  0  0  0  0  0  0
   -5.7886    1.1268    1.1104 H   0  0  0  0  0  0  0  0  0  0  0  0
   -5.9585   -2.9225    1.5217 H   0  0  0  0  0  0  0  0  0  0  0  0
   -1.5154   -3.4930    2.6767 H   0  0  0  0  0  0  0  0  0  0  0  0
  1  2  1  0
  2  3  1  0
  3  4  2  0
  4  5  1  0
  5  6  1  0
  6  7  1  0
  7  8  1  0
  8  9  1  0
  9 10  1  0
 10 11  1  0
 11 12  1  0
 12 13  1  0
 13 14  1  0
  4 15  1  0
 15 16  2  0
 16 17  1  0
 17 18  1  0
 18 19  1  0
 19 20  2  0
 20 21  1  0
 21 22  1  0
 21 23  2  0
 23 24  1  0
 23 25  1  0
 25 26  2  0
 17 27  2  0
 27 28  1  0
 28 29  2  0
 29 30  1  0
 30 31  2  0
 31  3  1  0
 14  9  1  0
 30 16  1  0
 26 19  1  0
  1 32  1  0
  1 33  1  0
  1 34  1  0
  6 35  1  0
  6 36  1  0
  7 37  1  0
  7 38  1  0
  8 39  1  0
  8 40  1  0
 10 41  1  0
 10 42  1  0
 11 43  1  0
 11 44  1  0
 13 45  1  0
 13 46  1  0
 14 47  1  0
 14 48  1  0
 15 49  1  0
 18 50  1  0
 20 51  1  0
 25 52  1  0
 26 53  1  0
 28 54  1  0
 31 55  1  0
M  END
$$$$
