
     RDKit          3D

 49 52  0  0  0  0  0  0  0  0999 V2000
   -1.5428   -1.0168    0.9374 C   0  0  2  0  0  0  0  0  0  0  0  0
   -2.9643   -1.6750    0.9265 C   0  0  0  0  0  0  0  0  0  0  0  0
   -4.0188   -0.6213    0.8034 C   0  0  0  0  0  0  0  0  0  0  0  0
   -5.3948   -0.6723    1.0045 C   0  0  0  0  0  0  0  0  0  0  0  0
   -5.9732    0.4639    0.5314 N   0  0  0  0  0  0  0  0  0  0  0  0
   -4.9706    1.2006    0.0135 C   0  0  0  0  0  0  0  0  0  0  0  0
   -5.0371    2.4194   -0.6582 C   0  0  0  0  0  0  0  0  0  0  0  0
   -3.8307    2.9492   -1.1675 C   0  0  0  0  0  0  0  0  0  0  0  0
   -2.6050    2.2509   -1.0071 C   0  0  0  0  0  0  0  0  0  0  0  0
   -2.5791    1.0058   -0.3286 C   0  0  0  0  0  0  0  0  0  0  0  0
   -3.7874    0.5525    0.1643 C   0  0  0  0  0  0  0  0  0  0  0  0
   -1.3826    0.1466   -0.0641 C   0  0  0  0  0  0  0  0  0  0  0  0
   -0.1669    0.4580   -0.5485 C   0  0  0  0  0  0  0  0  0  0  0  0
    1.0689   -0.3585   -0.2549 C   0  0  2  0  0  0  0  0  0  0  0  0
    0.8562   -1.3529    0.9068 C   0  0  0  0  0  0  0  0  0  0  0  0
   -0.4564   -2.0226    0.8242 N   0  0  0  0  0  0  0  0  0  0  0  0
   -0.5534   -2.8805   -0.3761 C   0  0  0  0  0  0  0  0  0  0  0  0
    2.2329    0.5577    0.0355 C   0  0  0  0  0  0  0  0  0  0  0  0
    2.0901    1.5001    0.8624 O   0  0  0  0  0  0  0  0  0  0  0  0
    3.4943    0.3940   -0.6383 N   0  0  0  0  0  0  0  0  0  0  0  0
    4.1421    1.5682   -1.2357 C   0  0  0  0  0  0  0  0  0  0  0  0
    5.2161    2.1279   -0.3094 C   0  0  0  0  0  0  0  0  0  0  0  0
    4.1587   -0.9166   -0.6821 C   0  0  0  0  0  0  0  0  0  0  0  0
    4.6743   -1.3110    0.6999 C   0  0  0  0  0  0  0  0  0  0  0  0
   -1.4543   -0.5490    1.9446 H   0  0  0  0  0  0  0  0  0  0  0  0
   -3.0903   -2.3491    0.0562 H   0  0  0  0  0  0  0  0  0  0  0  0
   -3.1206   -2.2602    1.8578 H   0  0  0  0  0  0  0  0  0  0  0  0
   -5.9435   -1.5033    1.4276 H   0  0  0  0  0  0  0  0  0  0  0  0
   -6.9919    0.6931    0.5271 H   0  0  0  0  0  0  0  0  0  0  0  0
   -5.9779    2.9369   -0.7925 H   0  0  0  0  0  0  0  0  0  0  0  0
   -3.8426    3.8966   -1.6905 H   0  0  0  0  0  0  0  0  0  0  0  0
   -1.7058    2.6964   -1.4056 H   0  0  0  0  0  0  0  0  0  0  0  0
   -0.0493    1.2731   -1.2481 H   0  0  0  0  0  0  0  0  0  0  0  0
    1.2895   -0.9333   -1.1789 H   0  0  0  0  0  0  0  0  0  0  0  0
    0.9322   -0.8226    1.8830 H   0  0  0  0  0  0  0  0  0  0  0  0
    1.6659   -2.1141    0.9049 H   0  0  0  0  0  0  0  0  0  0  0  0
    0.4125   -3.3888   -0.5875 H   0  0  0  0  0  0  0  0  0  0  0  0
   -1.2909   -3.6897   -0.1978 H   0  0  0  0  0  0  0  0  0  0  0  0
   -0.8534   -2.3000   -1.2754 H   0  0  0  0  0  0  0  0  0  0  0  0
    3.3881    2.3605   -1.4393 H   0  0  0  0  0  0  0  0  0  0  0  0
    4.5989    1.2955   -2.2116 H   0  0  0  0  0  0  0  0  0  0  0  0
    4.7867    2.3482    0.6905 H   0  0  0  0  0  0  0  0  0  0  0  0
    5.6244    3.0670   -0.7385 H   0  0  0  0  0  0  0  0  0  0  0  0
    6.0475    1.4006   -0.2018 H   0  0  0  0  0  0  0  0  0  0  0  0
    3.4593   -1.6928   -1.0557 H   0  0  0  0  0  0  0  0  0  0  0  0
    5.0214   -0.8913   -1.3829 H   0  0  0  0  0  0  0  0  0  0  0  0
    3.8472   -1.3346    1.4381 H   0  0  0  0  0  0  0  0  0  0  0  0
    5.4400   -0.5869    1.0466 H   0  0  0  0  0  0  0  0  0  0  0  0
    5.1362   -2.3194    0.6506 H   0  0  0  0  0  0  0  0  0  0  0  0
  1  2  1  0
  2  3  1  0
  3  4  2  0
  4  5  1  0
  5  6  1  0
  6  7  2  0
  7  8  1  0
  8  9  2  0
  9 10  1  0
 10 11  2  0
 10 12  1  0
 12 13  2  0
 13 14  1  0
 14 15  1  0
 15 16  1  0
 16 17  1  0
 14 18  1  0
 18 19  2  0
 18 20  1  0
 20 21  1  0
 21 22  1  0
 20 23  1  0
 23 24  1  0
 12  1  1  0
 16  1  1  0
 11  3  1  0
 11  6  1  0
  1 25  1  1
  2 26  1  0
  2 27  1  0
  4 28  1  0
  5 29  1  0
  7 30  1  0
  8 31  1  0
  9 32  1  0
 13 33  1  0
 14 34  1  6
 15 35  1  0
 15 36  1  0
 17 37  1  0
 17 38  1  0
 17 39  1  0
 21 40  1  0
 21 41  1  0
 22 42  1  0
 22 43  1  0
 22 44  1  0
 23 45  1  0
 23 46  1  0
 24 47  1  0
 24 48  1  0
 24 49  1  0
M  END
$$$$
