
     RDKit          3D

 41 42  0  0  0  0  0  0  0  0999 V2000
   -5.4744    1.3468    0.9595 C   0  0  0  0  0  0  0  0  0  0  0  0
   -4.3720    0.2746    0.9841 C   0  0  0  0  0  0  0  0  0  0  0  0
   -4.9903   -1.1172    1.1218 C   0  0  0  0  0  0  0  0  0  0  0  0
   -3.5488    0.3151   -0.2392 N   0  0  0  0  0  0  0  0  0  0  0  0
   -2.5020    1.3508   -0.1969 C   0  0  0  0  0  0  0  0  0  0  0  0
   -1.1297    0.6991    0.0398 C   0  0  0  0  0  0  0  0  0  0  0  0
   -1.1011    0.0240    1.2729 O   0  0  0  0  0  0  0  0  0  0  0  0
   -0.0001    1.7428   -0.0318 C   0  0  0  0  0  0  0  0  0  0  0  0
    1.2690    1.1327    0.2036 O   0  0  0  0  0  0  0  0  0  0  0  0
    1.9686    0.3336   -0.7150 C   0  0  0  0  0  0  0  0  0  0  0  0
    1.5556    0.1399   -2.0568 C   0  0  0  0  0  0  0  0  0  0  0  0
    2.3070   -0.6802   -2.9273 C   0  0  0  0  0  0  0  0  0  0  0  0
    3.4778   -1.3152   -2.4788 C   0  0  0  0  0  0  0  0  0  0  0  0
    3.8671   -1.1039   -1.1584 C   0  0  0  0  0  0  0  0  0  0  0  0
    3.1400   -0.3083   -0.3100 C   0  0  0  0  0  0  0  0  0  0  0  0
    3.7793   -0.3191    0.9125 C   0  0  0  0  0  0  0  0  0  0  0  0
    4.8936   -1.1326    0.7278 C   0  0  0  0  0  0  0  0  0  0  0  0
    5.8672   -1.5082    1.7961 C   0  0  0  0  0  0  0  0  0  0  0  0
    4.9391   -1.6193   -0.5340 N   0  0  0  0  0  0  0  0  0  0  0  0
   -6.0612    1.3113    1.9021 H   0  0  0  0  0  0  0  0  0  0  0  0
   -5.0315    2.3601    0.8687 H   0  0  0  0  0  0  0  0  0  0  0  0
   -6.1640    1.1822    0.1039 H   0  0  0  0  0  0  0  0  0  0  0  0
   -3.7377    0.4399    1.8840 H   0  0  0  0  0  0  0  0  0  0  0  0
   -4.1868   -1.8832    1.1635 H   0  0  0  0  0  0  0  0  0  0  0  0
   -5.6500   -1.3390    0.2555 H   0  0  0  0  0  0  0  0  0  0  0  0
   -5.5860   -1.1842    2.0573 H   0  0  0  0  0  0  0  0  0  0  0  0
   -4.1619    0.4704   -1.0746 H   0  0  0  0  0  0  0  0  0  0  0  0
   -2.4748    1.8845   -1.1739 H   0  0  0  0  0  0  0  0  0  0  0  0
   -2.6976    2.1208    0.5830 H   0  0  0  0  0  0  0  0  0  0  0  0
   -0.9681   -0.0518   -0.7622 H   0  0  0  0  0  0  0  0  0  0  0  0
   -1.2263    0.7008    1.9889 H   0  0  0  0  0  0  0  0  0  0  0  0
   -0.1639    2.5118    0.7531 H   0  0  0  0  0  0  0  0  0  0  0  0
   -0.0011    2.2714   -1.0090 H   0  0  0  0  0  0  0  0  0  0  0  0
    0.6640    0.6138   -2.4414 H   0  0  0  0  0  0  0  0  0  0  0  0
    1.9788   -0.8212   -3.9489 H   0  0  0  0  0  0  0  0  0  0  0  0
    4.0572   -1.9472   -3.1394 H   0  0  0  0  0  0  0  0  0  0  0  0
    3.4742    0.1848    1.8205 H   0  0  0  0  0  0  0  0  0  0  0  0
    5.5024   -2.4118    2.3269 H   0  0  0  0  0  0  0  0  0  0  0  0
    5.9775   -0.6759    2.5228 H   0  0  0  0  0  0  0  0  0  0  0  0
    6.8592   -1.7238    1.3468 H   0  0  0  0  0  0  0  0  0  0  0  0
    5.6518   -2.2690   -0.9356 H   0  0  0  0  0  0  0  0  0  0  0  0
  1  2  1  0
  2  3  1  0
  2  4  1  0
  4  5  1  0
  5  6  1  0
  6  7  1  0
  6  8  1  0
  8  9  1  0
  9 10  1  0
 10 11  2  0
 11 12  1  0
 12 13  2  0
 13 14  1  0
 14 15  2  0
 15 16  1  0
 16 17  2  0
 17 18  1  0
 17 19  1  0
 15 10  1  0
 19 14  1  0
  1 20  1  0
  1 21  1  0
  1 22  1  0
  2 23  1  0
  3 24  1  0
  3 25  1  0
  3 26  1  0
  4 27  1  0
  5 28  1  0
  5 29  1  0
  6 30  1  0
  7 31  1  0
  8 32  1  0
  8 33  1  0
 11 34  1  0
 12 35  1  0
 13 36  1  0
 16 37  1  0
 18 38  1  0
 18 39  1  0
 18 40  1  0
 19 41  1  0
M  END
$$$$
