
     RDKit          3D

 52 54  0  0  0  0  0  0  0  0999 V2000
    4.7311   -0.7831    0.2279 C   0  0  1  0  0  0  0  0  0  0  0  0
    5.2801    0.5205    0.8176 C   0  0  0  0  0  0  0  0  0  0  0  0
    6.4154    0.9270    0.0901 O   0  0  0  0  0  0  0  0  0  0  0  0
    6.9707    2.4044    0.7367 P   0  0  0  0  0  5  0  0  0  0  0  0
    5.7538    3.5776    0.6466 O   0  0  0  0  0  0  0  0  0  0  0  0
    8.3064    2.9294   -0.1591 O   0  0  0  0  0  0  0  0  0  0  0  0
    7.3851    2.2186    2.1795 O   0  0  0  0  0  0  0  0  0  0  0  0
    3.6723   -1.2535    1.0314 O   0  0  0  0  0  0  0  0  0  0  0  0
    2.6922   -1.8077    0.1770 C   0  0  1  0  0  0  0  0  0  0  0  0
    1.4133   -1.1244    0.3856 N   0  0  0  0  0  0  0  0  0  0  0  0
    1.1955    0.1966    0.6202 C   0  0  0  0  0  0  0  0  0  0  0  0
   -0.1248    0.5278    0.6589 N   0  0  0  0  0  0  0  0  0  0  0  0
   -0.7338   -0.6500    0.4248 C   0  0  0  0  0  0  0  0  0  0  0  0
    0.1815   -1.6309    0.2535 C   0  0  0  0  0  0  0  0  0  0  0  0
   -0.1611   -2.9100   -0.0336 N   0  0  0  0  0  0  0  0  0  0  0  0
   -1.4911   -3.2074   -0.1394 C   0  0  0  0  0  0  0  0  0  0  0  0
   -2.4388   -2.2308    0.0348 N   0  0  0  0  0  0  0  0  0  0  0  0
   -2.0905   -0.9376    0.3170 C   0  0  0  0  0  0  0  0  0  0  0  0
   -3.0881    0.0784    0.4874 N   0  0  0  0  0  0  0  0  0  0  0  0
   -4.5137   -0.2267    0.3663 C   0  0  0  0  0  0  0  0  0  0  0  0
   -5.3639    1.0294    0.6080 C   0  0  0  0  0  0  0  0  0  0  0  0
   -6.8799    0.7311    0.6386 C   0  0  0  0  0  0  0  0  0  0  0  0
   -7.6470    1.9626    1.1375 C   0  0  0  0  0  0  0  0  0  0  0  0
   -7.4102    0.3113   -0.7409 C   0  0  0  0  0  0  0  0  0  0  0  0
    3.1406   -1.6653   -1.2800 C   0  0  2  0  0  0  0  0  0  0  0  0
    3.6797   -2.8789   -1.7418 O   0  0  0  0  0  0  0  0  0  0  0  0
    4.2099   -0.6081   -1.1952 C   0  0  2  0  0  0  0  0  0  0  0  0
    5.2197   -0.8197   -2.1494 O   0  0  0  0  0  0  0  0  0  0  0  0
    5.5401   -1.5490    0.2403 H   0  0  0  0  0  0  0  0  0  0  0  0
    4.4797    1.2943    0.7845 H   0  0  0  0  0  0  0  0  0  0  0  0
    5.5532    0.3261    1.8796 H   0  0  0  0  0  0  0  0  0  0  0  0
    5.5180    3.6211   -0.3144 H   0  0  0  0  0  0  0  0  0  0  0  0
    8.9380    2.1667   -0.1411 H   0  0  0  0  0  0  0  0  0  0  0  0
    2.5714   -2.8822    0.4405 H   0  0  0  0  0  0  0  0  0  0  0  0
    1.9880    0.9217    0.7478 H   0  0  0  0  0  0  0  0  0  0  0  0
   -1.7985   -4.2193   -0.3644 H   0  0  0  0  0  0  0  0  0  0  0  0
   -2.7819    1.0559    0.6984 H   0  0  0  0  0  0  0  0  0  0  0  0
   -4.7826   -1.0057    1.1125 H   0  0  0  0  0  0  0  0  0  0  0  0
   -4.7062   -0.6228   -0.6528 H   0  0  0  0  0  0  0  0  0  0  0  0
   -5.1404    1.7845   -0.1778 H   0  0  0  0  0  0  0  0  0  0  0  0
   -5.0638    1.4620    1.5883 H   0  0  0  0  0  0  0  0  0  0  0  0
   -7.0714   -0.0978    1.3558 H   0  0  0  0  0  0  0  0  0  0  0  0
   -7.4891    2.8254    0.4549 H   0  0  0  0  0  0  0  0  0  0  0  0
   -7.3038    2.2433    2.1562 H   0  0  0  0  0  0  0  0  0  0  0  0
   -8.7346    1.7428    1.1930 H   0  0  0  0  0  0  0  0  0  0  0  0
   -7.1667    1.0794   -1.5061 H   0  0  0  0  0  0  0  0  0  0  0  0
   -6.9744   -0.6609   -1.0497 H   0  0  0  0  0  0  0  0  0  0  0  0
   -8.5130    0.1812   -0.7054 H   0  0  0  0  0  0  0  0  0  0  0  0
    2.3157   -1.3301   -1.9529 H   0  0  0  0  0  0  0  0  0  0  0  0
    2.9082   -3.4628   -1.9650 H   0  0  0  0  0  0  0  0  0  0  0  0
    3.7345    0.3937   -1.3305 H   0  0  0  0  0  0  0  0  0  0  0  0
    5.6750    0.0518   -2.2814 H   0  0  0  0  0  0  0  0  0  0  0  0
  1  2  1  0
  2  3  1  0
  3  4  1  0
  4  5  1  0
  4  6  1  0
  4  7  2  0
  1  8  1  0
  8  9  1  0
  9 10  1  0
 10 11  1  0
 11 12  2  0
 12 13  1  0
 13 14  2  0
 14 15  1  0
 15 16  2  0
 16 17  1  0
 17 18  2  0
 18 19  1  0
 19 20  1  0
 20 21  1  0
 21 22  1  0
 22 23  1  0
 22 24  1  0
  9 25  1  0
 25 26  1  0
 25 27  1  0
 27 28  1  0
 27  1  1  0
 14 10  1  0
 18 13  1  0
  1 29  1  6
  2 30  1  0
  2 31  1  0
  5 32  1  0
  6 33  1  0
  9 34  1  1
 11 35  1  0
 16 36  1  0
 19 37  1  0
 20 38  1  0
 20 39  1  0
 21 40  1  0
 21 41  1  0
 22 42  1  0
 23 43  1  0
 23 44  1  0
 23 45  1  0
 24 46  1  0
 24 47  1  0
 24 48  1  0
 25 49  1  6
 26 50  1  0
 27 51  1  1
 28 52  1  0
M  END
$$$$
