
     RDKit          3D

 44 46  0  0  0  0  0  0  0  0999 V2000
   -5.8781   -0.1506    1.3922 C   0  0  0  0  0  0  0  0  0  0  0  0
   -4.9717   -0.2781    0.2450 N   0  0  0  0  0  0  0  0  0  0  0  0
   -5.5292   -0.5135   -1.0921 C   0  0  0  0  0  0  0  0  0  0  0  0
   -3.5444   -0.1790    0.4735 C   0  0  0  0  0  0  0  0  0  0  0  0
   -3.0681   -0.0127    1.7476 N   0  0  0  0  0  0  0  0  0  0  0  0
   -1.7293    0.0924    2.0200 C   0  0  0  0  0  0  0  0  0  0  0  0
   -0.8122    0.0330    1.0121 N   0  0  0  0  0  0  0  0  0  0  0  0
   -1.2667   -0.1366   -0.2514 C   0  0  0  0  0  0  0  0  0  0  0  0
   -2.5863   -0.2390   -0.5498 C   0  0  0  0  0  0  0  0  0  0  0  0
   -2.7454   -0.3630   -1.8824 N   0  0  0  0  0  0  0  0  0  0  0  0
   -1.4701   -0.3327   -2.3542 C   0  0  0  0  0  0  0  0  0  0  0  0
   -0.5400   -0.2057   -1.3755 N   0  0  0  0  0  0  0  0  0  0  0  0
    0.9063   -0.0497   -1.5461 C   0  0  2  0  0  0  0  0  0  0  0  0
    1.5860   -0.7598   -0.5296 O   0  0  0  0  0  0  0  0  0  0  0  0
    2.5740    0.0973   -0.0086 C   0  0  2  0  0  0  0  0  0  0  0  0
    2.8228   -0.2250    1.4706 C   0  0  0  0  0  0  0  0  0  0  0  0
    3.2578   -1.5627    1.6079 O   0  0  0  0  0  0  0  0  0  0  0  0
    4.9396   -1.6025    1.9033 P   0  0  0  0  0  5  0  0  0  0  0  0
    5.7716   -0.6971    0.7392 O   0  0  0  0  0  0  0  0  0  0  0  0
    5.4723   -3.2074    1.8472 O   0  0  0  0  0  0  0  0  0  0  0  0
    5.2279   -1.0380    3.2761 O   0  0  0  0  0  0  0  0  0  0  0  0
    2.0913    1.5281   -0.2063 C   0  0  1  0  0  0  0  0  0  0  0  0
    3.2005    2.4879   -0.2499 N   0  0  0  0  0  0  0  0  0  0  0  0
    1.2980    1.4352   -1.4945 C   0  0  1  0  0  0  0  0  0  0  0  0
    2.0864    1.7671   -2.6099 O   0  0  0  0  0  0  0  0  0  0  0  0
   -6.9439   -0.2320    1.0927 H   0  0  0  0  0  0  0  0  0  0  0  0
   -5.6648   -0.9535    2.1293 H   0  0  0  0  0  0  0  0  0  0  0  0
   -5.7327    0.8384    1.8761 H   0  0  0  0  0  0  0  0  0  0  0  0
   -6.6355   -0.6008   -1.0692 H   0  0  0  0  0  0  0  0  0  0  0  0
   -5.1281   -1.4624   -1.5060 H   0  0  0  0  0  0  0  0  0  0  0  0
   -5.2736    0.3345   -1.7613 H   0  0  0  0  0  0  0  0  0  0  0  0
   -1.3974    0.2250    3.0404 H   0  0  0  0  0  0  0  0  0  0  0  0
   -1.2275   -0.3898   -3.4075 H   0  0  0  0  0  0  0  0  0  0  0  0
    1.1999   -0.4913   -2.5252 H   0  0  0  0  0  0  0  0  0  0  0  0
    3.5141   -0.0696   -0.5798 H   0  0  0  0  0  0  0  0  0  0  0  0
    1.8640   -0.1273    2.0230 H   0  0  0  0  0  0  0  0  0  0  0  0
    3.5084    0.5334    1.9176 H   0  0  0  0  0  0  0  0  0  0  0  0
    5.6888   -1.2221   -0.0964 H   0  0  0  0  0  0  0  0  0  0  0  0
    5.1595   -3.5463    0.9708 H   0  0  0  0  0  0  0  0  0  0  0  0
    1.3981    1.8137    0.6178 H   0  0  0  0  0  0  0  0  0  0  0  0
    2.8158    3.4275   -0.5012 H   0  0  0  0  0  0  0  0  0  0  0  0
    3.8900    2.2185   -0.9890 H   0  0  0  0  0  0  0  0  0  0  0  0
    0.4101    2.1092   -1.4412 H   0  0  0  0  0  0  0  0  0  0  0  0
    1.4623    1.8684   -3.3754 H   0  0  0  0  0  0  0  0  0  0  0  0
  1  2  1  0
  2  3  1  0
  2  4  1  0
  4  5  2  0
  5  6  1  0
  6  7  2  0
  7  8  1  0
  8  9  2  0
  9 10  1  0
 10 11  2  0
 11 12  1  0
 12 13  1  0
 13 14  1  0
 14 15  1  0
 15 16  1  0
 16 17  1  0
 17 18  1  0
 18 19  1  0
 18 20  1  0
 18 21  2  0
 15 22  1  0
 22 23  1  0
 22 24  1  0
 24 25  1  0
  9  4  1  0
 24 13  1  0
 12  8  1  0
  1 26  1  0
  1 27  1  0
  1 28  1  0
  3 29  1  0
  3 30  1  0
  3 31  1  0
  6 32  1  0
 11 33  1  0
 13 34  1  6
 15 35  1  6
 16 36  1  0
 16 37  1  0
 19 38  1  0
 20 39  1  0
 22 40  1  1
 23 41  1  0
 23 42  1  0
 24 43  1  1
 25 44  1  0
M  END
$$$$
