
     RDKit          3D

 43 42  0  0  0  0  0  0  0  0999 V2000
    0.0000    0.0000    0.0000 Tc  0  0  0  0  0 15  0  0  0  0  0  0
   -3.5739    1.4846    1.0208 O   0  0  0  0  0  0  0  0  0  0  0  0
   -4.0619    1.2241   -0.2558 C   0  0  0  0  0  0  0  0  0  0  0  0
   -4.5263    2.1623   -0.9569 O   0  0  0  0  0  0  0  0  0  0  0  0
   -4.0413   -0.1747   -0.7888 C   0  0  0  0  0  0  0  0  0  0  0  0
   -2.6661   -0.7162   -0.7400 N   0  0  0  0  0  0  0  0  0  0  0  0
   -2.6828   -2.1952   -0.7464 C   0  0  0  0  0  0  0  0  0  0  0  0
   -3.0081   -2.7161    0.6187 C   0  0  0  0  0  0  0  0  0  0  0  0
   -4.0833   -3.3420    0.8186 O   0  0  0  0  0  0  0  0  0  0  0  0
   -2.1233   -2.4997    1.6700 O   0  0  0  0  0  0  0  0  0  0  0  0
   -1.8575   -0.1987   -1.8661 C   0  0  0  0  0  0  0  0  0  0  0  0
   -0.4085   -0.1957   -1.4888 C   0  0  0  0  0  0  0  0  0  0  0  0
    0.3733   -1.0417   -2.0020 O   0  0  0  0  0  0  0  0  0  0  0  0
    0.0709    0.7375   -0.5123 N   0  0  0  0  0  0  0  0  0  0  0  0
    1.4151    0.6895   -0.0140 C   0  0  0  0  0  0  0  0  0  0  0  0
    1.6737    0.1995    1.2884 C   0  0  0  0  0  0  0  0  0  0  0  0
    3.0029    0.1597    1.7673 C   0  0  0  0  0  0  0  0  0  0  0  0
    3.3762   -0.4956    3.5455 Br  0  0  0  0  0  0  0  0  0  0  0  0
    4.0631    0.5949    0.9468 C   0  0  0  0  0  0  0  0  0  0  0  0
    3.7901    1.0838   -0.3368 C   0  0  0  0  0  0  0  0  0  0  0  0
    2.4773    1.1558   -0.8163 C   0  0  0  0  0  0  0  0  0  0  0  0
    2.2300    1.7010   -2.1982 C   0  0  0  0  0  0  0  0  0  0  0  0
    5.4872    0.5481    1.4323 C   0  0  0  0  0  0  0  0  0  0  0  0
    0.5503   -0.2939    2.1707 C   0  0  0  0  0  0  0  0  0  0  0  0
   -3.5783    2.4252    1.3967 H   0  0  0  0  0  0  0  0  0  0  0  0
   -4.7273   -0.7705   -0.1482 H   0  0  0  0  0  0  0  0  0  0  0  0
   -4.4464   -0.2067   -1.8265 H   0  0  0  0  0  0  0  0  0  0  0  0
   -3.4080   -2.5840   -1.4978 H   0  0  0  0  0  0  0  0  0  0  0  0
   -1.6828   -2.6017   -1.0136 H   0  0  0  0  0  0  0  0  0  0  0  0
   -2.3294   -2.8396    2.6016 H   0  0  0  0  0  0  0  0  0  0  0  0
   -2.0217   -0.7974   -2.7915 H   0  0  0  0  0  0  0  0  0  0  0  0
   -2.1307    0.8518   -2.1102 H   0  0  0  0  0  0  0  0  0  0  0  0
   -0.6107    1.3766   -0.0441 H   0  0  0  0  0  0  0  0  0  0  0  0
    4.6054    1.4208   -0.9666 H   0  0  0  0  0  0  0  0  0  0  0  0
    1.2977    2.3037   -2.2220 H   0  0  0  0  0  0  0  0  0  0  0  0
    3.0613    2.3631   -2.5218 H   0  0  0  0  0  0  0  0  0  0  0  0
    2.1438    0.8624   -2.9197 H   0  0  0  0  0  0  0  0  0  0  0  0
    6.1985    0.9140    0.6615 H   0  0  0  0  0  0  0  0  0  0  0  0
    5.7640   -0.4970    1.6852 H   0  0  0  0  0  0  0  0  0  0  0  0
    5.5979    1.1872    2.3333 H   0  0  0  0  0  0  0  0  0  0  0  0
    0.4846    0.3403    3.0794 H   0  0  0  0  0  0  0  0  0  0  0  0
   -0.4388   -0.2744    1.6725 H   0  0  0  0  0  0  0  0  0  0  0  0
    0.7439   -1.3450    2.4711 H   0  0  0  0  0  0  0  0  0  0  0  0
  2  3  1  0
  3  4  2  0
  3  5  1  0
  5  6  1  0
  6  7  1  0
  7  8  1  0
  8  9  2  0
  8 10  1  0
  6 11  1  0
 11 12  1  0
 12 13  2  0
 12 14  1  0
 14 15  1  0
 15 16  2  0
 16 17  1  0
 17 18  1  0
 17 19  2  0
 19 20  1  0
 20 21  2  0
 21 22  1  0
 19 23  1  0
 16 24  1  0
 21 15  1  0
  2 25  1  0
  5 26  1  0
  5 27  1  0
  7 28  1  0
  7 29  1  0
 10 30  1  0
 11 31  1  0
 11 32  1  0
 14 33  1  0
 20 34  1  0
 22 35  1  0
 22 36  1  0
 22 37  1  0
 23 38  1  0
 23 39  1  0
 23 40  1  0
 24 41  1  0
 24 42  1  0
 24 43  1  0
M  ISO  1   1  99
M  END
$$$$
