
     RDKit          3D

 52 56  0  0  0  0  0  0  0  0999 V2000
   -2.4443   -1.9050   -1.2180 C   0  0  1  0  0  0  0  0  0  0  0  0
   -2.5839   -3.3226   -1.7641 C   0  0  0  0  0  0  0  0  0  0  0  0
   -1.4161   -3.9432   -1.2202 O   0  0  0  0  0  0  0  0  0  0  0  0
   -0.4939   -2.9702   -0.8375 C   0  0  0  0  0  0  0  0  0  0  0  0
    0.4836   -3.2092   -0.0820 O   0  0  0  0  0  0  0  0  0  0  0  0
   -0.9408   -1.6350   -1.3327 C   0  0  2  0  0  0  0  0  0  0  0  0
   -0.5462   -0.2141   -0.7774 C   0  0  2  0  0  0  0  0  0  0  0  0
    0.9005    0.0250   -0.3127 C   0  0  0  0  0  0  0  0  0  0  0  0
    1.2728    1.2604    0.2501 C   0  0  0  0  0  0  0  0  0  0  0  0
    2.5985    1.5229    0.6345 C   0  0  0  0  0  0  0  0  0  0  0  0
    2.9596    2.7143    1.2858 O   0  0  0  0  0  0  0  0  0  0  0  0
    2.0479    3.7440    1.6561 C   0  0  0  0  0  0  0  0  0  0  0  0
    3.6048    0.5880    0.3601 C   0  0  0  0  0  0  0  0  0  0  0  0
    4.9012    0.8987    0.8142 O   0  0  0  0  0  0  0  0  0  0  0  0
    6.0602    0.0811    0.6945 C   0  0  0  0  0  0  0  0  0  0  0  0
    3.2853   -0.5816   -0.3694 C   0  0  0  0  0  0  0  0  0  0  0  0
    4.3023   -1.4771   -0.7383 O   0  0  0  0  0  0  0  0  0  0  0  0
    4.1040   -2.6952   -1.4496 C   0  0  0  0  0  0  0  0  0  0  0  0
    1.9455   -0.8181   -0.7349 C   0  0  0  0  0  0  0  0  0  0  0  0
   -1.7216    0.4360   -0.0201 C   0  0  0  0  0  0  0  0  0  0  0  0
   -1.6169    1.0080    1.2708 C   0  0  0  0  0  0  0  0  0  0  0  0
   -2.7179    1.6903    1.7756 C   0  0  0  0  0  0  0  0  0  0  0  0
   -3.8926    1.7677    1.1031 C   0  0  0  0  0  0  0  0  0  0  0  0
   -4.7992    2.5018    1.8433 O   0  0  0  0  0  0  0  0  0  0  0  0
   -4.1532    2.9117    3.0563 C   0  0  0  0  0  0  0  0  0  0  0  0
   -2.8289    2.3674    2.9749 O   0  0  0  0  0  0  0  0  0  0  0  0
   -4.0933    1.1232   -0.1114 C   0  0  0  0  0  0  0  0  0  0  0  0
   -3.0171    0.3865   -0.6561 C   0  0  0  0  0  0  0  0  0  0  0  0
   -3.2564   -0.6983   -1.7162 C   0  0  2  0  0  0  0  0  0  0  0  0
   -4.6175   -1.0296   -1.8517 O   0  0  0  0  0  0  0  0  0  0  0  0
   -2.7075   -2.0224   -0.1323 H   0  0  0  0  0  0  0  0  0  0  0  0
   -3.5050   -3.8237   -1.3974 H   0  0  0  0  0  0  0  0  0  0  0  0
   -2.5423   -3.3284   -2.8751 H   0  0  0  0  0  0  0  0  0  0  0  0
   -0.6695   -1.6298   -2.4157 H   0  0  0  0  0  0  0  0  0  0  0  0
   -0.5418    0.4094   -1.7017 H   0  0  0  0  0  0  0  0  0  0  0  0
    0.5384    2.0425    0.3550 H   0  0  0  0  0  0  0  0  0  0  0  0
    1.5767    4.1808    0.7504 H   0  0  0  0  0  0  0  0  0  0  0  0
    1.2688    3.3388    2.3362 H   0  0  0  0  0  0  0  0  0  0  0  0
    2.6021    4.5445    2.1874 H   0  0  0  0  0  0  0  0  0  0  0  0
    5.8902   -0.9022    1.1815 H   0  0  0  0  0  0  0  0  0  0  0  0
    6.9060    0.5816    1.2087 H   0  0  0  0  0  0  0  0  0  0  0  0
    6.3330   -0.0451   -0.3741 H   0  0  0  0  0  0  0  0  0  0  0  0
    3.6958   -2.4855   -2.4607 H   0  0  0  0  0  0  0  0  0  0  0  0
    3.4155   -3.3598   -0.8862 H   0  0  0  0  0  0  0  0  0  0  0  0
    5.0799   -3.2100   -1.5630 H   0  0  0  0  0  0  0  0  0  0  0  0
    1.7307   -1.6339   -1.4024 H   0  0  0  0  0  0  0  0  0  0  0  0
   -0.7232    0.9296    1.8720 H   0  0  0  0  0  0  0  0  0  0  0  0
   -4.6865    2.4926    3.9352 H   0  0  0  0  0  0  0  0  0  0  0  0
   -4.1091    4.0197    3.1112 H   0  0  0  0  0  0  0  0  0  0  0  0
   -5.0734    1.1270   -0.5700 H   0  0  0  0  0  0  0  0  0  0  0  0
   -2.8761   -0.3521   -2.7013 H   0  0  0  0  0  0  0  0  0  0  0  0
   -4.9289   -1.4013   -0.9845 H   0  0  0  0  0  0  0  0  0  0  0  0
  1  2  1  0
  2  3  1  0
  3  4  1  0
  4  5  2  0
  4  6  1  0
  6  7  1  0
  7  8  1  0
  8  9  2  0
  9 10  1  0
 10 11  1  0
 11 12  1  0
 10 13  2  0
 13 14  1  0
 14 15  1  0
 13 16  1  0
 16 17  1  0
 17 18  1  0
 16 19  2  0
  7 20  1  0
 20 21  2  0
 21 22  1  0
 22 23  2  0
 23 24  1  0
 24 25  1  0
 25 26  1  0
 23 27  1  0
 27 28  2  0
 28 29  1  0
 29 30  1  0
  6  1  1  0
 19  8  1  0
 28 20  1  0
 29  1  1  0
 26 22  1  0
  1 31  1  1
  2 32  1  0
  2 33  1  0
  6 34  1  6
  7 35  1  6
  9 36  1  0
 12 37  1  0
 12 38  1  0
 12 39  1  0
 15 40  1  0
 15 41  1  0
 15 42  1  0
 18 43  1  0
 18 44  1  0
 18 45  1  0
 19 46  1  0
 21 47  1  0
 25 48  1  0
 25 49  1  0
 27 50  1  0
 29 51  1  6
 30 52  1  0
M  END
$$$$
