
     RDKit          3D

 85 90  0  0  0  0  0  0  0  0999 V2000
   -2.0648    0.5625    1.1210 C   0  0  2  0  0  0  0  0  0  0  0  0
   -1.1112    1.7520    1.4260 C   0  0  0  0  0  0  0  0  0  0  0  0
    0.1721    1.6893    0.6095 C   0  0  0  0  0  0  0  0  0  0  0  0
    0.9973    0.3843    0.8609 C   0  0  2  0  0  0  0  0  0  0  0  0
    1.8102    0.5871    2.0013 O   0  0  0  0  0  0  0  0  0  0  0  0
    1.9237    0.2087   -0.3796 C   0  0  0  0  0  0  0  0  0  0  0  0
    2.9199   -0.9592   -0.2301 C   0  0  2  0  0  0  0  0  0  0  0  0
    2.3102   -2.1293    0.5584 C   0  0  0  0  0  0  0  0  0  0  0  0
    0.7763   -2.1822    0.4228 C   0  0  1  0  0  0  0  0  0  0  0  0
    0.3222   -3.3866    0.9915 O   0  0  0  0  0  0  0  0  0  0  0  0
    0.0700   -0.9235    1.0824 C   0  0  1  0  0  0  0  0  0  0  0  0
   -0.0793   -1.1940    2.6299 C   0  0  0  0  0  0  0  0  0  0  0  0
   -1.0283   -2.1845    2.9122 O   0  0  0  0  0  0  0  0  0  0  0  0
   -1.3486   -0.6306    0.4029 C   0  0  1  0  0  0  0  0  0  0  0  0
   -2.3679   -1.8017    0.2524 C   0  0  2  0  0  0  0  0  0  0  0  0
   -1.8047   -2.8705   -0.4598 O   0  0  0  0  0  0  0  0  0  0  0  0
   -3.5963   -1.3276   -0.5446 C   0  0  0  0  0  0  0  0  0  0  0  0
   -4.3712   -0.1258    0.0837 C   0  0  2  0  0  0  0  0  0  0  0  0
   -5.1667   -0.6417    1.3158 C   0  0  0  0  0  0  0  0  0  0  0  0
   -5.2910    0.4727   -1.0336 C   0  0  2  0  0  0  0  0  0  0  0  0
   -4.4610    1.5724   -1.7249 C   0  0  0  0  0  0  0  0  0  0  0  0
   -3.1668    1.7347   -0.9258 C   0  0  0  0  0  0  0  0  0  0  0  0
   -3.3948    1.0392    0.4285 C   0  0  2  0  0  0  0  0  0  0  0  0
   -4.0406    1.9830    1.2600 O   0  0  0  0  0  0  0  0  0  0  0  0
   -6.6514    0.9761   -0.5759 C   0  0  0  0  0  0  0  0  0  0  0  0
   -6.8958    2.1089    0.0814 C   0  0  0  0  0  0  0  0  0  0  0  0
   -8.3213    2.1708    0.2850 C   0  0  0  0  0  0  0  0  0  0  0  0
   -8.9353    3.0984    0.8730 O   0  0  0  0  0  0  0  0  0  0  0  0
   -8.9344    1.0628   -0.2625 O   0  0  0  0  0  0  0  0  0  0  0  0
   -7.9375    0.2359   -0.8505 C   0  0  0  0  0  0  0  0  0  0  0  0
    4.0856   -0.5172    0.4490 O   0  0  0  0  0  0  0  0  0  0  0  0
    5.1026   -0.1375   -0.4591 C   0  0  2  0  0  0  0  0  0  0  0  0
    5.7283   -1.3103   -0.9588 O   0  0  0  0  0  0  0  0  0  0  0  0
    6.7606   -1.0266   -1.8948 C   0  0  1  0  0  0  0  0  0  0  0  0
    6.2113   -0.5581   -3.2534 C   0  0  0  0  0  0  0  0  0  0  0  0
    7.8668   -0.1036   -1.3121 C   0  0  2  0  0  0  0  0  0  0  0  0
    8.6262   -0.8223   -0.3722 O   0  0  0  0  0  0  0  0  0  0  0  0
    7.2811    1.1409   -0.6224 C   0  0  1  0  0  0  0  0  0  0  0  0
    6.8483    2.0608   -1.5937 O   0  0  0  0  0  0  0  0  0  0  0  0
    6.1215    0.7304    0.3030 C   0  0  1  0  0  0  0  0  0  0  0  0
    5.5117    1.8577    0.8847 O   0  0  0  0  0  0  0  0  0  0  0  0
   -2.3777    0.1676    2.1122 H   0  0  0  0  0  0  0  0  0  0  0  0
   -0.8511    1.7787    2.5049 H   0  0  0  0  0  0  0  0  0  0  0  0
   -1.6013    2.7283    1.2255 H   0  0  0  0  0  0  0  0  0  0  0  0
   -0.1050    1.7854   -0.4638 H   0  0  0  0  0  0  0  0  0  0  0  0
    0.7867    2.5868    0.8414 H   0  0  0  0  0  0  0  0  0  0  0  0
    2.4351    1.3385    1.8225 H   0  0  0  0  0  0  0  0  0  0  0  0
    1.2975    0.0289   -1.2818 H   0  0  0  0  0  0  0  0  0  0  0  0
    2.4847    1.1492   -0.5766 H   0  0  0  0  0  0  0  0  0  0  0  0
    3.1446   -1.3456   -1.2553 H   0  0  0  0  0  0  0  0  0  0  0  0
    2.7522   -3.0782    0.1819 H   0  0  0  0  0  0  0  0  0  0  0  0
    2.5882   -2.0566    1.6312 H   0  0  0  0  0  0  0  0  0  0  0  0
    0.5522   -2.1878   -0.6702 H   0  0  0  0  0  0  0  0  0  0  0  0
    0.5473   -4.1149    0.3547 H   0  0  0  0  0  0  0  0  0  0  0  0
    0.8962   -1.5153    3.0552 H   0  0  0  0  0  0  0  0  0  0  0  0
   -0.3544   -0.2717    3.1781 H   0  0  0  0  0  0  0  0  0  0  0  0
   -1.0531   -2.2766    3.9002 H   0  0  0  0  0  0  0  0  0  0  0  0
   -1.1110   -0.3295   -0.6386 H   0  0  0  0  0  0  0  0  0  0  0  0
   -2.7072   -2.1531    1.2479 H   0  0  0  0  0  0  0  0  0  0  0  0
   -2.3417   -3.6788   -0.2480 H   0  0  0  0  0  0  0  0  0  0  0  0
   -4.2928   -2.1861   -0.6746 H   0  0  0  0  0  0  0  0  0  0  0  0
   -3.2486   -1.0634   -1.5693 H   0  0  0  0  0  0  0  0  0  0  0  0
   -5.8421   -1.4722    1.0193 H   0  0  0  0  0  0  0  0  0  0  0  0
   -5.7927    0.1505    1.7736 H   0  0  0  0  0  0  0  0  0  0  0  0
   -4.4856   -1.0133    2.1072 H   0  0  0  0  0  0  0  0  0  0  0  0
   -5.5124   -0.3129   -1.7923 H   0  0  0  0  0  0  0  0  0  0  0  0
   -4.9986    2.5440   -1.7770 H   0  0  0  0  0  0  0  0  0  0  0  0
   -4.2217    1.2732   -2.7694 H   0  0  0  0  0  0  0  0  0  0  0  0
   -2.9206    2.8115   -0.7970 H   0  0  0  0  0  0  0  0  0  0  0  0
   -2.3384    1.2695   -1.4958 H   0  0  0  0  0  0  0  0  0  0  0  0
   -4.0580    1.6424    2.1916 H   0  0  0  0  0  0  0  0  0  0  0  0
   -6.1767    2.8573    0.3795 H   0  0  0  0  0  0  0  0  0  0  0  0
   -8.1115    0.1450   -1.9434 H   0  0  0  0  0  0  0  0  0  0  0  0
   -7.9296   -0.7617   -0.3635 H   0  0  0  0  0  0  0  0  0  0  0  0
    4.6697    0.4710   -1.2869 H   0  0  0  0  0  0  0  0  0  0  0  0
    7.2504   -2.0009   -2.1137 H   0  0  0  0  0  0  0  0  0  0  0  0
    7.0220   -0.5757   -4.0126 H   0  0  0  0  0  0  0  0  0  0  0  0
    5.4065   -1.2465   -3.5878 H   0  0  0  0  0  0  0  0  0  0  0  0
    5.8023    0.4697   -3.2155 H   0  0  0  0  0  0  0  0  0  0  0  0
    8.5391    0.2380   -2.1350 H   0  0  0  0  0  0  0  0  0  0  0  0
    9.2522   -1.3985   -0.8843 H   0  0  0  0  0  0  0  0  0  0  0  0
    8.0864    1.6052   -0.0036 H   0  0  0  0  0  0  0  0  0  0  0  0
    6.9148    2.9657   -1.1907 H   0  0  0  0  0  0  0  0  0  0  0  0
    6.5414    0.1166    1.1306 H   0  0  0  0  0  0  0  0  0  0  0  0
    4.9854    2.3207    0.1818 H   0  0  0  0  0  0  0  0  0  0  0  0
  1  2  1  0
  2  3  1  0
  3  4  1  0
  4  5  1  1
  4  6  1  0
  6  7  1  0
  7  8  1  0
  8  9  1  0
  9 10  1  0
  9 11  1  0
 11 12  1  1
 12 13  1  0
 11 14  1  0
 14 15  1  0
 15 16  1  0
 15 17  1  0
 17 18  1  0
 18 19  1  1
 18 20  1  0
 20 21  1  0
 21 22  1  0
 22 23  1  0
 23 24  1  1
 20 25  1  0
 25 26  2  0
 26 27  1  0
 27 28  2  0
 27 29  1  0
 29 30  1  0
  7 31  1  0
 31 32  1  0
 32 33  1  0
 33 34  1  0
 34 35  1  0
 34 36  1  0
 36 37  1  0
 36 38  1  0
 38 39  1  0
 38 40  1  0
 40 41  1  0
 14  1  1  0
 23 18  1  0
 30 25  1  0
 40 32  1  0
 23  1  1  0
 11  4  1  0
  1 42  1  1
  2 43  1  0
  2 44  1  0
  3 45  1  0
  3 46  1  0
  5 47  1  0
  6 48  1  0
  6 49  1  0
  7 50  1  6
  8 51  1  0
  8 52  1  0
  9 53  1  6
 10 54  1  0
 12 55  1  0
 12 56  1  0
 13 57  1  0
 14 58  1  6
 15 59  1  1
 16 60  1  0
 17 61  1  0
 17 62  1  0
 19 63  1  0
 19 64  1  0
 19 65  1  0
 20 66  1  6
 21 67  1  0
 21 68  1  0
 22 69  1  0
 22 70  1  0
 24 71  1  0
 26 72  1  0
 30 73  1  0
 30 74  1  0
 32 75  1  6
 34 76  1  6
 35 77  1  0
 35 78  1  0
 35 79  1  0
 36 80  1  6
 37 81  1  0
 38 82  1  1
 39 83  1  0
 40 84  1  1
 41 85  1  0
M  END
$$$$
