
     RDKit          3D

 27 28  0  0  0  0  0  0  0  0999 V2000
    2.0841    0.0837    0.4456 C   0  0  1  0  0  0  0  0  0  0  0  0
    3.5999    0.1014    0.2231 C   0  0  0  0  0  0  0  0  0  0  0  0
    1.4541    1.4155    0.0180 C   0  0  0  0  0  0  0  0  0  0  0  0
    0.0136    1.3789    0.2544 N   0  0  0  0  0  0  0  0  0  0  0  0
   -0.7549    0.1907   -0.0131 C   0  0  0  0  0  0  0  0  0  0  0  0
   -0.0780   -1.0273   -0.2559 C   0  0  0  0  0  0  0  0  0  0  0  0
    1.4304   -1.0727   -0.3332 C   0  0  0  0  0  0  0  0  0  0  0  0
   -0.8123   -2.1969   -0.4960 C   0  0  0  0  0  0  0  0  0  0  0  0
   -2.2055   -2.1731   -0.4637 C   0  0  0  0  0  0  0  0  0  0  0  0
   -2.8808   -0.9794   -0.2116 C   0  0  0  0  0  0  0  0  0  0  0  0
   -2.1699    0.2101    0.0066 C   0  0  0  0  0  0  0  0  0  0  0  0
   -3.0710    1.7037    0.2819 S   0  0  0  0  0  6  0  0  0  0  0  0
   -3.0887    2.0204    1.7504 O   0  0  0  0  0  0  0  0  0  0  0  0
   -4.4826    1.5649   -0.2156 O   0  0  0  0  0  0  0  0  0  0  0  0
    1.8953   -0.0657    1.5327 H   0  0  0  0  0  0  0  0  0  0  0  0
    4.0633    0.9176    0.8175 H   0  0  0  0  0  0  0  0  0  0  0  0
    3.8385    0.2598   -0.8507 H   0  0  0  0  0  0  0  0  0  0  0  0
    4.0447   -0.8621    0.5513 H   0  0  0  0  0  0  0  0  0  0  0  0
    1.9031    2.2547    0.5932 H   0  0  0  0  0  0  0  0  0  0  0  0
    1.6382    1.5945   -1.0640 H   0  0  0  0  0  0  0  0  0  0  0  0
   -0.4254    2.2107    0.7064 H   0  0  0  0  0  0  0  0  0  0  0  0
    1.7980   -2.0376    0.0809 H   0  0  0  0  0  0  0  0  0  0  0  0
    1.7251   -1.0231   -1.4044 H   0  0  0  0  0  0  0  0  0  0  0  0
   -0.3036   -3.1301   -0.7050 H   0  0  0  0  0  0  0  0  0  0  0  0
   -2.7649   -3.0828   -0.6403 H   0  0  0  0  0  0  0  0  0  0  0  0
   -3.9629   -0.9850   -0.1928 H   0  0  0  0  0  0  0  0  0  0  0  0
   -2.4878    2.7292   -0.4158 H   0  0  0  0  0  0  0  0  0  0  0  0
  1  2  1  0
  1  3  1  0
  3  4  1  0
  4  5  1  0
  5  6  2  0
  6  7  1  0
  6  8  1  0
  8  9  2  0
  9 10  1  0
 10 11  2  0
 11 12  1  0
 12 13  2  0
 12 14  2  0
  7  1  1  0
 11  5  1  0
  1 15  1  1
  2 16  1  0
  2 17  1  0
  2 18  1  0
  3 19  1  0
  3 20  1  0
  4 21  1  0
  7 22  1  0
  7 23  1  0
  8 24  1  0
  9 25  1  0
 10 26  1  0
 12 27  1  0
M  END
$$$$
