
     RDKit          3D

 55 58  0  0  0  0  0  0  0  0999 V2000
   -0.2708   -0.7150    2.3046 C   0  0  1  0  0  0  0  0  0  0  0  0
   -0.2161    0.4554    3.0722 O   0  0  0  0  0  0  0  0  0  0  0  0
    0.3238    1.2647    2.0635 C   0  0  2  0  0  0  0  0  0  0  0  0
   -0.6404    1.0199    0.9355 C   0  0  0  0  0  0  0  0  0  0  0  0
   -1.0434   -0.2332    1.1099 C   0  0  0  0  0  0  0  0  0  0  0  0
   -2.1904   -0.9062    0.4618 C   0  0  0  0  0  0  0  0  0  0  0  0
   -2.3562   -0.8496   -0.9320 C   0  0  0  0  0  0  0  0  0  0  0  0
   -3.4380   -1.4909   -1.5422 C   0  0  0  0  0  0  0  0  0  0  0  0
   -4.3619   -2.2007   -0.7697 C   0  0  0  0  0  0  0  0  0  0  0  0
   -5.4360   -2.8341   -1.3906 O   0  0  0  0  0  0  0  0  0  0  0  0
   -4.1974   -2.2698    0.6199 C   0  0  0  0  0  0  0  0  0  0  0  0
   -3.1156   -1.6297    1.2322 C   0  0  0  0  0  0  0  0  0  0  0  0
   -1.3672    2.0632    0.1958 C   0  0  0  0  0  0  0  0  0  0  0  0
   -1.0439    2.3399   -1.1399 C   0  0  0  0  0  0  0  0  0  0  0  0
   -1.7368    3.3331   -1.8385 C   0  0  0  0  0  0  0  0  0  0  0  0
   -2.7523    4.0594   -1.2068 C   0  0  0  0  0  0  0  0  0  0  0  0
   -3.4351    5.0457   -1.9149 O   0  0  0  0  0  0  0  0  0  0  0  0
   -3.0723    3.7886    0.1310 C   0  0  0  0  0  0  0  0  0  0  0  0
   -2.3804    2.7953    0.8307 C   0  0  0  0  0  0  0  0  0  0  0  0
    1.6661    0.5542    1.7759 C   0  0  2  0  0  0  0  0  0  0  0  0
    2.3444    0.9427    0.4826 C   0  0  0  0  0  0  0  0  0  0  0  0
    1.9983    1.9906   -0.1286 O   0  0  0  0  0  0  0  0  0  0  0  0
    3.4277    0.1829    0.0252 O   0  0  0  0  0  0  0  0  0  0  0  0
    4.1741    0.5031   -1.1467 C   0  0  0  0  0  0  0  0  0  0  0  0
    5.1270    1.6619   -0.8784 C   0  0  0  0  0  0  0  0  0  0  0  0
    1.2144   -0.9251    1.9259 C   0  0  2  0  0  0  0  0  0  0  0  0
    1.4273   -1.8428    0.7409 C   0  0  0  0  0  0  0  0  0  0  0  0
    0.9715   -1.5454   -0.3981 O   0  0  0  0  0  0  0  0  0  0  0  0
    2.1398   -3.0324    0.9277 O   0  0  0  0  0  0  0  0  0  0  0  0
    2.4379   -3.9435   -0.1283 C   0  0  0  0  0  0  0  0  0  0  0  0
    3.5400   -3.3899   -1.0245 C   0  0  0  0  0  0  0  0  0  0  0  0
   -0.7259   -1.5654    2.8540 H   0  0  0  0  0  0  0  0  0  0  0  0
    0.4165    2.3286    2.3705 H   0  0  0  0  0  0  0  0  0  0  0  0
   -1.6369   -0.3323   -1.5516 H   0  0  0  0  0  0  0  0  0  0  0  0
   -3.5545   -1.4418   -2.6174 H   0  0  0  0  0  0  0  0  0  0  0  0
   -6.1219   -3.3568   -0.8585 H   0  0  0  0  0  0  0  0  0  0  0  0
   -4.9081   -2.8168    1.2263 H   0  0  0  0  0  0  0  0  0  0  0  0
   -3.0166   -1.6836    2.3086 H   0  0  0  0  0  0  0  0  0  0  0  0
   -0.2617    1.7839   -1.6416 H   0  0  0  0  0  0  0  0  0  0  0  0
   -1.4849    3.5385   -2.8711 H   0  0  0  0  0  0  0  0  0  0  0  0
   -4.1752    5.5888   -1.4858 H   0  0  0  0  0  0  0  0  0  0  0  0
   -3.8556    4.3462    0.6284 H   0  0  0  0  0  0  0  0  0  0  0  0
   -2.6362    2.5931    1.8637 H   0  0  0  0  0  0  0  0  0  0  0  0
    2.3696    0.8017    2.6020 H   0  0  0  0  0  0  0  0  0  0  0  0
    4.7707   -0.3863   -1.4393 H   0  0  0  0  0  0  0  0  0  0  0  0
    3.4889    0.7505   -1.9866 H   0  0  0  0  0  0  0  0  0  0  0  0
    4.5592    2.5822   -0.6287 H   0  0  0  0  0  0  0  0  0  0  0  0
    5.7408    1.8570   -1.7828 H   0  0  0  0  0  0  0  0  0  0  0  0
    5.8014    1.4093   -0.0331 H   0  0  0  0  0  0  0  0  0  0  0  0
    1.7351   -1.3680    2.8046 H   0  0  0  0  0  0  0  0  0  0  0  0
    1.5245   -4.1555   -0.7257 H   0  0  0  0  0  0  0  0  0  0  0  0
    2.7873   -4.8982    0.3181 H   0  0  0  0  0  0  0  0  0  0  0  0
    3.8232   -4.1512   -1.7814 H   0  0  0  0  0  0  0  0  0  0  0  0
    3.1886   -2.4795   -1.5527 H   0  0  0  0  0  0  0  0  0  0  0  0
    4.4336   -3.1367   -0.4156 H   0  0  0  0  0  0  0  0  0  0  0  0
  1  2  1  0
  2  3  1  0
  3  4  1  0
  4  5  2  0
  5  6  1  0
  6  7  2  0
  7  8  1  0
  8  9  2  0
  9 10  1  0
  9 11  1  0
 11 12  2  0
  4 13  1  0
 13 14  2  0
 14 15  1  0
 15 16  2  0
 16 17  1  0
 16 18  1  0
 18 19  2  0
  3 20  1  0
 20 21  1  0
 21 22  2  0
 21 23  1  0
 23 24  1  0
 24 25  1  0
 20 26  1  0
 26 27  1  0
 27 28  2  0
 27 29  1  0
 29 30  1  0
 30 31  1  0
  5  1  1  0
 12  6  1  0
 19 13  1  0
 26  1  1  0
  1 32  1  1
  3 33  1  1
  7 34  1  0
  8 35  1  0
 10 36  1  0
 11 37  1  0
 12 38  1  0
 14 39  1  0
 15 40  1  0
 17 41  1  0
 18 42  1  0
 19 43  1  0
 20 44  1  1
 24 45  1  0
 24 46  1  0
 25 47  1  0
 25 48  1  0
 25 49  1  0
 26 50  1  1
 30 51  1  0
 30 52  1  0
 31 53  1  0
 31 54  1  0
 31 55  1  0
M  END
$$$$
