
     RDKit          3D

 21 21  0  0  0  0  0  0  0  0999 V2000
   -2.4798    0.0693   -1.1180 N   0  0  0  0  0  0  0  0  0  0  0  0
   -2.3145   -0.8553    0.0004 C   0  0  0  0  0  0  0  0  0  0  0  0
   -1.4578   -0.2280    1.1049 C   0  0  0  0  0  0  0  0  0  0  0  0
   -0.0547    0.0436    0.6270 C   0  0  0  0  0  0  0  0  0  0  0  0
    0.2937    1.3093    0.1273 C   0  0  0  0  0  0  0  0  0  0  0  0
    1.5890    1.5502   -0.3411 C   0  0  0  0  0  0  0  0  0  0  0  0
    2.5454    0.5298   -0.3226 C   0  0  0  0  0  0  0  0  0  0  0  0
    3.8319    0.7841   -0.7924 O   0  0  0  0  0  0  0  0  0  0  0  0
    2.2003   -0.7378    0.1657 C   0  0  0  0  0  0  0  0  0  0  0  0
    0.9057   -0.9812    0.6346 C   0  0  0  0  0  0  0  0  0  0  0  0
   -3.0177   -0.4275   -1.8644 H   0  0  0  0  0  0  0  0  0  0  0  0
   -3.0792    0.8650   -0.7988 H   0  0  0  0  0  0  0  0  0  0  0  0
   -1.8325   -1.7912   -0.3592 H   0  0  0  0  0  0  0  0  0  0  0  0
   -3.3114   -1.1212    0.4173 H   0  0  0  0  0  0  0  0  0  0  0  0
   -1.9355    0.7110    1.4612 H   0  0  0  0  0  0  0  0  0  0  0  0
   -1.4252   -0.9217    1.9731 H   0  0  0  0  0  0  0  0  0  0  0  0
   -0.4373    2.1079    0.0987 H   0  0  0  0  0  0  0  0  0  0  0  0
    1.8490    2.5298   -0.7216 H   0  0  0  0  0  0  0  0  0  0  0  0
    4.5469    0.0660   -0.7928 H   0  0  0  0  0  0  0  0  0  0  0  0
    2.9329   -1.5347    0.1797 H   0  0  0  0  0  0  0  0  0  0  0  0
    0.6508   -1.9675    1.0021 H   0  0  0  0  0  0  0  0  0  0  0  0
  1  2  1  0
  2  3  1  0
  3  4  1  0
  4  5  2  0
  5  6  1  0
  6  7  2  0
  7  8  1  0
  7  9  1  0
  9 10  2  0
 10  4  1  0
  1 11  1  0
  1 12  1  0
  2 13  1  0
  2 14  1  0
  3 15  1  0
  3 16  1  0
  5 17  1  0
  6 18  1  0
  8 19  1  0
  9 20  1  0
 10 21  1  0
M  END
$$$$
