
     RDKit          3D

 24 24  0  0  0  0  0  0  0  0999 V2000
   -3.7181    1.2954   -0.7602 C   0  0  0  0  0  0  0  0  0  0  0  0
   -2.2515    1.0511   -0.8675 C   0  0  0  0  0  0  0  0  0  0  0  0
   -1.5777    1.6844   -1.7247 O   0  0  0  0  0  0  0  0  0  0  0  0
   -1.6669    0.0431   -0.0900 O   0  0  0  0  0  0  0  0  0  0  0  0
   -0.2869   -0.1426    0.0940 C   0  0  0  0  0  0  0  0  0  0  0  0
    0.2261   -1.4471    0.2913 C   0  0  0  0  0  0  0  0  0  0  0  0
    1.6105   -1.6153    0.4701 C   0  0  0  0  0  0  0  0  0  0  0  0
    2.4708   -0.5170    0.4768 C   0  0  0  0  0  0  0  0  0  0  0  0
    1.9664    0.7826    0.3339 C   0  0  0  0  0  0  0  0  0  0  0  0
    0.5898    0.9594    0.1256 C   0  0  0  0  0  0  0  0  0  0  0  0
    2.8984    1.9689    0.3128 C   0  0  0  0  0  0  0  0  0  0  0  0
    4.0382    1.7136    1.0559 F   0  0  0  0  0  0  0  0  0  0  0  0
    3.2637    2.2368   -0.9931 F   0  0  0  0  0  0  0  0  0  0  0  0
    2.2774    3.0853    0.8456 F   0  0  0  0  0  0  0  0  0  0  0  0
   -0.6516   -2.6469    0.2949 C   0  0  0  0  0  0  0  0  0  0  0  0
   -0.1039   -3.9119    0.4953 O   0  0  0  0  0  0  0  0  0  0  0  0
   -1.8952   -2.5423    0.1188 O   0  0  0  0  0  0  0  0  0  0  0  0
   -4.0722    1.0267    0.2570 H   0  0  0  0  0  0  0  0  0  0  0  0
   -4.2522    0.6738   -1.5084 H   0  0  0  0  0  0  0  0  0  0  0  0
   -3.9418    2.3672   -0.9460 H   0  0  0  0  0  0  0  0  0  0  0  0
    2.0363   -2.6022    0.6013 H   0  0  0  0  0  0  0  0  0  0  0  0
    3.5331   -0.6860    0.6008 H   0  0  0  0  0  0  0  0  0  0  0  0
    0.1972    1.9613    0.0155 H   0  0  0  0  0  0  0  0  0  0  0  0
   -0.6898   -4.7383    0.5003 H   0  0  0  0  0  0  0  0  0  0  0  0
  1  2  1  0
  2  3  2  0
  2  4  1  0
  4  5  1  0
  5  6  2  0
  6  7  1  0
  7  8  2  0
  8  9  1  0
  9 10  2  0
  9 11  1  0
 11 12  1  0
 11 13  1  0
 11 14  1  0
  6 15  1  0
 15 16  1  0
 15 17  2  0
 10  5  1  0
  1 18  1  0
  1 19  1  0
  1 20  1  0
  7 21  1  0
  8 22  1  0
 10 23  1  0
 16 24  1  0
M  END
$$$$
