
     RDKit          3D

 11 11  0  0  0  0  0  0  0  0999 V2000
    2.3420    0.2007    0.7016 O   0  0  0  0  0  0  0  0  0  0  0  0
    1.0937    0.5779    0.2166 C   0  0  0  0  0  0  0  0  0  0  0  0
    0.9137    1.7564   -0.1887 O   0  0  0  0  0  0  0  0  0  0  0  0
    0.0027   -0.4077    0.1853 C   0  0  0  0  0  0  0  0  0  0  0  0
    0.1332   -1.6790    0.6036 N   0  0  0  0  0  0  0  0  0  0  0  0
   -1.0319   -2.2372    0.4226 O   0  0  0  0  0  0  0  0  0  0  0  0
   -1.9274   -1.4360   -0.0837 N   0  0  0  0  0  0  0  0  0  0  0  0
   -1.2990   -0.2615   -0.2467 C   0  0  0  0  0  0  0  0  0  0  0  0
   -1.9133    0.8743   -0.7689 O   0  0  0  0  0  0  0  0  0  0  0  0
    3.1091    0.8616    0.7332 H   0  0  0  0  0  0  0  0  0  0  0  0
   -1.4227    1.7504   -0.8840 H   0  0  0  0  0  0  0  0  0  0  0  0
  1  2  1  0
  2  3  2  0
  2  4  1  0
  4  5  2  0
  5  6  1  0
  6  7  1  0
  7  8  2  0
  8  9  1  0
  8  4  1  0
  1 10  1  0
  9 11  1  0
M  END
$$$$
