
     RDKit          2D

258257  0  0  0  0  0  0  0  0999 V2000
   -6.4952  -36.7500    0.0000 C   0  0  0  0  0  0  0  0  0  0  0  0
   -6.4952  -35.2500    0.0000 C   0  0  0  0  0  0  0  0  0  0  0  0
   -6.4952  -33.7500    0.0000 C   0  0  0  0  0  0  0  0  0  0  0  0
   -6.4952  -32.2500    0.0000 C   0  0  0  0  0  0  0  0  0  0  0  0
   -6.4952  -30.7500    0.0000 C   0  0  0  0  0  0  0  0  0  0  0  0
   -6.4952  -29.2500    0.0000 C   0  0  0  0  0  0  0  0  0  0  0  0
   -6.4952  -27.7500    0.0000 C   0  0  0  0  0  0  0  0  0  0  0  0
   -6.4952  -26.2500    0.0000 C   0  0  0  0  0  0  0  0  0  0  0  0
   -6.4952  -24.7500    0.0000 C   0  0  0  0  0  0  0  0  0  0  0  0
   -6.4952  -23.2500    0.0000 C   0  0  0  0  0  0  0  0  0  0  0  0
   -6.4952  -21.7500    0.0000 C   0  0  0  0  0  0  0  0  0  0  0  0
   -6.4952  -20.2500    0.0000 C   0  0  0  0  0  0  0  0  0  0  0  0
   -6.4952  -18.7500    0.0000 C   0  0  0  0  0  0  0  0  0  0  0  0
   -6.4952  -17.2500    0.0000 C   0  0  0  0  0  0  0  0  0  0  0  0
   -6.4952  -15.7500    0.0000 C   0  0  0  0  0  0  0  0  0  0  0  0
   -6.4952  -14.2500    0.0000 C   0  0  0  0  0  0  0  0  0  0  0  0
   -6.4952  -12.7500    0.0000 C   0  0  0  0  0  0  0  0  0  0  0  0
   -6.4952  -11.2500    0.0000 C   0  0  0  0  0  0  0  0  0  0  0  0
   -7.7942  -10.5000    0.0000 O   0  0  0  0  0  0  0  0  0  0  0  0
   -5.1962  -10.5000    0.0000 O   0  0  0  0  0  0  0  0  0  0  0  0
   -5.1962   -9.0000    0.0000 C   0  0  0  0  0  0  0  0  0  0  0  0
   -5.1962   -7.5000    0.0000 C   0  0  0  0  0  0  0  0  0  0  0  0
   -5.1962   -6.0000    0.0000 C   0  0  0  0  0  0  0  0  0  0  0  0
   -5.1962   -4.5000    0.0000 O   0  0  0  0  0  0  0  0  0  0  0  0
   -6.4952   -3.7500    0.0000 P   0  0  0  0  0  5  0  0  0  0  0  0
   -5.7452   -2.4510    0.0000 O   0  0  0  0  0  0  0  0  0  0  0  0
   -7.8760   -3.1639    0.0000 O   0  0  0  0  0  0  0  0  0  0  0  0
   -7.2452   -5.0490    0.0000 O   0  0  0  0  0  0  0  0  0  0  0  0
   -8.7452   -5.0490    0.0000 C   0  0  0  0  0  0  0  0  0  0  0  0
  -10.2452   -5.0490    0.0000 C   0  0  0  0  0  0  0  0  0  0  0  0
  -10.2452   -3.5490    0.0000 O   0  0  0  0  0  0  0  0  0  0  0  0
  -11.7452   -5.0490    0.0000 C   0  0  0  0  0  0  0  0  0  0  0  0
  -13.2452   -5.0490    0.0000 O   0  0  0  0  0  0  0  0  0  0  0  0
  -13.9952   -3.7500    0.0000 P   0  0  0  0  0  5  0  0  0  0  0  0
  -12.6962   -3.0000    0.0000 O   0  0  0  0  0  0  0  0  0  0  0  0
  -14.7452   -2.4510    0.0000 O   0  0  0  0  0  0  0  0  0  0  0  0
  -15.2942   -4.5000    0.0000 O   0  0  0  0  0  0  0  0  0  0  0  0
  -16.5933   -3.7500    0.0000 C   0  0  0  0  0  0  0  0  0  0  0  0
  -17.8923   -3.0000    0.0000 C   0  0  0  0  0  0  0  0  0  0  0  0
  -19.1913   -2.2500    0.0000 C   0  0  0  0  0  0  0  0  0  0  0  0
  -20.4904   -1.5000    0.0000 O   0  0  0  0  0  0  0  0  0  0  0  0
  -20.4904    0.0000    0.0000 C   0  0  0  0  0  0  0  0  0  0  0  0
  -19.1913    0.7500    0.0000 O   0  0  0  0  0  0  0  0  0  0  0  0
  -21.7894    0.7500    0.0000 C   0  0  0  0  0  0  0  0  0  0  0  0
  -23.0885    1.5000    0.0000 C   0  0  0  0  0  0  0  0  0  0  0  0
  -24.3875    2.2500    0.0000 C   0  0  0  0  0  0  0  0  0  0  0  0
  -25.6865    3.0000    0.0000 C   0  0  0  0  0  0  0  0  0  0  0  0
  -26.9856    3.7500    0.0000 C   0  0  0  0  0  0  0  0  0  0  0  0
  -28.2846    4.5000    0.0000 C   0  0  0  0  0  0  0  0  0  0  0  0
  -29.5836    5.2500    0.0000 C   0  0  0  0  0  0  0  0  0  0  0  0
  -30.8827    6.0000    0.0000 C   0  0  0  0  0  0  0  0  0  0  0  0
  -32.1817    6.7500    0.0000 C   0  0  0  0  0  0  0  0  0  0  0  0
  -33.4808    7.5000    0.0000 C   0  0  0  0  0  0  0  0  0  0  0  0
  -34.7798    8.2500    0.0000 C   0  0  0  0  0  0  0  0  0  0  0  0
  -36.0788    9.0000    0.0000 C   0  0  0  0  0  0  0  0  0  0  0  0
  -37.3779    9.7500    0.0000 C   0  0  0  0  0  0  0  0  0  0  0  0
  -38.6769   10.5000    0.0000 C   0  0  0  0  0  0  0  0  0  0  0  0
  -39.9760   11.2500    0.0000 C   0  0  0  0  0  0  0  0  0  0  0  0
  -41.2750   12.0000    0.0000 C   0  0  0  0  0  0  0  0  0  0  0  0
  -42.5740   12.7500    0.0000 C   0  0  0  0  0  0  0  0  0  0  0  0
  -17.1423   -1.7010    0.0000 O   0  0  0  0  0  0  0  0  0  0  0  0
  -17.8923   -0.4019    0.0000 C   0  0  0  0  0  0  0  0  0  0  0  0
  -19.3923   -0.4019    0.0000 O   0  0  0  0  0  0  0  0  0  0  0  0
  -17.1423    0.8971    0.0000 C   0  0  0  0  0  0  0  0  0  0  0  0
  -16.3923    2.1962    0.0000 C   0  0  0  0  0  0  0  0  0  0  0  0
  -15.6423    3.4952    0.0000 C   0  0  0  0  0  0  0  0  0  0  0  0
  -14.8923    4.7942    0.0000 C   0  0  0  0  0  0  0  0  0  0  0  0
  -14.1423    6.0933    0.0000 C   0  0  0  0  0  0  0  0  0  0  0  0
  -13.3923    7.3923    0.0000 C   0  0  0  0  0  0  0  0  0  0  0  0
  -12.6423    8.6913    0.0000 C   0  0  0  0  0  0  0  0  0  0  0  0
  -11.8923    9.9904    0.0000 C   0  0  0  0  0  0  0  0  0  0  0  0
  -11.1423   11.2894    0.0000 C   0  0  0  0  0  0  0  0  0  0  0  0
  -10.3923   12.5885    0.0000 C   0  0  0  0  0  0  0  0  0  0  0  0
   -9.6423   13.8875    0.0000 C   0  0  0  0  0  0  0  0  0  0  0  0
   -8.8923   15.1865    0.0000 C   0  0  0  0  0  0  0  0  0  0  0  0
   -8.1423   16.4856    0.0000 C   0  0  0  0  0  0  0  0  0  0  0  0
   -7.3923   17.7846    0.0000 C   0  0  0  0  0  0  0  0  0  0  0  0
   -6.6423   19.0836    0.0000 C   0  0  0  0  0  0  0  0  0  0  0  0
   -5.8923   20.3827    0.0000 C   0  0  0  0  0  0  0  0  0  0  0  0
   -5.1423   21.6817    0.0000 C   0  0  0  0  0  0  0  0  0  0  0  0
   -6.6962   -7.5000    0.0000 O   0  0  0  0  0  0  0  0  0  0  0  0
   -7.4462   -6.2010    0.0000 C   0  0  0  0  0  0  0  0  0  0  0  0
   -8.9350   -6.3838    0.0000 O   0  0  0  0  0  0  0  0  0  0  0  0
   -6.6962   -4.9019    0.0000 C   0  0  0  0  0  0  0  0  0  0  0  0
   -5.9462   -3.6029    0.0000 C   0  0  0  0  0  0  0  0  0  0  0  0
   -5.1962   -2.3038    0.0000 C   0  0  0  0  0  0  0  0  0  0  0  0
   -4.4462   -1.0048    0.0000 C   0  0  0  0  0  0  0  0  0  0  0  0
   -3.6962    0.2942    0.0000 C   0  0  0  0  0  0  0  0  0  0  0  0
   -2.9462    1.5933    0.0000 C   0  0  0  0  0  0  0  0  0  0  0  0
   -2.1962    2.8923    0.0000 C   0  0  0  0  0  0  0  0  0  0  0  0
   -1.4462    4.1913    0.0000 C   0  0  0  0  0  0  0  0  0  0  0  0
   -0.6962    5.4904    0.0000 C   0  0  0  0  0  0  0  0  0  0  0  0
    0.0538    6.7894    0.0000 C   0  0  0  0  0  0  0  0  0  0  0  0
    0.8038    8.0885    0.0000 C   0  0  0  0  0  0  0  0  0  0  0  0
    1.5538    9.3875    0.0000 C   0  0  0  0  0  0  0  0  0  0  0  0
    2.3038   10.6865    0.0000 C   0  0  0  0  0  0  0  0  0  0  0  0
    3.0538   11.9856    0.0000 C   0  0  0  0  0  0  0  0  0  0  0  0
    3.8038   13.2846    0.0000 C   0  0  0  0  0  0  0  0  0  0  0  0
    4.5538   14.5836    0.0000 C   0  0  0  0  0  0  0  0  0  0  0  0
    5.3038   15.8827    0.0000 C   0  0  0  0  0  0  0  0  0  0  0  0
   -6.4952  -38.2500    0.0000 H   0  0  0  0  0  0  0  0  0  0  0  0
   -4.9952  -36.7500    0.0000 H   0  0  0  0  0  0  0  0  0  0  0  0
   -7.9952  -36.7500    0.0000 H   0  0  0  0  0  0  0  0  0  0  0  0
   -4.9952  -35.2500    0.0000 H   0  0  0  0  0  0  0  0  0  0  0  0
   -7.9952  -35.2500    0.0000 H   0  0  0  0  0  0  0  0  0  0  0  0
   -7.9952  -33.7500    0.0000 H   0  0  0  0  0  0  0  0  0  0  0  0
   -4.9952  -33.7500    0.0000 H   0  0  0  0  0  0  0  0  0  0  0  0
   -4.9952  -32.2500    0.0000 H   0  0  0  0  0  0  0  0  0  0  0  0
   -7.9952  -32.2500    0.0000 H   0  0  0  0  0  0  0  0  0  0  0  0
   -7.9952  -30.7500    0.0000 H   0  0  0  0  0  0  0  0  0  0  0  0
   -4.9952  -30.7500    0.0000 H   0  0  0  0  0  0  0  0  0  0  0  0
   -4.9952  -29.2500    0.0000 H   0  0  0  0  0  0  0  0  0  0  0  0
   -7.9952  -29.2500    0.0000 H   0  0  0  0  0  0  0  0  0  0  0  0
   -7.9952  -27.7500    0.0000 H   0  0  0  0  0  0  0  0  0  0  0  0
   -4.9952  -27.7500    0.0000 H   0  0  0  0  0  0  0  0  0  0  0  0
   -4.9952  -26.2500    0.0000 H   0  0  0  0  0  0  0  0  0  0  0  0
   -7.9952  -26.2500    0.0000 H   0  0  0  0  0  0  0  0  0  0  0  0
   -7.9952  -24.7500    0.0000 H   0  0  0  0  0  0  0  0  0  0  0  0
   -4.9952  -24.7500    0.0000 H   0  0  0  0  0  0  0  0  0  0  0  0
   -4.9952  -23.2500    0.0000 H   0  0  0  0  0  0  0  0  0  0  0  0
   -7.9952  -23.2500    0.0000 H   0  0  0  0  0  0  0  0  0  0  0  0
   -7.9952  -21.7500    0.0000 H   0  0  0  0  0  0  0  0  0  0  0  0
   -4.9952  -21.7500    0.0000 H   0  0  0  0  0  0  0  0  0  0  0  0
   -4.9952  -20.2500    0.0000 H   0  0  0  0  0  0  0  0  0  0  0  0
   -7.9952  -20.2500    0.0000 H   0  0  0  0  0  0  0  0  0  0  0  0
   -7.9952  -18.7500    0.0000 H   0  0  0  0  0  0  0  0  0  0  0  0
   -4.9952  -18.7500    0.0000 H   0  0  0  0  0  0  0  0  0  0  0  0
   -4.9952  -17.2500    0.0000 H   0  0  0  0  0  0  0  0  0  0  0  0
   -7.9952  -17.2500    0.0000 H   0  0  0  0  0  0  0  0  0  0  0  0
   -7.9952  -15.7500    0.0000 H   0  0  0  0  0  0  0  0  0  0  0  0
   -4.9952  -15.7500    0.0000 H   0  0  0  0  0  0  0  0  0  0  0  0
   -4.9952  -14.2500    0.0000 H   0  0  0  0  0  0  0  0  0  0  0  0
   -7.9952  -14.2500    0.0000 H   0  0  0  0  0  0  0  0  0  0  0  0
   -4.9952  -12.7500    0.0000 H   0  0  0  0  0  0  0  0  0  0  0  0
   -7.9952  -12.7500    0.0000 H   0  0  0  0  0  0  0  0  0  0  0  0
   -6.6962   -9.0000    0.0000 H   0  0  0  0  0  0  0  0  0  0  0  0
   -3.6962   -9.0000    0.0000 H   0  0  0  0  0  0  0  0  0  0  0  0
   -3.6962   -7.5000    0.0000 H   0  0  0  0  0  0  0  0  0  0  0  0
   -3.6962   -6.0000    0.0000 H   0  0  0  0  0  0  0  0  0  0  0  0
   -6.6516   -5.6370    0.0000 H   0  0  0  0  0  0  0  0  0  0  0  0
   -6.6479   -1.2530    0.0000 H   0  0  0  0  0  0  0  0  0  0  0  0
   -8.7452   -3.5490    0.0000 H   0  0  0  0  0  0  0  0  0  0  0  0
   -8.9280   -6.5379    0.0000 H   0  0  0  0  0  0  0  0  0  0  0  0
  -10.2452   -6.5490    0.0000 H   0  0  0  0  0  0  0  0  0  0  0  0
  -11.4431   -2.6463    0.0000 H   0  0  0  0  0  0  0  0  0  0  0  0
  -11.7452   -6.5490    0.0000 H   0  0  0  0  0  0  0  0  0  0  0  0
  -11.9280   -3.5602    0.0000 H   0  0  0  0  0  0  0  0  0  0  0  0
  -12.6962   -1.5000    0.0000 H   0  0  0  0  0  0  0  0  0  0  0  0
  -15.8433   -2.4510    0.0000 H   0  0  0  0  0  0  0  0  0  0  0  0
  -17.3433   -5.0490    0.0000 H   0  0  0  0  0  0  0  0  0  0  0  0
  -18.6423   -4.2990    0.0000 H   0  0  0  0  0  0  0  0  0  0  0  0
  -19.9413   -3.5490    0.0000 H   0  0  0  0  0  0  0  0  0  0  0  0
  -18.7780   -0.8081    0.0000 H   0  0  0  0  0  0  0  0  0  0  0  0
  -21.0394    2.0490    0.0000 H   0  0  0  0  0  0  0  0  0  0  0  0
  -22.5394   -0.5490    0.0000 H   0  0  0  0  0  0  0  0  0  0  0  0
  -23.8385    0.2010    0.0000 H   0  0  0  0  0  0  0  0  0  0  0  0
  -22.3385    2.7990    0.0000 H   0  0  0  0  0  0  0  0  0  0  0  0
  -23.6375    3.5490    0.0000 H   0  0  0  0  0  0  0  0  0  0  0  0
  -25.1375    0.9510    0.0000 H   0  0  0  0  0  0  0  0  0  0  0  0
  -26.4365    1.7010    0.0000 H   0  0  0  0  0  0  0  0  0  0  0  0
  -24.9365    4.2990    0.0000 H   0  0  0  0  0  0  0  0  0  0  0  0
  -26.2356    5.0490    0.0000 H   0  0  0  0  0  0  0  0  0  0  0  0
  -27.7356    2.4510    0.0000 H   0  0  0  0  0  0  0  0  0  0  0  0
  -29.0346    3.2010    0.0000 H   0  0  0  0  0  0  0  0  0  0  0  0
  -27.5346    5.7990    0.0000 H   0  0  0  0  0  0  0  0  0  0  0  0
  -28.8336    6.5490    0.0000 H   0  0  0  0  0  0  0  0  0  0  0  0
  -30.3336    3.9510    0.0000 H   0  0  0  0  0  0  0  0  0  0  0  0
  -31.6327    4.7010    0.0000 H   0  0  0  0  0  0  0  0  0  0  0  0
  -30.1327    7.2990    0.0000 H   0  0  0  0  0  0  0  0  0  0  0  0
  -31.4317    8.0490    0.0000 H   0  0  0  0  0  0  0  0  0  0  0  0
  -32.9317    5.4510    0.0000 H   0  0  0  0  0  0  0  0  0  0  0  0
  -34.2308    6.2010    0.0000 H   0  0  0  0  0  0  0  0  0  0  0  0
  -32.7308    8.7990    0.0000 H   0  0  0  0  0  0  0  0  0  0  0  0
  -34.0298    9.5490    0.0000 H   0  0  0  0  0  0  0  0  0  0  0  0
  -35.5298    6.9510    0.0000 H   0  0  0  0  0  0  0  0  0  0  0  0
  -36.8288    7.7010    0.0000 H   0  0  0  0  0  0  0  0  0  0  0  0
  -35.3288   10.2990    0.0000 H   0  0  0  0  0  0  0  0  0  0  0  0
  -36.6279   11.0490    0.0000 H   0  0  0  0  0  0  0  0  0  0  0  0
  -38.1279    8.4510    0.0000 H   0  0  0  0  0  0  0  0  0  0  0  0
  -39.4269    9.2010    0.0000 H   0  0  0  0  0  0  0  0  0  0  0  0
  -37.9269   11.7990    0.0000 H   0  0  0  0  0  0  0  0  0  0  0  0
  -39.2260   12.5490    0.0000 H   0  0  0  0  0  0  0  0  0  0  0  0
  -40.7260    9.9510    0.0000 H   0  0  0  0  0  0  0  0  0  0  0  0
  -42.0250   10.7010    0.0000 H   0  0  0  0  0  0  0  0  0  0  0  0
  -40.5250   13.2990    0.0000 H   0  0  0  0  0  0  0  0  0  0  0  0
  -43.8731   13.5000    0.0000 H   0  0  0  0  0  0  0  0  0  0  0  0
  -41.8240   14.0490    0.0000 H   0  0  0  0  0  0  0  0  0  0  0  0
  -43.3240   11.4510    0.0000 H   0  0  0  0  0  0  0  0  0  0  0  0
  -18.4413    1.6471    0.0000 H   0  0  0  0  0  0  0  0  0  0  0  0
  -15.8433    0.1471    0.0000 H   0  0  0  0  0  0  0  0  0  0  0  0
  -15.0933    1.4462    0.0000 H   0  0  0  0  0  0  0  0  0  0  0  0
  -17.6913    2.9462    0.0000 H   0  0  0  0  0  0  0  0  0  0  0  0
  -16.9413    4.2452    0.0000 H   0  0  0  0  0  0  0  0  0  0  0  0
  -14.3433    2.7452    0.0000 H   0  0  0  0  0  0  0  0  0  0  0  0
  -13.5933    4.0442    0.0000 H   0  0  0  0  0  0  0  0  0  0  0  0
  -16.1913    5.5442    0.0000 H   0  0  0  0  0  0  0  0  0  0  0  0
  -15.4413    6.8433    0.0000 H   0  0  0  0  0  0  0  0  0  0  0  0
  -12.8433    5.3433    0.0000 H   0  0  0  0  0  0  0  0  0  0  0  0
  -14.6913    8.1423    0.0000 H   0  0  0  0  0  0  0  0  0  0  0  0
  -12.0933    6.6423    0.0000 H   0  0  0  0  0  0  0  0  0  0  0  0
  -11.3433    7.9413    0.0000 H   0  0  0  0  0  0  0  0  0  0  0  0
  -13.9413    9.4413    0.0000 H   0  0  0  0  0  0  0  0  0  0  0  0
  -13.1913   10.7404    0.0000 H   0  0  0  0  0  0  0  0  0  0  0  0
  -10.5933    9.2404    0.0000 H   0  0  0  0  0  0  0  0  0  0  0  0
   -9.8433   10.5394    0.0000 H   0  0  0  0  0  0  0  0  0  0  0  0
  -12.4413   12.0394    0.0000 H   0  0  0  0  0  0  0  0  0  0  0  0
   -9.0933   11.8385    0.0000 H   0  0  0  0  0  0  0  0  0  0  0  0
  -11.6913   13.3385    0.0000 H   0  0  0  0  0  0  0  0  0  0  0  0
   -8.3433   13.1375    0.0000 H   0  0  0  0  0  0  0  0  0  0  0  0
  -10.9413   14.6375    0.0000 H   0  0  0  0  0  0  0  0  0  0  0  0
  -10.1913   15.9365    0.0000 H   0  0  0  0  0  0  0  0  0  0  0  0
   -7.5933   14.4365    0.0000 H   0  0  0  0  0  0  0  0  0  0  0  0
   -6.8433   15.7356    0.0000 H   0  0  0  0  0  0  0  0  0  0  0  0
   -9.4413   17.2356    0.0000 H   0  0  0  0  0  0  0  0  0  0  0  0
   -8.6913   18.5346    0.0000 H   0  0  0  0  0  0  0  0  0  0  0  0
   -6.0933   17.0346    0.0000 H   0  0  0  0  0  0  0  0  0  0  0  0
   -5.3433   18.3336    0.0000 H   0  0  0  0  0  0  0  0  0  0  0  0
   -7.9413   19.8336    0.0000 H   0  0  0  0  0  0  0  0  0  0  0  0
   -7.1913   21.1327    0.0000 H   0  0  0  0  0  0  0  0  0  0  0  0
   -4.5933   19.6327    0.0000 H   0  0  0  0  0  0  0  0  0  0  0  0
   -4.3923   22.9808    0.0000 H   0  0  0  0  0  0  0  0  0  0  0  0
   -3.8433   20.9317    0.0000 H   0  0  0  0  0  0  0  0  0  0  0  0
   -6.4413   22.4317    0.0000 H   0  0  0  0  0  0  0  0  0  0  0  0
   -7.9952   -4.1519    0.0000 H   0  0  0  0  0  0  0  0  0  0  0  0
   -5.2542   -5.3153    0.0000 H   0  0  0  0  0  0  0  0  0  0  0  0
   -4.5042   -4.0163    0.0000 H   0  0  0  0  0  0  0  0  0  0  0  0
   -7.1441   -2.7001    0.0000 H   0  0  0  0  0  0  0  0  0  0  0  0
   -6.3941   -1.4011    0.0000 H   0  0  0  0  0  0  0  0  0  0  0  0
   -3.8971   -3.0538    0.0000 H   0  0  0  0  0  0  0  0  0  0  0  0
   -3.1471   -1.7548    0.0000 H   0  0  0  0  0  0  0  0  0  0  0  0
   -5.7452   -0.2548    0.0000 H   0  0  0  0  0  0  0  0  0  0  0  0
   -4.9952    1.0442    0.0000 H   0  0  0  0  0  0  0  0  0  0  0  0
   -2.3971   -0.4558    0.0000 H   0  0  0  0  0  0  0  0  0  0  0  0
   -1.6471    0.8433    0.0000 H   0  0  0  0  0  0  0  0  0  0  0  0
   -4.2452    2.3433    0.0000 H   0  0  0  0  0  0  0  0  0  0  0  0
   -3.4952    3.6423    0.0000 H   0  0  0  0  0  0  0  0  0  0  0  0
   -0.8971    2.1423    0.0000 H   0  0  0  0  0  0  0  0  0  0  0  0
   -0.1471    3.4413    0.0000 H   0  0  0  0  0  0  0  0  0  0  0  0
   -2.7452    4.9413    0.0000 H   0  0  0  0  0  0  0  0  0  0  0  0
   -1.9952    6.2404    0.0000 H   0  0  0  0  0  0  0  0  0  0  0  0
    0.6029    4.7404    0.0000 H   0  0  0  0  0  0  0  0  0  0  0  0
    1.3529    6.0394    0.0000 H   0  0  0  0  0  0  0  0  0  0  0  0
   -1.2452    7.5394    0.0000 H   0  0  0  0  0  0  0  0  0  0  0  0
   -0.4952    8.8385    0.0000 H   0  0  0  0  0  0  0  0  0  0  0  0
    2.1029    7.3385    0.0000 H   0  0  0  0  0  0  0  0  0  0  0  0
    2.8529    8.6375    0.0000 H   0  0  0  0  0  0  0  0  0  0  0  0
    0.2548   10.1375    0.0000 H   0  0  0  0  0  0  0  0  0  0  0  0
    1.0048   11.4365    0.0000 H   0  0  0  0  0  0  0  0  0  0  0  0
    3.6029    9.9365    0.0000 H   0  0  0  0  0  0  0  0  0  0  0  0
    4.3529   11.2356    0.0000 H   0  0  0  0  0  0  0  0  0  0  0  0
    1.7548   12.7356    0.0000 H   0  0  0  0  0  0  0  0  0  0  0  0
    2.5048   14.0346    0.0000 H   0  0  0  0  0  0  0  0  0  0  0  0
    5.1029   12.5346    0.0000 H   0  0  0  0  0  0  0  0  0  0  0  0
    5.8529   13.8336    0.0000 H   0  0  0  0  0  0  0  0  0  0  0  0
    3.2548   15.3336    0.0000 H   0  0  0  0  0  0  0  0  0  0  0  0
    6.0538   17.1817    0.0000 H   0  0  0  0  0  0  0  0  0  0  0  0
    4.0048   16.6327    0.0000 H   0  0  0  0  0  0  0  0  0  0  0  0
    6.6029   15.1327    0.0000 H   0  0  0  0  0  0  0  0  0  0  0  0
  1  2  1  0
  2  3  1  0
  3  4  1  0
  4  5  1  0
  5  6  1  0
  6  7  1  0
  7  8  1  0
  8  9  1  0
  9 10  1  0
 10 11  1  0
 11 12  1  0
 12 13  1  0
 13 14  1  0
 14 15  1  0
 15 16  1  0
 16 17  1  0
 17 18  1  0
 18 19  2  0
 18 20  1  0
 20 21  1  0
 21 22  1  0
 22 23  1  0
 23 24  1  0
 24 25  1  0
 25 26  1  0
 25 27  2  0
 25 28  1  0
 28 29  1  0
 29 30  1  0
 30 31  1  0
 30 32  1  0
 32 33  1  0
 33 34  1  0
 34 35  1  0
 34 36  2  0
 34 37  1  0
 37 38  1  0
 38 39  1  0
 39 40  1  0
 40 41  1  0
 41 42  1  0
 42 43  2  0
 42 44  1  0
 44 45  1  0
 45 46  1  0
 46 47  1  0
 47 48  1  0
 48 49  1  0
 49 50  1  0
 50 51  1  0
 51 52  1  0
 52 53  1  0
 53 54  1  0
 54 55  1  0
 55 56  1  0
 56 57  1  0
 57 58  1  0
 58 59  1  0
 59 60  1  0
 39 61  1  0
 61 62  1  0
 62 63  2  0
 62 64  1  0
 64 65  1  0
 65 66  1  0
 66 67  1  0
 67 68  1  0
 68 69  1  0
 69 70  1  0
 70 71  1  0
 71 72  1  0
 72 73  1  0
 73 74  1  0
 74 75  1  0
 75 76  1  0
 76 77  1  0
 77 78  1  0
 78 79  1  0
 79 80  1  0
 22 81  1  0
 81 82  1  0
 82 83  2  0
 82 84  1  0
 84 85  1  0
 85 86  1  0
 86 87  1  0
 87 88  1  0
 88 89  1  0
 89 90  1  0
 90 91  1  0
 91 92  1  0
 92 93  1  0
 93 94  1  0
 94 95  1  0
 95 96  1  0
 96 97  1  0
 97 98  1  0
 98 99  1  0
 99100  1  0
  1101  1  0
  1102  1  0
  1103  1  0
  2104  1  0
  2105  1  0
  3106  1  0
  3107  1  0
  4108  1  0
  4109  1  0
  5110  1  0
  5111  1  0
  6112  1  0
  6113  1  0
  7114  1  0
  7115  1  0
  8116  1  0
  8117  1  0
  9118  1  0
  9119  1  0
 10120  1  0
 10121  1  0
 11122  1  0
 11123  1  0
 12124  1  0
 12125  1  0
 13126  1  0
 13127  1  0
 14128  1  0
 14129  1  0
 15130  1  0
 15131  1  0
 16132  1  0
 16133  1  0
 17134  1  0
 17135  1  0
 21136  1  0
 21137  1  0
 22138  1  6
 23139  1  0
 23140  1  0
 26141  1  0
 29142  1  0
 29143  1  0
 30144  1  0
 31145  1  0
 32146  1  0
 32147  1  0
 35148  1  0
 38149  1  0
 38150  1  0
 39151  1  6
 40152  1  0
 40153  1  0
 44154  1  0
 44155  1  0
 45156  1  0
 45157  1  0
 46158  1  0
 46159  1  0
 47160  1  0
 47161  1  0
 48162  1  0
 48163  1  0
 49164  1  0
 49165  1  0
 50166  1  0
 50167  1  0
 51168  1  0
 51169  1  0
 52170  1  0
 52171  1  0
 53172  1  0
 53173  1  0
 54174  1  0
 54175  1  0
 55176  1  0
 55177  1  0
 56178  1  0
 56179  1  0
 57180  1  0
 57181  1  0
 58182  1  0
 58183  1  0
 59184  1  0
 59185  1  0
 60186  1  0
 60187  1  0
 60188  1  0
 64189  1  0
 64190  1  0
 65191  1  0
 65192  1  0
 66193  1  0
 66194  1  0
 67195  1  0
 67196  1  0
 68197  1  0
 68198  1  0
 69199  1  0
 69200  1  0
 70201  1  0
 70202  1  0
 71203  1  0
 71204  1  0
 72205  1  0
 72206  1  0
 73207  1  0
 73208  1  0
 74209  1  0
 74210  1  0
 75211  1  0
 75212  1  0
 76213  1  0
 76214  1  0
 77215  1  0
 77216  1  0
 78217  1  0
 78218  1  0
 79219  1  0
 79220  1  0
 80221  1  0
 80222  1  0
 80223  1  0
 84224  1  0
 84225  1  0
 85226  1  0
 85227  1  0
 86228  1  0
 86229  1  0
 87230  1  0
 87231  1  0
 88232  1  0
 88233  1  0
 89234  1  0
 89235  1  0
 90236  1  0
 90237  1  0
 91238  1  0
 91239  1  0
 92240  1  0
 92241  1  0
 93242  1  0
 93243  1  0
 94244  1  0
 94245  1  0
 95246  1  0
 95247  1  0
 96248  1  0
 96249  1  0
 97250  1  0
 97251  1  0
 98252  1  0
 98253  1  0
 99254  1  0
 99255  1  0
100256  1  0
100257  1  0
100258  1  0
M  END
$$$$
