
     RDKit          3D

 82 84  0  0  0  0  0  0  0  0999 V2000
   -7.4914    2.2072    5.3343 C   0  0  0  0  0  0  0  0  0  0  0  0
   -8.3342    1.9229    4.0932 C   0  0  0  0  0  0  0  0  0  0  0  0
   -7.7020    2.5154    2.8283 C   0  0  0  0  0  0  0  0  0  0  0  0
   -6.4146    1.9497    2.5773 O   0  0  0  0  0  0  0  0  0  0  0  0
   -6.1717    0.6588    2.0809 C   0  0  0  0  0  0  0  0  0  0  0  0
   -4.8350    0.2204    2.0164 C   0  0  0  0  0  0  0  0  0  0  0  0
   -4.5789   -1.0566    1.5177 C   0  0  0  0  0  0  0  0  0  0  0  0
   -5.5874   -1.8803    1.0936 C   0  0  0  0  0  0  0  0  0  0  0  0
   -5.0976   -3.0404    0.6229 N   0  0  0  0  0  0  0  0  0  0  0  0
   -3.7533   -2.9547    0.7428 C   0  0  0  0  0  0  0  0  0  0  0  0
   -3.3931   -1.7354    1.3084 C   0  0  0  0  0  0  0  0  0  0  0  0
   -1.9946   -1.2204    1.4972 C   0  0  0  0  0  0  0  0  0  0  0  0
   -1.5046   -0.4785    0.2413 C   0  0  1  0  0  0  0  0  0  0  0  0
   -2.3429    0.7084    0.0081 N   0  0  0  0  0  0  0  0  0  0  0  0
   -2.0978    1.3765   -1.5808 S   0  0  0  0  0  6  0  0  0  0  0  0
   -2.0462    0.2815   -2.6099 O   0  0  0  0  0  0  0  0  0  0  0  0
   -0.8113    2.1538   -1.6166 O   0  0  0  0  0  0  0  0  0  0  0  0
   -3.4589    2.4623   -1.9752 C   0  0  0  0  0  0  0  0  0  0  0  0
   -3.6381    3.5320   -0.9052 C   0  0  0  0  0  0  0  0  0  0  0  0
   -0.0493   -0.0982    0.3910 C   0  0  0  0  0  0  0  0  0  0  0  0
    0.3264    0.5497    1.4067 O   0  0  0  0  0  0  0  0  0  0  0  0
    0.8928   -0.4356   -0.6385 N   0  0  0  0  0  0  0  0  0  0  0  0
    2.3124   -0.0832   -0.5451 C   0  0  1  0  0  0  0  0  0  0  0  0
    3.0408   -1.0778    0.3868 C   0  0  0  0  0  0  0  0  0  0  0  0
    4.5430   -0.7923    0.5560 C   0  0  0  0  0  0  0  0  0  0  0  0
    4.7959    0.5470    1.1834 C   0  0  0  0  0  0  0  0  0  0  0  0
    5.2985    1.6307    0.4014 N   0  0  0  0  0  0  0  0  0  0  0  0
    4.5461    0.7223    2.4058 O   0  0  0  0  0  0  0  0  0  0  0  0
    2.9249   -0.0497   -1.9232 C   0  0  0  0  0  0  0  0  0  0  0  0
    3.3164    1.0514   -2.3969 O   0  0  0  0  0  0  0  0  0  0  0  0
    3.0643   -1.2527   -2.6938 N   0  0  0  0  0  0  0  0  0  0  0  0
    3.9853   -1.3456   -3.8234 C   0  0  0  0  0  0  0  0  0  0  0  0
    5.4035   -1.3451   -3.3224 C   0  0  0  0  0  0  0  0  0  0  0  0
    6.1728   -0.1729   -3.3606 C   0  0  0  0  0  0  0  0  0  0  0  0
    7.4588   -0.1542   -2.8137 C   0  0  0  0  0  0  0  0  0  0  0  0
    7.9946   -1.3052   -2.2114 C   0  0  0  0  0  0  0  0  0  0  0  0
    7.2208   -2.4790   -2.1766 C   0  0  0  0  0  0  0  0  0  0  0  0
    5.9352   -2.4967   -2.7244 C   0  0  0  0  0  0  0  0  0  0  0  0
    9.3570   -1.2747   -1.6231 C   0  0  0  0  0  0  0  0  0  0  0  0
   10.3939   -0.5140   -2.2482 N   0  0  0  0  0  0  0  0  0  0  0  0
    9.6268   -1.9233   -0.5326 N   0  0  0  0  0  0  0  0  0  0  0  0
   -6.9215   -1.4852    1.1393 C   0  0  0  0  0  0  0  0  0  0  0  0
   -7.2143   -0.2029    1.6376 C   0  0  0  0  0  0  0  0  0  0  0  0
   -7.3651    3.3020    5.4735 H   0  0  0  0  0  0  0  0  0  0  0  0
   -6.4924    1.7305    5.2424 H   0  0  0  0  0  0  0  0  0  0  0  0
   -7.9990    1.7920    6.2303 H   0  0  0  0  0  0  0  0  0  0  0  0
   -8.4604    0.8256    3.9825 H   0  0  0  0  0  0  0  0  0  0  0  0
   -9.3423    2.3693    4.2333 H   0  0  0  0  0  0  0  0  0  0  0  0
   -8.3691    2.3711    1.9523 H   0  0  0  0  0  0  0  0  0  0  0  0
   -7.5831    3.6114    2.9640 H   0  0  0  0  0  0  0  0  0  0  0  0
   -4.0289    0.8630    2.3456 H   0  0  0  0  0  0  0  0  0  0  0  0
   -5.6396   -3.8376    0.2214 H   0  0  0  0  0  0  0  0  0  0  0  0
   -3.0675   -3.7258    0.4166 H   0  0  0  0  0  0  0  0  0  0  0  0
   -1.9639   -0.5475    2.3816 H   0  0  0  0  0  0  0  0  0  0  0  0
   -1.3229   -2.0817    1.7068 H   0  0  0  0  0  0  0  0  0  0  0  0
   -1.6107   -1.1863   -0.6104 H   0  0  0  0  0  0  0  0  0  0  0  0
   -2.1080    1.4497    0.7085 H   0  0  0  0  0  0  0  0  0  0  0  0
   -3.2627    2.9467   -2.9551 H   0  0  0  0  0  0  0  0  0  0  0  0
   -4.3897    1.8618   -2.0550 H   0  0  0  0  0  0  0  0  0  0  0  0
   -2.7028    4.1185   -0.7843 H   0  0  0  0  0  0  0  0  0  0  0  0
   -3.9108    3.0659    0.0652 H   0  0  0  0  0  0  0  0  0  0  0  0
   -4.4546    4.2221   -1.2047 H   0  0  0  0  0  0  0  0  0  0  0  0
    0.5485   -0.9614   -1.4741 H   0  0  0  0  0  0  0  0  0  0  0  0
    2.3942    0.9382   -0.1104 H   0  0  0  0  0  0  0  0  0  0  0  0
    2.9200   -2.1109   -0.0044 H   0  0  0  0  0  0  0  0  0  0  0  0
    2.5605   -1.0581    1.3894 H   0  0  0  0  0  0  0  0  0  0  0  0
    5.0606   -0.8606   -0.4228 H   0  0  0  0  0  0  0  0  0  0  0  0
    4.9837   -1.5771    1.2076 H   0  0  0  0  0  0  0  0  0  0  0  0
    5.4593    2.5650    0.8388 H   0  0  0  0  0  0  0  0  0  0  0  0
    5.5140    1.5044   -0.6123 H   0  0  0  0  0  0  0  0  0  0  0  0
    2.5715   -2.1204   -2.3849 H   0  0  0  0  0  0  0  0  0  0  0  0
    3.7935   -2.2898   -4.3781 H   0  0  0  0  0  0  0  0  0  0  0  0
    3.8038   -0.5082   -4.5319 H   0  0  0  0  0  0  0  0  0  0  0  0
    5.7719    0.7325   -3.7988 H   0  0  0  0  0  0  0  0  0  0  0  0
    8.0222    0.7699   -2.8374 H   0  0  0  0  0  0  0  0  0  0  0  0
    7.6117   -3.3872   -1.7358 H   0  0  0  0  0  0  0  0  0  0  0  0
    5.3480   -3.4053   -2.6712 H   0  0  0  0  0  0  0  0  0  0  0  0
   10.2424   -0.0480   -3.1700 H   0  0  0  0  0  0  0  0  0  0  0  0
   11.3416   -0.4574   -1.8131 H   0  0  0  0  0  0  0  0  0  0  0  0
    8.9128   -2.4800   -0.0123 H   0  0  0  0  0  0  0  0  0  0  0  0
   -7.7101   -2.1407    0.7929 H   0  0  0  0  0  0  0  0  0  0  0  0
   -8.2481    0.1088    1.6653 H   0  0  0  0  0  0  0  0  0  0  0  0
  1  2  1  0
  2  3  1  0
  3  4  1  0
  4  5  1  0
  5  6  2  0
  6  7  1  0
  7  8  2  0
  8  9  1  0
  9 10  1  0
 10 11  2  0
 11 12  1  0
 12 13  1  0
 13 14  1  0
 14 15  1  0
 15 16  2  0
 15 17  2  0
 15 18  1  0
 18 19  1  0
 13 20  1  0
 20 21  2  0
 20 22  1  0
 22 23  1  0
 23 24  1  0
 24 25  1  0
 25 26  1  0
 26 27  1  0
 26 28  2  0
 23 29  1  0
 29 30  2  0
 29 31  1  0
 31 32  1  0
 32 33  1  0
 33 34  2  0
 34 35  1  0
 35 36  2  0
 36 37  1  0
 37 38  2  0
 36 39  1  0
 39 40  1  0
 39 41  2  3
  8 42  1  0
 42 43  2  0
 43  5  1  0
 11  7  1  0
 38 33  1  0
  1 44  1  0
  1 45  1  0
  1 46  1  0
  2 47  1  0
  2 48  1  0
  3 49  1  0
  3 50  1  0
  6 51  1  0
  9 52  1  0
 10 53  1  0
 12 54  1  0
 12 55  1  0
 13 56  1  6
 14 57  1  0
 18 58  1  0
 18 59  1  0
 19 60  1  0
 19 61  1  0
 19 62  1  0
 22 63  1  0
 23 64  1  1
 24 65  1  0
 24 66  1  0
 25 67  1  0
 25 68  1  0
 27 69  1  0
 27 70  1  0
 31 71  1  0
 32 72  1  0
 32 73  1  0
 34 74  1  0
 35 75  1  0
 37 76  1  0
 38 77  1  0
 40 78  1  0
 40 79  1  0
 41 80  1  0
 42 81  1  0
 43 82  1  0
M  END
$$$$
