
     RDKit          3D

 33 35  0  0  0  0  0  0  0  0999 V2000
    5.4403    1.3700    1.1578 C   0  0  0  0  0  0  0  0  0  0  0  0
    4.5514    0.3728    0.4880 C   0  0  0  0  0  0  0  0  0  0  0  0
    5.0588   -0.6604   -0.0258 O   0  0  0  0  0  0  0  0  0  0  0  0
    3.1319    0.5924    0.4588 N   0  0  0  0  0  0  0  0  0  0  0  0
    2.1831   -0.2909   -0.1582 C   0  0  0  0  0  0  0  0  0  0  0  0
    0.8591    0.0169   -0.1154 N   0  0  0  0  0  0  0  0  0  0  0  0
   -0.0781   -0.7867   -0.6860 C   0  0  0  0  0  0  0  0  0  0  0  0
    0.3286   -1.9630   -1.3269 C   0  0  0  0  0  0  0  0  0  0  0  0
    1.6884   -2.2656   -1.3656 C   0  0  0  0  0  0  0  0  0  0  0  0
    2.5864   -1.4294   -0.7850 N   0  0  0  0  0  0  0  0  0  0  0  0
   -1.5054   -0.4078   -0.6115 C   0  0  0  0  0  0  0  0  0  0  0  0
   -2.4555   -0.4615   -1.6300 C   0  0  0  0  0  0  0  0  0  0  0  0
   -2.2461   -0.9350   -3.0330 C   0  0  0  0  0  0  0  0  0  0  0  0
   -3.6479   -0.0035   -1.1800 N   0  0  0  0  0  0  0  0  0  0  0  0
   -3.3933    0.3320    0.1006 C   0  0  0  0  0  0  0  0  0  0  0  0
   -4.3206    0.8559    0.9993 C   0  0  0  0  0  0  0  0  0  0  0  0
   -3.8824    1.1338    2.3031 C   0  0  0  0  0  0  0  0  0  0  0  0
   -2.5490    0.8790    2.6733 C   0  0  0  0  0  0  0  0  0  0  0  0
   -1.6582    0.3496    1.7286 C   0  0  0  0  0  0  0  0  0  0  0  0
   -2.1190    0.1070    0.4711 N   0  0  0  0  0  0  0  0  0  0  0  0
    6.5089    1.1252    0.9782 H   0  0  0  0  0  0  0  0  0  0  0  0
    5.2464    1.3631    2.2505 H   0  0  0  0  0  0  0  0  0  0  0  0
    5.2333    2.3839    0.7562 H   0  0  0  0  0  0  0  0  0  0  0  0
    2.7617    1.4549    0.9188 H   0  0  0  0  0  0  0  0  0  0  0  0
   -0.3872   -2.6436   -1.7675 H   0  0  0  0  0  0  0  0  0  0  0  0
    2.0305   -3.1691   -1.8523 H   0  0  0  0  0  0  0  0  0  0  0  0
   -1.2380   -0.6415   -3.3932 H   0  0  0  0  0  0  0  0  0  0  0  0
   -2.3523   -2.0386   -3.0741 H   0  0  0  0  0  0  0  0  0  0  0  0
   -3.0045   -0.4780   -3.7026 H   0  0  0  0  0  0  0  0  0  0  0  0
   -5.3457    1.0401    0.7044 H   0  0  0  0  0  0  0  0  0  0  0  0
   -4.5748    1.5404    3.0287 H   0  0  0  0  0  0  0  0  0  0  0  0
   -2.2145    1.0851    3.6817 H   0  0  0  0  0  0  0  0  0  0  0  0
   -0.6361    0.1326    2.0080 H   0  0  0  0  0  0  0  0  0  0  0  0
  1  2  1  0
  2  3  2  0
  2  4  1  0
  4  5  1  0
  5  6  2  0
  6  7  1  0
  7  8  2  0
  8  9  1  0
  9 10  2  0
  7 11  1  0
 11 12  2  0
 12 13  1  0
 12 14  1  0
 14 15  2  0
 15 16  1  0
 16 17  2  0
 17 18  1  0
 18 19  2  0
 19 20  1  0
 10  5  1  0
 20 11  1  0
 20 15  1  0
  1 21  1  0
  1 22  1  0
  1 23  1  0
  4 24  1  0
  8 25  1  0
  9 26  1  0
 13 27  1  0
 13 28  1  0
 13 29  1  0
 16 30  1  0
 17 31  1  0
 18 32  1  0
 19 33  1  0
M  END
$$$$
