
     RDKit          3D

 54 56  0  0  0  0  0  0  0  0999 V2000
   -3.4816   -5.3731   -2.1547 C   0  0  0  0  0  0  0  0  0  0  0  0
   -2.5146   -4.3449   -1.5904 C   0  0  0  0  0  0  0  0  0  0  0  0
   -3.2267   -3.1576   -1.2517 O   0  0  0  0  0  0  0  0  0  0  0  0
   -2.6395   -2.0066   -0.7050 C   0  0  0  0  0  0  0  0  0  0  0  0
   -1.2639   -1.9174   -0.4352 C   0  0  0  0  0  0  0  0  0  0  0  0
   -0.7143   -0.7457    0.1122 C   0  0  0  0  0  0  0  0  0  0  0  0
    0.7775   -0.6817    0.3972 C   0  0  1  0  0  0  0  0  0  0  0  0
    1.4184    0.3822   -0.3912 N   0  0  0  0  0  0  0  0  0  0  0  0
    2.8454    0.5383   -0.5372 C   0  0  0  0  0  0  0  0  0  0  0  0
    3.7607   -0.3464    0.0649 C   0  0  0  0  0  0  0  0  0  0  0  0
    5.1369   -0.1619   -0.0973 C   0  0  0  0  0  0  0  0  0  0  0  0
    5.6299    0.9050   -0.8658 C   0  0  0  0  0  0  0  0  0  0  0  0
    4.7167    1.7885   -1.4656 C   0  0  0  0  0  0  0  0  0  0  0  0
    3.3410    1.6052   -1.3022 C   0  0  0  0  0  0  0  0  0  0  0  0
    7.0932    1.0957   -1.0295 C   0  0  0  0  0  0  0  0  0  0  0  0
    7.9821    0.8079    0.0531 N   0  0  0  0  0  0  0  0  0  0  0  0
    7.5895    1.5149   -2.1522 N   0  0  0  0  0  0  0  0  0  0  0  0
    1.0136   -0.4908    1.8716 C   0  0  0  0  0  0  0  0  0  0  0  0
    0.9018   -1.5808    2.7289 O   0  0  0  0  0  0  0  0  0  0  0  0
    1.2802    0.6492    2.3402 O   0  0  0  0  0  0  0  0  0  0  0  0
   -1.5612    0.3494    0.3899 C   0  0  0  0  0  0  0  0  0  0  0  0
   -1.0214    1.4798    0.9087 F   0  0  0  0  0  0  0  0  0  0  0  0
   -2.9475    0.2628    0.1249 C   0  0  0  0  0  0  0  0  0  0  0  0
   -3.8621    1.3023    0.3768 O   0  0  0  0  0  0  0  0  0  0  0  0
   -3.5792    2.5652    0.9850 C   0  0  2  0  0  0  0  0  0  0  0  0
   -3.3773    2.4167    2.4676 C   0  0  0  0  0  0  0  0  0  0  0  0
   -4.7723    2.6044    3.0326 C   0  0  0  0  0  0  0  0  0  0  0  0
   -5.5912    3.2362    2.0748 O   0  0  0  0  0  0  0  0  0  0  0  0
   -4.8138    3.4422    0.9190 C   0  0  0  0  0  0  0  0  0  0  0  0
   -3.4635   -0.9160   -0.4220 C   0  0  0  0  0  0  0  0  0  0  0  0
   -3.9730   -4.9716   -3.0662 H   0  0  0  0  0  0  0  0  0  0  0  0
   -2.9309   -6.3000   -2.4200 H   0  0  0  0  0  0  0  0  0  0  0  0
   -4.2582   -5.6181   -1.3994 H   0  0  0  0  0  0  0  0  0  0  0  0
   -2.0274   -4.7637   -0.6833 H   0  0  0  0  0  0  0  0  0  0  0  0
   -1.7414   -4.1152   -2.3553 H   0  0  0  0  0  0  0  0  0  0  0  0
   -0.6165   -2.7571   -0.6487 H   0  0  0  0  0  0  0  0  0  0  0  0
    1.2389   -1.6502    0.1055 H   0  0  0  0  0  0  0  0  0  0  0  0
    0.8080    1.0641   -0.8976 H   0  0  0  0  0  0  0  0  0  0  0  0
    3.4260   -1.1832    0.6607 H   0  0  0  0  0  0  0  0  0  0  0  0
    5.8153   -0.8681    0.3645 H   0  0  0  0  0  0  0  0  0  0  0  0
    5.0640    2.6349   -2.0444 H   0  0  0  0  0  0  0  0  0  0  0  0
    2.6581    2.3029   -1.7709 H   0  0  0  0  0  0  0  0  0  0  0  0
    7.6194    0.5542    0.9985 H   0  0  0  0  0  0  0  0  0  0  0  0
    9.0146    0.9013   -0.0737 H   0  0  0  0  0  0  0  0  0  0  0  0
    7.0019    1.7239   -2.9897 H   0  0  0  0  0  0  0  0  0  0  0  0
    1.0440   -1.4740    3.7261 H   0  0  0  0  0  0  0  0  0  0  0  0
   -2.7304    3.0703    0.4753 H   0  0  0  0  0  0  0  0  0  0  0  0
   -2.7069    3.2242    2.8370 H   0  0  0  0  0  0  0  0  0  0  0  0
   -2.9544    1.4281    2.7493 H   0  0  0  0  0  0  0  0  0  0  0  0
   -5.2136    1.6151    3.2816 H   0  0  0  0  0  0  0  0  0  0  0  0
   -4.7373    3.2181    3.9581 H   0  0  0  0  0  0  0  0  0  0  0  0
   -5.4173    3.2142    0.0142 H   0  0  0  0  0  0  0  0  0  0  0  0
   -4.5149    4.5128    0.8759 H   0  0  0  0  0  0  0  0  0  0  0  0
   -4.5245   -0.9859   -0.6286 H   0  0  0  0  0  0  0  0  0  0  0  0
  1  2  1  0
  2  3  1  0
  3  4  1  0
  4  5  2  0
  5  6  1  0
  6  7  1  0
  7  8  1  0
  8  9  1  0
  9 10  2  0
 10 11  1  0
 11 12  2  0
 12 13  1  0
 13 14  2  0
 12 15  1  0
 15 16  1  0
 15 17  2  3
  7 18  1  0
 18 19  1  0
 18 20  2  0
  6 21  2  0
 21 22  1  0
 21 23  1  0
 23 24  1  0
 24 25  1  0
 25 26  1  0
 26 27  1  0
 27 28  1  0
 28 29  1  0
 23 30  2  0
 30  4  1  0
 14  9  1  0
 29 25  1  0
  1 31  1  0
  1 32  1  0
  1 33  1  0
  2 34  1  0
  2 35  1  0
  5 36  1  0
  7 37  1  6
  8 38  1  0
 10 39  1  0
 11 40  1  0
 13 41  1  0
 14 42  1  0
 16 43  1  0
 16 44  1  0
 17 45  1  0
 19 46  1  0
 25 47  1  6
 26 48  1  0
 26 49  1  0
 27 50  1  0
 27 51  1  0
 29 52  1  0
 29 53  1  0
 30 54  1  0
M  END
$$$$
