
     RDKit          3D

 29 30  0  0  0  0  0  0  0  0999 V2000
    5.1693    2.0886   -0.2659 O   0  0  0  0  0  0  0  0  0  0  0  0
    4.5766    1.0823    0.4901 C   0  0  0  0  0  0  0  0  0  0  0  0
    5.2915    0.1992    1.0350 O   0  0  0  0  0  0  0  0  0  0  0  0
    3.0912    1.0192    0.6093 C   0  0  0  0  0  0  0  0  0  0  0  0
    2.5793    0.2083   -0.4393 O   0  0  0  0  0  0  0  0  0  0  0  0
    1.2446   -0.1979   -0.6110 C   0  0  0  0  0  0  0  0  0  0  0  0
    0.9132   -1.0902   -1.6318 C   0  0  0  0  0  0  0  0  0  0  0  0
   -0.7375   -1.3854   -1.5862 S   0  0  0  0  0  0  0  0  0  0  0  0
   -1.0701   -0.3996   -0.2674 C   0  0  0  0  0  0  0  0  0  0  0  0
    0.1191    0.2046    0.1611 C   0  0  0  0  0  0  0  0  0  0  0  0
    0.1164    1.5407    1.5454 Br  0  0  0  0  0  0  0  0  0  0  0  0
   -2.4219   -0.2194    0.3001 C   0  0  0  0  0  0  0  0  0  0  0  0
   -3.5188   -0.0102   -0.5528 C   0  0  0  0  0  0  0  0  0  0  0  0
   -4.8048    0.1408   -0.0247 C   0  0  0  0  0  0  0  0  0  0  0  0
   -5.0078    0.0714    1.3559 C   0  0  0  0  0  0  0  0  0  0  0  0
   -3.9258   -0.1556    2.2103 C   0  0  0  0  0  0  0  0  0  0  0  0
   -2.6381   -0.3064    1.6862 C   0  0  0  0  0  0  0  0  0  0  0  0
    1.8372   -1.6909   -2.6075 C   0  0  0  0  0  0  0  0  0  0  0  0
    3.1955   -1.3898   -2.5730 O   0  0  0  0  0  0  0  0  0  0  0  0
    1.3979   -2.4846   -3.4820 O   0  0  0  0  0  0  0  0  0  0  0  0
    6.1757    2.1346   -0.3716 H   0  0  0  0  0  0  0  0  0  0  0  0
    2.8245    0.5802    1.5947 H   0  0  0  0  0  0  0  0  0  0  0  0
    2.6850    2.0484    0.5219 H   0  0  0  0  0  0  0  0  0  0  0  0
   -3.3780    0.0486   -1.6250 H   0  0  0  0  0  0  0  0  0  0  0  0
   -5.6443    0.3107   -0.6864 H   0  0  0  0  0  0  0  0  0  0  0  0
   -6.0040    0.1867    1.7630 H   0  0  0  0  0  0  0  0  0  0  0  0
   -4.0858   -0.2224    3.2786 H   0  0  0  0  0  0  0  0  0  0  0  0
   -1.8166   -0.5120    2.3605 H   0  0  0  0  0  0  0  0  0  0  0  0
    3.8364   -1.8001   -3.2416 H   0  0  0  0  0  0  0  0  0  0  0  0
  1  2  1  0
  2  3  2  0
  2  4  1  0
  4  5  1  0
  5  6  1  0
  6  7  2  0
  7  8  1  0
  8  9  1  0
  9 10  2  0
 10 11  1  0
  9 12  1  0
 12 13  2  0
 13 14  1  0
 14 15  2  0
 15 16  1  0
 16 17  2  0
  7 18  1  0
 18 19  1  0
 18 20  2  0
 10  6  1  0
 17 12  1  0
  1 21  1  0
  4 22  1  0
  4 23  1  0
 13 24  1  0
 14 25  1  0
 15 26  1  0
 16 27  1  0
 17 28  1  0
 19 29  1  0
M  END
$$$$
