
     RDKit          3D

 50 53  0  0  0  0  0  0  0  0999 V2000
   -4.5649    1.2767   -0.0672 C   0  0  1  0  0  0  0  0  0  0  0  0
   -4.5151    2.7361    0.4079 C   0  0  0  0  0  0  0  0  0  0  0  0
   -3.3089    3.3357    0.0162 O   0  0  0  0  0  0  0  0  0  0  0  0
   -3.4811    0.5770    0.5217 O   0  0  0  0  0  0  0  0  0  0  0  0
   -3.3801   -0.7286   -0.0185 C   0  0  1  0  0  0  0  0  0  0  0  0
   -2.2108   -1.3578    0.5036 O   0  0  0  0  0  0  0  0  0  0  0  0
   -0.8954   -0.9317    0.2615 C   0  0  0  0  0  0  0  0  0  0  0  0
   -0.5952    0.1657   -0.5690 C   0  0  0  0  0  0  0  0  0  0  0  0
    0.7314    0.5537   -0.7773 C   0  0  0  0  0  0  0  0  0  0  0  0
    1.7803   -0.1509   -0.1614 C   0  0  0  0  0  0  0  0  0  0  0  0
    3.1287    0.2049   -0.3395 C   0  0  0  0  0  0  0  0  0  0  0  0
    3.4353    1.2015   -1.0513 O   0  0  0  0  0  0  0  0  0  0  0  0
    4.1327   -0.5467    0.3010 C   0  0  0  0  0  0  0  0  0  0  0  0
    3.7389   -1.6222    1.1134 C   0  0  0  0  0  0  0  0  0  0  0  0
    2.4555   -1.9293    1.2650 O   0  0  0  0  0  0  0  0  0  0  0  0
    1.4802   -1.2513    0.6703 C   0  0  0  0  0  0  0  0  0  0  0  0
    0.1498   -1.6324    0.8738 C   0  0  0  0  0  0  0  0  0  0  0  0
    5.5741   -0.2283    0.1421 C   0  0  0  0  0  0  0  0  0  0  0  0
    6.4104   -0.1451    1.2694 C   0  0  0  0  0  0  0  0  0  0  0  0
    7.7698    0.1464    1.1220 C   0  0  0  0  0  0  0  0  0  0  0  0
    8.3115    0.3526   -0.1534 C   0  0  0  0  0  0  0  0  0  0  0  0
    9.6645    0.6436   -0.3123 O   0  0  0  0  0  0  0  0  0  0  0  0
    7.4872    0.2641   -1.2792 C   0  0  0  0  0  0  0  0  0  0  0  0
    6.1272   -0.0265   -1.1351 C   0  0  0  0  0  0  0  0  0  0  0  0
   -4.6132   -1.5577    0.3864 C   0  0  2  0  0  0  0  0  0  0  0  0
   -4.5246   -2.8703   -0.1106 O   0  0  0  0  0  0  0  0  0  0  0  0
   -5.8979   -0.8687   -0.1074 C   0  0  1  0  0  0  0  0  0  0  0  0
   -7.0131   -1.5345    0.4268 O   0  0  0  0  0  0  0  0  0  0  0  0
   -5.9063    0.6093    0.3256 C   0  0  2  0  0  0  0  0  0  0  0  0
   -6.9774    1.2632   -0.3085 O   0  0  0  0  0  0  0  0  0  0  0  0
   -4.4662    1.2895   -1.1788 H   0  0  0  0  0  0  0  0  0  0  0  0
   -4.6360    2.7895    1.5147 H   0  0  0  0  0  0  0  0  0  0  0  0
   -5.3468    3.3099   -0.0524 H   0  0  0  0  0  0  0  0  0  0  0  0
   -2.6238    3.0649    0.6818 H   0  0  0  0  0  0  0  0  0  0  0  0
   -3.2973   -0.6991   -1.1308 H   0  0  0  0  0  0  0  0  0  0  0  0
   -1.3782    0.7269   -1.0597 H   0  0  0  0  0  0  0  0  0  0  0  0
    0.9327    1.4020   -1.4200 H   0  0  0  0  0  0  0  0  0  0  0  0
    4.4816   -2.2232    1.6223 H   0  0  0  0  0  0  0  0  0  0  0  0
   -0.0745   -2.4774    1.5133 H   0  0  0  0  0  0  0  0  0  0  0  0
    6.0083   -0.2930    2.2641 H   0  0  0  0  0  0  0  0  0  0  0  0
    8.4006    0.2128    1.9994 H   0  0  0  0  0  0  0  0  0  0  0  0
   10.2878    0.7140    0.4835 H   0  0  0  0  0  0  0  0  0  0  0  0
    7.9020    0.4162   -2.2675 H   0  0  0  0  0  0  0  0  0  0  0  0
    5.5110   -0.1102   -2.0216 H   0  0  0  0  0  0  0  0  0  0  0  0
   -4.6447   -1.6132    1.4975 H   0  0  0  0  0  0  0  0  0  0  0  0
   -4.4714   -2.8158   -1.1008 H   0  0  0  0  0  0  0  0  0  0  0  0
   -5.9233   -0.9202   -1.2228 H   0  0  0  0  0  0  0  0  0  0  0  0
   -7.7919   -1.2923   -0.1394 H   0  0  0  0  0  0  0  0  0  0  0  0
   -6.0215    0.6469    1.4367 H   0  0  0  0  0  0  0  0  0  0  0  0
   -7.3421    1.9233    0.3371 H   0  0  0  0  0  0  0  0  0  0  0  0
  1  2  1  0
  2  3  1  0
  1  4  1  0
  4  5  1  0
  5  6  1  0
  6  7  1  0
  7  8  2  0
  8  9  1  0
  9 10  2  0
 10 11  1  0
 11 12  2  0
 11 13  1  0
 13 14  2  0
 14 15  1  0
 15 16  1  0
 16 17  2  0
 13 18  1  0
 18 19  2  0
 19 20  1  0
 20 21  2  0
 21 22  1  0
 21 23  1  0
 23 24  2  0
  5 25  1  0
 25 26  1  0
 25 27  1  0
 27 28  1  0
 27 29  1  0
 29 30  1  0
 29  1  1  0
 17  7  1  0
 24 18  1  0
 16 10  1  0
  1 31  1  6
  2 32  1  0
  2 33  1  0
  3 34  1  0
  5 35  1  6
  8 36  1  0
  9 37  1  0
 14 38  1  0
 17 39  1  0
 19 40  1  0
 20 41  1  0
 22 42  1  0
 23 43  1  0
 24 44  1  0
 25 45  1  1
 26 46  1  0
 27 47  1  6
 28 48  1  0
 29 49  1  1
 30 50  1  0
M  END
$$$$
