
     RDKit          3D

 52 54  0  0  0  0  0  0  0  0999 V2000
   -2.1091   -4.4228    1.5788 C   0  0  0  0  0  0  0  0  0  0  0  0
   -1.2670   -3.1391    1.5357 C   0  0  2  0  0  0  0  0  0  0  0  0
   -1.4574   -2.2926    2.8088 C   0  0  0  0  0  0  0  0  0  0  0  0
   -3.1545   -1.6128    2.9645 S   0  0  0  0  0  0  0  0  0  0  0  0
   -2.6204   -0.0919    3.7604 C   0  0  0  0  0  0  0  0  0  0  0  0
   -2.5979   -0.0533    5.0196 O   0  0  0  0  0  0  0  0  0  0  0  0
   -2.1811    1.0846    2.9692 C   0  0  0  0  0  0  0  0  0  0  0  0
   -1.5105    2.1497    3.6004 C   0  0  0  0  0  0  0  0  0  0  0  0
   -1.0655    3.2478    2.8579 C   0  0  0  0  0  0  0  0  0  0  0  0
   -1.2889    3.2998    1.4808 C   0  0  0  0  0  0  0  0  0  0  0  0
   -1.9614    2.2557    0.8439 C   0  0  0  0  0  0  0  0  0  0  0  0
   -2.4038    1.1525    1.5798 C   0  0  0  0  0  0  0  0  0  0  0  0
   -1.5542   -2.3297    0.2838 C   0  0  0  0  0  0  0  0  0  0  0  0
   -2.7466   -2.2396   -0.1208 O   0  0  0  0  0  0  0  0  0  0  0  0
   -0.5203   -1.6175   -0.4302 N   0  0  0  0  0  0  0  0  0  0  0  0
   -0.8246   -0.8060   -1.5994 C   0  0  0  0  0  0  0  0  0  0  0  0
    0.5097   -0.2504   -2.0962 C   0  0  2  0  0  0  0  0  0  0  0  0
    1.5803   -1.1177   -1.4265 C   0  0  0  0  0  0  0  0  0  0  0  0
    0.9143   -1.7498   -0.2023 C   0  0  1  0  0  0  0  0  0  0  0  0
    1.3222   -1.0367    1.0563 C   0  0  0  0  0  0  0  0  0  0  0  0
    0.8131    0.2263    1.3442 O   0  0  0  0  0  0  0  0  0  0  0  0
    2.1513   -1.5715    1.8398 O   0  0  0  0  0  0  0  0  0  0  0  0
    0.6840    1.5134   -1.6144 S   0  0  0  0  0  0  0  0  0  0  0  0
    1.9417    1.8954   -2.8372 C   0  0  0  0  0  0  0  0  0  0  0  0
    3.2976    1.8727   -2.4850 C   0  0  0  0  0  0  0  0  0  0  0  0
    4.2740    2.1790   -3.4383 C   0  0  0  0  0  0  0  0  0  0  0  0
    3.8979    2.5164   -4.7422 C   0  0  0  0  0  0  0  0  0  0  0  0
    2.5446    2.5516   -5.0928 C   0  0  0  0  0  0  0  0  0  0  0  0
    1.5668    2.2457   -4.1408 C   0  0  0  0  0  0  0  0  0  0  0  0
   -1.8400   -5.0265    2.4717 H   0  0  0  0  0  0  0  0  0  0  0  0
   -1.9101   -5.0363    0.6741 H   0  0  0  0  0  0  0  0  0  0  0  0
   -3.1950   -4.1934    1.6202 H   0  0  0  0  0  0  0  0  0  0  0  0
   -0.2095   -3.4725    1.5219 H   0  0  0  0  0  0  0  0  0  0  0  0
   -0.7122   -1.4722    2.7992 H   0  0  0  0  0  0  0  0  0  0  0  0
   -1.2432   -2.9107    3.7066 H   0  0  0  0  0  0  0  0  0  0  0  0
   -1.3177    2.1286    4.6657 H   0  0  0  0  0  0  0  0  0  0  0  0
   -0.5445    4.0582    3.3511 H   0  0  0  0  0  0  0  0  0  0  0  0
   -0.9429    4.1501    0.9074 H   0  0  0  0  0  0  0  0  0  0  0  0
   -2.1393    2.3002   -0.2227 H   0  0  0  0  0  0  0  0  0  0  0  0
   -2.9235    0.3619    1.0569 H   0  0  0  0  0  0  0  0  0  0  0  0
   -1.5412    0.0003   -1.3331 H   0  0  0  0  0  0  0  0  0  0  0  0
   -1.2821   -1.4489   -2.3830 H   0  0  0  0  0  0  0  0  0  0  0  0
    0.5641   -0.3448   -3.2035 H   0  0  0  0  0  0  0  0  0  0  0  0
    1.8741   -1.9252   -2.1332 H   0  0  0  0  0  0  0  0  0  0  0  0
    2.4998   -0.5491   -1.1709 H   0  0  0  0  0  0  0  0  0  0  0  0
    1.1978   -2.8242   -0.1502 H   0  0  0  0  0  0  0  0  0  0  0  0
    1.0851    0.7178    2.1868 H   0  0  0  0  0  0  0  0  0  0  0  0
    3.5960    1.6238   -1.4748 H   0  0  0  0  0  0  0  0  0  0  0  0
    5.3212    2.1581   -3.1657 H   0  0  0  0  0  0  0  0  0  0  0  0
    4.6542    2.7539   -5.4792 H   0  0  0  0  0  0  0  0  0  0  0  0
    2.2537    2.8166   -6.1010 H   0  0  0  0  0  0  0  0  0  0  0  0
    0.5206    2.2752   -4.4178 H   0  0  0  0  0  0  0  0  0  0  0  0
  1  2  1  0
  2  3  1  0
  3  4  1  0
  4  5  1  0
  5  6  2  0
  5  7  1  0
  7  8  2  0
  8  9  1  0
  9 10  2  0
 10 11  1  0
 11 12  2  0
  2 13  1  0
 13 14  2  0
 13 15  1  0
 15 16  1  0
 16 17  1  0
 17 18  1  0
 18 19  1  0
 19 20  1  0
 20 21  1  0
 20 22  2  0
 17 23  1  0
 23 24  1  0
 24 25  2  0
 25 26  1  0
 26 27  2  0
 27 28  1  0
 28 29  2  0
 12  7  1  0
 19 15  1  0
 29 24  1  0
  1 30  1  0
  1 31  1  0
  1 32  1  0
  2 33  1  6
  3 34  1  0
  3 35  1  0
  8 36  1  0
  9 37  1  0
 10 38  1  0
 11 39  1  0
 12 40  1  0
 16 41  1  0
 16 42  1  0
 17 43  1  6
 18 44  1  0
 18 45  1  0
 19 46  1  1
 21 47  1  0
 25 48  1  0
 26 49  1  0
 27 50  1  0
 28 51  1  0
 29 52  1  0
M  END
$$$$
