
     RDKit          3D

 47 50  0  0  0  0  0  0  0  0999 V2000
    4.7539    1.3593    2.4210 C   0  0  0  0  0  0  0  0  0  0  0  0
    4.1322    0.6603    1.3029 N   0  0  0  0  0  0  0  0  0  0  0  0
    2.8278    0.4328    1.2010 N   0  0  0  0  0  0  0  0  0  0  0  0
    2.6025   -0.2356    0.0428 C   0  0  0  0  0  0  0  0  0  0  0  0
    1.2633   -0.6611   -0.4074 C   0  0  0  0  0  0  0  0  0  0  0  0
    1.1370   -1.2950   -1.4894 O   0  0  0  0  0  0  0  0  0  0  0  0
    0.1048   -0.3528    0.3844 N   0  0  0  0  0  0  0  0  0  0  0  0
   -1.2580   -0.6776   -0.0520 C   0  0  2  0  0  0  0  0  0  0  0  0
   -1.8226    0.4899   -0.8885 C   0  0  0  0  0  0  0  0  0  0  0  0
   -3.3581    0.3943   -1.1911 C   0  0  2  0  0  0  0  0  0  0  0  0
   -4.0659    1.7328   -0.8657 C   0  0  0  0  0  0  0  0  0  0  0  0
   -4.6259    1.7621    0.5790 C   0  0  0  0  0  0  0  0  0  0  0  0
   -3.8169    0.8787    1.5515 C   0  0  0  0  0  0  0  0  0  0  0  0
   -3.6141   -0.5755    1.0127 C   0  0  2  0  0  0  0  0  0  0  0  0
   -2.1429   -1.0314    1.1720 C   0  0  0  0  0  0  0  0  0  0  0  0
   -4.0369   -0.6500   -0.3996 N   0  0  0  0  0  0  0  0  0  0  0  0
   -4.0297   -1.9943   -1.0041 C   0  0  0  0  0  0  0  0  0  0  0  0
    3.8188   -0.4296   -0.5980 C   0  0  0  0  0  0  0  0  0  0  0  0
    4.7500    0.1463    0.2240 C   0  0  0  0  0  0  0  0  0  0  0  0
    6.1101    0.1523   -0.0900 C   0  0  0  0  0  0  0  0  0  0  0  0
    6.5049   -0.4592   -1.2938 C   0  0  0  0  0  0  0  0  0  0  0  0
    5.5453   -1.0538   -2.1437 C   0  0  0  0  0  0  0  0  0  0  0  0
    4.1806   -1.0435   -1.7993 C   0  0  0  0  0  0  0  0  0  0  0  0
    5.4850    0.6900    2.9213 H   0  0  0  0  0  0  0  0  0  0  0  0
    3.9823    1.6644    3.1594 H   0  0  0  0  0  0  0  0  0  0  0  0
    5.2762    2.2667    2.0517 H   0  0  0  0  0  0  0  0  0  0  0  0
    0.2225    0.2745    1.2123 H   0  0  0  0  0  0  0  0  0  0  0  0
   -1.2123   -1.5759   -0.7015 H   0  0  0  0  0  0  0  0  0  0  0  0
   -1.2688    0.5394   -1.8514 H   0  0  0  0  0  0  0  0  0  0  0  0
   -1.5833    1.4328   -0.3495 H   0  0  0  0  0  0  0  0  0  0  0  0
   -3.4924    0.1934   -2.2789 H   0  0  0  0  0  0  0  0  0  0  0  0
   -4.9178    1.8689   -1.5676 H   0  0  0  0  0  0  0  0  0  0  0  0
   -3.3883    2.5985   -1.0318 H   0  0  0  0  0  0  0  0  0  0  0  0
   -5.6757    1.3942    0.5665 H   0  0  0  0  0  0  0  0  0  0  0  0
   -4.6454    2.8089    0.9518 H   0  0  0  0  0  0  0  0  0  0  0  0
   -2.8426    1.3829    1.7331 H   0  0  0  0  0  0  0  0  0  0  0  0
   -4.3428    0.8428    2.5302 H   0  0  0  0  0  0  0  0  0  0  0  0
   -4.2629   -1.2486    1.6172 H   0  0  0  0  0  0  0  0  0  0  0  0
   -2.1248   -2.1356    1.3045 H   0  0  0  0  0  0  0  0  0  0  0  0
   -1.7224   -0.6135    2.1130 H   0  0  0  0  0  0  0  0  0  0  0  0
   -4.1396   -2.7863   -0.2324 H   0  0  0  0  0  0  0  0  0  0  0  0
   -3.1143   -2.1856   -1.5981 H   0  0  0  0  0  0  0  0  0  0  0  0
   -4.8951   -2.0777   -1.6935 H   0  0  0  0  0  0  0  0  0  0  0  0
    6.8396    0.6097    0.5654 H   0  0  0  0  0  0  0  0  0  0  0  0
    7.5509   -0.4741   -1.5708 H   0  0  0  0  0  0  0  0  0  0  0  0
    5.8621   -1.5207   -3.0672 H   0  0  0  0  0  0  0  0  0  0  0  0
    3.4495   -1.4987   -2.4522 H   0  0  0  0  0  0  0  0  0  0  0  0
  1  2  1  0
  2  3  1  0
  3  4  2  0
  4  5  1  0
  5  6  2  0
  5  7  1  0
  7  8  1  0
  8  9  1  0
  9 10  1  0
 10 11  1  0
 11 12  1  0
 12 13  1  0
 13 14  1  0
 14 15  1  0
 14 16  1  0
 16 17  1  0
  4 18  1  0
 18 19  2  0
 19 20  1  0
 20 21  2  0
 21 22  1  0
 22 23  2  0
 19  2  1  0
 15  8  1  0
 23 18  1  0
 16 10  1  0
  1 24  1  0
  1 25  1  0
  1 26  1  0
  7 27  1  0
  8 28  1  6
  9 29  1  0
  9 30  1  0
 10 31  1  6
 11 32  1  0
 11 33  1  0
 12 34  1  0
 12 35  1  0
 13 36  1  0
 13 37  1  0
 14 38  1  1
 15 39  1  0
 15 40  1  0
 17 41  1  0
 17 42  1  0
 17 43  1  0
 20 44  1  0
 21 45  1  0
 22 46  1  0
 23 47  1  0
M  END
$$$$
