
     RDKit          3D

 11 10  0  0  0  0  0  0  0  0999 V2000
   -1.6431   -0.0629   -0.4278 N   0  0  0  0  0  0  0  0  0  0  0  0
   -0.2877    0.4822   -0.4586 C   0  0  0  0  0  0  0  0  0  0  0  0
    0.6903   -0.4066    0.3185 C   0  0  0  0  0  0  0  0  0  0  0  0
    1.9866    0.1213    0.2467 O   0  0  0  0  0  0  0  0  0  0  0  0
   -1.9497   -0.1491    0.5686 H   0  0  0  0  0  0  0  0  0  0  0  0
   -1.6303   -1.0238   -0.8411 H   0  0  0  0  0  0  0  0  0  0  0  0
    0.0471    0.5668   -1.5153 H   0  0  0  0  0  0  0  0  0  0  0  0
   -0.2962    1.5021   -0.0168 H   0  0  0  0  0  0  0  0  0  0  0  0
    0.3690   -0.4983    1.3811 H   0  0  0  0  0  0  0  0  0  0  0  0
    0.6996   -1.4241   -0.1270 H   0  0  0  0  0  0  0  0  0  0  0  0
    2.0142    0.8924    0.8716 H   0  0  0  0  0  0  0  0  0  0  0  0
  1  2  1  0
  2  3  1  0
  3  4  1  0
  1  5  1  0
  1  6  1  0
  2  7  1  0
  2  8  1  0
  3  9  1  0
  3 10  1  0
  4 11  1  0
M  END
$$$$
