
     RDKit          3D

 53 56  0  0  0  0  0  0  0  0999 V2000
   -4.2395   -0.1025    0.2141 C   0  0  1  0  0  0  0  0  0  0  0  0
   -5.2107    0.6476    0.8979 O   0  0  0  0  0  0  0  0  0  0  0  0
   -4.4183   -0.0058   -1.3184 C   0  0  0  0  0  0  0  0  0  0  0  0
   -3.0056    0.0924   -1.9222 C   0  0  0  0  0  0  0  0  0  0  0  0
   -2.0813   -0.1807   -0.7426 C   0  0  1  0  0  0  0  0  0  0  0  0
   -0.6052    0.2596   -0.8224 C   0  0  2  0  0  0  0  0  0  0  0  0
    0.0754   -0.3150   -2.0813 C   0  0  0  0  0  0  0  0  0  0  0  0
    1.5735    0.0095   -2.1112 C   0  0  0  0  0  0  0  0  0  0  0  0
    2.2625   -0.5144   -0.8387 C   0  0  1  0  0  0  0  0  0  0  0  0
    3.7951   -0.3756   -0.9219 C   0  0  0  0  0  0  0  0  0  0  0  0
    4.4630   -1.0350    0.2929 C   0  0  1  0  0  0  0  0  0  0  0  0
    5.8486   -0.8224    0.2246 O   0  0  0  0  0  0  0  0  0  0  0  0
    3.9108   -0.4638    1.6091 C   0  0  0  0  0  0  0  0  0  0  0  0
    2.3750   -0.5567    1.6808 C   0  0  0  0  0  0  0  0  0  0  0  0
    1.6597    0.1120    0.4662 C   0  0  1  0  0  0  0  0  0  0  0  0
    1.8819    1.6545    0.5411 C   0  0  0  0  0  0  0  0  0  0  0  0
    0.1210   -0.2361    0.4790 C   0  0  1  0  0  0  0  0  0  0  0  0
   -0.6307    0.2018    1.7775 C   0  0  0  0  0  0  0  0  0  0  0  0
   -2.1425   -0.1327    1.7460 C   0  0  0  0  0  0  0  0  0  0  0  0
   -2.8108    0.4179    0.4673 C   0  0  2  0  0  0  0  0  0  0  0  0
   -2.8197    1.9813    0.4956 C   0  0  0  0  0  0  0  0  0  0  0  0
   -4.3082   -1.1735    0.5220 H   0  0  0  0  0  0  0  0  0  0  0  0
   -6.0705    0.1648    0.7834 H   0  0  0  0  0  0  0  0  0  0  0  0
   -4.9452   -0.9078   -1.6989 H   0  0  0  0  0  0  0  0  0  0  0  0
   -5.0087    0.8953   -1.5948 H   0  0  0  0  0  0  0  0  0  0  0  0
   -2.8618   -0.6605   -2.7277 H   0  0  0  0  0  0  0  0  0  0  0  0
   -2.8247    1.1085   -2.3358 H   0  0  0  0  0  0  0  0  0  0  0  0
   -2.0700   -1.2940   -0.6314 H   0  0  0  0  0  0  0  0  0  0  0  0
   -0.5656    1.3614   -0.9081 H   0  0  0  0  0  0  0  0  0  0  0  0
   -0.3951    0.1156   -2.9915 H   0  0  0  0  0  0  0  0  0  0  0  0
   -0.0613   -1.4188   -2.1184 H   0  0  0  0  0  0  0  0  0  0  0  0
    2.0178   -0.4830   -3.0037 H   0  0  0  0  0  0  0  0  0  0  0  0
    1.7284    1.1029   -2.2270 H   0  0  0  0  0  0  0  0  0  0  0  0
    2.0628   -1.6119   -0.8115 H   0  0  0  0  0  0  0  0  0  0  0  0
    4.1589   -0.8886   -1.8394 H   0  0  0  0  0  0  0  0  0  0  0  0
    4.0991    0.6885   -1.0057 H   0  0  0  0  0  0  0  0  0  0  0  0
    4.2525   -2.1303    0.2569 H   0  0  0  0  0  0  0  0  0  0  0  0
    6.2692   -1.4711    0.8478 H   0  0  0  0  0  0  0  0  0  0  0  0
    4.3392   -1.0387    2.4587 H   0  0  0  0  0  0  0  0  0  0  0  0
    4.2402    0.5893    1.7349 H   0  0  0  0  0  0  0  0  0  0  0  0
    2.0551   -0.0800    2.6317 H   0  0  0  0  0  0  0  0  0  0  0  0
    2.0922   -1.6313    1.7395 H   0  0  0  0  0  0  0  0  0  0  0  0
    2.9469    1.9305    0.4306 H   0  0  0  0  0  0  0  0  0  0  0  0
    1.5607    2.0542    1.5243 H   0  0  0  0  0  0  0  0  0  0  0  0
    1.3332    2.2068   -0.2432 H   0  0  0  0  0  0  0  0  0  0  0  0
    0.0515   -1.3492    0.4712 H   0  0  0  0  0  0  0  0  0  0  0  0
   -0.5020    1.2851    1.9637 H   0  0  0  0  0  0  0  0  0  0  0  0
   -0.2015   -0.3273    2.6533 H   0  0  0  0  0  0  0  0  0  0  0  0
   -2.2630   -1.2377    1.7966 H   0  0  0  0  0  0  0  0  0  0  0  0
   -2.6354    0.2930    2.6470 H   0  0  0  0  0  0  0  0  0  0  0  0
   -1.8074    2.4233    0.5468 H   0  0  0  0  0  0  0  0  0  0  0  0
   -3.3224    2.4073   -0.3971 H   0  0  0  0  0  0  0  0  0  0  0  0
   -3.3668    2.3426    1.3922 H   0  0  0  0  0  0  0  0  0  0  0  0
  1  2  1  0
  1  3  1  0
  3  4  1  0
  4  5  1  0
  5  6  1  0
  6  7  1  0
  7  8  1  0
  8  9  1  0
  9 10  1  0
 10 11  1  0
 11 12  1  0
 11 13  1  0
 13 14  1  0
 14 15  1  0
 15 16  1  6
 15 17  1  0
 17 18  1  0
 18 19  1  0
 19 20  1  0
 20 21  1  1
 20  1  1  0
 20  5  1  0
 17  6  1  0
 15  9  1  0
  1 22  1  1
  2 23  1  0
  3 24  1  0
  3 25  1  0
  4 26  1  0
  4 27  1  0
  5 28  1  1
  6 29  1  6
  7 30  1  0
  7 31  1  0
  8 32  1  0
  8 33  1  0
  9 34  1  1
 10 35  1  0
 10 36  1  0
 11 37  1  1
 12 38  1  0
 13 39  1  0
 13 40  1  0
 14 41  1  0
 14 42  1  0
 16 43  1  0
 16 44  1  0
 16 45  1  0
 17 46  1  6
 18 47  1  0
 18 48  1  0
 19 49  1  0
 19 50  1  0
 21 51  1  0
 21 52  1  0
 21 53  1  0
M  END
$$$$
