
     RDKit          3D

 49 52  0  0  0  0  0  0  0  0999 V2000
   -3.3818    0.3283   -1.9072 C   0  0  0  0  0  0  0  0  0  0  0  0
   -2.6209   -0.3277   -0.7429 C   0  0  0  0  0  0  0  0  0  0  0  0
   -2.0438    0.6759    0.3405 C   0  0  2  0  0  0  0  0  0  0  0  0
   -1.2362    1.8120   -0.3397 C   0  0  0  0  0  0  0  0  0  0  0  0
   -0.0035    1.2368   -1.0845 C   0  0  0  0  0  0  0  0  0  0  0  0
    0.9218    0.3619   -0.1776 C   0  0  1  0  0  0  0  0  0  0  0  0
    0.1282   -0.7115    0.6374 C   0  0  1  0  0  0  0  0  0  0  0  0
    1.0747   -1.3527    1.6667 C   0  0  0  0  0  0  0  0  0  0  0  0
    2.2207   -2.0829    0.9642 C   0  0  0  0  0  0  0  0  0  0  0  0
    2.9137   -1.2057   -0.0537 C   0  0  0  0  0  0  0  0  0  0  0  0
    4.2241   -1.4058   -0.2812 C   0  0  0  0  0  0  0  0  0  0  0  0
    4.9306   -0.7294   -1.3769 C   0  0  0  0  0  0  0  0  0  0  0  0
    6.1708   -0.8966   -1.5196 O   0  0  0  0  0  0  0  0  0  0  0  0
    4.1695    0.0917   -2.3673 C   0  0  0  0  0  0  0  0  0  0  0  0
    2.9536    0.7338   -1.6997 C   0  0  0  0  0  0  0  0  0  0  0  0
    2.0727   -0.3188   -0.9775 C   0  0  2  0  0  0  0  0  0  0  0  0
   -1.0607   -0.0108    1.3225 C   0  0  2  0  0  0  0  0  0  0  0  0
   -1.9674   -0.7492    2.2461 C   0  0  0  0  0  0  0  0  0  0  0  0
   -3.1201   -0.0856    2.3378 C   0  0  0  0  0  0  0  0  0  0  0  0
   -3.1782    1.0731    1.3611 C   0  0  2  0  0  0  0  0  0  0  0  0
   -4.4518    1.2135    0.7757 O   0  0  0  0  0  0  0  0  0  0  0  0
   -2.8830    2.3175    2.0974 C   0  0  0  0  0  0  0  0  0  0  0  0
   -2.6430    3.3339    2.7003 C   0  0  0  0  0  0  0  0  0  0  0  0
   -3.9528   -0.4496   -2.4567 H   0  0  0  0  0  0  0  0  0  0  0  0
   -4.0918    1.1077   -1.5747 H   0  0  0  0  0  0  0  0  0  0  0  0
   -2.6712    0.7893   -2.6244 H   0  0  0  0  0  0  0  0  0  0  0  0
   -3.2867   -1.0739   -0.2588 H   0  0  0  0  0  0  0  0  0  0  0  0
   -1.8279   -0.9246   -1.2246 H   0  0  0  0  0  0  0  0  0  0  0  0
   -0.8674    2.5411    0.4139 H   0  0  0  0  0  0  0  0  0  0  0  0
   -1.8742    2.3865   -1.0428 H   0  0  0  0  0  0  0  0  0  0  0  0
   -0.3247    0.6527   -1.9714 H   0  0  0  0  0  0  0  0  0  0  0  0
    0.5693    2.1081   -1.4648 H   0  0  0  0  0  0  0  0  0  0  0  0
    1.3914    1.0627    0.5515 H   0  0  0  0  0  0  0  0  0  0  0  0
   -0.2238   -1.5293   -0.0216 H   0  0  0  0  0  0  0  0  0  0  0  0
    0.5241   -2.0919    2.2859 H   0  0  0  0  0  0  0  0  0  0  0  0
    1.4900   -0.5778    2.3489 H   0  0  0  0  0  0  0  0  0  0  0  0
    1.8219   -2.9804    0.4434 H   0  0  0  0  0  0  0  0  0  0  0  0
    2.9351   -2.4328    1.7420 H   0  0  0  0  0  0  0  0  0  0  0  0
    4.7876   -2.0907    0.3420 H   0  0  0  0  0  0  0  0  0  0  0  0
    3.8378   -0.5640   -3.2011 H   0  0  0  0  0  0  0  0  0  0  0  0
    4.8242    0.8879   -2.7834 H   0  0  0  0  0  0  0  0  0  0  0  0
    2.3711    1.2436   -2.4952 H   0  0  0  0  0  0  0  0  0  0  0  0
    3.3000    1.5018   -0.9726 H   0  0  0  0  0  0  0  0  0  0  0  0
    1.6203   -0.9789   -1.7510 H   0  0  0  0  0  0  0  0  0  0  0  0
   -0.5985    0.7742    1.9715 H   0  0  0  0  0  0  0  0  0  0  0  0
   -1.7066   -1.6043    2.8594 H   0  0  0  0  0  0  0  0  0  0  0  0
   -3.9187   -0.3607    3.0196 H   0  0  0  0  0  0  0  0  0  0  0  0
   -4.8871    0.3233    0.7144 H   0  0  0  0  0  0  0  0  0  0  0  0
   -2.4315    4.2258    3.2289 H   0  0  0  0  0  0  0  0  0  0  0  0
  1  2  1  0
  3  2  1  6
  3  4  1  0
  4  5  1  0
  5  6  1  0
  6  7  1  0
  7  8  1  0
  8  9  1  0
  9 10  1  0
 10 11  2  0
 11 12  1  0
 12 13  2  0
 12 14  1  0
 14 15  1  0
 15 16  1  0
  7 17  1  0
 17 18  1  0
 18 19  2  0
 19 20  1  0
 20 21  1  0
 20 22  1  1
 22 23  3  0
 17  3  1  0
 20  3  1  0
 16  6  1  0
 16 10  1  0
  1 24  1  0
  1 25  1  0
  1 26  1  0
  2 27  1  0
  2 28  1  0
  4 29  1  0
  4 30  1  0
  5 31  1  0
  5 32  1  0
  6 33  1  1
  7 34  1  6
  8 35  1  0
  8 36  1  0
  9 37  1  0
  9 38  1  0
 11 39  1  0
 14 40  1  0
 14 41  1  0
 15 42  1  0
 15 43  1  0
 16 44  1  6
 17 45  1  1
 18 46  1  0
 19 47  1  0
 21 48  1  0
 23 49  1  0
M  END
$$$$
