
     RDKit          3D

 60 64  0  0  0  0  0  0  0  0999 V2000
   -0.8709    2.9973    1.4582 C   0  0  0  0  0  0  0  0  0  0  0  0
   -1.4893    1.7979    1.0035 O   0  0  0  0  0  0  0  0  0  0  0  0
   -0.8020    0.6104    0.7048 C   0  0  0  0  0  0  0  0  0  0  0  0
    0.5970    0.5035    0.8349 C   0  0  0  0  0  0  0  0  0  0  0  0
    1.2477   -0.7009    0.5257 C   0  0  0  0  0  0  0  0  0  0  0  0
    0.4947   -1.8061    0.0835 C   0  0  0  0  0  0  0  0  0  0  0  0
   -0.8925   -1.7017   -0.0464 C   0  0  0  0  0  0  0  0  0  0  0  0
   -1.5478   -0.4944    0.2632 C   0  0  0  0  0  0  0  0  0  0  0  0
   -2.9389   -0.3511    0.1453 O   0  0  0  0  0  0  0  0  0  0  0  0
   -3.8249   -1.3745   -0.3033 C   0  0  0  0  0  0  0  0  0  0  0  0
   -5.2622   -0.8544   -0.3061 C   0  0  0  0  0  0  0  0  0  0  0  0
   -5.4488    0.2799   -1.3397 C   0  0  0  0  0  0  0  0  0  0  0  0
   -6.8067    0.8735   -1.3624 N   0  0  0  0  0  0  0  0  0  0  0  0
   -7.8693   -0.0842   -1.6915 C   0  0  0  0  0  0  0  0  0  0  0  0
   -8.6158   -0.4185   -0.4091 C   0  0  0  0  0  0  0  0  0  0  0  0
   -8.2287    0.6562    0.5905 C   0  0  0  0  0  0  0  0  0  0  0  0
   -7.1880    1.5265   -0.1029 C   0  0  0  0  0  0  0  0  0  0  0  0
    1.1190   -2.9751   -0.2152 N   0  0  0  0  0  0  0  0  0  0  0  0
    2.4650   -3.0992   -0.0928 C   0  0  0  0  0  0  0  0  0  0  0  0
    3.2108   -2.0473    0.3321 N   0  0  0  0  0  0  0  0  0  0  0  0
    2.6403   -0.8489    0.6369 C   0  0  0  0  0  0  0  0  0  0  0  0
    3.4282    0.2173    1.0932 O   0  0  0  0  0  0  0  0  0  0  0  0
    4.8194    0.2985    0.9492 C   0  0  0  0  0  0  0  0  0  0  0  0
    5.4698   -0.0728   -0.2539 C   0  0  0  0  0  0  0  0  0  0  0  0
    4.7735   -0.4799   -1.3449 F   0  0  0  0  0  0  0  0  0  0  0  0
    6.8569    0.0492   -0.3110 C   0  0  0  0  0  0  0  0  0  0  0  0
    7.5864    0.5216    0.7483 C   0  0  0  0  0  0  0  0  0  0  0  0
    8.8971    0.5486    0.4549 N   0  0  0  0  0  0  0  0  0  0  0  0
    8.9937    0.0964   -0.8172 C   0  0  0  0  0  0  0  0  0  0  0  0
   10.2909   -0.0987   -1.5307 C   0  0  0  0  0  0  0  0  0  0  0  0
    7.7421   -0.2353   -1.3291 C   0  0  0  0  0  0  0  0  0  0  0  0
    6.9788    0.9134    1.9384 C   0  0  0  0  0  0  0  0  0  0  0  0
    5.5795    0.8057    2.0290 C   0  0  0  0  0  0  0  0  0  0  0  0
   -0.3519    2.8173    2.4233 H   0  0  0  0  0  0  0  0  0  0  0  0
   -0.1504    3.3672    0.6985 H   0  0  0  0  0  0  0  0  0  0  0  0
   -1.6509    3.7704    1.6135 H   0  0  0  0  0  0  0  0  0  0  0  0
    1.1764    1.3519    1.1733 H   0  0  0  0  0  0  0  0  0  0  0  0
   -1.4512   -2.5634   -0.3870 H   0  0  0  0  0  0  0  0  0  0  0  0
   -3.5419   -1.7011   -1.3279 H   0  0  0  0  0  0  0  0  0  0  0  0
   -3.7611   -2.2454    0.3846 H   0  0  0  0  0  0  0  0  0  0  0  0
   -5.9313   -1.7051   -0.5501 H   0  0  0  0  0  0  0  0  0  0  0  0
   -5.5086   -0.5005    0.7164 H   0  0  0  0  0  0  0  0  0  0  0  0
   -4.7119    1.0885   -1.1395 H   0  0  0  0  0  0  0  0  0  0  0  0
   -5.2121   -0.1108   -2.3538 H   0  0  0  0  0  0  0  0  0  0  0  0
   -7.4856   -1.0028   -2.1889 H   0  0  0  0  0  0  0  0  0  0  0  0
   -8.5697    0.4055   -2.4024 H   0  0  0  0  0  0  0  0  0  0  0  0
   -8.3054   -1.4181   -0.0345 H   0  0  0  0  0  0  0  0  0  0  0  0
   -9.7143   -0.4271   -0.5819 H   0  0  0  0  0  0  0  0  0  0  0  0
   -9.1152    1.2633    0.8779 H   0  0  0  0  0  0  0  0  0  0  0  0
   -7.7998    0.1942    1.5065 H   0  0  0  0  0  0  0  0  0  0  0  0
   -6.3183    1.7212    0.5640 H   0  0  0  0  0  0  0  0  0  0  0  0
   -7.6395    2.5128   -0.3456 H   0  0  0  0  0  0  0  0  0  0  0  0
    2.9442   -4.0384   -0.3321 H   0  0  0  0  0  0  0  0  0  0  0  0
    9.6778    0.8516    1.0793 H   0  0  0  0  0  0  0  0  0  0  0  0
   10.1506    0.0376   -2.6237 H   0  0  0  0  0  0  0  0  0  0  0  0
   11.0368    0.6409   -1.1714 H   0  0  0  0  0  0  0  0  0  0  0  0
   10.6693   -1.1234   -1.3352 H   0  0  0  0  0  0  0  0  0  0  0  0
    7.5147   -0.6371   -2.3080 H   0  0  0  0  0  0  0  0  0  0  0  0
    7.5630    1.2926    2.7669 H   0  0  0  0  0  0  0  0  0  0  0  0
    5.0815    1.1055    2.9423 H   0  0  0  0  0  0  0  0  0  0  0  0
  1  2  1  0
  2  3  1  0
  3  4  2  0
  4  5  1  0
  5  6  2  0
  6  7  1  0
  7  8  2  0
  8  9  1  0
  9 10  1  0
 10 11  1  0
 11 12  1  0
 12 13  1  0
 13 14  1  0
 14 15  1  0
 15 16  1  0
 16 17  1  0
  6 18  1  0
 18 19  2  0
 19 20  1  0
 20 21  2  0
 21 22  1  0
 22 23  1  0
 23 24  2  0
 24 25  1  0
 24 26  1  0
 26 27  2  0
 27 28  1  0
 28 29  1  0
 29 30  1  0
 29 31  2  0
 27 32  1  0
 32 33  2  0
  8  3  1  0
 17 13  1  0
 33 23  1  0
 21  5  1  0
 31 26  1  0
  1 34  1  0
  1 35  1  0
  1 36  1  0
  4 37  1  0
  7 38  1  0
 10 39  1  0
 10 40  1  0
 11 41  1  0
 11 42  1  0
 12 43  1  0
 12 44  1  0
 14 45  1  0
 14 46  1  0
 15 47  1  0
 15 48  1  0
 16 49  1  0
 16 50  1  0
 17 51  1  0
 17 52  1  0
 19 53  1  0
 28 54  1  0
 30 55  1  0
 30 56  1  0
 30 57  1  0
 31 58  1  0
 32 59  1  0
 33 60  1  0
M  END
$$$$
