
     RDKit          3D

 19 19  0  0  0  0  0  0  0  0999 V2000
   -2.2076   -0.8451    0.5516 O   0  0  0  0  0  0  0  0  0  0  0  0
   -1.3221   -0.2043   -0.3300 C   0  0  0  0  0  0  0  0  0  0  0  0
   -0.7284    1.0533    0.3515 C   0  0  0  0  0  0  0  0  0  0  0  0
    0.6626    1.3911   -0.1943 C   0  0  0  0  0  0  0  0  0  0  0  0
    1.6656    0.2478    0.0612 C   0  0  0  0  0  0  0  0  0  0  0  0
    1.0087   -1.1472    0.1009 C   0  0  0  0  0  0  0  0  0  0  0  0
   -0.2390   -1.2096   -0.7868 C   0  0  0  0  0  0  0  0  0  0  0  0
   -3.0168   -0.2725    0.6109 H   0  0  0  0  0  0  0  0  0  0  0  0
   -1.8813    0.1141   -1.2411 H   0  0  0  0  0  0  0  0  0  0  0  0
   -1.4093    1.9172    0.1916 H   0  0  0  0  0  0  0  0  0  0  0  0
   -0.6481    0.8894    1.4493 H   0  0  0  0  0  0  0  0  0  0  0  0
    1.0339    2.3242    0.2820 H   0  0  0  0  0  0  0  0  0  0  0  0
    0.5846    1.5801   -1.2878 H   0  0  0  0  0  0  0  0  0  0  0  0
    2.1856    0.4226    1.0283 H   0  0  0  0  0  0  0  0  0  0  0  0
    2.4386    0.2688   -0.7377 H   0  0  0  0  0  0  0  0  0  0  0  0
    1.7424   -1.9125   -0.2328 H   0  0  0  0  0  0  0  0  0  0  0  0
    0.7196   -1.3927    1.1467 H   0  0  0  0  0  0  0  0  0  0  0  0
   -0.6482   -2.2434   -0.7817 H   0  0  0  0  0  0  0  0  0  0  0  0
    0.0593   -0.9815   -1.8342 H   0  0  0  0  0  0  0  0  0  0  0  0
  1  2  1  0
  2  3  1  0
  3  4  1  0
  4  5  1  0
  5  6  1  0
  6  7  1  0
  7  2  1  0
  1  8  1  0
  2  9  1  0
  3 10  1  0
  3 11  1  0
  4 12  1  0
  4 13  1  0
  5 14  1  0
  5 15  1  0
  6 16  1  0
  6 17  1  0
  7 18  1  0
  7 19  1  0
M  END
$$$$
