
     RDKit          3D

 44 46  0  0  0  0  0  0  0  0999 V2000
   -7.0733   -0.5229   -0.4004 N   0  0  0  0  0  0  0  0  0  0  0  0
   -5.9554   -0.0932    0.3759 C   0  0  0  0  0  0  0  0  0  0  0  0
   -6.1491    0.7730    1.4236 N   0  0  0  0  0  0  0  0  0  0  0  0
   -5.1052    1.2121    2.1857 C   0  0  0  0  0  0  0  0  0  0  0  0
   -5.2969    2.0142    3.1368 O   0  0  0  0  0  0  0  0  0  0  0  0
   -3.8350    0.7505    1.8741 C   0  0  0  0  0  0  0  0  0  0  0  0
   -3.6626   -0.1088    0.8439 C   0  0  0  0  0  0  0  0  0  0  0  0
   -4.6949   -0.5396    0.0742 N   0  0  0  0  0  0  0  0  0  0  0  0
   -2.3592   -0.3989    0.7175 N   0  0  0  0  0  0  0  0  0  0  0  0
   -1.7692    0.3384    1.6962 C   0  0  0  0  0  0  0  0  0  0  0  0
   -2.6534    1.0587    2.4396 N   0  0  0  0  0  0  0  0  0  0  0  0
   -1.7075   -1.2054   -0.3192 C   0  0  2  0  0  0  0  0  0  0  0  0
   -0.4703   -1.6943    0.1613 O   0  0  0  0  0  0  0  0  0  0  0  0
    0.5402   -1.2416   -0.7113 C   0  0  2  0  0  0  0  0  0  0  0  0
    1.7981   -0.8933    0.0902 C   0  0  0  0  0  0  0  0  0  0  0  0
    2.8245   -0.5039   -0.7929 O   0  0  0  0  0  0  0  0  0  0  0  0
    4.1909   -0.0572    0.1252 P   0  0  0  0  0  5  0  0  0  0  0  0
    3.7798    1.2243    1.1559 O   0  0  0  0  0  0  0  0  0  0  0  0
    4.6519   -1.2420    0.9456 O   0  0  0  0  0  0  0  0  0  0  0  0
    5.4226    0.3942   -0.9627 O   0  0  0  0  0  0  0  0  0  0  0  0
    6.6309    1.2369   -0.1026 P   0  0  0  0  0  5  0  0  0  0  0  0
    7.9179    1.5349   -1.1593 O   0  0  0  0  0  0  0  0  0  0  0  0
    6.0991    2.5641    0.3911 O   0  0  0  0  0  0  0  0  0  0  0  0
    7.2429    0.3052    1.2521 N   0  0  0  0  0  0  0  0  0  0  0  0
   -0.0006   -0.0487   -1.4878 C   0  0  1  0  0  0  0  0  0  0  0  0
    0.6029    0.0483   -2.7522 O   0  0  0  0  0  0  0  0  0  0  0  0
   -1.4715   -0.3639   -1.5769 C   0  0  1  0  0  0  0  0  0  0  0  0
   -1.7448   -1.1234   -2.7278 O   0  0  0  0  0  0  0  0  0  0  0  0
   -6.9449   -1.1798   -1.2017 H   0  0  0  0  0  0  0  0  0  0  0  0
   -8.0342   -0.1830   -0.1735 H   0  0  0  0  0  0  0  0  0  0  0  0
   -4.5365   -1.1901   -0.7269 H   0  0  0  0  0  0  0  0  0  0  0  0
   -0.7009    0.3670    1.8644 H   0  0  0  0  0  0  0  0  0  0  0  0
   -2.3534   -2.0802   -0.5523 H   0  0  0  0  0  0  0  0  0  0  0  0
    0.7846   -2.0697   -1.4158 H   0  0  0  0  0  0  0  0  0  0  0  0
    2.1022   -1.8001    0.6604 H   0  0  0  0  0  0  0  0  0  0  0  0
    1.5501   -0.0783    0.8077 H   0  0  0  0  0  0  0  0  0  0  0  0
    3.3470    1.8922    0.5663 H   0  0  0  0  0  0  0  0  0  0  0  0
    7.5083    2.0005   -1.9317 H   0  0  0  0  0  0  0  0  0  0  0  0
    7.3467   -0.6817    0.9265 H   0  0  0  0  0  0  0  0  0  0  0  0
    6.5169    0.3175    2.0025 H   0  0  0  0  0  0  0  0  0  0  0  0
    0.1450    0.8945   -0.9083 H   0  0  0  0  0  0  0  0  0  0  0  0
    0.3176    0.9200   -3.1320 H   0  0  0  0  0  0  0  0  0  0  0  0
   -2.0697    0.5780   -1.5850 H   0  0  0  0  0  0  0  0  0  0  0  0
   -2.7316   -1.1245   -2.8363 H   0  0  0  0  0  0  0  0  0  0  0  0
  1  2  1  0
  2  3  2  0
  3  4  1  0
  4  5  2  0
  4  6  1  0
  6  7  2  0
  7  8  1  0
  7  9  1  0
  9 10  1  0
 10 11  2  0
  9 12  1  0
 12 13  1  0
 13 14  1  0
 14 15  1  0
 15 16  1  0
 16 17  1  0
 17 18  1  0
 17 19  2  0
 17 20  1  0
 20 21  1  0
 21 22  1  0
 21 23  2  0
 21 24  1  0
 14 25  1  0
 25 26  1  0
 25 27  1  0
 27 28  1  0
  8  2  1  0
 27 12  1  0
 11  6  1  0
  1 29  1  0
  1 30  1  0
  8 31  1  0
 10 32  1  0
 12 33  1  6
 14 34  1  6
 15 35  1  0
 15 36  1  0
 18 37  1  0
 22 38  1  0
 24 39  1  0
 24 40  1  0
 25 41  1  1
 26 42  1  0
 27 43  1  1
 28 44  1  0
M  END
$$$$
