
     RDKit          3D

 36 39  0  0  0  0  0  0  0  0999 V2000
    4.7957   -3.0154    0.5348 O   0  0  0  0  0  0  0  0  0  0  0  0
    4.6374   -1.7666    1.1270 C   0  0  0  0  0  0  0  0  0  0  0  0
    5.5744   -0.9252    1.0848 O   0  0  0  0  0  0  0  0  0  0  0  0
    3.3359   -1.4066    1.7664 C   0  0  0  0  0  0  0  0  0  0  0  0
    2.4261   -0.8564    0.7651 N   0  0  0  0  0  0  0  0  0  0  0  0
    1.5412   -1.5516    0.0095 C   0  0  0  0  0  0  0  0  0  0  0  0
    0.8923   -0.6959   -0.8798 C   0  0  0  0  0  0  0  0  0  0  0  0
   -0.2077   -1.0609   -1.8273 C   0  0  0  0  0  0  0  0  0  0  0  0
   -1.5320   -0.7637   -1.2048 C   0  0  0  0  0  0  0  0  0  0  0  0
   -2.1567    0.4333   -1.3275 N   0  0  0  0  0  0  0  0  0  0  0  0
   -3.3037    0.4593   -0.6020 C   0  0  0  0  0  0  0  0  0  0  0  0
   -3.5830   -0.7012    0.1032 C   0  0  0  0  0  0  0  0  0  0  0  0
   -2.3622   -1.8200   -0.1724 S   0  0  0  0  0  0  0  0  0  0  0  0
   -4.7187   -0.8254    0.9004 C   0  0  0  0  0  0  0  0  0  0  0  0
   -4.9714   -1.9686    1.5844 F   0  0  0  0  0  0  0  0  0  0  0  0
   -5.5968    0.2674    0.9787 C   0  0  0  0  0  0  0  0  0  0  0  0
   -5.3235    1.4530    0.2667 C   0  0  0  0  0  0  0  0  0  0  0  0
   -6.1790    2.5014    0.3526 F   0  0  0  0  0  0  0  0  0  0  0  0
   -4.1684    1.5537   -0.5299 C   0  0  0  0  0  0  0  0  0  0  0  0
   -3.9000    2.6937   -1.2141 F   0  0  0  0  0  0  0  0  0  0  0  0
    1.4095    0.5628   -0.6371 C   0  0  0  0  0  0  0  0  0  0  0  0
    1.1393    1.8085   -1.1965 C   0  0  0  0  0  0  0  0  0  0  0  0
    1.8663    2.9078   -0.7076 C   0  0  0  0  0  0  0  0  0  0  0  0
    2.8250    2.7189    0.3139 C   0  0  0  0  0  0  0  0  0  0  0  0
    3.0491    1.4750    0.8350 N   0  0  0  0  0  0  0  0  0  0  0  0
    2.3400    0.4220    0.3543 C   0  0  0  0  0  0  0  0  0  0  0  0
    5.6651   -3.2684    0.0807 H   0  0  0  0  0  0  0  0  0  0  0  0
    3.5025   -0.6646    2.5773 H   0  0  0  0  0  0  0  0  0  0  0  0
    2.8870   -2.3130    2.2272 H   0  0  0  0  0  0  0  0  0  0  0  0
    1.3702   -2.6171    0.0976 H   0  0  0  0  0  0  0  0  0  0  0  0
   -0.1476   -2.1415   -2.0777 H   0  0  0  0  0  0  0  0  0  0  0  0
   -0.0979   -0.4851   -2.7708 H   0  0  0  0  0  0  0  0  0  0  0  0
   -6.4874    0.1993    1.5901 H   0  0  0  0  0  0  0  0  0  0  0  0
    0.4012    1.9300   -1.9785 H   0  0  0  0  0  0  0  0  0  0  0  0
    1.6927    3.8961   -1.1129 H   0  0  0  0  0  0  0  0  0  0  0  0
    3.3848    3.5649    0.6895 H   0  0  0  0  0  0  0  0  0  0  0  0
  1  2  1  0
  2  3  2  0
  2  4  1  0
  4  5  1  0
  5  6  1  0
  6  7  2  0
  7  8  1  0
  8  9  1  0
  9 10  2  0
 10 11  1  0
 11 12  2  0
 12 13  1  0
 12 14  1  0
 14 15  1  0
 14 16  2  0
 16 17  1  0
 17 18  1  0
 17 19  2  0
 19 20  1  0
  7 21  1  0
 21 22  2  0
 22 23  1  0
 23 24  2  0
 24 25  1  0
 25 26  2  0
 26  5  1  0
 13  9  1  0
 26 21  1  0
 19 11  1  0
  1 27  1  0
  4 28  1  0
  4 29  1  0
  6 30  1  0
  8 31  1  0
  8 32  1  0
 16 33  1  0
 22 34  1  0
 23 35  1  0
 24 36  1  0
M  END
$$$$
