
     RDKit          3D

 56 60  0  0  0  0  0  0  0  0999 V2000
    4.5159   -2.4458    0.6521 C   0  0  1  0  0  0  0  0  0  0  0  0
    5.8227   -2.6831    1.1090 O   0  0  0  0  0  0  0  0  0  0  0  0
    3.5450   -2.6517    1.7759 C   0  0  0  0  0  0  0  0  0  0  0  0
    3.4612   -1.2714    2.3979 C   0  0  1  0  0  0  0  0  0  0  0  0
    3.7014   -0.3080    1.3960 O   0  0  0  0  0  0  0  0  0  0  0  0
    4.3288   -0.9619    0.3104 C   0  0  2  0  0  0  0  0  0  0  0  0
    3.4793   -0.7853   -0.9544 C   0  0  0  0  0  0  0  0  0  0  0  0
    3.3174    0.5882   -1.2211 O   0  0  0  0  0  0  0  0  0  0  0  0
    2.5574    0.7565   -2.7400 P   0  0  0  0  0  5  0  0  0  0  0  0
    3.5829    0.1969   -3.9649 O   0  0  0  0  0  0  0  0  0  0  0  0
    2.2152    2.3915   -3.0070 O   0  0  0  0  0  0  0  0  0  0  0  0
    1.2638   -0.0266   -2.7728 O   0  0  0  0  0  0  0  0  0  0  0  0
    2.1518   -1.0632    3.0218 N   0  0  0  0  0  0  0  0  0  0  0  0
    1.7223   -1.5892    4.1985 C   0  0  0  0  0  0  0  0  0  0  0  0
    0.4208   -1.3022    4.4776 N   0  0  0  0  0  0  0  0  0  0  0  0
    0.0448   -0.5716    3.4115 C   0  0  0  0  0  0  0  0  0  0  0  0
    1.0692   -0.4337    2.5431 C   0  0  0  0  0  0  0  0  0  0  0  0
    0.9520    0.2564    1.3843 N   0  0  0  0  0  0  0  0  0  0  0  0
   -0.2528    0.8335    1.0865 C   0  0  0  0  0  0  0  0  0  0  0  0
   -0.3788    1.5745   -0.1386 N   0  0  0  0  0  0  0  0  0  0  0  0
   -1.6328    2.1474   -0.6308 C   0  0  0  0  0  0  0  0  0  0  0  0
   -2.6417    1.0835   -1.0432 C   0  0  0  0  0  0  0  0  0  0  0  0
   -2.1934   -0.2091   -1.3884 C   0  0  0  0  0  0  0  0  0  0  0  0
   -3.0927   -1.2109   -1.7468 C   0  0  0  0  0  0  0  0  0  0  0  0
   -4.4573   -0.9463   -1.7953 C   0  0  0  0  0  0  0  0  0  0  0  0
   -4.9372    0.3381   -1.5121 C   0  0  0  0  0  0  0  0  0  0  0  0
   -4.0319    1.3755   -1.1523 C   0  0  0  0  0  0  0  0  0  0  0  0
   -4.5523    2.6710   -0.9294 C   0  0  0  0  0  0  0  0  0  0  0  0
   -5.9245    2.9148   -1.0250 C   0  0  0  0  0  0  0  0  0  0  0  0
   -6.8024    1.8831   -1.3517 C   0  0  0  0  0  0  0  0  0  0  0  0
   -6.3136    0.6011   -1.5991 C   0  0  0  0  0  0  0  0  0  0  0  0
   -1.3158    0.6964    1.9566 N   0  0  0  0  0  0  0  0  0  0  0  0
   -1.1862   -0.0026    3.1256 C   0  0  0  0  0  0  0  0  0  0  0  0
   -2.1590   -0.1242    3.9171 O   0  0  0  0  0  0  0  0  0  0  0  0
    4.2768   -3.1304   -0.1961 H   0  0  0  0  0  0  0  0  0  0  0  0
    6.3991   -2.7260    0.3018 H   0  0  0  0  0  0  0  0  0  0  0  0
    3.8915   -3.4156    2.5063 H   0  0  0  0  0  0  0  0  0  0  0  0
    2.5559   -2.9530    1.3627 H   0  0  0  0  0  0  0  0  0  0  0  0
    4.2523   -1.1700    3.1747 H   0  0  0  0  0  0  0  0  0  0  0  0
    5.3174   -0.4836    0.1302 H   0  0  0  0  0  0  0  0  0  0  0  0
    2.4863   -1.2628   -0.7903 H   0  0  0  0  0  0  0  0  0  0  0  0
    4.0057   -1.2964   -1.7939 H   0  0  0  0  0  0  0  0  0  0  0  0
    4.4272    0.6979   -3.8345 H   0  0  0  0  0  0  0  0  0  0  0  0
    3.0856    2.8515   -2.8995 H   0  0  0  0  0  0  0  0  0  0  0  0
    2.3460   -2.1921    4.8459 H   0  0  0  0  0  0  0  0  0  0  0  0
    0.4817    1.7253   -0.7102 H   0  0  0  0  0  0  0  0  0  0  0  0
   -1.4193    2.7834   -1.5166 H   0  0  0  0  0  0  0  0  0  0  0  0
   -2.0390    2.8045    0.1647 H   0  0  0  0  0  0  0  0  0  0  0  0
   -1.1410   -0.4581   -1.3741 H   0  0  0  0  0  0  0  0  0  0  0  0
   -2.7276   -2.2007   -1.9895 H   0  0  0  0  0  0  0  0  0  0  0  0
   -5.1377   -1.7426   -2.0737 H   0  0  0  0  0  0  0  0  0  0  0  0
   -3.9156    3.5124   -0.6994 H   0  0  0  0  0  0  0  0  0  0  0  0
   -6.3084    3.9117   -0.8493 H   0  0  0  0  0  0  0  0  0  0  0  0
   -7.8643    2.0801   -1.4241 H   0  0  0  0  0  0  0  0  0  0  0  0
   -7.0110   -0.1843   -1.8661 H   0  0  0  0  0  0  0  0  0  0  0  0
   -2.2411    1.1275    1.7402 H   0  0  0  0  0  0  0  0  0  0  0  0
  1  2  1  0
  1  3  1  0
  3  4  1  0
  4  5  1  0
  5  6  1  0
  6  7  1  0
  7  8  1  0
  8  9  1  0
  9 10  1  0
  9 11  1  0
  9 12  2  0
  4 13  1  0
 13 14  1  0
 14 15  2  0
 15 16  1  0
 16 17  2  0
 17 18  1  0
 18 19  2  0
 19 20  1  0
 20 21  1  0
 21 22  1  0
 22 23  2  0
 23 24  1  0
 24 25  2  0
 25 26  1  0
 26 27  2  0
 27 28  1  0
 28 29  2  0
 29 30  1  0
 30 31  2  0
 19 32  1  0
 32 33  1  0
 33 34  2  0
  6  1  1  0
 17 13  1  0
 27 22  1  0
 33 16  1  0
 31 26  1  0
  1 35  1  6
  2 36  1  0
  3 37  1  0
  3 38  1  0
  4 39  1  1
  6 40  1  6
  7 41  1  0
  7 42  1  0
 10 43  1  0
 11 44  1  0
 14 45  1  0
 20 46  1  0
 21 47  1  0
 21 48  1  0
 23 49  1  0
 24 50  1  0
 25 51  1  0
 28 52  1  0
 29 53  1  0
 30 54  1  0
 31 55  1  0
 32 56  1  0
M  END
$$$$
