
     RDKit          3D

 53 56  0  0  0  0  0  0  0  0999 V2000
    4.0336   -3.2181   -1.7334 C   0  0  0  0  0  0  0  0  0  0  0  0
    4.0408   -1.7183   -2.0270 C   0  0  0  0  0  0  0  0  0  0  0  0
    4.0179   -0.8634   -0.7511 C   0  0  0  0  0  0  0  0  0  0  0  0
    2.6788   -0.9529   -0.0081 C   0  0  0  0  0  0  0  0  0  0  0  0
    2.6375    0.0332    1.1243 C   0  0  0  0  0  0  0  0  0  0  0  0
    3.1054   -0.2671    2.3554 N   0  0  0  0  0  0  0  0  0  0  0  0
    2.9546    0.8738    3.0539 C   0  0  0  0  0  0  0  0  0  0  0  0
    3.4382    1.0515    4.7305 Cl  0  0  0  0  0  0  0  0  0  0  0  0
    2.4037    1.8483    2.2472 C   0  0  0  0  0  0  0  0  0  0  0  0
    2.1534    3.2781    2.6303 C   0  0  0  0  0  0  0  0  0  0  0  0
    3.1973    4.0757    2.1484 O   0  0  0  0  0  0  0  0  0  0  0  0
    2.2206    1.3194    1.0183 N   0  0  0  0  0  0  0  0  0  0  0  0
    1.6785    1.9870   -0.1727 C   0  0  0  0  0  0  0  0  0  0  0  0
    0.2750    1.5179   -0.4603 C   0  0  0  0  0  0  0  0  0  0  0  0
   -0.7096    1.5580    0.5405 C   0  0  0  0  0  0  0  0  0  0  0  0
   -2.0065    1.1122    0.2737 C   0  0  0  0  0  0  0  0  0  0  0  0
   -2.3385    0.6212   -0.9982 C   0  0  0  0  0  0  0  0  0  0  0  0
   -1.3672    0.6150   -2.0098 C   0  0  0  0  0  0  0  0  0  0  0  0
   -0.0697    1.0601   -1.7430 C   0  0  0  0  0  0  0  0  0  0  0  0
   -3.7084    0.1398   -1.2775 C   0  0  0  0  0  0  0  0  0  0  0  0
   -4.4711    0.8322   -2.2336 C   0  0  0  0  0  0  0  0  0  0  0  0
   -5.7970    0.4749   -2.4794 C   0  0  0  0  0  0  0  0  0  0  0  0
   -6.3792   -0.5757   -1.7731 C   0  0  0  0  0  0  0  0  0  0  0  0
   -5.6333   -1.2846   -0.8298 C   0  0  0  0  0  0  0  0  0  0  0  0
   -4.2888   -0.9531   -0.5778 C   0  0  0  0  0  0  0  0  0  0  0  0
   -3.5210   -1.7915    0.3770 C   0  0  0  0  0  0  0  0  0  0  0  0
   -4.0848   -2.5667    1.3249 N   0  0  0  0  0  0  0  0  0  0  0  0
   -3.0593   -3.1603    1.9095 N   0  0  0  0  0  0  0  0  0  0  0  0
   -1.9212   -2.7859    1.3526 N   0  0  0  0  0  0  0  0  0  0  0  0
   -2.1785   -1.9273    0.3799 N   0  0  0  0  0  0  0  0  0  0  0  0
    4.8629   -3.4834   -1.0438 H   0  0  0  0  0  0  0  0  0  0  0  0
    3.0661   -3.5258   -1.2853 H   0  0  0  0  0  0  0  0  0  0  0  0
    4.1691   -3.7800   -2.6815 H   0  0  0  0  0  0  0  0  0  0  0  0
    3.1743   -1.4610   -2.6744 H   0  0  0  0  0  0  0  0  0  0  0  0
    4.9664   -1.4783   -2.5938 H   0  0  0  0  0  0  0  0  0  0  0  0
    4.2032    0.1927   -1.0447 H   0  0  0  0  0  0  0  0  0  0  0  0
    4.8453   -1.1724   -0.0749 H   0  0  0  0  0  0  0  0  0  0  0  0
    2.5478   -1.9732    0.4101 H   0  0  0  0  0  0  0  0  0  0  0  0
    1.8383   -0.7683   -0.7068 H   0  0  0  0  0  0  0  0  0  0  0  0
    1.1847    3.6181    2.2047 H   0  0  0  0  0  0  0  0  0  0  0  0
    2.0886    3.3708    3.7365 H   0  0  0  0  0  0  0  0  0  0  0  0
    2.9766    5.0065    2.4124 H   0  0  0  0  0  0  0  0  0  0  0  0
    1.6680    3.0883   -0.0391 H   0  0  0  0  0  0  0  0  0  0  0  0
    2.3476    1.7862   -1.0365 H   0  0  0  0  0  0  0  0  0  0  0  0
   -0.4735    1.9238    1.5308 H   0  0  0  0  0  0  0  0  0  0  0  0
   -2.7512    1.1428    1.0597 H   0  0  0  0  0  0  0  0  0  0  0  0
   -1.6114    0.2519   -3.0006 H   0  0  0  0  0  0  0  0  0  0  0  0
    0.6686    1.0355   -2.5349 H   0  0  0  0  0  0  0  0  0  0  0  0
   -4.0432    1.6676   -2.7749 H   0  0  0  0  0  0  0  0  0  0  0  0
   -6.3771    1.0205   -3.2124 H   0  0  0  0  0  0  0  0  0  0  0  0
   -7.4095   -0.8479   -1.9627 H   0  0  0  0  0  0  0  0  0  0  0  0
   -6.1045   -2.1111   -0.3122 H   0  0  0  0  0  0  0  0  0  0  0  0
   -3.1379   -3.8367    2.7003 H   0  0  0  0  0  0  0  0  0  0  0  0
  1  2  1  0
  2  3  1  0
  3  4  1  0
  4  5  1  0
  5  6  2  0
  6  7  1  0
  7  8  1  0
  7  9  2  0
  9 10  1  0
 10 11  1  0
  9 12  1  0
 12 13  1  0
 13 14  1  0
 14 15  2  0
 15 16  1  0
 16 17  2  0
 17 18  1  0
 18 19  2  0
 17 20  1  0
 20 21  2  0
 21 22  1  0
 22 23  2  0
 23 24  1  0
 24 25  2  0
 25 26  1  0
 26 27  2  0
 27 28  1  0
 28 29  1  0
 29 30  2  0
 12  5  1  0
 19 14  1  0
 25 20  1  0
 30 26  1  0
  1 31  1  0
  1 32  1  0
  1 33  1  0
  2 34  1  0
  2 35  1  0
  3 36  1  0
  3 37  1  0
  4 38  1  0
  4 39  1  0
 10 40  1  0
 10 41  1  0
 11 42  1  0
 13 43  1  0
 13 44  1  0
 15 45  1  0
 16 46  1  0
 18 47  1  0
 19 48  1  0
 21 49  1  0
 22 50  1  0
 23 51  1  0
 24 52  1  0
 28 53  1  0
M  END
$$$$
