
     RDKit          3D

 29 30  0  0  0  0  0  0  0  0999 V2000
   -1.8242   -1.5940   -2.0497 O   0  0  0  0  0  0  0  0  0  0  0  0
   -2.5447   -1.8600   -0.8778 C   0  0  0  0  0  0  0  0  0  0  0  0
   -2.0782   -0.9431    0.2590 C   0  0  1  0  0  0  0  0  0  0  0  0
   -0.7048   -1.1593    0.5125 O   0  0  0  0  0  0  0  0  0  0  0  0
   -0.1399    0.1018    0.7866 C   0  0  2  0  0  0  0  0  0  0  0  0
   -0.9128    1.1441   -0.0101 C   0  0  2  0  0  0  0  0  0  0  0  0
   -0.8944    2.3981    0.6222 O   0  0  0  0  0  0  0  0  0  0  0  0
   -2.3072    0.5495   -0.0584 C   0  0  2  0  0  0  0  0  0  0  0  0
   -3.1785    1.1435    0.8770 O   0  0  0  0  0  0  0  0  0  0  0  0
    1.2992    0.1229    0.4492 N   0  0  0  0  0  0  0  0  0  0  0  0
    2.1657    0.7350    1.3130 C   0  0  0  0  0  0  0  0  0  0  0  0
    3.5273    0.7982    1.0295 C   0  0  0  0  0  0  0  0  0  0  0  0
    4.3811    1.4017    1.8943 F   0  0  0  0  0  0  0  0  0  0  0  0
    3.9892    0.2353   -0.1559 C   0  0  0  0  0  0  0  0  0  0  0  0
    5.2163    0.2759   -0.4396 O   0  0  0  0  0  0  0  0  0  0  0  0
    3.1119   -0.3551   -1.0084 N   0  0  0  0  0  0  0  0  0  0  0  0
    1.7810   -0.4108   -0.7234 C   0  0  0  0  0  0  0  0  0  0  0  0
    1.0005   -0.9537   -1.5521 O   0  0  0  0  0  0  0  0  0  0  0  0
   -2.1765   -2.2173   -2.7367 H   0  0  0  0  0  0  0  0  0  0  0  0
   -2.3881   -2.9199   -0.5761 H   0  0  0  0  0  0  0  0  0  0  0  0
   -3.6320   -1.7025   -1.0575 H   0  0  0  0  0  0  0  0  0  0  0  0
   -2.6470   -1.2327    1.1712 H   0  0  0  0  0  0  0  0  0  0  0  0
   -0.2823    0.2962    1.8767 H   0  0  0  0  0  0  0  0  0  0  0  0
   -0.5168    1.2267   -1.0494 H   0  0  0  0  0  0  0  0  0  0  0  0
    0.0084    2.7789    0.4636 H   0  0  0  0  0  0  0  0  0  0  0  0
   -2.7381    0.7007   -1.0731 H   0  0  0  0  0  0  0  0  0  0  0  0
   -2.7866    1.0268    1.7826 H   0  0  0  0  0  0  0  0  0  0  0  0
    1.8070    1.1830    2.2323 H   0  0  0  0  0  0  0  0  0  0  0  0
    3.4647   -0.7700   -1.9014 H   0  0  0  0  0  0  0  0  0  0  0  0
  1  2  1  0
  2  3  1  0
  3  4  1  0
  4  5  1  0
  5  6  1  0
  6  7  1  0
  6  8  1  0
  8  9  1  0
  5 10  1  0
 10 11  1  0
 11 12  2  0
 12 13  1  0
 12 14  1  0
 14 15  2  0
 14 16  1  0
 16 17  1  0
 17 18  2  0
  8  3  1  0
 17 10  1  0
  1 19  1  0
  2 20  1  0
  2 21  1  0
  3 22  1  1
  5 23  1  1
  6 24  1  6
  7 25  1  0
  8 26  1  6
  9 27  1  0
 11 28  1  0
 16 29  1  0
M  END
$$$$
