
     RDKit          3D

 59 62  0  0  0  0  0  0  0  0999 V2000
   -5.6785   -0.4243    1.3243 C   0  0  1  0  0  0  0  0  0  0  0  0
   -7.1112   -0.1429    0.8559 C   0  0  0  0  0  0  0  0  0  0  0  0
   -4.9091   -1.1296    0.2912 N   0  0  0  0  0  0  0  0  0  0  0  0
   -4.8236   -0.7232   -1.1041 C   0  0  0  0  0  0  0  0  0  0  0  0
   -3.7920   -1.6595   -1.7539 C   0  0  0  0  0  0  0  0  0  0  0  0
   -2.9469   -2.2625   -0.6001 C   0  0  2  0  0  0  0  0  0  0  0  0
   -2.7669   -3.7861   -0.7665 C   0  0  0  0  0  0  0  0  0  0  0  0
   -3.8265   -1.9983    0.5791 C   0  0  0  0  0  0  0  0  0  0  0  0
   -3.6231   -2.4787    1.7280 O   0  0  0  0  0  0  0  0  0  0  0  0
   -1.5873   -1.5500   -0.5066 C   0  0  0  0  0  0  0  0  0  0  0  0
   -0.6377   -1.7322   -1.5333 C   0  0  0  0  0  0  0  0  0  0  0  0
    0.5996   -1.0843   -1.4946 C   0  0  0  0  0  0  0  0  0  0  0  0
    0.9166   -0.2229   -0.4311 C   0  0  0  0  0  0  0  0  0  0  0  0
    2.1448    0.4483   -0.3448 O   0  0  0  0  0  0  0  0  0  0  0  0
    3.2023    0.3224   -1.2921 C   0  0  0  0  0  0  0  0  0  0  0  0
    4.3814    1.1464   -0.8370 C   0  0  0  0  0  0  0  0  0  0  0  0
    4.7105    2.3099   -1.5511 C   0  0  0  0  0  0  0  0  0  0  0  0
    5.7934    3.0985   -1.1494 C   0  0  0  0  0  0  0  0  0  0  0  0
    6.1467    4.3383   -1.9076 C   0  0  0  0  0  0  0  0  0  0  0  0
    6.5212    2.7441   -0.0589 N   0  0  0  0  0  0  0  0  0  0  0  0
    6.2356    1.6337    0.6696 C   0  0  0  0  0  0  0  0  0  0  0  0
    7.0188    1.3225    1.7870 C   0  0  0  0  0  0  0  0  0  0  0  0
    6.7337    0.1892    2.5503 C   0  0  0  0  0  0  0  0  0  0  0  0
    5.6646   -0.6383    2.2030 C   0  0  0  0  0  0  0  0  0  0  0  0
    4.8747   -0.3401    1.0888 C   0  0  0  0  0  0  0  0  0  0  0  0
    5.1496    0.7995    0.3029 C   0  0  0  0  0  0  0  0  0  0  0  0
   -0.0235   -0.0184    0.5810 C   0  0  0  0  0  0  0  0  0  0  0  0
   -1.2618   -0.6644    0.5462 C   0  0  0  0  0  0  0  0  0  0  0  0
   -4.9634    0.8408    1.7247 C   0  0  0  0  0  0  0  0  0  0  0  0
   -5.0793    1.8840    1.0255 O   0  0  0  0  0  0  0  0  0  0  0  0
   -4.0986    0.8462    2.8639 N   0  0  0  0  0  0  0  0  0  0  0  0
   -3.4119    1.9637    3.2017 O   0  0  0  0  0  0  0  0  0  0  0  0
   -5.7647   -1.0798    2.2189 H   0  0  0  0  0  0  0  0  0  0  0  0
   -7.1224    0.5472   -0.0144 H   0  0  0  0  0  0  0  0  0  0  0  0
   -7.6959    0.3174    1.6809 H   0  0  0  0  0  0  0  0  0  0  0  0
   -7.6050   -1.0941    0.5642 H   0  0  0  0  0  0  0  0  0  0  0  0
   -4.4679    0.3278   -1.1671 H   0  0  0  0  0  0  0  0  0  0  0  0
   -5.8119   -0.8183   -1.6027 H   0  0  0  0  0  0  0  0  0  0  0  0
   -4.3407   -2.4593   -2.3000 H   0  0  0  0  0  0  0  0  0  0  0  0
   -3.1794   -1.1062   -2.4991 H   0  0  0  0  0  0  0  0  0  0  0  0
   -3.7482   -4.3068   -0.7142 H   0  0  0  0  0  0  0  0  0  0  0  0
   -2.1146   -4.1879    0.0387 H   0  0  0  0  0  0  0  0  0  0  0  0
   -2.3112   -4.0321   -1.7479 H   0  0  0  0  0  0  0  0  0  0  0  0
   -0.8572   -2.3687   -2.3801 H   0  0  0  0  0  0  0  0  0  0  0  0
    1.2987   -1.2555   -2.3016 H   0  0  0  0  0  0  0  0  0  0  0  0
    3.5085   -0.7414   -1.3888 H   0  0  0  0  0  0  0  0  0  0  0  0
    2.8434    0.6599   -2.2890 H   0  0  0  0  0  0  0  0  0  0  0  0
    4.1301    2.6041   -2.4178 H   0  0  0  0  0  0  0  0  0  0  0  0
    5.3078    5.0634   -1.8507 H   0  0  0  0  0  0  0  0  0  0  0  0
    6.3416    4.0863   -2.9713 H   0  0  0  0  0  0  0  0  0  0  0  0
    7.0571    4.8109   -1.4815 H   0  0  0  0  0  0  0  0  0  0  0  0
    7.8488    1.9598    2.0664 H   0  0  0  0  0  0  0  0  0  0  0  0
    7.3414   -0.0473    3.4142 H   0  0  0  0  0  0  0  0  0  0  0  0
    5.4462   -1.5144    2.7999 H   0  0  0  0  0  0  0  0  0  0  0  0
    4.0539   -1.0048    0.8571 H   0  0  0  0  0  0  0  0  0  0  0  0
    0.2058    0.6508    1.4008 H   0  0  0  0  0  0  0  0  0  0  0  0
   -1.9558   -0.4564    1.3476 H   0  0  0  0  0  0  0  0  0  0  0  0
   -3.9617   -0.0238    3.4255 H   0  0  0  0  0  0  0  0  0  0  0  0
   -3.9989    2.4377    3.8445 H   0  0  0  0  0  0  0  0  0  0  0  0
  1  2  1  0
  1  3  1  0
  3  4  1  0
  4  5  1  0
  5  6  1  0
  6  7  1  6
  6  8  1  0
  8  9  2  0
  6 10  1  0
 10 11  2  0
 11 12  1  0
 12 13  2  0
 13 14  1  0
 14 15  1  0
 15 16  1  0
 16 17  2  0
 17 18  1  0
 18 19  1  0
 18 20  2  0
 20 21  1  0
 21 22  2  0
 22 23  1  0
 23 24  2  0
 24 25  1  0
 25 26  2  0
 13 27  1  0
 27 28  2  0
  1 29  1  0
 29 30  2  0
 29 31  1  0
 31 32  1  0
  8  3  1  0
 28 10  1  0
 26 16  1  0
 26 21  1  0
  1 33  1  1
  2 34  1  0
  2 35  1  0
  2 36  1  0
  4 37  1  0
  4 38  1  0
  5 39  1  0
  5 40  1  0
  7 41  1  0
  7 42  1  0
  7 43  1  0
 11 44  1  0
 12 45  1  0
 15 46  1  0
 15 47  1  0
 17 48  1  0
 19 49  1  0
 19 50  1  0
 19 51  1  0
 22 52  1  0
 23 53  1  0
 24 54  1  0
 25 55  1  0
 27 56  1  0
 28 57  1  0
 31 58  1  0
 32 59  1  0
M  END
$$$$
