
     RDKit          3D

 57 57  0  0  0  0  0  0  0  0999 V2000
   -4.3559    1.3631   -0.8404 C   0  0  1  0  0  0  0  0  0  0  0  0
   -3.2804    2.4200   -1.1488 C   0  0  0  0  0  0  0  0  0  0  0  0
   -4.5884    0.4291   -2.0564 C   0  0  0  0  0  0  0  0  0  0  0  0
   -5.2635    1.1408   -3.2297 C   0  0  0  0  0  0  0  0  0  0  0  0
   -3.9842    0.5775    0.4477 C   0  0  2  0  0  0  0  0  0  0  0  0
   -2.7938   -0.2585    0.2376 N   0  0  0  0  0  0  0  0  0  0  0  0
   -1.4869    0.1079    0.7064 C   0  0  0  0  0  0  0  0  0  0  0  0
   -1.3317    1.1467    1.4059 O   0  0  0  0  0  0  0  0  0  0  0  0
   -0.3050   -0.7771    0.3871 C   0  0  1  0  0  0  0  0  0  0  0  0
    0.9560   -0.0345    0.5241 N   0  0  0  0  0  0  0  0  0  0  0  0
    2.0149   -0.1125   -0.4412 C   0  0  0  0  0  0  0  0  0  0  0  0
    1.8323   -0.6796   -1.5520 O   0  0  0  0  0  0  0  0  0  0  0  0
    3.3413    0.5089   -0.1480 C   0  0  1  0  0  0  0  0  0  0  0  0
    3.8468    0.0737    1.0936 O   0  0  0  0  0  0  0  0  0  0  0  0
    4.4798   -0.4359   -0.0570 C   0  0  2  0  0  0  0  0  0  0  0  0
    5.8293    0.1701   -0.2440 C   0  0  0  0  0  0  0  0  0  0  0  0
    6.6904    0.0699    0.6716 O   0  0  0  0  0  0  0  0  0  0  0  0
    6.1335    0.8109   -1.4499 O   0  0  0  0  0  0  0  0  0  0  0  0
    7.3740    1.4694   -1.6970 C   0  0  0  0  0  0  0  0  0  0  0  0
    7.4272    2.8064   -0.9668 C   0  0  0  0  0  0  0  0  0  0  0  0
   -0.3012   -2.0577    1.2679 C   0  0  1  0  0  0  0  0  0  0  0  0
    0.7332   -3.0671    0.7390 C   0  0  0  0  0  0  0  0  0  0  0  0
   -0.0610   -1.7423    2.7671 C   0  0  0  0  0  0  0  0  0  0  0  0
   -0.3806   -2.9271    3.6797 C   0  0  0  0  0  0  0  0  0  0  0  0
   -5.1410   -0.2542    0.9395 C   0  0  0  0  0  0  0  0  0  0  0  0
   -6.1793    0.3613    1.6319 O   0  0  0  0  0  0  0  0  0  0  0  0
   -5.1962   -1.4919    0.7040 O   0  0  0  0  0  0  0  0  0  0  0  0
   -5.3025    1.9117   -0.6323 H   0  0  0  0  0  0  0  0  0  0  0  0
   -2.3329    1.9381   -1.4714 H   0  0  0  0  0  0  0  0  0  0  0  0
   -3.6242    3.1066   -1.9493 H   0  0  0  0  0  0  0  0  0  0  0  0
   -3.0773    3.0402   -0.2499 H   0  0  0  0  0  0  0  0  0  0  0  0
   -5.2460   -0.4155   -1.7616 H   0  0  0  0  0  0  0  0  0  0  0  0
   -3.6241   -0.0013   -2.4039 H   0  0  0  0  0  0  0  0  0  0  0  0
   -4.5852    1.8959   -3.6774 H   0  0  0  0  0  0  0  0  0  0  0  0
   -5.5151    0.3981   -4.0159 H   0  0  0  0  0  0  0  0  0  0  0  0
   -6.2021    1.6338   -2.8985 H   0  0  0  0  0  0  0  0  0  0  0  0
   -3.7837    1.3145    1.2562 H   0  0  0  0  0  0  0  0  0  0  0  0
   -2.8785   -1.1130   -0.3588 H   0  0  0  0  0  0  0  0  0  0  0  0
   -0.4373   -1.0868   -0.6731 H   0  0  0  0  0  0  0  0  0  0  0  0
    1.1466    0.4747    1.4170 H   0  0  0  0  0  0  0  0  0  0  0  0
    3.5179    1.5934   -0.3113 H   0  0  0  0  0  0  0  0  0  0  0  0
    4.3169   -1.5288   -0.1720 H   0  0  0  0  0  0  0  0  0  0  0  0
    7.4644    1.6551   -2.7879 H   0  0  0  0  0  0  0  0  0  0  0  0
    8.2244    0.8246   -1.3852 H   0  0  0  0  0  0  0  0  0  0  0  0
    7.3841    2.6499    0.1312 H   0  0  0  0  0  0  0  0  0  0  0  0
    6.5712    3.4419   -1.2779 H   0  0  0  0  0  0  0  0  0  0  0  0
    8.3740    3.3302   -1.2154 H   0  0  0  0  0  0  0  0  0  0  0  0
   -1.3025   -2.5341    1.1658 H   0  0  0  0  0  0  0  0  0  0  0  0
    0.6092   -4.0511    1.2359 H   0  0  0  0  0  0  0  0  0  0  0  0
    0.5935   -3.2300   -0.3509 H   0  0  0  0  0  0  0  0  0  0  0  0
    1.7679   -2.7038    0.9160 H   0  0  0  0  0  0  0  0  0  0  0  0
   -0.7108   -0.8992    3.0832 H   0  0  0  0  0  0  0  0  0  0  0  0
    0.9941   -1.4343    2.9337 H   0  0  0  0  0  0  0  0  0  0  0  0
    0.3420   -3.7539    3.5219 H   0  0  0  0  0  0  0  0  0  0  0  0
   -0.3070   -2.6058    4.7402 H   0  0  0  0  0  0  0  0  0  0  0  0
   -1.4124   -3.2942    3.4945 H   0  0  0  0  0  0  0  0  0  0  0  0
   -6.9742   -0.1740    1.9602 H   0  0  0  0  0  0  0  0  0  0  0  0
  1  2  1  0
  1  3  1  0
  3  4  1  0
  1  5  1  0
  5  6  1  0
  6  7  1  0
  7  8  2  0
  7  9  1  0
  9 10  1  0
 10 11  1  0
 11 12  2  0
 11 13  1  0
 13 14  1  0
 14 15  1  0
 15 16  1  0
 16 17  2  0
 16 18  1  0
 18 19  1  0
 19 20  1  0
  9 21  1  0
 21 22  1  0
 21 23  1  0
 23 24  1  0
  5 25  1  0
 25 26  1  0
 25 27  2  0
 15 13  1  0
  1 28  1  1
  2 29  1  0
  2 30  1  0
  2 31  1  0
  3 32  1  0
  3 33  1  0
  4 34  1  0
  4 35  1  0
  4 36  1  0
  5 37  1  1
  6 38  1  0
  9 39  1  6
 10 40  1  0
 13 41  1  1
 15 42  1  6
 19 43  1  0
 19 44  1  0
 20 45  1  0
 20 46  1  0
 20 47  1  0
 21 48  1  1
 22 49  1  0
 22 50  1  0
 22 51  1  0
 23 52  1  0
 23 53  1  0
 24 54  1  0
 24 55  1  0
 24 56  1  0
 26 57  1  0
M  END
$$$$
