
     RDKit          3D

 28 28  0  0  0  0  0  0  0  0999 V2000
   -0.6454   -0.0576   -1.5915 N   0  0  0  0  0  0  0  0  0  0  0  0
   -0.7666   -0.4863   -0.1943 C   0  0  1  0  0  0  0  0  0  0  0  0
   -2.0138   -1.3706   -0.0371 C   0  0  0  0  0  0  0  0  0  0  0  0
   -3.1860   -0.6781   -0.4655 O   0  0  0  0  0  0  0  0  0  0  0  0
   -3.8101    0.3210    0.2893 C   0  0  0  0  0  0  0  0  0  0  0  0
   -4.9479    0.9941   -0.2421 N   0  0  0  0  0  0  0  0  0  0  0  0
   -3.3824    0.6272    1.4352 O   0  0  0  0  0  0  0  0  0  0  0  0
    0.4928   -1.2452    0.2805 C   0  0  0  0  0  0  0  0  0  0  0  0
    1.7130   -0.3601    0.2843 C   0  0  0  0  0  0  0  0  0  0  0  0
    1.9205    0.5523    1.3326 C   0  0  0  0  0  0  0  0  0  0  0  0
    3.0391    1.3913    1.3252 C   0  0  0  0  0  0  0  0  0  0  0  0
    3.9542    1.3296    0.2707 C   0  0  0  0  0  0  0  0  0  0  0  0
    3.7510    0.4301   -0.7795 C   0  0  0  0  0  0  0  0  0  0  0  0
    2.6339   -0.4109   -0.7761 C   0  0  0  0  0  0  0  0  0  0  0  0
   -0.3283   -0.8625   -2.1801 H   0  0  0  0  0  0  0  0  0  0  0  0
    0.0802    0.6922   -1.6579 H   0  0  0  0  0  0  0  0  0  0  0  0
   -0.8999    0.4139    0.4459 H   0  0  0  0  0  0  0  0  0  0  0  0
   -1.8994   -2.2832   -0.6607 H   0  0  0  0  0  0  0  0  0  0  0  0
   -2.1329   -1.6962    1.0199 H   0  0  0  0  0  0  0  0  0  0  0  0
   -5.3096    0.7453   -1.1892 H   0  0  0  0  0  0  0  0  0  0  0  0
   -5.4274    1.7405    0.3087 H   0  0  0  0  0  0  0  0  0  0  0  0
    0.3282   -1.6241    1.3134 H   0  0  0  0  0  0  0  0  0  0  0  0
    0.6644   -2.1371   -0.3619 H   0  0  0  0  0  0  0  0  0  0  0  0
    1.2155    0.6137    2.1524 H   0  0  0  0  0  0  0  0  0  0  0  0
    3.1954    2.0910    2.1361 H   0  0  0  0  0  0  0  0  0  0  0  0
    4.8189    1.9805    0.2659 H   0  0  0  0  0  0  0  0  0  0  0  0
    4.4580    0.3864   -1.5979 H   0  0  0  0  0  0  0  0  0  0  0  0
    2.4847   -1.0974   -1.6003 H   0  0  0  0  0  0  0  0  0  0  0  0
  1  2  1  0
  2  3  1  0
  3  4  1  0
  4  5  1  0
  5  6  1  0
  5  7  2  0
  2  8  1  0
  8  9  1  0
  9 10  2  0
 10 11  1  0
 11 12  2  0
 12 13  1  0
 13 14  2  0
 14  9  1  0
  1 15  1  0
  1 16  1  0
  2 17  1  1
  3 18  1  0
  3 19  1  0
  6 20  1  0
  6 21  1  0
  8 22  1  0
  8 23  1  0
 10 24  1  0
 11 25  1  0
 12 26  1  0
 13 27  1  0
 14 28  1  0
M  END
$$$$
