
     RDKit          3D

 31 32  0  0  0  0  0  0  0  0999 V2000
   -2.9124    2.0094    0.0118 C   0  0  0  0  0  0  0  0  0  0  0  0
   -2.7137    0.7207    0.6917 N   0  0  0  0  0  0  0  0  0  0  0  0
   -2.8292   -0.4019   -0.2678 C   0  0  0  0  0  0  0  0  0  0  0  0
   -2.9106   -1.7536    0.4593 C   0  0  0  0  0  0  0  0  0  0  0  0
   -3.3762   -3.0508   -0.6732 Cl  0  0  0  0  0  0  0  0  0  0  0  0
   -1.7322   -0.4035   -1.2467 N   0  0  0  0  0  0  0  0  0  0  0  0
   -0.3434   -0.3539   -0.8818 C   0  0  0  0  0  0  0  0  0  0  0  0
    0.6324   -0.7623   -1.7998 C   0  0  0  0  0  0  0  0  0  0  0  0
    1.9907   -0.7262   -1.4628 C   0  0  0  0  0  0  0  0  0  0  0  0
    3.1554   -1.2551   -2.6723 Cl  0  0  0  0  0  0  0  0  0  0  0  0
    2.3866   -0.2708   -0.1873 C   0  0  0  0  0  0  0  0  0  0  0  0
    1.4066    0.1590    0.7203 C   0  0  0  0  0  0  0  0  0  0  0  0
    0.0516    0.1210    0.3746 C   0  0  0  0  0  0  0  0  0  0  0  0
   -1.1606    0.7063    1.4950 S   0  0  0  0  0  6  0  0  0  0  0  0
   -0.7925    2.0905    1.9548 O   0  0  0  0  0  0  0  0  0  0  0  0
   -1.2255   -0.2071    2.6865 O   0  0  0  0  0  0  0  0  0  0  0  0
    4.0901   -0.2003    0.2846 S   0  0  0  0  0  6  0  0  0  0  0  0
    4.8663    1.1106   -0.5337 N   0  0  0  0  0  0  0  0  0  0  0  0
    4.2039    0.0161    1.7679 O   0  0  0  0  0  0  0  0  0  0  0  0
    4.7718   -1.4950   -0.0600 O   0  0  0  0  0  0  0  0  0  0  0  0
   -2.9573    2.8283    0.7602 H   0  0  0  0  0  0  0  0  0  0  0  0
   -3.8823    2.0178   -0.5304 H   0  0  0  0  0  0  0  0  0  0  0  0
   -2.0909    2.2177   -0.7086 H   0  0  0  0  0  0  0  0  0  0  0  0
   -3.7908   -0.2952   -0.8204 H   0  0  0  0  0  0  0  0  0  0  0  0
   -3.6743   -1.7011    1.2640 H   0  0  0  0  0  0  0  0  0  0  0  0
   -1.9349   -2.0263    0.9111 H   0  0  0  0  0  0  0  0  0  0  0  0
   -1.9828   -0.5063   -2.2564 H   0  0  0  0  0  0  0  0  0  0  0  0
    0.3339   -1.1177   -2.7784 H   0  0  0  0  0  0  0  0  0  0  0  0
    1.6929    0.5329    1.6950 H   0  0  0  0  0  0  0  0  0  0  0  0
    4.8611    0.8873   -1.5537 H   0  0  0  0  0  0  0  0  0  0  0  0
    5.8663    1.1097   -0.2318 H   0  0  0  0  0  0  0  0  0  0  0  0
  1  2  1  0
  2  3  1  0
  3  4  1  0
  4  5  1  0
  3  6  1  0
  6  7  1  0
  7  8  2  0
  8  9  1  0
  9 10  1  0
  9 11  2  0
 11 12  1  0
 12 13  2  0
 13 14  1  0
 14 15  2  0
 14 16  2  0
 11 17  1  0
 17 18  1  0
 17 19  2  0
 17 20  2  0
 14  2  1  0
 13  7  1  0
  1 21  1  0
  1 22  1  0
  1 23  1  0
  3 24  1  0
  4 25  1  0
  4 26  1  0
  6 27  1  0
  8 28  1  0
 12 29  1  0
 18 30  1  0
 18 31  1  0
M  END
$$$$
