
     RDKit          3D

 48 51  0  0  0  0  0  0  0  0999 V2000
    8.0709    1.1648   -1.2240 N   0  0  0  0  0  0  0  0  0  0  0  0
    7.4377   -0.4116   -0.9055 S   0  0  0  0  0  6  0  0  0  0  0  0
    8.3070   -1.1060    0.1051 O   0  0  0  0  0  0  0  0  0  0  0  0
    7.4315   -1.2203   -2.1729 O   0  0  0  0  0  0  0  0  0  0  0  0
    5.7971   -0.2685   -0.2839 C   0  0  0  0  0  0  0  0  0  0  0  0
    5.5688   -0.1864    1.0960 C   0  0  0  0  0  0  0  0  0  0  0  0
    4.2660   -0.0606    1.5873 C   0  0  0  0  0  0  0  0  0  0  0  0
    3.1748   -0.0246    0.7071 C   0  0  0  0  0  0  0  0  0  0  0  0
    1.8464    0.1291    1.2339 N   0  0  0  0  0  0  0  0  0  0  0  0
    0.6590   -0.3127    0.5576 C   0  0  0  0  0  0  0  0  0  0  0  0
   -0.5125    0.4605    0.5950 C   0  0  0  0  0  0  0  0  0  0  0  0
   -1.6705   -0.0128   -0.0642 C   0  0  0  0  0  0  0  0  0  0  0  0
   -2.8729    0.7726   -0.0490 N   0  0  0  0  0  0  0  0  0  0  0  0
   -4.1147    0.3220   -0.6932 C   0  0  0  0  0  0  0  0  0  0  0  0
   -4.7732   -0.8261    0.1198 C   0  0  0  0  0  0  0  0  0  0  0  0
   -5.9264   -0.3663    1.0325 C   0  0  0  0  0  0  0  0  0  0  0  0
   -5.6840    1.0437    1.5737 C   0  0  0  0  0  0  0  0  0  0  0  0
   -5.6154    2.0809    0.4373 C   0  0  0  0  0  0  0  0  0  0  0  0
   -5.0855    1.5035   -0.8930 C   0  0  0  0  0  0  0  0  0  0  0  0
   -1.6428   -1.2195   -0.7089 N   0  0  0  0  0  0  0  0  0  0  0  0
   -0.4975   -1.9420   -0.7046 C   0  0  0  0  0  0  0  0  0  0  0  0
   -0.3376   -3.1592   -1.2495 N   0  0  0  0  0  0  0  0  0  0  0  0
    0.9519   -3.4262   -0.9104 C   0  0  0  0  0  0  0  0  0  0  0  0
    1.5342   -2.4315   -0.1973 N   0  0  0  0  0  0  0  0  0  0  0  0
    0.6021   -1.5053   -0.0919 N   0  0  0  0  0  0  0  0  0  0  0  0
    3.4105   -0.0766   -0.6787 C   0  0  0  0  0  0  0  0  0  0  0  0
    4.7134   -0.2028   -1.1690 C   0  0  0  0  0  0  0  0  0  0  0  0
    9.0161    1.0344   -1.6493 H   0  0  0  0  0  0  0  0  0  0  0  0
    7.4658    1.5937   -1.9597 H   0  0  0  0  0  0  0  0  0  0  0  0
    6.3975   -0.2157    1.7918 H   0  0  0  0  0  0  0  0  0  0  0  0
    4.1049    0.0013    2.6563 H   0  0  0  0  0  0  0  0  0  0  0  0
    1.7307    0.6384    2.1394 H   0  0  0  0  0  0  0  0  0  0  0  0
   -0.5231    1.4108    1.1143 H   0  0  0  0  0  0  0  0  0  0  0  0
   -2.8346    1.7214    0.3887 H   0  0  0  0  0  0  0  0  0  0  0  0
   -3.8601   -0.0630   -1.7060 H   0  0  0  0  0  0  0  0  0  0  0  0
   -5.1724   -1.5878   -0.5850 H   0  0  0  0  0  0  0  0  0  0  0  0
   -4.0095   -1.3417    0.7415 H   0  0  0  0  0  0  0  0  0  0  0  0
   -6.0343   -1.0769    1.8803 H   0  0  0  0  0  0  0  0  0  0  0  0
   -6.8814   -0.3769    0.4619 H   0  0  0  0  0  0  0  0  0  0  0  0
   -6.5003    1.3178    2.2765 H   0  0  0  0  0  0  0  0  0  0  0  0
   -4.7312    1.0530    2.1476 H   0  0  0  0  0  0  0  0  0  0  0  0
   -4.9682    2.9244    0.7619 H   0  0  0  0  0  0  0  0  0  0  0  0
   -6.6304    2.4995    0.2613 H   0  0  0  0  0  0  0  0  0  0  0  0
   -5.9479    1.1495   -1.5004 H   0  0  0  0  0  0  0  0  0  0  0  0
   -4.5857    2.3080   -1.4754 H   0  0  0  0  0  0  0  0  0  0  0  0
    1.4595   -4.3437   -1.1757 H   0  0  0  0  0  0  0  0  0  0  0  0
    2.5899   -0.0071   -1.3810 H   0  0  0  0  0  0  0  0  0  0  0  0
    4.8768   -0.2407   -2.2385 H   0  0  0  0  0  0  0  0  0  0  0  0
  1  2  1  0
  2  3  2  0
  2  4  2  0
  2  5  1  0
  5  6  2  0
  6  7  1  0
  7  8  2  0
  8  9  1  0
  9 10  1  0
 10 11  2  0
 11 12  1  0
 12 13  1  0
 13 14  1  0
 14 15  1  0
 15 16  1  0
 16 17  1  0
 17 18  1  0
 18 19  1  0
 12 20  2  0
 20 21  1  0
 21 22  2  0
 22 23  1  0
 23 24  2  0
 24 25  1  0
  8 26  1  0
 26 27  2  0
 27  5  1  0
 25 10  1  0
 19 14  1  0
 25 21  1  0
  1 28  1  0
  1 29  1  0
  6 30  1  0
  7 31  1  0
  9 32  1  0
 11 33  1  0
 13 34  1  0
 14 35  1  0
 15 36  1  0
 15 37  1  0
 16 38  1  0
 16 39  1  0
 17 40  1  0
 17 41  1  0
 18 42  1  0
 18 43  1  0
 19 44  1  0
 19 45  1  0
 23 46  1  0
 26 47  1  0
 27 48  1  0
M  END
$$$$
