
     RDKit          3D

 58 60  0  0  0  0  0  0  0  0999 V2000
    0.4255   -2.5108    0.3189 C   0  0  2  0  0  0  0  0  0  0  0  0
    0.5066   -4.0346    0.2137 C   0  0  0  0  0  0  0  0  0  0  0  0
   -0.8380   -4.4826   -0.3541 C   0  0  0  0  0  0  0  0  0  0  0  0
   -1.8166   -3.3574   -0.0415 C   0  0  0  0  0  0  0  0  0  0  0  0
   -0.9965   -2.1994    0.2779 N   0  0  0  0  0  0  0  0  0  0  0  0
   -1.5301   -0.8990    0.5891 C   0  0  0  0  0  0  0  0  0  0  0  0
   -0.7455    0.0385    0.9011 O   0  0  0  0  0  0  0  0  0  0  0  0
   -3.0091   -0.6420    0.5333 C   0  0  0  0  0  0  0  0  0  0  0  0
   -3.2881    0.6862    0.9313 O   0  0  0  0  0  0  0  0  0  0  0  0
   -4.6632    0.9835    0.7571 C   0  0  0  0  0  0  0  0  0  0  0  0
   -4.9137    1.5226   -0.6755 C   0  0  0  0  0  0  0  0  0  0  0  0
   -6.0765    2.5320   -0.7658 C   0  0  0  0  0  0  0  0  0  0  0  0
   -7.1459    2.2578    0.2953 C   0  0  0  0  0  0  0  0  0  0  0  0
   -6.5728    2.3709    1.7220 C   0  0  0  0  0  0  0  0  0  0  0  0
   -5.0723    2.0242    1.8093 C   0  0  0  0  0  0  0  0  0  0  0  0
    1.1413   -1.8449   -0.8283 C   0  0  0  0  0  0  0  0  0  0  0  0
    0.6463   -1.8942   -1.9881 O   0  0  0  0  0  0  0  0  0  0  0  0
    2.3948   -1.1856   -0.6089 N   0  0  0  0  0  0  0  0  0  0  0  0
    3.1083   -0.5235   -1.6999 C   0  0  0  0  0  0  0  0  0  0  0  0
    4.3800    0.1041   -1.1967 C   0  0  0  0  0  0  0  0  0  0  0  0
    5.5713   -0.6352   -1.1697 C   0  0  0  0  0  0  0  0  0  0  0  0
    6.7446   -0.0659   -0.6662 C   0  0  0  0  0  0  0  0  0  0  0  0
    6.7429    1.2500   -0.1690 C   0  0  0  0  0  0  0  0  0  0  0  0
    5.5432    1.9822   -0.1863 C   0  0  0  0  0  0  0  0  0  0  0  0
    4.3705    1.4112   -0.6890 C   0  0  0  0  0  0  0  0  0  0  0  0
    7.9852    1.8640    0.3638 C   0  0  0  0  0  0  0  0  0  0  0  0
    8.2511    3.2525    0.1487 N   0  0  0  0  0  0  0  0  0  0  0  0
    8.8414    1.1600    1.0374 N   0  0  0  0  0  0  0  0  0  0  0  0
    0.8545   -2.1796    1.2905 H   0  0  0  0  0  0  0  0  0  0  0  0
    1.3515   -4.3835   -0.4209 H   0  0  0  0  0  0  0  0  0  0  0  0
    0.6311   -4.4658    1.2317 H   0  0  0  0  0  0  0  0  0  0  0  0
   -0.7506   -4.6054   -1.4562 H   0  0  0  0  0  0  0  0  0  0  0  0
   -1.1675   -5.4444    0.0955 H   0  0  0  0  0  0  0  0  0  0  0  0
   -2.4618   -3.1474   -0.9217 H   0  0  0  0  0  0  0  0  0  0  0  0
   -2.4443   -3.6247    0.8360 H   0  0  0  0  0  0  0  0  0  0  0  0
   -3.3486   -0.8241   -0.5106 H   0  0  0  0  0  0  0  0  0  0  0  0
   -3.5119   -1.3577    1.2210 H   0  0  0  0  0  0  0  0  0  0  0  0
   -5.3118    0.0888    0.9284 H   0  0  0  0  0  0  0  0  0  0  0  0
   -3.9936    2.0141   -1.0612 H   0  0  0  0  0  0  0  0  0  0  0  0
   -5.1311    0.6618   -1.3447 H   0  0  0  0  0  0  0  0  0  0  0  0
   -5.6850    3.5637   -0.6246 H   0  0  0  0  0  0  0  0  0  0  0  0
   -6.5340    2.4826   -1.7775 H   0  0  0  0  0  0  0  0  0  0  0  0
   -7.9848    2.9767    0.1736 H   0  0  0  0  0  0  0  0  0  0  0  0
   -7.5547    1.2351    0.1386 H   0  0  0  0  0  0  0  0  0  0  0  0
   -6.7198    3.4070    2.0976 H   0  0  0  0  0  0  0  0  0  0  0  0
   -7.1474    1.6930    2.3902 H   0  0  0  0  0  0  0  0  0  0  0  0
   -4.4705    2.9483    1.6599 H   0  0  0  0  0  0  0  0  0  0  0  0
   -4.8442    1.6379    2.8267 H   0  0  0  0  0  0  0  0  0  0  0  0
    2.7990   -1.1810    0.3557 H   0  0  0  0  0  0  0  0  0  0  0  0
    2.4550    0.2560   -2.1493 H   0  0  0  0  0  0  0  0  0  0  0  0
    3.3403   -1.2662   -2.4941 H   0  0  0  0  0  0  0  0  0  0  0  0
    5.5928   -1.6522   -1.5416 H   0  0  0  0  0  0  0  0  0  0  0  0
    7.6555   -0.6505   -0.6825 H   0  0  0  0  0  0  0  0  0  0  0  0
    5.5050    2.9890    0.2100 H   0  0  0  0  0  0  0  0  0  0  0  0
    3.4533    1.9873   -0.6781 H   0  0  0  0  0  0  0  0  0  0  0  0
    7.6339    3.8337   -0.4604 H   0  0  0  0  0  0  0  0  0  0  0  0
    9.1037    3.6955    0.5581 H   0  0  0  0  0  0  0  0  0  0  0  0
    8.7014    0.1473    1.2501 H   0  0  0  0  0  0  0  0  0  0  0  0
  1  2  1  0
  2  3  1  0
  3  4  1  0
  4  5  1  0
  5  6  1  0
  6  7  2  0
  6  8  1  0
  8  9  1  0
  9 10  1  0
 10 11  1  0
 11 12  1  0
 12 13  1  0
 13 14  1  0
 14 15  1  0
  1 16  1  0
 16 17  2  0
 16 18  1  0
 18 19  1  0
 19 20  1  0
 20 21  2  0
 21 22  1  0
 22 23  2  0
 23 24  1  0
 24 25  2  0
 23 26  1  0
 26 27  1  0
 26 28  2  3
  5  1  1  0
 15 10  1  0
 25 20  1  0
  1 29  1  1
  2 30  1  0
  2 31  1  0
  3 32  1  0
  3 33  1  0
  4 34  1  0
  4 35  1  0
  8 36  1  0
  8 37  1  0
 10 38  1  0
 11 39  1  0
 11 40  1  0
 12 41  1  0
 12 42  1  0
 13 43  1  0
 13 44  1  0
 14 45  1  0
 14 46  1  0
 15 47  1  0
 15 48  1  0
 18 49  1  0
 19 50  1  0
 19 51  1  0
 21 52  1  0
 22 53  1  0
 24 54  1  0
 25 55  1  0
 27 56  1  0
 27 57  1  0
 28 58  1  0
M  END
$$$$
