
     RDKit          3D

 55 57  0  0  0  0  0  0  0  0999 V2000
    4.1851   -0.0873    2.0647 C   0  0  0  0  0  0  0  0  0  0  0  0
    3.0720    0.9420    1.8990 C   0  0  0  0  0  0  0  0  0  0  0  0
    3.1356    1.5892    0.5387 C   0  0  0  0  0  0  0  0  0  0  0  0
    3.8442    2.7425    0.4122 N   0  0  0  0  0  0  0  0  0  0  0  0
    3.9853    3.3632   -0.7855 C   0  0  0  0  0  0  0  0  0  0  0  0
    4.7313    4.5744   -0.8779 N   0  0  0  0  0  0  0  0  0  0  0  0
    3.4174    2.8292   -1.8954 N   0  0  0  0  0  0  0  0  0  0  0  0
    2.7045    1.6741   -1.8426 C   0  0  0  0  0  0  0  0  0  0  0  0
    2.1176    1.1712   -3.0481 N   0  0  0  0  0  0  0  0  0  0  0  0
    2.5470    1.0085   -0.6082 C   0  0  0  0  0  0  0  0  0  0  0  0
    1.7928   -0.2597   -0.5251 C   0  0  0  0  0  0  0  0  0  0  0  0
    2.3707   -1.4505   -0.9798 C   0  0  0  0  0  0  0  0  0  0  0  0
    1.6558   -2.6455   -0.9085 C   0  0  0  0  0  0  0  0  0  0  0  0
    0.3615   -2.6611   -0.3790 C   0  0  0  0  0  0  0  0  0  0  0  0
   -0.5035   -4.2228   -0.2423 S   0  0  0  0  0  0  0  0  0  0  0  0
   -2.0765   -3.6106   -0.9512 C   0  0  0  0  0  0  0  0  0  0  0  0
   -1.8933   -3.1750   -2.4166 C   0  0  0  0  0  0  0  0  0  0  0  0
   -3.0768   -4.7801   -0.8970 C   0  0  0  0  0  0  0  0  0  0  0  0
   -2.5675   -2.4433   -0.1118 C   0  0  0  0  0  0  0  0  0  0  0  0
   -3.8087   -2.2966    0.0700 O   0  0  0  0  0  0  0  0  0  0  0  0
   -1.6458   -1.4739    0.4464 N   0  0  0  0  0  0  0  0  0  0  0  0
   -2.1518   -0.4761    1.4044 C   0  0  0  0  0  0  0  0  0  0  0  0
   -2.8577    0.6773    0.6779 C   0  0  0  0  0  0  0  0  0  0  0  0
   -3.2502    1.7242    1.6206 N   0  0  0  0  0  0  0  0  0  0  0  0
   -3.9138    2.9153    1.1811 C   0  0  0  0  0  0  0  0  0  0  0  0
   -4.3000    3.9629    2.1737 C   0  0  0  0  0  0  0  0  0  0  0  0
   -4.1883    3.0794   -0.0387 O   0  0  0  0  0  0  0  0  0  0  0  0
   -0.2539   -1.4685    0.0427 C   0  0  0  0  0  0  0  0  0  0  0  0
    0.4822   -0.2680   -0.0277 C   0  0  0  0  0  0  0  0  0  0  0  0
    4.1339   -0.5288    3.0822 H   0  0  0  0  0  0  0  0  0  0  0  0
    4.0755   -0.9032    1.3202 H   0  0  0  0  0  0  0  0  0  0  0  0
    5.1777    0.3947    1.9355 H   0  0  0  0  0  0  0  0  0  0  0  0
    2.0874    0.4596    2.0689 H   0  0  0  0  0  0  0  0  0  0  0  0
    3.1869    1.7217    2.6831 H   0  0  0  0  0  0  0  0  0  0  0  0
    5.1717    4.9902   -0.0273 H   0  0  0  0  0  0  0  0  0  0  0  0
    4.8443    5.0569   -1.7969 H   0  0  0  0  0  0  0  0  0  0  0  0
    2.2643    1.6797   -3.9482 H   0  0  0  0  0  0  0  0  0  0  0  0
    1.5187    0.3166   -3.0625 H   0  0  0  0  0  0  0  0  0  0  0  0
    3.3766   -1.4525   -1.3814 H   0  0  0  0  0  0  0  0  0  0  0  0
    2.1169   -3.5643   -1.2479 H   0  0  0  0  0  0  0  0  0  0  0  0
   -1.4574   -4.0042   -3.0140 H   0  0  0  0  0  0  0  0  0  0  0  0
   -1.2235   -2.2943   -2.5020 H   0  0  0  0  0  0  0  0  0  0  0  0
   -2.8723   -2.8958   -2.8625 H   0  0  0  0  0  0  0  0  0  0  0  0
   -3.2465   -5.0977    0.1547 H   0  0  0  0  0  0  0  0  0  0  0  0
   -2.6862   -5.6516   -1.4656 H   0  0  0  0  0  0  0  0  0  0  0  0
   -4.0542   -4.4899   -1.3397 H   0  0  0  0  0  0  0  0  0  0  0  0
   -1.3201   -0.0826    2.0288 H   0  0  0  0  0  0  0  0  0  0  0  0
   -2.8652   -0.9593    2.1076 H   0  0  0  0  0  0  0  0  0  0  0  0
   -2.1847    1.1119   -0.0903 H   0  0  0  0  0  0  0  0  0  0  0  0
   -3.7648    0.2954    0.1637 H   0  0  0  0  0  0  0  0  0  0  0  0
   -3.0469    1.6140    2.6405 H   0  0  0  0  0  0  0  0  0  0  0  0
   -5.0764    3.5582    2.8556 H   0  0  0  0  0  0  0  0  0  0  0  0
   -4.7032    4.8607    1.6585 H   0  0  0  0  0  0  0  0  0  0  0  0
   -3.4105    4.2597    2.7675 H   0  0  0  0  0  0  0  0  0  0  0  0
    0.0429    0.6705    0.2782 H   0  0  0  0  0  0  0  0  0  0  0  0
  1  2  1  0
  2  3  1  0
  3  4  2  0
  4  5  1  0
  5  6  1  0
  5  7  2  0
  7  8  1  0
  8  9  1  0
  8 10  2  0
 10 11  1  0
 11 12  2  0
 12 13  1  0
 13 14  2  0
 14 15  1  0
 15 16  1  0
 16 17  1  0
 16 18  1  0
 16 19  1  0
 19 20  2  0
 19 21  1  0
 21 22  1  0
 22 23  1  0
 23 24  1  0
 24 25  1  0
 25 26  1  0
 25 27  2  0
 21 28  1  0
 28 29  2  0
 10  3  1  0
 29 11  1  0
 28 14  1  0
  1 30  1  0
  1 31  1  0
  1 32  1  0
  2 33  1  0
  2 34  1  0
  6 35  1  0
  6 36  1  0
  9 37  1  0
  9 38  1  0
 12 39  1  0
 13 40  1  0
 17 41  1  0
 17 42  1  0
 17 43  1  0
 18 44  1  0
 18 45  1  0
 18 46  1  0
 22 47  1  0
 22 48  1  0
 23 49  1  0
 23 50  1  0
 24 51  1  0
 26 52  1  0
 26 53  1  0
 26 54  1  0
 29 55  1  0
M  END
$$$$
