
     RDKit          3D

 68 67  0  0  0  0  0  0  0  0999 V2000
    0.0000    0.0000    0.0000 Gd  0  0  0  0  0 15  0  0  0  0  0  0
   -0.6177   -1.5438   -0.2598 C   0  0  2  0  0  0  0  0  0  0  0  0
   -0.3799   -0.5131   -1.4196 C   0  0  0  0  0  0  0  0  0  0  0  0
    0.5566    0.5876   -1.0735 N   0  0  0  0  0  0  0  0  0  0  0  0
    1.9683    0.1385   -1.0684 C   0  0  0  0  0  0  0  0  0  0  0  0
    2.7617    0.9243   -0.0174 C   0  0  0  0  0  0  0  0  0  0  0  0
    4.1159    0.3431    0.1352 N   0  0  0  0  0  0  0  0  0  0  0  0
    5.1146    1.3876    0.4508 C   0  0  0  0  0  0  0  0  0  0  0  0
    5.4785    2.1480   -0.7863 C   0  0  0  0  0  0  0  0  0  0  0  0
    5.1577    3.4950   -0.8974 O   0  0  0  0  0  1  0  0  0  0  0  0
    6.0676    1.5664   -1.7350 O   0  0  0  0  0  0  0  0  0  0  0  0
    4.1213   -0.7131    1.1717 C   0  0  0  0  0  0  0  0  0  0  0  0
    5.2285   -1.6845    0.9104 C   0  0  0  0  0  0  0  0  0  0  0  0
    6.2987   -1.7766    1.7911 O   0  0  0  0  0  1  0  0  0  0  0  0
    5.1993   -2.4141   -0.1153 O   0  0  0  0  0  0  0  0  0  0  0  0
    0.3877    1.7207   -2.0181 C   0  0  0  0  0  0  0  0  0  0  0  0
   -0.6973    2.6395   -1.5553 C   0  0  0  0  0  0  0  0  0  0  0  0
   -0.3951    3.6897   -0.6978 O   0  0  0  0  0  1  0  0  0  0  0  0
   -1.8864    2.4622   -1.9294 O   0  0  0  0  0  0  0  0  0  0  0  0
   -0.8407   -0.8035    1.0970 C   0  0  0  0  0  0  0  0  0  0  0  0
   -1.8353    0.3338    1.0417 C   0  0  0  0  0  0  0  0  0  0  0  0
   -1.4777    1.6054    1.5168 C   0  0  0  0  0  0  0  0  0  0  0  0
   -2.4117    2.6451    1.5267 C   0  0  0  0  0  0  0  0  0  0  0  0
   -3.7158    2.4349    1.0665 C   0  0  0  0  0  0  0  0  0  0  0  0
   -4.6102    3.5152    1.0825 O   0  0  0  0  0  0  0  0  0  0  0  0
   -5.9614    3.4482    0.6345 C   0  0  0  0  0  0  0  0  0  0  0  0
   -6.6164    4.8109    0.7925 C   0  0  0  0  0  0  0  0  0  0  0  0
   -4.0839    1.1559    0.6092 C   0  0  0  0  0  0  0  0  0  0  0  0
   -3.1540    0.1123    0.6103 C   0  0  0  0  0  0  0  0  0  0  0  0
    0.4610   -2.5929   -0.1835 N   0  0  0  0  0  0  0  0  0  0  0  0
    0.5643   -3.4226   -1.4220 C   0  0  0  0  0  0  0  0  0  0  0  0
   -0.7167   -4.1156   -1.7949 C   0  0  0  0  0  0  0  0  0  0  0  0
   -1.5781   -3.5302   -2.7176 O   0  0  0  0  0  0  0  0  0  0  0  0
   -1.0167   -5.2198   -1.2673 O   0  0  0  0  0  0  0  0  0  0  0  0
    0.3689   -3.4474    1.0333 C   0  0  0  0  0  0  0  0  0  0  0  0
    1.4994   -4.4292    1.1456 C   0  0  0  0  0  0  0  0  0  0  0  0
    1.2438   -5.7940    1.0596 O   0  0  0  0  0  0  0  0  0  0  0  0
    2.6795   -4.0186    1.3075 O   0  0  0  0  0  0  0  0  0  0  0  0
   -1.5792   -2.0560   -0.4795 H   0  0  0  0  0  0  0  0  0  0  0  0
   -1.3792   -0.0822   -1.6475 H   0  0  0  0  0  0  0  0  0  0  0  0
   -0.0852   -0.9848   -2.3751 H   0  0  0  0  0  0  0  0  0  0  0  0
    2.4420    0.2590   -2.0699 H   0  0  0  0  0  0  0  0  0  0  0  0
    2.0585   -0.9335   -0.8305 H   0  0  0  0  0  0  0  0  0  0  0  0
    2.2134    0.9291    0.9527 H   0  0  0  0  0  0  0  0  0  0  0  0
    2.8123    1.9834   -0.3521 H   0  0  0  0  0  0  0  0  0  0  0  0
    4.7311    2.0826    1.2321 H   0  0  0  0  0  0  0  0  0  0  0  0
    6.0521    0.9350    0.8429 H   0  0  0  0  0  0  0  0  0  0  0  0
    4.2252   -0.2760    2.1909 H   0  0  0  0  0  0  0  0  0  0  0  0
    3.1705   -1.2900    1.1663 H   0  0  0  0  0  0  0  0  0  0  0  0
    0.1703    1.3626   -3.0504 H   0  0  0  0  0  0  0  0  0  0  0  0
    1.3128    2.3340   -2.0922 H   0  0  0  0  0  0  0  0  0  0  0  0
    0.1409   -0.4456    1.4770 H   0  0  0  0  0  0  0  0  0  0  0  0
   -1.2549   -1.5098    1.8464 H   0  0  0  0  0  0  0  0  0  0  0  0
   -0.4745    1.7959    1.8776 H   0  0  0  0  0  0  0  0  0  0  0  0
   -2.1182    3.6225    1.8882 H   0  0  0  0  0  0  0  0  0  0  0  0
   -6.5222    2.7029    1.2391 H   0  0  0  0  0  0  0  0  0  0  0  0
   -5.9887    3.1538   -0.4370 H   0  0  0  0  0  0  0  0  0  0  0  0
   -6.0703    5.5665    0.1889 H   0  0  0  0  0  0  0  0  0  0  0  0
   -7.6697    4.7634    0.4444 H   0  0  0  0  0  0  0  0  0  0  0  0
   -6.6023    5.1171    1.8600 H   0  0  0  0  0  0  0  0  0  0  0  0
   -5.0871    0.9554    0.2589 H   0  0  0  0  0  0  0  0  0  0  0  0
   -3.4665   -0.8688    0.2774 H   0  0  0  0  0  0  0  0  0  0  0  0
    1.3636   -4.1859   -1.3292 H   0  0  0  0  0  0  0  0  0  0  0  0
    0.9256   -2.8186   -2.2741 H   0  0  0  0  0  0  0  0  0  0  0  0
   -2.4490   -3.9799   -2.9732 H   0  0  0  0  0  0  0  0  0  0  0  0
    0.4607   -2.8303    1.9485 H   0  0  0  0  0  0  0  0  0  0  0  0
   -0.6070   -3.9788    1.0684 H   0  0  0  0  0  0  0  0  0  0  0  0
    1.9966   -6.4685    1.1263 H   0  0  0  0  0  0  0  0  0  0  0  0
  2  3  1  0
  3  4  1  0
  4  5  1  0
  5  6  1  0
  6  7  1  0
  7  8  1  0
  8  9  1  0
  9 10  1  0
  9 11  2  0
  7 12  1  0
 12 13  1  0
 13 14  1  0
 13 15  2  0
  4 16  1  0
 16 17  1  0
 17 18  1  0
 17 19  2  0
  2 20  1  0
 20 21  1  0
 21 22  2  0
 22 23  1  0
 23 24  2  0
 24 25  1  0
 25 26  1  0
 26 27  1  0
 24 28  1  0
 28 29  2  0
  2 30  1  0
 30 31  1  0
 31 32  1  0
 32 33  1  0
 32 34  2  0
 30 35  1  0
 35 36  1  0
 36 37  1  0
 36 38  2  0
 29 21  1  0
  2 39  1  6
  3 40  1  0
  3 41  1  0
  5 42  1  0
  5 43  1  0
  6 44  1  0
  6 45  1  0
  8 46  1  0
  8 47  1  0
 12 48  1  0
 12 49  1  0
 16 50  1  0
 16 51  1  0
 20 52  1  0
 20 53  1  0
 22 54  1  0
 23 55  1  0
 26 56  1  0
 26 57  1  0
 27 58  1  0
 27 59  1  0
 27 60  1  0
 28 61  1  0
 29 62  1  0
 31 63  1  0
 31 64  1  0
 33 65  1  0
 35 66  1  0
 35 67  1  0
 37 68  1  0
M  CHG  4   1   3  10  -1  14  -1  18  -1
M  END
$$$$
