
     RDKit          3D

 44 46  0  0  0  0  0  0  0  0999 V2000
    0.1150    2.1905    3.1087 C   0  0  0  0  0  0  0  0  0  0  0  0
    0.6503    1.7817    1.7395 C   0  0  0  0  0  0  0  0  0  0  0  0
    0.5095    0.2623    1.5120 C   0  0  0  0  0  0  0  0  0  0  0  0
    0.5005   -0.1230    0.0370 C   0  0  0  0  0  0  0  0  0  0  0  0
   -0.5865   -0.8502   -0.5523 C   0  0  0  0  0  0  0  0  0  0  0  0
   -1.8611   -0.8819   -0.0071 N   0  0  0  0  0  0  0  0  0  0  0  0
   -2.4575    0.3516    0.5670 C   0  0  0  0  0  0  0  0  0  0  0  0
   -3.6093    0.8814   -0.2933 C   0  0  0  0  0  0  0  0  0  0  0  0
   -2.6880   -1.9533   -0.2805 C   0  0  0  0  0  0  0  0  0  0  0  0
   -2.4109   -2.7810   -1.3746 C   0  0  0  0  0  0  0  0  0  0  0  0
   -1.2718   -2.5663   -2.1375 C   0  0  0  0  0  0  0  0  0  0  0  0
   -1.0808   -3.2687   -3.1681 O   0  0  0  0  0  0  0  0  0  0  0  0
   -0.3284   -1.6139   -1.7224 C   0  0  0  0  0  0  0  0  0  0  0  0
    0.8711   -1.4437   -2.4301 C   0  0  0  0  0  0  0  0  0  0  0  0
    1.8747   -0.6053   -1.9374 C   0  0  0  0  0  0  0  0  0  0  0  0
    1.7084    0.0197   -0.6846 C   0  0  0  0  0  0  0  0  0  0  0  0
    2.7085    0.7341   -0.1695 O   0  0  0  0  0  0  0  0  0  0  0  0
    3.8708    0.9244   -0.7865 C   0  0  0  0  0  0  0  0  0  0  0  0
    4.0928    0.3528   -2.0457 C   0  0  0  0  0  0  0  0  0  0  0  0
    3.0896   -0.4239   -2.6222 C   0  0  0  0  0  0  0  0  0  0  0  0
    3.2895   -0.9572   -3.7477 O   0  0  0  0  0  0  0  0  0  0  0  0
    4.9011    1.7396   -0.1231 C   0  0  0  0  0  0  0  0  0  0  0  0
    4.6404    2.2895    1.1283 O   0  0  0  0  0  0  0  0  0  0  0  0
    6.0159    1.9451   -0.6750 O   0  0  0  0  0  0  0  0  0  0  0  0
   -3.8891   -2.2533    0.5395 C   0  0  0  0  0  0  0  0  0  0  0  0
   -3.9187   -1.9285    1.8919 O   0  0  0  0  0  0  0  0  0  0  0  0
   -4.8783   -2.8428    0.0256 O   0  0  0  0  0  0  0  0  0  0  0  0
   -0.9725    1.9739    3.1770 H   0  0  0  0  0  0  0  0  0  0  0  0
    0.6509    1.6402    3.9112 H   0  0  0  0  0  0  0  0  0  0  0  0
    0.2690    3.2798    3.2591 H   0  0  0  0  0  0  0  0  0  0  0  0
    1.7207    2.0723    1.6887 H   0  0  0  0  0  0  0  0  0  0  0  0
    0.1158    2.3590    0.9560 H   0  0  0  0  0  0  0  0  0  0  0  0
   -0.3814   -0.1393    2.0356 H   0  0  0  0  0  0  0  0  0  0  0  0
    1.3681   -0.2459    2.0034 H   0  0  0  0  0  0  0  0  0  0  0  0
   -1.7311    1.1784    0.5866 H   0  0  0  0  0  0  0  0  0  0  0  0
   -2.7913    0.1898    1.6111 H   0  0  0  0  0  0  0  0  0  0  0  0
   -4.4934    0.2151   -0.2432 H   0  0  0  0  0  0  0  0  0  0  0  0
   -3.9177    1.8832    0.0739 H   0  0  0  0  0  0  0  0  0  0  0  0
   -3.2817    0.9761   -1.3505 H   0  0  0  0  0  0  0  0  0  0  0  0
   -3.0864   -3.5846   -1.6454 H   0  0  0  0  0  0  0  0  0  0  0  0
    1.0363   -1.9884   -3.3526 H   0  0  0  0  0  0  0  0  0  0  0  0
    5.0322    0.4971   -2.5664 H   0  0  0  0  0  0  0  0  0  0  0  0
    5.3347    2.8541    1.6032 H   0  0  0  0  0  0  0  0  0  0  0  0
   -4.7299   -2.1403    2.4604 H   0  0  0  0  0  0  0  0  0  0  0  0
  1  2  1  0
  2  3  1  0
  3  4  1  0
  4  5  2  0
  5  6  1  0
  6  7  1  0
  7  8  1  0
  6  9  1  0
  9 10  2  0
 10 11  1  0
 11 12  2  0
 11 13  1  0
 13 14  2  0
 14 15  1  0
 15 16  2  0
 16 17  1  0
 17 18  1  0
 18 19  2  0
 19 20  1  0
 20 21  2  0
 18 22  1  0
 22 23  1  0
 22 24  2  0
  9 25  1  0
 25 26  1  0
 25 27  2  0
 16  4  1  0
 13  5  1  0
 20 15  1  0
  1 28  1  0
  1 29  1  0
  1 30  1  0
  2 31  1  0
  2 32  1  0
  3 33  1  0
  3 34  1  0
  7 35  1  0
  7 36  1  0
  8 37  1  0
  8 38  1  0
  8 39  1  0
 10 40  1  0
 14 41  1  0
 19 42  1  0
 23 43  1  0
 26 44  1  0
M  END
$$$$
