
     RDKit          3D

 39 41  0  0  0  0  0  0  0  0999 V2000
    1.0422    0.0933    0.5573 C   0  0  2  0  0  0  0  0  0  0  0  0
    1.7850    0.6007   -0.6905 C   0  0  0  0  0  0  0  0  0  0  0  0
    3.2783    0.5735   -0.4918 C   0  0  0  0  0  0  0  0  0  0  0  0
    3.8611   -0.2197    0.5213 C   0  0  0  0  0  0  0  0  0  0  0  0
    2.9981   -0.9495    1.5253 C   0  0  0  0  0  0  0  0  0  0  0  0
    1.6309   -1.1686    1.0319 N   0  0  0  0  0  0  0  0  0  0  0  0
    5.2579   -0.2539    0.6562 C   0  0  0  0  0  0  0  0  0  0  0  0
    6.0699    0.4611   -0.2278 C   0  0  0  0  0  0  0  0  0  0  0  0
    5.4946    1.2232   -1.2464 C   0  0  0  0  0  0  0  0  0  0  0  0
    4.1051    1.2771   -1.3816 C   0  0  0  0  0  0  0  0  0  0  0  0
   -0.4147   -0.1003    0.2544 C   0  0  0  0  0  0  0  0  0  0  0  0
   -0.9051   -1.1399   -0.4539 N   0  0  0  0  0  0  0  0  0  0  0  0
   -2.2533   -1.0643   -0.6377 C   0  0  0  0  0  0  0  0  0  0  0  0
   -2.9572   -2.1525   -1.3469 C   0  0  0  0  0  0  0  0  0  0  0  0
   -4.3455   -2.2284   -1.3691 O   0  0  0  0  0  0  0  0  0  0  0  0
   -2.2845   -3.0484   -1.9242 O   0  0  0  0  0  0  0  0  0  0  0  0
   -2.8502    0.0894   -0.0917 C   0  0  0  0  0  0  0  0  0  0  0  0
   -1.6299    0.9775    0.6677 S   0  0  0  0  0  0  0  0  0  0  0  0
   -4.3171    0.4634   -0.0787 C   0  0  0  0  0  0  0  0  0  0  0  0
   -4.5180    1.9848   -0.0753 C   0  0  0  0  0  0  0  0  0  0  0  0
   -5.0106   -0.1709    1.1307 C   0  0  0  0  0  0  0  0  0  0  0  0
    1.1236    0.8614    1.3605 H   0  0  0  0  0  0  0  0  0  0  0  0
    1.4536    1.6385   -0.9154 H   0  0  0  0  0  0  0  0  0  0  0  0
    1.5406   -0.0406   -1.5659 H   0  0  0  0  0  0  0  0  0  0  0  0
    2.9617   -0.3616    2.4680 H   0  0  0  0  0  0  0  0  0  0  0  0
    3.4545   -1.9348    1.7650 H   0  0  0  0  0  0  0  0  0  0  0  0
    1.6713   -1.8563    0.2415 H   0  0  0  0  0  0  0  0  0  0  0  0
    5.7172   -0.8334    1.4475 H   0  0  0  0  0  0  0  0  0  0  0  0
    7.1465    0.4258   -0.1217 H   0  0  0  0  0  0  0  0  0  0  0  0
    6.1262    1.7724   -1.9327 H   0  0  0  0  0  0  0  0  0  0  0  0
    3.6724    1.8663   -2.1808 H   0  0  0  0  0  0  0  0  0  0  0  0
   -4.8184   -2.9843   -1.8497 H   0  0  0  0  0  0  0  0  0  0  0  0
   -4.7993    0.0935   -1.0059 H   0  0  0  0  0  0  0  0  0  0  0  0
   -5.5985    2.2255   -0.1698 H   0  0  0  0  0  0  0  0  0  0  0  0
   -3.9854    2.4424   -0.9365 H   0  0  0  0  0  0  0  0  0  0  0  0
   -4.1392    2.4367    0.8665 H   0  0  0  0  0  0  0  0  0  0  0  0
   -4.5750    0.2149    2.0777 H   0  0  0  0  0  0  0  0  0  0  0  0
   -6.0969    0.0611    1.1142 H   0  0  0  0  0  0  0  0  0  0  0  0
   -4.8921   -1.2749    1.1100 H   0  0  0  0  0  0  0  0  0  0  0  0
  1  2  1  0
  2  3  1  0
  3  4  2  0
  4  5  1  0
  5  6  1  0
  4  7  1  0
  7  8  2  0
  8  9  1  0
  9 10  2  0
  1 11  1  0
 11 12  2  0
 12 13  1  0
 13 14  1  0
 14 15  1  0
 14 16  2  0
 13 17  2  0
 17 18  1  0
 17 19  1  0
 19 20  1  0
 19 21  1  0
  6  1  1  0
 18 11  1  0
 10  3  1  0
  1 22  1  1
  2 23  1  0
  2 24  1  0
  5 25  1  0
  5 26  1  0
  6 27  1  0
  7 28  1  0
  8 29  1  0
  9 30  1  0
 10 31  1  0
 15 32  1  0
 19 33  1  0
 20 34  1  0
 20 35  1  0
 20 36  1  0
 21 37  1  0
 21 38  1  0
 21 39  1  0
M  END
$$$$
