
     RDKit          3D

 37 38  0  0  0  0  0  0  0  0999 V2000
    3.8461   -1.1947    0.5609 C   0  0  0  0  0  0  0  0  0  0  0  0
    3.7979   -0.4338   -0.7004 N   0  0  0  0  0  0  0  0  0  0  0  0
    5.1634   -0.0520   -1.0945 C   0  0  0  0  0  0  0  0  0  0  0  0
    2.9598    0.7738   -0.5557 C   0  0  0  0  0  0  0  0  0  0  0  0
    1.5035    0.4083   -0.5414 C   0  0  0  0  0  0  0  0  0  0  0  0
    0.7460    0.0128   -1.6372 C   0  0  0  0  0  0  0  0  0  0  0  0
   -0.5161   -0.2853   -1.2557 N   0  0  0  0  0  0  0  0  0  0  0  0
   -0.5631   -0.0924    0.0771 C   0  0  0  0  0  0  0  0  0  0  0  0
    0.6563    0.3308    0.5476 C   0  0  0  0  0  0  0  0  0  0  0  0
    0.8733    0.5959    1.8993 C   0  0  0  0  0  0  0  0  0  0  0  0
   -0.2058    0.4299    2.7827 C   0  0  0  0  0  0  0  0  0  0  0  0
   -1.4630    0.0019    2.3064 C   0  0  0  0  0  0  0  0  0  0  0  0
   -1.6576   -0.2810    0.9362 C   0  0  0  0  0  0  0  0  0  0  0  0
   -3.0074   -0.7146    0.4271 C   0  0  0  0  0  0  0  0  0  0  0  0
   -3.7918    0.4861   -0.1129 C   0  0  0  0  0  0  0  0  0  0  0  0
   -5.1612    0.0595   -0.6385 C   0  0  0  0  0  0  0  0  0  0  0  0
   -5.8459    1.1816   -1.1208 O   0  0  0  0  0  0  0  0  0  0  0  0
    4.4842   -2.0967    0.4413 H   0  0  0  0  0  0  0  0  0  0  0  0
    2.8322   -1.5551    0.8337 H   0  0  0  0  0  0  0  0  0  0  0  0
    4.2491   -0.5758    1.3936 H   0  0  0  0  0  0  0  0  0  0  0  0
    5.7983   -0.9569   -1.2110 H   0  0  0  0  0  0  0  0  0  0  0  0
    5.6271    0.6231   -0.3406 H   0  0  0  0  0  0  0  0  0  0  0  0
    5.1477    0.4608   -2.0803 H   0  0  0  0  0  0  0  0  0  0  0  0
    3.1134    1.4559   -1.4217 H   0  0  0  0  0  0  0  0  0  0  0  0
    3.2316    1.3475    0.3583 H   0  0  0  0  0  0  0  0  0  0  0  0
    1.1012   -0.0575   -2.6570 H   0  0  0  0  0  0  0  0  0  0  0  0
   -1.2879   -0.6049   -1.8817 H   0  0  0  0  0  0  0  0  0  0  0  0
    1.8382    0.9222    2.2640 H   0  0  0  0  0  0  0  0  0  0  0  0
   -0.0722    0.6348    3.8369 H   0  0  0  0  0  0  0  0  0  0  0  0
   -2.2810   -0.1096    3.0071 H   0  0  0  0  0  0  0  0  0  0  0  0
   -3.5833   -1.1945    1.2488 H   0  0  0  0  0  0  0  0  0  0  0  0
   -2.8820   -1.4793   -0.3694 H   0  0  0  0  0  0  0  0  0  0  0  0
   -3.9304    1.2334    0.6994 H   0  0  0  0  0  0  0  0  0  0  0  0
   -3.2208    0.9659   -0.9380 H   0  0  0  0  0  0  0  0  0  0  0  0
   -5.7469   -0.4098    0.1839 H   0  0  0  0  0  0  0  0  0  0  0  0
   -5.0309   -0.6798   -1.4608 H   0  0  0  0  0  0  0  0  0  0  0  0
   -6.7221    0.8495   -1.4480 H   0  0  0  0  0  0  0  0  0  0  0  0
  1  2  1  0
  2  3  1  0
  2  4  1  0
  4  5  1  0
  5  6  2  0
  6  7  1  0
  7  8  1  0
  8  9  2  0
  9 10  1  0
 10 11  2  0
 11 12  1  0
 12 13  2  0
 13 14  1  0
 14 15  1  0
 15 16  1  0
 16 17  1  0
  9  5  1  0
 13  8  1  0
  1 18  1  0
  1 19  1  0
  1 20  1  0
  3 21  1  0
  3 22  1  0
  3 23  1  0
  4 24  1  0
  4 25  1  0
  6 26  1  0
  7 27  1  0
 10 28  1  0
 11 29  1  0
 12 30  1  0
 14 31  1  0
 14 32  1  0
 15 33  1  0
 15 34  1  0
 16 35  1  0
 16 36  1  0
 17 37  1  0
M  END
$$$$
