
     RDKit          3D

 63 65  0  0  0  0  0  0  0  0999 V2000
    0.0096   -0.0735   -3.7481 C   0  0  0  0  0  0  0  0  0  0  0  0
   -0.8476    1.0912   -4.2296 C   0  0  0  0  0  0  0  0  0  0  0  0
   -1.1973    1.9440   -3.1408 O   0  0  0  0  0  0  0  0  0  0  0  0
   -2.1411    1.5771   -2.1754 C   0  0  0  0  0  0  0  0  0  0  0  0
   -1.7071    1.1741   -0.9012 C   0  0  0  0  0  0  0  0  0  0  0  0
   -0.3036    1.1823   -0.5922 N   0  0  0  0  0  0  0  0  0  0  0  0
    0.3587    0.1083    0.1010 C   0  0  0  0  0  0  0  0  0  0  0  0
   -0.3020   -0.8989    0.4763 O   0  0  0  0  0  0  0  0  0  0  0  0
    1.8147    0.1553    0.3790 C   0  0  0  0  0  0  0  0  0  0  0  0
    2.6988    0.8352   -0.4737 C   0  0  0  0  0  0  0  0  0  0  0  0
    4.0755    0.8637   -0.2073 C   0  0  0  0  0  0  0  0  0  0  0  0
    4.9930    1.5729   -1.1651 C   0  0  0  0  0  0  0  0  0  0  0  0
    4.5887    0.1603    0.9005 C   0  0  0  0  0  0  0  0  0  0  0  0
    5.9729    0.1405    1.1195 O   0  0  0  0  0  0  0  0  0  0  0  0
    6.7703   -1.0302    0.9404 C   0  0  0  0  0  0  0  0  0  0  0  0
    6.9262   -1.3543   -0.5496 C   0  0  0  0  0  0  0  0  0  0  0  0
    7.7770   -2.5245   -0.7541 N   0  0  0  0  0  0  0  0  0  0  0  0
    3.7028   -0.4909    1.7869 C   0  0  0  0  0  0  0  0  0  0  0  0
    4.1942   -1.1810    3.0297 C   0  0  0  0  0  0  0  0  0  0  0  0
    2.3294   -0.5094    1.5024 C   0  0  0  0  0  0  0  0  0  0  0  0
   -2.6535    0.8101    0.0705 C   0  0  0  0  0  0  0  0  0  0  0  0
   -4.0283    0.8237   -0.2214 C   0  0  0  0  0  0  0  0  0  0  0  0
   -4.4472    1.2319   -1.4990 C   0  0  0  0  0  0  0  0  0  0  0  0
   -3.5146    1.6144   -2.4675 C   0  0  0  0  0  0  0  0  0  0  0  0
   -4.0936    2.1798   -4.0279 Cl  0  0  0  0  0  0  0  0  0  0  0  0
   -4.9948    0.4386    0.7814 N   0  0  0  0  0  0  0  0  0  0  0  0
   -4.6774   -0.6323    1.7407 C   0  0  0  0  0  0  0  0  0  0  0  0
   -5.9548   -1.3448    2.1953 C   0  0  0  0  0  0  0  0  0  0  0  0
   -6.9815   -0.3720    2.8054 C   0  0  0  0  0  0  0  0  0  0  0  0
   -6.8595    1.0692    2.2773 C   0  0  0  0  0  0  0  0  0  0  0  0
   -6.2984    1.1195    0.8528 C   0  0  0  0  0  0  0  0  0  0  0  0
    0.9226    0.3092   -3.2460 H   0  0  0  0  0  0  0  0  0  0  0  0
   -0.5634   -0.7035   -3.0356 H   0  0  0  0  0  0  0  0  0  0  0  0
    0.3113   -0.6988   -4.6145 H   0  0  0  0  0  0  0  0  0  0  0  0
   -1.7588    0.7026   -4.7316 H   0  0  0  0  0  0  0  0  0  0  0  0
   -0.2682    1.6813   -4.9703 H   0  0  0  0  0  0  0  0  0  0  0  0
    0.2582    1.9849   -0.9513 H   0  0  0  0  0  0  0  0  0  0  0  0
    2.3315    1.3206   -1.3678 H   0  0  0  0  0  0  0  0  0  0  0  0
    4.4753    2.4338   -1.6395 H   0  0  0  0  0  0  0  0  0  0  0  0
    5.8882    1.9692   -0.6414 H   0  0  0  0  0  0  0  0  0  0  0  0
    5.3155    0.8684   -1.9595 H   0  0  0  0  0  0  0  0  0  0  0  0
    6.3220   -1.8958    1.4695 H   0  0  0  0  0  0  0  0  0  0  0  0
    7.7720   -0.8398    1.3801 H   0  0  0  0  0  0  0  0  0  0  0  0
    7.3750   -0.4826   -1.0729 H   0  0  0  0  0  0  0  0  0  0  0  0
    5.9276   -1.5511   -0.9959 H   0  0  0  0  0  0  0  0  0  0  0  0
    8.7150   -2.3387   -0.3301 H   0  0  0  0  0  0  0  0  0  0  0  0
    7.3561   -3.3398   -0.2516 H   0  0  0  0  0  0  0  0  0  0  0  0
    5.1394   -0.7274    3.3948 H   0  0  0  0  0  0  0  0  0  0  0  0
    3.4469   -1.0884    3.8464 H   0  0  0  0  0  0  0  0  0  0  0  0
    4.3559   -2.2584    2.8184 H   0  0  0  0  0  0  0  0  0  0  0  0
    1.6555   -1.0297    2.1736 H   0  0  0  0  0  0  0  0  0  0  0  0
   -2.3204    0.5516    1.0667 H   0  0  0  0  0  0  0  0  0  0  0  0
   -5.5004    1.2527   -1.7471 H   0  0  0  0  0  0  0  0  0  0  0  0
   -4.1524   -0.2000    2.6198 H   0  0  0  0  0  0  0  0  0  0  0  0
   -4.0110   -1.3854    1.2656 H   0  0  0  0  0  0  0  0  0  0  0  0
   -6.4095   -1.8471    1.3130 H   0  0  0  0  0  0  0  0  0  0  0  0
   -5.6995   -2.1334    2.9358 H   0  0  0  0  0  0  0  0  0  0  0  0
   -6.8608   -0.3558    3.9107 H   0  0  0  0  0  0  0  0  0  0  0  0
   -8.0035   -0.7554    2.5934 H   0  0  0  0  0  0  0  0  0  0  0  0
   -6.1794    1.6445    2.9437 H   0  0  0  0  0  0  0  0  0  0  0  0
   -7.8544    1.5639    2.3051 H   0  0  0  0  0  0  0  0  0  0  0  0
   -6.1861    2.1872    0.5625 H   0  0  0  0  0  0  0  0  0  0  0  0
   -7.0097    0.6342    0.1500 H   0  0  0  0  0  0  0  0  0  0  0  0
  1  2  1  0
  2  3  1  0
  3  4  1  0
  4  5  2  0
  5  6  1  0
  6  7  1  0
  7  8  2  0
  7  9  1  0
  9 10  2  0
 10 11  1  0
 11 12  1  0
 11 13  2  0
 13 14  1  0
 14 15  1  0
 15 16  1  0
 16 17  1  0
 13 18  1  0
 18 19  1  0
 18 20  2  0
  5 21  1  0
 21 22  2  0
 22 23  1  0
 23 24  2  0
 24 25  1  0
 22 26  1  0
 26 27  1  0
 27 28  1  0
 28 29  1  0
 29 30  1  0
 30 31  1  0
 24  4  1  0
 31 26  1  0
 20  9  1  0
  1 32  1  0
  1 33  1  0
  1 34  1  0
  2 35  1  0
  2 36  1  0
  6 37  1  0
 10 38  1  0
 12 39  1  0
 12 40  1  0
 12 41  1  0
 15 42  1  0
 15 43  1  0
 16 44  1  0
 16 45  1  0
 17 46  1  0
 17 47  1  0
 19 48  1  0
 19 49  1  0
 19 50  1  0
 20 51  1  0
 21 52  1  0
 23 53  1  0
 27 54  1  0
 27 55  1  0
 28 56  1  0
 28 57  1  0
 29 58  1  0
 29 59  1  0
 30 60  1  0
 30 61  1  0
 31 62  1  0
 31 63  1  0
M  END
$$$$
