
     RDKit          3D

 23 23  0  0  0  0  0  0  0  0999 V2000
    3.8340   -0.7912    0.8219 N   0  0  0  0  0  0  0  0  0  0  0  0
    2.9241   -0.1941    1.7532 C   0  0  0  0  0  0  0  0  0  0  0  0
    3.3380    0.1392    2.9342 N   0  0  0  0  0  0  0  0  0  0  0  0
    1.5718    0.1059    1.3767 N   0  0  0  0  0  0  0  0  0  0  0  0
    0.8352   -0.6338    0.3888 C   0  0  0  0  0  0  0  0  0  0  0  0
    1.2557   -1.7568   -0.0005 O   0  0  0  0  0  0  0  0  0  0  0  0
   -0.4681   -0.1272   -0.0949 C   0  0  0  0  0  0  0  0  0  0  0  0
   -1.2361    0.5997    0.7615 N   0  0  0  0  0  0  0  0  0  0  0  0
   -2.4703    1.0536    0.4252 C   0  0  0  0  0  0  0  0  0  0  0  0
   -3.3793    1.9805    1.6082 Cl  0  0  0  0  0  0  0  0  0  0  0  0
   -2.9824    0.7588   -0.8474 C   0  0  0  0  0  0  0  0  0  0  0  0
   -4.2810    1.1959   -1.2571 N   0  0  0  0  0  0  0  0  0  0  0  0
   -2.2148    0.0494   -1.7151 N   0  0  0  0  0  0  0  0  0  0  0  0
   -0.9719   -0.3958   -1.3889 C   0  0  0  0  0  0  0  0  0  0  0  0
   -0.1995   -1.0670   -2.3899 N   0  0  0  0  0  0  0  0  0  0  0  0
    3.5890   -0.8845   -0.1879 H   0  0  0  0  0  0  0  0  0  0  0  0
    4.7986   -1.0594    1.1189 H   0  0  0  0  0  0  0  0  0  0  0  0
    4.3201   -0.0371    3.2430 H   0  0  0  0  0  0  0  0  0  0  0  0
    1.0839    0.8695    1.8973 H   0  0  0  0  0  0  0  0  0  0  0  0
   -4.9051    1.7449   -0.6264 H   0  0  0  0  0  0  0  0  0  0  0  0
   -4.6296    0.9643   -2.2137 H   0  0  0  0  0  0  0  0  0  0  0  0
    0.8324   -1.1913   -2.3083 H   0  0  0  0  0  0  0  0  0  0  0  0
   -0.6449   -1.3237   -3.2988 H   0  0  0  0  0  0  0  0  0  0  0  0
  1  2  1  0
  2  3  2  3
  2  4  1  0
  4  5  1  0
  5  6  2  0
  5  7  1  0
  7  8  2  0
  8  9  1  0
  9 10  1  0
  9 11  2  0
 11 12  1  0
 11 13  1  0
 13 14  2  0
 14 15  1  0
 14  7  1  0
  1 16  1  0
  1 17  1  0
  3 18  1  0
  4 19  1  0
 12 20  1  0
 12 21  1  0
 15 22  1  0
 15 23  1  0
M  END
$$$$
