
     RDKit          3D

 56 58  0  0  0  0  0  0  0  0999 V2000
   -0.1020   -1.1412    1.1554 C   0  0  1  0  0  0  0  0  0  0  0  0
    0.2394   -2.6464    1.2857 C   0  0  0  0  0  0  0  0  0  0  0  0
    0.3063   -3.5486   -0.2656 S   0  0  0  0  0  6  0  0  0  0  0  0
    0.2741   -5.2908    0.0887 C   0  0  0  0  0  0  0  0  0  0  0  0
   -0.8605   -3.2126   -1.1499 O   0  0  0  0  0  0  0  0  0  0  0  0
    1.5855   -3.2256   -0.9852 O   0  0  0  0  0  0  0  0  0  0  0  0
    0.8295   -0.4736    0.2322 N   0  0  0  0  0  0  0  0  0  0  0  0
    0.6986   -0.2560   -1.1791 C   0  0  0  0  0  0  0  0  0  0  0  0
   -0.3536   -0.4603   -1.8405 O   0  0  0  0  0  0  0  0  0  0  0  0
    1.9589    0.2219   -1.7316 C   0  0  0  0  0  0  0  0  0  0  0  0
    2.8723    0.3057   -0.7006 C   0  0  0  0  0  0  0  0  0  0  0  0
    2.1929   -0.1446    0.5154 C   0  0  0  0  0  0  0  0  0  0  0  0
    2.7258   -0.2759    1.6490 O   0  0  0  0  0  0  0  0  0  0  0  0
    4.1952    0.7121   -0.9333 C   0  0  0  0  0  0  0  0  0  0  0  0
    4.5740    0.9891   -2.2604 C   0  0  0  0  0  0  0  0  0  0  0  0
    3.6347    0.9006   -3.3088 C   0  0  0  0  0  0  0  0  0  0  0  0
    2.3096    0.5147   -3.0477 C   0  0  0  0  0  0  0  0  0  0  0  0
    5.1682    0.7840    0.1157 N   0  0  0  0  0  0  0  0  0  0  0  0
    5.0907    1.5539    1.1626 C   0  0  0  0  0  0  0  0  0  0  0  0
    6.1608    1.4783    2.1989 C   0  0  0  0  0  0  0  0  0  0  0  0
    4.0617    2.4863    1.3231 O   0  0  0  0  0  0  0  0  0  0  0  0
   -1.5554   -0.7851    0.8467 C   0  0  0  0  0  0  0  0  0  0  0  0
   -1.8904    0.5734    0.6959 C   0  0  0  0  0  0  0  0  0  0  0  0
   -3.2150    0.9736    0.4376 C   0  0  0  0  0  0  0  0  0  0  0  0
   -3.5641    2.3212    0.2553 O   0  0  0  0  0  0  0  0  0  0  0  0
   -2.6425    3.4079    0.2909 C   0  0  0  0  0  0  0  0  0  0  0  0
   -3.3840    4.7101    0.0355 C   0  0  0  0  0  0  0  0  0  0  0  0
   -4.2275    0.0084    0.3581 C   0  0  0  0  0  0  0  0  0  0  0  0
   -5.5389    0.4361    0.0967 O   0  0  0  0  0  0  0  0  0  0  0  0
   -6.6634   -0.4306   -0.0119 C   0  0  0  0  0  0  0  0  0  0  0  0
   -3.9073   -1.3474    0.5448 C   0  0  0  0  0  0  0  0  0  0  0  0
   -2.5912   -1.7383    0.7967 C   0  0  0  0  0  0  0  0  0  0  0  0
    0.0792   -0.7156    2.1675 H   0  0  0  0  0  0  0  0  0  0  0  0
   -0.4637   -3.1460    1.9835 H   0  0  0  0  0  0  0  0  0  0  0  0
    1.2414   -2.7373    1.7567 H   0  0  0  0  0  0  0  0  0  0  0  0
   -0.6718   -5.5458    0.6096 H   0  0  0  0  0  0  0  0  0  0  0  0
    1.1345   -5.5534    0.7382 H   0  0  0  0  0  0  0  0  0  0  0  0
    0.3389   -5.8643   -0.8588 H   0  0  0  0  0  0  0  0  0  0  0  0
    5.5926    1.2823   -2.4811 H   0  0  0  0  0  0  0  0  0  0  0  0
    3.9386    1.1246   -4.3231 H   0  0  0  0  0  0  0  0  0  0  0  0
    1.5870    0.4325   -3.8491 H   0  0  0  0  0  0  0  0  0  0  0  0
    6.4062    0.4173    2.4170 H   0  0  0  0  0  0  0  0  0  0  0  0
    5.8188    1.9647    3.1365 H   0  0  0  0  0  0  0  0  0  0  0  0
    7.0703    1.9977    1.8316 H   0  0  0  0  0  0  0  0  0  0  0  0
    3.3507    2.6487    0.6214 H   0  0  0  0  0  0  0  0  0  0  0  0
   -1.1076    1.3159    0.7756 H   0  0  0  0  0  0  0  0  0  0  0  0
   -2.1559    3.4567    1.2890 H   0  0  0  0  0  0  0  0  0  0  0  0
   -1.8678    3.2709   -0.4946 H   0  0  0  0  0  0  0  0  0  0  0  0
   -4.1588    4.8648    0.8160 H   0  0  0  0  0  0  0  0  0  0  0  0
   -3.8717    4.6795   -0.9618 H   0  0  0  0  0  0  0  0  0  0  0  0
   -2.6697    5.5599    0.0623 H   0  0  0  0  0  0  0  0  0  0  0  0
   -6.5125   -1.1494   -0.8448 H   0  0  0  0  0  0  0  0  0  0  0  0
   -6.8180   -0.9770    0.9424 H   0  0  0  0  0  0  0  0  0  0  0  0
   -7.5682    0.1748   -0.2249 H   0  0  0  0  0  0  0  0  0  0  0  0
   -4.6718   -2.1110    0.5008 H   0  0  0  0  0  0  0  0  0  0  0  0
   -2.4033   -2.7907    0.9454 H   0  0  0  0  0  0  0  0  0  0  0  0
  1  2  1  0
  2  3  1  0
  3  4  1  0
  3  5  2  0
  3  6  2  0
  1  7  1  0
  7  8  1  0
  8  9  2  0
  8 10  1  0
 10 11  2  0
 11 12  1  0
 12 13  2  0
 11 14  1  0
 14 15  2  0
 15 16  1  0
 16 17  2  0
 14 18  1  0
 18 19  2  3
 19 20  1  0
 19 21  1  0
  1 22  1  0
 22 23  2  0
 23 24  1  0
 24 25  1  0
 25 26  1  0
 26 27  1  0
 24 28  2  0
 28 29  1  0
 29 30  1  0
 28 31  1  0
 31 32  2  0
 12  7  1  0
 32 22  1  0
 17 10  1  0
  1 33  1  1
  2 34  1  0
  2 35  1  0
  4 36  1  0
  4 37  1  0
  4 38  1  0
 15 39  1  0
 16 40  1  0
 17 41  1  0
 20 42  1  0
 20 43  1  0
 20 44  1  0
 21 45  1  0
 23 46  1  0
 26 47  1  0
 26 48  1  0
 27 49  1  0
 27 50  1  0
 27 51  1  0
 30 52  1  0
 30 53  1  0
 30 54  1  0
 31 55  1  0
 32 56  1  0
M  END
$$$$
