
     RDKit          3D

 50 53  0  0  0  0  0  0  0  0999 V2000
   -2.6838   -1.4523   -0.1251 C   0  0  1  0  0  0  0  0  0  0  0  0
   -2.7944   -2.7849   -0.7242 N   0  0  0  0  0  0  0  0  0  0  0  0
   -1.2291   -0.9903    0.0092 C   0  0  0  0  0  0  0  0  0  0  0  0
   -1.2381    0.4284   -0.3192 N   0  0  0  0  0  0  0  0  0  0  0  0
   -2.5274    0.8851   -0.8147 C   0  0  0  0  0  0  0  0  0  0  0  0
   -3.3686   -0.3826   -0.9949 C   0  0  2  0  0  0  0  0  0  0  0  0
   -4.8376   -0.1852   -0.6526 C   0  0  0  0  0  0  0  0  0  0  0  0
   -5.2268    0.2517    0.6303 C   0  0  0  0  0  0  0  0  0  0  0  0
   -6.5779    0.4254    0.9436 C   0  0  0  0  0  0  0  0  0  0  0  0
   -6.9353    0.8477    2.1817 F   0  0  0  0  0  0  0  0  0  0  0  0
   -7.5581    0.1633   -0.0162 C   0  0  0  0  0  0  0  0  0  0  0  0
   -8.8692    0.3310    0.2868 F   0  0  0  0  0  0  0  0  0  0  0  0
   -7.1880   -0.2742   -1.2896 C   0  0  0  0  0  0  0  0  0  0  0  0
   -5.8380   -0.4505   -1.6109 C   0  0  0  0  0  0  0  0  0  0  0  0
   -5.5142   -0.8813   -2.8566 F   0  0  0  0  0  0  0  0  0  0  0  0
   -0.1045    1.3072   -0.1794 C   0  0  0  0  0  0  0  0  0  0  0  0
    1.1530    0.8233    0.2163 C   0  0  0  0  0  0  0  0  0  0  0  0
    2.2243    1.7245    0.3328 C   0  0  0  0  0  0  0  0  0  0  0  0
    2.0078    3.0429    0.0739 N   0  0  0  0  0  0  0  0  0  0  0  0
    0.7881    3.4986   -0.3075 C   0  0  0  0  0  0  0  0  0  0  0  0
   -0.2510    2.6357   -0.4336 N   0  0  0  0  0  0  0  0  0  0  0  0
    3.5787    1.2781    0.7486 C   0  0  0  0  0  0  0  0  0  0  0  0
    4.0511   -0.0139    0.4435 C   0  0  0  0  0  0  0  0  0  0  0  0
    5.3333   -0.4176    0.8415 C   0  0  0  0  0  0  0  0  0  0  0  0
    6.1605    0.4777    1.5302 C   0  0  0  0  0  0  0  0  0  0  0  0
    5.7071    1.7641    1.8262 C   0  0  0  0  0  0  0  0  0  0  0  0
    4.4265    2.1647    1.4372 C   0  0  0  0  0  0  0  0  0  0  0  0
    5.9143   -2.0297    0.4373 S   0  0  0  0  0  6  0  0  0  0  0  0
    6.6231   -2.0096   -1.1932 C   0  0  0  0  0  0  0  0  0  0  0  0
    4.7719   -3.0056    0.4785 O   0  0  0  0  0  0  0  0  0  0  0  0
    6.9549   -2.4634    1.4314 O   0  0  0  0  0  0  0  0  0  0  0  0
   -3.1373   -1.4767    0.8908 H   0  0  0  0  0  0  0  0  0  0  0  0
   -2.3136   -3.4682   -0.0948 H   0  0  0  0  0  0  0  0  0  0  0  0
   -2.2910   -2.8032   -1.6415 H   0  0  0  0  0  0  0  0  0  0  0  0
   -0.8757   -1.1444    1.0520 H   0  0  0  0  0  0  0  0  0  0  0  0
   -0.5581   -1.5258   -0.6973 H   0  0  0  0  0  0  0  0  0  0  0  0
   -2.9691    1.5926   -0.0810 H   0  0  0  0  0  0  0  0  0  0  0  0
   -2.4028    1.4058   -1.7895 H   0  0  0  0  0  0  0  0  0  0  0  0
   -3.2604   -0.6819   -2.0616 H   0  0  0  0  0  0  0  0  0  0  0  0
   -4.4838    0.4576    1.3905 H   0  0  0  0  0  0  0  0  0  0  0  0
   -7.9499   -0.4789   -2.0309 H   0  0  0  0  0  0  0  0  0  0  0  0
    1.2889   -0.2235    0.4473 H   0  0  0  0  0  0  0  0  0  0  0  0
    0.6442    4.5506   -0.5112 H   0  0  0  0  0  0  0  0  0  0  0  0
    3.4400   -0.7014   -0.1263 H   0  0  0  0  0  0  0  0  0  0  0  0
    7.1580    0.1841    1.8312 H   0  0  0  0  0  0  0  0  0  0  0  0
    6.3501    2.4536    2.3578 H   0  0  0  0  0  0  0  0  0  0  0  0
    4.0953    3.1658    1.6842 H   0  0  0  0  0  0  0  0  0  0  0  0
    6.9904   -3.0242   -1.4517 H   0  0  0  0  0  0  0  0  0  0  0  0
    7.4695   -1.2927   -1.2206 H   0  0  0  0  0  0  0  0  0  0  0  0
    5.8529   -1.6977   -1.9284 H   0  0  0  0  0  0  0  0  0  0  0  0
  1  2  1  0
  1  3  1  0
  3  4  1  0
  4  5  1  0
  5  6  1  0
  6  7  1  0
  7  8  2  0
  8  9  1  0
  9 10  1  0
  9 11  2  0
 11 12  1  0
 11 13  1  0
 13 14  2  0
 14 15  1  0
  4 16  1  0
 16 17  2  0
 17 18  1  0
 18 19  2  0
 19 20  1  0
 20 21  2  0
 18 22  1  0
 22 23  2  0
 23 24  1  0
 24 25  2  0
 25 26  1  0
 26 27  2  0
 24 28  1  0
 28 29  1  0
 28 30  2  0
 28 31  2  0
  6  1  1  0
 14  7  1  0
 21 16  1  0
 27 22  1  0
  1 32  1  1
  2 33  1  0
  2 34  1  0
  3 35  1  0
  3 36  1  0
  5 37  1  0
  5 38  1  0
  6 39  1  6
  8 40  1  0
 13 41  1  0
 17 42  1  0
 20 43  1  0
 23 44  1  0
 25 45  1  0
 26 46  1  0
 27 47  1  0
 29 48  1  0
 29 49  1  0
 29 50  1  0
M  END
$$$$
