
     RDKit          3D

 27 29  0  0  0  0  0  0  0  0999 V2000
    5.7408   -0.2913   -0.6717 O   0  0  0  0  0  0  0  0  0  0  0  0
    4.3616   -0.2376   -0.4834 C   0  0  0  0  0  0  0  0  0  0  0  0
    3.5183    0.2226   -1.5032 C   0  0  0  0  0  0  0  0  0  0  0  0
    2.1356    0.2721   -1.3019 C   0  0  0  0  0  0  0  0  0  0  0  0
    1.5814   -0.1240   -0.0738 C   0  0  0  0  0  0  0  0  0  0  0  0
    2.4315   -0.6022    0.9383 C   0  0  0  0  0  0  0  0  0  0  0  0
    3.8140   -0.6520    0.7346 C   0  0  0  0  0  0  0  0  0  0  0  0
    0.1570   -0.0853    0.1137 N   0  0  0  0  0  0  0  0  0  0  0  0
   -0.7054   -0.4225   -0.8422 N   0  0  0  0  0  0  0  0  0  0  0  0
   -1.9368   -0.2460   -0.3312 C   0  0  0  0  0  0  0  0  0  0  0  0
   -3.1592   -0.4559   -0.9630 C   0  0  0  0  0  0  0  0  0  0  0  0
   -4.3300   -0.1750   -0.2330 C   0  0  0  0  0  0  0  0  0  0  0  0
   -4.2531    0.3098    1.0948 C   0  0  0  0  0  0  0  0  0  0  0  0
   -5.4272    0.5836    1.7921 O   0  0  0  0  0  0  0  0  0  0  0  0
   -2.9960    0.5144    1.7033 C   0  0  0  0  0  0  0  0  0  0  0  0
   -1.8606    0.2162    0.9537 C   0  0  0  0  0  0  0  0  0  0  0  0
   -0.5163    0.3150    1.2248 C   0  0  0  0  0  0  0  0  0  0  0  0
    0.1910    0.9944    2.6852 Cl  0  0  0  0  0  0  0  0  0  0  0  0
    6.1678    0.0004   -1.5432 H   0  0  0  0  0  0  0  0  0  0  0  0
    3.9324    0.5404   -2.4516 H   0  0  0  0  0  0  0  0  0  0  0  0
    1.4962    0.6311   -2.0986 H   0  0  0  0  0  0  0  0  0  0  0  0
    2.0256   -0.9611    1.8744 H   0  0  0  0  0  0  0  0  0  0  0  0
    4.4597   -1.0212    1.5212 H   0  0  0  0  0  0  0  0  0  0  0  0
   -3.2089   -0.8187   -1.9815 H   0  0  0  0  0  0  0  0  0  0  0  0
   -5.2966   -0.3281   -0.6956 H   0  0  0  0  0  0  0  0  0  0  0  0
   -5.4079    0.9321    2.7435 H   0  0  0  0  0  0  0  0  0  0  0  0
   -2.9148    0.8886    2.7159 H   0  0  0  0  0  0  0  0  0  0  0  0
  1  2  1  0
  2  3  2  0
  3  4  1  0
  4  5  2  0
  5  6  1  0
  6  7  2  0
  5  8  1  0
  8  9  1  0
  9 10  2  0
 10 11  1  0
 11 12  2  0
 12 13  1  0
 13 14  1  0
 13 15  2  0
 15 16  1  0
 16 17  2  0
 17 18  1  0
  7  2  1  0
 17  8  1  0
 16 10  1  0
  1 19  1  0
  3 20  1  0
  4 21  1  0
  6 22  1  0
  7 23  1  0
 11 24  1  0
 12 25  1  0
 14 26  1  0
 15 27  1  0
M  END
$$$$
