
     RDKit          3D

 28 30  0  0  0  0  0  0  0  0999 V2000
    5.0221    1.0958   -0.3429 C   0  0  0  0  0  0  0  0  0  0  0  0
    3.6984    1.5014   -0.6752 O   0  0  0  0  0  0  0  0  0  0  0  0
    2.5410    0.7937   -0.3191 C   0  0  0  0  0  0  0  0  0  0  0  0
    2.5920   -0.4204    0.4232 C   0  0  0  0  0  0  0  0  0  0  0  0
    1.4115   -1.1049    0.7637 C   0  0  0  0  0  0  0  0  0  0  0  0
    0.2018   -0.5552    0.3510 C   0  0  0  0  0  0  0  0  0  0  0  0
    0.1398    0.6195   -0.3681 C   0  0  0  0  0  0  0  0  0  0  0  0
   -1.1361    0.9583   -0.6567 N   0  0  0  0  0  0  0  0  0  0  0  0
   -1.8845   -0.0251   -0.1064 C   0  0  0  0  0  0  0  0  0  0  0  0
   -1.0998   -0.9687    0.5187 C   0  0  0  0  0  0  0  0  0  0  0  0
   -1.6495   -2.0756    1.1569 C   0  0  0  0  0  0  0  0  0  0  0  0
   -3.0500   -2.1923    1.1376 C   0  0  0  0  0  0  0  0  0  0  0  0
   -3.8190   -1.2460    0.5119 N   0  0  0  0  0  0  0  0  0  0  0  0
   -3.2755   -0.1585   -0.1150 C   0  0  0  0  0  0  0  0  0  0  0  0
   -4.1587    0.8466   -0.7838 C   0  0  0  0  0  0  0  0  0  0  0  0
    1.2943    1.3166   -0.7178 C   0  0  0  0  0  0  0  0  0  0  0  0
    5.1419    1.0503    0.7602 H   0  0  0  0  0  0  0  0  0  0  0  0
    5.2421    0.1048   -0.7930 H   0  0  0  0  0  0  0  0  0  0  0  0
    5.7408    1.8373   -0.7479 H   0  0  0  0  0  0  0  0  0  0  0  0
    3.5377   -0.8388    0.7389 H   0  0  0  0  0  0  0  0  0  0  0  0
    1.4462   -2.0280    1.3278 H   0  0  0  0  0  0  0  0  0  0  0  0
   -1.4660    1.7953   -1.1874 H   0  0  0  0  0  0  0  0  0  0  0  0
   -1.0298   -2.8151    1.6471 H   0  0  0  0  0  0  0  0  0  0  0  0
   -3.5262   -3.0353    1.6200 H   0  0  0  0  0  0  0  0  0  0  0  0
   -3.9113    0.9035   -1.8646 H   0  0  0  0  0  0  0  0  0  0  0  0
   -4.0110    1.8442   -0.3192 H   0  0  0  0  0  0  0  0  0  0  0  0
   -5.2260    0.5584   -0.6772 H   0  0  0  0  0  0  0  0  0  0  0  0
    1.2337    2.2381   -1.2827 H   0  0  0  0  0  0  0  0  0  0  0  0
  1  2  1  0
  2  3  1  0
  3  4  2  0
  4  5  1  0
  5  6  2  0
  6  7  1  0
  7  8  1  0
  8  9  1  0
  9 10  2  0
 10 11  1  0
 11 12  2  0
 12 13  1  0
 13 14  2  0
 14 15  1  0
  7 16  2  0
 16  3  1  0
 10  6  1  0
 14  9  1  0
  1 17  1  0
  1 18  1  0
  1 19  1  0
  4 20  1  0
  5 21  1  0
  8 22  1  0
 11 23  1  0
 12 24  1  0
 15 25  1  0
 15 26  1  0
 15 27  1  0
 16 28  1  0
M  END
$$$$
