
     RDKit          3D

 30 29  0  0  0  0  0  0  0  0999 V2000
   -3.6379   -0.7593   -0.0273 N   0  0  0  0  0  0  0  0  0  0  0  0
   -4.7700   -0.7999    0.8487 C   0  0  0  0  0  0  0  0  0  0  0  0
   -4.6608   -0.4864    2.0638 O   0  0  0  0  0  0  0  0  0  0  0  0
   -2.3061   -0.3380    0.4214 C   0  0  2  0  0  0  0  0  0  0  0  0
   -2.2600    1.1917    0.5183 C   0  0  0  0  0  0  0  0  0  0  0  0
   -1.2318   -0.8893   -0.5436 C   0  0  0  0  0  0  0  0  0  0  0  0
    0.2163   -0.6608   -0.0576 C   0  0  0  0  0  0  0  0  0  0  0  0
    0.9050    0.4928   -0.8083 C   0  0  0  0  0  0  0  0  0  0  0  0
    2.2600    0.8755   -0.1929 C   0  0  0  0  0  0  0  0  0  0  0  0
    3.3287   -0.2084   -0.3951 C   0  0  0  0  0  0  0  0  0  0  0  0
    4.6904    0.2622    0.1079 C   0  0  0  0  0  0  0  0  0  0  0  0
   -3.7827   -1.0596   -1.0181 H   0  0  0  0  0  0  0  0  0  0  0  0
   -5.7333   -1.1081    0.4644 H   0  0  0  0  0  0  0  0  0  0  0  0
   -2.1167   -0.7681    1.4303 H   0  0  0  0  0  0  0  0  0  0  0  0
   -1.3141    1.5231    0.9944 H   0  0  0  0  0  0  0  0  0  0  0  0
   -2.3472    1.6485   -0.4906 H   0  0  0  0  0  0  0  0  0  0  0  0
   -3.0959    1.5631    1.1473 H   0  0  0  0  0  0  0  0  0  0  0  0
   -1.3816   -0.4688   -1.5631 H   0  0  0  0  0  0  0  0  0  0  0  0
   -1.3924   -1.9869   -0.6309 H   0  0  0  0  0  0  0  0  0  0  0  0
    0.2382   -0.4744    1.0384 H   0  0  0  0  0  0  0  0  0  0  0  0
    0.7940   -1.5922   -0.2410 H   0  0  0  0  0  0  0  0  0  0  0  0
    0.2554    1.3925   -0.7856 H   0  0  0  0  0  0  0  0  0  0  0  0
    1.0435    0.2141   -1.8761 H   0  0  0  0  0  0  0  0  0  0  0  0
    2.1340    1.0857    0.8920 H   0  0  0  0  0  0  0  0  0  0  0  0
    2.6041    1.8146   -0.6795 H   0  0  0  0  0  0  0  0  0  0  0  0
    3.0488   -1.1277    0.1616 H   0  0  0  0  0  0  0  0  0  0  0  0
    3.4124   -0.4591   -1.4750 H   0  0  0  0  0  0  0  0  0  0  0  0
    4.6387    0.5043    1.1909 H   0  0  0  0  0  0  0  0  0  0  0  0
    5.0203    1.1619   -0.4541 H   0  0  0  0  0  0  0  0  0  0  0  0
    5.4404   -0.5430   -0.0407 H   0  0  0  0  0  0  0  0  0  0  0  0
  1  2  1  0
  2  3  2  0
  1  4  1  0
  4  5  1  0
  4  6  1  0
  6  7  1  0
  7  8  1  0
  8  9  1  0
  9 10  1  0
 10 11  1  0
  1 12  1  0
  2 13  1  0
  4 14  1  1
  5 15  1  0
  5 16  1  0
  5 17  1  0
  6 18  1  0
  6 19  1  0
  7 20  1  0
  7 21  1  0
  8 22  1  0
  8 23  1  0
  9 24  1  0
  9 25  1  0
 10 26  1  0
 10 27  1  0
 11 28  1  0
 11 29  1  0
 11 30  1  0
M  END
$$$$
