
     RDKit          3D

 18 17  0  0  0  0  0  0  0  0999 V2000
   -0.8587   -1.4571    0.9135 N   0  0  0  0  0  0  0  0  0  0  0  0
   -0.6775   -0.1038    0.3791 C   0  0  1  0  0  0  0  0  0  0  0  0
    0.4279   -0.0747   -0.6987 C   0  0  2  0  0  0  0  0  0  0  0  0
    0.1611   -1.0379   -1.6875 O   0  0  0  0  0  0  0  0  0  0  0  0
    1.7849   -0.3129   -0.0864 C   0  0  0  0  0  0  0  0  0  0  0  0
    2.4897    0.7605    0.5372 N   0  0  0  0  0  0  0  0  0  0  0  0
    2.2878   -1.4689   -0.0877 O   0  0  0  0  0  0  0  0  0  0  0  0
   -1.9722    0.3973   -0.2014 C   0  0  0  0  0  0  0  0  0  0  0  0
   -2.3757    1.7069    0.0398 O   0  0  0  0  0  0  0  0  0  0  0  0
   -2.6747   -0.3507   -0.9341 O   0  0  0  0  0  0  0  0  0  0  0  0
    0.0035   -1.7255    1.4406 H   0  0  0  0  0  0  0  0  0  0  0  0
   -1.6251   -1.4306    1.6257 H   0  0  0  0  0  0  0  0  0  0  0  0
   -0.3899    0.5797    1.2113 H   0  0  0  0  0  0  0  0  0  0  0  0
    0.4357    0.9395   -1.1644 H   0  0  0  0  0  0  0  0  0  0  0  0
    0.7179   -0.8024   -2.4755 H   0  0  0  0  0  0  0  0  0  0  0  0
    2.0788    1.7199    0.5692 H   0  0  0  0  0  0  0  0  0  0  0  0
    3.4234    0.5947    0.9740 H   0  0  0  0  0  0  0  0  0  0  0  0
   -3.2369    2.0661   -0.3545 H   0  0  0  0  0  0  0  0  0  0  0  0
  1  2  1  0
  2  3  1  0
  3  4  1  0
  3  5  1  0
  5  6  1  0
  5  7  2  0
  2  8  1  0
  8  9  1  0
  8 10  2  0
  1 11  1  0
  1 12  1  0
  2 13  1  1
  3 14  1  6
  4 15  1  0
  6 16  1  0
  6 17  1  0
  9 18  1  0
M  END
$$$$
