
     RDKit          3D

 94 96  0  0  0  0  0  0  0  0999 V2000
   10.8560   -2.5373   -3.2159 C   0  0  0  0  0  0  0  0  0  0  0  0
   10.1610   -2.1640   -1.9414 C   0  0  0  0  0  0  0  0  0  0  0  0
   10.7876   -2.1430   -0.8930 O   0  0  0  0  0  0  0  0  0  0  0  0
    8.6982   -1.8104   -1.9473 C   0  0  0  0  0  0  0  0  0  0  0  0
    8.4448   -0.3272   -2.0659 C   0  0  0  0  0  0  0  0  0  0  0  0
    7.3061    0.0603   -2.2742 O   0  0  0  0  0  0  0  0  0  0  0  0
    9.7728    0.8923   -1.9923 S   0  0  0  0  0  0  0  0  0  0  0  0
    9.3095    1.6032   -0.3711 C   0  0  0  0  0  0  0  0  0  0  0  0
    9.7761    0.7382    0.8069 C   0  0  0  0  0  0  0  0  0  0  0  0
    8.7678   -0.2568    1.1676 N   0  0  0  0  0  0  0  0  0  0  0  0
    7.5453    0.0961    1.8309 C   0  0  0  0  0  0  0  0  0  0  0  0
    7.3235    1.2924    2.1632 O   0  0  0  0  0  0  0  0  0  0  0  0
    6.4997   -0.9463    2.0964 C   0  0  0  0  0  0  0  0  0  0  0  0
    5.5797   -1.1305    0.8852 C   0  0  0  0  0  0  0  0  0  0  0  0
    4.9114    0.1213    0.5319 N   0  0  0  0  0  0  0  0  0  0  0  0
    3.8370    0.6711    1.3084 C   0  0  0  0  0  0  0  0  0  0  0  0
    3.4002    0.0433    2.3118 O   0  0  0  0  0  0  0  0  0  0  0  0
    3.2041    1.9881    0.9002 C   0  0  2  0  0  0  0  0  0  0  0  0
    2.9635    2.8098    2.0198 O   0  0  0  0  0  0  0  0  0  0  0  0
    1.9305    1.8256   -0.0045 C   0  0  0  0  0  0  0  0  0  0  0  0
    1.3697    3.2236   -0.3543 C   0  0  0  0  0  0  0  0  0  0  0  0
    2.3300    1.1358   -1.3310 C   0  0  0  0  0  0  0  0  0  0  0  0
    0.8137    0.9761    0.6634 C   0  0  0  0  0  0  0  0  0  0  0  0
    0.3204    1.6131    1.8198 O   0  0  0  0  0  0  0  0  0  0  0  0
   -0.8657    0.6104    2.5234 P   0  0  0  0  0  5  0  0  0  0  0  0
   -0.1525   -0.8538    2.9851 O   0  0  0  0  0  0  0  0  0  0  0  0
   -1.4155    1.2838    3.7617 O   0  0  0  0  0  0  0  0  0  0  0  0
   -2.1146    0.2819    1.4122 O   0  0  0  0  0  0  0  0  0  0  0  0
   -2.9675    1.7326    1.1293 P   0  0  0  0  0  5  0  0  0  0  0  0
   -1.8954    2.9841    0.7402 O   0  0  0  0  0  0  0  0  0  0  0  0
   -3.7435    2.1156    2.3701 O   0  0  0  0  0  0  0  0  0  0  0  0
   -4.0733    1.5656   -0.1667 O   0  0  0  0  0  0  0  0  0  0  0  0
   -4.3986    0.2070   -0.3715 C   0  0  0  0  0  0  0  0  0  0  0  0
   -5.4084   -0.3091    0.6725 C   0  0  1  0  0  0  0  0  0  0  0  0
   -6.5346    0.5445    0.6933 O   0  0  0  0  0  0  0  0  0  0  0  0
   -7.6667   -0.2236    0.3543 C   0  0  2  0  0  0  0  0  0  0  0  0
   -7.2009   -1.5167   -0.2914 C   0  0  2  0  0  0  0  0  0  0  0  0
   -8.1033   -2.5618   -0.0357 O   0  0  0  0  0  0  0  0  0  0  0  0
   -5.8576   -1.7432    0.3563 C   0  0  2  0  0  0  0  0  0  0  0  0
   -6.0240   -2.4740    1.5587 O   0  0  0  0  0  0  0  0  0  0  0  0
   -4.6167   -3.3901    1.8739 P   0  0  0  0  0  5  0  0  0  0  0  0
   -4.4062   -4.5572    0.6661 O   0  0  0  0  0  0  0  0  0  0  0  0
   -4.7864   -4.1635    3.3686 O   0  0  0  0  0  0  0  0  0  0  0  0
   -3.4013   -2.4918    1.9209 O   0  0  0  0  0  0  0  0  0  0  0  0
   -8.5295    0.5282   -0.5578 N   0  0  0  0  0  0  0  0  0  0  0  0
   -8.1578    1.3743   -1.5544 C   0  0  0  0  0  0  0  0  0  0  0  0
   -9.2067    1.8337   -2.2919 N   0  0  0  0  0  0  0  0  0  0  0  0
  -10.2619    1.2254   -1.7176 C   0  0  0  0  0  0  0  0  0  0  0  0
   -9.8581    0.4421   -0.6917 C   0  0  0  0  0  0  0  0  0  0  0  0
  -10.7175   -0.3107    0.0369 N   0  0  0  0  0  0  0  0  0  0  0  0
  -12.0455   -0.2572   -0.2843 C   0  0  0  0  0  0  0  0  0  0  0  0
  -12.4806    0.5332   -1.3183 N   0  0  0  0  0  0  0  0  0  0  0  0
  -11.6092    1.2858   -2.0551 C   0  0  0  0  0  0  0  0  0  0  0  0
  -12.0796    2.0949   -3.1331 N   0  0  0  0  0  0  0  0  0  0  0  0
   10.3976   -3.4571   -3.6352 H   0  0  0  0  0  0  0  0  0  0  0  0
   10.7556   -1.7112   -3.9506 H   0  0  0  0  0  0  0  0  0  0  0  0
   11.9356   -2.7253   -3.0338 H   0  0  0  0  0  0  0  0  0  0  0  0
    8.2128   -2.3155   -2.8102 H   0  0  0  0  0  0  0  0  0  0  0  0
    8.2157   -2.2036   -1.0294 H   0  0  0  0  0  0  0  0  0  0  0  0
    9.8155    2.5889   -0.2984 H   0  0  0  0  0  0  0  0  0  0  0  0
    8.2166    1.7972   -0.3297 H   0  0  0  0  0  0  0  0  0  0  0  0
    9.9762    1.3864    1.6877 H   0  0  0  0  0  0  0  0  0  0  0  0
   10.7319    0.2319    0.5525 H   0  0  0  0  0  0  0  0  0  0  0  0
    8.9893   -1.2667    1.0233 H   0  0  0  0  0  0  0  0  0  0  0  0
    6.9936   -1.9142    2.3279 H   0  0  0  0  0  0  0  0  0  0  0  0
    5.9017   -0.6586    2.9875 H   0  0  0  0  0  0  0  0  0  0  0  0
    4.8210   -1.9126    1.1034 H   0  0  0  0  0  0  0  0  0  0  0  0
    6.1793   -1.4824    0.0196 H   0  0  0  0  0  0  0  0  0  0  0  0
    5.2063    0.6070   -0.3450 H   0  0  0  0  0  0  0  0  0  0  0  0
    3.9649    2.5298    0.2961 H   0  0  0  0  0  0  0  0  0  0  0  0
    2.4732    2.2868    2.7034 H   0  0  0  0  0  0  0  0  0  0  0  0
    1.0516    3.7696    0.5591 H   0  0  0  0  0  0  0  0  0  0  0  0
    0.4872    3.1379   -1.0250 H   0  0  0  0  0  0  0  0  0  0  0  0
    2.1398    3.8363   -0.8710 H   0  0  0  0  0  0  0  0  0  0  0  0
    2.6754    0.0956   -1.1512 H   0  0  0  0  0  0  0  0  0  0  0  0
    1.4651    1.0870   -2.0277 H   0  0  0  0  0  0  0  0  0  0  0  0
    3.1470    1.6940   -1.8373 H   0  0  0  0  0  0  0  0  0  0  0  0
    1.2164   -0.0329    0.9044 H   0  0  0  0  0  0  0  0  0  0  0  0
   -0.0128    0.8434   -0.0728 H   0  0  0  0  0  0  0  0  0  0  0  0
   -0.9078   -1.4177    3.2891 H   0  0  0  0  0  0  0  0  0  0  0  0
   -2.4754    3.7580    0.5277 H   0  0  0  0  0  0  0  0  0  0  0  0
   -3.4970   -0.4417   -0.4258 H   0  0  0  0  0  0  0  0  0  0  0  0
   -4.8719    0.1329   -1.3740 H   0  0  0  0  0  0  0  0  0  0  0  0
   -4.9321   -0.2842    1.6755 H   0  0  0  0  0  0  0  0  0  0  0  0
   -8.2234   -0.4454    1.2932 H   0  0  0  0  0  0  0  0  0  0  0  0
   -7.0722   -1.3721   -1.3909 H   0  0  0  0  0  0  0  0  0  0  0  0
   -7.8072   -3.3288   -0.5921 H   0  0  0  0  0  0  0  0  0  0  0  0
   -5.1962   -2.2557   -0.3843 H   0  0  0  0  0  0  0  0  0  0  0  0
   -5.2785   -5.0231    0.6120 H   0  0  0  0  0  0  0  0  0  0  0  0
   -5.6200   -4.6917    3.2851 H   0  0  0  0  0  0  0  0  0  0  0  0
   -7.1299    1.6464   -1.7569 H   0  0  0  0  0  0  0  0  0  0  0  0
  -12.7578   -0.8436    0.2793 H   0  0  0  0  0  0  0  0  0  0  0  0
  -13.0971    2.1188   -3.3656 H   0  0  0  0  0  0  0  0  0  0  0  0
  -11.4192    2.6711   -3.7010 H   0  0  0  0  0  0  0  0  0  0  0  0
  1  2  1  0
  2  3  2  0
  2  4  1  0
  4  5  1  0
  5  6  2  0
  5  7  1  0
  7  8  1  0
  8  9  1  0
  9 10  1  0
 10 11  1  0
 11 12  2  0
 11 13  1  0
 13 14  1  0
 14 15  1  0
 15 16  1  0
 16 17  2  0
 16 18  1  0
 18 19  1  0
 18 20  1  0
 20 21  1  0
 20 22  1  0
 20 23  1  0
 23 24  1  0
 24 25  1  0
 25 26  1  0
 25 27  2  0
 25 28  1  0
 28 29  1  0
 29 30  1  0
 29 31  2  0
 29 32  1  0
 32 33  1  0
 33 34  1  0
 34 35  1  0
 35 36  1  0
 36 37  1  0
 37 38  1  0
 37 39  1  0
 39 40  1  0
 40 41  1  0
 41 42  1  0
 41 43  1  0
 41 44  2  0
 36 45  1  0
 45 46  1  0
 46 47  2  0
 47 48  1  0
 48 49  2  0
 49 50  1  0
 50 51  2  0
 51 52  1  0
 52 53  2  0
 53 54  1  0
 39 34  1  0
 49 45  1  0
 53 48  1  0
  1 55  1  0
  1 56  1  0
  1 57  1  0
  4 58  1  0
  4 59  1  0
  8 60  1  0
  8 61  1  0
  9 62  1  0
  9 63  1  0
 10 64  1  0
 13 65  1  0
 13 66  1  0
 14 67  1  0
 14 68  1  0
 15 69  1  0
 18 70  1  6
 19 71  1  0
 21 72  1  0
 21 73  1  0
 21 74  1  0
 22 75  1  0
 22 76  1  0
 22 77  1  0
 23 78  1  0
 23 79  1  0
 26 80  1  0
 30 81  1  0
 33 82  1  0
 33 83  1  0
 34 84  1  1
 36 85  1  1
 37 86  1  6
 38 87  1  0
 39 88  1  6
 42 89  1  0
 43 90  1  0
 46 91  1  0
 51 92  1  0
 54 93  1  0
 54 94  1  0
M  END
$$$$
