
     RDKit          3D

 98100  0  0  0  0  0  0  0  0999 V2000
   -6.5441    0.8951   -2.4423 C   0  0  0  0  0  0  0  0  0  0  0  0
   -7.1885    1.4212   -1.1654 C   0  0  0  0  0  0  0  0  0  0  0  0
   -6.1355    1.7007   -0.1547 N   0  0  0  0  0  0  0  0  0  0  0  0
   -6.0623    3.1390    0.1876 C   0  0  0  0  0  0  0  0  0  0  0  0
   -5.4413    3.9442   -0.9531 C   0  0  0  0  0  0  0  0  0  0  0  0
   -6.3078    0.8802    1.0664 C   0  0  0  0  0  0  0  0  0  0  0  0
   -5.8918   -0.5800    0.8329 C   0  0  0  0  0  0  0  0  0  0  0  0
   -4.1577   -0.7657    0.4034 S   0  0  0  0  0  6  0  0  0  0  0  0
   -3.6719    0.4073   -0.4024 O   0  0  0  0  0  0  0  0  0  0  0  0
   -4.0252   -2.0135   -0.4230 O   0  0  0  0  0  0  0  0  0  0  0  0
   -3.1487   -0.9566    1.8757 C   0  0  2  0  0  0  0  0  0  0  0  0
   -3.2491    0.2377    2.8243 C   0  0  0  0  0  0  0  0  0  0  0  0
   -1.9178    0.2658    3.5598 C   0  0  0  0  0  0  0  0  0  0  0  0
   -0.9865   -0.4189    2.6826 N   0  0  0  0  0  0  0  0  0  0  0  0
   -1.6450   -1.0863    1.5643 C   0  0  1  0  0  0  0  0  0  0  0  0
   -1.2256   -2.5355    1.4706 C   0  0  0  0  0  0  0  0  0  0  0  0
   -1.3955   -3.2932    2.4630 O   0  0  0  0  0  0  0  0  0  0  0  0
   -0.7443   -3.0895    0.2770 O   0  0  0  0  0  0  0  0  0  0  0  0
    0.3957   -2.5970   -0.4383 C   0  0  2  0  0  0  0  0  0  0  0  0
    0.0459   -2.4460   -1.9493 C   0  0  0  0  0  0  0  0  0  0  0  0
   -0.5420   -3.7316   -2.5529 C   0  0  0  0  0  0  0  0  0  0  0  0
   -0.9145   -1.2725   -2.1747 C   0  0  0  0  0  0  0  0  0  0  0  0
    1.6075   -3.5415   -0.1902 C   0  0  2  0  0  0  0  0  0  0  0  0
    1.9682   -3.6194    1.2983 C   0  0  0  0  0  0  0  0  0  0  0  0
    2.8281   -3.0911   -0.9603 C   0  0  0  0  0  0  0  0  0  0  0  0
    3.5841   -3.9636   -1.6373 C   0  0  0  0  0  0  0  0  0  0  0  0
    4.7398   -3.5622   -2.4632 C   0  0  0  0  0  0  0  0  0  0  0  0
    5.1402   -4.3517   -3.3590 O   0  0  0  0  0  0  0  0  0  0  0  0
    5.3953   -2.2965   -2.3112 N   0  0  0  0  0  0  0  0  0  0  0  0
    5.8892   -1.8182   -1.0216 C   0  0  0  0  0  0  0  0  0  0  0  0
    5.5569   -0.3669   -0.8563 C   0  0  0  0  0  0  0  0  0  0  0  0
    6.0758    0.3505    0.1489 C   0  0  0  0  0  0  0  0  0  0  0  0
    5.6889    1.7571    0.4326 C   0  0  0  0  0  0  0  0  0  0  0  0
    5.7592    2.2205    1.8645 C   0  0  0  0  0  0  0  0  0  0  0  0
    5.2959    2.5881   -0.5577 C   0  0  0  0  0  0  0  0  0  0  0  0
    4.7291    3.9748   -0.3412 C   0  0  1  0  0  0  0  0  0  0  0  0
    5.0431    4.7899   -1.4406 O   0  0  0  0  0  0  0  0  0  0  0  0
    3.1989    3.9189   -0.1620 C   0  0  0  0  0  0  0  0  0  0  0  0
    2.4897    3.3253   -1.3668 C   0  0  0  0  0  0  0  0  0  0  0  0
    2.4917    3.9641   -2.4084 O   0  0  0  0  0  0  0  0  0  0  0  0
    1.7591    1.9976   -1.3613 C   0  0  0  0  0  0  0  0  0  0  0  0
    1.8098    1.2529   -0.0632 C   0  0  0  0  0  0  0  0  0  0  0  0
    0.7219    0.9926    0.6912 N   0  0  0  0  0  0  0  0  0  0  0  0
    1.2333    0.2995    1.7274 C   0  0  0  0  0  0  0  0  0  0  0  0
    2.5951    0.1756    1.5747 C   0  0  0  0  0  0  0  0  0  0  0  0
    2.9140    0.7659    0.4527 O   0  0  0  0  0  0  0  0  0  0  0  0
    0.4309   -0.2648    2.8199 C   0  0  0  0  0  0  0  0  0  0  0  0
    0.9883   -0.5908    3.9017 O   0  0  0  0  0  0  0  0  0  0  0  0
   -7.3277    0.6965   -3.2035 H   0  0  0  0  0  0  0  0  0  0  0  0
   -5.8307    1.6414   -2.8500 H   0  0  0  0  0  0  0  0  0  0  0  0
   -5.9990   -0.0499   -2.2367 H   0  0  0  0  0  0  0  0  0  0  0  0
   -7.9270    0.6663   -0.8141 H   0  0  0  0  0  0  0  0  0  0  0  0
   -7.7850    2.3259   -1.4194 H   0  0  0  0  0  0  0  0  0  0  0  0
   -5.4063    3.2971    1.0723 H   0  0  0  0  0  0  0  0  0  0  0  0
   -7.0685    3.5421    0.4414 H   0  0  0  0  0  0  0  0  0  0  0  0
   -4.4619    3.5052   -1.2393 H   0  0  0  0  0  0  0  0  0  0  0  0
   -5.2797    4.9923   -0.6234 H   0  0  0  0  0  0  0  0  0  0  0  0
   -6.1091    3.9594   -1.8388 H   0  0  0  0  0  0  0  0  0  0  0  0
   -7.3644    0.9156    1.4157 H   0  0  0  0  0  0  0  0  0  0  0  0
   -5.6932    1.2710    1.9029 H   0  0  0  0  0  0  0  0  0  0  0  0
   -6.5111   -1.0311    0.0309 H   0  0  0  0  0  0  0  0  0  0  0  0
   -6.0853   -1.1608    1.7594 H   0  0  0  0  0  0  0  0  0  0  0  0
   -3.5155   -1.8517    2.4263 H   0  0  0  0  0  0  0  0  0  0  0  0
   -3.3542    1.1822    2.2465 H   0  0  0  0  0  0  0  0  0  0  0  0
   -4.1013    0.1318    3.5300 H   0  0  0  0  0  0  0  0  0  0  0  0
   -1.5934    1.3147    3.7368 H   0  0  0  0  0  0  0  0  0  0  0  0
   -1.9880   -0.2792    4.5258 H   0  0  0  0  0  0  0  0  0  0  0  0
   -1.3987   -0.5508    0.6258 H   0  0  0  0  0  0  0  0  0  0  0  0
    0.6759   -1.5952   -0.0601 H   0  0  0  0  0  0  0  0  0  0  0  0
    0.9676   -2.1988   -2.5186 H   0  0  0  0  0  0  0  0  0  0  0  0
   -1.4693   -4.0334   -2.0211 H   0  0  0  0  0  0  0  0  0  0  0  0
    0.1929   -4.5607   -2.5036 H   0  0  0  0  0  0  0  0  0  0  0  0
   -0.7881   -3.5715   -3.6244 H   0  0  0  0  0  0  0  0  0  0  0  0
   -0.4813   -0.3336   -1.7696 H   0  0  0  0  0  0  0  0  0  0  0  0
   -1.8864   -1.4645   -1.6820 H   0  0  0  0  0  0  0  0  0  0  0  0
   -1.0922   -1.1244   -3.2612 H   0  0  0  0  0  0  0  0  0  0  0  0
    1.3182   -4.5686   -0.5030 H   0  0  0  0  0  0  0  0  0  0  0  0
    2.8696   -4.2536    1.4419 H   0  0  0  0  0  0  0  0  0  0  0  0
    1.1416   -4.0820    1.8753 H   0  0  0  0  0  0  0  0  0  0  0  0
    2.1758   -2.6108    1.7090 H   0  0  0  0  0  0  0  0  0  0  0  0
    3.0808   -2.0379   -0.9506 H   0  0  0  0  0  0  0  0  0  0  0  0
    3.2974   -5.0085   -1.6567 H   0  0  0  0  0  0  0  0  0  0  0  0
    5.8160   -1.8683   -3.1671 H   0  0  0  0  0  0  0  0  0  0  0  0
    6.9915   -1.9568   -0.9903 H   0  0  0  0  0  0  0  0  0  0  0  0
    5.4438   -2.3941   -0.1823 H   0  0  0  0  0  0  0  0  0  0  0  0
    4.8308    0.0702   -1.5303 H   0  0  0  0  0  0  0  0  0  0  0  0
    6.7372   -0.1455    0.8500 H   0  0  0  0  0  0  0  0  0  0  0  0
    6.5259    3.0170    1.9666 H   0  0  0  0  0  0  0  0  0  0  0  0
    4.7727    2.6060    2.1954 H   0  0  0  0  0  0  0  0  0  0  0  0
    6.0354    1.3871    2.5448 H   0  0  0  0  0  0  0  0  0  0  0  0
    5.3199    2.2449   -1.5842 H   0  0  0  0  0  0  0  0  0  0  0  0
    5.1621    4.4398    0.5730 H   0  0  0  0  0  0  0  0  0  0  0  0
    6.0147    4.9879   -1.3832 H   0  0  0  0  0  0  0  0  0  0  0  0
    2.8204    4.9531   -0.0107 H   0  0  0  0  0  0  0  0  0  0  0  0
    2.9570    3.3723    0.7706 H   0  0  0  0  0  0  0  0  0  0  0  0
    0.6969    2.1768   -1.6343 H   0  0  0  0  0  0  0  0  0  0  0  0
    2.2010    1.3471   -2.1457 H   0  0  0  0  0  0  0  0  0  0  0  0
    3.2915   -0.3233    2.2356 H   0  0  0  0  0  0  0  0  0  0  0  0
  1  2  1  0
  2  3  1  0
  3  4  1  0
  4  5  1  0
  3  6  1  0
  6  7  1  0
  7  8  1  0
  8  9  2  0
  8 10  2  0
  8 11  1  0
 11 12  1  0
 12 13  1  0
 13 14  1  0
 14 15  1  0
 15 16  1  0
 16 17  2  0
 16 18  1  0
 18 19  1  0
 19 20  1  0
 20 21  1  0
 20 22  1  0
 19 23  1  0
 23 24  1  0
 23 25  1  0
 25 26  2  0
 26 27  1  0
 27 28  2  0
 27 29  1  0
 29 30  1  0
 30 31  1  0
 31 32  2  0
 32 33  1  0
 33 34  1  0
 33 35  2  0
 35 36  1  0
 36 37  1  0
 36 38  1  0
 38 39  1  0
 39 40  2  0
 39 41  1  0
 41 42  1  0
 42 43  2  0
 43 44  1  0
 44 45  2  0
 45 46  1  0
 44 47  1  0
 47 48  2  0
 15 11  1  0
 46 42  1  0
 47 14  1  0
  1 49  1  0
  1 50  1  0
  1 51  1  0
  2 52  1  0
  2 53  1  0
  4 54  1  0
  4 55  1  0
  5 56  1  0
  5 57  1  0
  5 58  1  0
  6 59  1  0
  6 60  1  0
  7 61  1  0
  7 62  1  0
 11 63  1  1
 12 64  1  0
 12 65  1  0
 13 66  1  0
 13 67  1  0
 15 68  1  6
 19 69  1  1
 20 70  1  0
 21 71  1  0
 21 72  1  0
 21 73  1  0
 22 74  1  0
 22 75  1  0
 22 76  1  0
 23 77  1  6
 24 78  1  0
 24 79  1  0
 24 80  1  0
 25 81  1  0
 26 82  1  0
 29 83  1  0
 30 84  1  0
 30 85  1  0
 31 86  1  0
 32 87  1  0
 34 88  1  0
 34 89  1  0
 34 90  1  0
 35 91  1  0
 36 92  1  1
 37 93  1  0
 38 94  1  0
 38 95  1  0
 41 96  1  0
 41 97  1  0
 45 98  1  0
M  END
$$$$
