
     RDKit          3D

 33 34  0  0  0  0  0  0  0  0999 V2000
    0.3862   -3.1386    2.1390 O   0  0  0  0  0  0  0  0  0  0  0  0
   -0.3583   -2.6095    1.0771 C   0  0  0  0  0  0  0  0  0  0  0  0
   -0.7614   -1.1643    1.3964 C   0  0  1  0  0  0  0  0  0  0  0  0
    0.4024   -0.3999    1.6409 O   0  0  0  0  0  0  0  0  0  0  0  0
    0.4155    0.6720    0.7240 C   0  0  2  0  0  0  0  0  0  0  0  0
   -0.5386    0.3533   -0.4111 C   0  0  0  0  0  0  0  0  0  0  0  0
   -1.5617   -0.5300    0.2501 C   0  0  2  0  0  0  0  0  0  0  0  0
   -2.6012    0.2611    0.7975 O   0  0  0  0  0  0  0  0  0  0  0  0
   -3.9303    0.2962   -0.2750 P   0  0  0  0  0  5  0  0  0  0  0  0
   -5.0177    1.4880    0.2344 O   0  0  0  0  0  0  0  0  0  0  0  0
   -3.4141    0.6548   -1.8473 O   0  0  0  0  0  0  0  0  0  0  0  0
   -4.6249   -1.0474   -0.2660 O   0  0  0  0  0  0  0  0  0  0  0  0
    1.7801    0.9146    0.2119 N   0  0  0  0  0  0  0  0  0  0  0  0
    2.6188   -0.1426   -0.0199 C   0  0  0  0  0  0  0  0  0  0  0  0
    3.8968    0.0628   -0.5317 C   0  0  0  0  0  0  0  0  0  0  0  0
    4.2987    1.3625   -0.8189 C   0  0  0  0  0  0  0  0  0  0  0  0
    5.4504    1.5783   -1.2820 O   0  0  0  0  0  0  0  0  0  0  0  0
    3.4446    2.3967   -0.6042 N   0  0  0  0  0  0  0  0  0  0  0  0
    2.1951    2.1857   -0.1043 C   0  0  0  0  0  0  0  0  0  0  0  0
    1.4252    3.1722    0.0595 O   0  0  0  0  0  0  0  0  0  0  0  0
    0.6268   -4.0637    1.8722 H   0  0  0  0  0  0  0  0  0  0  0  0
    0.2489   -2.6334    0.1442 H   0  0  0  0  0  0  0  0  0  0  0  0
   -1.2743   -3.2241    0.9260 H   0  0  0  0  0  0  0  0  0  0  0  0
   -1.3768   -1.1802    2.3238 H   0  0  0  0  0  0  0  0  0  0  0  0
    0.0405    1.5679    1.2692 H   0  0  0  0  0  0  0  0  0  0  0  0
   -0.9808    1.2780   -0.8413 H   0  0  0  0  0  0  0  0  0  0  0  0
   -0.0193   -0.2163   -1.2140 H   0  0  0  0  0  0  0  0  0  0  0  0
   -1.9247   -1.3143   -0.4588 H   0  0  0  0  0  0  0  0  0  0  0  0
   -5.2108    1.2659    1.1801 H   0  0  0  0  0  0  0  0  0  0  0  0
   -4.2474    0.7181   -2.3786 H   0  0  0  0  0  0  0  0  0  0  0  0
    2.3037   -1.1577    0.1867 H   0  0  0  0  0  0  0  0  0  0  0  0
    4.5588   -0.7767   -0.7059 H   0  0  0  0  0  0  0  0  0  0  0  0
    3.7501    3.3706   -0.8325 H   0  0  0  0  0  0  0  0  0  0  0  0
  1  2  1  0
  2  3  1  0
  3  4  1  0
  4  5  1  0
  5  6  1  0
  6  7  1  0
  7  8  1  0
  8  9  1  0
  9 10  1  0
  9 11  1  0
  9 12  2  0
  5 13  1  0
 13 14  1  0
 14 15  2  0
 15 16  1  0
 16 17  2  0
 16 18  1  0
 18 19  1  0
 19 20  2  0
  7  3  1  0
 19 13  1  0
  1 21  1  0
  2 22  1  0
  2 23  1  0
  3 24  1  1
  5 25  1  1
  6 26  1  0
  6 27  1  0
  7 28  1  6
 10 29  1  0
 11 30  1  0
 14 31  1  0
 15 32  1  0
 18 33  1  0
M  END
$$$$
