
     RDKit          3D

 46 49  0  0  0  0  0  0  0  0999 V2000
   -0.7586   -3.2904   -1.6972 C   0  0  0  0  0  0  0  0  0  0  0  0
   -1.0772   -2.0158   -0.9176 C   0  0  0  0  0  0  0  0  0  0  0  0
    0.0417   -0.9580   -1.0560 C   0  0  2  0  0  0  0  0  0  0  0  0
    1.3551   -1.3758   -0.3892 C   0  0  0  0  0  0  0  0  0  0  0  0
    1.9796   -0.1342    0.0356 N   0  0  0  0  0  0  0  0  0  0  0  0
    1.1000    1.0145   -0.1123 C   0  0  0  0  0  0  0  0  0  0  0  0
   -0.2783    0.4337   -0.4618 C   0  0  2  0  0  0  0  0  0  0  0  0
   -1.1826    0.3657    0.7578 C   0  0  0  0  0  0  0  0  0  0  0  0
   -0.7833    0.0650    2.0568 C   0  0  0  0  0  0  0  0  0  0  0  0
   -1.8508    0.0566    2.8870 N   0  0  0  0  0  0  0  0  0  0  0  0
   -2.8859    0.3345    2.0717 C   0  0  0  0  0  0  0  0  0  0  0  0
   -4.2358    0.4239    2.4666 C   0  0  0  0  0  0  0  0  0  0  0  0
   -5.1872    0.6764    1.5136 N   0  0  0  0  0  0  0  0  0  0  0  0
   -4.7956    0.8358    0.2191 C   0  0  0  0  0  0  0  0  0  0  0  0
   -3.4836    0.7473   -0.1586 C   0  0  0  0  0  0  0  0  0  0  0  0
   -3.4434    0.8711   -1.5350 C   0  0  0  0  0  0  0  0  0  0  0  0
   -4.7752    1.0483   -1.9123 C   0  0  0  0  0  0  0  0  0  0  0  0
   -5.5979    1.0264   -0.8367 N   0  0  0  0  0  0  0  0  0  0  0  0
   -2.5257    0.5079    0.7801 N   0  0  0  0  0  0  0  0  0  0  0  0
    3.3279   -0.0681    0.5308 C   0  0  0  0  0  0  0  0  0  0  0  0
    3.9733   -1.1365    0.7131 O   0  0  0  0  0  0  0  0  0  0  0  0
    3.9456    1.1973    0.8197 N   0  0  0  0  0  0  0  0  0  0  0  0
    5.3250    1.3111    1.2924 C   0  0  0  0  0  0  0  0  0  0  0  0
    6.3070    1.2738    0.1218 C   0  0  0  0  0  0  0  0  0  0  0  0
    6.2384    0.0552   -0.5281 F   0  0  0  0  0  0  0  0  0  0  0  0
    7.5932    1.4559    0.5955 F   0  0  0  0  0  0  0  0  0  0  0  0
    6.0109    2.2851   -0.7745 F   0  0  0  0  0  0  0  0  0  0  0  0
   -1.6060   -4.0020   -1.6058 H   0  0  0  0  0  0  0  0  0  0  0  0
   -0.6060   -3.0582   -2.7727 H   0  0  0  0  0  0  0  0  0  0  0  0
    0.1537   -3.7773   -1.2931 H   0  0  0  0  0  0  0  0  0  0  0  0
   -2.0259   -1.5989   -1.3151 H   0  0  0  0  0  0  0  0  0  0  0  0
   -1.2369   -2.2802    0.1503 H   0  0  0  0  0  0  0  0  0  0  0  0
    0.2430   -0.8060   -2.1416 H   0  0  0  0  0  0  0  0  0  0  0  0
    2.0062   -1.9093   -1.1157 H   0  0  0  0  0  0  0  0  0  0  0  0
    1.1774   -2.0180    0.5010 H   0  0  0  0  0  0  0  0  0  0  0  0
    1.4723    1.6503   -0.9453 H   0  0  0  0  0  0  0  0  0  0  0  0
    1.0773    1.6227    0.8181 H   0  0  0  0  0  0  0  0  0  0  0  0
   -0.7294    1.0971   -1.2212 H   0  0  0  0  0  0  0  0  0  0  0  0
    0.2280   -0.1401    2.3819 H   0  0  0  0  0  0  0  0  0  0  0  0
   -4.5226    0.2851    3.5005 H   0  0  0  0  0  0  0  0  0  0  0  0
   -2.6055    0.7982   -2.2087 H   0  0  0  0  0  0  0  0  0  0  0  0
   -5.1225    1.1630   -2.9307 H   0  0  0  0  0  0  0  0  0  0  0  0
   -6.6386    1.1103   -0.8358 H   0  0  0  0  0  0  0  0  0  0  0  0
    3.3995    2.0798    0.7091 H   0  0  0  0  0  0  0  0  0  0  0  0
    5.4456    2.2783    1.8270 H   0  0  0  0  0  0  0  0  0  0  0  0
    5.5540    0.4985    2.0155 H   0  0  0  0  0  0  0  0  0  0  0  0
  1  2  1  0
  2  3  1  0
  3  4  1  0
  4  5  1  0
  5  6  1  0
  6  7  1  0
  7  8  1  0
  8  9  2  0
  9 10  1  0
 10 11  2  0
 11 12  1  0
 12 13  2  0
 13 14  1  0
 14 15  2  0
 15 16  1  0
 16 17  2  0
 17 18  1  0
 15 19  1  0
  5 20  1  0
 20 21  2  0
 20 22  1  0
 22 23  1  0
 23 24  1  0
 24 25  1  0
 24 26  1  0
 24 27  1  0
  7  3  1  0
 19  8  1  0
 19 11  1  0
 18 14  1  0
  1 28  1  0
  1 29  1  0
  1 30  1  0
  2 31  1  0
  2 32  1  0
  3 33  1  6
  4 34  1  0
  4 35  1  0
  6 36  1  0
  6 37  1  0
  7 38  1  6
  9 39  1  0
 12 40  1  0
 16 41  1  0
 17 42  1  0
 18 43  1  0
 22 44  1  0
 23 45  1  0
 23 46  1  0
M  END
$$$$
