
     RDKit          3D

 47 48  0  0  0  0  0  0  0  0999 V2000
   -0.9709   -1.7526   -1.0480 C   0  0  2  0  0  0  0  0  0  0  0  0
   -0.2979   -1.1993   -2.3067 C   0  0  0  0  0  0  0  0  0  0  0  0
   -1.4317   -0.7088   -3.2028 C   0  0  0  0  0  0  0  0  0  0  0  0
   -2.6328   -0.5022   -2.2892 C   0  0  0  0  0  0  0  0  0  0  0  0
   -2.3302   -1.2284   -1.0666 N   0  0  0  0  0  0  0  0  0  0  0  0
   -3.2956   -1.4931   -0.0302 C   0  0  0  0  0  0  0  0  0  0  0  0
   -3.0546   -2.3759    0.8373 O   0  0  0  0  0  0  0  0  0  0  0  0
   -4.5563   -0.6842    0.0915 C   0  0  0  0  0  0  0  0  0  0  0  0
   -4.2711    0.6398    0.8069 C   0  0  0  0  0  0  0  0  0  0  0  0
   -5.5393    1.4765    0.9442 C   0  0  0  0  0  0  0  0  0  0  0  0
   -0.2381   -1.3237    0.1968 C   0  0  0  0  0  0  0  0  0  0  0  0
    0.4504   -2.1691    0.8299 O   0  0  0  0  0  0  0  0  0  0  0  0
   -0.2962    0.0405    0.6410 N   0  0  0  0  0  0  0  0  0  0  0  0
    0.4749    0.5262    1.7819 C   0  0  0  0  0  0  0  0  0  0  0  0
    1.9310    0.6251    1.4176 C   0  0  0  0  0  0  0  0  0  0  0  0
    2.8668   -0.2672    1.9613 C   0  0  0  0  0  0  0  0  0  0  0  0
    4.2141   -0.1855    1.5978 C   0  0  0  0  0  0  0  0  0  0  0  0
    4.6479    0.7851    0.6785 C   0  0  0  0  0  0  0  0  0  0  0  0
    3.7057    1.6761    0.1336 C   0  0  0  0  0  0  0  0  0  0  0  0
    2.3591    1.5944    0.4991 C   0  0  0  0  0  0  0  0  0  0  0  0
    6.0807    0.8667    0.2981 C   0  0  0  0  0  0  0  0  0  0  0  0
    7.0986    0.6081    1.2685 N   0  0  0  0  0  0  0  0  0  0  0  0
    6.4329    1.1624   -0.9147 N   0  0  0  0  0  0  0  0  0  0  0  0
   -1.0130   -2.8635   -1.1037 H   0  0  0  0  0  0  0  0  0  0  0  0
    0.3693   -0.3397   -2.0700 H   0  0  0  0  0  0  0  0  0  0  0  0
    0.3030   -1.9836   -2.8165 H   0  0  0  0  0  0  0  0  0  0  0  0
   -1.6685   -1.4891   -3.9595 H   0  0  0  0  0  0  0  0  0  0  0  0
   -1.1561    0.2325   -3.7262 H   0  0  0  0  0  0  0  0  0  0  0  0
   -2.7679    0.5767   -2.0610 H   0  0  0  0  0  0  0  0  0  0  0  0
   -3.5496   -0.9089   -2.7683 H   0  0  0  0  0  0  0  0  0  0  0  0
   -4.9880   -0.4906   -0.9126 H   0  0  0  0  0  0  0  0  0  0  0  0
   -5.3087   -1.2637    0.6704 H   0  0  0  0  0  0  0  0  0  0  0  0
   -3.8614    0.4366    1.8207 H   0  0  0  0  0  0  0  0  0  0  0  0
   -3.5168    1.2236    0.2362 H   0  0  0  0  0  0  0  0  0  0  0  0
   -5.3024    2.4272    1.4667 H   0  0  0  0  0  0  0  0  0  0  0  0
   -5.9534    1.7159   -0.0585 H   0  0  0  0  0  0  0  0  0  0  0  0
   -6.3024    0.9267    1.5352 H   0  0  0  0  0  0  0  0  0  0  0  0
   -0.8900    0.7232    0.1184 H   0  0  0  0  0  0  0  0  0  0  0  0
    0.3149   -0.1420    2.6561 H   0  0  0  0  0  0  0  0  0  0  0  0
    0.1075    1.5349    2.0706 H   0  0  0  0  0  0  0  0  0  0  0  0
    2.5540   -1.0311    2.6623 H   0  0  0  0  0  0  0  0  0  0  0  0
    4.9122   -0.8971    2.0202 H   0  0  0  0  0  0  0  0  0  0  0  0
    4.0107    2.4483   -0.5610 H   0  0  0  0  0  0  0  0  0  0  0  0
    1.6482    2.2877    0.0663 H   0  0  0  0  0  0  0  0  0  0  0  0
    8.1059    0.6239    0.9928 H   0  0  0  0  0  0  0  0  0  0  0  0
    6.8618    0.4535    2.2734 H   0  0  0  0  0  0  0  0  0  0  0  0
    5.7434    1.3421   -1.6781 H   0  0  0  0  0  0  0  0  0  0  0  0
  1  2  1  0
  2  3  1  0
  3  4  1  0
  4  5  1  0
  5  6  1  0
  6  7  2  0
  6  8  1  0
  8  9  1  0
  9 10  1  0
  1 11  1  0
 11 12  2  0
 11 13  1  0
 13 14  1  0
 14 15  1  0
 15 16  2  0
 16 17  1  0
 17 18  2  0
 18 19  1  0
 19 20  2  0
 18 21  1  0
 21 22  1  0
 21 23  2  3
  5  1  1  0
 20 15  1  0
  1 24  1  6
  2 25  1  0
  2 26  1  0
  3 27  1  0
  3 28  1  0
  4 29  1  0
  4 30  1  0
  8 31  1  0
  8 32  1  0
  9 33  1  0
  9 34  1  0
 10 35  1  0
 10 36  1  0
 10 37  1  0
 13 38  1  0
 14 39  1  0
 14 40  1  0
 16 41  1  0
 17 42  1  0
 19 43  1  0
 20 44  1  0
 22 45  1  0
 22 46  1  0
 23 47  1  0
M  END
$$$$
