
     RDKit          3D

 79 83  0  0  0  0  0  0  0  0999 V2000
   -0.4271    1.6375    3.0018 C   0  0  0  0  0  0  0  0  0  0  0  0
   -1.0619    1.1913    1.8079 O   0  0  0  0  0  0  0  0  0  0  0  0
   -0.3843    0.7170    0.6725 C   0  0  0  0  0  0  0  0  0  0  0  0
    1.0216    0.6315    0.6270 C   0  0  0  0  0  0  0  0  0  0  0  0
    1.6773    0.1499   -0.5185 C   0  0  0  0  0  0  0  0  0  0  0  0
    0.9110   -0.2350   -1.6296 C   0  0  0  0  0  0  0  0  0  0  0  0
   -0.4810   -0.1518   -1.5936 C   0  0  0  0  0  0  0  0  0  0  0  0
   -1.1397    0.3070   -0.4415 C   0  0  0  0  0  0  0  0  0  0  0  0
   -2.5735    0.4190   -0.4124 N   0  0  0  0  0  0  0  0  0  0  0  0
   -3.4639   -0.5486   -0.9857 C   0  0  0  0  0  0  0  0  0  0  0  0
   -3.0078   -1.7655   -1.3859 N   0  0  0  0  0  0  0  0  0  0  0  0
   -3.8512   -2.6945   -1.9023 C   0  0  0  0  0  0  0  0  0  0  0  0
   -5.2132   -2.4146   -2.0231 C   0  0  0  0  0  0  0  0  0  0  0  0
   -6.2817   -3.6356   -2.7024 Cl  0  0  0  0  0  0  0  0  0  0  0  0
   -5.6772   -1.1564   -1.6007 C   0  0  0  0  0  0  0  0  0  0  0  0
   -7.0737   -0.8174   -1.6687 N   0  0  0  0  0  0  0  0  0  0  0  0
   -7.5602    0.5128   -1.4256 C   0  0  0  0  0  0  0  0  0  0  0  0
   -6.9662    1.5982   -2.0933 C   0  0  0  0  0  0  0  0  0  0  0  0
   -7.4360    2.8967   -1.8956 C   0  0  0  0  0  0  0  0  0  0  0  0
   -8.5078    3.1269   -1.0350 C   0  0  0  0  0  0  0  0  0  0  0  0
   -9.1136    2.0599   -0.3688 C   0  0  0  0  0  0  0  0  0  0  0  0
   -8.6533    0.7448   -0.5554 C   0  0  0  0  0  0  0  0  0  0  0  0
   -9.4301   -0.6073    0.3620 P   0  0  0  0  0  5  0  0  0  0  0  0
   -8.1942   -1.4239    1.4134 C   0  0  0  0  0  0  0  0  0  0  0  0
  -10.7722   -0.0259    1.4408 C   0  0  0  0  0  0  0  0  0  0  0  0
  -10.0059   -1.6131   -0.6087 O   0  0  0  0  0  0  0  0  0  0  0  0
   -4.7885   -0.2634   -1.0844 N   0  0  0  0  0  0  0  0  0  0  0  0
    3.1182    0.0715   -0.5589 N   0  0  0  0  0  0  0  0  0  0  0  0
    3.9162    1.2119   -0.0883 C   0  0  0  0  0  0  0  0  0  0  0  0
    5.3898    1.0784   -0.4907 C   0  0  0  0  0  0  0  0  0  0  0  0
    5.9677   -0.2861   -0.0328 C   0  0  0  0  0  0  0  0  0  0  0  0
    5.0584   -1.4627   -0.5121 C   0  0  0  0  0  0  0  0  0  0  0  0
    3.7805   -1.0398   -1.2514 C   0  0  0  0  0  0  0  0  0  0  0  0
    7.3755   -0.5233   -0.4849 N   0  0  0  0  0  0  0  0  0  0  0  0
    8.2835    0.6446   -0.4648 C   0  0  0  0  0  0  0  0  0  0  0  0
    8.6639    1.0494    0.9689 C   0  0  0  0  0  0  0  0  0  0  0  0
    9.2832   -0.0635    1.7143 N   0  0  0  0  0  0  0  0  0  0  0  0
   10.6810   -0.3046    1.3161 C   0  0  0  0  0  0  0  0  0  0  0  0
    8.4649   -1.2911    1.6582 C   0  0  0  0  0  0  0  0  0  0  0  0
    8.0212   -1.6553    0.2240 C   0  0  0  0  0  0  0  0  0  0  0  0
   -1.2031    1.9610    3.7253 H   0  0  0  0  0  0  0  0  0  0  0  0
    0.1582    0.8100    3.4554 H   0  0  0  0  0  0  0  0  0  0  0  0
    0.2359    2.5009    2.7821 H   0  0  0  0  0  0  0  0  0  0  0  0
    1.6084    0.9219    1.4858 H   0  0  0  0  0  0  0  0  0  0  0  0
    1.3915   -0.5776   -2.5369 H   0  0  0  0  0  0  0  0  0  0  0  0
   -1.0429   -0.4209   -2.4785 H   0  0  0  0  0  0  0  0  0  0  0  0
   -3.0003    1.2142    0.1148 H   0  0  0  0  0  0  0  0  0  0  0  0
   -3.4604   -3.6532   -2.2168 H   0  0  0  0  0  0  0  0  0  0  0  0
   -7.7736   -1.5706   -1.8419 H   0  0  0  0  0  0  0  0  0  0  0  0
   -6.1461    1.4342   -2.7809 H   0  0  0  0  0  0  0  0  0  0  0  0
   -6.9718    3.7251   -2.4150 H   0  0  0  0  0  0  0  0  0  0  0  0
   -8.8712    4.1352   -0.8833 H   0  0  0  0  0  0  0  0  0  0  0  0
   -9.9399    2.2718    0.2945 H   0  0  0  0  0  0  0  0  0  0  0  0
   -7.7338   -0.6756    2.0906 H   0  0  0  0  0  0  0  0  0  0  0  0
   -8.6873   -2.2125    2.0180 H   0  0  0  0  0  0  0  0  0  0  0  0
   -7.4062   -1.8881    0.7876 H   0  0  0  0  0  0  0  0  0  0  0  0
  -10.3707    0.6969    2.1805 H   0  0  0  0  0  0  0  0  0  0  0  0
  -11.5598    0.4606    0.8293 H   0  0  0  0  0  0  0  0  0  0  0  0
  -11.2123   -0.8903    1.9793 H   0  0  0  0  0  0  0  0  0  0  0  0
    3.8529    1.2773    1.0190 H   0  0  0  0  0  0  0  0  0  0  0  0
    3.5120    2.1533   -0.5201 H   0  0  0  0  0  0  0  0  0  0  0  0
    5.9302    1.9172   -0.0041 H   0  0  0  0  0  0  0  0  0  0  0  0
    5.4882    1.1851   -1.5934 H   0  0  0  0  0  0  0  0  0  0  0  0
    5.9321   -0.2656    1.0779 H   0  0  0  0  0  0  0  0  0  0  0  0
    4.7676   -2.0720    0.3720 H   0  0  0  0  0  0  0  0  0  0  0  0
    5.6158   -2.1364   -1.1989 H   0  0  0  0  0  0  0  0  0  0  0  0
    4.0325   -0.7260   -2.2878 H   0  0  0  0  0  0  0  0  0  0  0  0
    3.1046   -1.9210   -1.3136 H   0  0  0  0  0  0  0  0  0  0  0  0
    7.8610    1.5072   -1.0166 H   0  0  0  0  0  0  0  0  0  0  0  0
    9.2046    0.3950   -1.0330 H   0  0  0  0  0  0  0  0  0  0  0  0
    7.7575    1.3871    1.5145 H   0  0  0  0  0  0  0  0  0  0  0  0
    9.3504    1.9237    0.9348 H   0  0  0  0  0  0  0  0  0  0  0  0
   11.2723    0.6321    1.4004 H   0  0  0  0  0  0  0  0  0  0  0  0
   10.7570   -0.6867    0.2773 H   0  0  0  0  0  0  0  0  0  0  0  0
   11.1458   -1.0453    2.0012 H   0  0  0  0  0  0  0  0  0  0  0  0
    9.0246   -2.1490    2.0921 H   0  0  0  0  0  0  0  0  0  0  0  0
    7.5753   -1.1589    2.3080 H   0  0  0  0  0  0  0  0  0  0  0  0
    8.9036   -1.9930   -0.3606 H   0  0  0  0  0  0  0  0  0  0  0  0
    7.3480   -2.5361    0.2768 H   0  0  0  0  0  0  0  0  0  0  0  0
  1  2  1  0
  2  3  1  0
  3  4  2  0
  4  5  1  0
  5  6  2  0
  6  7  1  0
  7  8  2  0
  8  9  1  0
  9 10  1  0
 10 11  2  0
 11 12  1  0
 12 13  2  0
 13 14  1  0
 13 15  1  0
 15 16  1  0
 16 17  1  0
 17 18  2  0
 18 19  1  0
 19 20  2  0
 20 21  1  0
 21 22  2  0
 22 23  1  0
 23 24  1  0
 23 25  1  0
 23 26  2  0
 15 27  2  0
  5 28  1  0
 28 29  1  0
 29 30  1  0
 30 31  1  0
 31 32  1  0
 32 33  1  0
 31 34  1  0
 34 35  1  0
 35 36  1  0
 36 37  1  0
 37 38  1  0
 37 39  1  0
 39 40  1  0
  8  3  1  0
 27 10  1  0
 33 28  1  0
 40 34  1  0
 22 17  1  0
  1 41  1  0
  1 42  1  0
  1 43  1  0
  4 44  1  0
  6 45  1  0
  7 46  1  0
  9 47  1  0
 12 48  1  0
 16 49  1  0
 18 50  1  0
 19 51  1  0
 20 52  1  0
 21 53  1  0
 24 54  1  0
 24 55  1  0
 24 56  1  0
 25 57  1  0
 25 58  1  0
 25 59  1  0
 29 60  1  0
 29 61  1  0
 30 62  1  0
 30 63  1  0
 31 64  1  0
 32 65  1  0
 32 66  1  0
 33 67  1  0
 33 68  1  0
 35 69  1  0
 35 70  1  0
 36 71  1  0
 36 72  1  0
 38 73  1  0
 38 74  1  0
 38 75  1  0
 39 76  1  0
 39 77  1  0
 40 78  1  0
 40 79  1  0
M  END
$$$$
