
     RDKit          3D

 44 45  0  0  0  0  0  0  0  0999 V2000
   -6.4686    1.7660   -0.3808 S   0  0  0  0  0  0  0  0  0  0  0  0
   -4.8854    1.0949    0.2142 C   0  0  0  0  0  0  0  0  0  0  0  0
   -5.1266   -0.1178    1.1189 C   0  0  0  0  0  0  0  0  0  0  0  0
   -3.8235   -0.6745    1.7070 C   0  0  0  0  0  0  0  0  0  0  0  0
   -2.9571   -1.2953    0.6503 C   0  0  0  0  0  0  0  0  0  0  0  0
   -3.1894   -2.4765    0.2749 O   0  0  0  0  0  0  0  0  0  0  0  0
   -1.9028   -0.5344    0.0425 N   0  0  0  0  0  0  0  0  0  0  0  0
   -1.0519   -1.0834   -1.0217 C   0  0  0  0  0  0  0  0  0  0  0  0
   -0.3373    0.0489   -1.7835 C   0  0  0  0  0  0  0  0  0  0  0  0
    0.7360    0.7624   -0.9290 C   0  0  0  0  0  0  0  0  0  0  0  0
    1.0059    0.0405    0.3324 N   0  0  0  0  0  0  0  0  0  0  0  0
    2.0486    0.6863    1.1606 C   0  0  0  0  0  0  0  0  0  0  0  0
    3.4262    0.6804    0.5307 C   0  0  0  0  0  0  0  0  0  0  0  0
    4.2954   -0.4069    0.7275 C   0  0  0  0  0  0  0  0  0  0  0  0
    5.5662   -0.4092    0.1443 C   0  0  0  0  0  0  0  0  0  0  0  0
    5.9825    0.6749   -0.6327 C   0  0  0  0  0  0  0  0  0  0  0  0
    5.1301    1.7651   -0.8247 C   0  0  0  0  0  0  0  0  0  0  0  0
    3.8585    1.7716   -0.2432 C   0  0  0  0  0  0  0  0  0  0  0  0
    1.2532   -1.3916    0.0891 C   0  0  0  0  0  0  0  0  0  0  0  0
   -0.0223   -2.0791   -0.4388 C   0  0  0  0  0  0  0  0  0  0  0  0
   -6.8461    2.2240    0.8962 H   0  0  0  0  0  0  0  0  0  0  0  0
   -4.2825    0.7990   -0.6697 H   0  0  0  0  0  0  0  0  0  0  0  0
   -4.3426    1.8892    0.7701 H   0  0  0  0  0  0  0  0  0  0  0  0
   -5.6517   -0.9143    0.5471 H   0  0  0  0  0  0  0  0  0  0  0  0
   -5.7851    0.1862    1.9613 H   0  0  0  0  0  0  0  0  0  0  0  0
   -3.2680    0.1311    2.2343 H   0  0  0  0  0  0  0  0  0  0  0  0
   -4.0743   -1.4490    2.4638 H   0  0  0  0  0  0  0  0  0  0  0  0
   -1.7919    0.4653    0.3280 H   0  0  0  0  0  0  0  0  0  0  0  0
   -1.6997   -1.6210   -1.7496 H   0  0  0  0  0  0  0  0  0  0  0  0
    0.1492   -0.3882   -2.6836 H   0  0  0  0  0  0  0  0  0  0  0  0
   -1.0862    0.7870   -2.1459 H   0  0  0  0  0  0  0  0  0  0  0  0
    1.6609    0.8564   -1.5377 H   0  0  0  0  0  0  0  0  0  0  0  0
    0.3792    1.7882   -0.6900 H   0  0  0  0  0  0  0  0  0  0  0  0
    2.0930    0.1820    2.1509 H   0  0  0  0  0  0  0  0  0  0  0  0
    1.7434    1.7327    1.3820 H   0  0  0  0  0  0  0  0  0  0  0  0
    3.9903   -1.2512    1.3325 H   0  0  0  0  0  0  0  0  0  0  0  0
    6.2292   -1.2511    0.2966 H   0  0  0  0  0  0  0  0  0  0  0  0
    6.9666    0.6715   -1.0832 H   0  0  0  0  0  0  0  0  0  0  0  0
    5.4548    2.6061   -1.4235 H   0  0  0  0  0  0  0  0  0  0  0  0
    3.2095    2.6244   -0.3992 H   0  0  0  0  0  0  0  0  0  0  0  0
    1.5627   -1.8970    1.0306 H   0  0  0  0  0  0  0  0  0  0  0  0
    2.0735   -1.5191   -0.6531 H   0  0  0  0  0  0  0  0  0  0  0  0
   -0.4895   -2.6715    0.3774 H   0  0  0  0  0  0  0  0  0  0  0  0
    0.2677   -2.8033   -1.2313 H   0  0  0  0  0  0  0  0  0  0  0  0
  1  2  1  0
  2  3  1  0
  3  4  1  0
  4  5  1  0
  5  6  2  0
  5  7  1  0
  7  8  1  0
  8  9  1  0
  9 10  1  0
 10 11  1  0
 11 12  1  0
 12 13  1  0
 13 14  2  0
 14 15  1  0
 15 16  2  0
 16 17  1  0
 17 18  2  0
 11 19  1  0
 19 20  1  0
 20  8  1  0
 18 13  1  0
  1 21  1  0
  2 22  1  0
  2 23  1  0
  3 24  1  0
  3 25  1  0
  4 26  1  0
  4 27  1  0
  7 28  1  0
  8 29  1  0
  9 30  1  0
  9 31  1  0
 10 32  1  0
 10 33  1  0
 12 34  1  0
 12 35  1  0
 14 36  1  0
 15 37  1  0
 16 38  1  0
 17 39  1  0
 18 40  1  0
 19 41  1  0
 19 42  1  0
 20 43  1  0
 20 44  1  0
M  END
$$$$
