
     RDKit          3D

 36 38  0  0  0  0  0  0  0  0999 V2000
   -0.6157    0.0781   -3.1591 C   0  0  0  0  0  0  0  0  0  0  0  0
   -1.2026    0.4312   -1.8642 N   0  0  0  0  0  0  0  0  0  0  0  0
   -0.4228    0.3834   -0.6488 C   0  0  0  0  0  0  0  0  0  0  0  0
    1.0523    0.5063   -0.7400 C   0  0  0  0  0  0  0  0  0  0  0  0
    1.5489    1.4369   -1.4297 O   0  0  0  0  0  0  0  0  0  0  0  0
    1.9016   -0.4409   -0.0685 N   0  0  0  0  0  0  0  0  0  0  0  0
    3.3312   -0.3191    0.0308 C   0  0  0  0  0  0  0  0  0  0  0  0
    3.9740    0.7850   -0.4453 N   0  0  0  0  0  0  0  0  0  0  0  0
    5.3234    0.9287   -0.3568 C   0  0  0  0  0  0  0  0  0  0  0  0
    6.0950   -0.0709    0.2383 C   0  0  0  0  0  0  0  0  0  0  0  0
    5.4649   -1.2113    0.7381 C   0  0  0  0  0  0  0  0  0  0  0  0
    4.0781   -1.3399    0.6375 C   0  0  0  0  0  0  0  0  0  0  0  0
   -1.0032    0.2790    0.5755 C   0  0  0  0  0  0  0  0  0  0  0  0
   -0.1754    0.3993    1.6988 O   0  0  0  0  0  0  0  0  0  0  0  0
   -2.4778    0.0733    0.7779 C   0  0  0  0  0  0  0  0  0  0  0  0
   -3.4179    0.3978   -0.2210 C   0  0  0  0  0  0  0  0  0  0  0  0
   -4.7919    0.2529    0.0124 C   0  0  0  0  0  0  0  0  0  0  0  0
   -5.2460   -0.2402    1.2347 C   0  0  0  0  0  0  0  0  0  0  0  0
   -4.3300   -0.6050    2.2201 C   0  0  0  0  0  0  0  0  0  0  0  0
   -2.9584   -0.4563    1.9947 C   0  0  0  0  0  0  0  0  0  0  0  0
   -2.8590    0.9151   -1.7837 S   0  0  0  0  0  6  0  0  0  0  0  0
   -3.6579    0.2274   -2.8561 O   0  0  0  0  0  0  0  0  0  0  0  0
   -2.9717    2.4068   -1.9222 O   0  0  0  0  0  0  0  0  0  0  0  0
   -0.1333   -0.9199   -3.0933 H   0  0  0  0  0  0  0  0  0  0  0  0
   -1.3879    0.0391   -3.9543 H   0  0  0  0  0  0  0  0  0  0  0  0
    0.1361    0.8364   -3.4579 H   0  0  0  0  0  0  0  0  0  0  0  0
    1.4484   -1.2786    0.3626 H   0  0  0  0  0  0  0  0  0  0  0  0
    5.7964    1.8195   -0.7477 H   0  0  0  0  0  0  0  0  0  0  0  0
    7.1693    0.0378    0.3120 H   0  0  0  0  0  0  0  0  0  0  0  0
    6.0500   -1.9940    1.2034 H   0  0  0  0  0  0  0  0  0  0  0  0
    3.5907   -2.2248    1.0271 H   0  0  0  0  0  0  0  0  0  0  0  0
   -0.5273    0.5080    2.6405 H   0  0  0  0  0  0  0  0  0  0  0  0
   -5.5090    0.5093   -0.7573 H   0  0  0  0  0  0  0  0  0  0  0  0
   -6.3074   -0.3568    1.4116 H   0  0  0  0  0  0  0  0  0  0  0  0
   -4.6823   -1.0098    3.1602 H   0  0  0  0  0  0  0  0  0  0  0  0
   -2.2828   -0.7838    2.7719 H   0  0  0  0  0  0  0  0  0  0  0  0
  1  2  1  0
  2  3  1  0
  3  4  1  0
  4  5  2  0
  4  6  1  0
  6  7  1  0
  7  8  2  0
  8  9  1  0
  9 10  2  0
 10 11  1  0
 11 12  2  0
  3 13  2  0
 13 14  1  0
 13 15  1  0
 15 16  2  0
 16 17  1  0
 17 18  2  0
 18 19  1  0
 19 20  2  0
 16 21  1  0
 21 22  2  0
 21 23  2  0
 21  2  1  0
 12  7  1  0
 20 15  1  0
  1 24  1  0
  1 25  1  0
  1 26  1  0
  6 27  1  0
  9 28  1  0
 10 29  1  0
 11 30  1  0
 12 31  1  0
 14 32  1  0
 17 33  1  0
 18 34  1  0
 19 35  1  0
 20 36  1  0
M  END
$$$$
