
     RDKit          3D

 66 68  0  0  0  0  0  0  0  0999 V2000
   -5.7868    0.2691   -1.5115 C   0  0  1  0  0  0  0  0  0  0  0  0
   -4.8924    0.2968   -2.5987 O   0  0  0  0  0  0  0  0  0  0  0  0
   -5.4909   -0.8055   -0.6332 O   0  0  0  0  0  0  0  0  0  0  0  0
   -4.1489   -0.7432   -0.1653 C   0  0  2  0  0  0  0  0  0  0  0  0
   -3.9416   -1.8614    0.8678 C   0  0  0  0  0  0  0  0  0  0  0  0
   -4.8645   -1.7522    1.9193 O   0  0  0  0  0  0  0  0  0  0  0  0
   -3.7635    0.6605    0.4151 C   0  0  1  0  0  0  0  0  0  0  0  0
   -2.8600    1.3163   -0.4626 O   0  0  0  0  0  0  0  0  0  0  0  0
   -1.5147    0.9357   -0.2215 C   0  0  1  0  0  0  0  0  0  0  0  0
   -0.8223    0.9761   -1.4544 O   0  0  0  0  0  0  0  0  0  0  0  0
    0.4674    0.3727   -1.3713 C   0  0  2  0  0  0  0  0  0  0  0  0
    0.3895   -1.1200   -1.7281 C   0  0  0  0  0  0  0  0  0  0  0  0
   -0.1890   -1.2932   -2.9935 O   0  0  0  0  0  0  0  0  0  0  0  0
    1.1985    0.6059   -0.0133 C   0  0  1  0  0  0  0  0  0  0  0  0
    2.5960    0.6913   -0.2569 O   0  0  0  0  0  0  0  0  0  0  0  0
    3.3599    0.0311    0.7413 C   0  0  1  0  0  0  0  0  0  0  0  0
    3.4535   -1.3615    0.4456 O   0  0  0  0  0  0  0  0  0  0  0  0
    4.5595   -1.6584   -0.3870 C   0  0  2  0  0  0  0  0  0  0  0  0
    4.4475   -3.1096   -0.8792 C   0  0  0  0  0  0  0  0  0  0  0  0
    3.2981   -3.2816   -1.6616 O   0  0  0  0  0  0  0  0  0  0  0  0
    5.8840   -1.4611    0.3999 C   0  0  1  0  0  0  0  0  0  0  0  0
    6.9698   -1.3280   -0.4846 O   0  0  0  0  0  0  0  0  0  0  0  0
    5.8055   -0.2518    1.3707 C   0  0  2  0  0  0  0  0  0  0  0  0
    5.4890   -0.6934    2.6675 O   0  0  0  0  0  0  0  0  0  0  0  0
    4.7306    0.7489    0.9148 C   0  0  1  0  0  0  0  0  0  0  0  0
    5.1186    1.3590   -0.2918 O   0  0  0  0  0  0  0  0  0  0  0  0
    0.6905    1.9310    0.5954 C   0  0  2  0  0  0  0  0  0  0  0  0
    1.3384    2.2267    1.8076 O   0  0  0  0  0  0  0  0  0  0  0  0
   -0.8482    1.9106    0.7826 C   0  0  1  0  0  0  0  0  0  0  0  0
   -1.3416    3.2158    0.6074 O   0  0  0  0  0  0  0  0  0  0  0  0
   -5.0106    1.5464    0.5700 C   0  0  2  0  0  0  0  0  0  0  0  0
   -5.8267    1.0228    1.5880 O   0  0  0  0  0  0  0  0  0  0  0  0
   -5.8014    1.6246   -0.7548 C   0  0  1  0  0  0  0  0  0  0  0  0
   -5.2712    2.6507   -1.5562 O   0  0  0  0  0  0  0  0  0  0  0  0
   -6.8124    0.1043   -1.9135 H   0  0  0  0  0  0  0  0  0  0  0  0
   -5.0358   -0.5470   -3.1015 H   0  0  0  0  0  0  0  0  0  0  0  0
   -3.4647   -0.9916   -1.0090 H   0  0  0  0  0  0  0  0  0  0  0  0
   -2.8933   -1.8552    1.2475 H   0  0  0  0  0  0  0  0  0  0  0  0
   -4.0988   -2.8415    0.3690 H   0  0  0  0  0  0  0  0  0  0  0  0
   -4.4264   -1.2249    2.6368 H   0  0  0  0  0  0  0  0  0  0  0  0
   -3.3212    0.5681    1.4364 H   0  0  0  0  0  0  0  0  0  0  0  0
   -1.4589   -0.1016    0.1922 H   0  0  0  0  0  0  0  0  0  0  0  0
    1.0816    0.8576   -2.1626 H   0  0  0  0  0  0  0  0  0  0  0  0
   -0.1790   -1.6896   -0.9583 H   0  0  0  0  0  0  0  0  0  0  0  0
    1.4168   -1.5331   -1.7565 H   0  0  0  0  0  0  0  0  0  0  0  0
   -1.1727   -1.2522   -2.8655 H   0  0  0  0  0  0  0  0  0  0  0  0
    0.9278   -0.2303    0.6781 H   0  0  0  0  0  0  0  0  0  0  0  0
    2.8738    0.1041    1.7409 H   0  0  0  0  0  0  0  0  0  0  0  0
    4.5441   -1.0015   -1.2884 H   0  0  0  0  0  0  0  0  0  0  0  0
    4.3839   -3.7956   -0.0075 H   0  0  0  0  0  0  0  0  0  0  0  0
    5.3526   -3.3895   -1.4660 H   0  0  0  0  0  0  0  0  0  0  0  0
    3.4978   -2.8871   -2.5506 H   0  0  0  0  0  0  0  0  0  0  0  0
    6.0765   -2.3716    1.0104 H   0  0  0  0  0  0  0  0  0  0  0  0
    6.8322   -0.4981   -1.0110 H   0  0  0  0  0  0  0  0  0  0  0  0
    6.7883    0.2763    1.3998 H   0  0  0  0  0  0  0  0  0  0  0  0
    6.3214   -1.0728    3.0539 H   0  0  0  0  0  0  0  0  0  0  0  0
    4.6155    1.5394    1.6948 H   0  0  0  0  0  0  0  0  0  0  0  0
    5.8274    2.0173   -0.0680 H   0  0  0  0  0  0  0  0  0  0  0  0
    0.9488    2.7413   -0.1236 H   0  0  0  0  0  0  0  0  0  0  0  0
    1.1140    1.5063    2.4528 H   0  0  0  0  0  0  0  0  0  0  0  0
   -1.0865    1.5508    1.8120 H   0  0  0  0  0  0  0  0  0  0  0  0
   -2.1671    3.2925    1.1538 H   0  0  0  0  0  0  0  0  0  0  0  0
   -4.6774    2.5702    0.8648 H   0  0  0  0  0  0  0  0  0  0  0  0
   -6.4252    1.7570    1.8857 H   0  0  0  0  0  0  0  0  0  0  0  0
   -6.8576    1.8823   -0.5025 H   0  0  0  0  0  0  0  0  0  0  0  0
   -5.9474    2.8445   -2.2572 H   0  0  0  0  0  0  0  0  0  0  0  0
  1  2  1  0
  1  3  1  0
  3  4  1  0
  4  5  1  0
  5  6  1  0
  4  7  1  0
  7  8  1  0
  8  9  1  0
  9 10  1  0
 10 11  1  0
 11 12  1  0
 12 13  1  0
 11 14  1  0
 14 15  1  0
 15 16  1  0
 16 17  1  0
 17 18  1  0
 18 19  1  0
 19 20  1  0
 18 21  1  0
 21 22  1  0
 21 23  1  0
 23 24  1  0
 23 25  1  0
 25 26  1  0
 14 27  1  0
 27 28  1  0
 27 29  1  0
 29 30  1  0
  7 31  1  0
 31 32  1  0
 31 33  1  0
 33 34  1  0
 33  1  1  0
 29  9  1  0
 25 16  1  0
  1 35  1  6
  2 36  1  0
  4 37  1  6
  5 38  1  0
  5 39  1  0
  6 40  1  0
  7 41  1  1
  9 42  1  1
 11 43  1  6
 12 44  1  0
 12 45  1  0
 13 46  1  0
 14 47  1  1
 16 48  1  1
 18 49  1  6
 19 50  1  0
 19 51  1  0
 20 52  1  0
 21 53  1  1
 22 54  1  0
 23 55  1  1
 24 56  1  0
 25 57  1  1
 26 58  1  0
 27 59  1  6
 28 60  1  0
 29 61  1  1
 30 62  1  0
 31 63  1  1
 32 64  1  0
 33 65  1  1
 34 66  1  0
M  END
$$$$
