
     RDKit          3D

 26 22  0  0  0  0  0  0  0  0999 V2000
    0.0000    0.0000    0.0000 Fe  0  0  0  0  0 15  0  0  0  0  0  0
    0.9942    0.7299    0.3104 N   0  0  0  0  0  0  0  0  0  0  0  0
    0.2248   -0.4160   -0.1603 C   0  0  0  0  0  0  0  0  0  0  0  0
   -1.2104   -0.0327   -0.3230 C   0  0  0  0  0  0  0  0  0  0  0  0
   -1.6450    0.5471   -1.5080 O   0  0  0  0  0  1  0  0  0  0  0  0
   -2.0199   -0.1905    0.6284 O   0  0  0  0  0  0  0  0  0  0  0  0
   -1.1033    0.4160    0.4859 N   0  0  0  0  0  0  0  0  0  0  0  0
   -0.1638   -0.2892   -0.3784 C   0  0  0  0  0  0  0  0  0  0  0  0
    1.2139    0.2563   -0.1845 C   0  0  0  0  0  0  0  0  0  0  0  0
    2.0688   -0.3270    0.7419 O   0  0  0  0  0  1  0  0  0  0  0  0
    1.5880    1.2734   -0.8254 O   0  0  0  0  0  0  0  0  0  0  0  0
    1.0461   -0.3627    0.9475 O   0  0  0  0  0  0  0  0  0  0  0  0
   -0.3060   -0.3717   -0.0511 S   0  0  0  0  0  6  0  0  0  0  0  0
   -0.4358    1.1040   -0.8456 O   0  0  0  0  0  0  0  0  0  0  0  0
   -1.5385   -0.6033    0.7765 O   0  0  0  0  0  0  0  0  0  0  0  0
   -0.1728   -1.4750   -1.0622 O   0  0  0  0  0  0  0  0  0  0  0  0
    2.0009    0.4477    0.3358 H   0  0  0  0  0  0  0  0  0  0  0  0
    0.7163    0.9262    1.2999 H   0  0  0  0  0  0  0  0  0  0  0  0
    0.6234   -0.7513   -1.1423 H   0  0  0  0  0  0  0  0  0  0  0  0
    0.3156   -1.2604    0.5592 H   0  0  0  0  0  0  0  0  0  0  0  0
   -0.9023    0.1460    1.4766 H   0  0  0  0  0  0  0  0  0  0  0  0
   -2.0624    0.0593    0.2703 H   0  0  0  0  0  0  0  0  0  0  0  0
   -0.1733   -1.3773   -0.1459 H   0  0  0  0  0  0  0  0  0  0  0  0
   -0.4657   -0.1576   -1.4405 H   0  0  0  0  0  0  0  0  0  0  0  0
    1.7916   -0.0752    0.3621 H   0  0  0  0  0  0  0  0  0  0  0  0
   -0.3846    1.7839   -0.1272 H   0  0  0  0  0  0  0  0  0  0  0  0
  2  3  1  0
  3  4  1  0
  4  5  1  0
  4  6  2  0
  7  8  1  0
  8  9  1  0
  9 10  1  0
  9 11  2  0
 12 13  1  0
 13 14  1  0
 13 15  2  0
 13 16  2  0
  2 17  1  0
  2 18  1  0
  3 19  1  0
  3 20  1  0
  7 21  1  0
  7 22  1  0
  8 23  1  0
  8 24  1  0
 12 25  1  0
 14 26  1  0
M  CHG  3   1   2   5  -1  10  -1
M  END
$$$$
