
     RDKit          3D

 50 55  0  0  0  0  0  0  0  0999 V2000
    2.1536    1.5477    0.6615 C   0  0  2  0  0  0  0  0  0  0  0  0
    3.0976    0.6298    1.2306 O   0  0  0  0  0  0  0  0  0  0  0  0
    2.6991   -0.6686    0.9909 C   0  0  0  0  0  0  0  0  0  0  0  0
    3.4551   -1.8334    1.1410 C   0  0  0  0  0  0  0  0  0  0  0  0
    4.7089   -1.8145    1.7465 O   0  0  0  0  0  0  0  0  0  0  0  0
    2.9276   -3.0338    0.6283 C   0  0  0  0  0  0  0  0  0  0  0  0
    1.7045   -3.0284   -0.0769 C   0  0  0  0  0  0  0  0  0  0  0  0
    0.9659   -1.8356   -0.1998 C   0  0  0  0  0  0  0  0  0  0  0  0
    1.4556   -0.6959    0.4405 C   0  0  0  0  0  0  0  0  0  0  0  0
    0.8671    0.6816    0.3900 C   0  0  1  0  0  0  0  0  0  0  0  0
   -0.1714    0.8263    1.5469 C   0  0  0  0  0  0  0  0  0  0  0  0
   -1.6380    0.6266    1.1090 C   0  0  0  0  0  0  0  0  0  0  0  0
   -1.7939   -0.4073    0.0602 N   0  0  0  0  0  0  0  0  0  0  0  0
   -3.2008   -0.5315   -0.3755 C   0  0  0  0  0  0  0  0  0  0  0  0
   -4.0617   -1.1544    0.7332 C   0  0  0  0  0  0  0  0  0  0  0  0
   -5.5571   -1.1186    0.4547 C   0  0  0  0  0  0  0  0  0  0  0  0
   -4.9596   -0.1998    1.5074 C   0  0  0  0  0  0  0  0  0  0  0  0
   -0.8603   -0.3134   -1.1046 C   0  0  2  0  0  0  0  0  0  0  0  0
   -0.1553   -1.6952   -1.2020 C   0  0  0  0  0  0  0  0  0  0  0  0
    0.1685    0.8746   -0.9817 C   0  0  1  0  0  0  0  0  0  0  0  0
   -0.5513    2.0887   -1.0516 O   0  0  0  0  0  0  0  0  0  0  0  0
    1.2137    0.8757   -2.1223 C   0  0  0  0  0  0  0  0  0  0  0  0
    2.2119    2.0275   -1.9772 C   0  0  0  0  0  0  0  0  0  0  0  0
    2.7754    2.1844   -0.5764 C   0  0  0  0  0  0  0  0  0  0  0  0
    3.8484    2.9743   -0.4129 C   0  0  0  0  0  0  0  0  0  0  0  0
    1.9513    2.3581    1.3948 H   0  0  0  0  0  0  0  0  0  0  0  0
    5.1063   -0.9569    2.1114 H   0  0  0  0  0  0  0  0  0  0  0  0
    3.4938   -3.9524    0.7132 H   0  0  0  0  0  0  0  0  0  0  0  0
    1.3631   -3.9334   -0.5633 H   0  0  0  0  0  0  0  0  0  0  0  0
   -0.1148    1.8420    1.9937 H   0  0  0  0  0  0  0  0  0  0  0  0
    0.0613    0.1184    2.3746 H   0  0  0  0  0  0  0  0  0  0  0  0
   -2.2112    0.3289    2.0128 H   0  0  0  0  0  0  0  0  0  0  0  0
   -2.0708    1.5939    0.7713 H   0  0  0  0  0  0  0  0  0  0  0  0
   -3.2681   -1.2277   -1.2411 H   0  0  0  0  0  0  0  0  0  0  0  0
   -3.5921    0.4550   -0.7142 H   0  0  0  0  0  0  0  0  0  0  0  0
   -3.7155   -2.0637    1.2696 H   0  0  0  0  0  0  0  0  0  0  0  0
   -6.1272   -1.9726    0.8776 H   0  0  0  0  0  0  0  0  0  0  0  0
   -5.8728   -0.5926   -0.4720 H   0  0  0  0  0  0  0  0  0  0  0  0
   -4.9143    0.8686    1.2062 H   0  0  0  0  0  0  0  0  0  0  0  0
   -5.1656   -0.5140    2.5522 H   0  0  0  0  0  0  0  0  0  0  0  0
   -1.4192   -0.1548   -2.0565 H   0  0  0  0  0  0  0  0  0  0  0  0
    0.2589   -1.8277   -2.2244 H   0  0  0  0  0  0  0  0  0  0  0  0
   -0.8937   -2.5119   -1.0469 H   0  0  0  0  0  0  0  0  0  0  0  0
   -0.0225    2.8022   -0.6092 H   0  0  0  0  0  0  0  0  0  0  0  0
    1.7937   -0.0699   -2.1510 H   0  0  0  0  0  0  0  0  0  0  0  0
    0.6945    0.9699   -3.1009 H   0  0  0  0  0  0  0  0  0  0  0  0
    3.0451    1.8452   -2.6916 H   0  0  0  0  0  0  0  0  0  0  0  0
    1.7268    2.9815   -2.2771 H   0  0  0  0  0  0  0  0  0  0  0  0
    4.2772    3.1367    0.5717 H   0  0  0  0  0  0  0  0  0  0  0  0
    4.3123    3.4704   -1.2605 H   0  0  0  0  0  0  0  0  0  0  0  0
  1  2  1  0
  2  3  1  0
  3  4  2  0
  4  5  1  0
  4  6  1  0
  6  7  2  0
  7  8  1  0
  8  9  2  0
  9 10  1  0
 10 11  1  1
 11 12  1  0
 12 13  1  0
 13 14  1  0
 14 15  1  0
 15 16  1  0
 16 17  1  0
 13 18  1  0
 18 19  1  0
 18 20  1  0
 20 21  1  1
 20 22  1  0
 22 23  1  0
 23 24  1  0
 24 25  2  3
 10  1  1  0
 20 10  1  0
 24  1  1  0
  9  3  1  0
 17 15  1  0
 19  8  1  0
  1 26  1  1
  5 27  1  0
  6 28  1  0
  7 29  1  0
 11 30  1  0
 11 31  1  0
 12 32  1  0
 12 33  1  0
 14 34  1  0
 14 35  1  0
 15 36  1  0
 16 37  1  0
 16 38  1  0
 17 39  1  0
 17 40  1  0
 18 41  1  6
 19 42  1  0
 19 43  1  0
 21 44  1  0
 22 45  1  0
 22 46  1  0
 23 47  1  0
 23 48  1  0
 25 49  1  0
 25 50  1  0
M  END
$$$$
