
     RDKit          3D

 38 40  0  0  0  0  0  0  0  0999 V2000
   -1.9880    0.5178   -1.4831 C   0  0  1  0  0  0  0  0  0  0  0  0
   -1.9181   -1.2694   -1.0064 S   0  0  0  0  0  0  0  0  0  0  0  0
   -2.6869   -1.1581    0.6614 C   0  0  0  0  0  0  0  0  0  0  0  0
   -3.9755   -0.3782    0.6615 C   0  0  0  0  0  0  0  0  0  0  0  0
   -4.0062    0.8455    0.1295 C   0  0  0  0  0  0  0  0  0  0  0  0
   -2.8629    1.2605   -0.6060 N   0  0  0  0  0  0  0  0  0  0  0  0
   -1.7471    2.1941   -0.3331 C   0  0  0  0  0  0  0  0  0  0  0  0
   -1.6014    3.2255    0.3733 O   0  0  0  0  0  0  0  0  0  0  0  0
   -0.8462    1.3588   -1.1936 C   0  0  1  0  0  0  0  0  0  0  0  0
    0.2094    0.7080   -0.4116 N   0  0  0  0  0  0  0  0  0  0  0  0
    1.2584   -0.0367   -1.0492 C   0  0  0  0  0  0  0  0  0  0  0  0
    1.2903   -0.1237   -2.3071 O   0  0  0  0  0  0  0  0  0  0  0  0
    2.3281   -0.6793   -0.2510 C   0  0  0  0  0  0  0  0  0  0  0  0
    2.0553   -1.3327    0.8394 N   0  0  0  0  0  0  0  0  0  0  0  0
    0.7715   -1.5038    1.3076 O   0  0  0  0  0  0  0  0  0  0  0  0
    0.5381   -2.2318    2.5012 C   0  0  0  0  0  0  0  0  0  0  0  0
    3.7327   -0.6078   -0.7104 C   0  0  0  0  0  0  0  0  0  0  0  0
    4.7855   -1.2685   -0.0709 C   0  0  0  0  0  0  0  0  0  0  0  0
    6.2090   -0.9167   -0.8974 S   0  0  0  0  0  0  0  0  0  0  0  0
    5.4280    0.0550   -2.0211 C   0  0  0  0  0  0  0  0  0  0  0  0
    6.0771    0.7312   -3.0939 N   0  0  0  0  0  0  0  0  0  0  0  0
    4.1004    0.1298   -1.7951 N   0  0  0  0  0  0  0  0  0  0  0  0
   -5.1735    1.7335    0.2570 C   0  0  0  0  0  0  0  0  0  0  0  0
   -6.2970    1.3289    0.9734 O   0  0  0  0  0  0  0  0  0  0  0  0
   -5.1570    2.8708   -0.2853 O   0  0  0  0  0  0  0  0  0  0  0  0
   -2.3221    0.6238   -2.5390 H   0  0  0  0  0  0  0  0  0  0  0  0
   -1.9691   -0.6627    1.3484 H   0  0  0  0  0  0  0  0  0  0  0  0
   -2.8745   -2.1842    1.0403 H   0  0  0  0  0  0  0  0  0  0  0  0
   -4.8358   -0.7840    1.1797 H   0  0  0  0  0  0  0  0  0  0  0  0
   -0.4564    1.9310   -2.0641 H   0  0  0  0  0  0  0  0  0  0  0  0
    0.2738    0.8929    0.6155 H   0  0  0  0  0  0  0  0  0  0  0  0
    1.0512   -1.7342    3.3507 H   0  0  0  0  0  0  0  0  0  0  0  0
   -0.5513   -2.2677    2.7048 H   0  0  0  0  0  0  0  0  0  0  0  0
    0.9210   -3.2678    2.3902 H   0  0  0  0  0  0  0  0  0  0  0  0
    4.7079   -1.8994    0.8047 H   0  0  0  0  0  0  0  0  0  0  0  0
    5.5249    1.3207   -3.7553 H   0  0  0  0  0  0  0  0  0  0  0  0
    7.1087    0.6420   -3.2263 H   0  0  0  0  0  0  0  0  0  0  0  0
   -7.1024    1.9367    1.0642 H   0  0  0  0  0  0  0  0  0  0  0  0
  1  2  1  0
  2  3  1  0
  3  4  1  0
  4  5  2  0
  5  6  1  0
  6  7  1  0
  7  8  2  0
  7  9  1  0
  9 10  1  0
 10 11  1  0
 11 12  2  0
 11 13  1  0
 13 14  2  0
 14 15  1  0
 15 16  1  0
 13 17  1  0
 17 18  2  0
 18 19  1  0
 19 20  1  0
 20 21  1  0
 20 22  2  0
  5 23  1  0
 23 24  1  0
 23 25  2  0
  6  1  1  0
 22 17  1  0
  9  1  1  0
  1 26  1  6
  3 27  1  0
  3 28  1  0
  4 29  1  0
  9 30  1  6
 10 31  1  0
 16 32  1  0
 16 33  1  0
 16 34  1  0
 18 35  1  0
 21 36  1  0
 21 37  1  0
 24 38  1  0
M  END
$$$$
