
     RDKit          3D

 56 60  0  0  0  0  0  0  0  0999 V2000
   -7.1047   -1.5292   -1.4207 C   0  0  0  0  0  0  0  0  0  0  0  0
   -7.3074   -0.2468   -0.5877 C   0  0  0  0  0  0  0  0  0  0  0  0
   -6.4596   -0.2624    0.6886 C   0  0  0  0  0  0  0  0  0  0  0  0
   -4.9439   -0.3342    0.3685 C   0  0  0  0  0  0  0  0  0  0  0  0
   -4.6438   -1.1209   -0.9333 C   0  0  0  0  0  0  0  0  0  0  0  0
   -5.7174   -2.1737   -1.2271 C   0  0  0  0  0  0  0  0  0  0  0  0
   -4.3721    1.0143    0.2729 N   0  0  0  0  0  0  0  0  0  0  0  0
   -2.9586    1.2527    0.3497 C   0  0  0  0  0  0  0  0  0  0  0  0
   -2.4293    2.5314    0.2165 C   0  0  0  0  0  0  0  0  0  0  0  0
   -3.0587    3.7018    0.0080 N   0  0  0  0  0  0  0  0  0  0  0  0
   -2.0272    4.5905   -0.0272 C   0  0  0  0  0  0  0  0  0  0  0  0
   -0.8093    4.0190    0.1495 N   0  0  0  0  0  0  0  0  0  0  0  0
   -1.0949    2.7230    0.2996 C   0  0  0  0  0  0  0  0  0  0  0  0
   -0.2222    1.7101    0.5096 N   0  0  0  0  0  0  0  0  0  0  0  0
   -0.7224    0.4407    0.6319 C   0  0  0  0  0  0  0  0  0  0  0  0
    0.1506   -0.6692    0.8843 N   0  0  0  0  0  0  0  0  0  0  0  0
    1.5811   -0.6183    0.7519 C   0  0  0  0  0  0  0  0  0  0  0  0
    2.1959    0.1208   -0.2734 C   0  0  0  0  0  0  0  0  0  0  0  0
    3.5882    0.1362   -0.3960 C   0  0  0  0  0  0  0  0  0  0  0  0
    4.3898   -0.5954    0.4944 C   0  0  0  0  0  0  0  0  0  0  0  0
    3.7721   -1.3583    1.4998 C   0  0  0  0  0  0  0  0  0  0  0  0
    2.3799   -1.3732    1.6220 C   0  0  0  0  0  0  0  0  0  0  0  0
    5.8241   -0.5785    0.3590 N   0  0  0  0  0  0  0  0  0  0  0  0
    6.6031   -1.8030    0.5667 C   0  0  0  0  0  0  0  0  0  0  0  0
    7.8948   -1.7376   -0.2541 C   0  0  0  0  0  0  0  0  0  0  0  0
    8.6007   -0.5402    0.0127 O   0  0  0  0  0  0  0  0  0  0  0  0
    7.8415    0.5712   -0.4252 C   0  0  0  0  0  0  0  0  0  0  0  0
    6.5465    0.6975    0.3826 C   0  0  0  0  0  0  0  0  0  0  0  0
   -2.0772    0.2281    0.5623 N   0  0  0  0  0  0  0  0  0  0  0  0
   -7.8827   -2.2745   -1.1460 H   0  0  0  0  0  0  0  0  0  0  0  0
   -7.2494   -1.2818   -2.4950 H   0  0  0  0  0  0  0  0  0  0  0  0
   -7.0265    0.6407   -1.1966 H   0  0  0  0  0  0  0  0  0  0  0  0
   -8.3813   -0.1436   -0.3203 H   0  0  0  0  0  0  0  0  0  0  0  0
   -6.6891    0.6344    1.3044 H   0  0  0  0  0  0  0  0  0  0  0  0
   -6.7503   -1.1489    1.2950 H   0  0  0  0  0  0  0  0  0  0  0  0
   -4.4625   -0.8621    1.2222 H   0  0  0  0  0  0  0  0  0  0  0  0
   -4.5905   -0.4231   -1.7988 H   0  0  0  0  0  0  0  0  0  0  0  0
   -3.6550   -1.6210   -0.8470 H   0  0  0  0  0  0  0  0  0  0  0  0
   -5.7564   -2.8954   -0.3815 H   0  0  0  0  0  0  0  0  0  0  0  0
   -5.4419   -2.7425   -2.1413 H   0  0  0  0  0  0  0  0  0  0  0  0
   -5.0091    1.8323    0.1360 H   0  0  0  0  0  0  0  0  0  0  0  0
   -2.1669    5.6523   -0.1811 H   0  0  0  0  0  0  0  0  0  0  0  0
    0.1260    4.4826    0.1643 H   0  0  0  0  0  0  0  0  0  0  0  0
   -0.2787   -1.5437    1.2635 H   0  0  0  0  0  0  0  0  0  0  0  0
    1.6020    0.6626   -0.9973 H   0  0  0  0  0  0  0  0  0  0  0  0
    4.0399    0.6984   -1.2032 H   0  0  0  0  0  0  0  0  0  0  0  0
    4.3671   -1.9332    2.1976 H   0  0  0  0  0  0  0  0  0  0  0  0
    1.9218   -1.9645    2.4050 H   0  0  0  0  0  0  0  0  0  0  0  0
    6.8535   -1.9022    1.6452 H   0  0  0  0  0  0  0  0  0  0  0  0
    6.0181   -2.6939    0.2491 H   0  0  0  0  0  0  0  0  0  0  0  0
    8.5387   -2.5976    0.0265 H   0  0  0  0  0  0  0  0  0  0  0  0
    7.6708   -1.8381   -1.3408 H   0  0  0  0  0  0  0  0  0  0  0  0
    7.6153    0.4999   -1.5139 H   0  0  0  0  0  0  0  0  0  0  0  0
    8.4447    1.4916   -0.2773 H   0  0  0  0  0  0  0  0  0  0  0  0
    6.7907    0.9570    1.4354 H   0  0  0  0  0  0  0  0  0  0  0  0
    5.9319    1.5181   -0.0439 H   0  0  0  0  0  0  0  0  0  0  0  0
  1  2  1  0
  2  3  1  0
  3  4  1  0
  4  5  1  0
  5  6  1  0
  4  7  1  0
  7  8  1  0
  8  9  2  0
  9 10  1  0
 10 11  2  0
 11 12  1  0
 12 13  1  0
 13 14  2  0
 14 15  1  0
 15 16  1  0
 16 17  1  0
 17 18  2  0
 18 19  1  0
 19 20  2  0
 20 21  1  0
 21 22  2  0
 20 23  1  0
 23 24  1  0
 24 25  1  0
 25 26  1  0
 26 27  1  0
 27 28  1  0
 15 29  2  0
  6  1  1  0
 29  8  1  0
 13  9  1  0
 22 17  1  0
 28 23  1  0
  1 30  1  0
  1 31  1  0
  2 32  1  0
  2 33  1  0
  3 34  1  0
  3 35  1  0
  4 36  1  0
  5 37  1  0
  5 38  1  0
  6 39  1  0
  6 40  1  0
  7 41  1  0
 11 42  1  0
 12 43  1  0
 16 44  1  0
 18 45  1  0
 19 46  1  0
 21 47  1  0
 22 48  1  0
 24 49  1  0
 24 50  1  0
 25 51  1  0
 25 52  1  0
 27 53  1  0
 27 54  1  0
 28 55  1  0
 28 56  1  0
M  END
$$$$
