
     RDKit          3D

 39 40  0  0  0  0  0  0  0  0999 V2000
   -3.6438    2.0456    2.8475 C   0  0  0  0  0  0  0  0  0  0  0  0
   -3.0252    1.6494    1.6279 O   0  0  0  0  0  0  0  0  0  0  0  0
   -3.4074    2.1026    0.3540 C   0  0  0  0  0  0  0  0  0  0  0  0
   -4.4828    2.9975    0.1799 C   0  0  0  0  0  0  0  0  0  0  0  0
   -4.8637    3.4065   -1.0996 C   0  0  0  0  0  0  0  0  0  0  0  0
   -4.1818    2.9308   -2.2187 C   0  0  0  0  0  0  0  0  0  0  0  0
   -3.1115    2.0488   -2.0630 C   0  0  0  0  0  0  0  0  0  0  0  0
   -2.7084    1.6336   -0.7813 C   0  0  0  0  0  0  0  0  0  0  0  0
   -1.5590    0.7064   -0.6452 C   0  0  0  0  0  0  0  0  0  0  0  0
   -1.5066   -0.4723   -1.4062 C   0  0  0  0  0  0  0  0  0  0  0  0
   -0.4220   -1.3493   -1.2893 C   0  0  0  0  0  0  0  0  0  0  0  0
   -0.4051   -2.8046   -2.2777 Cl  0  0  0  0  0  0  0  0  0  0  0  0
    0.6409   -1.0465   -0.4165 C   0  0  0  0  0  0  0  0  0  0  0  0
    1.7439   -1.9584   -0.2723 N   0  0  0  0  0  0  0  0  0  0  0  0
    3.1109   -1.5333   -0.1355 C   0  0  0  0  0  0  0  0  0  0  0  0
    3.4197   -0.3262   -0.3329 O   0  0  0  0  0  0  0  0  0  0  0  0
    4.1743   -2.5223    0.1490 C   0  0  0  0  0  0  0  0  0  0  0  0
    4.1027   -3.7877   -0.5487 C   0  0  0  0  0  0  0  0  0  0  0  0
    4.0445   -4.7997   -1.1071 N   0  0  0  0  0  0  0  0  0  0  0  0
    5.1995   -2.2629    0.9966 C   0  0  0  0  0  0  0  0  0  0  0  0
    6.3330   -3.2349    1.1732 C   0  0  0  0  0  0  0  0  0  0  0  0
    5.2419   -1.0993    1.7719 O   0  0  0  0  0  0  0  0  0  0  0  0
    0.5823    0.1304    0.3494 C   0  0  0  0  0  0  0  0  0  0  0  0
   -0.5028    1.0016    0.2306 C   0  0  0  0  0  0  0  0  0  0  0  0
   -3.5493    3.1436    2.9844 H   0  0  0  0  0  0  0  0  0  0  0  0
   -3.1359    1.5376    3.6926 H   0  0  0  0  0  0  0  0  0  0  0  0
   -4.7141    1.7497    2.8466 H   0  0  0  0  0  0  0  0  0  0  0  0
   -5.0364    3.3776    1.0274 H   0  0  0  0  0  0  0  0  0  0  0  0
   -5.6924    4.0918   -1.2236 H   0  0  0  0  0  0  0  0  0  0  0  0
   -4.4804    3.2492   -3.2092 H   0  0  0  0  0  0  0  0  0  0  0  0
   -2.5857    1.7008   -2.9438 H   0  0  0  0  0  0  0  0  0  0  0  0
   -2.3157   -0.7163   -2.0842 H   0  0  0  0  0  0  0  0  0  0  0  0
    1.5418   -2.9827   -0.3026 H   0  0  0  0  0  0  0  0  0  0  0  0
    5.9548   -4.1854    1.6055 H   0  0  0  0  0  0  0  0  0  0  0  0
    7.0950   -2.8138    1.8624 H   0  0  0  0  0  0  0  0  0  0  0  0
    6.8203   -3.4371    0.1958 H   0  0  0  0  0  0  0  0  0  0  0  0
    4.4706   -0.4498    1.8541 H   0  0  0  0  0  0  0  0  0  0  0  0
    1.3676    0.3675    1.0553 H   0  0  0  0  0  0  0  0  0  0  0  0
   -0.5138    1.9113    0.8182 H   0  0  0  0  0  0  0  0  0  0  0  0
  1  2  1  0
  2  3  1  0
  3  4  2  0
  4  5  1  0
  5  6  2  0
  6  7  1  0
  7  8  2  0
  8  9  1  0
  9 10  2  0
 10 11  1  0
 11 12  1  0
 11 13  2  0
 13 14  1  0
 14 15  1  0
 15 16  2  0
 15 17  1  0
 17 18  1  0
 18 19  3  0
 17 20  2  0
 20 21  1  0
 20 22  1  0
 13 23  1  0
 23 24  2  0
  8  3  1  0
 24  9  1  0
  1 25  1  0
  1 26  1  0
  1 27  1  0
  4 28  1  0
  5 29  1  0
  6 30  1  0
  7 31  1  0
 10 32  1  0
 14 33  1  0
 21 34  1  0
 21 35  1  0
 21 36  1  0
 22 37  1  0
 23 38  1  0
 24 39  1  0
M  END
$$$$
