
     RDKit          3D

 50 52  0  0  0  0  0  0  0  0999 V2000
    4.3591    4.8235   -1.5648 O   0  0  0  0  0  0  0  0  0  0  0  0
    4.4449    3.4423   -1.7111 C   0  0  0  0  0  0  0  0  0  0  0  0
    4.6374    2.9474   -2.8541 O   0  0  0  0  0  0  0  0  0  0  0  0
    4.3136    2.5744   -0.5289 C   0  0  0  0  0  0  0  0  0  0  0  0
    4.1826    3.1057    0.6069 O   0  0  0  0  0  0  0  0  0  0  0  0
    4.3804    1.0743   -0.6366 C   0  0  0  0  0  0  0  0  0  0  0  0
    3.2403    0.4293    0.1064 C   0  0  0  0  0  0  0  0  0  0  0  0
    3.4851   -0.0876    1.2308 O   0  0  0  0  0  0  0  0  0  0  0  0
    1.8464    0.4089   -0.4213 C   0  0  0  0  0  0  0  0  0  0  0  0
    1.5152    0.9986   -1.6574 C   0  0  0  0  0  0  0  0  0  0  0  0
    0.2012    0.9682   -2.1297 C   0  0  0  0  0  0  0  0  0  0  0  0
   -0.8012    0.3530   -1.3806 C   0  0  0  0  0  0  0  0  0  0  0  0
   -0.4970   -0.2385   -0.1478 C   0  0  0  0  0  0  0  0  0  0  0  0
    0.8242   -0.2093    0.3251 C   0  0  0  0  0  0  0  0  0  0  0  0
   -1.5328   -0.8682    0.6292 N   0  0  0  0  0  0  0  0  0  0  0  0
   -2.2882   -1.9903    0.0579 C   0  0  0  0  0  0  0  0  0  0  0  0
   -1.3956   -3.1934   -0.0702 C   0  0  0  0  0  0  0  0  0  0  0  0
   -0.7332   -3.4614   -1.2797 C   0  0  0  0  0  0  0  0  0  0  0  0
    0.1382   -4.5504   -1.3781 C   0  0  0  0  0  0  0  0  0  0  0  0
    0.3613   -5.3715   -0.2692 C   0  0  0  0  0  0  0  0  0  0  0  0
   -0.2832   -5.1018    0.9415 C   0  0  0  0  0  0  0  0  0  0  0  0
   -1.1547   -4.0132    1.0442 C   0  0  0  0  0  0  0  0  0  0  0  0
   -1.8125   -0.3934    1.9907 C   0  0  0  0  0  0  0  0  0  0  0  0
   -2.3790    0.9986    1.9417 C   0  0  0  0  0  0  0  0  0  0  0  0
   -1.5398    2.1139    2.1021 C   0  0  0  0  0  0  0  0  0  0  0  0
   -2.0621    3.4071    2.0034 C   0  0  0  0  0  0  0  0  0  0  0  0
   -3.4208    3.5952    1.7350 C   0  0  0  0  0  0  0  0  0  0  0  0
   -4.2586    2.4901    1.5599 C   0  0  0  0  0  0  0  0  0  0  0  0
   -3.7399    1.1951    1.6568 C   0  0  0  0  0  0  0  0  0  0  0  0
    4.4473    5.4376   -2.3657 H   0  0  0  0  0  0  0  0  0  0  0  0
    4.3744    0.7335   -1.6929 H   0  0  0  0  0  0  0  0  0  0  0  0
    5.3465    0.7376   -0.2024 H   0  0  0  0  0  0  0  0  0  0  0  0
    2.2613    1.4875   -2.2661 H   0  0  0  0  0  0  0  0  0  0  0  0
   -0.0415    1.4281   -3.0790 H   0  0  0  0  0  0  0  0  0  0  0  0
   -1.8173    0.3530   -1.7529 H   0  0  0  0  0  0  0  0  0  0  0  0
    1.0528   -0.6842    1.2706 H   0  0  0  0  0  0  0  0  0  0  0  0
   -2.7066   -1.7050   -0.9309 H   0  0  0  0  0  0  0  0  0  0  0  0
   -3.1623   -2.2475    0.6948 H   0  0  0  0  0  0  0  0  0  0  0  0
   -0.8863   -2.8246   -2.1423 H   0  0  0  0  0  0  0  0  0  0  0  0
    0.6445   -4.7549   -2.3125 H   0  0  0  0  0  0  0  0  0  0  0  0
    1.0376   -6.2130   -0.3464 H   0  0  0  0  0  0  0  0  0  0  0  0
   -0.1032   -5.7333    1.8019 H   0  0  0  0  0  0  0  0  0  0  0  0
   -1.6377   -3.8058    1.9912 H   0  0  0  0  0  0  0  0  0  0  0  0
   -0.8846   -0.4176    2.6007 H   0  0  0  0  0  0  0  0  0  0  0  0
   -2.5333   -1.0639    2.5070 H   0  0  0  0  0  0  0  0  0  0  0  0
   -0.4825    1.9820    2.2966 H   0  0  0  0  0  0  0  0  0  0  0  0
   -1.4125    4.2635    2.1302 H   0  0  0  0  0  0  0  0  0  0  0  0
   -3.8233    4.5969    1.6572 H   0  0  0  0  0  0  0  0  0  0  0  0
   -5.3089    2.6369    1.3439 H   0  0  0  0  0  0  0  0  0  0  0  0
   -4.3957    0.3464    1.5059 H   0  0  0  0  0  0  0  0  0  0  0  0
  1  2  1  0
  2  3  2  0
  2  4  1  0
  4  5  2  0
  4  6  1  0
  6  7  1  0
  7  8  2  0
  7  9  1  0
  9 10  2  0
 10 11  1  0
 11 12  2  0
 12 13  1  0
 13 14  2  0
 13 15  1  0
 15 16  1  0
 16 17  1  0
 17 18  2  0
 18 19  1  0
 19 20  2  0
 20 21  1  0
 21 22  2  0
 15 23  1  0
 23 24  1  0
 24 25  2  0
 25 26  1  0
 26 27  2  0
 27 28  1  0
 28 29  2  0
 14  9  1  0
 22 17  1  0
 29 24  1  0
  1 30  1  0
  6 31  1  0
  6 32  1  0
 10 33  1  0
 11 34  1  0
 12 35  1  0
 14 36  1  0
 16 37  1  0
 16 38  1  0
 18 39  1  0
 19 40  1  0
 20 41  1  0
 21 42  1  0
 22 43  1  0
 23 44  1  0
 23 45  1  0
 25 46  1  0
 26 47  1  0
 27 48  1  0
 28 49  1  0
 29 50  1  0
M  END
$$$$
