
     RDKit          3D

 49 52  0  0  0  0  0  0  0  0999 V2000
   -3.3257    1.7048   -0.7536 C   0  0  2  0  0  0  0  0  0  0  0  0
   -3.0627    0.5977   -1.6768 N   0  0  0  0  0  0  0  0  0  0  0  0
   -2.1645    2.7229   -0.7268 C   0  0  0  0  0  0  0  0  0  0  0  0
   -0.9906    2.1821   -0.1140 O   0  0  0  0  0  0  0  0  0  0  0  0
    0.0433    1.4817   -0.7578 C   0  0  0  0  0  0  0  0  0  0  0  0
    1.0154    0.8668    0.0367 C   0  0  0  0  0  0  0  0  0  0  0  0
    2.0750    0.1533   -0.5467 C   0  0  0  0  0  0  0  0  0  0  0  0
    2.1352    0.0795   -1.9472 C   0  0  0  0  0  0  0  0  0  0  0  0
    1.1862    0.6854   -2.7070 N   0  0  0  0  0  0  0  0  0  0  0  0
    0.1558    1.3780   -2.1559 C   0  0  0  0  0  0  0  0  0  0  0  0
    3.1047   -0.5060    0.2957 C   0  0  0  0  0  0  0  0  0  0  0  0
    2.7331   -1.1708    1.4988 C   0  0  0  0  0  0  0  0  0  0  0  0
    3.7002   -1.7977    2.3069 C   0  0  0  0  0  0  0  0  0  0  0  0
    5.0246   -1.7452    1.8864 C   0  0  0  0  0  0  0  0  0  0  0  0
    6.1119   -2.2545    2.4884 N   0  0  0  0  0  0  0  0  0  0  0  0
    7.1779   -1.9632    1.7503 N   0  0  0  0  0  0  0  0  0  0  0  0
    6.7607   -1.2679    0.6645 C   0  0  0  0  0  0  0  0  0  0  0  0
    7.6678   -0.7285   -0.3915 C   0  0  0  0  0  0  0  0  0  0  0  0
    5.3916   -1.1138    0.7352 C   0  0  0  0  0  0  0  0  0  0  0  0
    4.4675   -0.4793   -0.0907 C   0  0  0  0  0  0  0  0  0  0  0  0
   -3.6321    1.1694    0.6591 C   0  0  0  0  0  0  0  0  0  0  0  0
   -4.8671    0.3055    0.6635 C   0  0  0  0  0  0  0  0  0  0  0  0
   -6.1411    0.8932    0.7382 C   0  0  0  0  0  0  0  0  0  0  0  0
   -7.2882    0.0938    0.7138 C   0  0  0  0  0  0  0  0  0  0  0  0
   -7.1721   -1.2949    0.6073 C   0  0  0  0  0  0  0  0  0  0  0  0
   -5.9088   -1.8864    0.5219 C   0  0  0  0  0  0  0  0  0  0  0  0
   -4.7591   -1.0907    0.5461 C   0  0  0  0  0  0  0  0  0  0  0  0
   -4.2264    2.2479   -1.1183 H   0  0  0  0  0  0  0  0  0  0  0  0
   -2.8625    0.9841   -2.6275 H   0  0  0  0  0  0  0  0  0  0  0  0
   -2.2257    0.0594   -1.3579 H   0  0  0  0  0  0  0  0  0  0  0  0
   -1.9569    3.1289   -1.7371 H   0  0  0  0  0  0  0  0  0  0  0  0
   -2.4889    3.5931   -0.1171 H   0  0  0  0  0  0  0  0  0  0  0  0
    0.9463    0.9607    1.1134 H   0  0  0  0  0  0  0  0  0  0  0  0
    2.9251   -0.4731   -2.4388 H   0  0  0  0  0  0  0  0  0  0  0  0
   -0.5604    1.8384   -2.8174 H   0  0  0  0  0  0  0  0  0  0  0  0
    1.6950   -1.2178    1.8022 H   0  0  0  0  0  0  0  0  0  0  0  0
    3.4215   -2.3045    3.2218 H   0  0  0  0  0  0  0  0  0  0  0  0
    6.1399   -2.7859    3.3867 H   0  0  0  0  0  0  0  0  0  0  0  0
    7.7027    0.3785   -0.3205 H   0  0  0  0  0  0  0  0  0  0  0  0
    8.6927   -1.1341   -0.2591 H   0  0  0  0  0  0  0  0  0  0  0  0
    7.2918   -1.0205   -1.3943 H   0  0  0  0  0  0  0  0  0  0  0  0
    4.7954    0.0301   -0.9880 H   0  0  0  0  0  0  0  0  0  0  0  0
   -3.7851    2.0232    1.3555 H   0  0  0  0  0  0  0  0  0  0  0  0
   -2.7633    0.5914    1.0446 H   0  0  0  0  0  0  0  0  0  0  0  0
   -6.2445    1.9687    0.8135 H   0  0  0  0  0  0  0  0  0  0  0  0
   -8.2673    0.5512    0.7746 H   0  0  0  0  0  0  0  0  0  0  0  0
   -8.0610   -1.9121    0.5873 H   0  0  0  0  0  0  0  0  0  0  0  0
   -5.8203   -2.9615    0.4341 H   0  0  0  0  0  0  0  0  0  0  0  0
   -3.7866   -1.5615    0.4712 H   0  0  0  0  0  0  0  0  0  0  0  0
  1  2  1  0
  1  3  1  0
  3  4  1  0
  4  5  1  0
  5  6  2  0
  6  7  1  0
  7  8  2  0
  8  9  1  0
  9 10  2  0
  7 11  1  0
 11 12  2  0
 12 13  1  0
 13 14  2  0
 14 15  1  0
 15 16  1  0
 16 17  2  0
 17 18  1  0
 17 19  1  0
 19 20  2  0
  1 21  1  0
 21 22  1  0
 22 23  2  0
 23 24  1  0
 24 25  2  0
 25 26  1  0
 26 27  2  0
 10  5  1  0
 20 11  1  0
 27 22  1  0
 19 14  1  0
  1 28  1  6
  2 29  1  0
  2 30  1  0
  3 31  1  0
  3 32  1  0
  6 33  1  0
  8 34  1  0
 10 35  1  0
 12 36  1  0
 13 37  1  0
 15 38  1  0
 18 39  1  0
 18 40  1  0
 18 41  1  0
 20 42  1  0
 21 43  1  0
 21 44  1  0
 23 45  1  0
 24 46  1  0
 25 47  1  0
 26 48  1  0
 27 49  1  0
M  END
$$$$
