
     RDKit          3D

 19 18  0  0  0  0  0  0  0  0999 V2000
   -1.2385    1.2730   -0.6945 C   0  0  0  0  0  0  0  0  0  0  0  0
   -0.8748   -0.1773   -0.3415 C   0  0  0  0  0  0  0  0  0  0  0  0
   -1.3292   -0.5015    1.0918 C   0  0  0  0  0  0  0  0  0  0  0  0
    0.6320   -0.4605   -0.5957 C   0  0  2  0  0  0  0  0  0  0  0  0
    0.9129   -1.8987   -0.5254 N   0  0  0  0  0  0  0  0  0  0  0  0
    1.5458    0.3272    0.3147 C   0  0  0  0  0  0  0  0  0  0  0  0
    2.0734    1.5381   -0.1232 O   0  0  0  0  0  0  0  0  0  0  0  0
    1.8127   -0.0864    1.4755 O   0  0  0  0  0  0  0  0  0  0  0  0
   -0.9414    1.5026   -1.7399 H   0  0  0  0  0  0  0  0  0  0  0  0
   -0.7307    1.9863   -0.0108 H   0  0  0  0  0  0  0  0  0  0  0  0
   -2.3361    1.4232   -0.6101 H   0  0  0  0  0  0  0  0  0  0  0  0
   -1.4563   -0.8325   -1.0282 H   0  0  0  0  0  0  0  0  0  0  0  0
   -2.4227   -0.3310    1.1885 H   0  0  0  0  0  0  0  0  0  0  0  0
   -1.1375   -1.5659    1.3372 H   0  0  0  0  0  0  0  0  0  0  0  0
   -0.8118    0.1445    1.8317 H   0  0  0  0  0  0  0  0  0  0  0  0
    0.8528   -0.1394   -1.6388 H   0  0  0  0  0  0  0  0  0  0  0  0
    1.8857   -2.0641   -0.8735 H   0  0  0  0  0  0  0  0  0  0  0  0
    0.8862   -2.2261    0.4669 H   0  0  0  0  0  0  0  0  0  0  0  0
    2.6772    2.0887    0.4754 H   0  0  0  0  0  0  0  0  0  0  0  0
  1  2  1  0
  2  3  1  0
  2  4  1  0
  4  5  1  0
  4  6  1  0
  6  7  1  0
  6  8  2  0
  1  9  1  0
  1 10  1  0
  1 11  1  0
  2 12  1  0
  3 13  1  0
  3 14  1  0
  3 15  1  0
  4 16  1  6
  5 17  1  0
  5 18  1  0
  7 19  1  0
M  END
$$$$
