
     RDKit          3D

 34 35  0  0  0  0  0  0  0  0999 V2000
   -0.9631    0.0216    1.3223 C   0  0  0  0  0  0  0  0  0  0  0  0
   -1.4761    0.0696   -0.0490 N   0  0  0  0  0  0  0  0  0  0  0  0
   -2.6329   -0.4770   -0.4904 C   0  0  0  0  0  0  0  0  0  0  0  0
   -3.6142   -1.2354    0.3567 C   0  0  0  0  0  0  0  0  0  0  0  0
   -4.6154   -0.2978    0.9511 C   0  0  0  0  0  0  0  0  0  0  0  0
   -5.6270    0.2297    0.1545 O   0  0  0  0  0  0  0  0  0  0  0  0
   -4.5322    0.0330    2.1641 O   0  0  0  0  0  0  0  0  0  0  0  0
   -2.8243   -0.1765   -1.8264 C   0  0  0  0  0  0  0  0  0  0  0  0
   -1.7297    0.5625   -2.2242 C   0  0  0  0  0  0  0  0  0  0  0  0
   -0.9079    0.6777   -1.1187 C   0  0  0  0  0  0  0  0  0  0  0  0
    0.3868    1.3894   -1.1236 C   0  0  0  0  0  0  0  0  0  0  0  0
    0.4589    2.5025   -1.7113 O   0  0  0  0  0  0  0  0  0  0  0  0
    1.6035    0.8170   -0.5003 C   0  0  0  0  0  0  0  0  0  0  0  0
    2.6265    1.6651   -0.0427 C   0  0  0  0  0  0  0  0  0  0  0  0
    3.7807    1.1336    0.5399 C   0  0  0  0  0  0  0  0  0  0  0  0
    3.9414   -0.2548    0.6541 C   0  0  0  0  0  0  0  0  0  0  0  0
    5.1617   -0.8230    1.3159 C   0  0  0  0  0  0  0  0  0  0  0  0
    2.9221   -1.1049    0.2019 C   0  0  0  0  0  0  0  0  0  0  0  0
    1.7678   -0.5747   -0.3812 C   0  0  0  0  0  0  0  0  0  0  0  0
   -1.7950    0.1180    2.0495 H   0  0  0  0  0  0  0  0  0  0  0  0
   -0.4411   -0.9426    1.4933 H   0  0  0  0  0  0  0  0  0  0  0  0
   -0.2647    0.8622    1.5130 H   0  0  0  0  0  0  0  0  0  0  0  0
   -4.1463   -1.9831   -0.2696 H   0  0  0  0  0  0  0  0  0  0  0  0
   -3.0824   -1.7939    1.1564 H   0  0  0  0  0  0  0  0  0  0  0  0
   -6.3075    0.8745    0.5384 H   0  0  0  0  0  0  0  0  0  0  0  0
   -3.6687   -0.4591   -2.4412 H   0  0  0  0  0  0  0  0  0  0  0  0
   -1.5468    0.9591   -3.2144 H   0  0  0  0  0  0  0  0  0  0  0  0
    2.5261    2.7406   -0.1212 H   0  0  0  0  0  0  0  0  0  0  0  0
    4.5493    1.8055    0.9018 H   0  0  0  0  0  0  0  0  0  0  0  0
    6.0397   -0.1624    1.1524 H   0  0  0  0  0  0  0  0  0  0  0  0
    5.4033   -1.8240    0.8992 H   0  0  0  0  0  0  0  0  0  0  0  0
    4.9788   -0.9191    2.4065 H   0  0  0  0  0  0  0  0  0  0  0  0
    3.0226   -2.1791    0.2962 H   0  0  0  0  0  0  0  0  0  0  0  0
    1.0061   -1.2541   -0.7426 H   0  0  0  0  0  0  0  0  0  0  0  0
  1  2  1  0
  2  3  1  0
  3  4  1  0
  4  5  1  0
  5  6  1  0
  5  7  2  0
  3  8  2  0
  8  9  1  0
  9 10  2  0
 10 11  1  0
 11 12  2  0
 11 13  1  0
 13 14  2  0
 14 15  1  0
 15 16  2  0
 16 17  1  0
 16 18  1  0
 18 19  2  0
 10  2  1  0
 19 13  1  0
  1 20  1  0
  1 21  1  0
  1 22  1  0
  4 23  1  0
  4 24  1  0
  6 25  1  0
  8 26  1  0
  9 27  1  0
 14 28  1  0
 15 29  1  0
 17 30  1  0
 17 31  1  0
 17 32  1  0
 18 33  1  0
 19 34  1  0
M  END
$$$$
