
     RDKit          3D

 52 52  0  0  0  0  0  0  0  0999 V2000
    6.1400    1.7982    1.2192 C   0  0  0  0  0  0  0  0  0  0  0  0
    6.4803    2.1426   -0.2307 C   0  0  0  0  0  0  0  0  0  0  0  0
    6.2950    0.9479   -1.1748 C   0  0  0  0  0  0  0  0  0  0  0  0
    4.8485    0.5707   -1.3103 C   0  0  0  0  0  0  0  0  0  0  0  0
    4.1232    1.1936   -2.1324 O   0  0  0  0  0  0  0  0  0  0  0  0
    4.3016   -0.4881   -0.5082 N   0  0  0  0  0  0  0  0  0  0  0  0
    2.8933   -0.7281   -0.3451 C   0  0  0  0  0  0  0  0  0  0  0  0
    1.9742    0.3285   -0.3016 C   0  0  0  0  0  0  0  0  0  0  0  0
    0.6157    0.0744   -0.1183 C   0  0  0  0  0  0  0  0  0  0  0  0
    0.1455   -1.2434    0.0414 C   0  0  0  0  0  0  0  0  0  0  0  0
   -1.2192   -1.5105    0.2433 O   0  0  0  0  0  0  0  0  0  0  0  0
   -2.2466   -0.5229    0.2813 C   0  0  0  0  0  0  0  0  0  0  0  0
   -3.6049   -1.2049    0.5118 C   0  0  0  0  0  0  0  0  0  0  0  0
   -3.8813   -2.1535   -0.4898 O   0  0  0  0  0  0  0  0  0  0  0  0
   -4.7487   -0.1828    0.6364 C   0  0  0  0  0  0  0  0  0  0  0  0
   -4.8877    0.6112   -0.5959 N   0  0  0  0  0  0  0  0  0  0  0  0
   -5.6337    1.8634   -0.3595 C   0  0  0  0  0  0  0  0  0  0  0  0
   -4.6697    2.9614    0.1092 C   0  0  0  0  0  0  0  0  0  0  0  0
   -6.3391    2.3205   -1.6454 C   0  0  0  0  0  0  0  0  0  0  0  0
    1.0669   -2.3178    0.0169 C   0  0  0  0  0  0  0  0  0  0  0  0
    2.4365   -2.0399   -0.1664 C   0  0  0  0  0  0  0  0  0  0  0  0
    0.6091   -3.7277    0.1770 C   0  0  0  0  0  0  0  0  0  0  0  0
    1.5505   -4.8188    0.5918 C   0  0  0  0  0  0  0  0  0  0  0  0
   -0.5874   -4.0369   -0.0724 O   0  0  0  0  0  0  0  0  0  0  0  0
    6.3633    2.6704    1.8689 H   0  0  0  0  0  0  0  0  0  0  0  0
    5.0613    1.5549    1.3199 H   0  0  0  0  0  0  0  0  0  0  0  0
    6.7464    0.9340    1.5646 H   0  0  0  0  0  0  0  0  0  0  0  0
    7.5421    2.4682   -0.2756 H   0  0  0  0  0  0  0  0  0  0  0  0
    5.8503    2.9947   -0.5676 H   0  0  0  0  0  0  0  0  0  0  0  0
    6.8880    0.0807   -0.8119 H   0  0  0  0  0  0  0  0  0  0  0  0
    6.6907    1.2191   -2.1776 H   0  0  0  0  0  0  0  0  0  0  0  0
    4.9683   -1.1601   -0.0651 H   0  0  0  0  0  0  0  0  0  0  0  0
    2.3065    1.3549   -0.3822 H   0  0  0  0  0  0  0  0  0  0  0  0
   -0.0617    0.9166   -0.0889 H   0  0  0  0  0  0  0  0  0  0  0  0
   -2.0460    0.1860    1.1143 H   0  0  0  0  0  0  0  0  0  0  0  0
   -2.2589    0.0374   -0.6791 H   0  0  0  0  0  0  0  0  0  0  0  0
   -3.5440   -1.7503    1.4789 H   0  0  0  0  0  0  0  0  0  0  0  0
   -3.7738   -1.7098   -1.3711 H   0  0  0  0  0  0  0  0  0  0  0  0
   -4.5340    0.4673    1.5124 H   0  0  0  0  0  0  0  0  0  0  0  0
   -5.6998   -0.7212    0.8504 H   0  0  0  0  0  0  0  0  0  0  0  0
   -5.4142    0.0180   -1.2803 H   0  0  0  0  0  0  0  0  0  0  0  0
   -6.4199    1.7161    0.4172 H   0  0  0  0  0  0  0  0  0  0  0  0
   -3.8699    3.1218   -0.6454 H   0  0  0  0  0  0  0  0  0  0  0  0
   -4.1947    2.6865    1.0730 H   0  0  0  0  0  0  0  0  0  0  0  0
   -5.2175    3.9158    0.2623 H   0  0  0  0  0  0  0  0  0  0  0  0
   -7.0880    1.5630   -1.9603 H   0  0  0  0  0  0  0  0  0  0  0  0
   -5.6021    2.4592   -2.4655 H   0  0  0  0  0  0  0  0  0  0  0  0
   -6.8744    3.2789   -1.4737 H   0  0  0  0  0  0  0  0  0  0  0  0
    3.1598   -2.8444   -0.1979 H   0  0  0  0  0  0  0  0  0  0  0  0
    2.1855   -5.1129   -0.2697 H   0  0  0  0  0  0  0  0  0  0  0  0
    2.1927   -4.4725    1.4288 H   0  0  0  0  0  0  0  0  0  0  0  0
    0.9825   -5.7094    0.9356 H   0  0  0  0  0  0  0  0  0  0  0  0
  1  2  1  0
  2  3  1  0
  3  4  1  0
  4  5  2  0
  4  6  1  0
  6  7  1  0
  7  8  2  0
  8  9  1  0
  9 10  2  0
 10 11  1  0
 11 12  1  0
 12 13  1  0
 13 14  1  0
 13 15  1  0
 15 16  1  0
 16 17  1  0
 17 18  1  0
 17 19  1  0
 10 20  1  0
 20 21  2  0
 20 22  1  0
 22 23  1  0
 22 24  2  0
 21  7  1  0
  1 25  1  0
  1 26  1  0
  1 27  1  0
  2 28  1  0
  2 29  1  0
  3 30  1  0
  3 31  1  0
  6 32  1  0
  8 33  1  0
  9 34  1  0
 12 35  1  0
 12 36  1  0
 13 37  1  0
 14 38  1  0
 15 39  1  0
 15 40  1  0
 16 41  1  0
 17 42  1  0
 18 43  1  0
 18 44  1  0
 18 45  1  0
 19 46  1  0
 19 47  1  0
 19 48  1  0
 21 49  1  0
 23 50  1  0
 23 51  1  0
 23 52  1  0
M  END
$$$$
