
     RDKit          3D

 64 68  0  0  0  0  0  0  0  0999 V2000
    3.3150   -6.0570    1.6582 C   0  0  0  0  0  0  0  0  0  0  0  0
    2.3628   -5.0437    1.3518 O   0  0  0  0  0  0  0  0  0  0  0  0
    1.4508   -4.5058    2.2733 C   0  0  0  0  0  0  0  0  0  0  0  0
    1.4005   -4.9346    3.6148 C   0  0  0  0  0  0  0  0  0  0  0  0
    0.4772   -4.3737    4.5002 C   0  0  0  0  0  0  0  0  0  0  0  0
   -0.4065   -3.3885    4.0591 C   0  0  0  0  0  0  0  0  0  0  0  0
   -0.3673   -2.9572    2.7320 C   0  0  0  0  0  0  0  0  0  0  0  0
    0.5690   -3.5051    1.8335 C   0  0  0  0  0  0  0  0  0  0  0  0
    0.6357   -3.0931    0.4924 O   0  0  0  0  0  0  0  0  0  0  0  0
    0.0701   -1.9136   -0.0106 C   0  0  0  0  0  0  0  0  0  0  0  0
    0.3569   -0.6466    0.5333 C   0  0  0  0  0  0  0  0  0  0  0  0
    1.3503   -0.4858    1.5570 N   0  0  0  0  0  0  0  0  0  0  0  0
    1.5368    0.9954    2.4399 S   0  0  0  0  0  6  0  0  0  0  0  0
    0.3176    1.2064    3.2928 O   0  0  0  0  0  0  0  0  0  0  0  0
    2.7465    0.8941    3.3250 O   0  0  0  0  0  0  0  0  0  0  0  0
    1.7417    2.3611    1.3523 C   0  0  0  0  0  0  0  0  0  0  0  0
    2.3345    2.1942    0.0954 C   0  0  0  0  0  0  0  0  0  0  0  0
    2.4215    3.2857   -0.7704 C   0  0  0  0  0  0  0  0  0  0  0  0
    1.9519    4.5419   -0.3640 C   0  0  0  0  0  0  0  0  0  0  0  0
    1.9763    5.7089   -1.3047 C   0  0  0  0  0  0  0  0  0  0  0  0
    1.3863    4.6697    0.9115 C   0  0  0  0  0  0  0  0  0  0  0  0
    1.2905    3.5875    1.7285 N   0  0  0  0  0  0  0  0  0  0  0  0
   -0.2605    0.4492    0.0181 N   0  0  0  0  0  0  0  0  0  0  0  0
   -1.1181    0.3642   -1.0324 C   0  0  0  0  0  0  0  0  0  0  0  0
   -1.3685   -0.8503   -1.5896 N   0  0  0  0  0  0  0  0  0  0  0  0
   -0.7971   -1.9851   -1.1040 C   0  0  0  0  0  0  0  0  0  0  0  0
   -1.0753   -3.2269   -1.6835 O   0  0  0  0  0  0  0  0  0  0  0  0
   -1.9521   -3.3798   -2.7948 C   0  0  0  0  0  0  0  0  0  0  0  0
   -2.0365   -4.8535   -3.1773 C   0  0  0  0  0  0  0  0  0  0  0  0
   -2.9233   -5.0285   -4.2484 O   0  0  0  0  0  0  0  0  0  0  0  0
   -1.7278    1.5910   -1.5984 C   0  0  0  0  0  0  0  0  0  0  0  0
   -2.3965    1.5520   -2.8329 C   0  0  0  0  0  0  0  0  0  0  0  0
   -2.9236    2.7263   -3.3709 C   0  0  0  0  0  0  0  0  0  0  0  0
   -2.8010    3.8998   -2.6988 N   0  0  0  0  0  0  0  0  0  0  0  0
   -2.1774    3.9791   -1.4922 C   0  0  0  0  0  0  0  0  0  0  0  0
   -1.6234    2.8206   -0.9236 C   0  0  0  0  0  0  0  0  0  0  0  0
   -2.0945    5.2865   -0.8168 C   0  0  0  0  0  0  0  0  0  0  0  0
   -2.3513    6.4627   -1.4191 N   0  0  0  0  0  0  0  0  0  0  0  0
   -2.1841    7.3765   -0.4733 N   0  0  0  0  0  0  0  0  0  0  0  0
   -1.8461    6.7915    0.6658 N   0  0  0  0  0  0  0  0  0  0  0  0
   -1.7857    5.4861    0.4760 N   0  0  0  0  0  0  0  0  0  0  0  0
    4.0106   -5.7013    2.4473 H   0  0  0  0  0  0  0  0  0  0  0  0
    2.7960   -6.9800    1.9927 H   0  0  0  0  0  0  0  0  0  0  0  0
    3.9019   -6.2902    0.7464 H   0  0  0  0  0  0  0  0  0  0  0  0
    2.0702   -5.6999    3.9825 H   0  0  0  0  0  0  0  0  0  0  0  0
    0.4438   -4.7071    5.5295 H   0  0  0  0  0  0  0  0  0  0  0  0
   -1.1260   -2.9612    4.7455 H   0  0  0  0  0  0  0  0  0  0  0  0
   -1.0729   -2.2041    2.4074 H   0  0  0  0  0  0  0  0  0  0  0  0
    2.0107   -1.2628    1.7782 H   0  0  0  0  0  0  0  0  0  0  0  0
    2.7002    1.2257   -0.2207 H   0  0  0  0  0  0  0  0  0  0  0  0
    2.8493    3.1508   -1.7560 H   0  0  0  0  0  0  0  0  0  0  0  0
    1.0232    5.7424   -1.8733 H   0  0  0  0  0  0  0  0  0  0  0  0
    2.0964    6.6600   -0.7436 H   0  0  0  0  0  0  0  0  0  0  0  0
    2.8224    5.6201   -2.0189 H   0  0  0  0  0  0  0  0  0  0  0  0
    1.0072    5.6249    1.2506 H   0  0  0  0  0  0  0  0  0  0  0  0
   -2.9651   -3.0091   -2.5249 H   0  0  0  0  0  0  0  0  0  0  0  0
   -1.5662   -2.7934   -3.6572 H   0  0  0  0  0  0  0  0  0  0  0  0
   -1.0252   -5.2384   -3.4420 H   0  0  0  0  0  0  0  0  0  0  0  0
   -2.4097   -5.4356   -2.3081 H   0  0  0  0  0  0  0  0  0  0  0  0
   -2.4433   -4.7329   -5.0657 H   0  0  0  0  0  0  0  0  0  0  0  0
   -2.4966    0.6276   -3.3879 H   0  0  0  0  0  0  0  0  0  0  0  0
   -3.4295    2.7052   -4.3268 H   0  0  0  0  0  0  0  0  0  0  0  0
   -1.1071    2.8746    0.0251 H   0  0  0  0  0  0  0  0  0  0  0  0
   -1.5656    4.7831    1.2148 H   0  0  0  0  0  0  0  0  0  0  0  0
  1  2  1  0
  2  3  1  0
  3  4  2  0
  4  5  1  0
  5  6  2  0
  6  7  1  0
  7  8  2  0
  8  9  1  0
  9 10  1  0
 10 11  1  0
 11 12  1  0
 12 13  1  0
 13 14  2  0
 13 15  2  0
 13 16  1  0
 16 17  2  0
 17 18  1  0
 18 19  2  0
 19 20  1  0
 19 21  1  0
 21 22  2  0
 11 23  2  0
 23 24  1  0
 24 25  2  0
 25 26  1  0
 26 27  1  0
 27 28  1  0
 28 29  1  0
 29 30  1  0
 24 31  1  0
 31 32  2  0
 32 33  1  0
 33 34  2  0
 34 35  1  0
 35 36  2  0
 35 37  1  0
 37 38  2  0
 38 39  1  0
 39 40  2  0
 40 41  1  0
  8  3  1  0
 26 10  2  0
 36 31  1  0
 41 37  1  0
 22 16  1  0
  1 42  1  0
  1 43  1  0
  1 44  1  0
  4 45  1  0
  5 46  1  0
  6 47  1  0
  7 48  1  0
 12 49  1  0
 17 50  1  0
 18 51  1  0
 20 52  1  0
 20 53  1  0
 20 54  1  0
 21 55  1  0
 28 56  1  0
 28 57  1  0
 29 58  1  0
 29 59  1  0
 30 60  1  0
 32 61  1  0
 33 62  1  0
 36 63  1  0
 41 64  1  0
M  END
$$$$
