
     RDKit          3D

 50 53  0  0  0  0  0  0  0  0999 V2000
   -1.5676   -1.6300    0.0484 C   0  0  2  0  0  0  0  0  0  0  0  0
   -3.0464   -2.1538    0.0847 C   0  0  0  0  0  0  0  0  0  0  0  0
   -3.9936   -1.0649    0.4852 C   0  0  0  0  0  0  0  0  0  0  0  0
   -5.3094   -1.1003    0.9374 C   0  0  0  0  0  0  0  0  0  0  0  0
   -5.7978    0.1658    1.0360 N   0  0  0  0  0  0  0  0  0  0  0  0
   -4.8020    0.9777    0.6286 C   0  0  0  0  0  0  0  0  0  0  0  0
   -4.7975    2.3652    0.4955 C   0  0  0  0  0  0  0  0  0  0  0  0
   -3.6196    2.9680   -0.0023 C   0  0  0  0  0  0  0  0  0  0  0  0
   -2.4959    2.1776   -0.3630 C   0  0  0  0  0  0  0  0  0  0  0  0
   -2.5476    0.7685   -0.2237 C   0  0  0  0  0  0  0  0  0  0  0  0
   -3.7133    0.2441    0.2874 C   0  0  0  0  0  0  0  0  0  0  0  0
   -1.4765   -0.2116   -0.5693 C   0  0  0  0  0  0  0  0  0  0  0  0
   -0.4374    0.1427   -1.3435 C   0  0  0  0  0  0  0  0  0  0  0  0
    0.6375   -0.8298   -1.7386 C   0  0  2  0  0  0  0  0  0  0  0  0
    0.6719   -2.0376   -0.7986 C   0  0  0  0  0  0  0  0  0  0  0  0
   -0.6858   -2.5966   -0.6624 N   0  0  0  0  0  0  0  0  0  0  0  0
   -0.6031   -3.8832    0.0570 C   0  0  0  0  0  0  0  0  0  0  0  0
    1.9797   -0.1486   -1.7675 C   0  0  0  0  0  0  0  0  0  0  0  0
    2.6895   -0.2289   -2.8068 O   0  0  0  0  0  0  0  0  0  0  0  0
    2.4596    0.5673   -0.6176 N   0  0  0  0  0  0  0  0  0  0  0  0
    3.7974    1.1666   -0.5655 C   0  0  1  0  0  0  0  0  0  0  0  0
    3.8299    2.2791    0.5066 C   0  0  0  0  0  0  0  0  0  0  0  0
    5.1099    3.1146    0.4639 C   0  0  0  0  0  0  0  0  0  0  0  0
    4.8437    0.0678   -0.3079 C   0  0  0  0  0  0  0  0  0  0  0  0
    4.6159   -0.5443    0.9323 O   0  0  0  0  0  0  0  0  0  0  0  0
   -1.2282   -1.5268    1.1055 H   0  0  0  0  0  0  0  0  0  0  0  0
   -3.1457   -2.9832    0.8159 H   0  0  0  0  0  0  0  0  0  0  0  0
   -3.3374   -2.5220   -0.9224 H   0  0  0  0  0  0  0  0  0  0  0  0
   -5.8811   -1.9922    1.1577 H   0  0  0  0  0  0  0  0  0  0  0  0
   -6.7576    0.4459    1.3368 H   0  0  0  0  0  0  0  0  0  0  0  0
   -5.6631    2.9585    0.7598 H   0  0  0  0  0  0  0  0  0  0  0  0
   -3.5752    4.0436   -0.1126 H   0  0  0  0  0  0  0  0  0  0  0  0
   -1.6075    2.6728   -0.7284 H   0  0  0  0  0  0  0  0  0  0  0  0
   -0.4062    1.1225   -1.8011 H   0  0  0  0  0  0  0  0  0  0  0  0
    0.3932   -1.1930   -2.7618 H   0  0  0  0  0  0  0  0  0  0  0  0
    1.0771   -1.7504    0.2001 H   0  0  0  0  0  0  0  0  0  0  0  0
    1.3603   -2.7920   -1.2430 H   0  0  0  0  0  0  0  0  0  0  0  0
   -0.3137   -3.7361    1.1213 H   0  0  0  0  0  0  0  0  0  0  0  0
    0.1385   -4.5565   -0.4252 H   0  0  0  0  0  0  0  0  0  0  0  0
   -1.5719   -4.4200    0.0047 H   0  0  0  0  0  0  0  0  0  0  0  0
    1.8341    0.6464    0.2168 H   0  0  0  0  0  0  0  0  0  0  0  0
    4.0143    1.6385   -1.5500 H   0  0  0  0  0  0  0  0  0  0  0  0
    3.7075    1.8446    1.5225 H   0  0  0  0  0  0  0  0  0  0  0  0
    2.9713    2.9641    0.3317 H   0  0  0  0  0  0  0  0  0  0  0  0
    5.2891    3.5023   -0.5613 H   0  0  0  0  0  0  0  0  0  0  0  0
    5.9832    2.5146    0.7927 H   0  0  0  0  0  0  0  0  0  0  0  0
    5.0088    3.9784    1.1543 H   0  0  0  0  0  0  0  0  0  0  0  0
    4.7807   -0.6959   -1.1145 H   0  0  0  0  0  0  0  0  0  0  0  0
    5.8684    0.4972   -0.3385 H   0  0  0  0  0  0  0  0  0  0  0  0
    5.3199   -1.2367    1.0313 H   0  0  0  0  0  0  0  0  0  0  0  0
  1  2  1  0
  2  3  1  0
  3  4  2  0
  4  5  1  0
  5  6  1  0
  6  7  2  0
  7  8  1  0
  8  9  2  0
  9 10  1  0
 10 11  2  0
 10 12  1  0
 12 13  2  0
 13 14  1  0
 14 15  1  0
 15 16  1  0
 16 17  1  0
 14 18  1  0
 18 19  2  0
 18 20  1  0
 20 21  1  0
 21 22  1  0
 22 23  1  0
 21 24  1  0
 24 25  1  0
 12  1  1  0
 16  1  1  0
 11  3  1  0
 11  6  1  0
  1 26  1  1
  2 27  1  0
  2 28  1  0
  4 29  1  0
  5 30  1  0
  7 31  1  0
  8 32  1  0
  9 33  1  0
 13 34  1  0
 14 35  1  6
 15 36  1  0
 15 37  1  0
 17 38  1  0
 17 39  1  0
 17 40  1  0
 20 41  1  0
 21 42  1  6
 22 43  1  0
 22 44  1  0
 23 45  1  0
 23 46  1  0
 23 47  1  0
 24 48  1  0
 24 49  1  0
 25 50  1  0
M  END
$$$$
