
     RDKit          3D

 28 30  0  0  0  0  0  0  0  0999 V2000
    4.5256    1.2863    0.7000 N   0  0  0  0  0  0  0  0  0  0  0  0
    3.6005    0.3771    0.1037 C   0  0  0  0  0  0  0  0  0  0  0  0
    4.0353   -0.7944   -0.4501 N   0  0  0  0  0  0  0  0  0  0  0  0
    3.1599   -1.6836   -1.0210 C   0  0  0  0  0  0  0  0  0  0  0  0
    1.8194   -1.4159   -1.0502 N   0  0  0  0  0  0  0  0  0  0  0  0
    1.3927   -0.2508   -0.5051 C   0  0  0  0  0  0  0  0  0  0  0  0
    2.2357    0.6395    0.0661 C   0  0  0  0  0  0  0  0  0  0  0  0
    1.5526    1.6919    0.5542 N   0  0  0  0  0  0  0  0  0  0  0  0
    0.2635    1.3831    0.2423 C   0  0  0  0  0  0  0  0  0  0  0  0
    0.1354    0.2004   -0.4184 N   0  0  0  0  0  0  0  0  0  0  0  0
   -1.0947   -0.4831   -0.8332 C   0  0  2  0  0  0  0  0  0  0  0  0
   -2.0235    0.4672   -1.5077 C   0  0  0  0  0  0  0  0  0  0  0  0
   -3.1403    0.6531   -0.8246 C   0  0  0  0  0  0  0  0  0  0  0  0
   -3.1760   -0.1312    0.4426 C   0  0  2  0  0  0  0  0  0  0  0  0
   -3.1349    0.7375    1.5436 O   0  0  0  0  0  0  0  0  0  0  0  0
   -1.8933   -0.9886    0.3899 C   0  0  1  0  0  0  0  0  0  0  0  0
   -2.2023   -2.3557    0.2621 O   0  0  0  0  0  0  0  0  0  0  0  0
    4.2002    2.1826    1.1259 H   0  0  0  0  0  0  0  0  0  0  0  0
    5.5451    1.0621    0.7157 H   0  0  0  0  0  0  0  0  0  0  0  0
    3.5328   -2.6036   -1.4496 H   0  0  0  0  0  0  0  0  0  0  0  0
   -0.5745    2.0138    0.5093 H   0  0  0  0  0  0  0  0  0  0  0  0
   -0.8543   -1.3121   -1.5353 H   0  0  0  0  0  0  0  0  0  0  0  0
   -1.8046    0.9715   -2.4433 H   0  0  0  0  0  0  0  0  0  0  0  0
   -3.9277    1.3283   -1.1433 H   0  0  0  0  0  0  0  0  0  0  0  0
   -4.0910   -0.7667    0.4782 H   0  0  0  0  0  0  0  0  0  0  0  0
   -4.0452    1.1238    1.6345 H   0  0  0  0  0  0  0  0  0  0  0  0
   -1.3033   -0.8615    1.3251 H   0  0  0  0  0  0  0  0  0  0  0  0
   -2.7331   -2.4710   -0.5699 H   0  0  0  0  0  0  0  0  0  0  0  0
  1  2  1  0
  2  3  2  0
  3  4  1  0
  4  5  2  0
  5  6  1  0
  6  7  2  0
  7  8  1  0
  8  9  2  0
  9 10  1  0
 10 11  1  0
 11 12  1  0
 12 13  2  0
 13 14  1  0
 14 15  1  0
 14 16  1  0
 16 17  1  0
  7  2  1  0
 16 11  1  0
 10  6  1  0
  1 18  1  0
  1 19  1  0
  4 20  1  0
  9 21  1  0
 11 22  1  6
 12 23  1  0
 13 24  1  0
 14 25  1  1
 15 26  1  0
 16 27  1  1
 17 28  1  0
M  END
$$$$
