
     RDKit          3D

 24 24  0  0  0  0  0  0  0  0999 V2000
   -1.6924    0.4220    0.2732 C   0  0  2  0  0  0  0  0  0  0  0  0
   -2.8034    0.3543   -0.5848 O   0  0  0  0  0  0  0  0  0  0  0  0
   -0.6296    1.3791   -0.3329 C   0  0  1  0  0  0  0  0  0  0  0  0
   -0.7537    2.6677    0.2170 O   0  0  0  0  0  0  0  0  0  0  0  0
    0.7997    0.8276   -0.1578 C   0  0  2  0  0  0  0  0  0  0  0  0
    2.0136    1.9185   -0.9859 S   0  0  0  0  0  0  0  0  0  0  0  0
    0.8742   -0.6135   -0.7500 C   0  0  1  0  0  0  0  0  0  0  0  0
    2.0813   -1.4042   -0.2210 C   0  0  0  0  0  0  0  0  0  0  0  0
    1.9642   -1.6292    1.1566 O   0  0  0  0  0  0  0  0  0  0  0  0
   -0.3181   -1.3861   -0.6116 O   0  0  0  0  0  0  0  0  0  0  0  0
   -1.1016   -0.9883    0.4972 C   0  0  2  0  0  0  0  0  0  0  0  0
   -2.4089   -2.2278    0.7889 S   0  0  0  0  0  0  0  0  0  0  0  0
   -2.0228    0.7961    1.2709 H   0  0  0  0  0  0  0  0  0  0  0  0
   -3.2930    1.2124   -0.4853 H   0  0  0  0  0  0  0  0  0  0  0  0
   -0.8139    1.4647   -1.4276 H   0  0  0  0  0  0  0  0  0  0  0  0
   -0.5215    2.6065    1.1806 H   0  0  0  0  0  0  0  0  0  0  0  0
    1.0473    0.8036    0.9267 H   0  0  0  0  0  0  0  0  0  0  0  0
    1.9101    2.9251   -0.0072 H   0  0  0  0  0  0  0  0  0  0  0  0
    1.0316   -0.5030   -1.8456 H   0  0  0  0  0  0  0  0  0  0  0  0
    2.1344   -2.3802   -0.7535 H   0  0  0  0  0  0  0  0  0  0  0  0
    3.0190   -0.8432   -0.4320 H   0  0  0  0  0  0  0  0  0  0  0  0
    2.7721   -2.1407    1.4218 H   0  0  0  0  0  0  0  0  0  0  0  0
   -0.4878   -0.9834    1.4253 H   0  0  0  0  0  0  0  0  0  0  0  0
   -2.8007   -2.2782   -0.5629 H   0  0  0  0  0  0  0  0  0  0  0  0
  1  2  1  0
  1  3  1  0
  3  4  1  0
  3  5  1  0
  5  6  1  0
  5  7  1  0
  7  8  1  0
  8  9  1  0
  7 10  1  0
 10 11  1  0
 11 12  1  0
 11  1  1  0
  1 13  1  1
  2 14  1  0
  3 15  1  6
  4 16  1  0
  5 17  1  1
  6 18  1  0
  7 19  1  6
  8 20  1  0
  8 21  1  0
  9 22  1  0
 11 23  1  1
 12 24  1  0
M  END
$$$$
