
     RDKit          3D

 46 47  0  0  0  0  0  0  0  0999 V2000
    5.4985   -1.4835   -1.6851 C   0  0  0  0  0  0  0  0  0  0  0  0
    4.2605   -0.9971   -0.9495 C   0  0  0  0  0  0  0  0  0  0  0  0
    4.3356    0.4136   -0.7702 O   0  0  0  0  0  0  0  0  0  0  0  0
    3.3354    1.1501   -0.1243 C   0  0  0  0  0  0  0  0  0  0  0  0
    2.2314    0.5234    0.3671 N   0  0  0  0  0  0  0  0  0  0  0  0
    1.2323    1.1931    1.0019 C   0  0  0  0  0  0  0  0  0  0  0  0
    0.0784    0.4944    1.5009 N   0  0  0  0  0  0  0  0  0  0  0  0
   -0.1102   -0.9280    1.4106 C   0  0  0  0  0  0  0  0  0  0  0  0
    0.7862   -1.6711    0.9270 O   0  0  0  0  0  0  0  0  0  0  0  0
   -1.4027   -1.5391    1.8598 C   0  0  0  0  0  0  0  0  0  0  0  0
   -2.4610   -1.3441    0.8037 C   0  0  0  0  0  0  0  0  0  0  0  0
   -3.3381   -0.2508    0.8967 C   0  0  0  0  0  0  0  0  0  0  0  0
   -4.3116   -0.0228   -0.0929 C   0  0  0  0  0  0  0  0  0  0  0  0
   -5.2038    1.0593   -0.0269 O   0  0  0  0  0  0  0  0  0  0  0  0
   -5.2222    2.0281    1.0165 C   0  0  0  0  0  0  0  0  0  0  0  0
   -4.3957   -0.8993   -1.1825 C   0  0  0  0  0  0  0  0  0  0  0  0
   -5.7065   -0.6260   -2.5506 Br  0  0  0  0  0  0  0  0  0  0  0  0
   -3.5184   -1.9817   -1.2891 C   0  0  0  0  0  0  0  0  0  0  0  0
   -2.5401   -2.2116   -0.3040 C   0  0  0  0  0  0  0  0  0  0  0  0
   -1.6352   -3.2827   -0.3955 O   0  0  0  0  0  0  0  0  0  0  0  0
   -1.5960   -4.2197   -1.4667 C   0  0  0  0  0  0  0  0  0  0  0  0
    1.3300    2.5805    1.1601 C   0  0  0  0  0  0  0  0  0  0  0  0
    2.4499    3.2646    0.6697 C   0  0  0  0  0  0  0  0  0  0  0  0
    2.5339    4.6861    0.8414 N   0  0  0  0  0  0  0  0  0  0  0  0
    3.4688    2.5400    0.0179 C   0  0  0  0  0  0  0  0  0  0  0  0
    4.6416    3.2006   -0.5047 C   0  0  0  0  0  0  0  0  0  0  0  0
    5.5821    3.7290   -0.9240 N   0  0  0  0  0  0  0  0  0  0  0  0
    6.4089   -1.2405   -1.0972 H   0  0  0  0  0  0  0  0  0  0  0  0
    5.4428   -2.5834   -1.8265 H   0  0  0  0  0  0  0  0  0  0  0  0
    5.5652   -0.9943   -2.6800 H   0  0  0  0  0  0  0  0  0  0  0  0
    4.2006   -1.4989    0.0407 H   0  0  0  0  0  0  0  0  0  0  0  0
    3.3562   -1.2526   -1.5436 H   0  0  0  0  0  0  0  0  0  0  0  0
   -0.6823    1.0555    1.9473 H   0  0  0  0  0  0  0  0  0  0  0  0
   -1.2614   -2.6221    2.0677 H   0  0  0  0  0  0  0  0  0  0  0  0
   -1.7155   -1.0736    2.8196 H   0  0  0  0  0  0  0  0  0  0  0  0
   -3.2537    0.4192    1.7418 H   0  0  0  0  0  0  0  0  0  0  0  0
   -4.2499    2.5631    1.0580 H   0  0  0  0  0  0  0  0  0  0  0  0
   -6.0248    2.7658    0.8116 H   0  0  0  0  0  0  0  0  0  0  0  0
   -5.4312    1.5368    1.9902 H   0  0  0  0  0  0  0  0  0  0  0  0
   -3.6046   -2.6354   -2.1461 H   0  0  0  0  0  0  0  0  0  0  0  0
   -2.5583   -4.7706   -1.5276 H   0  0  0  0  0  0  0  0  0  0  0  0
   -0.7810   -4.9486   -1.2803 H   0  0  0  0  0  0  0  0  0  0  0  0
   -1.3922   -3.6961   -2.4246 H   0  0  0  0  0  0  0  0  0  0  0  0
    0.5394    3.1252    1.6618 H   0  0  0  0  0  0  0  0  0  0  0  0
    1.7701    5.2080    1.3264 H   0  0  0  0  0  0  0  0  0  0  0  0
    3.3488    5.2370    0.4924 H   0  0  0  0  0  0  0  0  0  0  0  0
  1  2  1  0
  2  3  1  0
  3  4  1  0
  4  5  2  0
  5  6  1  0
  6  7  1  0
  7  8  1  0
  8  9  2  0
  8 10  1  0
 10 11  1  0
 11 12  2  0
 12 13  1  0
 13 14  1  0
 14 15  1  0
 13 16  2  0
 16 17  1  0
 16 18  1  0
 18 19  2  0
 19 20  1  0
 20 21  1  0
  6 22  2  0
 22 23  1  0
 23 24  1  0
 23 25  2  0
 25 26  1  0
 26 27  3  0
 25  4  1  0
 19 11  1  0
  1 28  1  0
  1 29  1  0
  1 30  1  0
  2 31  1  0
  2 32  1  0
  7 33  1  0
 10 34  1  0
 10 35  1  0
 12 36  1  0
 15 37  1  0
 15 38  1  0
 15 39  1  0
 18 40  1  0
 21 41  1  0
 21 42  1  0
 21 43  1  0
 22 44  1  0
 24 45  1  0
 24 46  1  0
M  END
$$$$
