
     RDKit          3D

 39 42  0  0  0  0  0  0  0  0999 V2000
   -3.7180    0.3732   -1.6886 C   0  0  0  0  0  0  0  0  0  0  0  0
   -3.3209   -0.1211   -0.2851 C   0  0  0  0  0  0  0  0  0  0  0  0
   -3.9422    0.7974    0.7835 C   0  0  0  0  0  0  0  0  0  0  0  0
   -3.8597   -1.5539   -0.0880 C   0  0  0  0  0  0  0  0  0  0  0  0
   -1.8080   -0.0921   -0.1530 C   0  0  0  0  0  0  0  0  0  0  0  0
   -1.0530   -1.1918    0.1013 N   0  0  0  0  0  0  0  0  0  0  0  0
    0.2033   -0.7064    0.1293 C   0  0  0  0  0  0  0  0  0  0  0  0
    1.3766   -1.4130    0.3776 C   0  0  0  0  0  0  0  0  0  0  0  0
    1.3334   -2.7917    0.6402 C   0  0  0  0  0  0  0  0  0  0  0  0
    2.4997   -3.4832    0.9490 C   0  0  0  0  0  0  0  0  0  0  0  0
    3.7119   -2.8048    1.0231 C   0  0  0  0  0  0  0  0  0  0  0  0
    4.8368   -3.4777    1.3713 F   0  0  0  0  0  0  0  0  0  0  0  0
    3.7752   -1.4329    0.7604 C   0  0  0  0  0  0  0  0  0  0  0  0
    2.6184   -0.6994    0.3860 C   0  0  0  0  0  0  0  0  0  0  0  0
    2.6260    0.7169    0.0634 C   0  0  0  0  0  0  0  0  0  0  0  0
    3.8045    1.5061   -0.1109 C   0  0  0  0  0  0  0  0  0  0  0  0
    4.9524    0.9926   -0.1042 O   0  0  0  0  0  0  0  0  0  0  0  0
    3.7114    2.8465   -0.3380 N   0  0  0  0  0  0  0  0  0  0  0  0
    2.5210    3.4815   -0.4591 C   0  0  0  0  0  0  0  0  0  0  0  0
    1.3363    2.7664   -0.3778 C   0  0  0  0  0  0  0  0  0  0  0  0
    1.3747    1.3874   -0.1341 C   0  0  0  0  0  0  0  0  0  0  0  0
    0.1983    0.6325   -0.0943 C   0  0  0  0  0  0  0  0  0  0  0  0
   -1.0700    1.0382   -0.2776 N   0  0  0  0  0  0  0  0  0  0  0  0
   -3.2540   -0.2653   -2.4715 H   0  0  0  0  0  0  0  0  0  0  0  0
   -3.3859    1.4209   -1.8510 H   0  0  0  0  0  0  0  0  0  0  0  0
   -4.8215    0.3395   -1.8180 H   0  0  0  0  0  0  0  0  0  0  0  0
   -3.6412    0.4684    1.8018 H   0  0  0  0  0  0  0  0  0  0  0  0
   -5.0519    0.7752    0.7221 H   0  0  0  0  0  0  0  0  0  0  0  0
   -3.6126    1.8495    0.6454 H   0  0  0  0  0  0  0  0  0  0  0  0
   -3.4334   -2.2417   -0.8503 H   0  0  0  0  0  0  0  0  0  0  0  0
   -4.9669   -1.5743   -0.1846 H   0  0  0  0  0  0  0  0  0  0  0  0
   -3.5936   -1.9378    0.9208 H   0  0  0  0  0  0  0  0  0  0  0  0
    0.3954   -3.3337    0.6189 H   0  0  0  0  0  0  0  0  0  0  0  0
    2.4591   -4.5449    1.1562 H   0  0  0  0  0  0  0  0  0  0  0  0
    4.7374   -0.9819    0.9124 H   0  0  0  0  0  0  0  0  0  0  0  0
    4.5854    3.4103   -0.4443 H   0  0  0  0  0  0  0  0  0  0  0  0
    2.4933    4.5477   -0.6466 H   0  0  0  0  0  0  0  0  0  0  0  0
    0.4036    3.2972   -0.5095 H   0  0  0  0  0  0  0  0  0  0  0  0
   -1.4213    2.0003   -0.4764 H   0  0  0  0  0  0  0  0  0  0  0  0
  1  2  1  0
  2  3  1  0
  2  4  1  0
  2  5  1  0
  5  6  2  0
  6  7  1  0
  7  8  2  0
  8  9  1  0
  9 10  2  0
 10 11  1  0
 11 12  1  0
 11 13  2  0
 13 14  1  0
 14 15  2  0
 15 16  1  0
 16 17  2  0
 16 18  1  0
 18 19  1  0
 19 20  2  0
 20 21  1  0
 21 22  2  0
 22 23  1  0
 23  5  1  0
 22  7  1  0
 14  8  1  0
 21 15  1  0
  1 24  1  0
  1 25  1  0
  1 26  1  0
  3 27  1  0
  3 28  1  0
  3 29  1  0
  4 30  1  0
  4 31  1  0
  4 32  1  0
  9 33  1  0
 10 34  1  0
 13 35  1  0
 18 36  1  0
 19 37  1  0
 20 38  1  0
 23 39  1  0
M  END
$$$$
