
     RDKit          3D

 32 34  0  0  0  0  0  0  0  0999 V2000
   -7.4911    1.1461    0.1629 F   0  0  0  0  0  0  0  0  0  0  0  0
   -6.2807    0.7772   -0.3235 C   0  0  0  0  0  0  0  0  0  0  0  0
   -5.2025    0.5676    0.5494 C   0  0  0  0  0  0  0  0  0  0  0  0
   -4.0110    0.1985    0.0152 N   0  0  0  0  0  0  0  0  0  0  0  0
   -2.8400   -0.0540    0.6144 C   0  0  0  0  0  0  0  0  0  0  0  0
   -1.9437   -0.3890   -0.3887 C   0  0  0  0  0  0  0  0  0  0  0  0
   -0.4910   -0.6908   -0.1925 C   0  0  0  0  0  0  0  0  0  0  0  0
    0.3321    0.5969   -0.2355 C   0  0  0  0  0  0  0  0  0  0  0  0
    1.7558    0.2996   -0.0467 C   0  0  0  0  0  0  0  0  0  0  0  0
    2.9260    0.0548    0.1088 C   0  0  0  0  0  0  0  0  0  0  0  0
    4.3205   -0.2380    0.2943 C   0  0  0  0  0  0  0  0  0  0  0  0
    5.1220    0.6006    1.0782 C   0  0  0  0  0  0  0  0  0  0  0  0
    6.4745    0.2926    1.2424 C   0  0  0  0  0  0  0  0  0  0  0  0
    7.0087   -0.8413    0.6267 C   0  0  0  0  0  0  0  0  0  0  0  0
    6.1768   -1.6539   -0.1479 C   0  0  0  0  0  0  0  0  0  0  0  0
    4.8620   -1.3377   -0.2963 N   0  0  0  0  0  0  0  0  0  0  0  0
   -2.5427   -0.3307   -1.6038 N   0  0  0  0  0  0  0  0  0  0  0  0
   -3.8077    0.0262   -1.3019 C   0  0  0  0  0  0  0  0  0  0  0  0
   -4.8414    0.2223   -2.2156 C   0  0  0  0  0  0  0  0  0  0  0  0
   -6.0954    0.6029   -1.7094 C   0  0  0  0  0  0  0  0  0  0  0  0
   -5.3179    0.6968    1.6184 H   0  0  0  0  0  0  0  0  0  0  0  0
   -2.6494    0.0086    1.6784 H   0  0  0  0  0  0  0  0  0  0  0  0
   -0.3501   -1.1989    0.7870 H   0  0  0  0  0  0  0  0  0  0  0  0
   -0.1528   -1.3828   -0.9948 H   0  0  0  0  0  0  0  0  0  0  0  0
    0.0020    1.2868    0.5706 H   0  0  0  0  0  0  0  0  0  0  0  0
    0.1998    1.1008   -1.2170 H   0  0  0  0  0  0  0  0  0  0  0  0
    4.7061    1.4799    1.5552 H   0  0  0  0  0  0  0  0  0  0  0  0
    7.1070    0.9311    1.8453 H   0  0  0  0  0  0  0  0  0  0  0  0
    8.0554   -1.0880    0.7482 H   0  0  0  0  0  0  0  0  0  0  0  0
    6.5761   -2.5356   -0.6310 H   0  0  0  0  0  0  0  0  0  0  0  0
   -4.6851    0.0875   -3.2782 H   0  0  0  0  0  0  0  0  0  0  0  0
   -6.9223    0.7639   -2.3889 H   0  0  0  0  0  0  0  0  0  0  0  0
  1  2  1  0
  2  3  2  0
  3  4  1  0
  4  5  1  0
  5  6  2  0
  6  7  1  0
  7  8  1  0
  8  9  1  0
  9 10  3  0
 10 11  1  0
 11 12  2  0
 12 13  1  0
 13 14  2  0
 14 15  1  0
 15 16  2  0
  6 17  1  0
 17 18  2  0
 18 19  1  0
 19 20  2  0
 20  2  1  0
 18  4  1  0
 16 11  1  0
  3 21  1  0
  5 22  1  0
  7 23  1  0
  7 24  1  0
  8 25  1  0
  8 26  1  0
 12 27  1  0
 13 28  1  0
 14 29  1  0
 15 30  1  0
 19 31  1  0
 20 32  1  0
M  END
$$$$
