
     RDKit          3D

 47 50  0  0  0  0  0  0  0  0999 V2000
    8.6346    0.6833    0.5630 C   0  0  0  0  0  0  0  0  0  0  0  0
    7.4517   -0.1041    0.6518 O   0  0  0  0  0  0  0  0  0  0  0  0
    6.2053    0.2800    0.1362 C   0  0  0  0  0  0  0  0  0  0  0  0
    6.0108    1.5195   -0.5371 C   0  0  0  0  0  0  0  0  0  0  0  0
    4.7460    1.8683   -1.0452 C   0  0  0  0  0  0  0  0  0  0  0  0
    3.7013    0.9680   -0.8633 C   0  0  0  0  0  0  0  0  0  0  0  0
    2.4297    1.0937   -1.2851 N   0  0  0  0  0  0  0  0  0  0  0  0
    1.8535   -0.0640   -0.8666 C   0  0  0  0  0  0  0  0  0  0  0  0
    0.4113   -0.3767   -1.1136 C   0  0  0  0  0  0  0  0  0  0  0  0
   -0.3149   -0.2328    0.1032 O   0  0  0  0  0  0  0  0  0  0  0  0
   -1.6903   -0.4703    0.2385 C   0  0  0  0  0  0  0  0  0  0  0  0
   -2.4976   -0.8721   -0.8423 C   0  0  0  0  0  0  0  0  0  0  0  0
   -3.8649   -1.0943   -0.6559 C   0  0  0  0  0  0  0  0  0  0  0  0
   -4.4485   -0.9177    0.6087 C   0  0  0  0  0  0  0  0  0  0  0  0
   -5.9334   -1.1277    0.8020 C   0  0  0  0  0  0  0  0  0  0  0  0
   -6.7731    0.1324    0.5148 C   0  0  0  0  0  0  0  0  0  0  0  0
   -6.3235    1.5174    1.6451 S   0  0  0  0  0  0  0  0  0  0  0  0
   -5.7730    2.4808    0.2448 C   0  0  0  0  0  0  0  0  0  0  0  0
   -5.1882    3.5873    0.3746 O   0  0  0  0  0  0  0  0  0  0  0  0
   -6.0164    1.9094   -1.0242 N   0  0  0  0  0  0  0  0  0  0  0  0
   -6.5984    0.6272   -0.8901 C   0  0  0  0  0  0  0  0  0  0  0  0
   -6.9490   -0.0465   -1.8950 O   0  0  0  0  0  0  0  0  0  0  0  0
   -3.6402   -0.5210    1.6857 C   0  0  0  0  0  0  0  0  0  0  0  0
   -2.2732   -0.2991    1.4989 C   0  0  0  0  0  0  0  0  0  0  0  0
    2.7077   -0.8775   -0.1884 N   0  0  0  0  0  0  0  0  0  0  0  0
    2.4518   -2.2184    0.3360 C   0  0  0  0  0  0  0  0  0  0  0  0
    3.8774   -0.2175   -0.2136 C   0  0  0  0  0  0  0  0  0  0  0  0
    5.1183   -0.6025    0.2973 C   0  0  0  0  0  0  0  0  0  0  0  0
    8.8987    0.8568   -0.5016 H   0  0  0  0  0  0  0  0  0  0  0  0
    9.4691    0.1403    1.0520 H   0  0  0  0  0  0  0  0  0  0  0  0
    8.4878    1.6530    1.0838 H   0  0  0  0  0  0  0  0  0  0  0  0
    6.8296    2.2124   -0.6737 H   0  0  0  0  0  0  0  0  0  0  0  0
    4.5925    2.8055   -1.5647 H   0  0  0  0  0  0  0  0  0  0  0  0
    0.3209   -1.4174   -1.4921 H   0  0  0  0  0  0  0  0  0  0  0  0
    0.0054    0.3218   -1.8770 H   0  0  0  0  0  0  0  0  0  0  0  0
   -2.0796   -1.0139   -1.8295 H   0  0  0  0  0  0  0  0  0  0  0  0
   -4.4697   -1.4022   -1.4997 H   0  0  0  0  0  0  0  0  0  0  0  0
   -6.1314   -1.4595    1.8446 H   0  0  0  0  0  0  0  0  0  0  0  0
   -6.2799   -1.9541    0.1431 H   0  0  0  0  0  0  0  0  0  0  0  0
   -7.8459   -0.1078    0.6753 H   0  0  0  0  0  0  0  0  0  0  0  0
   -5.7845    2.3643   -1.9351 H   0  0  0  0  0  0  0  0  0  0  0  0
   -4.0691   -0.3789    2.6699 H   0  0  0  0  0  0  0  0  0  0  0  0
   -1.6627    0.0092    2.3383 H   0  0  0  0  0  0  0  0  0  0  0  0
    2.7348   -2.9750   -0.4252 H   0  0  0  0  0  0  0  0  0  0  0  0
    1.3792   -2.3407    0.5922 H   0  0  0  0  0  0  0  0  0  0  0  0
    3.0412   -2.3882    1.2610 H   0  0  0  0  0  0  0  0  0  0  0  0
    5.2488   -1.5505    0.8022 H   0  0  0  0  0  0  0  0  0  0  0  0
  1  2  1  0
  2  3  1  0
  3  4  2  0
  4  5  1  0
  5  6  2  0
  6  7  1  0
  7  8  2  0
  8  9  1  0
  9 10  1  0
 10 11  1  0
 11 12  2  0
 12 13  1  0
 13 14  2  0
 14 15  1  0
 15 16  1  0
 16 17  1  0
 17 18  1  0
 18 19  2  0
 18 20  1  0
 20 21  1  0
 21 22  2  0
 14 23  1  0
 23 24  2  0
  8 25  1  0
 25 26  1  0
 25 27  1  0
 27 28  2  0
 28  3  1  0
 27  6  1  0
 24 11  1  0
 21 16  1  0
  1 29  1  0
  1 30  1  0
  1 31  1  0
  4 32  1  0
  5 33  1  0
  9 34  1  0
  9 35  1  0
 12 36  1  0
 13 37  1  0
 15 38  1  0
 15 39  1  0
 16 40  1  0
 20 41  1  0
 23 42  1  0
 24 43  1  0
 26 44  1  0
 26 45  1  0
 26 46  1  0
 28 47  1  0
M  END
$$$$
