
     RDKit          3D

 39 42  0  0  0  0  0  0  0  0999 V2000
   -3.6414   -2.1095   -1.3882 C   0  0  0  0  0  0  0  0  0  0  0  0
   -3.6633   -1.1354   -0.2089 C   0  0  0  0  0  0  0  0  0  0  0  0
   -3.7486   -1.8865    1.1227 C   0  0  0  0  0  0  0  0  0  0  0  0
   -2.4682   -0.2879   -0.2402 N   0  0  0  0  0  0  0  0  0  0  0  0
   -1.2378   -0.7117    0.0298 N   0  0  0  0  0  0  0  0  0  0  0  0
   -0.3778    0.3195   -0.1661 C   0  0  0  0  0  0  0  0  0  0  0  0
   -1.1051    1.4339   -0.5747 C   0  0  0  0  0  0  0  0  0  0  0  0
   -0.8188    2.7669   -0.8890 C   0  0  0  0  0  0  0  0  0  0  0  0
    0.4764    3.3415   -0.7103 N   0  0  0  0  0  0  0  0  0  0  0  0
   -1.8562    3.5546   -1.3020 N   0  0  0  0  0  0  0  0  0  0  0  0
   -3.1365    3.0746   -1.3866 C   0  0  0  0  0  0  0  0  0  0  0  0
   -3.4175    1.7866   -1.0325 N   0  0  0  0  0  0  0  0  0  0  0  0
   -2.3946    0.9969   -0.6253 C   0  0  0  0  0  0  0  0  0  0  0  0
    1.0837    0.1600   -0.0816 C   0  0  0  0  0  0  0  0  0  0  0  0
    1.6509   -0.4715    1.0360 C   0  0  0  0  0  0  0  0  0  0  0  0
    3.0380   -0.6662    1.1071 C   0  0  0  0  0  0  0  0  0  0  0  0
    3.6311   -1.2782    2.2192 C   0  0  0  0  0  0  0  0  0  0  0  0
    5.0158   -1.4558    2.2570 C   0  0  0  0  0  0  0  0  0  0  0  0
    5.7950   -1.0210    1.1819 C   0  0  0  0  0  0  0  0  0  0  0  0
    5.2082   -0.4301    0.1068 N   0  0  0  0  0  0  0  0  0  0  0  0
    3.8622   -0.2421    0.0410 C   0  0  0  0  0  0  0  0  0  0  0  0
    3.2913    0.3632   -1.0827 C   0  0  0  0  0  0  0  0  0  0  0  0
    1.9082    0.5545   -1.1485 C   0  0  0  0  0  0  0  0  0  0  0  0
   -4.5635   -2.7289   -1.3917 H   0  0  0  0  0  0  0  0  0  0  0  0
   -3.5953   -1.5431   -2.3426 H   0  0  0  0  0  0  0  0  0  0  0  0
   -2.7563   -2.7785   -1.3265 H   0  0  0  0  0  0  0  0  0  0  0  0
   -4.5735   -0.5017   -0.2986 H   0  0  0  0  0  0  0  0  0  0  0  0
   -3.7513   -1.1612    1.9640 H   0  0  0  0  0  0  0  0  0  0  0  0
   -4.6869   -2.4796    1.1679 H   0  0  0  0  0  0  0  0  0  0  0  0
   -2.8837   -2.5733    1.2444 H   0  0  0  0  0  0  0  0  0  0  0  0
    0.6629    4.3128   -1.0446 H   0  0  0  0  0  0  0  0  0  0  0  0
    1.1990    2.8831   -0.1155 H   0  0  0  0  0  0  0  0  0  0  0  0
   -3.9332    3.7260   -1.7182 H   0  0  0  0  0  0  0  0  0  0  0  0
    1.0139   -0.8001    1.8498 H   0  0  0  0  0  0  0  0  0  0  0  0
    3.0279   -1.6158    3.0535 H   0  0  0  0  0  0  0  0  0  0  0  0
    5.4819   -1.9270    3.1127 H   0  0  0  0  0  0  0  0  0  0  0  0
    6.8683   -1.1546    1.2019 H   0  0  0  0  0  0  0  0  0  0  0  0
    3.9158    0.6800   -1.9088 H   0  0  0  0  0  0  0  0  0  0  0  0
    1.4789    1.0056   -2.0347 H   0  0  0  0  0  0  0  0  0  0  0  0
  1  2  1  0
  2  3  1  0
  2  4  1  0
  4  5  1  0
  5  6  2  0
  6  7  1  0
  7  8  2  0
  8  9  1  0
  8 10  1  0
 10 11  2  0
 11 12  1  0
 12 13  2  0
  6 14  1  0
 14 15  2  0
 15 16  1  0
 16 17  2  0
 17 18  1  0
 18 19  2  0
 19 20  1  0
 20 21  2  0
 21 22  1  0
 22 23  2  0
 13  4  1  0
 23 14  1  0
 13  7  1  0
 21 16  1  0
  1 24  1  0
  1 25  1  0
  1 26  1  0
  2 27  1  0
  3 28  1  0
  3 29  1  0
  3 30  1  0
  9 31  1  0
  9 32  1  0
 11 33  1  0
 15 34  1  0
 17 35  1  0
 18 36  1  0
 19 37  1  0
 22 38  1  0
 23 39  1  0
M  END
$$$$
