
     RDKit          3D

 47 49  0  0  0  0  0  0  0  0999 V2000
   10.0551   -0.3041   -2.1238 Br  0  0  0  0  0  0  0  0  0  0  0  0
    8.3275   -0.1172   -1.3314 C   0  0  0  0  0  0  0  0  0  0  0  0
    8.1807   -0.2026    0.0554 C   0  0  0  0  0  0  0  0  0  0  0  0
    6.9165   -0.0679    0.6368 C   0  0  0  0  0  0  0  0  0  0  0  0
    5.7831    0.1640   -0.1614 C   0  0  0  0  0  0  0  0  0  0  0  0
    4.4620    0.2900    0.5018 C   0  0  0  0  0  0  0  0  0  0  0  0
    3.3916    0.8603   -0.0660 C   0  0  0  0  0  0  0  0  0  0  0  0
    2.0913    0.9698    0.6720 C   0  0  0  0  0  0  0  0  0  0  0  0
    1.5405   -0.3706    0.9108 N   0  0  0  0  0  0  0  0  0  0  0  0
    0.4455   -0.3597    1.8936 C   0  0  0  0  0  0  0  0  0  0  0  0
   -0.8465    0.2554    1.3313 C   0  0  0  0  0  0  0  0  0  0  0  0
   -1.9281    0.1432    2.3149 N   0  0  0  0  0  0  0  0  0  0  0  0
   -3.4153    0.7689    1.6585 S   0  0  0  0  0  6  0  0  0  0  0  0
   -4.3860    0.9419    2.7925 O   0  0  0  0  0  0  0  0  0  0  0  0
   -3.1393    2.1124    1.0406 O   0  0  0  0  0  0  0  0  0  0  0  0
   -4.1609   -0.2957    0.4387 C   0  0  0  0  0  0  0  0  0  0  0  0
   -3.6080   -1.5671    0.1985 C   0  0  0  0  0  0  0  0  0  0  0  0
   -4.1501   -2.4166   -0.7650 C   0  0  0  0  0  0  0  0  0  0  0  0
   -5.2615   -2.0238   -1.5041 C   0  0  0  0  0  0  0  0  0  0  0  0
   -5.8524   -0.7764   -1.2740 C   0  0  0  0  0  0  0  0  0  0  0  0
   -5.3159    0.0996   -0.2936 C   0  0  0  0  0  0  0  0  0  0  0  0
   -5.9651    1.3332   -0.0795 C   0  0  0  0  0  0  0  0  0  0  0  0
   -7.0898    1.6707   -0.8345 C   0  0  0  0  0  0  0  0  0  0  0  0
   -7.5687    0.8146   -1.7720 N   0  0  0  0  0  0  0  0  0  0  0  0
   -6.9834   -0.3873   -2.0060 C   0  0  0  0  0  0  0  0  0  0  0  0
    5.9402    0.2334   -1.5613 C   0  0  0  0  0  0  0  0  0  0  0  0
    7.2069    0.0973   -2.1381 C   0  0  0  0  0  0  0  0  0  0  0  0
    9.0451   -0.3743    0.6839 H   0  0  0  0  0  0  0  0  0  0  0  0
    6.8243   -0.1372    1.7140 H   0  0  0  0  0  0  0  0  0  0  0  0
    4.3734   -0.0688    1.5216 H   0  0  0  0  0  0  0  0  0  0  0  0
    3.4461    1.2921   -1.0558 H   0  0  0  0  0  0  0  0  0  0  0  0
    2.2711    1.5038    1.6317 H   0  0  0  0  0  0  0  0  0  0  0  0
    1.3860    1.5721    0.0589 H   0  0  0  0  0  0  0  0  0  0  0  0
    1.1925   -0.7650    0.0048 H   0  0  0  0  0  0  0  0  0  0  0  0
    0.7540    0.1801    2.8162 H   0  0  0  0  0  0  0  0  0  0  0  0
    0.2415   -1.4115    2.1888 H   0  0  0  0  0  0  0  0  0  0  0  0
   -0.6682    1.3289    1.1125 H   0  0  0  0  0  0  0  0  0  0  0  0
   -1.1209   -0.2583    0.3852 H   0  0  0  0  0  0  0  0  0  0  0  0
   -2.0790   -0.8577    2.5735 H   0  0  0  0  0  0  0  0  0  0  0  0
   -2.7514   -1.9207    0.7497 H   0  0  0  0  0  0  0  0  0  0  0  0
   -3.7043   -3.3876   -0.9391 H   0  0  0  0  0  0  0  0  0  0  0  0
   -5.6655   -2.6993   -2.2490 H   0  0  0  0  0  0  0  0  0  0  0  0
   -5.6308    2.0391    0.6654 H   0  0  0  0  0  0  0  0  0  0  0  0
   -7.5864    2.6179   -0.6711 H   0  0  0  0  0  0  0  0  0  0  0  0
   -7.4049   -1.0396   -2.7609 H   0  0  0  0  0  0  0  0  0  0  0  0
    5.0924    0.3685   -2.2180 H   0  0  0  0  0  0  0  0  0  0  0  0
    7.3152    0.1518   -3.2138 H   0  0  0  0  0  0  0  0  0  0  0  0
  1  2  1  0
  2  3  2  0
  3  4  1  0
  4  5  2  0
  5  6  1  0
  6  7  2  0
  7  8  1  0
  8  9  1  0
  9 10  1  0
 10 11  1  0
 11 12  1  0
 12 13  1  0
 13 14  2  0
 13 15  2  0
 13 16  1  0
 16 17  2  0
 17 18  1  0
 18 19  2  0
 19 20  1  0
 20 21  2  0
 21 22  1  0
 22 23  2  0
 23 24  1  0
 24 25  2  0
  5 26  1  0
 26 27  2  0
 27  2  1  0
 21 16  1  0
 25 20  1  0
  3 28  1  0
  4 29  1  0
  6 30  1  0
  7 31  1  0
  8 32  1  0
  8 33  1  0
  9 34  1  0
 10 35  1  0
 10 36  1  0
 11 37  1  0
 11 38  1  0
 12 39  1  0
 17 40  1  0
 18 41  1  0
 19 42  1  0
 22 43  1  0
 23 44  1  0
 25 45  1  0
 26 46  1  0
 27 47  1  0
M  END
$$$$
