
     RDKit          3D

 53 55  0  0  0  0  0  0  0  0999 V2000
    5.4990    4.0119   -1.6540 O   0  0  0  0  0  0  0  0  0  0  0  0
    4.3081    3.6787   -2.3151 C   0  0  0  0  0  0  0  0  0  0  0  0
    3.3754    2.9099   -1.3840 C   0  0  0  0  0  0  0  0  0  0  0  0
    3.9677    1.6751   -1.0348 O   0  0  0  0  0  0  0  0  0  0  0  0
    3.0546    0.8755   -0.3064 C   0  0  0  0  0  0  0  0  0  0  0  0
    2.4338   -0.1835   -1.2270 C   0  0  0  0  0  0  0  0  0  0  0  0
    1.2611   -0.8373   -0.6048 N   0  0  0  0  0  0  0  0  0  0  0  0
    0.5906   -1.6995   -1.5916 C   0  0  0  0  0  0  0  0  0  0  0  0
   -0.7489   -2.2150   -1.0400 C   0  0  0  0  0  0  0  0  0  0  0  0
   -0.7785   -2.3033    0.4379 N   0  0  0  0  0  0  0  0  0  0  0  0
    0.5345   -2.5969    1.0459 C   0  0  0  0  0  0  0  0  0  0  0  0
    1.6483   -1.6311    0.5828 C   0  0  0  0  0  0  0  0  0  0  0  0
   -1.6176   -1.3133    1.1709 C   0  0  0  0  0  0  0  0  0  0  0  0
   -3.1063   -1.4614    0.8501 C   0  0  0  0  0  0  0  0  0  0  0  0
   -3.6275   -2.6790    0.3617 C   0  0  0  0  0  0  0  0  0  0  0  0
   -4.9985   -2.8280    0.1330 C   0  0  0  0  0  0  0  0  0  0  0  0
   -5.8756   -1.7821    0.4218 C   0  0  0  0  0  0  0  0  0  0  0  0
   -5.3856   -0.5910    0.9579 C   0  0  0  0  0  0  0  0  0  0  0  0
   -4.0159   -0.4362    1.1888 C   0  0  0  0  0  0  0  0  0  0  0  0
   -1.1044    0.1186    1.0226 C   0  0  0  0  0  0  0  0  0  0  0  0
   -0.3393    0.6905    2.0564 C   0  0  0  0  0  0  0  0  0  0  0  0
    0.1206    2.0066    1.9580 C   0  0  0  0  0  0  0  0  0  0  0  0
   -0.1709    2.7685    0.8236 C   0  0  0  0  0  0  0  0  0  0  0  0
    0.4170    4.4158    0.6966 Cl  0  0  0  0  0  0  0  0  0  0  0  0
   -0.9278    2.2143   -0.2113 C   0  0  0  0  0  0  0  0  0  0  0  0
   -1.3986    0.9022   -0.1124 C   0  0  0  0  0  0  0  0  0  0  0  0
    6.0766    3.2050   -1.6815 H   0  0  0  0  0  0  0  0  0  0  0  0
    3.8062    4.6171   -2.6330 H   0  0  0  0  0  0  0  0  0  0  0  0
    4.5179    3.0783   -3.2300 H   0  0  0  0  0  0  0  0  0  0  0  0
    3.1979    3.5237   -0.4722 H   0  0  0  0  0  0  0  0  0  0  0  0
    2.4079    2.7545   -1.9148 H   0  0  0  0  0  0  0  0  0  0  0  0
    3.6256    0.3636    0.4961 H   0  0  0  0  0  0  0  0  0  0  0  0
    2.2546    1.4607    0.2010 H   0  0  0  0  0  0  0  0  0  0  0  0
    3.2072   -0.9336   -1.5092 H   0  0  0  0  0  0  0  0  0  0  0  0
    2.1144    0.3323   -2.1596 H   0  0  0  0  0  0  0  0  0  0  0  0
    1.2443   -2.5628   -1.8570 H   0  0  0  0  0  0  0  0  0  0  0  0
    0.3815   -1.1353   -2.5278 H   0  0  0  0  0  0  0  0  0  0  0  0
   -0.9255   -3.2316   -1.4519 H   0  0  0  0  0  0  0  0  0  0  0  0
   -1.5816   -1.5951   -1.4260 H   0  0  0  0  0  0  0  0  0  0  0  0
    0.8215   -3.6319    0.7578 H   0  0  0  0  0  0  0  0  0  0  0  0
    0.4690   -2.5982    2.1560 H   0  0  0  0  0  0  0  0  0  0  0  0
    1.8724   -0.9397    1.4222 H   0  0  0  0  0  0  0  0  0  0  0  0
    2.5719   -2.2213    0.3838 H   0  0  0  0  0  0  0  0  0  0  0  0
   -1.5717   -1.5737    2.2520 H   0  0  0  0  0  0  0  0  0  0  0  0
   -2.9812   -3.5229    0.1611 H   0  0  0  0  0  0  0  0  0  0  0  0
   -5.3826   -3.7615   -0.2578 H   0  0  0  0  0  0  0  0  0  0  0  0
   -6.9371   -1.9015    0.2476 H   0  0  0  0  0  0  0  0  0  0  0  0
   -6.0694    0.2105    1.2063 H   0  0  0  0  0  0  0  0  0  0  0  0
   -3.6701    0.4863    1.6370 H   0  0  0  0  0  0  0  0  0  0  0  0
   -0.0973    0.1169    2.9424 H   0  0  0  0  0  0  0  0  0  0  0  0
    0.7096    2.4304    2.7612 H   0  0  0  0  0  0  0  0  0  0  0  0
   -1.1615    2.8030   -1.0891 H   0  0  0  0  0  0  0  0  0  0  0  0
   -2.0160    0.5168   -0.9104 H   0  0  0  0  0  0  0  0  0  0  0  0
  1  2  1  0
  2  3  1  0
  3  4  1  0
  4  5  1  0
  5  6  1  0
  6  7  1  0
  7  8  1  0
  8  9  1  0
  9 10  1  0
 10 11  1  0
 11 12  1  0
 10 13  1  0
 13 14  1  0
 14 15  2  0
 15 16  1  0
 16 17  2  0
 17 18  1  0
 18 19  2  0
 13 20  1  0
 20 21  2  0
 21 22  1  0
 22 23  2  0
 23 24  1  0
 23 25  1  0
 25 26  2  0
 12  7  1  0
 19 14  1  0
 26 20  1  0
  1 27  1  0
  2 28  1  0
  2 29  1  0
  3 30  1  0
  3 31  1  0
  5 32  1  0
  5 33  1  0
  6 34  1  0
  6 35  1  0
  8 36  1  0
  8 37  1  0
  9 38  1  0
  9 39  1  0
 11 40  1  0
 11 41  1  0
 12 42  1  0
 12 43  1  0
 13 44  1  0
 15 45  1  0
 16 46  1  0
 17 47  1  0
 18 48  1  0
 19 49  1  0
 21 50  1  0
 22 51  1  0
 25 52  1  0
 26 53  1  0
M  END
$$$$
