
     RDKit          3D

 43 44  0  0  0  0  0  0  0  0999 V2000
   -1.5347    0.9058   -1.5008 C   0  0  0  0  0  0  0  0  0  0  0  0
   -1.2554    1.0902   -0.0004 C   0  0  0  0  0  0  0  0  0  0  0  0
   -2.0419    2.1669    0.4569 O   0  0  0  0  0  0  0  0  0  0  0  0
   -1.5935   -0.1989    0.8024 C   0  0  0  0  0  0  0  0  0  0  0  0
   -3.3256   -0.6792    0.7585 S   0  0  0  0  0  6  0  0  0  0  0  0
   -4.2010    0.5287    0.9447 O   0  0  0  0  0  0  0  0  0  0  0  0
   -3.5917   -1.6380    1.8845 O   0  0  0  0  0  0  0  0  0  0  0  0
   -3.7150   -1.4857   -0.7604 C   0  0  0  0  0  0  0  0  0  0  0  0
   -4.7463   -1.0065   -1.5831 C   0  0  0  0  0  0  0  0  0  0  0  0
   -5.0395   -1.6507   -2.7892 C   0  0  0  0  0  0  0  0  0  0  0  0
   -4.3093   -2.7780   -3.1773 C   0  0  0  0  0  0  0  0  0  0  0  0
   -4.5946   -3.4012   -4.3471 F   0  0  0  0  0  0  0  0  0  0  0  0
   -3.2864   -3.2636   -2.3575 C   0  0  0  0  0  0  0  0  0  0  0  0
   -2.9911   -2.6214   -1.1511 C   0  0  0  0  0  0  0  0  0  0  0  0
    0.2174    1.4240    0.1768 C   0  0  0  0  0  0  0  0  0  0  0  0
    0.5548    2.5967    0.4993 O   0  0  0  0  0  0  0  0  0  0  0  0
    1.2298    0.4385   -0.0946 N   0  0  0  0  0  0  0  0  0  0  0  0
    2.6006    0.5649    0.3208 C   0  0  0  0  0  0  0  0  0  0  0  0
    2.9427    1.1838    1.5359 C   0  0  0  0  0  0  0  0  0  0  0  0
    4.2883    1.2853    1.9439 C   0  0  0  0  0  0  0  0  0  0  0  0
    5.2951    0.7333    1.1159 C   0  0  0  0  0  0  0  0  0  0  0  0
    4.9462    0.0965   -0.0811 C   0  0  0  0  0  0  0  0  0  0  0  0
    3.6103    0.0072   -0.4714 C   0  0  0  0  0  0  0  0  0  0  0  0
    6.6916    0.7976    1.4777 C   0  0  0  0  0  0  0  0  0  0  0  0
    7.8109    0.8489    1.7673 N   0  0  0  0  0  0  0  0  0  0  0  0
    4.6433    1.9607    3.2542 C   0  0  0  0  0  0  0  0  0  0  0  0
    5.5006    3.0193    3.0137 F   0  0  0  0  0  0  0  0  0  0  0  0
    3.5232    2.4500    3.9043 F   0  0  0  0  0  0  0  0  0  0  0  0
    5.2681    1.0518    4.0890 F   0  0  0  0  0  0  0  0  0  0  0  0
   -1.0908   -0.0386   -1.8815 H   0  0  0  0  0  0  0  0  0  0  0  0
   -2.6263    0.8896   -1.6943 H   0  0  0  0  0  0  0  0  0  0  0  0
   -1.1132    1.7553   -2.0807 H   0  0  0  0  0  0  0  0  0  0  0  0
   -1.8920    2.2636    1.4345 H   0  0  0  0  0  0  0  0  0  0  0  0
   -0.9924   -1.0551    0.4320 H   0  0  0  0  0  0  0  0  0  0  0  0
   -1.3138   -0.0467    1.8674 H   0  0  0  0  0  0  0  0  0  0  0  0
   -5.3191   -0.1338   -1.2982 H   0  0  0  0  0  0  0  0  0  0  0  0
   -5.8328   -1.2749   -3.4225 H   0  0  0  0  0  0  0  0  0  0  0  0
   -2.7223   -4.1380   -2.6554 H   0  0  0  0  0  0  0  0  0  0  0  0
   -2.1993   -3.0090   -0.5230 H   0  0  0  0  0  0  0  0  0  0  0  0
    0.9781   -0.3762   -0.6980 H   0  0  0  0  0  0  0  0  0  0  0  0
    2.1548    1.5623    2.1725 H   0  0  0  0  0  0  0  0  0  0  0  0
    5.7112   -0.3352   -0.7159 H   0  0  0  0  0  0  0  0  0  0  0  0
    3.3609   -0.4902   -1.4004 H   0  0  0  0  0  0  0  0  0  0  0  0
  1  2  1  0
  2  3  1  0
  2  4  1  0
  4  5  1  0
  5  6  2  0
  5  7  2  0
  5  8  1  0
  8  9  2  0
  9 10  1  0
 10 11  2  0
 11 12  1  0
 11 13  1  0
 13 14  2  0
  2 15  1  0
 15 16  2  0
 15 17  1  0
 17 18  1  0
 18 19  2  0
 19 20  1  0
 20 21  2  0
 21 22  1  0
 22 23  2  0
 21 24  1  0
 24 25  3  0
 20 26  1  0
 26 27  1  0
 26 28  1  0
 26 29  1  0
 14  8  1  0
 23 18  1  0
  1 30  1  0
  1 31  1  0
  1 32  1  0
  3 33  1  0
  4 34  1  0
  4 35  1  0
  9 36  1  0
 10 37  1  0
 13 38  1  0
 14 39  1  0
 17 40  1  0
 19 41  1  0
 22 42  1  0
 23 43  1  0
M  END
$$$$
