
     RDKit          3D

 51 51  0  0  0  0  0  0  0  0999 V2000
    7.0816    0.4091    1.3367 C   0  0  0  0  0  0  0  0  0  0  0  0
    6.8938   -0.8966    0.5652 C   0  0  0  0  0  0  0  0  0  0  0  0
    6.5153   -0.6754   -0.9102 C   0  0  0  0  0  0  0  0  0  0  0  0
    5.1823    0.0617   -1.1325 C   0  0  0  0  0  0  0  0  0  0  0  0
    3.9725   -0.7125   -0.5886 C   0  0  0  0  0  0  0  0  0  0  0  0
    2.6587   -0.0316   -0.9909 C   0  0  0  0  0  0  0  0  0  0  0  0
    1.4503   -0.7932   -0.4335 C   0  0  0  0  0  0  0  0  0  0  0  0
    0.1372   -0.1122   -0.8364 C   0  0  0  0  0  0  0  0  0  0  0  0
   -1.0723   -0.8705   -0.2820 C   0  0  0  0  0  0  0  0  0  0  0  0
   -2.2709   -0.2570   -0.7204 O   0  0  0  0  0  0  0  0  0  0  0  0
   -2.7942    0.6187    0.2641 C   0  0  2  0  0  0  0  0  0  0  0  0
   -3.3527   -0.1217    1.3497 O   0  0  0  0  0  0  0  0  0  0  0  0
   -4.6908   -0.5580    1.1414 C   0  0  2  0  0  0  0  0  0  0  0  0
   -4.7843   -1.6363    0.0387 C   0  0  0  0  0  0  0  0  0  0  0  0
   -6.0268   -2.2859    0.0873 O   0  0  0  0  0  0  0  0  0  0  0  0
   -5.6846    0.6247    0.9333 C   0  0  1  0  0  0  0  0  0  0  0  0
   -6.4247    0.8280    2.1109 O   0  0  0  0  0  0  0  0  0  0  0  0
   -4.9426    1.9253    0.5643 C   0  0  2  0  0  0  0  0  0  0  0  0
   -5.8253    2.8699    0.0096 O   0  0  0  0  0  0  0  0  0  0  0  0
   -3.7893    1.6073   -0.3994 C   0  0  1  0  0  0  0  0  0  0  0  0
   -3.1339    2.7802   -0.8177 O   0  0  0  0  0  0  0  0  0  0  0  0
    6.1079    0.9215    1.4817 H   0  0  0  0  0  0  0  0  0  0  0  0
    7.5055    0.1876    2.3388 H   0  0  0  0  0  0  0  0  0  0  0  0
    7.7808    1.0830    0.7976 H   0  0  0  0  0  0  0  0  0  0  0  0
    7.8534   -1.4570    0.5938 H   0  0  0  0  0  0  0  0  0  0  0  0
    6.1358   -1.5279    1.0742 H   0  0  0  0  0  0  0  0  0  0  0  0
    6.4688   -1.6644   -1.4161 H   0  0  0  0  0  0  0  0  0  0  0  0
    7.3258   -0.0973   -1.4054 H   0  0  0  0  0  0  0  0  0  0  0  0
    5.2215    1.0744   -0.6781 H   0  0  0  0  0  0  0  0  0  0  0  0
    5.0555    0.2016   -2.2285 H   0  0  0  0  0  0  0  0  0  0  0  0
    3.9860   -1.7503   -0.9884 H   0  0  0  0  0  0  0  0  0  0  0  0
    4.0267   -0.7558    0.5202 H   0  0  0  0  0  0  0  0  0  0  0  0
    2.6499    1.0098   -0.5996 H   0  0  0  0  0  0  0  0  0  0  0  0
    2.5882    0.0069   -2.1004 H   0  0  0  0  0  0  0  0  0  0  0  0
    1.4599   -1.8348   -0.8240 H   0  0  0  0  0  0  0  0  0  0  0  0
    1.5191   -0.8309    0.6762 H   0  0  0  0  0  0  0  0  0  0  0  0
    0.0628   -0.0742   -1.9454 H   0  0  0  0  0  0  0  0  0  0  0  0
    0.1280    0.9297   -0.4493 H   0  0  0  0  0  0  0  0  0  0  0  0
   -0.9992   -0.9622    0.8278 H   0  0  0  0  0  0  0  0  0  0  0  0
   -1.0576   -1.9059   -0.6842 H   0  0  0  0  0  0  0  0  0  0  0  0
   -1.9750    1.2377    0.6991 H   0  0  0  0  0  0  0  0  0  0  0  0
   -4.9828   -1.0765    2.0816 H   0  0  0  0  0  0  0  0  0  0  0  0
   -3.9617   -2.3772    0.1643 H   0  0  0  0  0  0  0  0  0  0  0  0
   -4.6735   -1.1787   -0.9651 H   0  0  0  0  0  0  0  0  0  0  0  0
   -5.9833   -2.9297    0.8417 H   0  0  0  0  0  0  0  0  0  0  0  0
   -6.3877    0.3616    0.1074 H   0  0  0  0  0  0  0  0  0  0  0  0
   -7.2174    1.3728    1.8641 H   0  0  0  0  0  0  0  0  0  0  0  0
   -4.5130    2.3651    1.4925 H   0  0  0  0  0  0  0  0  0  0  0  0
   -6.1682    2.4993   -0.8455 H   0  0  0  0  0  0  0  0  0  0  0  0
   -4.2218    1.1309   -1.3069 H   0  0  0  0  0  0  0  0  0  0  0  0
   -2.8337    3.2669   -0.0058 H   0  0  0  0  0  0  0  0  0  0  0  0
  1  2  1  0
  2  3  1  0
  3  4  1  0
  4  5  1  0
  5  6  1  0
  6  7  1  0
  7  8  1  0
  8  9  1  0
  9 10  1  0
 10 11  1  0
 11 12  1  0
 12 13  1  0
 13 14  1  0
 14 15  1  0
 13 16  1  0
 16 17  1  0
 16 18  1  0
 18 19  1  0
 18 20  1  0
 20 21  1  0
 20 11  1  0
  1 22  1  0
  1 23  1  0
  1 24  1  0
  2 25  1  0
  2 26  1  0
  3 27  1  0
  3 28  1  0
  4 29  1  0
  4 30  1  0
  5 31  1  0
  5 32  1  0
  6 33  1  0
  6 34  1  0
  7 35  1  0
  7 36  1  0
  8 37  1  0
  8 38  1  0
  9 39  1  0
  9 40  1  0
 11 41  1  1
 13 42  1  1
 14 43  1  0
 14 44  1  0
 15 45  1  0
 16 46  1  6
 17 47  1  0
 18 48  1  1
 19 49  1  0
 20 50  1  6
 21 51  1  0
M  END
$$$$
