
     RDKit          3D

 78 79  0  0  0  0  0  0  0  0999 V2000
    6.7013    2.3776   -1.0029 C   0  0  0  0  0  0  0  0  0  0  0  0
    6.0875    1.6551    0.2025 C   0  0  0  0  0  0  0  0  0  0  0  0
    5.9059    2.6121    1.3867 C   0  0  0  0  0  0  0  0  0  0  0  0
    4.7744    0.9872   -0.1675 C   0  0  0  0  0  0  0  0  0  0  0  0
    3.6846    1.7410   -0.6156 C   0  0  0  0  0  0  0  0  0  0  0  0
    2.4658    1.1342   -0.9688 C   0  0  0  0  0  0  0  0  0  0  0  0
    1.2991    2.0311   -1.3901 C   0  0  0  0  0  0  0  0  0  0  0  0
    1.0355    3.1547   -0.3747 C   0  0  0  0  0  0  0  0  0  0  0  0
    1.5346    2.6019   -2.7917 C   0  0  0  0  0  0  0  0  0  0  0  0
    2.3739   -0.2900   -0.9541 C   0  0  0  0  0  0  0  0  0  0  0  0
    1.1662   -0.9911   -1.5598 C   0  0  0  0  0  0  0  0  0  0  0  0
    0.0732   -1.2277   -0.5545 C   0  0  0  0  0  0  0  0  0  0  0  0
    0.0646   -0.6022    0.5414 O   0  0  0  0  0  0  0  0  0  0  0  0
   -0.9883   -2.1328   -0.8701 N   0  0  0  0  0  0  0  0  0  0  0  0
   -2.4040   -2.2481    0.1188 S   0  0  0  0  0  6  0  0  0  0  0  0
   -3.5043   -2.8938   -0.6762 O   0  0  0  0  0  0  0  0  0  0  0  0
   -2.0928   -3.0936    1.3208 O   0  0  0  0  0  0  0  0  0  0  0  0
   -2.8880   -0.6729    0.5912 O   0  0  0  0  0  0  0  0  0  0  0  0
   -4.2305   -0.2816    0.6204 C   0  0  0  0  0  0  0  0  0  0  0  0
   -4.7109    0.6423   -0.3458 C   0  0  0  0  0  0  0  0  0  0  0  0
   -6.0857    0.9345   -0.3826 C   0  0  0  0  0  0  0  0  0  0  0  0
   -6.9621    0.3627    0.5338 C   0  0  0  0  0  0  0  0  0  0  0  0
   -6.4814   -0.4811    1.5292 C   0  0  0  0  0  0  0  0  0  0  0  0
   -5.1112   -0.7888    1.6120 C   0  0  0  0  0  0  0  0  0  0  0  0
   -4.6012   -1.6102    2.7873 C   0  0  0  0  0  0  0  0  0  0  0  0
   -5.1230   -3.0504    2.7201 C   0  0  0  0  0  0  0  0  0  0  0  0
   -4.9642   -0.9585    4.1292 C   0  0  0  0  0  0  0  0  0  0  0  0
   -3.8038    1.3306   -1.3613 C   0  0  0  0  0  0  0  0  0  0  0  0
   -3.3035    0.3608   -2.4353 C   0  0  0  0  0  0  0  0  0  0  0  0
   -2.6451    2.0860   -0.6971 C   0  0  0  0  0  0  0  0  0  0  0  0
    3.4350   -1.0499   -0.3770 C   0  0  0  0  0  0  0  0  0  0  0  0
    4.6332   -0.3964   -0.0350 C   0  0  0  0  0  0  0  0  0  0  0  0
    3.3372   -2.5611   -0.1558 C   0  0  0  0  0  0  0  0  0  0  0  0
    4.1519   -3.3142   -1.2122 C   0  0  0  0  0  0  0  0  0  0  0  0
    3.7642   -2.9705    1.2630 C   0  0  0  0  0  0  0  0  0  0  0  0
    6.0664    3.2286   -1.3286 H   0  0  0  0  0  0  0  0  0  0  0  0
    7.7065    2.7699   -0.7387 H   0  0  0  0  0  0  0  0  0  0  0  0
    6.8173    1.6701   -1.8518 H   0  0  0  0  0  0  0  0  0  0  0  0
    6.8216    0.8817    0.5214 H   0  0  0  0  0  0  0  0  0  0  0  0
    5.2457    3.4637    1.1176 H   0  0  0  0  0  0  0  0  0  0  0  0
    5.4603    2.0704    2.2484 H   0  0  0  0  0  0  0  0  0  0  0  0
    6.8912    3.0163    1.7031 H   0  0  0  0  0  0  0  0  0  0  0  0
    3.7929    2.8132   -0.6970 H   0  0  0  0  0  0  0  0  0  0  0  0
    0.3524    1.4588   -1.4192 H   0  0  0  0  0  0  0  0  0  0  0  0
    0.9389    2.7295    0.6473 H   0  0  0  0  0  0  0  0  0  0  0  0
    1.8448    3.9137   -0.3780 H   0  0  0  0  0  0  0  0  0  0  0  0
    0.0856    3.6740   -0.6230 H   0  0  0  0  0  0  0  0  0  0  0  0
    1.6807    1.7756   -3.5196 H   0  0  0  0  0  0  0  0  0  0  0  0
    0.6538    3.1973   -3.1142 H   0  0  0  0  0  0  0  0  0  0  0  0
    2.4327    3.2557   -2.8071 H   0  0  0  0  0  0  0  0  0  0  0  0
    0.7595   -0.4205   -2.4189 H   0  0  0  0  0  0  0  0  0  0  0  0
    1.4650   -1.9535   -2.0231 H   0  0  0  0  0  0  0  0  0  0  0  0
   -0.9554   -2.6797   -1.7591 H   0  0  0  0  0  0  0  0  0  0  0  0
   -6.4874    1.6111   -1.1268 H   0  0  0  0  0  0  0  0  0  0  0  0
   -8.0183    0.5954    0.4878 H   0  0  0  0  0  0  0  0  0  0  0  0
   -7.1834   -0.8825    2.2482 H   0  0  0  0  0  0  0  0  0  0  0  0
   -3.4946   -1.6480    2.7709 H   0  0  0  0  0  0  0  0  0  0  0  0
   -4.8633   -3.5086    1.7428 H   0  0  0  0  0  0  0  0  0  0  0  0
   -4.6591   -3.6606    3.5241 H   0  0  0  0  0  0  0  0  0  0  0  0
   -6.2263   -3.0807    2.8441 H   0  0  0  0  0  0  0  0  0  0  0  0
   -4.6123    0.0953    4.1486 H   0  0  0  0  0  0  0  0  0  0  0  0
   -4.4689   -1.5039    4.9610 H   0  0  0  0  0  0  0  0  0  0  0  0
   -6.0598   -0.9756    4.3075 H   0  0  0  0  0  0  0  0  0  0  0  0
   -4.3947    2.1059   -1.8994 H   0  0  0  0  0  0  0  0  0  0  0  0
   -4.1536   -0.2135   -2.8615 H   0  0  0  0  0  0  0  0  0  0  0  0
   -2.5601   -0.3451   -2.0244 H   0  0  0  0  0  0  0  0  0  0  0  0
   -2.8180    0.9274   -3.2583 H   0  0  0  0  0  0  0  0  0  0  0  0
   -1.8920    1.3955   -0.2689 H   0  0  0  0  0  0  0  0  0  0  0  0
   -2.1342    2.7228   -1.4505 H   0  0  0  0  0  0  0  0  0  0  0  0
   -3.0304    2.7456    0.1094 H   0  0  0  0  0  0  0  0  0  0  0  0
    5.4733   -0.9716    0.3302 H   0  0  0  0  0  0  0  0  0  0  0  0
    2.2866   -2.9031   -0.2357 H   0  0  0  0  0  0  0  0  0  0  0  0
    4.0253   -4.4103   -1.0828 H   0  0  0  0  0  0  0  0  0  0  0  0
    3.8009   -3.0415   -2.2302 H   0  0  0  0  0  0  0  0  0  0  0  0
    5.2319   -3.0675   -1.1285 H   0  0  0  0  0  0  0  0  0  0  0  0
    3.4976   -4.0339    1.4445 H   0  0  0  0  0  0  0  0  0  0  0  0
    4.8589   -2.8657    1.4115 H   0  0  0  0  0  0  0  0  0  0  0  0
    3.2337   -2.3487    2.0157 H   0  0  0  0  0  0  0  0  0  0  0  0
  1  2  1  0
  2  3  1  0
  2  4  1  0
  4  5  2  0
  5  6  1  0
  6  7  1  0
  7  8  1  0
  7  9  1  0
  6 10  2  0
 10 11  1  0
 11 12  1  0
 12 13  2  0
 12 14  1  0
 14 15  1  0
 15 16  2  0
 15 17  2  0
 15 18  1  0
 18 19  1  0
 19 20  2  0
 20 21  1  0
 21 22  2  0
 22 23  1  0
 23 24  2  0
 24 25  1  0
 25 26  1  0
 25 27  1  0
 20 28  1  0
 28 29  1  0
 28 30  1  0
 10 31  1  0
 31 32  2  0
 31 33  1  0
 33 34  1  0
 33 35  1  0
 32  4  1  0
 24 19  1  0
  1 36  1  0
  1 37  1  0
  1 38  1  0
  2 39  1  0
  3 40  1  0
  3 41  1  0
  3 42  1  0
  5 43  1  0
  7 44  1  0
  8 45  1  0
  8 46  1  0
  8 47  1  0
  9 48  1  0
  9 49  1  0
  9 50  1  0
 11 51  1  0
 11 52  1  0
 14 53  1  0
 21 54  1  0
 22 55  1  0
 23 56  1  0
 25 57  1  0
 26 58  1  0
 26 59  1  0
 26 60  1  0
 27 61  1  0
 27 62  1  0
 27 63  1  0
 28 64  1  0
 29 65  1  0
 29 66  1  0
 29 67  1  0
 30 68  1  0
 30 69  1  0
 30 70  1  0
 32 71  1  0
 33 72  1  0
 34 73  1  0
 34 74  1  0
 34 75  1  0
 35 76  1  0
 35 77  1  0
 35 78  1  0
M  END
$$$$
