
     RDKit          3D

 20 19  0  0  0  0  0  0  0  0999 V2000
   -0.6878   -1.2065   -1.8217 N   0  0  0  0  0  0  0  0  0  0  0  0
   -1.2120   -0.6636   -0.5633 C   0  0  1  0  0  0  0  0  0  0  0  0
   -0.4059   -1.1904    0.6468 C   0  0  0  0  0  0  0  0  0  0  0  0
    1.1077   -0.9039    0.6197 C   0  0  0  0  0  0  0  0  0  0  0  0
    1.4246    0.5507    0.8098 C   0  0  0  0  0  0  0  0  0  0  0  0
    1.9580    1.3248   -0.2647 N   0  0  0  0  0  0  0  0  0  0  0  0
    1.2130    1.0959    1.9259 O   0  0  0  0  0  0  0  0  0  0  0  0
   -1.3126    0.8439   -0.5799 C   0  0  0  0  0  0  0  0  0  0  0  0
   -1.8510    1.5058    0.5196 O   0  0  0  0  0  0  0  0  0  0  0  0
   -0.9363    1.5092   -1.5829 O   0  0  0  0  0  0  0  0  0  0  0  0
    0.1957   -0.7133   -2.0853 H   0  0  0  0  0  0  0  0  0  0  0  0
   -1.3823   -1.0159   -2.5807 H   0  0  0  0  0  0  0  0  0  0  0  0
   -2.2501   -1.0445   -0.4388 H   0  0  0  0  0  0  0  0  0  0  0  0
   -0.5372   -2.2940    0.6855 H   0  0  0  0  0  0  0  0  0  0  0  0
   -0.8423   -0.7921    1.5894 H   0  0  0  0  0  0  0  0  0  0  0  0
    1.5834   -1.4676    1.4511 H   0  0  0  0  0  0  0  0  0  0  0  0
    1.5639   -1.2865   -0.3168 H   0  0  0  0  0  0  0  0  0  0  0  0
    2.1690    2.3382   -0.1284 H   0  0  0  0  0  0  0  0  0  0  0  0
    2.1332    0.8943   -1.1994 H   0  0  0  0  0  0  0  0  0  0  0  0
   -1.9310    2.5155    0.5304 H   0  0  0  0  0  0  0  0  0  0  0  0
  1  2  1  0
  2  3  1  0
  3  4  1  0
  4  5  1  0
  5  6  1  0
  5  7  2  0
  2  8  1  0
  8  9  1  0
  8 10  2  0
  1 11  1  0
  1 12  1  0
  2 13  1  1
  3 14  1  0
  3 15  1  0
  4 16  1  0
  4 17  1  0
  6 18  1  0
  6 19  1  0
  9 20  1  0
M  END
$$$$
