
     RDKit          3D

 51 54  0  0  0  0  0  0  0  0999 V2000
    2.3220   -0.0847   -1.6655 C   0  0  1  0  0  0  0  0  0  0  0  0
    2.1685    1.4985   -0.7578 S   0  0  0  0  0  0  0  0  0  0  0  0
    3.5020    1.0678    0.4625 C   0  0  0  0  0  0  0  0  0  0  0  0
    4.4003    2.3010    0.6794 C   0  0  0  0  0  0  0  0  0  0  0  0
    2.8160    0.7197    1.7959 C   0  0  0  0  0  0  0  0  0  0  0  0
    4.2687   -0.1860   -0.0689 C   0  0  1  0  0  0  0  0  0  0  0  0
    3.3260   -0.8161   -0.9547 N   0  0  0  0  0  0  0  0  0  0  0  0
    2.3561   -1.9227   -0.7826 C   0  0  0  0  0  0  0  0  0  0  0  0
    2.3799   -3.0492   -0.2219 O   0  0  0  0  0  0  0  0  0  0  0  0
    1.3155   -1.1081   -1.4845 C   0  0  1  0  0  0  0  0  0  0  0  0
    0.2098   -0.7406   -0.5953 N   0  0  0  0  0  0  0  0  0  0  0  0
   -0.9244   -0.0072   -1.0800 C   0  0  0  0  0  0  0  0  0  0  0  0
   -0.8952    0.5149   -2.2277 O   0  0  0  0  0  0  0  0  0  0  0  0
   -2.1617    0.0848   -0.2695 C   0  0  0  0  0  0  0  0  0  0  0  0
   -3.3631   -0.4083   -0.8238 C   0  0  0  0  0  0  0  0  0  0  0  0
   -3.3388   -0.9259   -2.1331 O   0  0  0  0  0  0  0  0  0  0  0  0
   -4.4181   -1.5863   -2.7947 C   0  0  0  0  0  0  0  0  0  0  0  0
   -4.5942   -3.0033   -2.2597 C   0  0  0  0  0  0  0  0  0  0  0  0
   -4.5439   -0.3794   -0.0601 C   0  0  0  0  0  0  0  0  0  0  0  0
   -4.5379    0.1163    1.2407 C   0  0  0  0  0  0  0  0  0  0  0  0
   -3.3598    0.6172    1.8029 C   0  0  0  0  0  0  0  0  0  0  0  0
   -3.3712    1.1305    3.1100 C   0  0  0  0  0  0  0  0  0  0  0  0
   -2.2074    1.6598    3.6682 C   0  0  0  0  0  0  0  0  0  0  0  0
   -1.0281    1.6918    2.9256 C   0  0  0  0  0  0  0  0  0  0  0  0
   -1.0014    1.1836    1.6250 C   0  0  0  0  0  0  0  0  0  0  0  0
   -2.1584    0.6187    1.0473 C   0  0  0  0  0  0  0  0  0  0  0  0
    5.5209    0.1335   -0.8417 C   0  0  0  0  0  0  0  0  0  0  0  0
    5.4378    0.6820   -2.1188 O   0  0  0  0  0  0  0  0  0  0  0  0
    6.6496   -0.0659   -0.3182 O   0  0  0  0  0  0  0  0  0  0  0  0
    2.6127    0.0602   -2.7293 H   0  0  0  0  0  0  0  0  0  0  0  0
    3.8168    3.1339    1.1275 H   0  0  0  0  0  0  0  0  0  0  0  0
    4.8115    2.6658   -0.2854 H   0  0  0  0  0  0  0  0  0  0  0  0
    5.2424    2.0532    1.3608 H   0  0  0  0  0  0  0  0  0  0  0  0
    2.2120    1.5775    2.1612 H   0  0  0  0  0  0  0  0  0  0  0  0
    3.5727    0.4712    2.5710 H   0  0  0  0  0  0  0  0  0  0  0  0
    2.1402   -0.1532    1.6732 H   0  0  0  0  0  0  0  0  0  0  0  0
    4.5275   -0.8895    0.7543 H   0  0  0  0  0  0  0  0  0  0  0  0
    0.9735   -1.5884   -2.4274 H   0  0  0  0  0  0  0  0  0  0  0  0
    0.1506   -1.1779    0.3528 H   0  0  0  0  0  0  0  0  0  0  0  0
   -4.1748   -1.6502   -3.8762 H   0  0  0  0  0  0  0  0  0  0  0  0
   -5.3585   -1.0032   -2.7031 H   0  0  0  0  0  0  0  0  0  0  0  0
   -4.8593   -2.9877   -1.1828 H   0  0  0  0  0  0  0  0  0  0  0  0
   -5.4057   -3.5147   -2.8188 H   0  0  0  0  0  0  0  0  0  0  0  0
   -3.6515   -3.5756   -2.3907 H   0  0  0  0  0  0  0  0  0  0  0  0
   -5.4792   -0.7449   -0.4578 H   0  0  0  0  0  0  0  0  0  0  0  0
   -5.4625    0.1172    1.8063 H   0  0  0  0  0  0  0  0  0  0  0  0
   -4.2819    1.1277    3.6974 H   0  0  0  0  0  0  0  0  0  0  0  0
   -2.2227    2.0563    4.6752 H   0  0  0  0  0  0  0  0  0  0  0  0
   -0.1315    2.1182    3.3569 H   0  0  0  0  0  0  0  0  0  0  0  0
   -0.0763    1.2535    1.0760 H   0  0  0  0  0  0  0  0  0  0  0  0
    6.2746    0.9141   -2.6401 H   0  0  0  0  0  0  0  0  0  0  0  0
  1  2  1  0
  2  3  1  0
  3  4  1  0
  3  5  1  0
  3  6  1  0
  6  7  1  0
  7  8  1  0
  8  9  2  0
  8 10  1  0
 10 11  1  0
 11 12  1  0
 12 13  2  0
 12 14  1  0
 14 15  2  0
 15 16  1  0
 16 17  1  0
 17 18  1  0
 15 19  1  0
 19 20  2  0
 20 21  1  0
 21 22  2  0
 22 23  1  0
 23 24  2  0
 24 25  1  0
 25 26  2  0
  6 27  1  0
 27 28  1  0
 27 29  2  0
  7  1  1  0
 26 14  1  0
 10  1  1  0
 26 21  1  0
  1 30  1  6
  4 31  1  0
  4 32  1  0
  4 33  1  0
  5 34  1  0
  5 35  1  0
  5 36  1  0
  6 37  1  1
 10 38  1  6
 11 39  1  0
 17 40  1  0
 17 41  1  0
 18 42  1  0
 18 43  1  0
 18 44  1  0
 19 45  1  0
 20 46  1  0
 22 47  1  0
 23 48  1  0
 24 49  1  0
 25 50  1  0
 28 51  1  0
M  END
$$$$
