
     RDKit          2D

204209  0  0  0  0  0  0  0  0999 V2000
   -3.5490   -8.7452    0.0000 C   0  0  0  0  0  0  0  0  0  0  0  0
   -3.5490  -10.2452    0.0000 C   0  0  0  0  0  0  0  0  0  0  0  0
   -3.5490  -11.7452    0.0000 C   0  0  0  0  0  0  0  0  0  0  0  0
   -2.0490  -10.2452    0.0000 C   0  0  0  0  0  0  0  0  0  0  0  0
   -0.5490  -10.2452    0.0000 C   0  0  0  0  0  0  0  0  0  0  0  0
   -0.5490   -8.7452    0.0000 N   0  0  0  0  0  0  0  0  0  0  0  0
    0.7500   -7.9952    0.0000 C   0  0  0  0  0  0  0  0  0  0  0  0
    2.1919   -8.4086    0.0000 O   0  0  0  0  0  0  0  0  0  0  0  0
    0.7500   -6.4952    0.0000 C   0  0  0  0  0  0  0  0  0  0  0  0
    0.7500   -4.9952    0.0000 C   0  0  0  0  0  0  0  0  0  0  0  0
    0.7500   -3.4952    0.0000 C   0  0  0  0  0  0  0  0  0  0  0  0
    0.7500   -1.9952    0.0000 C   0  0  0  0  0  0  0  0  0  0  0  0
    0.7500   -0.4952    0.0000 C   0  0  0  0  0  0  0  0  0  0  0  0
    0.7500    1.0048    0.0000 N   0  0  0  0  0  0  0  0  0  0  0  0
    2.0490    1.7548    0.0000 C   0  0  0  0  0  0  0  0  0  0  0  0
    2.0490    3.2548    0.0000 N   0  0  0  0  0  0  0  0  0  0  0  0
    3.3481    1.0048    0.0000 O   0  0  0  0  0  0  0  0  0  0  0  0
    2.2500   -6.4952    0.0000 N   0  0  0  0  0  0  0  0  0  0  0  0
    3.0000   -5.1962    0.0000 C   0  0  0  0  0  0  0  0  0  0  0  0
    4.4888   -5.0133    0.0000 O   0  0  0  0  0  0  0  0  0  0  0  0
    2.2500   -3.8971    0.0000 C   0  0  0  0  0  0  0  0  0  0  0  0
    1.5000   -2.5981    0.0000 C   0  0  0  0  0  0  0  0  0  0  0  0
    0.7500   -1.2990    0.0000 C   0  0  0  0  0  0  0  0  0  0  0  0
    1.5000    0.0000    0.0000 C   0  0  0  0  0  0  0  0  0  0  0  0
    0.7500    1.2990    0.0000 C   0  0  0  0  0  0  0  0  0  0  0  0
   -0.7500    1.2990    0.0000 C   0  0  0  0  0  0  0  0  0  0  0  0
   -1.5000    2.5981    0.0000 O   0  0  0  0  0  0  0  0  0  0  0  0
   -1.5000    0.0000    0.0000 C   0  0  0  0  0  0  0  0  0  0  0  0
   -0.7500   -1.2990    0.0000 C   0  0  0  0  0  0  0  0  0  0  0  0
    0.9510   -4.6471    0.0000 N   0  0  0  0  0  0  0  0  0  0  0  0
    0.9510   -6.1471    0.0000 C   0  0  0  0  0  0  0  0  0  0  0  0
    1.8948   -7.3129    0.0000 O   0  0  0  0  0  0  0  0  0  0  0  0
   -0.3481   -6.8971    0.0000 C   0  0  0  0  0  0  0  0  0  0  0  0
   -1.6471   -7.6471    0.0000 C   0  0  0  0  0  0  0  0  0  0  0  0
   -2.9462   -8.3971    0.0000 O   0  0  0  0  0  0  0  0  0  0  0  0
    0.4019   -8.1962    0.0000 N   0  0  0  0  0  0  0  0  0  0  0  0
    1.9019   -8.1962    0.0000 C   0  0  0  0  0  0  0  0  0  0  0  0
    3.0677   -7.2523    0.0000 O   0  0  0  0  0  0  0  0  0  0  0  0
    2.6519   -9.4952    0.0000 C   0  0  0  0  0  0  0  0  0  0  0  0
    3.4019  -10.7942    0.0000 C   0  0  0  0  0  0  0  0  0  0  0  0
    4.1519  -12.0933    0.0000 C   0  0  0  0  0  0  0  0  0  0  0  0
    5.6519  -12.0933    0.0000 C   0  0  0  0  0  0  0  0  0  0  0  0
    6.4019  -13.3923    0.0000 C   0  0  0  0  0  0  0  0  0  0  0  0
    5.6519  -14.6913    0.0000 C   0  0  0  0  0  0  0  0  0  0  0  0
    4.1519  -14.6913    0.0000 N   0  0  0  0  0  0  0  0  0  0  0  0
    3.4019  -13.3923    0.0000 C   0  0  0  0  0  0  0  0  0  0  0  0
    3.9510   -8.7452    0.0000 N   0  0  0  0  0  0  0  0  0  0  0  0
    3.9510   -7.2452    0.0000 C   0  0  0  0  0  0  0  0  0  0  0  0
    2.4694   -7.0107    0.0000 O   0  0  0  0  0  0  0  0  0  0  0  0
    5.2500   -6.4952    0.0000 C   0  0  0  0  0  0  0  0  0  0  0  0
    6.5490   -5.7452    0.0000 C   0  0  0  0  0  0  0  0  0  0  0  0
    7.8481   -4.9952    0.0000 C   0  0  0  0  0  0  0  0  0  0  0  0
    7.8481   -3.4952    0.0000 C   0  0  0  0  0  0  0  0  0  0  0  0
    9.1471   -2.7452    0.0000 C   0  0  0  0  0  0  0  0  0  0  0  0
   10.4462   -3.4952    0.0000 C   0  0  0  0  0  0  0  0  0  0  0  0
   11.7452   -2.7452    0.0000 Cl  0  0  0  0  0  0  0  0  0  0  0  0
   10.4462   -4.9952    0.0000 C   0  0  0  0  0  0  0  0  0  0  0  0
    9.1471   -5.7452    0.0000 C   0  0  0  0  0  0  0  0  0  0  0  0
    4.5000   -5.1962    0.0000 N   0  0  0  0  0  0  0  0  0  0  0  0
    3.0000   -5.1962    0.0000 C   0  0  0  0  0  0  0  0  0  0  0  0
    2.7655   -6.6777    0.0000 O   0  0  0  0  0  0  0  0  0  0  0  0
    2.2500   -3.8971    0.0000 C   0  0  0  0  0  0  0  0  0  0  0  0
    1.5000   -2.5981    0.0000 C   0  0  0  0  0  0  0  0  0  0  0  0
    0.7500   -1.2990    0.0000 C   0  0  0  0  0  0  0  0  0  0  0  0
   -0.7500   -1.2990    0.0000 C   0  0  0  0  0  0  0  0  0  0  0  0
   -1.5000    0.0000    0.0000 C   0  0  0  0  0  0  0  0  0  0  0  0
   -0.7500    1.2990    0.0000 C   0  0  0  0  0  0  0  0  0  0  0  0
   -1.5000    2.5981    0.0000 C   0  0  0  0  0  0  0  0  0  0  0  0
   -3.0000    2.5981    0.0000 C   0  0  0  0  0  0  0  0  0  0  0  0
   -3.7500    1.2990    0.0000 C   0  0  0  0  0  0  0  0  0  0  0  0
   -3.0000    0.0000    0.0000 C   0  0  0  0  0  0  0  0  0  0  0  0
    0.7500    1.2990    0.0000 C   0  0  0  0  0  0  0  0  0  0  0  0
    1.5000    0.0000    0.0000 C   0  0  0  0  0  0  0  0  0  0  0  0
    3.5490   -3.1471    0.0000 N   0  0  0  0  0  0  0  0  0  0  0  0
    4.8481   -3.8971    0.0000 C   0  0  0  0  0  0  0  0  0  0  0  0
    6.1471   -3.1471    0.0000 C   0  0  0  0  0  0  0  0  0  0  0  0
    5.3857   -5.2974    0.0000 O   0  0  0  0  0  0  0  0  0  0  0  0
    0.9510  -10.2452    0.0000 C   0  0  0  0  0  0  0  0  0  0  0  0
    1.9930   -9.1662    0.0000 O   0  0  0  0  0  0  0  0  0  0  0  0
    1.7010  -11.5442    0.0000 N   0  0  0  0  0  0  0  0  0  0  0  0
    3.2010  -11.5442    0.0000 C   0  0  0  0  0  0  0  0  0  0  0  0
    3.2010  -13.0442    0.0000 C   0  0  0  0  0  0  0  0  0  0  0  0
    3.2010  -14.5442    0.0000 C   0  0  0  0  0  0  0  0  0  0  0  0
    3.2010  -16.0442    0.0000 C   0  0  0  0  0  0  0  0  0  0  0  0
    3.2010  -17.5442    0.0000 C   0  0  0  0  0  0  0  0  0  0  0  0
    3.2010  -19.0442    0.0000 N   0  0  0  0  0  0  0  0  0  0  0  0
    1.9019  -19.7942    0.0000 C   0  0  0  0  0  0  0  0  0  0  0  0
    1.1519  -18.4952    0.0000 C   0  0  0  0  0  0  0  0  0  0  0  0
    2.6519  -21.0933    0.0000 C   0  0  0  0  0  0  0  0  0  0  0  0
    3.2010  -10.0442    0.0000 C   0  0  0  0  0  0  0  0  0  0  0  0
    1.7590   -9.6309    0.0000 O   0  0  0  0  0  0  0  0  0  0  0  0
    4.5000   -9.2942    0.0000 N   0  0  0  0  0  0  0  0  0  0  0  0
    4.6568   -7.8024    0.0000 C   0  0  0  0  0  0  0  0  0  0  0  0
    6.1240   -7.4906    0.0000 C   0  0  0  0  0  0  0  0  0  0  0  0
    6.8740   -8.7896    0.0000 C   0  0  0  0  0  0  0  0  0  0  0  0
    5.8703   -9.9043    0.0000 C   0  0  0  0  0  0  0  0  0  0  0  0
    7.0838  -10.7860    0.0000 C   0  0  0  0  0  0  0  0  0  0  0  0
    8.4542  -10.1759    0.0000 O   0  0  0  0  0  0  0  0  0  0  0  0
    6.9271  -12.2778    0.0000 N   0  0  0  0  0  0  0  0  0  0  0  0
    8.1406  -13.1595    0.0000 C   0  0  0  0  0  0  0  0  0  0  0  0
    7.2589  -14.3730    0.0000 C   0  0  0  0  0  0  0  0  0  0  0  0
    9.0223  -11.9459    0.0000 C   0  0  0  0  0  0  0  0  0  0  0  0
   10.5140  -12.1027    0.0000 N   0  0  0  0  0  0  0  0  0  0  0  0
    8.7619  -10.4687    0.0000 O   0  0  0  0  0  0  0  0  0  0  0  0
   -3.5490   -7.2452    0.0000 H   0  0  0  0  0  0  0  0  0  0  0  0
   -5.0379   -8.5623    0.0000 H   0  0  0  0  0  0  0  0  0  0  0  0
   -5.0379   -8.9280    0.0000 H   0  0  0  0  0  0  0  0  0  0  0  0
   -5.0490  -10.2452    0.0000 H   0  0  0  0  0  0  0  0  0  0  0  0
   -3.5490  -13.2452    0.0000 H   0  0  0  0  0  0  0  0  0  0  0  0
   -5.0379  -11.5623    0.0000 H   0  0  0  0  0  0  0  0  0  0  0  0
   -5.0379  -11.9280    0.0000 H   0  0  0  0  0  0  0  0  0  0  0  0
   -2.2319   -8.7564    0.0000 H   0  0  0  0  0  0  0  0  0  0  0  0
   -2.0490  -11.7452    0.0000 H   0  0  0  0  0  0  0  0  0  0  0  0
   -0.5490  -11.7452    0.0000 H   0  0  0  0  0  0  0  0  0  0  0  0
   -1.9298   -8.1591    0.0000 H   0  0  0  0  0  0  0  0  0  0  0  0
   -0.7054   -6.8582    0.0000 H   0  0  0  0  0  0  0  0  0  0  0  0
    2.0743   -4.2908    0.0000 H   0  0  0  0  0  0  0  0  0  0  0  0
   -0.7388   -4.8123    0.0000 H   0  0  0  0  0  0  0  0  0  0  0  0
    2.0743   -2.7908    0.0000 H   0  0  0  0  0  0  0  0  0  0  0  0
   -0.7388   -3.3123    0.0000 H   0  0  0  0  0  0  0  0  0  0  0  0
    2.2054   -1.6322    0.0000 H   0  0  0  0  0  0  0  0  0  0  0  0
   -0.5743   -2.6995    0.0000 H   0  0  0  0  0  0  0  0  0  0  0  0
   -0.7500   -0.4952    0.0000 H   0  0  0  0  0  0  0  0  0  0  0  0
    2.2054   -0.8582    0.0000 H   0  0  0  0  0  0  0  0  0  0  0  0
   -0.5490    1.7548    0.0000 H   0  0  0  0  0  0  0  0  0  0  0  0
    3.3481    4.0048    0.0000 H   0  0  0  0  0  0  0  0  0  0  0  0
    0.7500    4.0048    0.0000 H   0  0  0  0  0  0  0  0  0  0  0  0
    2.8361   -7.8760    0.0000 H   0  0  0  0  0  0  0  0  0  0  0  0
    3.3290   -2.8551    0.0000 H   0  0  0  0  0  0  0  0  0  0  0  0
    2.6979   -1.6953    0.0000 H   0  0  0  0  0  0  0  0  0  0  0  0
    0.0009   -2.6503    0.0000 H   0  0  0  0  0  0  0  0  0  0  0  0
    2.9554    0.3630    0.0000 H   0  0  0  0  0  0  0  0  0  0  0  0
    0.9845    2.7806    0.0000 H   0  0  0  0  0  0  0  0  0  0  0  0
   -2.9554    2.2351    0.0000 H   0  0  0  0  0  0  0  0  0  0  0  0
   -2.9554   -0.3630    0.0000 H   0  0  0  0  0  0  0  0  0  0  0  0
   -1.6528   -2.4970    0.0000 H   0  0  0  0  0  0  0  0  0  0  0  0
   -0.5306   -4.4126    0.0000 H   0  0  0  0  0  0  0  0  0  0  0  0
   -1.2508   -5.6992    0.0000 H   0  0  0  0  0  0  0  0  0  0  0  0
   -2.3971   -6.3481    0.0000 H   0  0  0  0  0  0  0  0  0  0  0  0
   -1.4126   -9.1287    0.0000 H   0  0  0  0  0  0  0  0  0  0  0  0
   -3.3091   -9.8525    0.0000 H   0  0  0  0  0  0  0  0  0  0  0  0
   -0.1841   -9.5769    0.0000 H   0  0  0  0  0  0  0  0  0  0  0  0
    1.5730  -10.5372    0.0000 H   0  0  0  0  0  0  0  0  0  0  0  0
    4.8835  -10.5597    0.0000 H   0  0  0  0  0  0  0  0  0  0  0  0
    2.3230  -11.8363    0.0000 H   0  0  0  0  0  0  0  0  0  0  0  0
    6.6940  -11.0143    0.0000 H   0  0  0  0  0  0  0  0  0  0  0  0
    7.8573  -13.7553    0.0000 H   0  0  0  0  0  0  0  0  0  0  0  0
    6.2380  -16.0721    0.0000 H   0  0  0  0  0  0  0  0  0  0  0  0
    1.9131  -13.5751    0.0000 H   0  0  0  0  0  0  0  0  0  0  0  0
    5.4452   -8.6143    0.0000 H   0  0  0  0  0  0  0  0  0  0  0  0
    6.2920   -7.5741    0.0000 H   0  0  0  0  0  0  0  0  0  0  0  0
    5.9630   -4.3644    0.0000 H   0  0  0  0  0  0  0  0  0  0  0  0
    7.4518   -6.9431    0.0000 H   0  0  0  0  0  0  0  0  0  0  0  0
    6.7691   -2.4531    0.0000 H   0  0  0  0  0  0  0  0  0  0  0  0
    9.1471   -1.2452    0.0000 H   0  0  0  0  0  0  0  0  0  0  0  0
   11.7452   -5.7452    0.0000 H   0  0  0  0  0  0  0  0  0  0  0  0
    9.1471   -7.2452    0.0000 H   0  0  0  0  0  0  0  0  0  0  0  0
    5.4028   -3.9982    0.0000 H   0  0  0  0  0  0  0  0  0  0  0  0
    0.7509   -3.9493    0.0000 H   0  0  0  0  0  0  0  0  0  0  0  0
    2.8808   -2.0120    0.0000 H   0  0  0  0  0  0  0  0  0  0  0  0
    0.0581   -3.0115    0.0000 H   0  0  0  0  0  0  0  0  0  0  0  0
   -1.3361   -2.6798    0.0000 H   0  0  0  0  0  0  0  0  0  0  0  0
   -0.7500    3.8971    0.0000 H   0  0  0  0  0  0  0  0  0  0  0  0
   -3.7500    3.8971    0.0000 H   0  0  0  0  0  0  0  0  0  0  0  0
   -5.2500    1.2990    0.0000 H   0  0  0  0  0  0  0  0  0  0  0  0
   -3.7500   -1.2990    0.0000 H   0  0  0  0  0  0  0  0  0  0  0  0
    1.3361    2.6798    0.0000 H   0  0  0  0  0  0  0  0  0  0  0  0
    3.0000    0.0000    0.0000 H   0  0  0  0  0  0  0  0  0  0  0  0
    3.9120   -1.6917    0.0000 H   0  0  0  0  0  0  0  0  0  0  0  0
    7.4462   -2.3971    0.0000 H   0  0  0  0  0  0  0  0  0  0  0  0
    6.8971   -4.4462    0.0000 H   0  0  0  0  0  0  0  0  0  0  0  0
    5.3971   -1.8481    0.0000 H   0  0  0  0  0  0  0  0  0  0  0  0
    0.7982  -12.7422    0.0000 H   0  0  0  0  0  0  0  0  0  0  0  0
    4.6013  -12.0819    0.0000 H   0  0  0  0  0  0  0  0  0  0  0  0
    4.6898  -13.2271    0.0000 H   0  0  0  0  0  0  0  0  0  0  0  0
    1.7010  -13.0442    0.0000 H   0  0  0  0  0  0  0  0  0  0  0  0
    4.6564  -14.9072    0.0000 H   0  0  0  0  0  0  0  0  0  0  0  0
    1.7010  -14.5442    0.0000 H   0  0  0  0  0  0  0  0  0  0  0  0
    1.7010  -16.0442    0.0000 H   0  0  0  0  0  0  0  0  0  0  0  0
    4.7010  -16.0442    0.0000 H   0  0  0  0  0  0  0  0  0  0  0  0
    4.7010  -17.5442    0.0000 H   0  0  0  0  0  0  0  0  0  0  0  0
    1.7121  -17.3614    0.0000 H   0  0  0  0  0  0  0  0  0  0  0  0
    4.5817  -19.6303    0.0000 H   0  0  0  0  0  0  0  0  0  0  0  0
    0.6029  -20.5442    0.0000 H   0  0  0  0  0  0  0  0  0  0  0  0
    0.4019  -17.1962    0.0000 H   0  0  0  0  0  0  0  0  0  0  0  0
   -0.1471  -19.2452    0.0000 H   0  0  0  0  0  0  0  0  0  0  0  0
    2.0958  -17.3294    0.0000 H   0  0  0  0  0  0  0  0  0  0  0  0
    3.4019  -22.3923    0.0000 H   0  0  0  0  0  0  0  0  0  0  0  0
    1.3529  -21.8433    0.0000 H   0  0  0  0  0  0  0  0  0  0  0  0
    4.0327  -20.5072    0.0000 H   0  0  0  0  0  0  0  0  0  0  0  0
    3.1680   -7.9853    0.0000 H   0  0  0  0  0  0  0  0  0  0  0  0
    4.8656   -6.3171    0.0000 H   0  0  0  0  0  0  0  0  0  0  0  0
    6.0195   -5.9942    0.0000 H   0  0  0  0  0  0  0  0  0  0  0  0
    7.5585   -7.0521    0.0000 H   0  0  0  0  0  0  0  0  0  0  0  0
    8.0875   -7.9079    0.0000 H   0  0  0  0  0  0  0  0  0  0  0  0
    8.1176   -9.6283    0.0000 H   0  0  0  0  0  0  0  0  0  0  0  0
    5.2843  -11.2851    0.0000 H   0  0  0  0  0  0  0  0  0  0  0  0
    5.5567  -12.8879    0.0000 H   0  0  0  0  0  0  0  0  0  0  0  0
    9.3541  -14.0412    0.0000 H   0  0  0  0  0  0  0  0  0  0  0  0
    6.5317  -15.6849    0.0000 H   0  0  0  0  0  0  0  0  0  0  0  0
    8.4724  -15.2547    0.0000 H   0  0  0  0  0  0  0  0  0  0  0  0
    5.8100  -13.9849    0.0000 H   0  0  0  0  0  0  0  0  0  0  0  0
   11.3957  -10.8892    0.0000 H   0  0  0  0  0  0  0  0  0  0  0  0
   11.1241  -13.4731    0.0000 H   0  0  0  0  0  0  0  0  0  0  0  0
  1  2  1  0
  2  3  1  0
  2  4  1  0
  4  5  1  0
  5  6  1  0
  6  7  1  0
  7  8  2  0
  7  9  1  0
  9 10  1  0
 10 11  1  0
 11 12  1  0
 12 13  1  0
 13 14  1  0
 14 15  1  0
 15 16  1  0
 15 17  2  0
  9 18  1  0
 18 19  1  0
 19 20  2  0
 19 21  1  0
 21 22  1  0
 22 23  1  0
 23 24  2  0
 24 25  1  0
 25 26  2  0
 26 27  1  0
 26 28  1  0
 28 29  2  0
 21 30  1  0
 30 31  1  0
 31 32  2  0
 31 33  1  0
 33 34  1  0
 34 35  1  0
 33 36  1  0
 36 37  1  0
 37 38  2  0
 37 39  1  0
 39 40  1  0
 40 41  1  0
 41 42  2  0
 42 43  1  0
 43 44  2  0
 44 45  1  0
 45 46  2  0
 39 47  1  0
 47 48  1  0
 48 49  2  0
 48 50  1  0
 50 51  1  0
 51 52  1  0
 52 53  2  0
 53 54  1  0
 54 55  2  0
 55 56  1  0
 55 57  1  0
 57 58  2  0
 50 59  1  0
 59 60  1  0
 60 61  2  0
 60 62  1  0
 62 63  1  0
 63 64  1  0
 64 65  2  0
 65 66  1  0
 66 67  2  0
 67 68  1  0
 68 69  2  0
 69 70  1  0
 70 71  2  0
 67 72  1  0
 72 73  2  0
 62 74  1  0
 74 75  1  0
 75 76  1  0
 75 77  2  0
  5 78  1  0
 78 79  2  0
 78 80  1  0
 80 81  1  0
 81 82  1  0
 82 83  1  0
 83 84  1  0
 84 85  1  0
 85 86  1  0
 86 87  1  0
 87 88  1  0
 87 89  1  0
 81 90  1  0
 90 91  2  0
 90 92  1  0
 92 93  1  0
 93 94  1  0
 94 95  1  0
 95 96  1  0
 96 97  1  0
 97 98  2  0
 97 99  1  0
 99100  1  0
100101  1  0
100102  1  0
102103  1  0
102104  2  0
 29 23  1  0
 46 41  1  0
 58 52  1  0
 73 64  1  0
 96 92  1  0
 71 66  1  0
  1105  1  0
  1106  1  0
  1107  1  0
  2108  1  0
  3109  1  0
  3110  1  0
  3111  1  0
  4112  1  0
  4113  1  0
  5114  1  1
  6115  1  0
  9116  1  6
 10117  1  0
 10118  1  0
 11119  1  0
 11120  1  0
 12121  1  0
 12122  1  0
 13123  1  0
 13124  1  0
 14125  1  0
 16126  1  0
 16127  1  0
 18128  1  0
 21129  1  6
 22130  1  0
 22131  1  0
 24132  1  0
 25133  1  0
 27134  1  0
 28135  1  0
 29136  1  0
 30137  1  0
 33138  1  6
 34139  1  0
 34140  1  0
 35141  1  0
 36142  1  0
 39143  1  1
 40144  1  0
 40145  1  0
 42146  1  0
 43147  1  0
 44148  1  0
 46149  1  0
 47150  1  0
 50151  1  1
 51152  1  0
 51153  1  0
 53154  1  0
 54155  1  0
 57156  1  0
 58157  1  0
 59158  1  0
 62159  1  6
 63160  1  0
 63161  1  0
 65162  1  0
 68163  1  0
 69164  1  0
 70165  1  0
 71166  1  0
 72167  1  0
 73168  1  0
 74169  1  0
 76170  1  0
 76171  1  0
 76172  1  0
 80173  1  0
 81174  1  1
 82175  1  0
 82176  1  0
 83177  1  0
 83178  1  0
 84179  1  0
 84180  1  0
 85181  1  0
 85182  1  0
 86183  1  0
 87184  1  0
 88185  1  0
 88186  1  0
 88187  1  0
 89188  1  0
 89189  1  0
 89190  1  0
 93191  1  0
 93192  1  0
 94193  1  0
 94194  1  0
 95195  1  0
 95196  1  0
 96197  1  6
 99198  1  0
100199  1  6
101200  1  0
101201  1  0
101202  1  0
103203  1  0
103204  1  0
M  END
$$$$
