
     RDKit          3D

 20 21  0  0  0  0  0  0  0  0999 V2000
    1.5513    0.2713   -0.5776 C   0  0  1  0  0  0  0  0  0  0  0  0
    2.9192    0.2483   -0.2660 O   0  0  0  0  0  0  0  0  0  0  0  0
    1.1501   -0.9919   -1.3122 C   0  0  0  0  0  0  0  0  0  0  0  0
   -0.1604   -1.3203   -0.9273 O   0  0  0  0  0  0  0  0  0  0  0  0
   -0.3034   -0.8821    0.4069 C   0  0  2  0  0  0  0  0  0  0  0  0
   -1.6414   -0.2250    0.6375 C   0  0  2  0  0  0  0  0  0  0  0  0
   -2.6018   -0.6491   -0.2947 O   0  0  0  0  0  0  0  0  0  0  0  0
   -1.3254    1.2495    0.4848 C   0  0  0  0  0  0  0  0  0  0  0  0
    0.0160    1.4553    0.8571 O   0  0  0  0  0  0  0  0  0  0  0  0
    0.6941    0.2298    0.6706 C   0  0  2  0  0  0  0  0  0  0  0  0
    1.3055    1.1579   -1.2090 H   0  0  0  0  0  0  0  0  0  0  0  0
    3.1462    1.1578    0.0609 H   0  0  0  0  0  0  0  0  0  0  0  0
    1.1883   -0.8310   -2.4106 H   0  0  0  0  0  0  0  0  0  0  0  0
    1.8273   -1.8371   -1.0537 H   0  0  0  0  0  0  0  0  0  0  0  0
   -0.1557   -1.7403    1.1007 H   0  0  0  0  0  0  0  0  0  0  0  0
   -1.9825   -0.4355    1.6785 H   0  0  0  0  0  0  0  0  0  0  0  0
   -3.4723   -0.2871    0.0161 H   0  0  0  0  0  0  0  0  0  0  0  0
   -1.4606    1.5739   -0.5712 H   0  0  0  0  0  0  0  0  0  0  0  0
   -1.9922    1.8574    1.1324 H   0  0  0  0  0  0  0  0  0  0  0  0
    1.2977   -0.0019    1.5767 H   0  0  0  0  0  0  0  0  0  0  0  0
  1  2  1  0
  1  3  1  0
  3  4  1  0
  4  5  1  0
  5  6  1  0
  6  7  1  0
  6  8  1  0
  8  9  1  0
  9 10  1  0
 10  1  1  0
 10  5  1  0
  1 11  1  6
  2 12  1  0
  3 13  1  0
  3 14  1  0
  5 15  1  1
  6 16  1  1
  7 17  1  0
  8 18  1  0
  8 19  1  0
 10 20  1  1
M  END
$$$$
