
     RDKit          3D

 65 69  0  0  0  0  0  0  0  0999 V2000
   -5.5842    0.4003    3.4205 C   0  0  0  0  0  0  0  0  0  0  0  0
   -5.2780    0.2833    2.0350 O   0  0  0  0  0  0  0  0  0  0  0  0
   -4.2667   -0.5371    1.5059 C   0  0  0  0  0  0  0  0  0  0  0  0
   -3.4439   -1.3206    2.3364 C   0  0  0  0  0  0  0  0  0  0  0  0
   -2.4408   -2.1170    1.7885 C   0  0  0  0  0  0  0  0  0  0  0  0
   -2.2402   -2.1438    0.4107 C   0  0  0  0  0  0  0  0  0  0  0  0
   -3.0333   -1.3598   -0.4427 C   0  0  0  0  0  0  0  0  0  0  0  0
   -2.8233   -1.4524   -1.9098 C   0  0  0  0  0  0  0  0  0  0  0  0
   -3.9238   -1.7322   -2.7159 O   0  0  0  0  0  0  0  0  0  0  0  0
   -1.6522   -1.3183   -2.4708 N   0  0  0  0  0  0  0  0  0  0  0  0
   -0.4144   -0.9360   -1.8474 C   0  0  0  0  0  0  0  0  0  0  0  0
   -0.3499    0.1015   -0.9019 C   0  0  0  0  0  0  0  0  0  0  0  0
    0.8729    0.4591   -0.3305 C   0  0  0  0  0  0  0  0  0  0  0  0
    2.0557   -0.1863   -0.7195 C   0  0  0  0  0  0  0  0  0  0  0  0
    3.3566    0.1893   -0.0476 C   0  0  0  0  0  0  0  0  0  0  0  0
    4.5502   -0.3265   -0.7411 N   0  0  0  0  0  0  0  0  0  0  0  0
    4.4452   -0.9655   -2.0615 C   0  0  0  0  0  0  0  0  0  0  0  0
    3.2546   -1.9184   -2.0989 C   0  0  0  0  0  0  0  0  0  0  0  0
    2.0019   -1.1975   -1.6973 C   0  0  0  0  0  0  0  0  0  0  0  0
    0.7673   -1.5649   -2.2547 C   0  0  0  0  0  0  0  0  0  0  0  0
    5.8436   -0.0312   -0.1796 C   0  0  0  0  0  0  0  0  0  0  0  0
    6.8927   -0.3014   -0.8269 O   0  0  0  0  0  0  0  0  0  0  0  0
    5.9271    0.6124    1.0641 O   0  0  0  0  0  0  0  0  0  0  0  0
    7.0803    0.7022    1.8575 C   0  0  0  0  0  0  0  0  0  0  0  0
    8.0813   -0.2887    1.8468 C   0  0  0  0  0  0  0  0  0  0  0  0
    9.2074   -0.1597    2.6663 C   0  0  0  0  0  0  0  0  0  0  0  0
    9.3392    0.9483    3.5075 C   0  0  0  0  0  0  0  0  0  0  0  0
    8.3406    1.9250    3.5370 C   0  0  0  0  0  0  0  0  0  0  0  0
    7.2130    1.7985    2.7197 C   0  0  0  0  0  0  0  0  0  0  0  0
   -4.0686   -0.5613    0.1075 C   0  0  0  0  0  0  0  0  0  0  0  0
   -4.9380    0.2699   -0.7609 C   0  0  0  0  0  0  0  0  0  0  0  0
   -6.3230    0.0482   -0.7914 C   0  0  0  0  0  0  0  0  0  0  0  0
   -7.1454    0.8273   -1.6099 C   0  0  0  0  0  0  0  0  0  0  0  0
   -6.5943    1.8308   -2.4254 C   0  0  0  0  0  0  0  0  0  0  0  0
   -5.2104    2.0703   -2.3699 C   0  0  0  0  0  0  0  0  0  0  0  0
   -4.3887    1.2913   -1.5507 C   0  0  0  0  0  0  0  0  0  0  0  0
   -7.4869    2.7033   -3.2715 C   0  0  0  0  0  0  0  0  0  0  0  0
   -8.6034    2.0001   -3.6899 F   0  0  0  0  0  0  0  0  0  0  0  0
   -7.8945    3.7944   -2.5271 F   0  0  0  0  0  0  0  0  0  0  0  0
   -6.8117    3.1499   -4.3942 F   0  0  0  0  0  0  0  0  0  0  0  0
   -5.8891   -0.5863    3.8288 H   0  0  0  0  0  0  0  0  0  0  0  0
   -6.4258    1.1118    3.5463 H   0  0  0  0  0  0  0  0  0  0  0  0
   -4.7041    0.7896    3.9746 H   0  0  0  0  0  0  0  0  0  0  0  0
   -3.5723   -1.3218    3.4100 H   0  0  0  0  0  0  0  0  0  0  0  0
   -1.8188   -2.7223    2.4354 H   0  0  0  0  0  0  0  0  0  0  0  0
   -1.4694   -2.7887    0.0068 H   0  0  0  0  0  0  0  0  0  0  0  0
   -3.8306   -1.8109   -3.7218 H   0  0  0  0  0  0  0  0  0  0  0  0
   -1.2401    0.6391   -0.6075 H   0  0  0  0  0  0  0  0  0  0  0  0
    0.8991    1.2440    0.4154 H   0  0  0  0  0  0  0  0  0  0  0  0
    3.4271    1.2974    0.0140 H   0  0  0  0  0  0  0  0  0  0  0  0
    3.3355   -0.2166    0.9869 H   0  0  0  0  0  0  0  0  0  0  0  0
    4.3261   -0.1805   -2.8398 H   0  0  0  0  0  0  0  0  0  0  0  0
    5.3600   -1.5515   -2.2959 H   0  0  0  0  0  0  0  0  0  0  0  0
    3.4285   -2.7612   -1.3956 H   0  0  0  0  0  0  0  0  0  0  0  0
    3.1578   -2.3318   -3.1267 H   0  0  0  0  0  0  0  0  0  0  0  0
    0.7207   -2.3522   -2.9977 H   0  0  0  0  0  0  0  0  0  0  0  0
    7.9830   -1.1734    1.2330 H   0  0  0  0  0  0  0  0  0  0  0  0
    9.9739   -0.9239    2.6559 H   0  0  0  0  0  0  0  0  0  0  0  0
   10.2106    1.0456    4.1420 H   0  0  0  0  0  0  0  0  0  0  0  0
    8.4390    2.7792    4.1943 H   0  0  0  0  0  0  0  0  0  0  0  0
    6.4427    2.5588    2.7497 H   0  0  0  0  0  0  0  0  0  0  0  0
   -6.7656   -0.7308   -0.1826 H   0  0  0  0  0  0  0  0  0  0  0  0
   -8.2128    0.6453   -1.6049 H   0  0  0  0  0  0  0  0  0  0  0  0
   -4.7640    2.8624   -2.9578 H   0  0  0  0  0  0  0  0  0  0  0  0
   -3.3256    1.4915   -1.5263 H   0  0  0  0  0  0  0  0  0  0  0  0
  1  2  1  0
  2  3  1  0
  3  4  2  0
  4  5  1  0
  5  6  2  0
  6  7  1  0
  7  8  1  0
  8  9  1  0
  8 10  2  3
 10 11  1  0
 11 12  2  0
 12 13  1  0
 13 14  2  0
 14 15  1  0
 15 16  1  0
 16 17  1  0
 17 18  1  0
 18 19  1  0
 19 20  2  0
 16 21  1  0
 21 22  2  0
 21 23  1  0
 23 24  1  0
 24 25  2  0
 25 26  1  0
 26 27  2  0
 27 28  1  0
 28 29  2  0
  7 30  2  0
 30 31  1  0
 31 32  2  0
 32 33  1  0
 33 34  2  0
 34 35  1  0
 35 36  2  0
 34 37  1  0
 37 38  1  0
 37 39  1  0
 37 40  1  0
 30  3  1  0
 36 31  1  0
 20 11  1  0
 29 24  1  0
 19 14  1  0
  1 41  1  0
  1 42  1  0
  1 43  1  0
  4 44  1  0
  5 45  1  0
  6 46  1  0
  9 47  1  0
 12 48  1  0
 13 49  1  0
 15 50  1  0
 15 51  1  0
 17 52  1  0
 17 53  1  0
 18 54  1  0
 18 55  1  0
 20 56  1  0
 25 57  1  0
 26 58  1  0
 27 59  1  0
 28 60  1  0
 29 61  1  0
 32 62  1  0
 33 63  1  0
 35 64  1  0
 36 65  1  0
M  END
$$$$
