
     RDKit          3D

 38 41  0  0  0  0  0  0  0  0999 V2000
   -1.9114    3.1741    2.6983 C   0  0  0  0  0  0  0  0  0  0  0  0
   -1.6906    3.1613    1.1903 C   0  0  0  0  0  0  0  0  0  0  0  0
   -1.3782    1.7775    0.7145 C   0  0  0  0  0  0  0  0  0  0  0  0
   -0.1165    1.1939    0.6936 C   0  0  0  0  0  0  0  0  0  0  0  0
   -0.1246   -0.1424    0.2573 C   0  0  0  0  0  0  0  0  0  0  0  0
   -1.4087   -0.5887   -0.0644 C   0  0  0  0  0  0  0  0  0  0  0  0
   -2.5176    0.6478    0.2111 S   0  0  0  0  0  0  0  0  0  0  0  0
   -1.7324   -1.9126   -0.5098 N   0  0  0  0  0  0  0  0  0  0  0  0
   -2.7418   -2.3538   -1.2889 C   0  0  0  0  0  0  0  0  0  0  0  0
   -3.7895   -1.4968   -1.9239 C   0  0  0  0  0  0  0  0  0  0  0  0
   -2.6929   -3.6932   -1.4357 N   0  0  0  0  0  0  0  0  0  0  0  0
   -1.6440   -4.1226   -0.7474 N   0  0  0  0  0  0  0  0  0  0  0  0
   -1.0661   -3.0359   -0.2009 C   0  0  0  0  0  0  0  0  0  0  0  0
    0.0963   -3.0785    0.7368 C   0  0  0  0  0  0  0  0  0  0  0  0
    1.1780   -2.2205    0.2597 N   0  0  0  0  0  0  0  0  0  0  0  0
    1.1224   -0.9323    0.0576 C   0  0  0  0  0  0  0  0  0  0  0  0
    2.3670   -0.2419   -0.3468 C   0  0  0  0  0  0  0  0  0  0  0  0
    3.5281   -0.4231    0.4246 C   0  0  0  0  0  0  0  0  0  0  0  0
    4.7155    0.2281    0.0819 C   0  0  0  0  0  0  0  0  0  0  0  0
    4.7595    1.0593   -1.0383 C   0  0  0  0  0  0  0  0  0  0  0  0
    3.6185    1.2348   -1.8240 C   0  0  0  0  0  0  0  0  0  0  0  0
    2.4222    0.5874   -1.4907 C   0  0  0  0  0  0  0  0  0  0  0  0
    1.0419    0.7876   -2.5667 Cl  0  0  0  0  0  0  0  0  0  0  0  0
   -0.9961    2.8282    3.2249 H   0  0  0  0  0  0  0  0  0  0  0  0
   -2.1440    4.2075    3.0310 H   0  0  0  0  0  0  0  0  0  0  0  0
   -2.7623    2.5128    2.9689 H   0  0  0  0  0  0  0  0  0  0  0  0
   -2.6055    3.5312    0.6800 H   0  0  0  0  0  0  0  0  0  0  0  0
   -0.8515    3.8431    0.9331 H   0  0  0  0  0  0  0  0  0  0  0  0
    0.7822    1.7232    0.9839 H   0  0  0  0  0  0  0  0  0  0  0  0
   -3.3147   -0.6247   -2.4199 H   0  0  0  0  0  0  0  0  0  0  0  0
   -4.5042   -1.1465   -1.1509 H   0  0  0  0  0  0  0  0  0  0  0  0
   -4.3460   -2.0787   -2.6883 H   0  0  0  0  0  0  0  0  0  0  0  0
   -0.2277   -2.7481    1.7469 H   0  0  0  0  0  0  0  0  0  0  0  0
    0.4742   -4.1193    0.8161 H   0  0  0  0  0  0  0  0  0  0  0  0
    3.5096   -1.0578    1.3023 H   0  0  0  0  0  0  0  0  0  0  0  0
    5.6023    0.0893    0.6868 H   0  0  0  0  0  0  0  0  0  0  0  0
    5.6809    1.5619   -1.3027 H   0  0  0  0  0  0  0  0  0  0  0  0
    3.6678    1.8684   -2.7006 H   0  0  0  0  0  0  0  0  0  0  0  0
  1  2  1  0
  2  3  1  0
  3  4  2  0
  4  5  1  0
  5  6  2  0
  6  7  1  0
  6  8  1  0
  8  9  1  0
  9 10  1  0
  9 11  2  0
 11 12  1  0
 12 13  2  0
 13 14  1  0
 14 15  1  0
 15 16  2  0
 16 17  1  0
 17 18  2  0
 18 19  1  0
 19 20  2  0
 20 21  1  0
 21 22  2  0
 22 23  1  0
  7  3  1  0
 13  8  1  0
 22 17  1  0
 16  5  1  0
  1 24  1  0
  1 25  1  0
  1 26  1  0
  2 27  1  0
  2 28  1  0
  4 29  1  0
 10 30  1  0
 10 31  1  0
 10 32  1  0
 14 33  1  0
 14 34  1  0
 18 35  1  0
 19 36  1  0
 20 37  1  0
 21 38  1  0
M  END
$$$$
