
     RDKit          3D

 75 78  0  0  0  0  0  0  0  0999 V2000
   -6.0116    2.1507    0.4536 C   0  0  2  0  0  0  0  0  0  0  0  0
   -5.1288    2.2916    1.6664 C   0  0  0  0  0  0  0  0  0  0  0  0
   -5.3541    0.9905    2.4029 C   0  0  0  0  0  0  0  0  0  0  0  0
   -6.6383    0.5087    2.0845 O   0  0  0  0  0  0  0  0  0  0  0  0
   -7.0344    1.1119    0.8703 C   0  0  2  0  0  0  0  0  0  0  0  0
   -7.1456    0.1240   -0.1305 O   0  0  0  0  0  0  0  0  0  0  0  0
   -6.4700    0.6104   -1.2634 C   0  0  0  0  0  0  0  0  0  0  0  0
   -5.3839    1.5565   -0.7990 C   0  0  2  0  0  0  0  0  0  0  0  0
   -4.1990    0.7999   -0.5289 O   0  0  0  0  0  0  0  0  0  0  0  0
   -2.9025    1.3071   -0.6710 C   0  0  0  0  0  0  0  0  0  0  0  0
   -2.7175    2.4995   -1.0402 O   0  0  0  0  0  0  0  0  0  0  0  0
   -1.7863    0.4546   -0.3883 N   0  0  0  0  0  0  0  0  0  0  0  0
   -0.3949    0.9161   -0.4769 C   0  0  1  0  0  0  0  0  0  0  0  0
   -0.0223    1.7805    0.7571 C   0  0  0  0  0  0  0  0  0  0  0  0
   -0.0770    1.0415    2.0746 C   0  0  0  0  0  0  0  0  0  0  0  0
   -1.3131    0.7598    2.6807 C   0  0  0  0  0  0  0  0  0  0  0  0
   -1.3651    0.0740    3.8973 C   0  0  0  0  0  0  0  0  0  0  0  0
   -0.1837   -0.3254    4.5264 C   0  0  0  0  0  0  0  0  0  0  0  0
    1.0512   -0.0360    3.9413 C   0  0  0  0  0  0  0  0  0  0  0  0
    1.1077    0.6427    2.7201 C   0  0  0  0  0  0  0  0  0  0  0  0
    0.5660   -0.2774   -0.7441 C   0  0  2  0  0  0  0  0  0  0  0  0
    0.5581   -1.1652    0.3456 O   0  0  0  0  0  0  0  0  0  0  0  0
    2.0167    0.2071   -1.0109 C   0  0  0  0  0  0  0  0  0  0  0  0
    2.8317   -0.7070   -1.8416 N   0  0  0  0  0  0  0  0  0  0  0  0
    2.3353   -0.8451   -3.2276 C   0  0  0  0  0  0  0  0  0  0  0  0
    3.5058   -0.8099   -4.2291 C   0  0  0  0  0  0  0  0  0  0  0  0
    4.2533    0.5291   -4.1607 C   0  0  0  0  0  0  0  0  0  0  0  0
    2.9962   -1.0592   -5.6537 C   0  0  0  0  0  0  0  0  0  0  0  0
    3.1372   -2.2582   -1.0847 S   0  0  0  0  0  6  0  0  0  0  0  0
    4.2622   -2.9530   -1.7981 O   0  0  0  0  0  0  0  0  0  0  0  0
    1.9113   -3.1254   -1.1714 O   0  0  0  0  0  0  0  0  0  0  0  0
    3.6135   -2.0470    0.5999 C   0  0  0  0  0  0  0  0  0  0  0  0
    4.6645   -1.1771    0.9182 C   0  0  0  0  0  0  0  0  0  0  0  0
    5.0455   -0.9905    2.2501 C   0  0  0  0  0  0  0  0  0  0  0  0
    4.3845   -1.6803    3.2759 C   0  0  0  0  0  0  0  0  0  0  0  0
    4.7695   -1.4852    4.6391 N   0  0  0  0  0  0  0  0  0  0  0  0
    3.3404   -2.5596    2.9565 C   0  0  0  0  0  0  0  0  0  0  0  0
    2.9567   -2.7429    1.6250 C   0  0  0  0  0  0  0  0  0  0  0  0
   -6.5058    3.1182    0.2074 H   0  0  0  0  0  0  0  0  0  0  0  0
   -4.0622    2.4769    1.4312 H   0  0  0  0  0  0  0  0  0  0  0  0
   -5.4999    3.1325    2.2933 H   0  0  0  0  0  0  0  0  0  0  0  0
   -4.5975    0.2365    2.0951 H   0  0  0  0  0  0  0  0  0  0  0  0
   -5.2713    1.1457    3.4996 H   0  0  0  0  0  0  0  0  0  0  0  0
   -8.0265    1.5922    1.0183 H   0  0  0  0  0  0  0  0  0  0  0  0
   -7.1939    1.1476   -1.9162 H   0  0  0  0  0  0  0  0  0  0  0  0
   -6.0426   -0.2376   -1.8405 H   0  0  0  0  0  0  0  0  0  0  0  0
   -5.1970    2.3314   -1.5759 H   0  0  0  0  0  0  0  0  0  0  0  0
   -1.9942   -0.5313   -0.1141 H   0  0  0  0  0  0  0  0  0  0  0  0
   -0.3191    1.5777   -1.3692 H   0  0  0  0  0  0  0  0  0  0  0  0
   -0.7163    2.6469    0.8119 H   0  0  0  0  0  0  0  0  0  0  0  0
    0.9865    2.2222    0.6093 H   0  0  0  0  0  0  0  0  0  0  0  0
   -2.2351    1.0754    2.2153 H   0  0  0  0  0  0  0  0  0  0  0  0
   -2.3220   -0.1425    4.3547 H   0  0  0  0  0  0  0  0  0  0  0  0
   -0.2247   -0.8528    5.4706 H   0  0  0  0  0  0  0  0  0  0  0  0
    1.9650   -0.3345    4.4372 H   0  0  0  0  0  0  0  0  0  0  0  0
    2.0740    0.8582    2.2828 H   0  0  0  0  0  0  0  0  0  0  0  0
    0.1915   -0.7939   -1.6584 H   0  0  0  0  0  0  0  0  0  0  0  0
   -0.1187   -1.8663    0.1589 H   0  0  0  0  0  0  0  0  0  0  0  0
    2.5334    0.3890   -0.0473 H   0  0  0  0  0  0  0  0  0  0  0  0
    1.9976    1.1988   -1.5145 H   0  0  0  0  0  0  0  0  0  0  0  0
    1.6356   -0.0181   -3.4889 H   0  0  0  0  0  0  0  0  0  0  0  0
    1.7621   -1.7900   -3.3521 H   0  0  0  0  0  0  0  0  0  0  0  0
    4.2229   -1.6210   -3.9819 H   0  0  0  0  0  0  0  0  0  0  0  0
    5.0893    0.5393   -4.8922 H   0  0  0  0  0  0  0  0  0  0  0  0
    4.6855    0.6802   -3.1488 H   0  0  0  0  0  0  0  0  0  0  0  0
    3.5676    1.3735   -4.3881 H   0  0  0  0  0  0  0  0  0  0  0  0
    2.4904   -2.0466   -5.7124 H   0  0  0  0  0  0  0  0  0  0  0  0
    2.2767   -0.2686   -5.9577 H   0  0  0  0  0  0  0  0  0  0  0  0
    3.8458   -1.0655   -6.3696 H   0  0  0  0  0  0  0  0  0  0  0  0
    5.1813   -0.6368    0.1349 H   0  0  0  0  0  0  0  0  0  0  0  0
    5.8536   -0.3085    2.4826 H   0  0  0  0  0  0  0  0  0  0  0  0
    5.5443   -0.8304    4.8873 H   0  0  0  0  0  0  0  0  0  0  0  0
    4.2780   -1.9893    5.4105 H   0  0  0  0  0  0  0  0  0  0  0  0
    2.8204   -3.0972    3.7394 H   0  0  0  0  0  0  0  0  0  0  0  0
    2.1461   -3.4230    1.3985 H   0  0  0  0  0  0  0  0  0  0  0  0
  1  2  1  0
  2  3  1  0
  3  4  1  0
  4  5  1  0
  5  6  1  0
  6  7  1  0
  7  8  1  0
  8  9  1  0
  9 10  1  0
 10 11  2  0
 10 12  1  0
 12 13  1  0
 13 14  1  0
 14 15  1  0
 15 16  2  0
 16 17  1  0
 17 18  2  0
 18 19  1  0
 19 20  2  0
 13 21  1  0
 21 22  1  0
 21 23  1  0
 23 24  1  0
 24 25  1  0
 25 26  1  0
 26 27  1  0
 26 28  1  0
 24 29  1  0
 29 30  2  0
 29 31  2  0
 29 32  1  0
 32 33  2  0
 33 34  1  0
 34 35  2  0
 35 36  1  0
 35 37  1  0
 37 38  2  0
  5  1  1  0
 20 15  1  0
 38 32  1  0
  8  1  1  0
  1 39  1  6
  2 40  1  0
  2 41  1  0
  3 42  1  0
  3 43  1  0
  5 44  1  1
  7 45  1  0
  7 46  1  0
  8 47  1  6
 12 48  1  0
 13 49  1  6
 14 50  1  0
 14 51  1  0
 16 52  1  0
 17 53  1  0
 18 54  1  0
 19 55  1  0
 20 56  1  0
 21 57  1  6
 22 58  1  0
 23 59  1  0
 23 60  1  0
 25 61  1  0
 25 62  1  0
 26 63  1  0
 27 64  1  0
 27 65  1  0
 27 66  1  0
 28 67  1  0
 28 68  1  0
 28 69  1  0
 33 70  1  0
 34 71  1  0
 36 72  1  0
 36 73  1  0
 37 74  1  0
 38 75  1  0
M  END
$$$$
