
     RDKit          3D

 51 53  0  0  0  0  0  0  0  0999 V2000
    5.9879    2.5663   -1.4228 C   0  0  0  0  0  0  0  0  0  0  0  0
    5.7574    3.1640   -0.0364 C   0  0  0  0  0  0  0  0  0  0  0  0
    4.3086    2.9951    0.4189 C   0  0  0  0  0  0  0  0  0  0  0  0
    4.0062    1.6107    0.5777 O   0  0  0  0  0  0  0  0  0  0  0  0
    2.7441    1.1113    0.9289 C   0  0  0  0  0  0  0  0  0  0  0  0
    1.6553    1.9528    1.2257 C   0  0  0  0  0  0  0  0  0  0  0  0
    0.4066    1.4059    1.5333 C   0  0  0  0  0  0  0  0  0  0  0  0
    0.2238    0.0155    1.5360 C   0  0  0  0  0  0  0  0  0  0  0  0
    1.3184   -0.8232    1.2810 C   0  0  0  0  0  0  0  0  0  0  0  0
    2.5679   -0.2762    0.9768 C   0  0  0  0  0  0  0  0  0  0  0  0
   -1.1163   -0.5497    1.7839 C   0  0  0  0  0  0  0  0  0  0  0  0
   -1.8292   -0.2601    2.9438 C   0  0  0  0  0  0  0  0  0  0  0  0
   -3.3224   -1.0185    2.8538 S   0  0  0  0  0  0  0  0  0  0  0  0
   -3.0983   -1.7106    1.3384 C   0  0  0  0  0  0  0  0  0  0  0  0
   -1.8275   -1.3626    0.8662 C   0  0  0  0  0  0  0  0  0  0  0  0
   -1.3268   -1.7142   -0.5172 C   0  0  0  0  0  0  0  0  0  0  0  0
   -1.1501   -0.4772   -1.3478 C   0  0  0  0  0  0  0  0  0  0  0  0
   -2.1679    0.1693   -1.7163 O   0  0  0  0  0  0  0  0  0  0  0  0
    0.1646   -0.0522   -1.7371 N   0  0  0  0  0  0  0  0  0  0  0  0
    0.4943    1.2887   -2.1294 C   0  0  0  0  0  0  0  0  0  0  0  0
   -0.3120    2.3994   -1.7187 N   0  0  0  0  0  0  0  0  0  0  0  0
    1.5801    1.4975   -2.8034 N   0  0  0  0  0  0  0  0  0  0  0  0
   -4.0916   -2.5672    0.6651 C   0  0  0  0  0  0  0  0  0  0  0  0
   -3.7801   -3.9142    0.4186 C   0  0  0  0  0  0  0  0  0  0  0  0
   -4.7098   -4.7518   -0.2026 C   0  0  0  0  0  0  0  0  0  0  0  0
   -5.9576   -4.2527   -0.5812 C   0  0  0  0  0  0  0  0  0  0  0  0
   -6.2776   -2.9139   -0.3419 C   0  0  0  0  0  0  0  0  0  0  0  0
   -5.3527   -2.0662    0.2804 C   0  0  0  0  0  0  0  0  0  0  0  0
   -5.7871   -0.3764    0.5153 Cl  0  0  0  0  0  0  0  0  0  0  0  0
    7.0434    2.7300   -1.7263 H   0  0  0  0  0  0  0  0  0  0  0  0
    5.3244    3.0536   -2.1688 H   0  0  0  0  0  0  0  0  0  0  0  0
    5.7886    1.4736   -1.4133 H   0  0  0  0  0  0  0  0  0  0  0  0
    6.4359    2.6737    0.6949 H   0  0  0  0  0  0  0  0  0  0  0  0
    6.0038    4.2474   -0.0656 H   0  0  0  0  0  0  0  0  0  0  0  0
    3.6259    3.4501   -0.3323 H   0  0  0  0  0  0  0  0  0  0  0  0
    4.1746    3.5163    1.3915 H   0  0  0  0  0  0  0  0  0  0  0  0
    1.7591    3.0289    1.2078 H   0  0  0  0  0  0  0  0  0  0  0  0
   -0.4268    2.0677    1.7350 H   0  0  0  0  0  0  0  0  0  0  0  0
    1.2045   -1.8994    1.3115 H   0  0  0  0  0  0  0  0  0  0  0  0
    3.4009   -0.9338    0.7631 H   0  0  0  0  0  0  0  0  0  0  0  0
   -1.4819    0.3515    3.7662 H   0  0  0  0  0  0  0  0  0  0  0  0
   -2.0348   -2.3843   -1.0455 H   0  0  0  0  0  0  0  0  0  0  0  0
   -0.3715   -2.2709   -0.4356 H   0  0  0  0  0  0  0  0  0  0  0  0
    0.9302   -0.7636   -1.7444 H   0  0  0  0  0  0  0  0  0  0  0  0
   -0.0884    3.3661   -2.0444 H   0  0  0  0  0  0  0  0  0  0  0  0
   -1.0720    2.2869   -1.0133 H   0  0  0  0  0  0  0  0  0  0  0  0
    1.8778    2.4585   -3.0839 H   0  0  0  0  0  0  0  0  0  0  0  0
   -2.8179   -4.3160    0.7127 H   0  0  0  0  0  0  0  0  0  0  0  0
   -4.4632   -5.7890   -0.3891 H   0  0  0  0  0  0  0  0  0  0  0  0
   -6.6764   -4.9028   -1.0631 H   0  0  0  0  0  0  0  0  0  0  0  0
   -7.2447   -2.5341   -0.6461 H   0  0  0  0  0  0  0  0  0  0  0  0
  1  2  1  0
  2  3  1  0
  3  4  1  0
  4  5  1  0
  5  6  2  0
  6  7  1  0
  7  8  2  0
  8  9  1  0
  9 10  2  0
  8 11  1  0
 11 12  2  0
 12 13  1  0
 13 14  1  0
 14 15  2  0
 15 16  1  0
 16 17  1  0
 17 18  2  0
 17 19  1  0
 19 20  1  0
 20 21  1  0
 20 22  2  3
 14 23  1  0
 23 24  2  0
 24 25  1  0
 25 26  2  0
 26 27  1  0
 27 28  2  0
 28 29  1  0
 10  5  1  0
 15 11  1  0
 28 23  1  0
  1 30  1  0
  1 31  1  0
  1 32  1  0
  2 33  1  0
  2 34  1  0
  3 35  1  0
  3 36  1  0
  6 37  1  0
  7 38  1  0
  9 39  1  0
 10 40  1  0
 12 41  1  0
 16 42  1  0
 16 43  1  0
 19 44  1  0
 21 45  1  0
 21 46  1  0
 22 47  1  0
 24 48  1  0
 25 49  1  0
 26 50  1  0
 27 51  1  0
M  END
$$$$
