
     RDKit          3D

 25 26  0  0  0  0  0  0  0  0999 V2000
   -1.7914    0.0482    0.6325 C   0  0  1  0  0  0  0  0  0  0  0  0
   -3.1772    0.5213    0.5685 N   0  0  0  0  0  0  0  0  0  0  0  0
   -1.6010   -1.2350   -0.1938 C   0  0  0  0  0  0  0  0  0  0  0  0
   -0.1918   -1.7991    0.0123 C   0  0  0  0  0  0  0  0  0  0  0  0
    0.8880   -0.7458   -0.0844 C   0  0  0  0  0  0  0  0  0  0  0  0
    2.2232   -1.1615   -0.2145 C   0  0  0  0  0  0  0  0  0  0  0  0
    3.2595   -0.2258   -0.2266 C   0  0  0  0  0  0  0  0  0  0  0  0
    2.9759    1.1338   -0.0973 C   0  0  0  0  0  0  0  0  0  0  0  0
    1.6549    1.5631    0.0450 C   0  0  0  0  0  0  0  0  0  0  0  0
    0.6005    0.6342    0.0662 C   0  0  0  0  0  0  0  0  0  0  0  0
   -0.8242    1.1444    0.1454 C   0  0  1  0  0  0  0  0  0  0  0  0
   -1.2204    1.6035   -1.1226 O   0  0  0  0  0  0  0  0  0  0  0  0
   -1.5524   -0.1765    1.6976 H   0  0  0  0  0  0  0  0  0  0  0  0
   -3.7883   -0.1778    1.0501 H   0  0  0  0  0  0  0  0  0  0  0  0
   -3.4892    0.5638   -0.4294 H   0  0  0  0  0  0  0  0  0  0  0  0
   -2.3441   -2.0002    0.1195 H   0  0  0  0  0  0  0  0  0  0  0  0
   -1.7621   -1.0244   -1.2742 H   0  0  0  0  0  0  0  0  0  0  0  0
   -0.1337   -2.2677    1.0188 H   0  0  0  0  0  0  0  0  0  0  0  0
   -0.0126   -2.5940   -0.7442 H   0  0  0  0  0  0  0  0  0  0  0  0
    2.4619   -2.2146   -0.3003 H   0  0  0  0  0  0  0  0  0  0  0  0
    4.2849   -0.5561   -0.3316 H   0  0  0  0  0  0  0  0  0  0  0  0
    3.7810    1.8572   -0.1095 H   0  0  0  0  0  0  0  0  0  0  0  0
    1.4518    2.6233    0.1340 H   0  0  0  0  0  0  0  0  0  0  0  0
   -0.8741    1.9817    0.8816 H   0  0  0  0  0  0  0  0  0  0  0  0
   -0.8194    2.5039   -1.2433 H   0  0  0  0  0  0  0  0  0  0  0  0
  1  2  1  0
  1  3  1  0
  3  4  1  0
  4  5  1  0
  5  6  2  0
  6  7  1  0
  7  8  2  0
  8  9  1  0
  9 10  2  0
 10 11  1  0
 11 12  1  0
 11  1  1  0
 10  5  1  0
  1 13  1  1
  2 14  1  0
  2 15  1  0
  3 16  1  0
  3 17  1  0
  4 18  1  0
  4 19  1  0
  6 20  1  0
  7 21  1  0
  8 22  1  0
  9 23  1  0
 11 24  1  1
 12 25  1  0
M  END
$$$$
