
     RDKit          3D

 18 17  0  0  0  0  0  0  0  0999 V2000
   -0.2120    1.7415    0.1854 C   0  0  0  0  0  0  0  0  0  0  0  0
    0.2265    0.3660   -0.0721 N   0  0  0  0  0  0  0  0  0  0  0  0
   -0.5149   -0.4644   -1.0299 C   0  0  0  0  0  0  0  0  0  0  0  0
   -1.9097   -0.6988   -0.5414 C   0  0  0  0  0  0  0  0  0  0  0  0
   -2.1254   -1.5064    0.5706 O   0  0  0  0  0  0  0  0  0  0  0  0
   -2.8849   -0.1515   -1.1221 O   0  0  0  0  0  0  0  0  0  0  0  0
    1.4332   -0.1268    0.5454 C   0  0  0  0  0  0  0  0  0  0  0  0
    2.3689   -0.8980   -0.2117 N   0  0  0  0  0  0  0  0  0  0  0  0
    1.6969    0.1386    1.7866 N   0  0  0  0  0  0  0  0  0  0  0  0
    0.6427    2.4401    0.0625 H   0  0  0  0  0  0  0  0  0  0  0  0
   -0.6155    1.8254    1.2156 H   0  0  0  0  0  0  0  0  0  0  0  0
   -1.0102    2.0449   -0.5254 H   0  0  0  0  0  0  0  0  0  0  0  0
   -0.5290    0.0351   -2.0230 H   0  0  0  0  0  0  0  0  0  0  0  0
   -0.0340   -1.4572   -1.1573 H   0  0  0  0  0  0  0  0  0  0  0  0
   -3.0620   -1.6687    0.9207 H   0  0  0  0  0  0  0  0  0  0  0  0
    2.2547   -1.0227   -1.2416 H   0  0  0  0  0  0  0  0  0  0  0  0
    3.2218   -1.2905    0.2458 H   0  0  0  0  0  0  0  0  0  0  0  0
    1.0528    0.6932    2.3919 H   0  0  0  0  0  0  0  0  0  0  0  0
  1  2  1  0
  2  3  1  0
  3  4  1  0
  4  5  1  0
  4  6  2  0
  2  7  1  0
  7  8  1  0
  7  9  2  3
  1 10  1  0
  1 11  1  0
  1 12  1  0
  3 13  1  0
  3 14  1  0
  5 15  1  0
  8 16  1  0
  8 17  1  0
  9 18  1  0
M  END
$$$$
