
     RDKit          3D

 19 18  0  0  0  0  0  0  0  0999 V2000
   -0.8446    0.3921    0.8864 C   0  0  2  0  0  0  0  0  0  0  0  0
   -1.7463   -0.7572    0.7751 N   0  0  0  0  0  0  0  0  0  0  0  0
   -1.5525    1.6362    0.4216 C   0  0  0  0  0  0  0  0  0  0  0  0
   -1.5338    2.7797    1.2141 O   0  0  0  0  0  0  0  0  0  0  0  0
   -2.1425    1.6539   -0.6926 O   0  0  0  0  0  0  0  0  0  0  0  0
    0.4302    0.1561    0.0553 C   0  0  1  0  0  0  0  0  0  0  0  0
    1.2554    1.2875    0.1513 O   0  0  0  0  0  0  0  0  0  0  0  0
    1.1199   -0.9588    0.5871 O   0  0  0  0  0  0  0  0  0  0  0  0
    1.6827   -1.9519   -0.6674 S   0  0  0  0  0  6  0  0  0  0  0  0
    2.6437   -1.0742   -1.7352 O   0  0  0  0  0  0  0  0  0  0  0  0
    0.5197   -2.5626   -1.4005 O   0  0  0  0  0  0  0  0  0  0  0  0
    2.5107   -3.0560   -0.0745 O   0  0  0  0  0  0  0  0  0  0  0  0
   -0.5562    0.5261    1.9545 H   0  0  0  0  0  0  0  0  0  0  0  0
   -1.2826   -1.5891    1.2072 H   0  0  0  0  0  0  0  0  0  0  0  0
   -2.5927   -0.5698    1.3614 H   0  0  0  0  0  0  0  0  0  0  0  0
   -1.9969    3.6285    0.9122 H   0  0  0  0  0  0  0  0  0  0  0  0
    0.1074    0.0198   -1.0068 H   0  0  0  0  0  0  0  0  0  0  0  0
    1.9510    1.1924   -0.5491 H   0  0  0  0  0  0  0  0  0  0  0  0
    2.0273   -0.7527   -2.4407 H   0  0  0  0  0  0  0  0  0  0  0  0
  1  2  1  0
  1  3  1  0
  3  4  1  0
  3  5  2  0
  1  6  1  0
  6  7  1  0
  6  8  1  0
  8  9  1  0
  9 10  1  0
  9 11  2  0
  9 12  2  0
  1 13  1  1
  2 14  1  0
  2 15  1  0
  4 16  1  0
  6 17  1  6
  7 18  1  0
 10 19  1  0
M  END
$$$$
