
     RDKit          3D

 48 50  0  0  0  0  0  0  0  0999 V2000
    5.2210   -1.6878    0.1820 C   0  0  0  0  0  0  0  0  0  0  0  0
    4.5436   -0.8443   -0.9074 C   0  0  0  0  0  0  0  0  0  0  0  0
    3.7950    0.3287   -0.3909 N   0  0  0  0  0  0  0  0  0  0  0  0
    4.6383    1.3120    0.3289 C   0  0  0  0  0  0  0  0  0  0  0  0
    5.6194    2.0123   -0.6102 C   0  0  0  0  0  0  0  0  0  0  0  0
    2.6140   -0.0677    0.4093 C   0  0  0  0  0  0  0  0  0  0  0  0
    1.4437    0.8798    0.1275 C   0  0  0  0  0  0  0  0  0  0  0  0
    0.2480    0.4614    0.8598 N   0  0  0  0  0  0  0  0  0  0  0  0
   -1.0311    1.0653    0.6108 C   0  0  0  0  0  0  0  0  0  0  0  0
   -2.1888    0.2857    0.2859 C   0  0  0  0  0  0  0  0  0  0  0  0
   -2.0821   -1.1250   -0.0052 C   0  0  0  0  0  0  0  0  0  0  0  0
   -0.9297   -1.6349   -0.0751 O   0  0  0  0  0  0  0  0  0  0  0  0
   -3.1845   -2.0053   -0.2530 C   0  0  0  0  0  0  0  0  0  0  0  0
   -2.9496   -3.3860   -0.4708 C   0  0  0  0  0  0  0  0  0  0  0  0
   -4.0053   -4.2691   -0.7174 C   0  0  0  0  0  0  0  0  0  0  0  0
   -5.3174   -3.8010   -0.7568 C   0  0  0  0  0  0  0  0  0  0  0  0
   -5.5780   -2.4476   -0.5511 C   0  0  0  0  0  0  0  0  0  0  0  0
   -4.5230   -1.5626   -0.3018 C   0  0  0  0  0  0  0  0  0  0  0  0
   -4.8323    0.0681   -0.0788 S   0  0  0  0  0  0  0  0  0  0  0  0
   -3.4366    0.9709    0.2266 C   0  0  0  0  0  0  0  0  0  0  0  0
   -3.5242    2.3679    0.4158 C   0  0  0  0  0  0  0  0  0  0  0  0
   -4.8434    3.0943    0.3391 C   0  0  0  0  0  0  0  0  0  0  0  0
   -2.3627    3.0958    0.6761 C   0  0  0  0  0  0  0  0  0  0  0  0
   -1.1381    2.4523    0.7801 C   0  0  0  0  0  0  0  0  0  0  0  0
    4.5100   -1.9454    0.9937 H   0  0  0  0  0  0  0  0  0  0  0  0
    5.5912   -2.6334   -0.2671 H   0  0  0  0  0  0  0  0  0  0  0  0
    6.0961   -1.1548    0.6071 H   0  0  0  0  0  0  0  0  0  0  0  0
    3.8507   -1.4970   -1.4826 H   0  0  0  0  0  0  0  0  0  0  0  0
    5.3074   -0.5170   -1.6427 H   0  0  0  0  0  0  0  0  0  0  0  0
    3.9970    2.1060    0.7689 H   0  0  0  0  0  0  0  0  0  0  0  0
    5.1847    0.8437    1.1744 H   0  0  0  0  0  0  0  0  0  0  0  0
    6.4456    1.3296   -0.8971 H   0  0  0  0  0  0  0  0  0  0  0  0
    6.0660    2.8885   -0.0943 H   0  0  0  0  0  0  0  0  0  0  0  0
    5.0927    2.3661   -1.5219 H   0  0  0  0  0  0  0  0  0  0  0  0
    2.8470   -0.0693    1.4987 H   0  0  0  0  0  0  0  0  0  0  0  0
    2.2753   -1.0956    0.1458 H   0  0  0  0  0  0  0  0  0  0  0  0
    1.2259    0.8691   -0.9627 H   0  0  0  0  0  0  0  0  0  0  0  0
    1.7145    1.9138    0.4233 H   0  0  0  0  0  0  0  0  0  0  0  0
    0.3060   -0.3178    1.5551 H   0  0  0  0  0  0  0  0  0  0  0  0
   -1.9476   -3.7961   -0.4475 H   0  0  0  0  0  0  0  0  0  0  0  0
   -3.8035   -5.3203   -0.8786 H   0  0  0  0  0  0  0  0  0  0  0  0
   -6.1322   -4.4870   -0.9493 H   0  0  0  0  0  0  0  0  0  0  0  0
   -6.5996   -2.0895   -0.5883 H   0  0  0  0  0  0  0  0  0  0  0  0
   -5.2942    2.9492   -0.6652 H   0  0  0  0  0  0  0  0  0  0  0  0
   -4.7248    4.1858    0.5079 H   0  0  0  0  0  0  0  0  0  0  0  0
   -5.5348    2.7002    1.1133 H   0  0  0  0  0  0  0  0  0  0  0  0
   -2.4043    4.1680    0.8245 H   0  0  0  0  0  0  0  0  0  0  0  0
   -0.2656    3.0403    1.0339 H   0  0  0  0  0  0  0  0  0  0  0  0
  1  2  1  0
  2  3  1  0
  3  4  1  0
  4  5  1  0
  3  6  1  0
  6  7  1  0
  7  8  1  0
  8  9  1  0
  9 10  2  0
 10 11  1  0
 11 12  2  0
 11 13  1  0
 13 14  2  0
 14 15  1  0
 15 16  2  0
 16 17  1  0
 17 18  2  0
 18 19  1  0
 19 20  1  0
 20 21  2  0
 21 22  1  0
 21 23  1  0
 23 24  2  0
 24  9  1  0
 20 10  1  0
 18 13  1  0
  1 25  1  0
  1 26  1  0
  1 27  1  0
  2 28  1  0
  2 29  1  0
  4 30  1  0
  4 31  1  0
  5 32  1  0
  5 33  1  0
  5 34  1  0
  6 35  1  0
  6 36  1  0
  7 37  1  0
  7 38  1  0
  8 39  1  0
 14 40  1  0
 15 41  1  0
 16 42  1  0
 17 43  1  0
 22 44  1  0
 22 45  1  0
 22 46  1  0
 23 47  1  0
 24 48  1  0
M  END
$$$$
