
     RDKit          3D

 63 65  0  0  0  0  0  0  0  0999 V2000
    7.1309   -1.6893   -1.9807 C   0  0  0  0  0  0  0  0  0  0  0  0
    7.6931   -1.0797   -0.6966 C   0  0  0  0  0  0  0  0  0  0  0  0
    6.8343   -1.3962    0.5374 C   0  0  0  0  0  0  0  0  0  0  0  0
    5.4933   -0.6481    0.5302 C   0  0  0  0  0  0  0  0  0  0  0  0
    4.7191   -0.8963    1.8289 C   0  0  0  0  0  0  0  0  0  0  0  0
    3.4536   -0.1647    1.8175 N   0  0  0  0  0  0  0  0  0  0  0  0
    2.3212   -0.5975    1.0454 C   0  0  0  0  0  0  0  0  0  0  0  0
    2.3944   -1.6592    0.3678 O   0  0  0  0  0  0  0  0  0  0  0  0
    1.1022    0.1650    1.0336 N   0  0  0  0  0  0  0  0  0  0  0  0
    0.8693    1.3525    1.8361 C   0  0  0  0  0  0  0  0  0  0  0  0
   -0.5964    1.7030    1.6224 C   0  0  0  0  0  0  0  0  0  0  0  0
   -1.0039    1.0055    0.3170 C   0  0  0  0  0  0  0  0  0  0  0  0
   -2.5063    0.5920    0.3210 C   0  0  0  0  0  0  0  0  0  0  0  0
   -3.1845    0.6410   -1.0033 N   0  0  0  0  0  0  0  0  0  0  0  0
   -2.5577   -0.2084   -2.0380 C   0  0  0  0  0  0  0  0  0  0  0  0
   -2.6082   -1.6606   -1.6663 C   0  0  0  0  0  0  0  0  0  0  0  0
   -3.7209   -2.3361   -1.1719 C   0  0  0  0  0  0  0  0  0  0  0  0
   -3.4994   -3.7053   -0.9858 C   0  0  0  0  0  0  0  0  0  0  0  0
   -2.2189   -4.0993   -1.3566 C   0  0  0  0  0  0  0  0  0  0  0  0
   -1.3612   -2.7648   -1.9165 S   0  0  0  0  0  0  0  0  0  0  0  0
   -1.7058   -5.4329   -1.2900 N   0  0  0  0  0  4  0  0  0  0  0  0
   -0.4174   -5.6971   -1.6918 O   0  0  0  0  0  1  0  0  0  0  0  0
   -2.4186   -6.3649   -0.8649 O   0  0  0  0  0  0  0  0  0  0  0  0
   -3.4142    2.0160   -1.5024 C   0  0  0  0  0  0  0  0  0  0  0  0
   -4.3863    2.7592   -0.6235 C   0  0  0  0  0  0  0  0  0  0  0  0
   -3.9510    3.8276    0.1783 C   0  0  0  0  0  0  0  0  0  0  0  0
   -4.8536    4.4952    1.0116 C   0  0  0  0  0  0  0  0  0  0  0  0
   -6.1949    4.1001    1.0527 C   0  0  0  0  0  0  0  0  0  0  0  0
   -7.3251    4.9377    2.1003 Cl  0  0  0  0  0  0  0  0  0  0  0  0
   -6.6330    3.0338    0.2603 C   0  0  0  0  0  0  0  0  0  0  0  0
   -5.7326    2.3636   -0.5733 C   0  0  0  0  0  0  0  0  0  0  0  0
   -0.0335   -0.1771    0.1952 C   0  0  0  0  0  0  0  0  0  0  0  0
    7.8518   -1.5307   -2.8102 H   0  0  0  0  0  0  0  0  0  0  0  0
    6.9715   -2.7814   -1.8557 H   0  0  0  0  0  0  0  0  0  0  0  0
    6.1727   -1.2046   -2.2600 H   0  0  0  0  0  0  0  0  0  0  0  0
    7.7958    0.0203   -0.8200 H   0  0  0  0  0  0  0  0  0  0  0  0
    8.7108   -1.4953   -0.5314 H   0  0  0  0  0  0  0  0  0  0  0  0
    7.4091   -1.0952    1.4407 H   0  0  0  0  0  0  0  0  0  0  0  0
    6.6562   -2.4923    0.6012 H   0  0  0  0  0  0  0  0  0  0  0  0
    5.6755    0.4435    0.4212 H   0  0  0  0  0  0  0  0  0  0  0  0
    4.8803   -0.9906   -0.3293 H   0  0  0  0  0  0  0  0  0  0  0  0
    4.5250   -1.9825    1.9665 H   0  0  0  0  0  0  0  0  0  0  0  0
    5.3301   -0.5471    2.6901 H   0  0  0  0  0  0  0  0  0  0  0  0
    3.3749    0.6783    2.4280 H   0  0  0  0  0  0  0  0  0  0  0  0
    1.0630    1.1428    2.9105 H   0  0  0  0  0  0  0  0  0  0  0  0
    1.5239    2.1777    1.4810 H   0  0  0  0  0  0  0  0  0  0  0  0
   -0.7455    2.8030    1.5575 H   0  0  0  0  0  0  0  0  0  0  0  0
   -1.1859    1.3061    2.4792 H   0  0  0  0  0  0  0  0  0  0  0  0
   -0.7843    1.7119   -0.5096 H   0  0  0  0  0  0  0  0  0  0  0  0
   -3.0644    1.2405    1.0292 H   0  0  0  0  0  0  0  0  0  0  0  0
   -2.6258   -0.4222    0.7572 H   0  0  0  0  0  0  0  0  0  0  0  0
   -1.5153    0.1119   -2.2405 H   0  0  0  0  0  0  0  0  0  0  0  0
   -3.1144   -0.1130   -2.9955 H   0  0  0  0  0  0  0  0  0  0  0  0
   -4.6651   -1.8540   -0.9545 H   0  0  0  0  0  0  0  0  0  0  0  0
   -4.2524   -4.3818   -0.6035 H   0  0  0  0  0  0  0  0  0  0  0  0
   -2.4623    2.5759   -1.6088 H   0  0  0  0  0  0  0  0  0  0  0  0
   -3.8632    1.9829   -2.5198 H   0  0  0  0  0  0  0  0  0  0  0  0
   -2.9136    4.1380    0.1644 H   0  0  0  0  0  0  0  0  0  0  0  0
   -4.5090    5.3168    1.6266 H   0  0  0  0  0  0  0  0  0  0  0  0
   -7.6692    2.7220    0.2916 H   0  0  0  0  0  0  0  0  0  0  0  0
   -6.0815    1.5348   -1.1771 H   0  0  0  0  0  0  0  0  0  0  0  0
   -0.4773   -1.1269    0.5631 H   0  0  0  0  0  0  0  0  0  0  0  0
    0.3007   -0.3033   -0.8565 H   0  0  0  0  0  0  0  0  0  0  0  0
  1  2  1  0
  2  3  1  0
  3  4  1  0
  4  5  1  0
  5  6  1  0
  6  7  1  0
  7  8  2  0
  7  9  1  0
  9 10  1  0
 10 11  1  0
 11 12  1  0
 12 13  1  0
 13 14  1  0
 14 15  1  0
 15 16  1  0
 16 17  2  0
 17 18  1  0
 18 19  2  0
 19 20  1  0
 19 21  1  0
 21 22  1  0
 21 23  2  0
 14 24  1  0
 24 25  1  0
 25 26  2  0
 26 27  1  0
 27 28  2  0
 28 29  1  0
 28 30  1  0
 30 31  2  0
 12 32  1  0
 32  9  1  0
 20 16  1  0
 31 25  1  0
  1 33  1  0
  1 34  1  0
  1 35  1  0
  2 36  1  0
  2 37  1  0
  3 38  1  0
  3 39  1  0
  4 40  1  0
  4 41  1  0
  5 42  1  0
  5 43  1  0
  6 44  1  0
 10 45  1  0
 10 46  1  0
 11 47  1  0
 11 48  1  0
 12 49  1  0
 13 50  1  0
 13 51  1  0
 15 52  1  0
 15 53  1  0
 17 54  1  0
 18 55  1  0
 24 56  1  0
 24 57  1  0
 26 58  1  0
 27 59  1  0
 30 60  1  0
 31 61  1  0
 32 62  1  0
 32 63  1  0
M  CHG  2  21   1  22  -1
M  END
$$$$
