
     RDKit          3D

 17 16  0  0  0  0  0  0  0  0999 V2000
    0.8041    1.2686    0.9695 N   0  0  0  0  0  0  0  0  0  0  0  0
    0.5974    0.0538    0.1761 C   0  0  1  0  0  0  0  0  0  0  0  0
   -0.6744    0.1758   -0.6797 C   0  0  0  0  0  0  0  0  0  0  0  0
   -1.8959    0.3169    0.1804 C   0  0  0  0  0  0  0  0  0  0  0  0
   -2.4985   -0.8334    0.7731 N   0  0  0  0  0  0  0  0  0  0  0  0
   -2.3735    1.4602    0.4089 O   0  0  0  0  0  0  0  0  0  0  0  0
    1.7940   -0.2255   -0.6946 C   0  0  0  0  0  0  0  0  0  0  0  0
    2.4962   -1.4171   -0.5423 O   0  0  0  0  0  0  0  0  0  0  0  0
    2.1613    0.6121   -1.5625 O   0  0  0  0  0  0  0  0  0  0  0  0
    1.6515    1.1371    1.5691 H   0  0  0  0  0  0  0  0  0  0  0  0
    0.9931    2.0766    0.3318 H   0  0  0  0  0  0  0  0  0  0  0  0
    0.4686   -0.8043    0.8736 H   0  0  0  0  0  0  0  0  0  0  0  0
   -0.5953    1.0518   -1.3609 H   0  0  0  0  0  0  0  0  0  0  0  0
   -0.7873   -0.7318   -1.3124 H   0  0  0  0  0  0  0  0  0  0  0  0
   -3.3406   -0.7326    1.3820 H   0  0  0  0  0  0  0  0  0  0  0  0
   -2.1032   -1.7856    0.6082 H   0  0  0  0  0  0  0  0  0  0  0  0
    3.3026   -1.6224   -1.1201 H   0  0  0  0  0  0  0  0  0  0  0  0
  1  2  1  0
  2  3  1  0
  3  4  1  0
  4  5  1  0
  4  6  2  0
  2  7  1  0
  7  8  1  0
  7  9  2  0
  1 10  1  0
  1 11  1  0
  2 12  1  1
  3 13  1  0
  3 14  1  0
  5 15  1  0
  5 16  1  0
  8 17  1  0
M  END
$$$$
