
     RDKit          2D

 93 94  0  0  0  0  0  0  0  0999 V2000
    3.7500   -1.9952    0.0000 C   0  0  0  0  0  0  0  0  0  0  0  0
    5.2500   -1.9952    0.0000 C   0  0  0  0  0  0  0  0  0  0  0  0
    6.7500   -1.9952    0.0000 C   0  0  0  0  0  0  0  0  0  0  0  0
    5.2500   -0.4952    0.0000 C   0  0  0  0  0  0  0  0  0  0  0  0
    5.2500   -3.4952    0.0000 O   0  0  0  0  0  0  0  0  0  0  0  0
    6.5490   -4.2452    0.0000 C   0  0  0  0  0  0  0  0  0  0  0  0
    7.3161   -3.8023    0.0000 O   0  0  0  0  0  0  0  0  0  0  0  0
    6.5490   -5.7452    0.0000 N   0  0  0  0  0  0  0  0  0  0  0  0
    5.2500   -6.4952    0.0000 C   0  0  0  0  0  0  0  0  0  0  0  0
    4.5000   -5.1962    0.0000 C   0  0  0  0  0  0  0  0  0  0  0  0
    3.7500   -3.8971    0.0000 C   0  0  0  0  0  0  0  0  0  0  0  0
    4.5000   -2.5981    0.0000 O   0  0  0  0  0  0  0  0  0  0  0  0
    2.2500   -3.8971    0.0000 O   0  0  0  0  0  0  0  0  0  0  0  0
    1.5000   -2.5981    0.0000 C   0  0  0  0  0  0  0  0  0  0  0  0
    0.7500   -1.2990    0.0000 C   0  0  0  0  0  0  0  0  0  0  0  0
    1.5000   -0.0000    0.0000 C   0  0  0  0  0  0  0  0  0  0  0  0
    0.7500    1.2990    0.0000 C   0  0  0  0  0  0  0  0  0  0  0  0
   -0.7500    1.2990    0.0000 C   0  0  0  0  0  0  0  0  0  0  0  0
   -1.5000   -0.0000    0.0000 C   0  0  0  0  0  0  0  0  0  0  0  0
   -0.7500   -1.2990    0.0000 C   0  0  0  0  0  0  0  0  0  0  0  0
    6.0000   -7.7942    0.0000 C   0  0  0  0  0  0  0  0  0  0  0  0
    5.3419   -8.6675    0.0000 O   0  0  0  0  0  0  0  0  0  0  0  0
    7.5000   -7.7942    0.0000 N   0  0  0  0  0  0  0  0  0  0  0  0
    8.2500   -9.0933    0.0000 C   0  0  0  0  0  0  0  0  0  0  0  0
    9.5490   -8.3433    0.0000 C   0  0  0  0  0  0  0  0  0  0  0  0
   10.8481   -7.5933    0.0000 C   0  0  0  0  0  0  0  0  0  0  0  0
   12.1471   -6.8433    0.0000 C   0  0  0  0  0  0  0  0  0  0  0  0
   13.4462   -6.0933    0.0000 C   0  0  0  0  0  0  0  0  0  0  0  0
   14.7452   -5.3433    0.0000 N   0  0  0  0  0  0  0  0  0  0  0  0
   14.7452   -3.8433    0.0000 C   0  0  0  0  0  0  0  0  0  0  0  0
   16.0442   -3.0933    0.0000 O   0  0  0  0  0  0  0  0  0  0  0  0
   13.4462   -3.0933    0.0000 O   0  0  0  0  0  0  0  0  0  0  0  0
   13.4462   -1.5933    0.0000 C   0  0  0  0  0  0  0  0  0  0  0  0
   13.4462   -0.0933    0.0000 C   0  0  0  0  0  0  0  0  0  0  0  0
   14.7452    0.6567    0.0000 C   0  0  0  0  0  0  0  0  0  0  0  0
   14.7452    2.1567    0.0000 C   0  0  0  0  0  0  0  0  0  0  0  0
   13.4462    2.9067    0.0000 C   0  0  0  0  0  0  0  0  0  0  0  0
   12.1471    2.1567    0.0000 C   0  0  0  0  0  0  0  0  0  0  0  0
   12.1471    0.6567    0.0000 C   0  0  0  0  0  0  0  0  0  0  0  0
    6.9510   -9.8433    0.0000 C   0  0  0  0  0  0  0  0  0  0  0  0
    5.9444   -9.4160    0.0000 O   0  0  0  0  0  0  0  0  0  0  0  0
    6.9510  -11.3433    0.0000 O   0  0  0  0  0  0  0  0  0  0  0  0
    5.6519  -12.0933    0.0000 C   0  0  0  0  0  0  0  0  0  0  0  0
    6.4019  -13.3923    0.0000 C   0  0  0  0  0  0  0  0  0  0  0  0
    4.9019  -10.7942    0.0000 C   0  0  0  0  0  0  0  0  0  0  0  0
    4.3529  -12.8433    0.0000 C   0  0  0  0  0  0  0  0  0  0  0  0
    2.2612   -1.8123    0.0000 H   0  0  0  0  0  0  0  0  0  0  0  0
    3.7500   -0.4952    0.0000 H   0  0  0  0  0  0  0  0  0  0  0  0
    3.4854   -3.0562    0.0000 H   0  0  0  0  0  0  0  0  0  0  0  0
    8.2500   -1.9952    0.0000 H   0  0  0  0  0  0  0  0  0  0  0  0
    6.8700   -1.0184    0.0000 H   0  0  0  0  0  0  0  0  0  0  0  0
    6.9643   -2.8546    0.0000 H   0  0  0  0  0  0  0  0  0  0  0  0
    5.2500    1.0048    0.0000 H   0  0  0  0  0  0  0  0  0  0  0  0
    6.2268   -0.3752    0.0000 H   0  0  0  0  0  0  0  0  0  0  0  0
    3.7946   -0.1322    0.0000 H   0  0  0  0  0  0  0  0  0  0  0  0
    7.9298   -6.3313    0.0000 H   0  0  0  0  0  0  0  0  0  0  0  0
    3.9510   -7.2452    0.0000 H   0  0  0  0  0  0  0  0  0  0  0  0
    5.5790   -4.1541    0.0000 H   0  0  0  0  0  0  0  0  0  0  0  0
    3.2010   -5.9462    0.0000 H   0  0  0  0  0  0  0  0  0  0  0  0
    0.2010   -3.3481    0.0000 H   0  0  0  0  0  0  0  0  0  0  0  0
    2.6979   -1.6953    0.0000 H   0  0  0  0  0  0  0  0  0  0  0  0
    2.9554    0.3630    0.0000 H   0  0  0  0  0  0  0  0  0  0  0  0
    1.5000    2.5981    0.0000 H   0  0  0  0  0  0  0  0  0  0  0  0
   -1.5000    2.5981    0.0000 H   0  0  0  0  0  0  0  0  0  0  0  0
   -3.0000   -0.0000    0.0000 H   0  0  0  0  0  0  0  0  0  0  0  0
   -1.5000   -2.5981    0.0000 H   0  0  0  0  0  0  0  0  0  0  0  0
    8.2500   -6.4952    0.0000 H   0  0  0  0  0  0  0  0  0  0  0  0
    9.0000  -10.3923    0.0000 H   0  0  0  0  0  0  0  0  0  0  0  0
   10.2990   -9.6423    0.0000 H   0  0  0  0  0  0  0  0  0  0  0  0
    8.9630   -6.9625    0.0000 H   0  0  0  0  0  0  0  0  0  0  0  0
   11.5981   -8.8923    0.0000 H   0  0  0  0  0  0  0  0  0  0  0  0
   10.0981   -6.2942    0.0000 H   0  0  0  0  0  0  0  0  0  0  0  0
   12.8971   -8.1423    0.0000 H   0  0  0  0  0  0  0  0  0  0  0  0
   11.3971   -5.5442    0.0000 H   0  0  0  0  0  0  0  0  0  0  0  0
   14.1962   -7.3923    0.0000 H   0  0  0  0  0  0  0  0  0  0  0  0
   12.6962   -4.7942    0.0000 H   0  0  0  0  0  0  0  0  0  0  0  0
   16.0442   -6.0933    0.0000 H   0  0  0  0  0  0  0  0  0  0  0  0
   14.9462   -1.5933    0.0000 H   0  0  0  0  0  0  0  0  0  0  0  0
   11.9462   -1.5933    0.0000 H   0  0  0  0  0  0  0  0  0  0  0  0
   16.0442   -0.0933    0.0000 H   0  0  0  0  0  0  0  0  0  0  0  0
   16.0442    2.9067    0.0000 H   0  0  0  0  0  0  0  0  0  0  0  0
   13.4462    4.4067    0.0000 H   0  0  0  0  0  0  0  0  0  0  0  0
   10.8481    2.9067    0.0000 H   0  0  0  0  0  0  0  0  0  0  0  0
   10.8481   -0.0933    0.0000 H   0  0  0  0  0  0  0  0  0  0  0  0
    7.1519  -14.6913    0.0000 H   0  0  0  0  0  0  0  0  0  0  0  0
    5.2040  -14.2951    0.0000 H   0  0  0  0  0  0  0  0  0  0  0  0
    7.7010  -12.6423    0.0000 H   0  0  0  0  0  0  0  0  0  0  0  0
    4.1519   -9.4952    0.0000 H   0  0  0  0  0  0  0  0  0  0  0  0
    3.5212  -11.3803    0.0000 H   0  0  0  0  0  0  0  0  0  0  0  0
    5.9809   -9.7522    0.0000 H   0  0  0  0  0  0  0  0  0  0  0  0
    3.0538  -13.5933    0.0000 H   0  0  0  0  0  0  0  0  0  0  0  0
    3.4501  -11.6453    0.0000 H   0  0  0  0  0  0  0  0  0  0  0  0
    4.9389  -14.2240    0.0000 H   0  0  0  0  0  0  0  0  0  0  0  0
  1  2  1  0
  2  3  1  0
  2  4  1  0
  2  5  1  0
  5  6  1  0
  6  7  2  0
  6  8  1  0
  8  9  1  0
  9 10  1  0
 10 11  1  0
 11 12  2  0
 11 13  1  0
 13 14  1  0
 14 15  1  0
 15 16  2  0
 16 17  1  0
 17 18  2  0
 18 19  1  0
 19 20  2  0
  9 21  1  0
 21 22  2  0
 21 23  1  0
 23 24  1  0
 24 25  1  0
 25 26  1  0
 26 27  1  0
 27 28  1  0
 28 29  1  0
 29 30  1  0
 30 31  2  0
 30 32  1  0
 32 33  1  0
 33 34  1  0
 34 35  2  0
 35 36  1  0
 36 37  2  0
 37 38  1  0
 38 39  2  0
 24 40  1  0
 40 41  2  0
 40 42  1  0
 42 43  1  0
 43 44  1  0
 43 45  1  0
 43 46  1  0
 20 15  1  0
 39 34  1  0
  1 47  1  0
  1 48  1  0
  1 49  1  0
  3 50  1  0
  3 51  1  0
  3 52  1  0
  4 53  1  0
  4 54  1  0
  4 55  1  0
  8 56  1  0
  9 57  1  1
 10 58  1  0
 10 59  1  0
 14 60  1  0
 14 61  1  0
 16 62  1  0
 17 63  1  0
 18 64  1  0
 19 65  1  0
 20 66  1  0
 23 67  1  0
 24 68  1  6
 25 69  1  0
 25 70  1  0
 26 71  1  0
 26 72  1  0
 27 73  1  0
 27 74  1  0
 28 75  1  0
 28 76  1  0
 29 77  1  0
 33 78  1  0
 33 79  1  0
 35 80  1  0
 36 81  1  0
 37 82  1  0
 38 83  1  0
 39 84  1  0
 44 85  1  0
 44 86  1  0
 44 87  1  0
 45 88  1  0
 45 89  1  0
 45 90  1  0
 46 91  1  0
 46 92  1  0
 46 93  1  0
M  END
$$$$
