
     RDKit          3D

 46 49  0  0  0  0  0  0  0  0999 V2000
   -1.9817   -0.1392    3.0234 C   0  0  0  0  0  0  0  0  0  0  0  0
   -2.9212   -0.8372    2.0449 C   0  0  0  0  0  0  0  0  0  0  0  0
   -2.9635   -0.0974    0.7315 C   0  0  0  0  0  0  0  0  0  0  0  0
   -3.9087    0.9176    0.4981 C   0  0  0  0  0  0  0  0  0  0  0  0
   -4.8614    1.2275    1.4687 O   0  0  0  0  0  0  0  0  0  0  0  0
   -3.8877    1.6245   -0.7110 C   0  0  0  0  0  0  0  0  0  0  0  0
   -2.9170    1.3563   -1.6815 C   0  0  0  0  0  0  0  0  0  0  0  0
   -2.9060    2.1405   -2.8368 O   0  0  0  0  0  0  0  0  0  0  0  0
   -1.9655    0.3378   -1.4550 C   0  0  0  0  0  0  0  0  0  0  0  0
   -2.0001   -0.3785   -0.2478 C   0  0  0  0  0  0  0  0  0  0  0  0
   -0.9241    0.0090   -2.4516 C   0  0  0  0  0  0  0  0  0  0  0  0
    0.4324   -0.1613   -2.2154 C   0  0  0  0  0  0  0  0  0  0  0  0
    0.9439   -0.5610   -3.4428 C   0  0  0  0  0  0  0  0  0  0  0  0
    2.3682   -0.8808   -3.7647 C   0  0  0  0  0  0  0  0  0  0  0  0
   -0.0554   -0.6483   -4.3433 N   0  0  0  0  0  0  0  0  0  0  0  0
   -1.1795   -0.3015   -3.7369 N   0  0  0  0  0  0  0  0  0  0  0  0
    1.1631    0.0583   -0.9475 C   0  0  0  0  0  0  0  0  0  0  0  0
    0.9035    1.2022   -0.1704 C   0  0  0  0  0  0  0  0  0  0  0  0
    1.5646    1.3973    1.0463 C   0  0  0  0  0  0  0  0  0  0  0  0
    2.4913    0.4534    1.4931 C   0  0  0  0  0  0  0  0  0  0  0  0
    3.1834    0.6418    2.6936 O   0  0  0  0  0  0  0  0  0  0  0  0
    4.3155   -0.1654    3.0273 C   0  0  0  0  0  0  0  0  0  0  0  0
    4.0808   -1.6168    2.5885 C   0  0  0  0  0  0  0  0  0  0  0  0
    3.6309   -1.6572    1.2318 O   0  0  0  0  0  0  0  0  0  0  0  0
    2.7364   -0.7015    0.7392 C   0  0  0  0  0  0  0  0  0  0  0  0
    2.0883   -0.8928   -0.4842 C   0  0  0  0  0  0  0  0  0  0  0  0
   -0.9507   -0.1033    2.6099 H   0  0  0  0  0  0  0  0  0  0  0  0
   -1.9607   -0.6983    3.9824 H   0  0  0  0  0  0  0  0  0  0  0  0
   -2.3324    0.8961    3.2222 H   0  0  0  0  0  0  0  0  0  0  0  0
   -3.9365   -0.9048    2.4911 H   0  0  0  0  0  0  0  0  0  0  0  0
   -2.5692   -1.8795    1.8834 H   0  0  0  0  0  0  0  0  0  0  0  0
   -5.5499    1.9567    1.3240 H   0  0  0  0  0  0  0  0  0  0  0  0
   -4.6131    2.4090   -0.8874 H   0  0  0  0  0  0  0  0  0  0  0  0
   -2.1793    2.0810   -3.5379 H   0  0  0  0  0  0  0  0  0  0  0  0
   -1.2708   -1.1595   -0.0658 H   0  0  0  0  0  0  0  0  0  0  0  0
    2.5814   -1.9373   -3.5014 H   0  0  0  0  0  0  0  0  0  0  0  0
    2.5515   -0.7368   -4.8501 H   0  0  0  0  0  0  0  0  0  0  0  0
    3.0503   -0.2114   -3.2000 H   0  0  0  0  0  0  0  0  0  0  0  0
   -2.1167   -0.3103   -4.1972 H   0  0  0  0  0  0  0  0  0  0  0  0
    0.1955    1.9480   -0.5098 H   0  0  0  0  0  0  0  0  0  0  0  0
    1.3655    2.2844    1.6337 H   0  0  0  0  0  0  0  0  0  0  0  0
    4.4948   -0.1197    4.1220 H   0  0  0  0  0  0  0  0  0  0  0  0
    5.2104    0.2335    2.5034 H   0  0  0  0  0  0  0  0  0  0  0  0
    3.3049   -2.0735    3.2397 H   0  0  0  0  0  0  0  0  0  0  0  0
    5.0179   -2.2039    2.6868 H   0  0  0  0  0  0  0  0  0  0  0  0
    2.2767   -1.7979   -1.0467 H   0  0  0  0  0  0  0  0  0  0  0  0
  1  2  1  0
  2  3  1  0
  3  4  2  0
  4  5  1  0
  4  6  1  0
  6  7  2  0
  7  8  1  0
  7  9  1  0
  9 10  2  0
  9 11  1  0
 11 12  2  0
 12 13  1  0
 13 14  1  0
 13 15  2  0
 15 16  1  0
 12 17  1  0
 17 18  2  0
 18 19  1  0
 19 20  2  0
 20 21  1  0
 21 22  1  0
 22 23  1  0
 23 24  1  0
 24 25  1  0
 25 26  2  0
 10  3  1  0
 16 11  1  0
 26 17  1  0
 25 20  1  0
  1 27  1  0
  1 28  1  0
  1 29  1  0
  2 30  1  0
  2 31  1  0
  5 32  1  0
  6 33  1  0
  8 34  1  0
 10 35  1  0
 14 36  1  0
 14 37  1  0
 14 38  1  0
 16 39  1  0
 18 40  1  0
 19 41  1  0
 22 42  1  0
 22 43  1  0
 23 44  1  0
 23 45  1  0
 26 46  1  0
M  END
$$$$
