
     RDKit          3D

 15 15  0  0  0  0  0  0  0  0999 V2000
   -0.2456   -0.2416    0.1069 C   0  0  2  0  0  0  0  0  0  0  0  0
    0.0314    0.9065    1.0633 C   0  0  0  0  0  0  0  0  0  0  0  0
    1.8286    1.0250    1.2397 S   0  0  0  0  0  0  0  0  0  0  0  0
    2.0766   -0.0589   -0.2017 C   0  0  0  0  0  0  0  0  0  0  0  0
    0.8079   -0.2424   -0.9022 N   0  0  0  0  0  0  0  0  0  0  0  0
   -1.5932   -0.0962   -0.5375 C   0  0  0  0  0  0  0  0  0  0  0  0
   -2.6655   -0.8506   -0.0720 O   0  0  0  0  0  0  0  0  0  0  0  0
   -1.7666    0.7311   -1.4731 O   0  0  0  0  0  0  0  0  0  0  0  0
   -0.2176   -1.2009    0.6754 H   0  0  0  0  0  0  0  0  0  0  0  0
   -0.4407    0.7219    2.0516 H   0  0  0  0  0  0  0  0  0  0  0  0
   -0.3379    1.8710    0.6514 H   0  0  0  0  0  0  0  0  0  0  0  0
    2.8158    0.4030   -0.8884 H   0  0  0  0  0  0  0  0  0  0  0  0
    2.4718   -1.0374    0.1514 H   0  0  0  0  0  0  0  0  0  0  0  0
    0.8205   -1.1748   -1.3796 H   0  0  0  0  0  0  0  0  0  0  0  0
   -3.5856   -0.7557   -0.4851 H   0  0  0  0  0  0  0  0  0  0  0  0
  1  2  1  0
  2  3  1  0
  3  4  1  0
  4  5  1  0
  1  6  1  0
  6  7  1  0
  6  8  2  0
  5  1  1  0
  1  9  1  1
  2 10  1  0
  2 11  1  0
  4 12  1  0
  4 13  1  0
  5 14  1  0
  7 15  1  0
M  END
$$$$
