
     RDKit          3D

 44 45  0  0  0  0  0  0  0  0999 V2000
    6.5712   -0.6049    0.1296 C   0  0  0  0  0  0  0  0  0  0  0  0
    5.8328    0.5167    0.8660 C   0  0  0  0  0  0  0  0  0  0  0  0
    6.6720    1.7986    0.8663 C   0  0  0  0  0  0  0  0  0  0  0  0
    4.5312    0.7608    0.2356 N   0  0  0  0  0  0  0  0  0  0  0  0
    3.4096   -0.1133    0.4246 C   0  0  0  0  0  0  0  0  0  0  0  0
    3.5091   -1.1176    1.1810 O   0  0  0  0  0  0  0  0  0  0  0  0
    2.1730    0.1652   -0.2407 N   0  0  0  0  0  0  0  0  0  0  0  0
    0.7749   -0.8438   -0.0468 S   0  0  0  0  0  6  0  0  0  0  0  0
    1.1866   -2.2891   -0.0257 O   0  0  0  0  0  0  0  0  0  0  0  0
    0.1130   -0.4844    1.2539 O   0  0  0  0  0  0  0  0  0  0  0  0
   -0.3488   -0.6021   -1.3921 C   0  0  0  0  0  0  0  0  0  0  0  0
   -1.7316   -0.8533   -1.2590 C   0  0  0  0  0  0  0  0  0  0  0  0
   -2.2674   -1.4096   -0.0465 N   0  0  0  0  0  0  0  0  0  0  0  0
   -3.4955   -0.9732    0.5626 C   0  0  0  0  0  0  0  0  0  0  0  0
   -4.1892   -1.8444    1.4153 C   0  0  0  0  0  0  0  0  0  0  0  0
   -5.3787   -1.4390    2.0254 C   0  0  0  0  0  0  0  0  0  0  0  0
   -5.8781   -0.1535    1.8045 C   0  0  0  0  0  0  0  0  0  0  0  0
   -5.1779    0.7442    0.9851 C   0  0  0  0  0  0  0  0  0  0  0  0
   -5.7256    2.1167    0.7270 C   0  0  0  0  0  0  0  0  0  0  0  0
   -3.9924    0.3280    0.3589 C   0  0  0  0  0  0  0  0  0  0  0  0
   -2.5767   -0.6274   -2.3568 C   0  0  0  0  0  0  0  0  0  0  0  0
   -2.0433   -0.1576   -3.5561 C   0  0  0  0  0  0  0  0  0  0  0  0
   -0.7085    0.0621   -3.6671 N   0  0  0  0  0  0  0  0  0  0  0  0
    0.1398   -0.1517   -2.6277 C   0  0  0  0  0  0  0  0  0  0  0  0
    6.7277   -0.3317   -0.9360 H   0  0  0  0  0  0  0  0  0  0  0  0
    5.9842   -1.5461    0.1730 H   0  0  0  0  0  0  0  0  0  0  0  0
    7.5582   -0.7914    0.6042 H   0  0  0  0  0  0  0  0  0  0  0  0
    5.6780    0.2141    1.9254 H   0  0  0  0  0  0  0  0  0  0  0  0
    6.8736    2.1354   -0.1734 H   0  0  0  0  0  0  0  0  0  0  0  0
    7.6399    1.6240    1.3831 H   0  0  0  0  0  0  0  0  0  0  0  0
    6.1291    2.6043    1.4049 H   0  0  0  0  0  0  0  0  0  0  0  0
    4.3978    1.6121   -0.3567 H   0  0  0  0  0  0  0  0  0  0  0  0
    2.0815    1.0445   -0.7958 H   0  0  0  0  0  0  0  0  0  0  0  0
   -1.7532   -2.2058    0.3941 H   0  0  0  0  0  0  0  0  0  0  0  0
   -3.8139   -2.8439    1.5960 H   0  0  0  0  0  0  0  0  0  0  0  0
   -5.9158   -2.1235    2.6692 H   0  0  0  0  0  0  0  0  0  0  0  0
   -6.8060    0.1437    2.2774 H   0  0  0  0  0  0  0  0  0  0  0  0
   -6.3702    2.0927   -0.1763 H   0  0  0  0  0  0  0  0  0  0  0  0
   -4.9006    2.8426    0.5645 H   0  0  0  0  0  0  0  0  0  0  0  0
   -6.3270    2.4694    1.5919 H   0  0  0  0  0  0  0  0  0  0  0  0
   -3.4526    1.0233   -0.2716 H   0  0  0  0  0  0  0  0  0  0  0  0
   -3.6374   -0.8337   -2.2897 H   0  0  0  0  0  0  0  0  0  0  0  0
   -2.6896    0.0176   -4.4058 H   0  0  0  0  0  0  0  0  0  0  0  0
    1.1967    0.0250   -2.7715 H   0  0  0  0  0  0  0  0  0  0  0  0
  1  2  1  0
  2  3  1  0
  2  4  1  0
  4  5  1  0
  5  6  2  0
  5  7  1  0
  7  8  1  0
  8  9  2  0
  8 10  2  0
  8 11  1  0
 11 12  2  0
 12 13  1  0
 13 14  1  0
 14 15  2  0
 15 16  1  0
 16 17  2  0
 17 18  1  0
 18 19  1  0
 18 20  2  0
 12 21  1  0
 21 22  2  0
 22 23  1  0
 23 24  2  0
 24 11  1  0
 20 14  1  0
  1 25  1  0
  1 26  1  0
  1 27  1  0
  2 28  1  0
  3 29  1  0
  3 30  1  0
  3 31  1  0
  4 32  1  0
  7 33  1  0
 13 34  1  0
 15 35  1  0
 16 36  1  0
 17 37  1  0
 19 38  1  0
 19 39  1  0
 19 40  1  0
 20 41  1  0
 21 42  1  0
 22 43  1  0
 24 44  1  0
M  END
$$$$
