
     RDKit          3D

 47 48  0  0  0  0  0  0  0  0999 V2000
   -2.3407   -0.7527   -0.1711 C   0  0  2  0  0  0  0  0  0  0  0  0
   -3.8233   -0.3852    0.0040 C   0  0  0  0  0  0  0  0  0  0  0  0
   -3.9861    0.6039    1.1615 C   0  0  0  0  0  0  0  0  0  0  0  0
   -3.0339    1.7775    1.0615 C   0  0  0  0  0  0  0  0  0  0  0  0
   -3.3197    3.0170    1.8641 C   0  0  0  0  0  0  0  0  0  0  0  0
   -1.8815    1.7015    0.3622 C   0  0  0  0  0  0  0  0  0  0  0  0
   -1.5102    0.5144   -0.5079 C   0  0  1  0  0  0  0  0  0  0  0  0
   -0.0099    0.2230   -0.4145 C   0  0  0  0  0  0  0  0  0  0  0  0
    0.8065    0.0642   -1.5721 C   0  0  0  0  0  0  0  0  0  0  0  0
    0.3203    0.1479   -2.8805 O   0  0  0  0  0  0  0  0  0  0  0  0
    2.1735   -0.1978   -1.4313 C   0  0  0  0  0  0  0  0  0  0  0  0
    2.7560   -0.3467   -0.1695 C   0  0  0  0  0  0  0  0  0  0  0  0
    4.2346   -0.6013   -0.0399 C   0  0  0  0  0  0  0  0  0  0  0  0
    5.0032    0.7218    0.0364 C   0  0  0  0  0  0  0  0  0  0  0  0
    6.5040    0.4810    0.1683 C   0  0  0  0  0  0  0  0  0  0  0  0
    1.9615   -0.2103    0.9710 C   0  0  0  0  0  0  0  0  0  0  0  0
    0.5928    0.0609    0.8606 C   0  0  0  0  0  0  0  0  0  0  0  0
   -0.1698    0.1703    2.0246 O   0  0  0  0  0  0  0  0  0  0  0  0
   -2.1547   -1.8475   -1.2165 C   0  0  0  0  0  0  0  0  0  0  0  0
   -1.4404   -3.1233   -0.8520 C   0  0  0  0  0  0  0  0  0  0  0  0
   -2.6023   -1.6989   -2.4749 C   0  0  0  0  0  0  0  0  0  0  0  0
   -1.9984   -1.1456    0.8111 H   0  0  0  0  0  0  0  0  0  0  0  0
   -4.4178   -1.2994    0.2216 H   0  0  0  0  0  0  0  0  0  0  0  0
   -4.2249    0.0781   -0.9235 H   0  0  0  0  0  0  0  0  0  0  0  0
   -3.8011    0.0796    2.1239 H   0  0  0  0  0  0  0  0  0  0  0  0
   -5.0349    0.9715    1.1686 H   0  0  0  0  0  0  0  0  0  0  0  0
   -4.2646    2.9124    2.4381 H   0  0  0  0  0  0  0  0  0  0  0  0
   -3.4144    3.8900    1.1843 H   0  0  0  0  0  0  0  0  0  0  0  0
   -2.4928    3.2010    2.5826 H   0  0  0  0  0  0  0  0  0  0  0  0
   -1.2233    2.5672    0.3370 H   0  0  0  0  0  0  0  0  0  0  0  0
   -1.7920    0.8525   -1.5194 H   0  0  0  0  0  0  0  0  0  0  0  0
   -0.6485    0.2513   -3.1382 H   0  0  0  0  0  0  0  0  0  0  0  0
    2.7857   -0.2969   -2.3199 H   0  0  0  0  0  0  0  0  0  0  0  0
    4.5925   -1.1936   -0.9109 H   0  0  0  0  0  0  0  0  0  0  0  0
    4.4341   -1.2045    0.8733 H   0  0  0  0  0  0  0  0  0  0  0  0
    4.8137    1.3186   -0.8826 H   0  0  0  0  0  0  0  0  0  0  0  0
    4.6541    1.3077    0.9148 H   0  0  0  0  0  0  0  0  0  0  0  0
    6.7228   -0.0929    1.0939 H   0  0  0  0  0  0  0  0  0  0  0  0
    6.8832   -0.0819   -0.7112 H   0  0  0  0  0  0  0  0  0  0  0  0
    7.0335    1.4556    0.2212 H   0  0  0  0  0  0  0  0  0  0  0  0
    2.4077   -0.3151    1.9526 H   0  0  0  0  0  0  0  0  0  0  0  0
    0.2392    0.0580    2.9449 H   0  0  0  0  0  0  0  0  0  0  0  0
   -0.5486   -3.2512   -1.5017 H   0  0  0  0  0  0  0  0  0  0  0  0
   -2.1217   -3.9887   -0.9932 H   0  0  0  0  0  0  0  0  0  0  0  0
   -1.0976   -3.1162    0.2034 H   0  0  0  0  0  0  0  0  0  0  0  0
   -3.1078   -0.7934   -2.7926 H   0  0  0  0  0  0  0  0  0  0  0  0
   -2.4577   -2.4838   -3.2114 H   0  0  0  0  0  0  0  0  0  0  0  0
  1  2  1  0
  2  3  1  0
  3  4  1  0
  4  5  1  0
  4  6  2  0
  6  7  1  0
  7  8  1  0
  8  9  2  0
  9 10  1  0
  9 11  1  0
 11 12  2  0
 12 13  1  0
 13 14  1  0
 14 15  1  0
 12 16  1  0
 16 17  2  0
 17 18  1  0
  1 19  1  0
 19 20  1  0
 19 21  2  3
  7  1  1  0
 17  8  1  0
  1 22  1  1
  2 23  1  0
  2 24  1  0
  3 25  1  0
  3 26  1  0
  5 27  1  0
  5 28  1  0
  5 29  1  0
  6 30  1  0
  7 31  1  6
 10 32  1  0
 11 33  1  0
 13 34  1  0
 13 35  1  0
 14 36  1  0
 14 37  1  0
 15 38  1  0
 15 39  1  0
 15 40  1  0
 16 41  1  0
 18 42  1  0
 20 43  1  0
 20 44  1  0
 20 45  1  0
 21 46  1  0
 21 47  1  0
M  END
$$$$
