
     RDKit          3D

 45 47  0  0  0  0  0  0  0  0999 V2000
    4.9464    0.5603    0.5719 C   0  0  0  0  0  0  0  0  0  0  0  0
    3.5335    0.1505    0.6586 N   0  0  0  0  0  0  0  0  0  0  0  0
    3.2478   -1.0646   -0.1118 C   0  0  2  0  0  0  0  0  0  0  0  0
    3.1136   -0.6194   -1.5755 C   0  0  0  0  0  0  0  0  0  0  0  0
    2.6361    0.8253   -1.4833 C   0  0  2  0  0  0  0  0  0  0  0  0
    3.5390    1.6749   -2.1425 O   0  0  0  0  0  0  0  0  0  0  0  0
    2.6210    1.1170    0.0352 C   0  0  1  0  0  0  0  0  0  0  0  0
    1.2075    0.8619    0.6223 C   0  0  0  0  0  0  0  0  0  0  0  0
    1.0091   -0.6018    1.1238 C   0  0  2  0  0  0  0  0  0  0  0  0
    1.9047   -1.6525    0.4060 C   0  0  0  0  0  0  0  0  0  0  0  0
   -0.3588   -0.9877    0.9937 O   0  0  0  0  0  0  0  0  0  0  0  0
   -1.3950   -0.4395    1.7594 C   0  0  0  0  0  0  0  0  0  0  0  0
   -1.1411    0.3534    2.7072 O   0  0  0  0  0  0  0  0  0  0  0  0
   -2.8260   -0.7448    1.4113 C   0  0  2  0  0  0  0  0  0  0  0  0
   -3.0026   -2.2185    1.0125 C   0  0  0  0  0  0  0  0  0  0  0  0
   -4.3597   -2.4947    0.7989 O   0  0  0  0  0  0  0  0  0  0  0  0
   -3.3065    0.1901    0.3177 C   0  0  0  0  0  0  0  0  0  0  0  0
   -2.6696    0.2284   -0.9392 C   0  0  0  0  0  0  0  0  0  0  0  0
   -3.1219    1.0981   -1.9356 C   0  0  0  0  0  0  0  0  0  0  0  0
   -4.2136    1.9346   -1.6929 C   0  0  0  0  0  0  0  0  0  0  0  0
   -4.8555    1.9031   -0.4528 C   0  0  0  0  0  0  0  0  0  0  0  0
   -4.4066    1.0363    0.5483 C   0  0  0  0  0  0  0  0  0  0  0  0
    5.2826    0.7061   -0.4760 H   0  0  0  0  0  0  0  0  0  0  0  0
    5.0971    1.5079    1.1313 H   0  0  0  0  0  0  0  0  0  0  0  0
    5.5882   -0.2118    1.0467 H   0  0  0  0  0  0  0  0  0  0  0  0
    4.0544   -1.8253   -0.0050 H   0  0  0  0  0  0  0  0  0  0  0  0
    4.1069   -0.6796   -2.0731 H   0  0  0  0  0  0  0  0  0  0  0  0
    2.4077   -1.2461   -2.1625 H   0  0  0  0  0  0  0  0  0  0  0  0
    1.6301    0.9189   -1.9547 H   0  0  0  0  0  0  0  0  0  0  0  0
    3.0968    2.5614   -2.2062 H   0  0  0  0  0  0  0  0  0  0  0  0
    2.9204    2.1688    0.2488 H   0  0  0  0  0  0  0  0  0  0  0  0
    0.4143    1.1302   -0.1090 H   0  0  0  0  0  0  0  0  0  0  0  0
    1.0618    1.5444    1.4879 H   0  0  0  0  0  0  0  0  0  0  0  0
    1.2881   -0.6291    2.2023 H   0  0  0  0  0  0  0  0  0  0  0  0
    1.3358   -2.1364   -0.4175 H   0  0  0  0  0  0  0  0  0  0  0  0
    2.1316   -2.4642    1.1316 H   0  0  0  0  0  0  0  0  0  0  0  0
   -3.4328   -0.5862    2.3317 H   0  0  0  0  0  0  0  0  0  0  0  0
   -2.6213   -2.8675    1.8333 H   0  0  0  0  0  0  0  0  0  0  0  0
   -2.4239   -2.4466    0.0892 H   0  0  0  0  0  0  0  0  0  0  0  0
   -4.4093   -3.4526    0.5441 H   0  0  0  0  0  0  0  0  0  0  0  0
   -1.8224   -0.4113   -1.1491 H   0  0  0  0  0  0  0  0  0  0  0  0
   -2.6254    1.1230   -2.8971 H   0  0  0  0  0  0  0  0  0  0  0  0
   -4.5625    2.6070   -2.4660 H   0  0  0  0  0  0  0  0  0  0  0  0
   -5.7020    2.5514   -0.2665 H   0  0  0  0  0  0  0  0  0  0  0  0
   -4.9181    1.0273    1.5027 H   0  0  0  0  0  0  0  0  0  0  0  0
  1  2  1  0
  2  3  1  0
  3  4  1  0
  4  5  1  0
  5  6  1  0
  5  7  1  0
  7  8  1  0
  8  9  1  0
  9 10  1  0
  9 11  1  0
 11 12  1  0
 12 13  2  0
 12 14  1  0
 14 15  1  0
 15 16  1  0
 14 17  1  0
 17 18  2  0
 18 19  1  0
 19 20  2  0
 20 21  1  0
 21 22  2  0
  7  2  1  0
 22 17  1  0
 10  3  1  0
  1 23  1  0
  1 24  1  0
  1 25  1  0
  3 26  1  6
  4 27  1  0
  4 28  1  0
  5 29  1  6
  6 30  1  0
  7 31  1  6
  8 32  1  0
  8 33  1  0
  9 34  1  1
 10 35  1  0
 10 36  1  0
 14 37  1  1
 15 38  1  0
 15 39  1  0
 16 40  1  0
 18 41  1  0
 19 42  1  0
 20 43  1  0
 21 44  1  0
 22 45  1  0
M  END
$$$$
