
     RDKit          3D

 48 51  0  0  0  0  0  0  0  0999 V2000
   -3.9512   -0.0187    1.0809 C   0  0  1  0  0  0  0  0  0  0  0  0
   -5.0310   -0.4421    0.1540 N   0  0  0  0  0  0  0  0  0  0  0  0
   -4.9871    0.2053   -1.1731 C   0  0  0  0  0  0  0  0  0  0  0  0
   -4.8612   -1.8956    0.0099 C   0  0  0  0  0  0  0  0  0  0  0  0
   -3.3773   -2.1977    0.1247 C   0  0  0  0  0  0  0  0  0  0  0  0
   -2.8471   -1.1144    1.0629 C   0  0  2  0  0  0  0  0  0  0  0  0
   -2.5556   -1.6575    2.4732 C   0  0  0  0  0  0  0  0  0  0  0  0
   -1.6544   -0.3884    0.5102 C   0  0  0  0  0  0  0  0  0  0  0  0
   -1.9424    0.9379    0.3347 C   0  0  0  0  0  0  0  0  0  0  0  0
   -0.9889    1.8326   -0.1543 C   0  0  0  0  0  0  0  0  0  0  0  0
    0.2906    1.3446   -0.4625 C   0  0  0  0  0  0  0  0  0  0  0  0
    0.6036   -0.0243   -0.2676 C   0  0  0  0  0  0  0  0  0  0  0  0
    1.8656   -0.5543   -0.5743 O   0  0  0  0  0  0  0  0  0  0  0  0
    3.0773    0.1454   -0.5068 C   0  0  0  0  0  0  0  0  0  0  0  0
    3.1544    1.2394    0.1164 O   0  0  0  0  0  0  0  0  0  0  0  0
    4.2340   -0.4104   -1.1466 N   0  0  0  0  0  0  0  0  0  0  0  0
    5.5698    0.0995   -0.9935 C   0  0  0  0  0  0  0  0  0  0  0  0
    6.4617    0.0268   -2.0754 C   0  0  0  0  0  0  0  0  0  0  0  0
    7.7728    0.4953   -1.9449 C   0  0  0  0  0  0  0  0  0  0  0  0
    8.2089    1.0257   -0.7283 C   0  0  0  0  0  0  0  0  0  0  0  0
    7.3369    1.0806    0.3619 C   0  0  0  0  0  0  0  0  0  0  0  0
    6.0245    0.6140    0.2353 C   0  0  0  0  0  0  0  0  0  0  0  0
   -0.3884   -0.8983    0.2110 C   0  0  0  0  0  0  0  0  0  0  0  0
   -3.2851    1.2307    0.6810 N   0  0  0  0  0  0  0  0  0  0  0  0
   -3.8152    2.5709    0.9140 C   0  0  0  0  0  0  0  0  0  0  0  0
   -4.3833    0.1051    2.0992 H   0  0  0  0  0  0  0  0  0  0  0  0
   -3.9952    0.0739   -1.6593 H   0  0  0  0  0  0  0  0  0  0  0  0
   -5.7717   -0.2201   -1.8353 H   0  0  0  0  0  0  0  0  0  0  0  0
   -5.2185    1.2856   -1.0796 H   0  0  0  0  0  0  0  0  0  0  0  0
   -5.2782   -2.2934   -0.9429 H   0  0  0  0  0  0  0  0  0  0  0  0
   -5.4016   -2.3988    0.8419 H   0  0  0  0  0  0  0  0  0  0  0  0
   -3.2098   -3.2271    0.5110 H   0  0  0  0  0  0  0  0  0  0  0  0
   -2.9143   -2.1222   -0.8847 H   0  0  0  0  0  0  0  0  0  0  0  0
   -2.2260   -0.8360    3.1455 H   0  0  0  0  0  0  0  0  0  0  0  0
   -1.7533   -2.4249    2.4337 H   0  0  0  0  0  0  0  0  0  0  0  0
   -3.4679   -2.1227    2.9047 H   0  0  0  0  0  0  0  0  0  0  0  0
   -1.2299    2.8760   -0.3096 H   0  0  0  0  0  0  0  0  0  0  0  0
    1.0182    2.0265   -0.8801 H   0  0  0  0  0  0  0  0  0  0  0  0
    4.0736   -1.1766   -1.8389 H   0  0  0  0  0  0  0  0  0  0  0  0
    6.1361   -0.3841   -3.0228 H   0  0  0  0  0  0  0  0  0  0  0  0
    8.4513    0.4447   -2.7867 H   0  0  0  0  0  0  0  0  0  0  0  0
    9.2246    1.3858   -0.6278 H   0  0  0  0  0  0  0  0  0  0  0  0
    7.6809    1.4762    1.3089 H   0  0  0  0  0  0  0  0  0  0  0  0
    5.3791    0.6314    1.1031 H   0  0  0  0  0  0  0  0  0  0  0  0
   -0.1729   -1.9493    0.3552 H   0  0  0  0  0  0  0  0  0  0  0  0
   -4.8547    2.5125    1.3002 H   0  0  0  0  0  0  0  0  0  0  0  0
   -3.1841    3.0993    1.6589 H   0  0  0  0  0  0  0  0  0  0  0  0
   -3.8172    3.1424   -0.0374 H   0  0  0  0  0  0  0  0  0  0  0  0
  1  2  1  0
  2  3  1  0
  2  4  1  0
  4  5  1  0
  5  6  1  0
  6  7  1  1
  6  8  1  0
  8  9  2  0
  9 10  1  0
 10 11  2  0
 11 12  1  0
 12 13  1  0
 13 14  1  0
 14 15  2  0
 14 16  1  0
 16 17  1  0
 17 18  2  0
 18 19  1  0
 19 20  2  0
 20 21  1  0
 21 22  2  0
 12 23  2  0
  9 24  1  0
 24 25  1  0
  6  1  1  0
 23  8  1  0
 24  1  1  0
 22 17  1  0
  1 26  1  1
  3 27  1  0
  3 28  1  0
  3 29  1  0
  4 30  1  0
  4 31  1  0
  5 32  1  0
  5 33  1  0
  7 34  1  0
  7 35  1  0
  7 36  1  0
 10 37  1  0
 11 38  1  0
 16 39  1  0
 18 40  1  0
 19 41  1  0
 20 42  1  0
 21 43  1  0
 22 44  1  0
 23 45  1  0
 25 46  1  0
 25 47  1  0
 25 48  1  0
M  END
$$$$
