
     RDKit          3D

 44 46  0  0  0  0  0  0  0  0999 V2000
    3.8089   -2.0434    0.0722 C   0  0  1  0  0  0  0  0  0  0  0  0
    3.5786   -3.2442   -0.6212 O   0  0  0  0  0  0  0  0  0  0  0  0
    4.6197   -1.0964   -0.7813 C   0  0  0  0  0  0  0  0  0  0  0  0
    5.5771   -0.2593   -0.1862 C   0  0  0  0  0  0  0  0  0  0  0  0
    6.2931    0.6430   -0.9764 C   0  0  0  0  0  0  0  0  0  0  0  0
    6.0549    0.7187   -2.3123 N   0  0  0  0  0  0  0  0  0  0  0  0
    5.1247   -0.0676   -2.9153 C   0  0  0  0  0  0  0  0  0  0  0  0
    4.3861   -0.9837   -2.1627 C   0  0  0  0  0  0  0  0  0  0  0  0
    2.5034   -1.3856    0.4642 C   0  0  0  0  0  0  0  0  0  0  0  0
    1.4011   -1.3887   -0.4084 C   0  0  0  0  0  0  0  0  0  0  0  0
    0.2136   -0.7430   -0.0525 C   0  0  0  0  0  0  0  0  0  0  0  0
    0.1124   -0.0718    1.1807 C   0  0  0  0  0  0  0  0  0  0  0  0
   -1.0565    0.5908    1.5836 O   0  0  0  0  0  0  0  0  0  0  0  0
   -2.2505    0.6594    0.8087 C   0  0  0  0  0  0  0  0  0  0  0  0
   -3.3069    1.4669    1.5819 C   0  0  0  0  0  0  0  0  0  0  0  0
   -4.6044    1.6182    0.8811 N   0  0  0  0  0  0  0  0  0  0  0  0
   -5.2848    0.3452    0.6115 C   0  0  0  0  0  0  0  0  0  0  0  0
   -5.1423    0.0363   -0.8724 C   0  0  0  0  0  0  0  0  0  0  0  0
   -4.6459    1.3154   -1.5220 C   0  0  0  0  0  0  0  0  0  0  0  0
   -4.5075    2.3331   -0.3980 C   0  0  0  0  0  0  0  0  0  0  0  0
    1.2151   -0.0572    2.0416 C   0  0  0  0  0  0  0  0  0  0  0  0
    2.4029   -0.7023    1.6868 C   0  0  0  0  0  0  0  0  0  0  0  0
    4.3940   -2.2840    0.9916 H   0  0  0  0  0  0  0  0  0  0  0  0
    3.2227   -3.8939    0.0404 H   0  0  0  0  0  0  0  0  0  0  0  0
    5.7658   -0.3024    0.8794 H   0  0  0  0  0  0  0  0  0  0  0  0
    7.0361    1.2873   -0.5257 H   0  0  0  0  0  0  0  0  0  0  0  0
    4.9548    0.0211   -3.9800 H   0  0  0  0  0  0  0  0  0  0  0  0
    3.6404   -1.5961   -2.6533 H   0  0  0  0  0  0  0  0  0  0  0  0
    1.4594   -1.8902   -1.3661 H   0  0  0  0  0  0  0  0  0  0  0  0
   -0.6171   -0.7688   -0.7445 H   0  0  0  0  0  0  0  0  0  0  0  0
   -2.6167   -0.3712    0.6221 H   0  0  0  0  0  0  0  0  0  0  0  0
   -2.0226    1.1530   -0.1585 H   0  0  0  0  0  0  0  0  0  0  0  0
   -3.4821    0.9792    2.5659 H   0  0  0  0  0  0  0  0  0  0  0  0
   -2.8958    2.4761    1.8037 H   0  0  0  0  0  0  0  0  0  0  0  0
   -6.3621    0.4690    0.8558 H   0  0  0  0  0  0  0  0  0  0  0  0
   -4.9013   -0.4915    1.2374 H   0  0  0  0  0  0  0  0  0  0  0  0
   -6.1186   -0.2754   -1.3040 H   0  0  0  0  0  0  0  0  0  0  0  0
   -4.4061   -0.7827   -1.0264 H   0  0  0  0  0  0  0  0  0  0  0  0
   -3.6611    1.1418   -2.0082 H   0  0  0  0  0  0  0  0  0  0  0  0
   -5.3650    1.6750   -2.2904 H   0  0  0  0  0  0  0  0  0  0  0  0
   -5.3495    3.0564   -0.4559 H   0  0  0  0  0  0  0  0  0  0  0  0
   -3.5660    2.9183   -0.4964 H   0  0  0  0  0  0  0  0  0  0  0  0
    1.1520    0.4613    2.9900 H   0  0  0  0  0  0  0  0  0  0  0  0
    3.2460   -0.6661    2.3656 H   0  0  0  0  0  0  0  0  0  0  0  0
  1  2  1  0
  1  3  1  0
  3  4  2  0
  4  5  1  0
  5  6  2  0
  6  7  1  0
  7  8  2  0
  1  9  1  0
  9 10  2  0
 10 11  1  0
 11 12  2  0
 12 13  1  0
 13 14  1  0
 14 15  1  0
 15 16  1  0
 16 17  1  0
 17 18  1  0
 18 19  1  0
 19 20  1  0
 12 21  1  0
 21 22  2  0
  8  3  1  0
 22  9  1  0
 20 16  1  0
  1 23  1  1
  2 24  1  0
  4 25  1  0
  5 26  1  0
  7 27  1  0
  8 28  1  0
 10 29  1  0
 11 30  1  0
 14 31  1  0
 14 32  1  0
 15 33  1  0
 15 34  1  0
 17 35  1  0
 17 36  1  0
 18 37  1  0
 18 38  1  0
 19 39  1  0
 19 40  1  0
 20 41  1  0
 20 42  1  0
 21 43  1  0
 22 44  1  0
M  END
$$$$
