
     RDKit          3D

 14 15  0  0  0  0  0  0  0  0999 V2000
   -2.7065    0.1415   -0.0140 N   0  0  0  0  0  0  0  0  0  0  0  0
   -2.0300   -1.0004    0.0768 N   0  0  0  0  0  0  0  0  0  0  0  0
   -0.7376   -0.6391    0.0497 C   0  0  0  0  0  0  0  0  0  0  0  0
   -0.6664    0.7125   -0.0569 C   0  0  0  0  0  0  0  0  0  0  0  0
   -1.9137    1.2066   -0.0973 N   0  0  0  0  0  0  0  0  0  0  0  0
    0.5449    1.3942   -0.1095 C   0  0  0  0  0  0  0  0  0  0  0  0
    0.5600    3.3061   -0.2604 Br  0  0  0  0  0  0  0  0  0  0  0  0
    1.7317    0.6219   -0.0473 C   0  0  0  0  0  0  0  0  0  0  0  0
    3.4408    1.5012   -0.1149 Br  0  0  0  0  0  0  0  0  0  0  0  0
    1.6568   -0.7991    0.0648 C   0  0  0  0  0  0  0  0  0  0  0  0
    3.2641   -1.8518    0.1496 Br  0  0  0  0  0  0  0  0  0  0  0  0
    0.3953   -1.4433    0.1143 C   0  0  0  0  0  0  0  0  0  0  0  0
    0.2094   -3.3463    0.2644 Br  0  0  0  0  0  0  0  0  0  0  0  0
   -3.7487    0.1960   -0.0194 H   0  0  0  0  0  0  0  0  0  0  0  0
  1  2  1  0
  2  3  2  0
  3  4  1  0
  4  5  2  0
  4  6  1  0
  6  7  1  0
  6  8  2  0
  8  9  1  0
  8 10  1  0
 10 11  1  0
 10 12  2  0
 12 13  1  0
  5  1  1  0
 12  3  1  0
  1 14  1  0
M  END
$$$$
