
     RDKit          3D

 58 61  0  0  0  0  0  0  0  0999 V2000
   -2.7432   -1.2220   -2.9279 C   0  0  0  0  0  0  0  0  0  0  0  0
   -2.0753   -1.3665   -1.5603 C   0  0  1  0  0  0  0  0  0  0  0  0
   -0.7120   -0.9990   -1.6775 O   0  0  0  0  0  0  0  0  0  0  0  0
    0.0720   -1.4606   -0.5833 C   0  0  1  0  0  0  0  0  0  0  0  0
    1.1015   -2.2878   -1.0850 O   0  0  0  0  0  0  0  0  0  0  0  0
    1.7586   -2.9616   -0.0219 C   0  0  0  0  0  0  0  0  0  0  0  0
    2.0223   -2.0529    1.2027 C   0  0  0  0  0  0  0  0  0  0  0  0
    2.0216   -0.6218    0.8235 N   0  0  0  0  0  0  0  0  0  0  0  0
    3.2195   -0.2601    0.0214 C   0  0  0  0  0  0  0  0  0  0  0  0
    4.4875   -0.4870    0.7893 C   0  0  0  0  0  0  0  0  0  0  0  0
    4.8413    0.2251    1.8818 N   0  0  0  0  0  0  0  0  0  0  0  0
    5.9911   -0.2851    2.2932 N   0  0  0  0  0  0  0  0  0  0  0  0
    6.3082   -1.2873    1.4595 C   0  0  0  0  0  0  0  0  0  0  0  0
    7.3446   -1.9939    1.5688 O   0  0  0  0  0  0  0  0  0  0  0  0
    5.3869   -1.4496    0.4977 N   0  0  0  0  0  0  0  0  0  0  0  0
    0.7046   -0.2635    0.2063 C   0  0  1  0  0  0  0  0  0  0  0  0
    0.7294    1.0641   -0.5532 C   0  0  0  0  0  0  0  0  0  0  0  0
    1.1388    1.1392   -1.9009 C   0  0  0  0  0  0  0  0  0  0  0  0
    1.1704    2.3682   -2.5654 C   0  0  0  0  0  0  0  0  0  0  0  0
    0.8136    3.5383   -1.8919 C   0  0  0  0  0  0  0  0  0  0  0  0
    0.8456    4.7297   -2.5382 F   0  0  0  0  0  0  0  0  0  0  0  0
    0.4343    3.4821   -0.5492 C   0  0  0  0  0  0  0  0  0  0  0  0
    0.3982    2.2551    0.1193 C   0  0  0  0  0  0  0  0  0  0  0  0
   -2.7772   -0.4909   -0.5401 C   0  0  0  0  0  0  0  0  0  0  0  0
   -2.7246    0.9092   -0.6440 C   0  0  0  0  0  0  0  0  0  0  0  0
   -3.3581    1.7231    0.3098 C   0  0  0  0  0  0  0  0  0  0  0  0
   -4.0267    1.1210    1.3872 C   0  0  0  0  0  0  0  0  0  0  0  0
   -4.1106   -0.2772    1.4922 C   0  0  0  0  0  0  0  0  0  0  0  0
   -3.4666   -1.0754    0.5331 C   0  0  0  0  0  0  0  0  0  0  0  0
   -4.7932   -0.9134    2.6775 C   0  0  0  0  0  0  0  0  0  0  0  0
   -5.8251   -0.1131    3.1366 F   0  0  0  0  0  0  0  0  0  0  0  0
   -3.8718   -1.0871    3.6932 F   0  0  0  0  0  0  0  0  0  0  0  0
   -5.3229   -2.1452    2.3336 F   0  0  0  0  0  0  0  0  0  0  0  0
   -3.2787    3.2277    0.2341 C   0  0  0  0  0  0  0  0  0  0  0  0
   -2.8209    3.6517   -1.0017 F   0  0  0  0  0  0  0  0  0  0  0  0
   -4.5325    3.7741    0.4435 F   0  0  0  0  0  0  0  0  0  0  0  0
   -2.4184    3.6897    1.2127 F   0  0  0  0  0  0  0  0  0  0  0  0
   -3.8213   -1.4822   -2.8591 H   0  0  0  0  0  0  0  0  0  0  0  0
   -2.6432   -0.1842   -3.3111 H   0  0  0  0  0  0  0  0  0  0  0  0
   -2.2609   -1.9105   -3.6540 H   0  0  0  0  0  0  0  0  0  0  0  0
   -2.1701   -2.4459   -1.2923 H   0  0  0  0  0  0  0  0  0  0  0  0
   -0.5396   -2.0532    0.1484 H   0  0  0  0  0  0  0  0  0  0  0  0
    2.7333   -3.3322   -0.4039 H   0  0  0  0  0  0  0  0  0  0  0  0
    1.1673   -3.8527    0.2835 H   0  0  0  0  0  0  0  0  0  0  0  0
    2.9669   -2.3472    1.7069 H   0  0  0  0  0  0  0  0  0  0  0  0
    1.2220   -2.2222    1.9570 H   0  0  0  0  0  0  0  0  0  0  0  0
    3.2169    0.8238   -0.2114 H   0  0  0  0  0  0  0  0  0  0  0  0
    3.2479   -0.8187   -0.9387 H   0  0  0  0  0  0  0  0  0  0  0  0
    6.5318    0.0464    3.1226 H   0  0  0  0  0  0  0  0  0  0  0  0
    5.3664   -2.1519   -0.2751 H   0  0  0  0  0  0  0  0  0  0  0  0
    0.0050   -0.1026    1.0583 H   0  0  0  0  0  0  0  0  0  0  0  0
    1.4412    0.2481   -2.4358 H   0  0  0  0  0  0  0  0  0  0  0  0
    1.4784    2.4128   -3.6020 H   0  0  0  0  0  0  0  0  0  0  0  0
    0.1671    4.3901   -0.0240 H   0  0  0  0  0  0  0  0  0  0  0  0
    0.1056    2.2346    1.1616 H   0  0  0  0  0  0  0  0  0  0  0  0
   -2.1759    1.3581   -1.4622 H   0  0  0  0  0  0  0  0  0  0  0  0
   -4.4801    1.7466    2.1469 H   0  0  0  0  0  0  0  0  0  0  0  0
   -3.4907   -2.1542    0.6278 H   0  0  0  0  0  0  0  0  0  0  0  0
  1  2  1  0
  2  3  1  0
  3  4  1  0
  4  5  1  0
  5  6  1  0
  6  7  1  0
  7  8  1  0
  8  9  1  0
  9 10  1  0
 10 11  2  0
 11 12  1  0
 12 13  1  0
 13 14  2  0
 13 15  1  0
  8 16  1  0
 16 17  1  0
 17 18  2  0
 18 19  1  0
 19 20  2  0
 20 21  1  0
 20 22  1  0
 22 23  2  0
  2 24  1  0
 24 25  2  0
 25 26  1  0
 26 27  2  0
 27 28  1  0
 28 29  2  0
 28 30  1  0
 30 31  1  0
 30 32  1  0
 30 33  1  0
 26 34  1  0
 34 35  1  0
 34 36  1  0
 34 37  1  0
 16  4  1  0
 23 17  1  0
 29 24  1  0
 15 10  1  0
  1 38  1  0
  1 39  1  0
  1 40  1  0
  2 41  1  1
  4 42  1  1
  6 43  1  0
  6 44  1  0
  7 45  1  0
  7 46  1  0
  9 47  1  0
  9 48  1  0
 12 49  1  0
 15 50  1  0
 16 51  1  1
 18 52  1  0
 19 53  1  0
 22 54  1  0
 23 55  1  0
 25 56  1  0
 27 57  1  0
 29 58  1  0
M  END
$$$$
