
     RDKit          3D

 38 37  0  0  0  0  0  0  0  0999 V2000
   -4.9465   -1.0728    1.5055 N   0  0  0  0  0  0  0  0  0  0  0  0
   -5.4466    0.1847    0.9579 C   0  0  0  0  0  0  0  0  0  0  0  0
   -4.7679    0.5148   -0.3842 C   0  0  0  0  0  0  0  0  0  0  0  0
   -3.4110    1.0655   -0.2278 N   0  0  0  0  0  0  0  0  0  0  0  0
   -2.4310    0.0557    0.1984 C   0  0  0  0  0  0  0  0  0  0  0  0
   -1.0009    0.4990   -0.1770 C   0  0  1  0  0  0  0  0  0  0  0  0
   -0.6245    1.7380    0.5125 N   0  0  0  0  0  0  0  0  0  0  0  0
    0.0108   -0.6135    0.1596 C   0  0  0  0  0  0  0  0  0  0  0  0
    1.4232   -0.2742   -0.3385 C   0  0  0  0  0  0  0  0  0  0  0  0
    2.4037   -1.4096   -0.0276 C   0  0  0  0  0  0  0  0  0  0  0  0
    3.7387   -1.0847   -0.5289 N   0  0  0  0  0  0  0  0  0  0  0  0
    4.6241   -0.1673    0.1305 C   0  0  0  0  0  0  0  0  0  0  0  0
    4.2519    0.4215    1.2251 N   0  0  0  0  0  0  0  0  0  0  0  0
    5.8915    0.1355   -0.4723 N   0  0  0  0  0  0  0  0  0  0  0  0
    7.0327    0.4717    0.2771 N   0  0  0  0  0  4  0  0  0  0  0  0
    7.1166    0.1499    1.6124 O   0  0  0  0  0  1  0  0  0  0  0  0
    8.0496    0.8952   -0.3086 O   0  0  0  0  0  0  0  0  0  0  0  0
   -5.3933   -1.2131    2.4404 H   0  0  0  0  0  0  0  0  0  0  0  0
   -5.2822   -1.8530    0.8950 H   0  0  0  0  0  0  0  0  0  0  0  0
   -6.5450    0.1033    0.7969 H   0  0  0  0  0  0  0  0  0  0  0  0
   -5.2733    1.0065    1.6864 H   0  0  0  0  0  0  0  0  0  0  0  0
   -4.7596   -0.3755   -1.0512 H   0  0  0  0  0  0  0  0  0  0  0  0
   -5.3865    1.2813   -0.8987 H   0  0  0  0  0  0  0  0  0  0  0  0
   -3.4354    1.8411    0.4751 H   0  0  0  0  0  0  0  0  0  0  0  0
   -2.6359   -0.9161   -0.3051 H   0  0  0  0  0  0  0  0  0  0  0  0
   -2.4967   -0.1029    1.2980 H   0  0  0  0  0  0  0  0  0  0  0  0
   -0.9715    0.6751   -1.2763 H   0  0  0  0  0  0  0  0  0  0  0  0
   -1.1773    2.5330    0.1182 H   0  0  0  0  0  0  0  0  0  0  0  0
   -0.8525    1.6593    1.5306 H   0  0  0  0  0  0  0  0  0  0  0  0
   -0.3163   -1.5623   -0.3207 H   0  0  0  0  0  0  0  0  0  0  0  0
    0.0336   -0.7746    1.2603 H   0  0  0  0  0  0  0  0  0  0  0  0
    1.7746    0.6600    0.1492 H   0  0  0  0  0  0  0  0  0  0  0  0
    1.3991   -0.1081   -1.4379 H   0  0  0  0  0  0  0  0  0  0  0  0
    2.4475   -1.6006    1.0670 H   0  0  0  0  0  0  0  0  0  0  0  0
    2.0502   -2.3410   -0.5218 H   0  0  0  0  0  0  0  0  0  0  0  0
    4.0846   -1.5900   -1.3756 H   0  0  0  0  0  0  0  0  0  0  0  0
    4.8392    1.1338    1.7112 H   0  0  0  0  0  0  0  0  0  0  0  0
    5.9824    0.0344   -1.5084 H   0  0  0  0  0  0  0  0  0  0  0  0
  1  2  1  0
  2  3  1  0
  3  4  1  0
  4  5  1  0
  5  6  1  0
  6  7  1  0
  6  8  1  0
  8  9  1  0
  9 10  1  0
 10 11  1  0
 11 12  1  0
 12 13  2  3
 12 14  1  0
 14 15  1  0
 15 16  1  0
 15 17  2  0
  1 18  1  0
  1 19  1  0
  2 20  1  0
  2 21  1  0
  3 22  1  0
  3 23  1  0
  4 24  1  0
  5 25  1  0
  5 26  1  0
  6 27  1  6
  7 28  1  0
  7 29  1  0
  8 30  1  0
  8 31  1  0
  9 32  1  0
  9 33  1  0
 10 34  1  0
 10 35  1  0
 11 36  1  0
 13 37  1  0
 14 38  1  0
M  CHG  2  15   1  16  -1
M  END
$$$$
