
     RDKit          3D

 24 24  0  0  0  0  0  0  0  0999 V2000
   -2.3028    1.0803   -0.2045 N   0  0  0  0  0  0  0  0  0  0  0  0
   -1.9671   -0.2914   -0.5925 C   0  0  1  0  0  0  0  0  0  0  0  0
   -0.6564   -0.3289   -1.4046 C   0  0  0  0  0  0  0  0  0  0  0  0
    0.4868    0.1915   -0.6373 N   0  0  0  0  0  0  0  0  0  0  0  0
    0.7537    1.5334   -0.6410 C   0  0  0  0  0  0  0  0  0  0  0  0
    1.8259    2.0472    0.0911 C   0  0  0  0  0  0  0  0  0  0  0  0
    2.6304    1.1805    0.8312 C   0  0  0  0  0  0  0  0  0  0  0  0
    3.5994    1.6350    1.4959 O   0  0  0  0  0  0  0  0  0  0  0  0
    2.3554   -0.1897    0.8304 C   0  0  0  0  0  0  0  0  0  0  0  0
    3.1524   -1.0648    1.5672 O   0  0  0  0  0  0  0  0  0  0  0  0
    1.2717   -0.6682    0.0826 C   0  0  0  0  0  0  0  0  0  0  0  0
   -1.8752   -1.1780    0.6195 C   0  0  0  0  0  0  0  0  0  0  0  0
   -2.1807   -2.5306    0.5063 O   0  0  0  0  0  0  0  0  0  0  0  0
   -1.4811   -0.7149    1.7242 O   0  0  0  0  0  0  0  0  0  0  0  0
   -2.4434    1.6428   -1.0752 H   0  0  0  0  0  0  0  0  0  0  0  0
   -3.2298    1.0673    0.2808 H   0  0  0  0  0  0  0  0  0  0  0  0
   -2.7808   -0.6865   -1.2424 H   0  0  0  0  0  0  0  0  0  0  0  0
   -0.7872    0.2619   -2.3387 H   0  0  0  0  0  0  0  0  0  0  0  0
   -0.4572   -1.3735   -1.7341 H   0  0  0  0  0  0  0  0  0  0  0  0
    0.1365    2.2161   -1.2127 H   0  0  0  0  0  0  0  0  0  0  0  0
    2.0268    3.1115    0.0812 H   0  0  0  0  0  0  0  0  0  0  0  0
    2.9709   -2.0617    1.5819 H   0  0  0  0  0  0  0  0  0  0  0  0
    1.0575   -1.7307    0.0854 H   0  0  0  0  0  0  0  0  0  0  0  0
   -2.1058   -3.1486    1.3055 H   0  0  0  0  0  0  0  0  0  0  0  0
  1  2  1  0
  2  3  1  0
  3  4  1  0
  4  5  1  0
  5  6  2  0
  6  7  1  0
  7  8  2  0
  7  9  1  0
  9 10  1  0
  9 11  2  0
  2 12  1  0
 12 13  1  0
 12 14  2  0
 11  4  1  0
  1 15  1  0
  1 16  1  0
  2 17  1  6
  3 18  1  0
  3 19  1  0
  5 20  1  0
  6 21  1  0
 10 22  1  0
 11 23  1  0
 13 24  1  0
M  END
$$$$
