
     RDKit          3D

 96102  0  0  0  0  0  0  0  0999 V2000
    3.6240    2.7312    1.1216 C   0  0  2  0  0  0  0  0  0  0  0  0
    2.9595    3.4929   -0.0832 C   0  0  0  0  0  0  0  0  0  0  0  0
    1.5652    3.0057   -0.4444 C   0  0  0  0  0  0  0  0  0  0  0  0
    0.5914    2.7434    0.5388 C   0  0  0  0  0  0  0  0  0  0  0  0
   -0.6009    2.1012    0.1975 C   0  0  0  0  0  0  0  0  0  0  0  0
   -0.8620    1.7603   -1.1394 C   0  0  0  0  0  0  0  0  0  0  0  0
   -1.9903    1.0194   -1.5126 O   0  0  0  0  0  0  0  0  0  0  0  0
   -3.1906    0.9358   -0.7931 C   0  0  0  0  0  0  0  0  0  0  0  0
   -3.8241   -0.3195   -0.6589 C   0  0  0  0  0  0  0  0  0  0  0  0
   -5.0883   -0.3945   -0.0427 C   0  0  0  0  0  0  0  0  0  0  0  0
   -5.9443   -1.6305   -0.1447 C   0  0  0  0  0  0  0  0  0  0  0  0
   -5.2324   -2.8699   -0.7183 C   0  0  0  0  0  0  0  0  0  0  0  0
   -4.1523   -2.5568   -1.7002 N   0  0  0  0  0  4  0  0  0  0  0  0
   -3.5113   -3.8299   -2.1158 C   0  0  0  0  0  0  0  0  0  0  0  0
   -4.7499   -1.9647   -2.9318 C   0  0  0  0  0  0  0  0  0  0  0  0
   -3.1385   -1.6032   -1.1227 C   0  0  2  0  0  0  0  0  0  0  0  0
   -2.2870   -2.1739    0.0746 C   0  0  0  0  0  0  0  0  0  0  0  0
   -0.9415   -2.7483   -0.3294 C   0  0  0  0  0  0  0  0  0  0  0  0
    0.1436   -1.8962   -0.5959 C   0  0  0  0  0  0  0  0  0  0  0  0
    1.3983   -2.4227   -0.9415 C   0  0  0  0  0  0  0  0  0  0  0  0
    2.4847   -1.5663   -1.1400 O   0  0  0  0  0  0  0  0  0  0  0  0
    3.1170   -0.9059   -0.0781 C   0  0  0  0  0  0  0  0  0  0  0  0
    3.6470   -1.6114    1.0157 C   0  0  0  0  0  0  0  0  0  0  0  0
    3.5214   -3.0083    1.0509 O   0  0  0  0  0  0  0  0  0  0  0  0
    4.0086   -3.8413    2.0971 C   0  0  0  0  0  0  0  0  0  0  0  0
    4.3302   -0.9016    2.0187 C   0  0  0  0  0  0  0  0  0  0  0  0
    4.4120    0.4985    1.9793 C   0  0  0  0  0  0  0  0  0  0  0  0
    5.3562    1.1903    2.9280 C   0  0  0  0  0  0  0  0  0  0  0  0
    5.2365    2.7273    2.9431 C   0  0  0  0  0  0  0  0  0  0  0  0
    4.9109    3.3361    1.6165 N   0  0  0  0  0  4  0  0  0  0  0  0
    6.0321    3.1265    0.6624 C   0  0  0  0  0  0  0  0  0  0  0  0
    4.7712    4.8004    1.8443 C   0  0  0  0  0  0  0  0  0  0  0  0
    3.7740    1.2123    0.9484 C   0  0  0  0  0  0  0  0  0  0  0  0
    3.2364    0.4829   -0.1315 C   0  0  0  0  0  0  0  0  0  0  0  0
    1.5681   -3.8065   -1.0823 C   0  0  0  0  0  0  0  0  0  0  0  0
    2.8172   -4.2905   -1.5015 O   0  0  0  0  0  0  0  0  0  0  0  0
    3.1447   -5.6699   -1.6289 C   0  0  0  0  0  0  0  0  0  0  0  0
    0.4990   -4.6625   -0.7666 C   0  0  0  0  0  0  0  0  0  0  0  0
   -0.7287   -4.1372   -0.3578 C   0  0  0  0  0  0  0  0  0  0  0  0
   -5.6554    0.7523    0.5283 C   0  0  0  0  0  0  0  0  0  0  0  0
   -5.0125    1.9959    0.4332 C   0  0  0  0  0  0  0  0  0  0  0  0
   -5.5593    3.1647    0.9867 O   0  0  0  0  0  0  0  0  0  0  0  0
   -6.7816    3.2181    1.7150 C   0  0  0  0  0  0  0  0  0  0  0  0
   -3.8072    2.0934   -0.2692 C   0  0  0  0  0  0  0  0  0  0  0  0
   -3.2457    3.3584   -0.4599 O   0  0  0  0  0  0  0  0  0  0  0  0
   -3.2842    4.0093   -1.7242 C   0  0  0  0  0  0  0  0  0  0  0  0
    0.0536    2.1209   -2.1307 C   0  0  0  0  0  0  0  0  0  0  0  0
    1.2469    2.7605   -1.7921 C   0  0  0  0  0  0  0  0  0  0  0  0
    2.8924    2.8359    1.9507 H   0  0  0  0  0  0  0  0  0  0  0  0
    2.8326    4.5670    0.1519 H   0  0  0  0  0  0  0  0  0  0  0  0
    3.6300    3.4241   -0.9656 H   0  0  0  0  0  0  0  0  0  0  0  0
    0.7597    2.9883    1.5773 H   0  0  0  0  0  0  0  0  0  0  0  0
   -1.2971    1.8346    0.9816 H   0  0  0  0  0  0  0  0  0  0  0  0
   -6.3527   -1.8805    0.8590 H   0  0  0  0  0  0  0  0  0  0  0  0
   -6.8105   -1.3906   -0.7994 H   0  0  0  0  0  0  0  0  0  0  0  0
   -4.8451   -3.4660    0.1337 H   0  0  0  0  0  0  0  0  0  0  0  0
   -6.0026   -3.5243   -1.1884 H   0  0  0  0  0  0  0  0  0  0  0  0
   -3.2924   -4.4765   -1.2466 H   0  0  0  0  0  0  0  0  0  0  0  0
   -4.1852   -4.4345   -2.7643 H   0  0  0  0  0  0  0  0  0  0  0  0
   -2.5718   -3.6445   -2.6828 H   0  0  0  0  0  0  0  0  0  0  0  0
   -5.2499   -0.9932   -2.7357 H   0  0  0  0  0  0  0  0  0  0  0  0
   -3.9703   -1.7853   -3.7062 H   0  0  0  0  0  0  0  0  0  0  0  0
   -5.5198   -2.6370   -3.3733 H   0  0  0  0  0  0  0  0  0  0  0  0
   -2.4211   -1.3336   -1.9316 H   0  0  0  0  0  0  0  0  0  0  0  0
   -2.8460   -2.9215    0.6662 H   0  0  0  0  0  0  0  0  0  0  0  0
   -2.0731   -1.3599    0.8036 H   0  0  0  0  0  0  0  0  0  0  0  0
    0.0237   -0.8248   -0.5145 H   0  0  0  0  0  0  0  0  0  0  0  0
    3.7440   -4.8948    1.8722 H   0  0  0  0  0  0  0  0  0  0  0  0
    3.5407   -3.5548    3.0626 H   0  0  0  0  0  0  0  0  0  0  0  0
    5.1138   -3.7600    2.1665 H   0  0  0  0  0  0  0  0  0  0  0  0
    4.8245   -1.4313    2.8224 H   0  0  0  0  0  0  0  0  0  0  0  0
    6.3941    0.9184    2.6369 H   0  0  0  0  0  0  0  0  0  0  0  0
    5.1940    0.8079    3.9595 H   0  0  0  0  0  0  0  0  0  0  0  0
    4.4505    2.9943    3.6881 H   0  0  0  0  0  0  0  0  0  0  0  0
    6.1913    3.1393    3.3446 H   0  0  0  0  0  0  0  0  0  0  0  0
    6.9816    3.5405    1.0698 H   0  0  0  0  0  0  0  0  0  0  0  0
    5.8366    3.6326   -0.3071 H   0  0  0  0  0  0  0  0  0  0  0  0
    6.2057    2.0516    0.4470 H   0  0  0  0  0  0  0  0  0  0  0  0
    5.6383    5.2070    2.4127 H   0  0  0  0  0  0  0  0  0  0  0  0
    4.7460    5.3689    0.8892 H   0  0  0  0  0  0  0  0  0  0  0  0
    3.8485    5.0320    2.4223 H   0  0  0  0  0  0  0  0  0  0  0  0
    2.8985    0.9636   -1.0276 H   0  0  0  0  0  0  0  0  0  0  0  0
    2.4813   -6.1526   -2.3772 H   0  0  0  0  0  0  0  0  0  0  0  0
    3.0466   -6.1771   -0.6458 H   0  0  0  0  0  0  0  0  0  0  0  0
    4.1952   -5.7624   -1.9726 H   0  0  0  0  0  0  0  0  0  0  0  0
    0.6128   -5.7369   -0.8115 H   0  0  0  0  0  0  0  0  0  0  0  0
   -1.5036   -4.8238   -0.0492 H   0  0  0  0  0  0  0  0  0  0  0  0
   -6.6241    0.6747    1.0043 H   0  0  0  0  0  0  0  0  0  0  0  0
   -7.6264    2.9036    1.0665 H   0  0  0  0  0  0  0  0  0  0  0  0
   -6.7217    2.5641    2.6105 H   0  0  0  0  0  0  0  0  0  0  0  0
   -6.9596    4.2610    2.0479 H   0  0  0  0  0  0  0  0  0  0  0  0
   -2.7963    3.3859   -2.5016 H   0  0  0  0  0  0  0  0  0  0  0  0
   -4.3383    4.2015   -2.0154 H   0  0  0  0  0  0  0  0  0  0  0  0
   -2.7479    4.9773   -1.6514 H   0  0  0  0  0  0  0  0  0  0  0  0
   -0.1471    1.8760   -3.1660 H   0  0  0  0  0  0  0  0  0  0  0  0
    1.9584    2.9897   -2.5757 H   0  0  0  0  0  0  0  0  0  0  0  0
  1  2  1  0
  2  3  1  0
  3  4  2  0
  4  5  1  0
  5  6  2  0
  6  7  1  0
  7  8  1  0
  8  9  2  0
  9 10  1  0
 10 11  1  0
 11 12  1  0
 12 13  1  0
 13 14  1  0
 13 15  1  0
 13 16  1  0
 16 17  1  0
 17 18  1  0
 18 19  2  0
 19 20  1  0
 20 21  1  0
 21 22  1  0
 22 23  2  0
 23 24  1  0
 24 25  1  0
 23 26  1  0
 26 27  2  0
 27 28  1  0
 28 29  1  0
 29 30  1  0
 30 31  1  0
 30 32  1  0
 27 33  1  0
 33 34  2  0
 20 35  2  0
 35 36  1  0
 36 37  1  0
 35 38  1  0
 38 39  2  0
 10 40  2  0
 40 41  1  0
 41 42  1  0
 42 43  1  0
 41 44  2  0
 44 45  1  0
 45 46  1  0
  6 47  1  0
 47 48  2  0
 30  1  1  0
 33  1  1  0
 48  3  1  0
 44  8  1  0
 16  9  1  0
 39 18  1  0
 34 22  1  0
  1 49  1  1
  2 50  1  0
  2 51  1  0
  4 52  1  0
  5 53  1  0
 11 54  1  0
 11 55  1  0
 12 56  1  0
 12 57  1  0
 14 58  1  0
 14 59  1  0
 14 60  1  0
 15 61  1  0
 15 62  1  0
 15 63  1  0
 16 64  1  6
 17 65  1  0
 17 66  1  0
 19 67  1  0
 25 68  1  0
 25 69  1  0
 25 70  1  0
 26 71  1  0
 28 72  1  0
 28 73  1  0
 29 74  1  0
 29 75  1  0
 31 76  1  0
 31 77  1  0
 31 78  1  0
 32 79  1  0
 32 80  1  0
 32 81  1  0
 34 82  1  0
 37 83  1  0
 37 84  1  0
 37 85  1  0
 38 86  1  0
 39 87  1  0
 40 88  1  0
 43 89  1  0
 43 90  1  0
 43 91  1  0
 46 92  1  0
 46 93  1  0
 46 94  1  0
 47 95  1  0
 48 96  1  0
M  CHG  2  13   1  30   1
M  END
$$$$
