
     RDKit          3D

 26 25  0  0  0  0  0  0  0  0999 V2000
   -0.1752    0.7331   -1.3767 C   0  0  2  0  0  0  0  0  0  0  0  0
    0.0502    0.4186   -2.7277 O   0  0  0  0  0  0  0  0  0  0  0  0
    1.1543    0.6618   -0.6017 C   0  0  0  0  0  0  0  0  0  0  0  0
    1.6630   -0.6515   -0.6274 O   0  0  0  0  0  0  0  0  0  0  0  0
    3.0458   -0.7150    0.3674 P   0  0  0  0  0  5  0  0  0  0  0  0
    4.2005    0.4075   -0.1579 O   0  0  0  0  0  0  0  0  0  0  0  0
    2.6155   -0.3908    1.9731 O   0  0  0  0  0  0  0  0  0  0  0  0
    3.6399   -2.1025    0.2872 O   0  0  0  0  0  0  0  0  0  0  0  0
   -1.2855   -0.1977   -0.8272 C   0  0  1  0  0  0  0  0  0  0  0  0
   -0.9055   -1.5437   -0.9774 O   0  0  0  0  0  0  0  0  0  0  0  0
   -1.6597    0.1032    0.6450 C   0  0  2  0  0  0  0  0  0  0  0  0
   -0.7227   -0.4803    1.5151 O   0  0  0  0  0  0  0  0  0  0  0  0
   -3.0340   -0.4223    0.9550 C   0  0  0  0  0  0  0  0  0  0  0  0
   -4.1397    0.4091    0.8062 O   0  0  0  0  0  0  0  0  0  0  0  0
   -3.1938   -1.6218    1.3088 O   0  0  0  0  0  0  0  0  0  0  0  0
   -0.5534    1.7807   -1.3072 H   0  0  0  0  0  0  0  0  0  0  0  0
    0.4882    1.2084   -3.1409 H   0  0  0  0  0  0  0  0  0  0  0  0
    1.8727    1.3569   -1.0917 H   0  0  0  0  0  0  0  0  0  0  0  0
    0.9866    1.0230    0.4371 H   0  0  0  0  0  0  0  0  0  0  0  0
    3.9795    1.2456    0.3214 H   0  0  0  0  0  0  0  0  0  0  0  0
    3.4723   -0.3916    2.4698 H   0  0  0  0  0  0  0  0  0  0  0  0
   -2.1829    0.0024   -1.4624 H   0  0  0  0  0  0  0  0  0  0  0  0
   -1.7401   -2.0794   -1.0199 H   0  0  0  0  0  0  0  0  0  0  0  0
   -1.6738    1.2085    0.7928 H   0  0  0  0  0  0  0  0  0  0  0  0
   -0.8272   -0.0304    2.3942 H   0  0  0  0  0  0  0  0  0  0  0  0
   -5.0750    0.0683    0.9942 H   0  0  0  0  0  0  0  0  0  0  0  0
  1  2  1  0
  1  3  1  0
  3  4  1  0
  4  5  1  0
  5  6  1  0
  5  7  1  0
  5  8  2  0
  1  9  1  0
  9 10  1  0
  9 11  1  0
 11 12  1  0
 11 13  1  0
 13 14  1  0
 13 15  2  0
  1 16  1  6
  2 17  1  0
  3 18  1  0
  3 19  1  0
  6 20  1  0
  7 21  1  0
  9 22  1  6
 10 23  1  0
 11 24  1  6
 12 25  1  0
 14 26  1  0
M  END
$$$$
