
     RDKit          3D

 27 28  0  0  0  0  0  0  0  0999 V2000
   -1.9274   -0.4180    0.6467 C   0  0  2  0  0  0  0  0  0  0  0  0
   -2.0521    0.3612    1.8055 O   0  0  0  0  0  0  0  0  0  0  0  0
   -0.4785   -0.7896    0.3519 C   0  0  0  0  0  0  0  0  0  0  0  0
   -0.2334   -2.1158   -0.0545 C   0  0  0  0  0  0  0  0  0  0  0  0
    1.0537   -2.5550   -0.3520 C   0  0  0  0  0  0  0  0  0  0  0  0
    2.1315   -1.6822   -0.2605 C   0  0  0  0  0  0  0  0  0  0  0  0
    1.9318   -0.3502    0.1218 C   0  0  0  0  0  0  0  0  0  0  0  0
    3.0322    0.5187    0.1964 C   0  0  0  0  0  0  0  0  0  0  0  0
    2.8540    1.8509    0.5632 C   0  0  0  0  0  0  0  0  0  0  0  0
    1.5793    2.3292    0.8554 C   0  0  0  0  0  0  0  0  0  0  0  0
    0.4728    1.4792    0.7888 C   0  0  0  0  0  0  0  0  0  0  0  0
    0.6217    0.1204    0.4266 C   0  0  0  0  0  0  0  0  0  0  0  0
   -2.6822    0.4367   -0.7781 P   0  0  0  0  0  5  0  0  0  0  0  0
   -1.8813    1.8877   -1.1162 O   0  0  0  0  0  0  0  0  0  0  0  0
   -2.5983   -0.5685   -2.1376 O   0  0  0  0  0  0  0  0  0  0  0  0
   -4.1320    0.7319   -0.4663 O   0  0  0  0  0  0  0  0  0  0  0  0
   -2.5307   -1.3426    0.7985 H   0  0  0  0  0  0  0  0  0  0  0  0
   -1.7954   -0.2203    2.5684 H   0  0  0  0  0  0  0  0  0  0  0  0
   -1.0485   -2.8238   -0.1430 H   0  0  0  0  0  0  0  0  0  0  0  0
    1.2160   -3.5810   -0.6567 H   0  0  0  0  0  0  0  0  0  0  0  0
    3.1242   -2.0479   -0.4960 H   0  0  0  0  0  0  0  0  0  0  0  0
    4.0315    0.1670   -0.0323 H   0  0  0  0  0  0  0  0  0  0  0  0
    3.7064    2.5159    0.6170 H   0  0  0  0  0  0  0  0  0  0  0  0
    1.4458    3.3669    1.1332 H   0  0  0  0  0  0  0  0  0  0  0  0
   -0.4860    1.9147    1.0131 H   0  0  0  0  0  0  0  0  0  0  0  0
   -2.2979    2.2178   -1.9518 H   0  0  0  0  0  0  0  0  0  0  0  0
   -3.0571   -1.4032   -1.8658 H   0  0  0  0  0  0  0  0  0  0  0  0
  1  2  1  0
  1  3  1  0
  3  4  2  0
  4  5  1  0
  5  6  2  0
  6  7  1  0
  7  8  2  0
  8  9  1  0
  9 10  2  0
 10 11  1  0
 11 12  2  0
  1 13  1  0
 13 14  1  0
 13 15  1  0
 13 16  2  0
 12  3  1  0
 12  7  1  0
  1 17  1  1
  2 18  1  0
  4 19  1  0
  5 20  1  0
  6 21  1  0
  8 22  1  0
  9 23  1  0
 10 24  1  0
 11 25  1  0
 14 26  1  0
 15 27  1  0
M  END
$$$$
