
     RDKit          3D

 63 66  0  0  0  0  0  0  0  0999 V2000
   -3.7454   -3.4360   -2.3318 C   0  0  0  0  0  0  0  0  0  0  0  0
   -2.7035   -3.2125   -1.2363 C   0  0  0  0  0  0  0  0  0  0  0  0
   -3.3411   -2.8412    0.1090 C   0  0  0  0  0  0  0  0  0  0  0  0
   -3.9992   -1.4947    0.0613 C   0  0  0  0  0  0  0  0  0  0  0  0
   -5.3326   -1.2972   -0.0935 N   0  0  0  0  0  0  0  0  0  0  0  0
   -5.5526    0.0145   -0.1510 N   0  0  0  0  0  0  0  0  0  0  0  0
   -6.8709    0.6099   -0.3320 C   0  0  0  0  0  0  0  0  0  0  0  0
   -4.3707    0.6550   -0.0471 C   0  0  0  0  0  0  0  0  0  0  0  0
   -3.3820   -0.2617    0.0857 C   0  0  0  0  0  0  0  0  0  0  0  0
   -2.0739    0.0792    0.1824 N   0  0  0  0  0  0  0  0  0  0  0  0
   -1.7472    1.4131    0.1520 C   0  0  0  0  0  0  0  0  0  0  0  0
   -2.7387    2.3564    0.0188 N   0  0  0  0  0  0  0  0  0  0  0  0
   -4.0544    2.0087   -0.0854 C   0  0  0  0  0  0  0  0  0  0  0  0
   -4.9398    2.8942   -0.2137 O   0  0  0  0  0  0  0  0  0  0  0  0
   -0.3332    1.8459    0.2662 C   0  0  0  0  0  0  0  0  0  0  0  0
    0.1559    2.9388   -0.4844 C   0  0  0  0  0  0  0  0  0  0  0  0
   -0.7141    3.5995   -1.3713 O   0  0  0  0  0  0  0  0  0  0  0  0
   -0.4220    4.7924   -2.0992 C   0  0  0  0  0  0  0  0  0  0  0  0
   -0.4503    6.0076   -1.1787 C   0  0  0  0  0  0  0  0  0  0  0  0
    1.5065    3.3175   -0.3469 C   0  0  0  0  0  0  0  0  0  0  0  0
    2.3540    2.6240    0.5178 C   0  0  0  0  0  0  0  0  0  0  0  0
    1.8702    1.5500    1.2683 C   0  0  0  0  0  0  0  0  0  0  0  0
    0.5315    1.1641    1.1408 C   0  0  0  0  0  0  0  0  0  0  0  0
    2.9542    0.6656    2.3397 S   0  0  0  0  0  6  0  0  0  0  0  0
    2.1585   -0.0146    3.4203 O   0  0  0  0  0  0  0  0  0  0  0  0
    3.8991    1.6406    2.9861 O   0  0  0  0  0  0  0  0  0  0  0  0
    3.8588   -0.5124    1.4220 N   0  0  0  0  0  0  0  0  0  0  0  0
    2.9464   -1.5257    0.8672 C   0  0  0  0  0  0  0  0  0  0  0  0
    3.7228   -2.5417    0.0040 C   0  0  0  0  0  0  0  0  0  0  0  0
    5.1832   -2.3845    0.1630 N   0  0  0  0  0  0  0  0  0  0  0  0
    5.8903   -3.4818   -0.5141 C   0  0  0  0  0  0  0  0  0  0  0  0
    5.5406   -2.3484    1.5925 C   0  0  0  0  0  0  0  0  0  0  0  0
    4.8666   -1.1489    2.2907 C   0  0  0  0  0  0  0  0  0  0  0  0
   -4.4671   -4.2225   -2.0248 H   0  0  0  0  0  0  0  0  0  0  0  0
   -3.2383   -3.7642   -3.2634 H   0  0  0  0  0  0  0  0  0  0  0  0
   -4.2950   -2.4950   -2.5453 H   0  0  0  0  0  0  0  0  0  0  0  0
   -1.9949   -2.4177   -1.5559 H   0  0  0  0  0  0  0  0  0  0  0  0
   -2.1220   -4.1506   -1.1057 H   0  0  0  0  0  0  0  0  0  0  0  0
   -4.0867   -3.6120    0.4013 H   0  0  0  0  0  0  0  0  0  0  0  0
   -2.5525   -2.8275    0.8916 H   0  0  0  0  0  0  0  0  0  0  0  0
   -6.9005    1.1711   -1.2894 H   0  0  0  0  0  0  0  0  0  0  0  0
   -7.0912    1.2984    0.5106 H   0  0  0  0  0  0  0  0  0  0  0  0
   -7.6487   -0.1825   -0.3572 H   0  0  0  0  0  0  0  0  0  0  0  0
   -1.3421   -0.6626    0.2533 H   0  0  0  0  0  0  0  0  0  0  0  0
    0.5526    4.7101   -2.6245 H   0  0  0  0  0  0  0  0  0  0  0  0
   -1.2045    4.9252   -2.8757 H   0  0  0  0  0  0  0  0  0  0  0  0
    0.3334    5.9280   -0.3977 H   0  0  0  0  0  0  0  0  0  0  0  0
   -1.4431    6.0851   -0.6870 H   0  0  0  0  0  0  0  0  0  0  0  0
   -0.2699    6.9288   -1.7716 H   0  0  0  0  0  0  0  0  0  0  0  0
    1.9209    4.1388   -0.9130 H   0  0  0  0  0  0  0  0  0  0  0  0
    3.3914    2.9235    0.5985 H   0  0  0  0  0  0  0  0  0  0  0  0
    0.1622    0.3368    1.7334 H   0  0  0  0  0  0  0  0  0  0  0  0
    2.1770   -1.0365    0.2317 H   0  0  0  0  0  0  0  0  0  0  0  0
    2.4179   -2.0630    1.6876 H   0  0  0  0  0  0  0  0  0  0  0  0
    3.4586   -2.3802   -1.0646 H   0  0  0  0  0  0  0  0  0  0  0  0
    3.4012   -3.5725    0.2797 H   0  0  0  0  0  0  0  0  0  0  0  0
    6.9882   -3.3223   -0.4518 H   0  0  0  0  0  0  0  0  0  0  0  0
    5.6412   -4.4665   -0.0589 H   0  0  0  0  0  0  0  0  0  0  0  0
    5.6202   -3.5026   -1.5919 H   0  0  0  0  0  0  0  0  0  0  0  0
    6.6439   -2.2562    1.7064 H   0  0  0  0  0  0  0  0  0  0  0  0
    5.2271   -3.2933    2.0940 H   0  0  0  0  0  0  0  0  0  0  0  0
    5.6461   -0.3975    2.5438 H   0  0  0  0  0  0  0  0  0  0  0  0
    4.4073   -1.4963    3.2440 H   0  0  0  0  0  0  0  0  0  0  0  0
  1  2  1  0
  2  3  1  0
  3  4  1  0
  4  5  2  0
  5  6  1  0
  6  7  1  0
  6  8  1  0
  8  9  2  0
  9 10  1  0
 10 11  1  0
 11 12  2  0
 12 13  1  0
 13 14  2  0
 11 15  1  0
 15 16  2  0
 16 17  1  0
 17 18  1  0
 18 19  1  0
 16 20  1  0
 20 21  2  0
 21 22  1  0
 22 23  2  0
 22 24  1  0
 24 25  2  0
 24 26  2  0
 24 27  1  0
 27 28  1  0
 28 29  1  0
 29 30  1  0
 30 31  1  0
 30 32  1  0
 32 33  1  0
  9  4  1  0
 23 15  1  0
 33 27  1  0
 13  8  1  0
  1 34  1  0
  1 35  1  0
  1 36  1  0
  2 37  1  0
  2 38  1  0
  3 39  1  0
  3 40  1  0
  7 41  1  0
  7 42  1  0
  7 43  1  0
 10 44  1  0
 18 45  1  0
 18 46  1  0
 19 47  1  0
 19 48  1  0
 19 49  1  0
 20 50  1  0
 21 51  1  0
 23 52  1  0
 28 53  1  0
 28 54  1  0
 29 55  1  0
 29 56  1  0
 31 57  1  0
 31 58  1  0
 31 59  1  0
 32 60  1  0
 32 61  1  0
 33 62  1  0
 33 63  1  0
M  END
$$$$
