
     RDKit          3D

120128  0  0  0  0  0  0  0  0999 V2000
   11.2728    2.8134   -5.0271 C   0  0  0  0  0  0  0  0  0  0  0  0
   10.5714    1.8822   -4.2121 O   0  0  0  0  0  0  0  0  0  0  0  0
   10.2528    2.1409   -2.8761 C   0  0  0  0  0  0  0  0  0  0  0  0
   10.5892    3.2331   -2.3409 O   0  0  0  0  0  0  0  0  0  0  0  0
    9.5365    1.1523   -2.1252 N   0  0  0  0  0  0  0  0  0  0  0  0
    9.1053    1.3532   -0.7336 C   0  0  1  0  0  0  0  0  0  0  0  0
    7.5857    1.6717   -0.6556 C   0  0  0  0  0  0  0  0  0  0  0  0
    7.2691    3.0232   -1.3095 C   0  0  0  0  0  0  0  0  0  0  0  0
    6.7026    0.5692   -1.2647 C   0  0  0  0  0  0  0  0  0  0  0  0
    9.4472    0.1433    0.1102 C   0  0  0  0  0  0  0  0  0  0  0  0
    9.5475   -0.9886   -0.4385 O   0  0  0  0  0  0  0  0  0  0  0  0
    9.5649    0.2419    1.5430 N   0  0  0  0  0  0  0  0  0  0  0  0
    9.7954    1.4820    2.2684 C   0  0  0  0  0  0  0  0  0  0  0  0
    9.7104    1.1190    3.7458 C   0  0  0  0  0  0  0  0  0  0  0  0
    9.8334   -0.4009    3.8116 C   0  0  0  0  0  0  0  0  0  0  0  0
    9.4399   -0.9099    2.4252 C   0  0  1  0  0  0  0  0  0  0  0  0
    8.0232   -1.4161    2.4117 C   0  0  0  0  0  0  0  0  0  0  0  0
    6.9534   -0.6235    2.1916 N   0  0  0  0  0  0  0  0  0  0  0  0
    5.8987   -1.4608    2.2642 C   0  0  0  0  0  0  0  0  0  0  0  0
    6.3497   -2.7395    2.5409 C   0  0  0  0  0  0  0  0  0  0  0  0
    7.6877   -2.7000    2.6370 N   0  0  0  0  0  0  0  0  0  0  0  0
    4.4984   -1.0302    2.0419 C   0  0  0  0  0  0  0  0  0  0  0  0
    3.4231   -1.9419    2.1717 C   0  0  0  0  0  0  0  0  0  0  0  0
    2.1318   -1.4761    1.9377 C   0  0  0  0  0  0  0  0  0  0  0  0
    1.8823   -0.1737    1.5878 C   0  0  0  0  0  0  0  0  0  0  0  0
    2.9124    0.7553    1.4524 C   0  0  0  0  0  0  0  0  0  0  0  0
    4.2277    0.3182    1.6836 C   0  0  0  0  0  0  0  0  0  0  0  0
    0.5595    0.0194    1.4252 N   0  0  0  0  0  0  0  0  0  0  0  0
   -0.1639    1.2622    1.1267 C   0  0  1  0  0  0  0  0  0  0  0  0
   -1.5433    0.9966    0.8200 O   0  0  0  0  0  0  0  0  0  0  0  0
   -2.2062   -0.2010    1.1409 C   0  0  0  0  0  0  0  0  0  0  0  0
   -1.4837   -1.3171    1.5862 C   0  0  0  0  0  0  0  0  0  0  0  0
   -2.1538   -2.5068    1.8994 C   0  0  0  0  0  0  0  0  0  0  0  0
   -3.5432   -2.5818    1.7650 C   0  0  0  0  0  0  0  0  0  0  0  0
   -4.2800   -1.4705    1.3112 C   0  0  0  0  0  0  0  0  0  0  0  0
   -3.5947   -0.2815    0.9995 C   0  0  0  0  0  0  0  0  0  0  0  0
   -5.7539   -1.5335    1.1563 C   0  0  0  0  0  0  0  0  0  0  0  0
   -6.5685   -2.6346    1.3518 C   0  0  0  0  0  0  0  0  0  0  0  0
   -7.8314   -2.2740    1.0812 N   0  0  0  0  0  0  0  0  0  0  0  0
   -7.7664   -0.9727    0.7372 C   0  0  0  0  0  0  0  0  0  0  0  0
   -6.5085   -0.4862    0.7610 N   0  0  0  0  0  0  0  0  0  0  0  0
   -8.9428   -0.1703    0.2508 C   0  0  2  0  0  0  0  0  0  0  0  0
  -10.1415   -0.2607    1.1977 C   0  0  0  0  0  0  0  0  0  0  0  0
  -11.1430   -1.1986    0.5268 C   0  0  0  0  0  0  0  0  0  0  0  0
  -10.7395   -1.2762   -0.9409 C   0  0  0  0  0  0  0  0  0  0  0  0
   -9.4056   -0.7024   -1.0217 N   0  0  0  0  0  0  0  0  0  0  0  0
   -8.6513   -0.5592   -2.2415 C   0  0  0  0  0  0  0  0  0  0  0  0
   -7.6779    0.2433   -2.2736 O   0  0  0  0  0  0  0  0  0  0  0  0
   -8.9603   -1.3821   -3.4766 C   0  0  1  0  0  0  0  0  0  0  0  0
   -8.8251   -0.5497   -4.6795 N   0  0  0  0  0  0  0  0  0  0  0  0
   -9.7161    0.5364   -4.9612 C   0  0  0  0  0  0  0  0  0  0  0  0
  -10.6510    0.8177   -4.1611 O   0  0  0  0  0  0  0  0  0  0  0  0
   -9.5392    1.2792   -6.1317 O   0  0  0  0  0  0  0  0  0  0  0  0
  -10.3802    2.3723   -6.4800 C   0  0  0  0  0  0  0  0  0  0  0  0
   -8.0622   -2.6515   -3.5764 C   0  0  0  0  0  0  0  0  0  0  0  0
   -6.5568   -2.3492   -3.4641 C   0  0  0  0  0  0  0  0  0  0  0  0
   -8.4615   -3.7090   -2.5380 C   0  0  0  0  0  0  0  0  0  0  0  0
   -0.0286   -1.1680    1.6807 C   0  0  0  0  0  0  0  0  0  0  0  0
    0.9202   -2.1371    2.0031 C   0  0  0  0  0  0  0  0  0  0  0  0
   -0.0895    2.2030    2.3051 C   0  0  0  0  0  0  0  0  0  0  0  0
    0.4668    3.4858    2.1580 C   0  0  0  0  0  0  0  0  0  0  0  0
    0.5377    4.3538    3.2519 C   0  0  0  0  0  0  0  0  0  0  0  0
    0.0514    3.9518    4.4984 C   0  0  0  0  0  0  0  0  0  0  0  0
   -0.5081    2.6811    4.6534 C   0  0  0  0  0  0  0  0  0  0  0  0
   -0.5807    1.8094    3.5630 C   0  0  0  0  0  0  0  0  0  0  0  0
   10.6943    3.7579   -5.1094 H   0  0  0  0  0  0  0  0  0  0  0  0
   12.2729    3.0223   -4.5914 H   0  0  0  0  0  0  0  0  0  0  0  0
   11.4051    2.3833   -6.0410 H   0  0  0  0  0  0  0  0  0  0  0  0
    9.2434    0.2863   -2.6313 H   0  0  0  0  0  0  0  0  0  0  0  0
    9.6611    2.2137   -0.3049 H   0  0  0  0  0  0  0  0  0  0  0  0
    7.3053    1.7607    0.4169 H   0  0  0  0  0  0  0  0  0  0  0  0
    7.8850    3.8261   -0.8515 H   0  0  0  0  0  0  0  0  0  0  0  0
    7.4712    2.9918   -2.4013 H   0  0  0  0  0  0  0  0  0  0  0  0
    6.1994    3.2806   -1.1547 H   0  0  0  0  0  0  0  0  0  0  0  0
    6.8817    0.4699   -2.3557 H   0  0  0  0  0  0  0  0  0  0  0  0
    5.6304    0.8150   -1.1093 H   0  0  0  0  0  0  0  0  0  0  0  0
    6.8963   -0.4069   -0.7736 H   0  0  0  0  0  0  0  0  0  0  0  0
    9.0218    2.2385    2.0188 H   0  0  0  0  0  0  0  0  0  0  0  0
   10.8050    1.8752    2.0208 H   0  0  0  0  0  0  0  0  0  0  0  0
   10.5130    1.6160    4.3328 H   0  0  0  0  0  0  0  0  0  0  0  0
    8.7199    1.4257    4.1489 H   0  0  0  0  0  0  0  0  0  0  0  0
    9.2037   -0.8238    4.6259 H   0  0  0  0  0  0  0  0  0  0  0  0
   10.8940   -0.6699    4.0120 H   0  0  0  0  0  0  0  0  0  0  0  0
   10.1359   -1.7161    2.1039 H   0  0  0  0  0  0  0  0  0  0  0  0
    5.7601   -3.6385    2.6563 H   0  0  0  0  0  0  0  0  0  0  0  0
    8.3293   -3.4996    2.8353 H   0  0  0  0  0  0  0  0  0  0  0  0
    3.5771   -2.9760    2.4476 H   0  0  0  0  0  0  0  0  0  0  0  0
    2.7142    1.7818    1.1748 H   0  0  0  0  0  0  0  0  0  0  0  0
    5.0345    1.0325    1.5783 H   0  0  0  0  0  0  0  0  0  0  0  0
    0.2960    1.7310    0.2299 H   0  0  0  0  0  0  0  0  0  0  0  0
   -1.6108   -3.3757    2.2467 H   0  0  0  0  0  0  0  0  0  0  0  0
   -4.0325   -3.5117    2.0180 H   0  0  0  0  0  0  0  0  0  0  0  0
   -4.1340    0.5892    0.6474 H   0  0  0  0  0  0  0  0  0  0  0  0
   -6.2747   -3.6318    1.6486 H   0  0  0  0  0  0  0  0  0  0  0  0
   -8.6758   -2.8869    1.1066 H   0  0  0  0  0  0  0  0  0  0  0  0
   -8.6475    0.8963    0.1326 H   0  0  0  0  0  0  0  0  0  0  0  0
  -10.6026    0.7463    1.3023 H   0  0  0  0  0  0  0  0  0  0  0  0
   -9.8661   -0.6236    2.2128 H   0  0  0  0  0  0  0  0  0  0  0  0
  -12.1829   -0.8212    0.6380 H   0  0  0  0  0  0  0  0  0  0  0  0
  -11.0763   -2.2077    0.9890 H   0  0  0  0  0  0  0  0  0  0  0  0
  -11.4396   -0.6826   -1.5678 H   0  0  0  0  0  0  0  0  0  0  0  0
  -10.7330   -2.3342   -1.2761 H   0  0  0  0  0  0  0  0  0  0  0  0
  -10.0159   -1.7248   -3.4431 H   0  0  0  0  0  0  0  0  0  0  0  0
   -8.0979   -0.7726   -5.3958 H   0  0  0  0  0  0  0  0  0  0  0  0
  -10.3227    3.1601   -5.6991 H   0  0  0  0  0  0  0  0  0  0  0  0
  -11.4299    2.0256   -6.5870 H   0  0  0  0  0  0  0  0  0  0  0  0
  -10.0421    2.7989   -7.4465 H   0  0  0  0  0  0  0  0  0  0  0  0
   -8.2358   -3.1064   -4.5774 H   0  0  0  0  0  0  0  0  0  0  0  0
   -5.9705   -3.2608   -3.7079 H   0  0  0  0  0  0  0  0  0  0  0  0
   -6.2563   -1.5516   -4.1741 H   0  0  0  0  0  0  0  0  0  0  0  0
   -6.2895   -2.0329   -2.4329 H   0  0  0  0  0  0  0  0  0  0  0  0
   -9.5276   -3.9919   -2.6668 H   0  0  0  0  0  0  0  0  0  0  0  0
   -8.3082   -3.3280   -1.5072 H   0  0  0  0  0  0  0  0  0  0  0  0
   -7.8484   -4.6260   -2.6702 H   0  0  0  0  0  0  0  0  0  0  0  0
    0.7561   -3.1772    2.2507 H   0  0  0  0  0  0  0  0  0  0  0  0
    0.8490    3.8140    1.1995 H   0  0  0  0  0  0  0  0  0  0  0  0
    0.9699    5.3390    3.1328 H   0  0  0  0  0  0  0  0  0  0  0  0
    0.1072    4.6253    5.3439 H   0  0  0  0  0  0  0  0  0  0  0  0
   -0.8857    2.3710    5.6192 H   0  0  0  0  0  0  0  0  0  0  0  0
   -1.0167    0.8282    3.7005 H   0  0  0  0  0  0  0  0  0  0  0  0
  1  2  1  0
  2  3  1  0
  3  4  2  0
  3  5  1  0
  5  6  1  0
  6  7  1  0
  7  8  1  0
  7  9  1  0
  6 10  1  0
 10 11  2  0
 10 12  1  0
 12 13  1  0
 13 14  1  0
 14 15  1  0
 15 16  1  0
 16 17  1  0
 17 18  2  0
 18 19  1  0
 19 20  2  0
 20 21  1  0
 19 22  1  0
 22 23  2  0
 23 24  1  0
 24 25  2  0
 25 26  1  0
 26 27  2  0
 25 28  1  0
 28 29  1  0
 29 30  1  0
 30 31  1  0
 31 32  2  0
 32 33  1  0
 33 34  2  0
 34 35  1  0
 35 36  2  0
 35 37  1  0
 37 38  2  0
 38 39  1  0
 39 40  1  0
 40 41  2  0
 40 42  1  0
 42 43  1  0
 43 44  1  0
 44 45  1  0
 45 46  1  0
 46 47  1  0
 47 48  2  0
 47 49  1  0
 49 50  1  0
 50 51  1  0
 51 52  2  0
 51 53  1  0
 53 54  1  0
 49 55  1  0
 55 56  1  0
 55 57  1  0
 32 58  1  0
 58 59  2  0
 29 60  1  0
 60 61  2  0
 61 62  1  0
 62 63  2  0
 63 64  1  0
 64 65  2  0
 16 12  1  0
 21 17  1  0
 27 22  1  0
 58 28  1  0
 65 60  1  0
 59 24  1  0
 36 31  1  0
 41 37  1  0
 46 42  1  0
  1 66  1  0
  1 67  1  0
  1 68  1  0
  5 69  1  0
  6 70  1  1
  7 71  1  0
  8 72  1  0
  8 73  1  0
  8 74  1  0
  9 75  1  0
  9 76  1  0
  9 77  1  0
 13 78  1  0
 13 79  1  0
 14 80  1  0
 14 81  1  0
 15 82  1  0
 15 83  1  0
 16 84  1  6
 20 85  1  0
 21 86  1  0
 23 87  1  0
 26 88  1  0
 27 89  1  0
 29 90  1  6
 33 91  1  0
 34 92  1  0
 36 93  1  0
 38 94  1  0
 39 95  1  0
 42 96  1  6
 43 97  1  0
 43 98  1  0
 44 99  1  0
 44100  1  0
 45101  1  0
 45102  1  0
 49103  1  1
 50104  1  0
 54105  1  0
 54106  1  0
 54107  1  0
 55108  1  0
 56109  1  0
 56110  1  0
 56111  1  0
 57112  1  0
 57113  1  0
 57114  1  0
 59115  1  0
 61116  1  0
 62117  1  0
 63118  1  0
 64119  1  0
 65120  1  0
M  END
$$$$
