
     RDKit          3D

 97 99  0  0  0  0  0  0  0  0999 V2000
    2.7676   -2.0645    0.1235 C   0  0  1  0  0  0  0  0  0  0  0  0
    3.1546   -2.1803    1.4731 O   0  0  0  0  0  0  0  0  0  0  0  0
    3.3761   -3.2011   -0.6954 C   0  0  0  0  0  0  0  0  0  0  0  0
    3.2366   -4.5028   -0.2279 O   0  0  0  0  0  1  0  0  0  0  0  0
    4.0236   -3.0270   -1.8148 N   0  0  0  0  0  0  0  0  0  0  0  0
    4.3493   -1.7755   -2.5027 C   0  0  0  0  0  0  0  0  0  0  0  0
    5.7533   -1.2829   -2.1292 C   0  0  0  0  0  0  0  0  0  0  0  0
    5.8838   -0.9415   -0.6665 C   0  0  0  0  0  0  0  0  0  0  0  0
    6.3511   -1.9209    0.2009 O   0  0  0  0  0  1  0  0  0  0  0  0
    5.5607    0.2206   -0.1770 N   0  0  0  0  0  0  0  0  0  0  0  0
    5.0455    1.3601   -0.9340 C   0  0  0  0  0  0  0  0  0  0  0  0
    4.8281    2.5553   -0.0059 C   0  0  0  0  0  0  0  0  0  0  0  0
    6.3198    2.9711    0.9735 S   0  0  0  0  0  0  0  0  0  0  0  0
    7.2735    3.6100   -0.4104 C   0  0  0  0  0  0  0  0  0  0  0  0
    7.1020    4.7623   -0.7751 O   0  0  0  0  0  0  0  0  0  0  0  0
    8.2685    2.7266   -1.1188 C   0  0  0  0  0  0  0  0  0  0  0  0
    9.7512    2.9952   -0.7271 C   0  0  1  0  0  0  0  0  0  0  0  0
   10.1677    4.4413   -1.0822 C   0  0  0  0  0  0  0  0  0  0  0  0
    9.9423    2.7690    0.6517 O   0  0  0  0  0  0  0  0  0  0  0  0
   10.6784    2.0281   -1.5085 C   0  0  0  0  0  0  0  0  0  0  0  0
   10.4497    0.5853   -1.1596 C   0  0  0  0  0  0  0  0  0  0  0  0
   10.9896    0.0565    0.0060 O   0  0  0  0  0  1  0  0  0  0  0  0
    9.7492   -0.1455   -1.9088 O   0  0  0  0  0  0  0  0  0  0  0  0
    1.2076   -1.9267   -0.0247 C   0  0  0  0  0  0  0  0  0  0  0  0
    0.7213   -0.7811    0.8956 C   0  0  0  0  0  0  0  0  0  0  0  0
    0.8566   -1.5497   -1.4831 C   0  0  0  0  0  0  0  0  0  0  0  0
    0.4606   -3.2365    0.3535 C   0  0  0  0  0  0  0  0  0  0  0  0
   -0.9336   -3.0433    0.2636 O   0  0  0  0  0  0  0  0  0  0  0  0
   -1.7210   -4.4932    0.7026 P   0  0  0  0  0  5  0  0  0  0  0  0
   -1.2363   -5.7361   -0.3390 O   0  0  0  0  0  0  0  0  0  0  0  0
   -1.3615   -4.8778    2.1215 O   0  0  0  0  0  0  0  0  0  0  0  0
   -3.4097   -4.3175    0.5711 O   0  0  0  0  0  0  0  0  0  0  0  0
   -3.8531   -2.8968    1.3992 P   0  0  0  0  0  5  0  0  0  0  0  0
   -3.2358   -1.5447    0.5823 O   0  0  0  0  0  0  0  0  0  0  0  0
   -3.3343   -2.9320    2.8223 O   0  0  0  0  0  0  0  0  0  0  0  0
   -5.5562   -2.8154    1.4153 O   0  0  0  0  0  0  0  0  0  0  0  0
   -5.9461   -1.6612    2.1232 C   0  0  0  0  0  0  0  0  0  0  0  0
   -7.4640   -1.4848    2.0132 C   0  0  1  0  0  0  0  0  0  0  0  0
   -7.8646   -0.3465    2.7405 O   0  0  0  0  0  0  0  0  0  0  0  0
   -8.9863    0.2064    2.0828 C   0  0  1  0  0  0  0  0  0  0  0  0
   -8.7874    1.6459    1.8960 N   0  0  0  0  0  0  0  0  0  0  0  0
   -9.7244    2.6238    1.9990 C   0  0  0  0  0  0  0  0  0  0  0  0
   -9.2541    3.8603    1.6747 N   0  0  0  0  0  0  0  0  0  0  0  0
   -7.9707    3.6142    1.3505 C   0  0  0  0  0  0  0  0  0  0  0  0
   -6.9855    4.4915    0.9110 C   0  0  0  0  0  0  0  0  0  0  0  0
   -7.2350    5.8891    0.7611 N   0  0  0  0  0  0  0  0  0  0  0  0
   -5.7570    3.9687    0.6179 N   0  0  0  0  0  0  0  0  0  0  0  0
   -5.5019    2.6269    0.7483 C   0  0  0  0  0  0  0  0  0  0  0  0
   -6.4795    1.7743    1.1789 N   0  0  0  0  0  0  0  0  0  0  0  0
   -7.6942    2.2963    1.4746 C   0  0  0  0  0  0  0  0  0  0  0  0
   -9.1828   -0.4917    0.7289 C   0  0  2  0  0  0  0  0  0  0  0  0
  -10.3450   -1.2893    0.7265 O   0  0  0  0  0  0  0  0  0  0  0  0
   -7.9198   -1.3133    0.5680 C   0  0  2  0  0  0  0  0  0  0  0  0
   -8.1705   -2.5780   -0.0166 O   0  0  0  0  0  0  0  0  0  0  0  0
   -7.8856   -2.4987   -1.6974 P   0  0  0  0  0  5  0  0  0  0  0  0
   -8.7296   -1.2012   -2.3810 O   0  0  0  0  0  1  0  0  0  0  0  0
   -8.4136   -3.9369   -2.4123 O   0  0  0  0  0  1  0  0  0  0  0  0
   -6.4053   -2.3321   -1.9577 O   0  0  0  0  0  0  0  0  0  0  0  0
    3.1983   -1.1041   -0.2105 H   0  0  0  0  0  0  0  0  0  0  0  0
    2.8812   -3.0724    1.8067 H   0  0  0  0  0  0  0  0  0  0  0  0
    3.5803   -0.9969   -2.3485 H   0  0  0  0  0  0  0  0  0  0  0  0
    4.3518   -1.9837   -3.5933 H   0  0  0  0  0  0  0  0  0  0  0  0
    6.4880   -2.0802   -2.3743 H   0  0  0  0  0  0  0  0  0  0  0  0
    6.0191   -0.4102   -2.7608 H   0  0  0  0  0  0  0  0  0  0  0  0
    5.7526    1.6415   -1.7404 H   0  0  0  0  0  0  0  0  0  0  0  0
    4.0733    1.0940   -1.3988 H   0  0  0  0  0  0  0  0  0  0  0  0
    4.5109    3.4385   -0.6006 H   0  0  0  0  0  0  0  0  0  0  0  0
    4.0086    2.3139    0.7040 H   0  0  0  0  0  0  0  0  0  0  0  0
    8.1338    2.8445   -2.2164 H   0  0  0  0  0  0  0  0  0  0  0  0
    8.0202    1.6732   -0.8729 H   0  0  0  0  0  0  0  0  0  0  0  0
    9.6064    5.1830   -0.4772 H   0  0  0  0  0  0  0  0  0  0  0  0
    9.9844    4.6484   -2.1585 H   0  0  0  0  0  0  0  0  0  0  0  0
   11.2474    4.5966   -0.8705 H   0  0  0  0  0  0  0  0  0  0  0  0
    9.4387    3.4601    1.1554 H   0  0  0  0  0  0  0  0  0  0  0  0
   11.7413    2.2647   -1.2826 H   0  0  0  0  0  0  0  0  0  0  0  0
   10.5388    2.1681   -2.6036 H   0  0  0  0  0  0  0  0  0  0  0  0
    1.2801    0.1564    0.6844 H   0  0  0  0  0  0  0  0  0  0  0  0
   -0.3594   -0.5736    0.7419 H   0  0  0  0  0  0  0  0  0  0  0  0
    0.8695   -1.0428    1.9652 H   0  0  0  0  0  0  0  0  0  0  0  0
    1.3372   -0.5896   -1.7674 H   0  0  0  0  0  0  0  0  0  0  0  0
   -0.2400   -1.4216   -1.6096 H   0  0  0  0  0  0  0  0  0  0  0  0
    1.1910   -2.3390   -2.1892 H   0  0  0  0  0  0  0  0  0  0  0  0
    0.7699   -4.0440   -0.3454 H   0  0  0  0  0  0  0  0  0  0  0  0
    0.7351   -3.5273    1.3910 H   0  0  0  0  0  0  0  0  0  0  0  0
   -1.4804   -5.4145   -1.2434 H   0  0  0  0  0  0  0  0  0  0  0  0
   -3.0145   -0.8891    1.2909 H   0  0  0  0  0  0  0  0  0  0  0  0
   -5.4552   -0.7471    1.7194 H   0  0  0  0  0  0  0  0  0  0  0  0
   -5.6860   -1.7672    3.2003 H   0  0  0  0  0  0  0  0  0  0  0  0
   -7.9570   -2.3770    2.4638 H   0  0  0  0  0  0  0  0  0  0  0  0
   -9.8780    0.0510    2.7307 H   0  0  0  0  0  0  0  0  0  0  0  0
  -10.7491    2.4412    2.2958 H   0  0  0  0  0  0  0  0  0  0  0  0
   -8.1714    6.2951    0.9820 H   0  0  0  0  0  0  0  0  0  0  0  0
   -6.4768    6.5242    0.4267 H   0  0  0  0  0  0  0  0  0  0  0  0
   -4.5213    2.2402    0.5071 H   0  0  0  0  0  0  0  0  0  0  0  0
   -9.2647    0.2442   -0.1012 H   0  0  0  0  0  0  0  0  0  0  0  0
  -10.2728   -1.9444    1.4699 H   0  0  0  0  0  0  0  0  0  0  0  0
   -7.1550   -0.7064    0.0235 H   0  0  0  0  0  0  0  0  0  0  0  0
  1  2  1  0
  1  3  1  0
  3  4  1  0
  3  5  2  3
  5  6  1  0
  6  7  1  0
  7  8  1  0
  8  9  1  0
  8 10  2  3
 10 11  1  0
 11 12  1  0
 12 13  1  0
 13 14  1  0
 14 15  2  0
 14 16  1  0
 16 17  1  0
 17 18  1  0
 17 19  1  1
 17 20  1  0
 20 21  1  0
 21 22  1  0
 21 23  2  0
  1 24  1  0
 24 25  1  0
 24 26  1  0
 24 27  1  0
 27 28  1  0
 28 29  1  0
 29 30  1  0
 29 31  2  0
 29 32  1  0
 32 33  1  0
 33 34  1  0
 33 35  2  0
 33 36  1  0
 36 37  1  0
 37 38  1  0
 38 39  1  0
 39 40  1  0
 40 41  1  0
 41 42  1  0
 42 43  2  0
 43 44  1  0
 44 45  2  0
 45 46  1  0
 45 47  1  0
 47 48  2  0
 48 49  1  0
 49 50  2  0
 40 51  1  0
 51 52  1  0
 51 53  1  0
 53 54  1  0
 54 55  1  0
 55 56  1  0
 55 57  1  0
 55 58  2  0
 53 38  1  0
 50 41  1  0
 50 44  1  0
  1 59  1  6
  2 60  1  0
  6 61  1  0
  6 62  1  0
  7 63  1  0
  7 64  1  0
 11 65  1  0
 11 66  1  0
 12 67  1  0
 12 68  1  0
 16 69  1  0
 16 70  1  0
 18 71  1  0
 18 72  1  0
 18 73  1  0
 19 74  1  0
 20 75  1  0
 20 76  1  0
 25 77  1  0
 25 78  1  0
 25 79  1  0
 26 80  1  0
 26 81  1  0
 26 82  1  0
 27 83  1  0
 27 84  1  0
 30 85  1  0
 34 86  1  0
 37 87  1  0
 37 88  1  0
 38 89  1  1
 40 90  1  1
 42 91  1  0
 46 92  1  0
 46 93  1  0
 48 94  1  0
 51 95  1  6
 52 96  1  0
 53 97  1  6
M  CHG  5   4  -1   9  -1  22  -1  56  -1  57  -1
M  END
$$$$
