
     RDKit          3D

 46 50  0  0  0  0  0  0  0  0999 V2000
   -4.1287    4.2265    0.1638 O   0  0  0  0  0  0  0  0  0  0  0  0
   -2.7876    3.9211   -0.0455 C   0  0  0  0  0  0  0  0  0  0  0  0
   -1.9105    4.8176    0.0758 O   0  0  0  0  0  0  0  0  0  0  0  0
   -2.3852    2.5175   -0.3672 C   0  0  0  0  0  0  0  0  0  0  0  0
   -2.1391    1.7226    0.9152 C   0  0  0  0  0  0  0  0  0  0  0  0
   -1.7449    0.3475    0.5890 N   0  0  0  0  0  0  0  0  0  0  0  0
   -2.5614   -0.7153    0.3938 C   0  0  0  0  0  0  0  0  0  0  0  0
   -1.8436   -1.8461    0.0368 C   0  0  0  0  0  0  0  0  0  0  0  0
   -2.4919   -3.0601   -0.2136 C   0  0  0  0  0  0  0  0  0  0  0  0
   -3.8955   -3.1079   -0.1030 C   0  0  0  0  0  0  0  0  0  0  0  0
   -4.5821   -4.2963   -0.3422 O   0  0  0  0  0  0  0  0  0  0  0  0
   -4.6199   -1.9521    0.2486 C   0  0  0  0  0  0  0  0  0  0  0  0
   -3.9563   -0.7418    0.4982 C   0  0  0  0  0  0  0  0  0  0  0  0
   -0.5079   -1.4588   -0.0089 C   0  0  0  0  0  0  0  0  0  0  0  0
   -0.4958   -0.1071    0.3248 C   0  0  0  0  0  0  0  0  0  0  0  0
    0.6949    0.6423    0.3423 C   0  0  0  0  0  0  0  0  0  0  0  0
    1.9162    0.0043    0.0314 C   0  0  0  0  0  0  0  0  0  0  0  0
    1.8854   -1.3681   -0.3078 C   0  0  0  0  0  0  0  0  0  0  0  0
    0.6993   -2.1008   -0.3296 C   0  0  0  0  0  0  0  0  0  0  0  0
    1.0480   -3.4607   -0.7640 C   0  0  0  0  0  0  0  0  0  0  0  0
    0.2611   -4.4290   -0.9046 O   0  0  0  0  0  0  0  0  0  0  0  0
    2.4444   -3.5591   -1.0210 N   0  0  0  0  0  0  0  0  0  0  0  0
    2.9579   -2.2613   -0.7532 C   0  0  0  0  0  0  0  0  0  0  0  0
    4.1621   -1.9421   -0.9334 O   0  0  0  0  0  0  0  0  0  0  0  0
    3.1757    0.7753    0.0768 C   0  0  0  0  0  0  0  0  0  0  0  0
    3.3121    1.9507   -0.6807 C   0  0  0  0  0  0  0  0  0  0  0  0
    4.4947    2.6945   -0.6198 C   0  0  0  0  0  0  0  0  0  0  0  0
    5.5435    2.2766    0.2041 C   0  0  0  0  0  0  0  0  0  0  0  0
    5.4097    1.1166    0.9720 C   0  0  0  0  0  0  0  0  0  0  0  0
    4.2287    0.3701    0.9141 C   0  0  0  0  0  0  0  0  0  0  0  0
   -4.4163    5.1690    0.3987 H   0  0  0  0  0  0  0  0  0  0  0  0
   -3.1921    2.0323   -0.9576 H   0  0  0  0  0  0  0  0  0  0  0  0
   -1.4614    2.5274   -0.9858 H   0  0  0  0  0  0  0  0  0  0  0  0
   -3.0555    1.7186    1.5429 H   0  0  0  0  0  0  0  0  0  0  0  0
   -1.3473    2.2117    1.5218 H   0  0  0  0  0  0  0  0  0  0  0  0
   -1.9595   -3.9506   -0.4843 H   0  0  0  0  0  0  0  0  0  0  0  0
   -4.0951   -5.1473   -0.5980 H   0  0  0  0  0  0  0  0  0  0  0  0
   -5.6988   -1.9950    0.3260 H   0  0  0  0  0  0  0  0  0  0  0  0
   -4.5245    0.1406    0.7580 H   0  0  0  0  0  0  0  0  0  0  0  0
    0.6835    1.6938    0.5964 H   0  0  0  0  0  0  0  0  0  0  0  0
    2.9701   -4.3916   -1.3682 H   0  0  0  0  0  0  0  0  0  0  0  0
    2.5069    2.2855   -1.3233 H   0  0  0  0  0  0  0  0  0  0  0  0
    4.5975    3.5956   -1.2104 H   0  0  0  0  0  0  0  0  0  0  0  0
    6.4578    2.8539    0.2508 H   0  0  0  0  0  0  0  0  0  0  0  0
    6.2195    0.7981    1.6156 H   0  0  0  0  0  0  0  0  0  0  0  0
    4.1322   -0.5188    1.5255 H   0  0  0  0  0  0  0  0  0  0  0  0
  1  2  1  0
  2  3  2  0
  2  4  1  0
  4  5  1  0
  5  6  1  0
  6  7  1  0
  7  8  2  0
  8  9  1  0
  9 10  2  0
 10 11  1  0
 10 12  1  0
 12 13  2  0
  8 14  1  0
 14 15  2  0
 15 16  1  0
 16 17  2  0
 17 18  1  0
 18 19  2  0
 19 20  1  0
 20 21  2  0
 20 22  1  0
 22 23  1  0
 23 24  2  0
 17 25  1  0
 25 26  2  0
 26 27  1  0
 27 28  2  0
 28 29  1  0
 29 30  2  0
 15  6  1  0
 23 18  1  0
 30 25  1  0
 13  7  1  0
 19 14  1  0
  1 31  1  0
  4 32  1  0
  4 33  1  0
  5 34  1  0
  5 35  1  0
  9 36  1  0
 11 37  1  0
 12 38  1  0
 13 39  1  0
 16 40  1  0
 22 41  1  0
 26 42  1  0
 27 43  1  0
 28 44  1  0
 29 45  1  0
 30 46  1  0
M  END
$$$$
