
     RDKit          3D

 40 40  0  0  0  0  0  0  0  0999 V2000
    3.0713   -0.2378   -1.2453 C   0  0  2  0  0  0  0  0  0  0  0  0
    4.4836   -0.6321   -0.7346 C   0  0  0  0  0  0  0  0  0  0  0  0
    4.9116    0.0437    0.5720 C   0  0  0  0  0  0  0  0  0  0  0  0
    3.0739    1.1836   -1.7572 C   0  0  0  0  0  0  0  0  0  0  0  0
    3.1458    2.1318   -0.9911 O   0  0  0  0  0  0  0  0  0  0  0  0
    1.9227   -0.4930   -0.2179 C   0  0  1  0  0  0  0  0  0  0  0  0
    0.5186   -0.2796   -0.8341 C   0  0  0  0  0  0  0  0  0  0  0  0
    0.2371    1.1471   -1.0469 N   0  0  0  0  0  0  0  0  0  0  0  0
   -0.6200    1.8341    0.3039 S   0  0  0  0  0  6  0  0  0  0  0  0
   -0.7638    3.3150    0.0933 O   0  0  0  0  0  0  0  0  0  0  0  0
    0.1493    1.6091    1.5759 O   0  0  0  0  0  0  0  0  0  0  0  0
   -2.2252    1.1174    0.4328 C   0  0  0  0  0  0  0  0  0  0  0  0
   -2.5164    0.1946    1.4474 C   0  0  0  0  0  0  0  0  0  0  0  0
   -3.7886   -0.3789    1.5325 C   0  0  0  0  0  0  0  0  0  0  0  0
   -4.7785   -0.0472    0.5948 C   0  0  0  0  0  0  0  0  0  0  0  0
   -6.1547   -0.6328    0.7091 C   0  0  0  0  0  0  0  0  0  0  0  0
   -4.4889    0.8871   -0.4114 C   0  0  0  0  0  0  0  0  0  0  0  0
   -3.2163    1.4597   -0.4959 C   0  0  0  0  0  0  0  0  0  0  0  0
    1.9900   -1.8984    0.3233 C   0  0  0  0  0  0  0  0  0  0  0  0
    1.9372   -2.9848   -0.5459 O   0  0  0  0  0  0  0  0  0  0  0  0
    2.0753   -2.0934    1.5655 O   0  0  0  0  0  0  0  0  0  0  0  0
    2.8777   -0.8866   -2.1289 H   0  0  0  0  0  0  0  0  0  0  0  0
    5.2339   -0.3887   -1.5190 H   0  0  0  0  0  0  0  0  0  0  0  0
    4.5308   -1.7330   -0.5912 H   0  0  0  0  0  0  0  0  0  0  0  0
    4.9494    1.1456    0.4598 H   0  0  0  0  0  0  0  0  0  0  0  0
    4.2280   -0.2238    1.4030 H   0  0  0  0  0  0  0  0  0  0  0  0
    5.9299   -0.3051    0.8445 H   0  0  0  0  0  0  0  0  0  0  0  0
    2.9893    1.3691   -2.8231 H   0  0  0  0  0  0  0  0  0  0  0  0
    2.0437    0.2110    0.6325 H   0  0  0  0  0  0  0  0  0  0  0  0
   -0.2625   -0.7467   -0.1931 H   0  0  0  0  0  0  0  0  0  0  0  0
    0.4703   -0.8146   -1.8095 H   0  0  0  0  0  0  0  0  0  0  0  0
   -0.3965    1.2347   -1.8745 H   0  0  0  0  0  0  0  0  0  0  0  0
   -1.7614   -0.0839    2.1710 H   0  0  0  0  0  0  0  0  0  0  0  0
   -4.0005   -1.0832    2.3275 H   0  0  0  0  0  0  0  0  0  0  0  0
   -6.1115   -1.6515    1.1500 H   0  0  0  0  0  0  0  0  0  0  0  0
   -6.7792    0.0164    1.3576 H   0  0  0  0  0  0  0  0  0  0  0  0
   -6.6312   -0.7119   -0.2912 H   0  0  0  0  0  0  0  0  0  0  0  0
   -5.2467    1.1703   -1.1315 H   0  0  0  0  0  0  0  0  0  0  0  0
   -3.0035    2.1704   -1.2846 H   0  0  0  0  0  0  0  0  0  0  0  0
    1.9760   -3.9338   -0.1940 H   0  0  0  0  0  0  0  0  0  0  0  0
  1  2  1  0
  2  3  1  0
  1  4  1  0
  4  5  2  0
  1  6  1  0
  6  7  1  0
  7  8  1  0
  8  9  1  0
  9 10  2  0
  9 11  2  0
  9 12  1  0
 12 13  2  0
 13 14  1  0
 14 15  2  0
 15 16  1  0
 15 17  1  0
 17 18  2  0
  6 19  1  0
 19 20  1  0
 19 21  2  0
 18 12  1  0
  1 22  1  6
  2 23  1  0
  2 24  1  0
  3 25  1  0
  3 26  1  0
  3 27  1  0
  4 28  1  0
  6 29  1  1
  7 30  1  0
  7 31  1  0
  8 32  1  0
 13 33  1  0
 14 34  1  0
 16 35  1  0
 16 36  1  0
 16 37  1  0
 17 38  1  0
 18 39  1  0
 20 40  1  0
M  END
$$$$
