
     RDKit          3D

 29 29  0  0  0  0  0  0  0  0999 V2000
    3.1296   -2.7713    0.6953 Cl  0  0  0  0  0  0  0  0  0  0  0  0
    3.3876   -1.2447    1.5800 C   0  0  0  0  0  0  0  0  0  0  0  0
    2.1338   -0.3709    1.5578 C   0  0  0  0  0  0  0  0  0  0  0  0
    1.7927    0.0045    0.1820 N   0  0  0  0  0  0  0  0  0  0  0  0
    0.3120    0.9615    0.1676 P   0  0  0  0  0  5  0  0  0  0  0  0
    0.2674    1.8688    1.3792 O   0  0  0  0  0  0  0  0  0  0  0  0
    0.2723    1.9067   -1.2493 O   0  0  0  0  0  0  0  0  0  0  0  0
   -0.9644    2.5849   -1.2896 C   0  0  0  0  0  0  0  0  0  0  0  0
   -2.1565    1.6200   -1.3932 C   0  0  0  0  0  0  0  0  0  0  0  0
   -2.3010    0.7669   -0.1164 C   0  0  0  0  0  0  0  0  0  0  0  0
   -1.1194   -0.0776    0.1496 N   0  0  0  0  0  0  0  0  0  0  0  0
   -0.9809   -1.1646   -0.8478 C   0  0  0  0  0  0  0  0  0  0  0  0
   -0.6556   -2.4822   -0.1506 C   0  0  0  0  0  0  0  0  0  0  0  0
   -1.9894   -2.9763    0.9250 Cl  0  0  0  0  0  0  0  0  0  0  0  0
    4.2407   -0.6996    1.1232 H   0  0  0  0  0  0  0  0  0  0  0  0
    3.6490   -1.4863    2.6319 H   0  0  0  0  0  0  0  0  0  0  0  0
    2.3364    0.5382    2.1673 H   0  0  0  0  0  0  0  0  0  0  0  0
    1.2944   -0.9290    2.0272 H   0  0  0  0  0  0  0  0  0  0  0  0
    2.5508    0.6292   -0.1777 H   0  0  0  0  0  0  0  0  0  0  0  0
   -1.0796    3.2675   -0.4171 H   0  0  0  0  0  0  0  0  0  0  0  0
   -0.9679    3.2308   -2.1927 H   0  0  0  0  0  0  0  0  0  0  0  0
   -2.0353    0.9704   -2.2860 H   0  0  0  0  0  0  0  0  0  0  0  0
   -3.0861    2.2132   -1.5313 H   0  0  0  0  0  0  0  0  0  0  0  0
   -2.4741    1.4369    0.7545 H   0  0  0  0  0  0  0  0  0  0  0  0
   -3.2119    0.1336   -0.1961 H   0  0  0  0  0  0  0  0  0  0  0  0
   -1.9207   -1.3238   -1.4236 H   0  0  0  0  0  0  0  0  0  0  0  0
   -0.1927   -0.9450   -1.6024 H   0  0  0  0  0  0  0  0  0  0  0  0
   -0.5017   -3.2758   -0.9119 H   0  0  0  0  0  0  0  0  0  0  0  0
    0.2709   -2.3861    0.4451 H   0  0  0  0  0  0  0  0  0  0  0  0
  1  2  1  0
  2  3  1  0
  3  4  1  0
  4  5  1  0
  5  6  2  0
  5  7  1  0
  7  8  1  0
  8  9  1  0
  9 10  1  0
 10 11  1  0
 11 12  1  0
 12 13  1  0
 13 14  1  0
 11  5  1  0
  2 15  1  0
  2 16  1  0
  3 17  1  0
  3 18  1  0
  4 19  1  0
  8 20  1  0
  8 21  1  0
  9 22  1  0
  9 23  1  0
 10 24  1  0
 10 25  1  0
 12 26  1  0
 12 27  1  0
 13 28  1  0
 13 29  1  0
M  END
$$$$
