
     RDKit          3D

 36 38  0  0  0  0  0  0  0  0999 V2000
    3.1100   -0.8989    2.8008 N   0  0  0  0  0  0  0  0  0  0  0  0
    2.2348   -1.1232    1.6926 C   0  0  0  0  0  0  0  0  0  0  0  0
    0.9338   -1.5995    1.9062 C   0  0  0  0  0  0  0  0  0  0  0  0
    0.0748   -1.8101    0.8236 C   0  0  0  0  0  0  0  0  0  0  0  0
    0.5069   -1.5394   -0.4830 C   0  0  0  0  0  0  0  0  0  0  0  0
    1.8137   -1.0815   -0.6974 C   0  0  0  0  0  0  0  0  0  0  0  0
    2.6718   -0.8686    0.3851 C   0  0  0  0  0  0  0  0  0  0  0  0
   -0.5792   -1.7671   -1.8538 S   0  0  0  0  0  6  0  0  0  0  0  0
   -0.0195   -2.8620   -2.7171 O   0  0  0  0  0  0  0  0  0  0  0  0
   -1.9420   -2.1787   -1.3716 O   0  0  0  0  0  0  0  0  0  0  0  0
   -0.7301   -0.3188   -2.8005 N   0  0  0  0  0  0  0  0  0  0  0  0
   -0.1395    0.9255   -2.4066 C   0  0  0  0  0  0  0  0  0  0  0  0
    0.7671    1.6302   -3.1660 C   0  0  0  0  0  0  0  0  0  0  0  0
    1.1490    2.6768   -2.3497 C   0  0  0  0  0  0  0  0  0  0  0  0
    0.4915    2.6026   -1.1747 N   0  0  0  0  0  0  0  0  0  0  0  0
   -0.2979    1.5396   -1.2125 N   0  0  0  0  0  0  0  0  0  0  0  0
   -1.2009    1.2026   -0.1464 C   0  0  0  0  0  0  0  0  0  0  0  0
   -0.8077    1.3951    1.1885 C   0  0  0  0  0  0  0  0  0  0  0  0
   -1.6753    1.0679    2.2347 C   0  0  0  0  0  0  0  0  0  0  0  0
   -2.9485    0.5644    1.9564 C   0  0  0  0  0  0  0  0  0  0  0  0
   -3.3592    0.3971    0.6314 C   0  0  0  0  0  0  0  0  0  0  0  0
   -2.4937    0.7224   -0.4174 C   0  0  0  0  0  0  0  0  0  0  0  0
    4.0809   -0.5438    2.6518 H   0  0  0  0  0  0  0  0  0  0  0  0
    2.7928   -1.0843    3.7785 H   0  0  0  0  0  0  0  0  0  0  0  0
    0.5832   -1.8000    2.9107 H   0  0  0  0  0  0  0  0  0  0  0  0
   -0.9298   -2.1667    1.0097 H   0  0  0  0  0  0  0  0  0  0  0  0
    2.1632   -0.8783   -1.7018 H   0  0  0  0  0  0  0  0  0  0  0  0
    3.6752   -0.5038    0.2056 H   0  0  0  0  0  0  0  0  0  0  0  0
   -0.9431   -0.4506   -3.8141 H   0  0  0  0  0  0  0  0  0  0  0  0
    1.1317    1.3944   -4.1568 H   0  0  0  0  0  0  0  0  0  0  0  0
    1.8690    3.4452   -2.5962 H   0  0  0  0  0  0  0  0  0  0  0  0
    0.1806    1.7733    1.4176 H   0  0  0  0  0  0  0  0  0  0  0  0
   -1.3589    1.2012    3.2610 H   0  0  0  0  0  0  0  0  0  0  0  0
   -3.6190    0.3104    2.7671 H   0  0  0  0  0  0  0  0  0  0  0  0
   -4.3503    0.0191    0.4166 H   0  0  0  0  0  0  0  0  0  0  0  0
   -2.8355    0.6075   -1.4375 H   0  0  0  0  0  0  0  0  0  0  0  0
  1  2  1  0
  2  3  2  0
  3  4  1  0
  4  5  2  0
  5  6  1  0
  6  7  2  0
  5  8  1  0
  8  9  2  0
  8 10  2  0
  8 11  1  0
 11 12  1  0
 12 13  2  0
 13 14  1  0
 14 15  2  0
 15 16  1  0
 16 17  1  0
 17 18  2  0
 18 19  1  0
 19 20  2  0
 20 21  1  0
 21 22  2  0
  7  2  1  0
 16 12  1  0
 22 17  1  0
  1 23  1  0
  1 24  1  0
  3 25  1  0
  4 26  1  0
  6 27  1  0
  7 28  1  0
 11 29  1  0
 13 30  1  0
 14 31  1  0
 18 32  1  0
 19 33  1  0
 20 34  1  0
 21 35  1  0
 22 36  1  0
M  END
$$$$
