
     RDKit          3D

 44 46  0  0  0  0  0  0  0  0999 V2000
    3.5299   -2.4120    1.6179 C   0  0  0  0  0  0  0  0  0  0  0  0
    2.8512   -1.5990    0.6664 O   0  0  0  0  0  0  0  0  0  0  0  0
    3.1958   -0.2721    0.3611 C   0  0  0  0  0  0  0  0  0  0  0  0
    4.3049    0.3616    0.9810 C   0  0  0  0  0  0  0  0  0  0  0  0
    4.6141    1.6567    0.5874 C   0  0  0  0  0  0  0  0  0  0  0  0
    5.6058    2.4523    1.0145 N   0  0  0  0  0  0  0  0  0  0  0  0
    5.4630    3.5771    0.3173 N   0  0  0  0  0  0  0  0  0  0  0  0
    4.4360    3.5357   -0.5282 N   0  0  0  0  0  0  0  0  0  0  0  0
    3.9003    2.3182   -0.3562 C   0  0  0  0  0  0  0  0  0  0  0  0
    2.8030    1.7514   -0.9893 C   0  0  0  0  0  0  0  0  0  0  0  0
    2.4288    0.4389   -0.6146 C   0  0  0  0  0  0  0  0  0  0  0  0
    1.2521   -0.1765   -1.2652 C   0  0  0  0  0  0  0  0  0  0  0  0
    1.0729   -0.0029   -2.5015 O   0  0  0  0  0  0  0  0  0  0  0  0
    0.3008   -0.9349   -0.5008 N   0  0  0  0  0  0  0  0  0  0  0  0
   -0.8347   -1.6249   -1.1137 C   0  0  0  0  0  0  0  0  0  0  0  0
   -1.9385   -0.6253   -1.5288 C   0  0  0  0  0  0  0  0  0  0  0  0
   -3.1443   -1.3032   -2.1651 C   0  0  0  0  0  0  0  0  0  0  0  0
   -4.2729   -0.3049   -1.9733 C   0  0  0  0  0  0  0  0  0  0  0  0
   -3.7117    0.7720   -1.0442 C   0  0  0  0  0  0  0  0  0  0  0  0
   -2.4543    0.2628   -0.4633 N   0  0  0  0  0  0  0  0  0  0  0  0
   -2.7278   -0.4275    0.8217 C   0  0  0  0  0  0  0  0  0  0  0  0
   -3.0706    0.5745    1.8928 C   0  0  0  0  0  0  0  0  0  0  0  0
   -4.1672    0.4557    2.6465 C   0  0  0  0  0  0  0  0  0  0  0  0
    3.4753   -1.9472    2.6250 H   0  0  0  0  0  0  0  0  0  0  0  0
    4.5896   -2.5495    1.3160 H   0  0  0  0  0  0  0  0  0  0  0  0
    3.0404   -3.4064    1.6589 H   0  0  0  0  0  0  0  0  0  0  0  0
    4.9109   -0.1336    1.7272 H   0  0  0  0  0  0  0  0  0  0  0  0
    6.0907    4.4043    0.4222 H   0  0  0  0  0  0  0  0  0  0  0  0
    2.2477    2.3113   -1.7319 H   0  0  0  0  0  0  0  0  0  0  0  0
    0.4290   -1.0214    0.5317 H   0  0  0  0  0  0  0  0  0  0  0  0
   -0.4836   -2.1815   -2.0100 H   0  0  0  0  0  0  0  0  0  0  0  0
   -1.2352   -2.3883   -0.4130 H   0  0  0  0  0  0  0  0  0  0  0  0
   -1.4919    0.0300   -2.3112 H   0  0  0  0  0  0  0  0  0  0  0  0
   -2.9664   -1.5155   -3.2421 H   0  0  0  0  0  0  0  0  0  0  0  0
   -3.3874   -2.2521   -1.6374 H   0  0  0  0  0  0  0  0  0  0  0  0
   -4.5779    0.1402   -2.9457 H   0  0  0  0  0  0  0  0  0  0  0  0
   -5.1520   -0.8013   -1.5069 H   0  0  0  0  0  0  0  0  0  0  0  0
   -3.4817    1.6853   -1.6362 H   0  0  0  0  0  0  0  0  0  0  0  0
   -4.4654    1.0640   -0.2798 H   0  0  0  0  0  0  0  0  0  0  0  0
   -3.5281   -1.1939    0.7043 H   0  0  0  0  0  0  0  0  0  0  0  0
   -1.8228   -0.9415    1.1950 H   0  0  0  0  0  0  0  0  0  0  0  0
   -2.3884    1.3994    2.0764 H   0  0  0  0  0  0  0  0  0  0  0  0
   -4.8638   -0.3641    2.5004 H   0  0  0  0  0  0  0  0  0  0  0  0
   -4.3751    1.1883    3.4196 H   0  0  0  0  0  0  0  0  0  0  0  0
  1  2  1  0
  2  3  1  0
  3  4  2  0
  4  5  1  0
  5  6  2  0
  6  7  1  0
  7  8  1  0
  8  9  2  0
  9 10  1  0
 10 11  2  0
 11 12  1  0
 12 13  2  0
 12 14  1  0
 14 15  1  0
 15 16  1  0
 16 17  1  0
 17 18  1  0
 18 19  1  0
 19 20  1  0
 20 21  1  0
 21 22  1  0
 22 23  2  3
 11  3  1  0
 20 16  1  0
  9  5  1  0
  1 24  1  0
  1 25  1  0
  1 26  1  0
  4 27  1  0
  7 28  1  0
 10 29  1  0
 14 30  1  0
 15 31  1  0
 15 32  1  0
 16 33  1  0
 17 34  1  0
 17 35  1  0
 18 36  1  0
 18 37  1  0
 19 38  1  0
 19 39  1  0
 21 40  1  0
 21 41  1  0
 22 42  1  0
 23 43  1  0
 23 44  1  0
M  END
$$$$
