
     RDKit          3D

 21 22  0  0  0  0  0  0  0  0999 V2000
    4.2277    0.4520    0.4463 O   0  0  0  0  0  0  0  0  0  0  0  0
    3.0701    1.2154    0.3194 C   0  0  0  0  0  0  0  0  0  0  0  0
    3.1516    2.4732    0.3215 O   0  0  0  0  0  0  0  0  0  0  0  0
    1.7555    0.5647    0.1834 C   0  0  0  0  0  0  0  0  0  0  0  0
    1.6365   -0.8289    0.1781 C   0  0  0  0  0  0  0  0  0  0  0  0
    0.3761   -1.4270    0.0475 C   0  0  0  0  0  0  0  0  0  0  0  0
    0.2932   -2.8186    0.0460 O   0  0  0  0  0  0  0  0  0  0  0  0
   -0.7787   -0.6155   -0.0794 C   0  0  0  0  0  0  0  0  0  0  0  0
   -2.0966   -1.1324   -0.2166 C   0  0  0  0  0  0  0  0  0  0  0  0
   -2.4787   -2.8533   -0.2480 Cl  0  0  0  0  0  0  0  0  0  0  0  0
   -3.1805   -0.2530   -0.3363 C   0  0  0  0  0  0  0  0  0  0  0  0
   -2.9853    1.1282   -0.3228 C   0  0  0  0  0  0  0  0  0  0  0  0
   -4.3584    2.2096   -0.4743 Cl  0  0  0  0  0  0  0  0  0  0  0  0
   -1.6998    1.6495   -0.1891 C   0  0  0  0  0  0  0  0  0  0  0  0
   -0.6011    0.7939   -0.0680 C   0  0  0  0  0  0  0  0  0  0  0  0
    0.6407    1.3300    0.0610 N   0  0  0  0  0  0  0  0  0  0  0  0
    5.1344    0.8939    0.5402 H   0  0  0  0  0  0  0  0  0  0  0  0
    2.5160   -1.4536    0.2747 H   0  0  0  0  0  0  0  0  0  0  0  0
    1.1152   -3.4045    0.1364 H   0  0  0  0  0  0  0  0  0  0  0  0
   -4.1842   -0.6465   -0.4407 H   0  0  0  0  0  0  0  0  0  0  0  0
   -1.5537    2.7230   -0.1793 H   0  0  0  0  0  0  0  0  0  0  0  0
  1  2  1  0
  2  3  2  0
  2  4  1  0
  4  5  2  0
  5  6  1  0
  6  7  1  0
  6  8  2  0
  8  9  1  0
  9 10  1  0
  9 11  2  0
 11 12  1  0
 12 13  1  0
 12 14  2  0
 14 15  1  0
 15 16  2  0
 16  4  1  0
 15  8  1  0
  1 17  1  0
  5 18  1  0
  7 19  1  0
 11 20  1  0
 14 21  1  0
M  END
$$$$
