
     RDKit          3D

 49 49  0  0  0  0  0  0  0  0999 V2000
    4.4346   -0.2996   -1.0718 C   0  0  1  0  0  0  0  0  0  0  0  0
    4.6936    1.1365   -0.5720 C   0  0  0  0  0  0  0  0  0  0  0  0
    6.1995    1.2407   -0.2602 C   0  0  0  0  0  0  0  0  0  0  0  0
    6.8054    0.0479   -0.8165 N   0  0  0  0  0  0  0  0  0  0  0  0
    5.8001   -0.8311   -1.2675 C   0  0  0  0  0  0  0  0  0  0  0  0
    6.0545   -1.9573   -1.7702 O   0  0  0  0  0  0  0  0  0  0  0  0
    3.7320   -1.0906   -0.0593 N   0  0  0  0  0  0  0  0  0  0  0  0
    2.7880   -2.1155   -0.4004 C   0  0  0  0  0  0  0  0  0  0  0  0
    2.5238   -2.3640   -1.6081 O   0  0  0  0  0  0  0  0  0  0  0  0
    2.0806   -2.8747    0.6806 C   0  0  0  0  0  0  0  0  0  0  0  0
    1.0304   -2.0101    1.3223 C   0  0  0  0  0  0  0  0  0  0  0  0
    1.3703   -1.0993    2.0629 O   0  0  0  0  0  0  0  0  0  0  0  0
   -0.4333   -2.2310    1.0428 C   0  0  0  0  0  0  0  0  0  0  0  0
   -0.8284   -1.7955   -0.3780 C   0  0  0  0  0  0  0  0  0  0  0  0
   -0.5398   -0.3141   -0.6978 C   0  0  0  0  0  0  0  0  0  0  0  0
   -1.2370    0.6982    0.2284 C   0  0  0  0  0  0  0  0  0  0  0  0
   -2.7689    0.6086    0.1675 C   0  0  0  0  0  0  0  0  0  0  0  0
   -3.4165    1.7534    0.9610 C   0  0  0  0  0  0  0  0  0  0  0  0
   -4.9446    1.6189    1.0554 C   0  0  0  0  0  0  0  0  0  0  0  0
   -5.6449    1.8785   -0.2864 C   0  0  0  0  0  0  0  0  0  0  0  0
   -7.1623    1.8697   -0.1246 C   0  0  0  0  0  0  0  0  0  0  0  0
    3.8776   -0.2802   -2.0343 H   0  0  0  0  0  0  0  0  0  0  0  0
    4.4354    1.8584   -1.3779 H   0  0  0  0  0  0  0  0  0  0  0  0
    4.0841    1.3867    0.3241 H   0  0  0  0  0  0  0  0  0  0  0  0
    6.6426    2.1468   -0.7260 H   0  0  0  0  0  0  0  0  0  0  0  0
    6.3672    1.2616    0.8381 H   0  0  0  0  0  0  0  0  0  0  0  0
    7.8268   -0.1686   -0.7994 H   0  0  0  0  0  0  0  0  0  0  0  0
    4.0092   -0.9850    0.9436 H   0  0  0  0  0  0  0  0  0  0  0  0
    1.6145   -3.7879    0.2505 H   0  0  0  0  0  0  0  0  0  0  0  0
    2.8125   -3.2039    1.4488 H   0  0  0  0  0  0  0  0  0  0  0  0
   -0.6601   -3.3123    1.1608 H   0  0  0  0  0  0  0  0  0  0  0  0
   -1.0540   -1.6958    1.7927 H   0  0  0  0  0  0  0  0  0  0  0  0
   -1.9066   -2.0092   -0.5347 H   0  0  0  0  0  0  0  0  0  0  0  0
   -0.2786   -2.4244   -1.1111 H   0  0  0  0  0  0  0  0  0  0  0  0
   -0.8514   -0.1145   -1.7462 H   0  0  0  0  0  0  0  0  0  0  0  0
    0.5561   -0.1360   -0.6546 H   0  0  0  0  0  0  0  0  0  0  0  0
   -0.8886    0.5660    1.2744 H   0  0  0  0  0  0  0  0  0  0  0  0
   -0.9243    1.7165   -0.0914 H   0  0  0  0  0  0  0  0  0  0  0  0
   -3.0918    0.6599   -0.8940 H   0  0  0  0  0  0  0  0  0  0  0  0
   -3.1008   -0.3602    0.5980 H   0  0  0  0  0  0  0  0  0  0  0  0
   -3.0080    1.7480    1.9955 H   0  0  0  0  0  0  0  0  0  0  0  0
   -3.1530    2.7308    0.5003 H   0  0  0  0  0  0  0  0  0  0  0  0
   -5.3079    2.3616    1.7993 H   0  0  0  0  0  0  0  0  0  0  0  0
   -5.2113    0.6071    1.4324 H   0  0  0  0  0  0  0  0  0  0  0  0
   -5.3332    2.8665   -0.6899 H   0  0  0  0  0  0  0  0  0  0  0  0
   -5.3672    1.0927   -1.0202 H   0  0  0  0  0  0  0  0  0  0  0  0
   -7.6423    2.0495   -1.1096 H   0  0  0  0  0  0  0  0  0  0  0  0
   -7.4809    2.6704    0.5764 H   0  0  0  0  0  0  0  0  0  0  0  0
   -7.5030    0.8857    0.2625 H   0  0  0  0  0  0  0  0  0  0  0  0
  1  2  1  0
  2  3  1  0
  3  4  1  0
  4  5  1  0
  5  6  2  0
  1  7  1  0
  7  8  1  0
  8  9  2  0
  8 10  1  0
 10 11  1  0
 11 12  2  0
 11 13  1  0
 13 14  1  0
 14 15  1  0
 15 16  1  0
 16 17  1  0
 17 18  1  0
 18 19  1  0
 19 20  1  0
 20 21  1  0
  5  1  1  0
  1 22  1  6
  2 23  1  0
  2 24  1  0
  3 25  1  0
  3 26  1  0
  4 27  1  0
  7 28  1  0
 10 29  1  0
 10 30  1  0
 13 31  1  0
 13 32  1  0
 14 33  1  0
 14 34  1  0
 15 35  1  0
 15 36  1  0
 16 37  1  0
 16 38  1  0
 17 39  1  0
 17 40  1  0
 18 41  1  0
 18 42  1  0
 19 43  1  0
 19 44  1  0
 20 45  1  0
 20 46  1  0
 21 47  1  0
 21 48  1  0
 21 49  1  0
M  END
$$$$
