
     RDKit          3D

 49 51  0  0  0  0  0  0  0  0999 V2000
   -7.3336    0.3010    3.3035 C   0  0  0  0  0  0  0  0  0  0  0  0
   -6.5125   -0.2024    2.2092 N   0  0  0  0  0  0  0  0  0  0  0  0
   -5.1923    0.3068    1.9645 C   0  0  0  0  0  0  0  0  0  0  0  0
   -4.6731    1.1072    2.7906 O   0  0  0  0  0  0  0  0  0  0  0  0
   -4.4190   -0.1047    0.7677 C   0  0  0  0  0  0  0  0  0  0  0  0
   -5.0651   -0.5453   -0.3999 C   0  0  0  0  0  0  0  0  0  0  0  0
   -4.3239   -0.9234   -1.5220 C   0  0  0  0  0  0  0  0  0  0  0  0
   -2.9229   -0.8567   -1.5075 C   0  0  0  0  0  0  0  0  0  0  0  0
   -2.1385   -1.2825   -2.7181 C   0  0  0  0  0  0  0  0  0  0  0  0
   -2.2659   -0.4117   -0.3417 C   0  0  0  0  0  0  0  0  0  0  0  0
   -3.0157   -0.0358    0.7819 C   0  0  0  0  0  0  0  0  0  0  0  0
   -0.8271   -0.3421   -0.2853 N   0  0  0  0  0  0  0  0  0  0  0  0
   -0.1787    0.8378   -0.5657 C   0  0  0  0  0  0  0  0  0  0  0  0
   -0.9470    2.0838   -0.9342 C   0  0  0  0  0  0  0  0  0  0  0  0
    1.2210    0.8973   -0.5000 C   0  0  0  0  0  0  0  0  0  0  0  0
    1.9587   -0.2440   -0.1548 C   0  0  0  0  0  0  0  0  0  0  0  0
    3.3603   -0.2347   -0.0802 O   0  0  0  0  0  0  0  0  0  0  0  0
    4.1791    0.9029   -0.3355 C   0  0  0  0  0  0  0  0  0  0  0  0
    5.6197    0.5241   -0.1443 C   0  0  0  0  0  0  0  0  0  0  0  0
    6.1747    0.4588    1.1470 C   0  0  0  0  0  0  0  0  0  0  0  0
    5.4260    0.7663    2.2366 F   0  0  0  0  0  0  0  0  0  0  0  0
    7.5075    0.0703    1.3197 C   0  0  0  0  0  0  0  0  0  0  0  0
    8.2903   -0.2662    0.2117 C   0  0  0  0  0  0  0  0  0  0  0  0
    9.5811   -0.6440    0.3830 F   0  0  0  0  0  0  0  0  0  0  0  0
    7.7403   -0.2200   -1.0721 C   0  0  0  0  0  0  0  0  0  0  0  0
    6.4088    0.1674   -1.2509 C   0  0  0  0  0  0  0  0  0  0  0  0
    1.2790   -1.4319    0.1264 C   0  0  0  0  0  0  0  0  0  0  0  0
    2.2644   -3.0083    0.6052 Br  0  0  0  0  0  0  0  0  0  0  0  0
   -0.1198   -1.4655    0.0603 C   0  0  0  0  0  0  0  0  0  0  0  0
   -0.7241   -2.5425    0.3237 O   0  0  0  0  0  0  0  0  0  0  0  0
   -6.8143    0.1379    4.2713 H   0  0  0  0  0  0  0  0  0  0  0  0
   -7.5245    1.3856    3.1617 H   0  0  0  0  0  0  0  0  0  0  0  0
   -8.3059   -0.2350    3.3240 H   0  0  0  0  0  0  0  0  0  0  0  0
   -6.8915   -0.9841    1.6301 H   0  0  0  0  0  0  0  0  0  0  0  0
   -6.1444   -0.5783   -0.4619 H   0  0  0  0  0  0  0  0  0  0  0  0
   -4.8481   -1.2621   -2.4072 H   0  0  0  0  0  0  0  0  0  0  0  0
   -2.7989   -1.4357   -3.5980 H   0  0  0  0  0  0  0  0  0  0  0  0
   -1.6106   -2.2349   -2.5029 H   0  0  0  0  0  0  0  0  0  0  0  0
   -1.3922   -0.5045   -2.9832 H   0  0  0  0  0  0  0  0  0  0  0  0
   -2.4944    0.3004    1.6702 H   0  0  0  0  0  0  0  0  0  0  0  0
   -0.2708    2.9204   -1.2111 H   0  0  0  0  0  0  0  0  0  0  0  0
   -1.6073    1.8781   -1.8023 H   0  0  0  0  0  0  0  0  0  0  0  0
   -1.5661    2.4082   -0.0721 H   0  0  0  0  0  0  0  0  0  0  0  0
    1.7259    1.8288   -0.7179 H   0  0  0  0  0  0  0  0  0  0  0  0
    4.0091    1.2615   -1.3744 H   0  0  0  0  0  0  0  0  0  0  0  0
    3.9118    1.7251    0.3634 H   0  0  0  0  0  0  0  0  0  0  0  0
    7.9326    0.0258    2.3142 H   0  0  0  0  0  0  0  0  0  0  0  0
    8.3438   -0.4881   -1.9298 H   0  0  0  0  0  0  0  0  0  0  0  0
    5.9941    0.1886   -2.2512 H   0  0  0  0  0  0  0  0  0  0  0  0
  1  2  1  0
  2  3  1  0
  3  4  2  0
  3  5  1  0
  5  6  2  0
  6  7  1  0
  7  8  2  0
  8  9  1  0
  8 10  1  0
 10 11  2  0
 10 12  1  0
 12 13  1  0
 13 14  1  0
 13 15  2  0
 15 16  1  0
 16 17  1  0
 17 18  1  0
 18 19  1  0
 19 20  2  0
 20 21  1  0
 20 22  1  0
 22 23  2  0
 23 24  1  0
 23 25  1  0
 25 26  2  0
 16 27  2  0
 27 28  1  0
 27 29  1  0
 29 30  2  0
 11  5  1  0
 29 12  1  0
 26 19  1  0
  1 31  1  0
  1 32  1  0
  1 33  1  0
  2 34  1  0
  6 35  1  0
  7 36  1  0
  9 37  1  0
  9 38  1  0
  9 39  1  0
 11 40  1  0
 14 41  1  0
 14 42  1  0
 14 43  1  0
 15 44  1  0
 18 45  1  0
 18 46  1  0
 22 47  1  0
 25 48  1  0
 26 49  1  0
M  END
$$$$
