
     RDKit          3D

 54 55  0  0  0  0  0  0  0  0999 V2000
    1.4793   -0.7303   -0.2989 C   0  0  2  0  0  0  0  0  0  0  0  0
    2.0838    0.5469    0.3102 C   0  0  0  0  0  0  0  0  0  0  0  0
    3.4117    0.8865   -0.3199 C   0  0  0  0  0  0  0  0  0  0  0  0
    3.4560    1.5899   -1.5326 C   0  0  0  0  0  0  0  0  0  0  0  0
    4.6812    1.8572   -2.1457 C   0  0  0  0  0  0  0  0  0  0  0  0
    5.8709    1.4167   -1.5608 C   0  0  0  0  0  0  0  0  0  0  0  0
    5.8477    0.7034   -0.3502 C   0  0  0  0  0  0  0  0  0  0  0  0
    4.6093    0.4404    0.2636 C   0  0  0  0  0  0  0  0  0  0  0  0
    7.1135    0.2216    0.2574 C   0  0  0  0  0  0  0  0  0  0  0  0
    8.1796   -0.2431   -0.5746 N   0  0  0  0  0  0  0  0  0  0  0  0
    7.2771    0.2198    1.5441 N   0  0  0  0  0  0  0  0  0  0  0  0
    0.1264   -0.9375    0.2265 N   0  0  0  0  0  0  0  0  0  0  0  0
   -1.0300   -0.3376   -0.3751 C   0  0  0  0  0  0  0  0  0  0  0  0
   -0.9225    0.3380   -1.4344 O   0  0  0  0  0  0  0  0  0  0  0  0
   -2.3683   -0.4715    0.2812 C   0  0  0  0  0  0  0  0  0  0  0  0
   -2.4445    0.4372    1.4259 N   0  0  0  0  0  0  0  0  0  0  0  0
   -3.9252    0.1679    2.2941 S   0  0  0  0  0  6  0  0  0  0  0  0
   -3.9439   -1.2328    2.8409 O   0  0  0  0  0  0  0  0  0  0  0  0
   -4.0034    1.1282    3.4475 O   0  0  0  0  0  0  0  0  0  0  0  0
   -5.3126    0.4241    1.2377 C   0  0  0  0  0  0  0  0  0  0  0  0
   -5.7141    1.7274    0.9180 C   0  0  0  0  0  0  0  0  0  0  0  0
   -6.8008    1.9401    0.0645 C   0  0  0  0  0  0  0  0  0  0  0  0
   -7.5028    0.8498   -0.4718 C   0  0  0  0  0  0  0  0  0  0  0  0
   -8.6425    1.0772   -1.4200 C   0  0  0  0  0  0  0  0  0  0  0  0
   -7.0838   -0.4551   -0.1699 C   0  0  0  0  0  0  0  0  0  0  0  0
   -5.9971   -0.6667    0.6840 C   0  0  0  0  0  0  0  0  0  0  0  0
    2.3408   -1.9289   -0.0049 C   0  0  0  0  0  0  0  0  0  0  0  0
    2.4008   -2.3963    1.1661 O   0  0  0  0  0  0  0  0  0  0  0  0
    3.1198   -2.4771   -1.0281 O   0  0  0  0  0  0  0  0  0  0  0  0
    4.0331   -3.5444   -0.8068 C   0  0  0  0  0  0  0  0  0  0  0  0
    1.4270   -0.6135   -1.4046 H   0  0  0  0  0  0  0  0  0  0  0  0
    1.3816    1.3951    0.1543 H   0  0  0  0  0  0  0  0  0  0  0  0
    2.1973    0.4264    1.4105 H   0  0  0  0  0  0  0  0  0  0  0  0
    2.5409    1.9252   -2.0051 H   0  0  0  0  0  0  0  0  0  0  0  0
    4.7091    2.4049   -3.0788 H   0  0  0  0  0  0  0  0  0  0  0  0
    6.8095    1.6469   -2.0489 H   0  0  0  0  0  0  0  0  0  0  0  0
    4.5691   -0.1380    1.1786 H   0  0  0  0  0  0  0  0  0  0  0  0
    9.0856   -0.5445   -0.1512 H   0  0  0  0  0  0  0  0  0  0  0  0
    8.0571   -0.3417   -1.6066 H   0  0  0  0  0  0  0  0  0  0  0  0
    6.5489    0.5634    2.2090 H   0  0  0  0  0  0  0  0  0  0  0  0
    0.0077   -1.4045    1.1546 H   0  0  0  0  0  0  0  0  0  0  0  0
   -3.1703   -0.2397   -0.4551 H   0  0  0  0  0  0  0  0  0  0  0  0
   -2.4916   -1.5246    0.6153 H   0  0  0  0  0  0  0  0  0  0  0  0
   -2.4808    1.4178    1.0621 H   0  0  0  0  0  0  0  0  0  0  0  0
   -5.1814    2.5782    1.3236 H   0  0  0  0  0  0  0  0  0  0  0  0
   -7.0932    2.9540   -0.1793 H   0  0  0  0  0  0  0  0  0  0  0  0
   -9.3793    0.2486   -1.3528 H   0  0  0  0  0  0  0  0  0  0  0  0
   -8.2533    1.1325   -2.4581 H   0  0  0  0  0  0  0  0  0  0  0  0
   -9.1692    2.0251   -1.1792 H   0  0  0  0  0  0  0  0  0  0  0  0
   -7.5966   -1.3082   -0.5968 H   0  0  0  0  0  0  0  0  0  0  0  0
   -5.6858   -1.6797    0.9037 H   0  0  0  0  0  0  0  0  0  0  0  0
    4.5303   -3.8029   -1.7641 H   0  0  0  0  0  0  0  0  0  0  0  0
    4.8066   -3.2348   -0.0722 H   0  0  0  0  0  0  0  0  0  0  0  0
    3.4912   -4.4372   -0.4292 H   0  0  0  0  0  0  0  0  0  0  0  0
  1  2  1  0
  2  3  1  0
  3  4  2  0
  4  5  1  0
  5  6  2  0
  6  7  1  0
  7  8  2  0
  7  9  1  0
  9 10  1  0
  9 11  2  3
  1 12  1  0
 12 13  1  0
 13 14  2  0
 13 15  1  0
 15 16  1  0
 16 17  1  0
 17 18  2  0
 17 19  2  0
 17 20  1  0
 20 21  2  0
 21 22  1  0
 22 23  2  0
 23 24  1  0
 23 25  1  0
 25 26  2  0
  1 27  1  0
 27 28  2  0
 27 29  1  0
 29 30  1  0
  8  3  1  0
 26 20  1  0
  1 31  1  6
  2 32  1  0
  2 33  1  0
  4 34  1  0
  5 35  1  0
  6 36  1  0
  8 37  1  0
 10 38  1  0
 10 39  1  0
 11 40  1  0
 12 41  1  0
 15 42  1  0
 15 43  1  0
 16 44  1  0
 21 45  1  0
 22 46  1  0
 24 47  1  0
 24 48  1  0
 24 49  1  0
 25 50  1  0
 26 51  1  0
 30 52  1  0
 30 53  1  0
 30 54  1  0
M  END
$$$$
