
     RDKit          3D

 23 23  0  0  0  0  0  0  0  0999 V2000
    1.5328   -1.0332    1.5199 N   0  0  0  0  0  0  0  0  0  0  0  0
    1.8875    0.0094    0.5538 C   0  0  2  0  0  0  0  0  0  0  0  0
    0.8265    1.1289    0.5340 C   0  0  0  0  0  0  0  0  0  0  0  0
   -0.5523    0.6307    0.1702 C   0  0  0  0  0  0  0  0  0  0  0  0
   -1.4105    0.1267    1.1625 C   0  0  0  0  0  0  0  0  0  0  0  0
   -2.6787   -0.3529    0.8205 C   0  0  0  0  0  0  0  0  0  0  0  0
   -3.0985   -0.3355   -0.5123 C   0  0  0  0  0  0  0  0  0  0  0  0
   -2.2505    0.1615   -1.5057 C   0  0  0  0  0  0  0  0  0  0  0  0
   -0.9817    0.6425   -1.1681 C   0  0  0  0  0  0  0  0  0  0  0  0
    2.0782   -0.5802   -0.8180 C   0  0  0  0  0  0  0  0  0  0  0  0
    2.9729    0.0131   -1.7029 O   0  0  0  0  0  0  0  0  0  0  0  0
    1.4017   -1.5788   -1.1862 O   0  0  0  0  0  0  0  0  0  0  0  0
    2.3145   -1.7279    1.5558 H   0  0  0  0  0  0  0  0  0  0  0  0
    1.4907   -0.5992    2.4709 H   0  0  0  0  0  0  0  0  0  0  0  0
    2.8550    0.4661    0.8636 H   0  0  0  0  0  0  0  0  0  0  0  0
    1.1419    1.9209   -0.1809 H   0  0  0  0  0  0  0  0  0  0  0  0
    0.7913    1.6138    1.5343 H   0  0  0  0  0  0  0  0  0  0  0  0
   -1.0977    0.1052    2.1990 H   0  0  0  0  0  0  0  0  0  0  0  0
   -3.3357   -0.7394    1.5889 H   0  0  0  0  0  0  0  0  0  0  0  0
   -4.0800   -0.7079   -0.7754 H   0  0  0  0  0  0  0  0  0  0  0  0
   -2.5757    0.1726   -2.5379 H   0  0  0  0  0  0  0  0  0  0  0  0
   -0.3330    1.0200   -1.9488 H   0  0  0  0  0  0  0  0  0  0  0  0
    3.1012   -0.3563   -2.6374 H   0  0  0  0  0  0  0  0  0  0  0  0
  1  2  1  0
  2  3  1  0
  3  4  1  0
  4  5  2  0
  5  6  1  0
  6  7  2  0
  7  8  1  0
  8  9  2  0
  2 10  1  0
 10 11  1  0
 10 12  2  0
  9  4  1  0
  1 13  1  0
  1 14  1  0
  2 15  1  1
  3 16  1  0
  3 17  1  0
  5 18  1  0
  6 19  1  0
  7 20  1  0
  8 21  1  0
  9 22  1  0
 11 23  1  0
M  END
$$$$
