
     RDKit          3D

 38 39  0  0  0  0  0  0  0  0999 V2000
   -0.1972   -0.4571   -0.9773 C   0  0  2  0  0  0  0  0  0  0  0  0
    0.8905    0.1436   -0.1954 N   0  0  0  0  0  0  0  0  0  0  0  0
    1.7467    1.1943   -0.6747 C   0  0  0  0  0  0  0  0  0  0  0  0
    1.6327    1.6296   -1.8524 O   0  0  0  0  0  0  0  0  0  0  0  0
    2.8247    1.7404    0.2083 C   0  0  0  0  0  0  0  0  0  0  0  0
    4.0157    0.8377    0.1735 C   0  0  0  0  0  0  0  0  0  0  0  0
    4.2334   -0.2550    1.0030 C   0  0  0  0  0  0  0  0  0  0  0  0
    5.3986   -0.9629    0.6853 C   0  0  0  0  0  0  0  0  0  0  0  0
    6.0908   -0.4396   -0.3997 C   0  0  0  0  0  0  0  0  0  0  0  0
    5.2503    0.9028   -0.9662 S   0  0  0  0  0  0  0  0  0  0  0  0
    0.3424   -1.0294   -2.2624 C   0  0  0  0  0  0  0  0  0  0  0  0
    1.1537   -1.9410   -2.2331 O   0  0  0  0  0  0  0  0  0  0  0  0
   -1.3238    0.5761   -1.2243 C   0  0  2  0  0  0  0  0  0  0  0  0
   -1.7945    1.1384    0.0352 N   0  0  0  0  0  0  0  0  0  0  0  0
   -2.7309    0.4942    0.9205 C   0  0  0  0  0  0  0  0  0  0  0  0
   -2.8713    1.0892    2.2751 C   0  0  0  0  0  0  0  0  0  0  0  0
   -4.0804    1.0514    2.9638 O   0  0  0  0  0  0  0  0  0  0  0  0
   -1.8885    1.6817    2.7962 O   0  0  0  0  0  0  0  0  0  0  0  0
   -3.4529   -0.5921    0.5256 C   0  0  0  0  0  0  0  0  0  0  0  0
   -4.3391   -1.3431    1.4918 C   0  0  0  0  0  0  0  0  0  0  0  0
   -3.3144   -1.2175   -0.8465 C   0  0  0  0  0  0  0  0  0  0  0  0
   -2.7443   -0.0844   -2.1545 S   0  0  0  0  0  0  0  0  0  0  0  0
   -0.6071   -1.2995   -0.3841 H   0  0  0  0  0  0  0  0  0  0  0  0
    1.0521   -0.2215    0.7706 H   0  0  0  0  0  0  0  0  0  0  0  0
    2.4473    1.8294    1.2495 H   0  0  0  0  0  0  0  0  0  0  0  0
    3.1185    2.7562   -0.1334 H   0  0  0  0  0  0  0  0  0  0  0  0
    3.5678   -0.5382    1.8078 H   0  0  0  0  0  0  0  0  0  0  0  0
    5.7246   -1.8404    1.2274 H   0  0  0  0  0  0  0  0  0  0  0  0
    7.0078   -0.8360   -0.8139 H   0  0  0  0  0  0  0  0  0  0  0  0
    0.0195   -0.6396   -3.2227 H   0  0  0  0  0  0  0  0  0  0  0  0
   -0.9135    1.4035   -1.8414 H   0  0  0  0  0  0  0  0  0  0  0  0
   -1.4235    2.0798    0.2987 H   0  0  0  0  0  0  0  0  0  0  0  0
   -4.1711    1.4728    3.8805 H   0  0  0  0  0  0  0  0  0  0  0  0
   -3.7918   -1.5582    2.4342 H   0  0  0  0  0  0  0  0  0  0  0  0
   -5.2552   -0.7543    1.7043 H   0  0  0  0  0  0  0  0  0  0  0  0
   -4.6616   -2.3190    1.0704 H   0  0  0  0  0  0  0  0  0  0  0  0
   -4.3080   -1.5908   -1.1735 H   0  0  0  0  0  0  0  0  0  0  0  0
   -2.6479   -2.1017   -0.7921 H   0  0  0  0  0  0  0  0  0  0  0  0
  1  2  1  0
  2  3  1  0
  3  4  2  0
  3  5  1  0
  5  6  1  0
  6  7  2  0
  7  8  1  0
  8  9  2  0
  9 10  1  0
  1 11  1  0
 11 12  2  0
  1 13  1  0
 13 14  1  0
 14 15  1  0
 15 16  1  0
 16 17  1  0
 16 18  2  0
 15 19  2  0
 19 20  1  0
 19 21  1  0
 21 22  1  0
 10  6  1  0
 22 13  1  0
  1 23  1  1
  2 24  1  0
  5 25  1  0
  5 26  1  0
  7 27  1  0
  8 28  1  0
  9 29  1  0
 11 30  1  0
 13 31  1  6
 14 32  1  0
 17 33  1  0
 20 34  1  0
 20 35  1  0
 20 36  1  0
 21 37  1  0
 21 38  1  0
M  END
$$$$
