
     RDKit          3D

 55 58  0  0  0  0  0  0  0  0999 V2000
    2.7537   -1.7155   -0.9736 C   0  0  1  0  0  0  0  0  0  0  0  0
    3.5446   -2.8661   -0.3323 C   0  0  0  0  0  0  0  0  0  0  0  0
    1.2396   -2.0249   -0.9829 C   0  0  0  0  0  0  0  0  0  0  0  0
    0.5785   -0.6780   -0.7306 C   0  0  1  0  0  0  0  0  0  0  0  0
   -0.9093   -0.6617   -0.2959 C   0  0  2  0  0  0  0  0  0  0  0  0
   -1.7933   -1.4012   -1.3161 C   0  0  0  0  0  0  0  0  0  0  0  0
   -3.2555   -1.3925   -0.8755 C   0  0  0  0  0  0  0  0  0  0  0  0
   -3.7273    0.0218   -0.6381 C   0  0  0  0  0  0  0  0  0  0  0  0
   -4.9244    0.3957   -1.1206 C   0  0  0  0  0  0  0  0  0  0  0  0
   -5.4065    1.7655   -0.9475 C   0  0  0  0  0  0  0  0  0  0  0  0
   -6.5526    2.0922   -1.3537 O   0  0  0  0  0  0  0  0  0  0  0  0
   -4.5278    2.7622   -0.3414 C   0  0  0  0  0  0  0  0  0  0  0  0
   -3.3444    2.4034    0.1591 C   0  0  0  0  0  0  0  0  0  0  0  0
   -2.8937    0.9435    0.2742 C   0  0  1  0  0  0  0  0  0  0  0  0
   -3.1300    0.4952    1.7357 C   0  0  0  0  0  0  0  0  0  0  0  0
   -1.3817    0.8272   -0.1555 C   0  0  1  0  0  0  0  0  0  0  0  0
   -0.3648    1.6272    0.6713 C   0  0  0  0  0  0  0  0  0  0  0  0
   -0.7052    2.3570    1.5888 O   0  0  0  0  0  0  0  0  0  0  0  0
    1.1060    1.5227    0.3274 C   0  0  0  0  0  0  0  0  0  0  0  0
    1.5141    0.0292    0.2718 C   0  0  1  0  0  0  0  0  0  0  0  0
    1.4075   -0.5629    1.7185 C   0  0  0  0  0  0  0  0  0  0  0  0
    2.9182   -0.2634   -0.3597 C   0  0  2  0  0  0  0  0  0  0  0  0
    3.1081    0.6230   -1.4439 O   0  0  0  0  0  0  0  0  0  0  0  0
    4.0686   -0.0530    0.6472 C   0  0  0  0  0  0  0  0  0  0  0  0
    4.3575   -0.9207    1.4573 O   0  0  0  0  0  0  0  0  0  0  0  0
    4.8205    1.2545    0.7283 C   0  0  0  0  0  0  0  0  0  0  0  0
    4.8427    1.7213    2.0499 O   0  0  0  0  0  0  0  0  0  0  0  0
    3.0843   -1.6920   -2.0373 H   0  0  0  0  0  0  0  0  0  0  0  0
    3.3495   -3.8067   -0.8907 H   0  0  0  0  0  0  0  0  0  0  0  0
    4.6349   -2.6644   -0.3924 H   0  0  0  0  0  0  0  0  0  0  0  0
    3.2450   -3.0314    0.7227 H   0  0  0  0  0  0  0  0  0  0  0  0
    0.9279   -2.4450   -1.9644 H   0  0  0  0  0  0  0  0  0  0  0  0
    0.9549   -2.7445   -0.1840 H   0  0  0  0  0  0  0  0  0  0  0  0
    0.6246   -0.1303   -1.7038 H   0  0  0  0  0  0  0  0  0  0  0  0
   -1.0098   -1.1982    0.6680 H   0  0  0  0  0  0  0  0  0  0  0  0
   -1.7040   -0.9271   -2.3189 H   0  0  0  0  0  0  0  0  0  0  0  0
   -1.4665   -2.4594   -1.4060 H   0  0  0  0  0  0  0  0  0  0  0  0
   -3.8580   -1.8975   -1.6627 H   0  0  0  0  0  0  0  0  0  0  0  0
   -3.3716   -1.9814    0.0594 H   0  0  0  0  0  0  0  0  0  0  0  0
   -5.5359   -0.2996   -1.6838 H   0  0  0  0  0  0  0  0  0  0  0  0
   -4.8292    3.8024   -0.3208 H   0  0  0  0  0  0  0  0  0  0  0  0
   -2.7430    3.1878    0.5954 H   0  0  0  0  0  0  0  0  0  0  0  0
   -2.7699   -0.5370    1.9162 H   0  0  0  0  0  0  0  0  0  0  0  0
   -2.6313    1.1649    2.4638 H   0  0  0  0  0  0  0  0  0  0  0  0
   -4.2173    0.5147    1.9673 H   0  0  0  0  0  0  0  0  0  0  0  0
   -1.3248    1.2715   -1.1764 H   0  0  0  0  0  0  0  0  0  0  0  0
    1.7226    2.0628    1.0781 H   0  0  0  0  0  0  0  0  0  0  0  0
    1.2591    2.0215   -0.6530 H   0  0  0  0  0  0  0  0  0  0  0  0
    1.6561   -1.6412    1.7493 H   0  0  0  0  0  0  0  0  0  0  0  0
    2.0939   -0.0296    2.4087 H   0  0  0  0  0  0  0  0  0  0  0  0
    0.3991   -0.4363    2.1593 H   0  0  0  0  0  0  0  0  0  0  0  0
    3.9843    0.4104   -1.8628 H   0  0  0  0  0  0  0  0  0  0  0  0
    5.8656    1.0809    0.3973 H   0  0  0  0  0  0  0  0  0  0  0  0
    4.3828    2.0334    0.0663 H   0  0  0  0  0  0  0  0  0  0  0  0
    3.9335    2.0699    2.2435 H   0  0  0  0  0  0  0  0  0  0  0  0
  1  2  1  0
  1  3  1  0
  3  4  1  0
  4  5  1  0
  5  6  1  0
  6  7  1  0
  7  8  1  0
  8  9  2  0
  9 10  1  0
 10 11  2  0
 10 12  1  0
 12 13  2  0
 13 14  1  0
 14 15  1  1
 14 16  1  0
 16 17  1  0
 17 18  2  0
 17 19  1  0
 19 20  1  0
 20 21  1  1
 20 22  1  0
 22 23  1  6
 22 24  1  0
 24 25  2  0
 24 26  1  0
 26 27  1  0
 22  1  1  0
 20  4  1  0
 16  5  1  0
 14  8  1  0
  1 28  1  6
  2 29  1  0
  2 30  1  0
  2 31  1  0
  3 32  1  0
  3 33  1  0
  4 34  1  6
  5 35  1  1
  6 36  1  0
  6 37  1  0
  7 38  1  0
  7 39  1  0
  9 40  1  0
 12 41  1  0
 13 42  1  0
 15 43  1  0
 15 44  1  0
 15 45  1  0
 16 46  1  6
 19 47  1  0
 19 48  1  0
 21 49  1  0
 21 50  1  0
 21 51  1  0
 23 52  1  0
 26 53  1  0
 26 54  1  0
 27 55  1  0
M  END
$$$$
