
     RDKit          3D

 36 36  0  0  0  0  0  0  0  0999 V2000
   -2.1612   -4.3673   -0.2184 C   0  0  0  0  0  0  0  0  0  0  0  0
   -1.8711   -3.0206   -0.5177 O   0  0  0  0  0  0  0  0  0  0  0  0
   -1.7227   -2.2946    0.6853 C   0  0  0  0  0  0  0  0  0  0  0  0
   -1.3824   -0.8337    0.3643 C   0  0  1  0  0  0  0  0  0  0  0  0
   -1.2769   -0.0615    1.6054 N   0  0  0  0  0  0  0  0  0  0  0  0
   -2.4159    0.5375    2.2391 C   0  0  0  0  0  0  0  0  0  0  0  0
   -2.2545    1.2459    3.5444 C   0  0  0  0  0  0  0  0  0  0  0  0
   -3.5602    0.4471    1.7174 O   0  0  0  0  0  0  0  0  0  0  0  0
   -0.0916   -0.7323   -0.4091 C   0  0  0  0  0  0  0  0  0  0  0  0
    0.9599   -1.2479    0.0607 O   0  0  0  0  0  0  0  0  0  0  0  0
   -0.0518   -0.0318   -1.6612 N   0  0  0  0  0  0  0  0  0  0  0  0
    1.1902    0.1777   -2.4014 C   0  0  0  0  0  0  0  0  0  0  0  0
    2.0431    1.2035   -1.7059 C   0  0  0  0  0  0  0  0  0  0  0  0
    3.2169    0.8225   -1.0341 C   0  0  0  0  0  0  0  0  0  0  0  0
    3.9899    1.7801   -0.3698 C   0  0  0  0  0  0  0  0  0  0  0  0
    3.5955    3.1209   -0.3683 C   0  0  0  0  0  0  0  0  0  0  0  0
    2.4264    3.5065   -1.0300 C   0  0  0  0  0  0  0  0  0  0  0  0
    1.6506    2.5522   -1.6954 C   0  0  0  0  0  0  0  0  0  0  0  0
   -3.1135   -4.4586    0.3501 H   0  0  0  0  0  0  0  0  0  0  0  0
   -2.2852   -4.9220   -1.1710 H   0  0  0  0  0  0  0  0  0  0  0  0
   -1.3262   -4.8439    0.3417 H   0  0  0  0  0  0  0  0  0  0  0  0
   -0.9113   -2.7272    1.3161 H   0  0  0  0  0  0  0  0  0  0  0  0
   -2.6745   -2.3116    1.2647 H   0  0  0  0  0  0  0  0  0  0  0  0
   -2.2034   -0.4167   -0.2599 H   0  0  0  0  0  0  0  0  0  0  0  0
   -0.3628   -0.0394    2.1134 H   0  0  0  0  0  0  0  0  0  0  0  0
   -3.1718    1.8211    3.7924 H   0  0  0  0  0  0  0  0  0  0  0  0
   -1.3972    1.9486    3.4857 H   0  0  0  0  0  0  0  0  0  0  0  0
   -2.0641    0.5029    4.3465 H   0  0  0  0  0  0  0  0  0  0  0  0
   -0.9366    0.3535   -2.0617 H   0  0  0  0  0  0  0  0  0  0  0  0
    1.7268   -0.7893   -2.5174 H   0  0  0  0  0  0  0  0  0  0  0  0
    0.9515    0.5424   -3.4240 H   0  0  0  0  0  0  0  0  0  0  0  0
    3.5322   -0.2134   -1.0218 H   0  0  0  0  0  0  0  0  0  0  0  0
    4.8937    1.4822    0.1457 H   0  0  0  0  0  0  0  0  0  0  0  0
    4.1945    3.8605    0.1471 H   0  0  0  0  0  0  0  0  0  0  0  0
    2.1201    4.5446   -1.0255 H   0  0  0  0  0  0  0  0  0  0  0  0
    0.7434    2.8618   -2.1997 H   0  0  0  0  0  0  0  0  0  0  0  0
  1  2  1  0
  2  3  1  0
  3  4  1  0
  4  5  1  0
  5  6  1  0
  6  7  1  0
  6  8  2  0
  4  9  1  0
  9 10  2  0
  9 11  1  0
 11 12  1  0
 12 13  1  0
 13 14  2  0
 14 15  1  0
 15 16  2  0
 16 17  1  0
 17 18  2  0
 18 13  1  0
  1 19  1  0
  1 20  1  0
  1 21  1  0
  3 22  1  0
  3 23  1  0
  4 24  1  6
  5 25  1  0
  7 26  1  0
  7 27  1  0
  7 28  1  0
 11 29  1  0
 12 30  1  0
 12 31  1  0
 14 32  1  0
 15 33  1  0
 16 34  1  0
 17 35  1  0
 18 36  1  0
M  END
$$$$
