
     RDKit          3D

 19 19  0  0  0  0  0  0  0  0999 V2000
   -3.4480   -0.2722    0.3265 N   0  0  0  0  0  0  0  0  0  0  0  0
   -2.0537   -0.0925    0.0714 C   0  0  0  0  0  0  0  0  0  0  0  0
   -1.5247   -0.3535   -1.2004 C   0  0  0  0  0  0  0  0  0  0  0  0
   -0.1587   -0.1762   -1.4432 C   0  0  0  0  0  0  0  0  0  0  0  0
    0.6878    0.2685   -0.4176 C   0  0  0  0  0  0  0  0  0  0  0  0
    0.1582    0.5216    0.8553 C   0  0  0  0  0  0  0  0  0  0  0  0
   -1.2063    0.3439    1.0962 C   0  0  0  0  0  0  0  0  0  0  0  0
   -1.9701    0.7249    2.9766 Hg  0  0  0  0  0  1  0  0  0  0  0  0
    2.4101    0.4778   -0.7157 S   0  0  0  0  0  6  0  0  0  0  0  0
    3.2421   -0.9872   -0.3298 N   0  0  0  0  0  0  0  0  0  0  0  0
    2.6392    0.8183   -2.1616 O   0  0  0  0  0  0  0  0  0  0  0  0
    2.9398    1.5995    0.1336 O   0  0  0  0  0  0  0  0  0  0  0  0
   -3.8453   -0.0797    1.2730 H   0  0  0  0  0  0  0  0  0  0  0  0
   -4.0922   -0.5983   -0.4282 H   0  0  0  0  0  0  0  0  0  0  0  0
   -2.1689   -0.6955   -2.0007 H   0  0  0  0  0  0  0  0  0  0  0  0
    0.2371   -0.3877   -2.4283 H   0  0  0  0  0  0  0  0  0  0  0  0
    0.7975    0.8536    1.6625 H   0  0  0  0  0  0  0  0  0  0  0  0
    3.0937   -1.1629    0.6893 H   0  0  0  0  0  0  0  0  0  0  0  0
    4.2622   -0.8025   -0.4585 H   0  0  0  0  0  0  0  0  0  0  0  0
  1  2  1  0
  2  3  2  0
  3  4  1  0
  4  5  2  0
  5  6  1  0
  6  7  2  0
  7  8  1  0
  5  9  1  0
  9 10  1  0
  9 11  2  0
  9 12  2  0
  7  2  1  0
  1 13  1  0
  1 14  1  0
  3 15  1  0
  4 16  1  0
  6 17  1  0
 10 18  1  0
 10 19  1  0
M  END
$$$$
