
     RDKit          3D

 40 44  0  0  0  0  0  0  0  0999 V2000
    3.5536   -2.3249   -1.3591 Cl  0  0  0  0  0  0  0  0  0  0  0  0
    4.3107   -0.9012   -0.6521 C   0  0  0  0  0  0  0  0  0  0  0  0
    5.7080   -0.8104   -0.6586 C   0  0  0  0  0  0  0  0  0  0  0  0
    6.3434    0.3196   -0.1374 C   0  0  0  0  0  0  0  0  0  0  0  0
    5.5856    1.3683    0.3882 C   0  0  0  0  0  0  0  0  0  0  0  0
    4.1907    1.2872    0.3994 C   0  0  0  0  0  0  0  0  0  0  0  0
    3.5427    0.1505   -0.1095 C   0  0  0  0  0  0  0  0  0  0  0  0
    2.0692    0.0903   -0.0841 C   0  0  0  0  0  0  0  0  0  0  0  0
    1.3149    0.9439   -0.9194 C   0  0  0  0  0  0  0  0  0  0  0  0
   -0.0846    0.8621   -0.8827 C   0  0  0  0  0  0  0  0  0  0  0  0
   -0.7554   -0.0264   -0.0485 C   0  0  0  0  0  0  0  0  0  0  0  0
   -2.1074    0.1804   -0.2963 C   0  0  0  0  0  0  0  0  0  0  0  0
   -2.1680    1.1764   -1.2544 C   0  0  0  0  0  0  0  0  0  0  0  0
   -0.9410    1.5980   -1.6190 N   0  0  0  0  0  0  0  0  0  0  0  0
   -3.3816    1.6359   -1.7580 C   0  0  0  0  0  0  0  0  0  0  0  0
   -4.5642    1.0638   -1.2641 C   0  0  0  0  0  0  0  0  0  0  0  0
   -4.5201    0.0521   -0.2707 C   0  0  0  0  0  0  0  0  0  0  0  0
   -5.7235   -0.5621    0.2217 N   0  0  0  0  0  0  0  0  0  0  0  0
   -6.9668    0.1271    0.4047 C   0  0  0  0  0  0  0  0  0  0  0  0
   -7.0394    1.3810    0.3123 O   0  0  0  0  0  0  0  0  0  0  0  0
   -3.2726   -0.4076    0.2032 C   0  0  0  0  0  0  0  0  0  0  0  0
   -0.0154   -0.8667    0.7963 C   0  0  0  0  0  0  0  0  0  0  0  0
    1.3758   -0.7974    0.7695 C   0  0  0  0  0  0  0  0  0  0  0  0
    1.8801   -1.7384    1.7697 C   0  0  0  0  0  0  0  0  0  0  0  0
    3.0899   -1.9312    2.0603 O   0  0  0  0  0  0  0  0  0  0  0  0
    0.8007   -2.4060    2.4116 N   0  0  0  0  0  0  0  0  0  0  0  0
   -0.3727   -1.8622    1.8146 C   0  0  0  0  0  0  0  0  0  0  0  0
   -1.5328   -2.2009    2.1569 O   0  0  0  0  0  0  0  0  0  0  0  0
    6.3033   -1.6139   -1.0735 H   0  0  0  0  0  0  0  0  0  0  0  0
    7.4238    0.3846   -0.1459 H   0  0  0  0  0  0  0  0  0  0  0  0
    6.0795    2.2447    0.7874 H   0  0  0  0  0  0  0  0  0  0  0  0
    3.6147    2.1067    0.8121 H   0  0  0  0  0  0  0  0  0  0  0  0
    1.8041    1.6449   -1.5846 H   0  0  0  0  0  0  0  0  0  0  0  0
   -0.7046    2.3325   -2.3232 H   0  0  0  0  0  0  0  0  0  0  0  0
   -3.4137    2.4049   -2.5191 H   0  0  0  0  0  0  0  0  0  0  0  0
   -5.5083    1.3895   -1.6790 H   0  0  0  0  0  0  0  0  0  0  0  0
   -5.6762   -1.5513    0.5551 H   0  0  0  0  0  0  0  0  0  0  0  0
   -7.8534   -0.4352    0.6659 H   0  0  0  0  0  0  0  0  0  0  0  0
   -3.2446   -1.1939    0.9340 H   0  0  0  0  0  0  0  0  0  0  0  0
    0.8558   -3.1147    3.1762 H   0  0  0  0  0  0  0  0  0  0  0  0
  1  2  1  0
  2  3  2  0
  3  4  1  0
  4  5  2  0
  5  6  1  0
  6  7  2  0
  7  8  1  0
  8  9  2  0
  9 10  1  0
 10 11  2  0
 11 12  1  0
 12 13  2  0
 13 14  1  0
 13 15  1  0
 15 16  2  0
 16 17  1  0
 17 18  1  0
 18 19  1  0
 19 20  2  0
 17 21  2  0
 11 22  1  0
 22 23  2  0
 23 24  1  0
 24 25  2  0
 24 26  1  0
 26 27  1  0
 27 28  2  0
  7  2  1  0
 23  8  1  0
 14 10  1  0
 27 22  1  0
 21 12  1  0
  3 29  1  0
  4 30  1  0
  5 31  1  0
  6 32  1  0
  9 33  1  0
 14 34  1  0
 15 35  1  0
 16 36  1  0
 18 37  1  0
 19 38  1  0
 21 39  1  0
 26 40  1  0
M  END
$$$$
