
     RDKit          3D

 40 43  0  0  0  0  0  0  0  0999 V2000
   -7.7932    0.4826    0.6108 N   0  0  0  0  0  0  0  0  0  0  0  0
   -6.9400    0.8281   -0.8521 S   0  0  0  0  0  6  0  0  0  0  0  0
   -7.6027    0.1172   -1.9987 O   0  0  0  0  0  0  0  0  0  0  0  0
   -6.9776    2.3071   -1.1170 O   0  0  0  0  0  0  0  0  0  0  0  0
   -5.2694    0.2916   -0.7035 C   0  0  0  0  0  0  0  0  0  0  0  0
   -4.2950    1.1559   -0.1881 C   0  0  0  0  0  0  0  0  0  0  0  0
   -2.9711    0.7263   -0.0562 C   0  0  0  0  0  0  0  0  0  0  0  0
   -2.6038   -0.5735   -0.4480 C   0  0  0  0  0  0  0  0  0  0  0  0
   -1.2551   -1.0482   -0.2986 N   0  0  0  0  0  0  0  0  0  0  0  0
   -0.0877   -0.2391   -0.5014 C   0  0  0  0  0  0  0  0  0  0  0  0
    1.1293   -0.7123   -0.1218 N   0  0  0  0  0  0  0  0  0  0  0  0
    2.2645    0.0128   -0.3115 C   0  0  0  0  0  0  0  0  0  0  0  0
    2.1841    1.2550   -0.9525 C   0  0  0  0  0  0  0  0  0  0  0  0
    0.9317    1.7222   -1.3467 C   0  0  0  0  0  0  0  0  0  0  0  0
   -0.1754    0.9707   -1.1184 N   0  0  0  0  0  0  0  0  0  0  0  0
    3.5607   -0.5600    0.0985 C   0  0  0  0  0  0  0  0  0  0  0  0
    3.9263   -1.8904   -0.0271 C   0  0  0  0  0  0  0  0  0  0  0  0
    5.1852   -2.0691    0.4369 N   0  0  0  0  0  0  0  0  0  0  0  0
    5.5492   -0.8370    0.8473 C   0  0  0  0  0  0  0  0  0  0  0  0
    6.7682   -0.5090    1.4379 C   0  0  0  0  0  0  0  0  0  0  0  0
    6.9582    0.8183    1.8511 C   0  0  0  0  0  0  0  0  0  0  0  0
    5.9343    1.7681    1.6803 C   0  0  0  0  0  0  0  0  0  0  0  0
    4.7262    1.3828    1.0817 C   0  0  0  0  0  0  0  0  0  0  0  0
    4.5933    0.0934    0.6656 N   0  0  0  0  0  0  0  0  0  0  0  0
   -3.5904   -1.4450   -0.9323 C   0  0  0  0  0  0  0  0  0  0  0  0
   -4.9137   -1.0142   -1.0646 C   0  0  0  0  0  0  0  0  0  0  0  0
   -7.2773    0.9589    1.3843 H   0  0  0  0  0  0  0  0  0  0  0  0
   -7.7063   -0.5447    0.7791 H   0  0  0  0  0  0  0  0  0  0  0  0
   -4.5612    2.1581    0.1227 H   0  0  0  0  0  0  0  0  0  0  0  0
   -2.2440    1.4003    0.3767 H   0  0  0  0  0  0  0  0  0  0  0  0
   -1.1092   -2.0656   -0.1079 H   0  0  0  0  0  0  0  0  0  0  0  0
    3.0696    1.8350   -1.1771 H   0  0  0  0  0  0  0  0  0  0  0  0
    0.8404    2.6766   -1.8477 H   0  0  0  0  0  0  0  0  0  0  0  0
    3.3175   -2.6819   -0.4440 H   0  0  0  0  0  0  0  0  0  0  0  0
    7.5398   -1.2541    1.5831 H   0  0  0  0  0  0  0  0  0  0  0  0
    7.8909    1.1092    2.3165 H   0  0  0  0  0  0  0  0  0  0  0  0
    6.0740    2.7865    2.0187 H   0  0  0  0  0  0  0  0  0  0  0  0
    3.9205    2.0966    0.9833 H   0  0  0  0  0  0  0  0  0  0  0  0
   -3.3305   -2.4573   -1.2155 H   0  0  0  0  0  0  0  0  0  0  0  0
   -5.6601   -1.7006   -1.4439 H   0  0  0  0  0  0  0  0  0  0  0  0
  1  2  1  0
  2  3  2  0
  2  4  2  0
  2  5  1  0
  5  6  2  0
  6  7  1  0
  7  8  2  0
  8  9  1  0
  9 10  1  0
 10 11  2  0
 11 12  1  0
 12 13  2  0
 13 14  1  0
 14 15  2  0
 12 16  1  0
 16 17  2  0
 17 18  1  0
 18 19  2  0
 19 20  1  0
 20 21  2  0
 21 22  1  0
 22 23  2  0
 23 24  1  0
  8 25  1  0
 25 26  2  0
 26  5  1  0
 15 10  1  0
 24 16  1  0
 24 19  1  0
  1 27  1  0
  1 28  1  0
  6 29  1  0
  7 30  1  0
  9 31  1  0
 13 32  1  0
 14 33  1  0
 17 34  1  0
 20 35  1  0
 21 36  1  0
 22 37  1  0
 23 38  1  0
 25 39  1  0
 26 40  1  0
M  END
$$$$
