
     RDKit          3D

 52 54  0  0  0  0  0  0  0  0999 V2000
   -2.7529   -0.7458   -1.9092 C   0  0  0  0  0  0  0  0  0  0  0  0
   -1.7925    0.0430   -0.9861 C   0  0  0  0  0  0  0  0  0  0  0  0
   -2.1015    1.5525   -1.1440 C   0  0  0  0  0  0  0  0  0  0  0  0
   -1.9966   -0.4216    0.4905 C   0  0  0  0  0  0  0  0  0  0  0  0
   -3.4159   -0.3152    0.9867 C   0  0  0  0  0  0  0  0  0  0  0  0
   -4.0296    0.8226    1.5042 C   0  0  0  0  0  0  0  0  0  0  0  0
   -5.3133    0.5583    1.8369 N   0  0  0  0  0  0  0  0  0  0  0  0
   -5.5163   -0.7360    1.5367 C   0  0  0  0  0  0  0  0  0  0  0  0
   -6.6922   -1.4663    1.7030 C   0  0  0  0  0  0  0  0  0  0  0  0
   -6.6853   -2.8200    1.3203 C   0  0  0  0  0  0  0  0  0  0  0  0
   -5.5165   -3.4068    0.7872 C   0  0  0  0  0  0  0  0  0  0  0  0
   -4.3438   -2.6458    0.6312 C   0  0  0  0  0  0  0  0  0  0  0  0
   -4.3811   -1.3049    1.0172 C   0  0  0  0  0  0  0  0  0  0  0  0
   -0.4032   -0.2712   -1.4158 N   0  0  0  0  0  0  0  0  0  0  0  0
    0.6506    0.5876   -0.8444 C   0  0  0  0  0  0  0  0  0  0  0  0
    2.0229   -0.0860   -1.0028 C   0  0  0  0  0  0  0  0  0  0  0  0
    2.3416   -0.2164   -2.3652 O   0  0  0  0  0  0  0  0  0  0  0  0
    3.1113    0.7421   -0.3156 C   0  0  0  0  0  0  0  0  0  0  0  0
    4.3678    0.0821   -0.4499 O   0  0  0  0  0  0  0  0  0  0  0  0
    5.5823    0.5668    0.0634 C   0  0  0  0  0  0  0  0  0  0  0  0
    5.6601    1.7801    0.7772 C   0  0  0  0  0  0  0  0  0  0  0  0
    6.8870    2.2301    1.2729 C   0  0  0  0  0  0  0  0  0  0  0  0
    8.0455    1.4798    1.0641 C   0  0  0  0  0  0  0  0  0  0  0  0
    7.9814    0.2763    0.3584 C   0  0  0  0  0  0  0  0  0  0  0  0
    6.7555   -0.1826   -0.1422 C   0  0  0  0  0  0  0  0  0  0  0  0
    6.7094   -1.4270   -0.8683 C   0  0  0  0  0  0  0  0  0  0  0  0
    6.6718   -2.4260   -1.4513 N   0  0  0  0  0  0  0  0  0  0  0  0
   -3.8170   -0.5421   -1.6655 H   0  0  0  0  0  0  0  0  0  0  0  0
   -2.5673   -1.8372   -1.8176 H   0  0  0  0  0  0  0  0  0  0  0  0
   -2.5993   -0.4585   -2.9717 H   0  0  0  0  0  0  0  0  0  0  0  0
   -1.5587    2.1541   -0.3847 H   0  0  0  0  0  0  0  0  0  0  0  0
   -1.8033    1.9034   -2.1551 H   0  0  0  0  0  0  0  0  0  0  0  0
   -3.1869    1.7528   -1.0217 H   0  0  0  0  0  0  0  0  0  0  0  0
   -1.3718    0.1782    1.1818 H   0  0  0  0  0  0  0  0  0  0  0  0
   -1.6536   -1.4735    0.5938 H   0  0  0  0  0  0  0  0  0  0  0  0
   -3.5615    1.7904    1.6283 H   0  0  0  0  0  0  0  0  0  0  0  0
   -6.0038    1.2275    2.2442 H   0  0  0  0  0  0  0  0  0  0  0  0
   -7.5827   -1.0080    2.1131 H   0  0  0  0  0  0  0  0  0  0  0  0
   -7.5815   -3.4155    1.4358 H   0  0  0  0  0  0  0  0  0  0  0  0
   -5.5226   -4.4494    0.4970 H   0  0  0  0  0  0  0  0  0  0  0  0
   -3.4463   -3.0924    0.2248 H   0  0  0  0  0  0  0  0  0  0  0  0
   -0.3372   -0.1798   -2.4578 H   0  0  0  0  0  0  0  0  0  0  0  0
    0.4799    0.7676    0.2350 H   0  0  0  0  0  0  0  0  0  0  0  0
    0.6642    1.5736   -1.3616 H   0  0  0  0  0  0  0  0  0  0  0  0
    1.9927   -1.0873   -0.5098 H   0  0  0  0  0  0  0  0  0  0  0  0
    1.9737   -1.0873   -2.6685 H   0  0  0  0  0  0  0  0  0  0  0  0
    2.8686    0.8524    0.7642 H   0  0  0  0  0  0  0  0  0  0  0  0
    3.1673    1.7488   -0.7855 H   0  0  0  0  0  0  0  0  0  0  0  0
    4.7797    2.3822    0.9544 H   0  0  0  0  0  0  0  0  0  0  0  0
    6.9394    3.1626    1.8201 H   0  0  0  0  0  0  0  0  0  0  0  0
    8.9940    1.8312    1.4493 H   0  0  0  0  0  0  0  0  0  0  0  0
    8.8876   -0.2970    0.2028 H   0  0  0  0  0  0  0  0  0  0  0  0
  1  2  1  0
  2  3  1  0
  2  4  1  0
  4  5  1  0
  5  6  2  0
  6  7  1  0
  7  8  1  0
  8  9  2  0
  9 10  1  0
 10 11  2  0
 11 12  1  0
 12 13  2  0
  2 14  1  0
 14 15  1  0
 15 16  1  0
 16 17  1  0
 16 18  1  0
 18 19  1  0
 19 20  1  0
 20 21  2  0
 21 22  1  0
 22 23  2  0
 23 24  1  0
 24 25  2  0
 25 26  1  0
 26 27  3  0
 13  5  1  0
 25 20  1  0
 13  8  1  0
  1 28  1  0
  1 29  1  0
  1 30  1  0
  3 31  1  0
  3 32  1  0
  3 33  1  0
  4 34  1  0
  4 35  1  0
  6 36  1  0
  7 37  1  0
  9 38  1  0
 10 39  1  0
 11 40  1  0
 12 41  1  0
 14 42  1  0
 15 43  1  0
 15 44  1  0
 16 45  1  0
 17 46  1  0
 18 47  1  0
 18 48  1  0
 21 49  1  0
 22 50  1  0
 23 51  1  0
 24 52  1  0
M  END
$$$$
