
     RDKit          3D

 24 24  0  0  0  0  0  0  0  0999 V2000
   -1.4847    2.3084    0.1771 O   0  0  0  0  0  0  0  0  0  0  0  0
   -0.7359    1.2136   -0.2872 C   0  0  1  0  0  0  0  0  0  0  0  0
    0.6953    1.2816    0.2877 C   0  0  2  0  0  0  0  0  0  0  0  0
    1.3403    2.4401   -0.1776 O   0  0  0  0  0  0  0  0  0  0  0  0
    1.5153    0.0521   -0.1412 C   0  0  1  0  0  0  0  0  0  0  0  0
    2.7881    0.1269    0.4494 O   0  0  0  0  0  0  0  0  0  0  0  0
    0.8167   -1.2520    0.2927 C   0  0  2  0  0  0  0  0  0  0  0  0
    1.5649   -2.3476   -0.1702 O   0  0  0  0  0  0  0  0  0  0  0  0
   -0.6129   -1.3231   -0.2805 C   0  0  1  0  0  0  0  0  0  0  0  0
   -1.2366   -2.4912    0.1897 O   0  0  0  0  0  0  0  0  0  0  0  0
   -1.4363   -0.0906    0.1443 C   0  0  2  0  0  0  0  0  0  0  0  0
   -2.7070   -0.1622   -0.4514 O   0  0  0  0  0  0  0  0  0  0  0  0
   -1.2991    3.0683   -0.4343 H   0  0  0  0  0  0  0  0  0  0  0  0
   -0.6849    1.2323   -1.4031 H   0  0  0  0  0  0  0  0  0  0  0  0
    0.6418    1.2975    1.4036 H   0  0  0  0  0  0  0  0  0  0  0  0
    1.0801    3.1816    0.4292 H   0  0  0  0  0  0  0  0  0  0  0  0
    1.6134    0.0644   -1.2539 H   0  0  0  0  0  0  0  0  0  0  0  0
    3.3982   -0.4265   -0.1048 H   0  0  0  0  0  0  0  0  0  0  0  0
    0.7681   -1.2710    1.4084 H   0  0  0  0  0  0  0  0  0  0  0  0
    1.3366   -3.1207    0.4094 H   0  0  0  0  0  0  0  0  0  0  0  0
   -0.5436   -1.3534   -1.3949 H   0  0  0  0  0  0  0  0  0  0  0  0
   -1.9600   -2.7130   -0.4531 H   0  0  0  0  0  0  0  0  0  0  0  0
   -1.5384   -0.1028    1.2565 H   0  0  0  0  0  0  0  0  0  0  0  0
   -3.3194    0.3876    0.1040 H   0  0  0  0  0  0  0  0  0  0  0  0
  1  2  1  0
  2  3  1  0
  3  4  1  0
  3  5  1  0
  5  6  1  0
  5  7  1  0
  7  8  1  0
  7  9  1  0
  9 10  1  0
  9 11  1  0
 11 12  1  0
 11  2  1  0
  1 13  1  0
  2 14  1  6
  3 15  1  1
  4 16  1  0
  5 17  1  6
  6 18  1  0
  7 19  1  1
  8 20  1  0
  9 21  1  6
 10 22  1  0
 11 23  1  1
 12 24  1  0
M  END
$$$$
