
     RDKit          3D

125127  0  0  0  0  0  0  0  0999 V2000
   16.4215    1.8099   -0.2655 C   0  0  0  0  0  0  0  0  0  0  0  0
   15.8049    1.8533   -1.6607 C   0  0  0  0  0  0  0  0  0  0  0  0
   14.3681    1.3187   -1.6486 C   0  0  0  0  0  0  0  0  0  0  0  0
   13.7493    1.3758   -3.0533 C   0  0  0  0  0  0  0  0  0  0  0  0
   12.3587    0.7241   -3.1153 C   0  0  0  0  0  0  0  0  0  0  0  0
   11.2853    1.5469   -2.3867 C   0  0  0  0  0  0  0  0  0  0  0  0
    9.8906    0.9406   -2.6027 C   0  0  0  0  0  0  0  0  0  0  0  0
    8.8041    1.6365   -1.7675 C   0  0  0  0  0  0  0  0  0  0  0  0
    8.5032    3.0641   -2.2560 C   0  0  0  0  0  0  0  0  0  0  0  0
    7.3053    3.6964   -1.5152 C   0  0  0  0  0  0  0  0  0  0  0  0
    6.0090    3.7279   -2.3474 C   0  0  0  0  0  0  0  0  0  0  0  0
    5.4101    2.3458   -2.6702 C   0  0  0  0  0  0  0  0  0  0  0  0
    4.9389    1.5456   -1.4439 C   0  0  0  0  0  0  0  0  0  0  0  0
    3.7722    2.1936   -0.7528 C   0  0  0  0  0  0  0  0  0  0  0  0
    3.9556    3.1053    0.0381 O   0  0  0  0  0  0  0  0  0  0  0  0
    2.0974    1.6308   -1.0830 S   0  0  0  0  0  0  0  0  0  0  0  0
    2.1064    0.3312    0.2010 C   0  0  0  0  0  0  0  0  0  0  0  0
    1.8040    0.9235    1.5781 C   0  0  0  0  0  0  0  0  0  0  0  0
    1.7570   -0.1243    2.5968 N   0  0  0  0  0  0  0  0  0  0  0  0
    1.4443    0.1757    3.9632 C   0  0  0  0  0  0  0  0  0  0  0  0
    1.2336    1.3666    4.3206 O   0  0  0  0  0  0  0  0  0  0  0  0
    1.3112   -0.9311    4.9675 C   0  0  0  0  0  0  0  0  0  0  0  0
   -0.1190   -1.4786    4.9965 C   0  0  0  0  0  0  0  0  0  0  0  0
   -0.4797   -2.0736    3.7107 N   0  0  0  0  0  0  0  0  0  0  0  0
   -0.0036   -3.3629    3.2942 C   0  0  0  0  0  0  0  0  0  0  0  0
    0.7523   -4.0315    4.0507 O   0  0  0  0  0  0  0  0  0  0  0  0
   -0.4149   -3.9445    1.9600 C   0  0  2  0  0  0  0  0  0  0  0  0
   -0.5018   -2.9196    1.0010 O   0  0  0  0  0  0  0  0  0  0  0  0
   -1.7559   -4.7522    2.0281 C   0  0  0  0  0  0  0  0  0  0  0  0
   -1.5868   -5.9677    2.9695 C   0  0  0  0  0  0  0  0  0  0  0  0
   -2.0956   -5.2918    0.6190 C   0  0  0  0  0  0  0  0  0  0  0  0
   -2.9423   -3.8923    2.5431 C   0  0  0  0  0  0  0  0  0  0  0  0
   -3.1347   -2.7666    1.7166 O   0  0  0  0  0  0  0  0  0  0  0  0
   -4.4556   -1.8739    2.3197 P   0  0  0  0  0  5  0  0  0  0  0  0
   -4.1288   -1.3898    3.9106 O   0  0  0  0  0  0  0  0  0  0  0  0
   -4.6321   -0.6488    1.4501 O   0  0  0  0  0  0  0  0  0  0  0  0
   -5.8531   -2.8480    2.2593 O   0  0  0  0  0  0  0  0  0  0  0  0
   -7.1564   -1.9299    2.8589 P   0  0  0  0  0  5  0  0  0  0  0  0
   -6.8525   -1.4416    4.4511 O   0  0  0  0  0  0  0  0  0  0  0  0
   -8.3993   -2.7926    2.8579 O   0  0  0  0  0  0  0  0  0  0  0  0
   -7.4204   -0.5470    1.8955 O   0  0  0  0  0  0  0  0  0  0  0  0
   -7.7721   -0.9661    0.5968 C   0  0  0  0  0  0  0  0  0  0  0  0
   -7.9381    0.2606   -0.3055 C   0  0  1  0  0  0  0  0  0  0  0  0
   -8.2684   -0.1505   -1.6131 O   0  0  0  0  0  0  0  0  0  0  0  0
   -9.1757    0.7919   -2.1486 C   0  0  2  0  0  0  0  0  0  0  0  0
   -9.5029    1.8479   -1.0860 C   0  0  2  0  0  0  0  0  0  0  0  0
   -8.8430    3.0652   -1.3507 O   0  0  0  0  0  0  0  0  0  0  0  0
   -9.0263    1.2039    0.1973 C   0  0  2  0  0  0  0  0  0  0  0  0
   -8.4752    2.1478    1.0966 O   0  0  0  0  0  0  0  0  0  0  0  0
   -9.6521    2.5996    2.2461 P   0  0  0  0  0  5  0  0  0  0  0  0
  -10.0597    1.2608    3.2000 O   0  0  0  0  0  0  0  0  0  0  0  0
  -11.0336    3.1991    1.4712 O   0  0  0  0  0  0  0  0  0  0  0  0
   -9.0784    3.6810    3.1325 O   0  0  0  0  0  0  0  0  0  0  0  0
  -10.3967    0.1058   -2.5776 N   0  0  0  0  0  0  0  0  0  0  0  0
  -11.0452   -0.9158   -1.9581 C   0  0  0  0  0  0  0  0  0  0  0  0
  -12.2197   -1.2537   -2.5592 N   0  0  0  0  0  0  0  0  0  0  0  0
  -12.2881   -0.3849   -3.5856 C   0  0  0  0  0  0  0  0  0  0  0  0
  -11.2085    0.4295   -3.5911 C   0  0  0  0  0  0  0  0  0  0  0  0
  -11.0460    1.4232   -4.4981 N   0  0  0  0  0  0  0  0  0  0  0  0
  -12.0165    1.5883   -5.4471 C   0  0  0  0  0  0  0  0  0  0  0  0
  -13.1189    0.7715   -5.4653 N   0  0  0  0  0  0  0  0  0  0  0  0
  -13.2827   -0.2245   -4.5437 C   0  0  0  0  0  0  0  0  0  0  0  0
  -14.4416   -1.0577   -4.5722 N   0  0  0  0  0  0  0  0  0  0  0  0
   17.4600    2.2009   -0.3058 H   0  0  0  0  0  0  0  0  0  0  0  0
   16.4496    0.7654    0.1117 H   0  0  0  0  0  0  0  0  0  0  0  0
   15.8327    2.4381    0.4365 H   0  0  0  0  0  0  0  0  0  0  0  0
   16.4282    1.2399   -2.3474 H   0  0  0  0  0  0  0  0  0  0  0  0
   15.8106    2.9042   -2.0239 H   0  0  0  0  0  0  0  0  0  0  0  0
   13.7633    1.9332   -0.9481 H   0  0  0  0  0  0  0  0  0  0  0  0
   14.3715    0.2666   -1.2876 H   0  0  0  0  0  0  0  0  0  0  0  0
   13.6864    2.4317   -3.3968 H   0  0  0  0  0  0  0  0  0  0  0  0
   14.4134    0.8314   -3.7602 H   0  0  0  0  0  0  0  0  0  0  0  0
   12.0725    0.6302   -4.1860 H   0  0  0  0  0  0  0  0  0  0  0  0
   12.4048   -0.3018   -2.6882 H   0  0  0  0  0  0  0  0  0  0  0  0
   11.5057    1.5666   -1.2983 H   0  0  0  0  0  0  0  0  0  0  0  0
   11.3031    2.5874   -2.7750 H   0  0  0  0  0  0  0  0  0  0  0  0
    9.9157   -0.1311   -2.3059 H   0  0  0  0  0  0  0  0  0  0  0  0
    9.6208    0.9844   -3.6808 H   0  0  0  0  0  0  0  0  0  0  0  0
    7.8846    1.0205   -1.8333 H   0  0  0  0  0  0  0  0  0  0  0  0
    9.1103    1.6617   -0.6987 H   0  0  0  0  0  0  0  0  0  0  0  0
    9.3968    3.6961   -2.0652 H   0  0  0  0  0  0  0  0  0  0  0  0
    8.3312    3.0647   -3.3546 H   0  0  0  0  0  0  0  0  0  0  0  0
    7.1317    3.2127   -0.5308 H   0  0  0  0  0  0  0  0  0  0  0  0
    7.5653    4.7534   -1.2866 H   0  0  0  0  0  0  0  0  0  0  0  0
    6.2140    4.2532   -3.3057 H   0  0  0  0  0  0  0  0  0  0  0  0
    5.2545    4.3440   -1.8150 H   0  0  0  0  0  0  0  0  0  0  0  0
    6.1508    1.7442   -3.2371 H   0  0  0  0  0  0  0  0  0  0  0  0
    4.5428    2.4915   -3.3509 H   0  0  0  0  0  0  0  0  0  0  0  0
    4.6289    0.5377   -1.7940 H   0  0  0  0  0  0  0  0  0  0  0  0
    5.7635    1.3870   -0.7196 H   0  0  0  0  0  0  0  0  0  0  0  0
    3.0831   -0.1991    0.2139 H   0  0  0  0  0  0  0  0  0  0  0  0
    1.3178   -0.4064   -0.0578 H   0  0  0  0  0  0  0  0  0  0  0  0
    2.5904    1.6583    1.8513 H   0  0  0  0  0  0  0  0  0  0  0  0
    0.8226    1.4446    1.5438 H   0  0  0  0  0  0  0  0  0  0  0  0
    1.9388   -1.1192    2.3313 H   0  0  0  0  0  0  0  0  0  0  0  0
    1.5702   -0.5444    5.9768 H   0  0  0  0  0  0  0  0  0  0  0  0
    2.0294   -1.7444    4.7298 H   0  0  0  0  0  0  0  0  0  0  0  0
   -0.2171   -2.2377    5.8023 H   0  0  0  0  0  0  0  0  0  0  0  0
   -0.8246   -0.6514    5.2310 H   0  0  0  0  0  0  0  0  0  0  0  0
   -1.1294   -1.5423    3.0897 H   0  0  0  0  0  0  0  0  0  0  0  0
    0.3871   -4.6526    1.6398 H   0  0  0  0  0  0  0  0  0  0  0  0
    0.4278   -2.6434    0.7872 H   0  0  0  0  0  0  0  0  0  0  0  0
   -1.4099   -5.6418    4.0163 H   0  0  0  0  0  0  0  0  0  0  0  0
   -0.7297   -6.5986    2.6491 H   0  0  0  0  0  0  0  0  0  0  0  0
   -2.5014   -6.5997    2.9652 H   0  0  0  0  0  0  0  0  0  0  0  0
   -3.0235   -5.9034    0.6433 H   0  0  0  0  0  0  0  0  0  0  0  0
   -1.2705   -5.9298    0.2346 H   0  0  0  0  0  0  0  0  0  0  0  0
   -2.2549   -4.4618   -0.1018 H   0  0  0  0  0  0  0  0  0  0  0  0
   -3.8594   -4.5261    2.5501 H   0  0  0  0  0  0  0  0  0  0  0  0
   -2.7372   -3.5791    3.5915 H   0  0  0  0  0  0  0  0  0  0  0  0
   -3.3774   -0.7497    3.8330 H   0  0  0  0  0  0  0  0  0  0  0  0
   -6.6911   -2.2836    4.9473 H   0  0  0  0  0  0  0  0  0  0  0  0
   -8.7289   -1.5357    0.6100 H   0  0  0  0  0  0  0  0  0  0  0  0
   -6.9742   -1.6069    0.1570 H   0  0  0  0  0  0  0  0  0  0  0  0
   -6.9627    0.7976   -0.3490 H   0  0  0  0  0  0  0  0  0  0  0  0
   -8.7010    1.2688   -3.0348 H   0  0  0  0  0  0  0  0  0  0  0  0
  -10.5955    2.0490   -1.0333 H   0  0  0  0  0  0  0  0  0  0  0  0
   -7.8690    2.8827   -1.4190 H   0  0  0  0  0  0  0  0  0  0  0  0
   -9.8566    0.5915    0.6284 H   0  0  0  0  0  0  0  0  0  0  0  0
  -10.7806    1.5851    3.7966 H   0  0  0  0  0  0  0  0  0  0  0  0
  -11.6048    2.4052    1.3155 H   0  0  0  0  0  0  0  0  0  0  0  0
  -10.6787   -1.4045   -1.0651 H   0  0  0  0  0  0  0  0  0  0  0  0
  -11.9155    2.3700   -6.1873 H   0  0  0  0  0  0  0  0  0  0  0  0
  -14.5738   -1.8195   -3.8702 H   0  0  0  0  0  0  0  0  0  0  0  0
  -15.1740   -0.9125   -5.3019 H   0  0  0  0  0  0  0  0  0  0  0  0
  1  2  1  0
  2  3  1  0
  3  4  1  0
  4  5  1  0
  5  6  1  0
  6  7  1  0
  7  8  1  0
  8  9  1  0
  9 10  1  0
 10 11  1  0
 11 12  1  0
 12 13  1  0
 13 14  1  0
 14 15  2  0
 14 16  1  0
 16 17  1  0
 17 18  1  0
 18 19  1  0
 19 20  1  0
 20 21  2  0
 20 22  1  0
 22 23  1  0
 23 24  1  0
 24 25  1  0
 25 26  2  0
 25 27  1  0
 27 28  1  0
 27 29  1  0
 29 30  1  0
 29 31  1  0
 29 32  1  0
 32 33  1  0
 33 34  1  0
 34 35  1  0
 34 36  2  0
 34 37  1  0
 37 38  1  0
 38 39  1  0
 38 40  2  0
 38 41  1  0
 41 42  1  0
 42 43  1  0
 43 44  1  0
 44 45  1  0
 45 46  1  0
 46 47  1  0
 46 48  1  0
 48 49  1  0
 49 50  1  0
 50 51  1  0
 50 52  1  0
 50 53  2  0
 45 54  1  0
 54 55  1  0
 55 56  2  0
 56 57  1  0
 57 58  2  0
 58 59  1  0
 59 60  2  0
 60 61  1  0
 61 62  2  0
 62 63  1  0
 48 43  1  0
 58 54  1  0
 62 57  1  0
  1 64  1  0
  1 65  1  0
  1 66  1  0
  2 67  1  0
  2 68  1  0
  3 69  1  0
  3 70  1  0
  4 71  1  0
  4 72  1  0
  5 73  1  0
  5 74  1  0
  6 75  1  0
  6 76  1  0
  7 77  1  0
  7 78  1  0
  8 79  1  0
  8 80  1  0
  9 81  1  0
  9 82  1  0
 10 83  1  0
 10 84  1  0
 11 85  1  0
 11 86  1  0
 12 87  1  0
 12 88  1  0
 13 89  1  0
 13 90  1  0
 17 91  1  0
 17 92  1  0
 18 93  1  0
 18 94  1  0
 19 95  1  0
 22 96  1  0
 22 97  1  0
 23 98  1  0
 23 99  1  0
 24100  1  0
 27101  1  6
 28102  1  0
 30103  1  0
 30104  1  0
 30105  1  0
 31106  1  0
 31107  1  0
 31108  1  0
 32109  1  0
 32110  1  0
 35111  1  0
 39112  1  0
 42113  1  0
 42114  1  0
 43115  1  6
 45116  1  6
 46117  1  1
 47118  1  0
 48119  1  1
 51120  1  0
 52121  1  0
 55122  1  0
 60123  1  0
 63124  1  0
 63125  1  0
M  END
$$$$
