
     RDKit          3D

 30 31  0  0  0  0  0  0  0  0999 V2000
    4.7684    0.5770    1.6328 N   0  0  0  0  0  0  0  0  0  0  0  0
    4.2804    0.6913   -0.0213 S   0  0  0  0  0  6  0  0  0  0  0  0
    4.6521    2.0444   -0.5602 O   0  0  0  0  0  0  0  0  0  0  0  0
    4.9912   -0.3590   -0.8279 O   0  0  0  0  0  0  0  0  0  0  0  0
    2.5388    0.4569   -0.1415 C   0  0  0  0  0  0  0  0  0  0  0  0
    1.6767    1.5569   -0.1018 C   0  0  0  0  0  0  0  0  0  0  0  0
    0.2964    1.3693   -0.1772 C   0  0  0  0  0  0  0  0  0  0  0  0
   -0.2435    0.0794   -0.2937 C   0  0  0  0  0  0  0  0  0  0  0  0
   -1.6689   -0.0868   -0.2808 N   0  0  0  0  0  0  0  0  0  0  0  0
   -2.4002   -0.6040    0.8638 C   0  0  0  0  0  0  0  0  0  0  0  0
   -3.8925   -0.4100    0.5359 C   0  0  0  0  0  0  0  0  0  0  0  0
   -3.9683    0.5249   -0.6801 C   0  0  0  0  0  0  0  0  0  0  0  0
   -2.5650    0.6046   -1.1301 C   0  0  0  0  0  0  0  0  0  0  0  0
   -2.1949    1.2289   -2.1601 O   0  0  0  0  0  0  0  0  0  0  0  0
    0.6220   -1.0394   -0.3488 C   0  0  0  0  0  0  0  0  0  0  0  0
    2.0101   -0.8348   -0.2559 C   0  0  0  0  0  0  0  0  0  0  0  0
    0.1159   -2.3748   -0.5284 N   0  0  0  0  0  4  0  0  0  0  0  0
    0.8658   -3.4579   -0.1307 O   0  0  0  0  0  1  0  0  0  0  0  0
   -0.9369   -2.5761   -1.1684 O   0  0  0  0  0  0  0  0  0  0  0  0
    4.2193    1.2906    2.1626 H   0  0  0  0  0  0  0  0  0  0  0  0
    4.4580   -0.3587    1.9783 H   0  0  0  0  0  0  0  0  0  0  0  0
    2.0708    2.5598    0.0008 H   0  0  0  0  0  0  0  0  0  0  0  0
   -0.3585    2.2297   -0.1192 H   0  0  0  0  0  0  0  0  0  0  0  0
   -2.1640   -1.6761    1.0314 H   0  0  0  0  0  0  0  0  0  0  0  0
   -2.1322   -0.0188    1.7706 H   0  0  0  0  0  0  0  0  0  0  0  0
   -4.3480   -1.3919    0.2804 H   0  0  0  0  0  0  0  0  0  0  0  0
   -4.4362    0.0227    1.4037 H   0  0  0  0  0  0  0  0  0  0  0  0
   -4.6143    0.0996   -1.4779 H   0  0  0  0  0  0  0  0  0  0  0  0
   -4.3265    1.5336   -0.3823 H   0  0  0  0  0  0  0  0  0  0  0  0
    2.6838   -1.6815   -0.2919 H   0  0  0  0  0  0  0  0  0  0  0  0
  1  2  1  0
  2  3  2  0
  2  4  2  0
  2  5  1  0
  5  6  2  0
  6  7  1  0
  7  8  2  0
  8  9  1  0
  9 10  1  0
 10 11  1  0
 11 12  1  0
 12 13  1  0
 13 14  2  0
  8 15  1  0
 15 16  2  0
 15 17  1  0
 17 18  1  0
 17 19  2  0
 16  5  1  0
 13  9  1  0
  1 20  1  0
  1 21  1  0
  6 22  1  0
  7 23  1  0
 10 24  1  0
 10 25  1  0
 11 26  1  0
 11 27  1  0
 12 28  1  0
 12 29  1  0
 16 30  1  0
M  CHG  2  17   1  18  -1
M  END
$$$$
