
     RDKit          3D

 48 49  0  0  0  0  0  0  0  0999 V2000
    7.3505    1.5574    0.6998 C   0  0  0  0  0  0  0  0  0  0  0  0
    6.1363    1.3403   -0.2023 C   0  0  0  0  0  0  0  0  0  0  0  0
    6.0801   -0.0770   -0.7960 C   0  0  0  0  0  0  0  0  0  0  0  0
    5.8290   -1.1711    0.2532 C   0  0  0  0  0  0  0  0  0  0  0  0
    4.6537   -0.9027    1.0198 O   0  0  0  0  0  0  0  0  0  0  0  0
    3.3318   -1.0326    0.5635 C   0  0  0  0  0  0  0  0  0  0  0  0
    2.3018   -0.5759    1.3914 C   0  0  0  0  0  0  0  0  0  0  0  0
    0.9665   -0.6756    0.9913 C   0  0  0  0  0  0  0  0  0  0  0  0
    0.6334   -1.2394   -0.2548 C   0  0  0  0  0  0  0  0  0  0  0  0
    1.6708   -1.7094   -1.0805 C   0  0  0  0  0  0  0  0  0  0  0  0
    3.0057   -1.6079   -0.6782 C   0  0  0  0  0  0  0  0  0  0  0  0
   -0.7811   -1.3570   -0.6990 C   0  0  0  0  0  0  0  0  0  0  0  0
   -1.0619   -2.1249   -1.6609 O   0  0  0  0  0  0  0  0  0  0  0  0
   -1.8929   -0.6175    0.0085 C   0  0  0  0  0  0  0  0  0  0  0  0
   -3.1715   -0.5127   -0.8383 C   0  0  0  0  0  0  0  0  0  0  0  0
   -4.1678    0.3539   -0.1697 N   0  0  0  0  0  0  0  0  0  0  0  0
   -4.9522   -0.4131    0.8241 C   0  0  0  0  0  0  0  0  0  0  0  0
   -5.9135    0.5124    1.5771 C   0  0  0  0  0  0  0  0  0  0  0  0
   -6.8498    1.2223    0.5971 C   0  0  0  0  0  0  0  0  0  0  0  0
   -6.0458    1.9345   -0.4925 C   0  0  0  0  0  0  0  0  0  0  0  0
   -5.0727    0.9619   -1.1688 C   0  0  0  0  0  0  0  0  0  0  0  0
    7.4067    2.6274    0.9911 H   0  0  0  0  0  0  0  0  0  0  0  0
    8.2859    1.2871    0.1651 H   0  0  0  0  0  0  0  0  0  0  0  0
    7.2642    0.9524    1.6260 H   0  0  0  0  0  0  0  0  0  0  0  0
    5.2063    1.5588    0.3655 H   0  0  0  0  0  0  0  0  0  0  0  0
    6.1916    2.0676   -1.0411 H   0  0  0  0  0  0  0  0  0  0  0  0
    7.0311   -0.2961   -1.3285 H   0  0  0  0  0  0  0  0  0  0  0  0
    5.2698   -0.1053   -1.5542 H   0  0  0  0  0  0  0  0  0  0  0  0
    5.7574   -2.1664   -0.2338 H   0  0  0  0  0  0  0  0  0  0  0  0
    6.6957   -1.2239    0.9437 H   0  0  0  0  0  0  0  0  0  0  0  0
    2.5385   -0.1391    2.3535 H   0  0  0  0  0  0  0  0  0  0  0  0
    0.2009   -0.3215    1.6684 H   0  0  0  0  0  0  0  0  0  0  0  0
    1.4517   -2.1522   -2.0443 H   0  0  0  0  0  0  0  0  0  0  0  0
    3.7707   -1.9854   -1.3410 H   0  0  0  0  0  0  0  0  0  0  0  0
   -2.1069   -1.1457    0.9602 H   0  0  0  0  0  0  0  0  0  0  0  0
   -1.5513    0.4138    0.2442 H   0  0  0  0  0  0  0  0  0  0  0  0
   -3.5882   -1.5270   -1.0361 H   0  0  0  0  0  0  0  0  0  0  0  0
   -2.8768   -0.0807   -1.8223 H   0  0  0  0  0  0  0  0  0  0  0  0
   -4.2786   -0.8776    1.5743 H   0  0  0  0  0  0  0  0  0  0  0  0
   -5.5302   -1.2288    0.3317 H   0  0  0  0  0  0  0  0  0  0  0  0
   -5.3299    1.2665    2.1497 H   0  0  0  0  0  0  0  0  0  0  0  0
   -6.5147   -0.0824    2.2980 H   0  0  0  0  0  0  0  0  0  0  0  0
   -7.4690    1.9638    1.1463 H   0  0  0  0  0  0  0  0  0  0  0  0
   -7.5340    0.4796    0.1304 H   0  0  0  0  0  0  0  0  0  0  0  0
   -5.4746    2.7768   -0.0437 H   0  0  0  0  0  0  0  0  0  0  0  0
   -6.7413    2.3526   -1.2517 H   0  0  0  0  0  0  0  0  0  0  0  0
   -4.4835    1.5436   -1.9117 H   0  0  0  0  0  0  0  0  0  0  0  0
   -5.6419    0.1763   -1.7173 H   0  0  0  0  0  0  0  0  0  0  0  0
  1  2  1  0
  2  3  1  0
  3  4  1  0
  4  5  1  0
  5  6  1  0
  6  7  2  0
  7  8  1  0
  8  9  2  0
  9 10  1  0
 10 11  2  0
  9 12  1  0
 12 13  2  0
 12 14  1  0
 14 15  1  0
 15 16  1  0
 16 17  1  0
 17 18  1  0
 18 19  1  0
 19 20  1  0
 20 21  1  0
 11  6  1  0
 21 16  1  0
  1 22  1  0
  1 23  1  0
  1 24  1  0
  2 25  1  0
  2 26  1  0
  3 27  1  0
  3 28  1  0
  4 29  1  0
  4 30  1  0
  7 31  1  0
  8 32  1  0
 10 33  1  0
 11 34  1  0
 14 35  1  0
 14 36  1  0
 15 37  1  0
 15 38  1  0
 17 39  1  0
 17 40  1  0
 18 41  1  0
 18 42  1  0
 19 43  1  0
 19 44  1  0
 20 45  1  0
 20 46  1  0
 21 47  1  0
 21 48  1  0
M  END
$$$$
