
     RDKit          3D

 53 54  0  0  0  0  0  0  0  0999 V2000
   -0.2302   -0.6338   -0.2831 C   0  0  2  0  0  0  0  0  0  0  0  0
    0.3170   -1.7139   -1.2339 C   0  0  0  0  0  0  0  0  0  0  0  0
   -0.3373   -3.0346   -0.9708 C   0  0  0  0  0  0  0  0  0  0  0  0
    0.1548   -3.8630    0.0327 O   0  0  0  0  0  0  0  0  0  0  0  0
   -1.3548   -3.3788   -1.6297 O   0  0  0  0  0  0  0  0  0  0  0  0
   -1.6238   -0.4428   -0.5422 O   0  0  0  0  0  0  0  0  0  0  0  0
   -2.5015    0.1754    0.3548 C   0  0  0  0  0  0  0  0  0  0  0  0
   -2.1001    0.5449    1.4931 O   0  0  0  0  0  0  0  0  0  0  0  0
   -3.9004    0.3817   -0.0535 C   0  0  0  0  0  0  0  0  0  0  0  0
   -4.8072    0.9478    0.7555 C   0  0  0  0  0  0  0  0  0  0  0  0
   -6.2265    1.1630    0.3797 C   0  0  0  0  0  0  0  0  0  0  0  0
   -7.1722    1.3495    1.4024 C   0  0  0  0  0  0  0  0  0  0  0  0
   -8.5190    1.5649    1.0956 C   0  0  0  0  0  0  0  0  0  0  0  0
   -8.9391    1.6083   -0.2363 C   0  0  0  0  0  0  0  0  0  0  0  0
  -10.2844    1.8232   -0.5272 O   0  0  0  0  0  0  0  0  0  0  0  0
   -8.0038    1.4394   -1.2645 C   0  0  0  0  0  0  0  0  0  0  0  0
   -6.6556    1.2229   -0.9621 C   0  0  0  0  0  0  0  0  0  0  0  0
    0.5325    0.7087   -0.4216 C   0  0  1  0  0  0  0  0  0  0  0  0
    1.9316    0.5255   -0.1943 O   0  0  0  0  0  0  0  0  0  0  0  0
    2.4897    0.2978    1.0702 C   0  0  0  0  0  0  0  0  0  0  0  0
    1.7701    0.3405    2.1046 O   0  0  0  0  0  0  0  0  0  0  0  0
    3.9261    0.0139    1.2088 C   0  0  0  0  0  0  0  0  0  0  0  0
    4.7319   -0.0903    0.1433 C   0  0  0  0  0  0  0  0  0  0  0  0
    6.1820   -0.3917    0.2325 C   0  0  0  0  0  0  0  0  0  0  0  0
    6.9361   -0.1551    1.4002 C   0  0  0  0  0  0  0  0  0  0  0  0
    8.3036   -0.4460    1.4300 C   0  0  0  0  0  0  0  0  0  0  0  0
    8.9390   -0.9667    0.2960 C   0  0  0  0  0  0  0  0  0  0  0  0
   10.3005   -1.2608    0.3160 O   0  0  0  0  0  0  0  0  0  0  0  0
    8.2014   -1.1901   -0.8694 C   0  0  0  0  0  0  0  0  0  0  0  0
    6.8343   -0.8999   -0.9038 C   0  0  0  0  0  0  0  0  0  0  0  0
    0.3214    1.3266   -1.7749 C   0  0  0  0  0  0  0  0  0  0  0  0
   -0.7976    2.1219   -2.0026 O   0  0  0  0  0  0  0  0  0  0  0  0
    1.1324    1.1017   -2.7136 O   0  0  0  0  0  0  0  0  0  0  0  0
   -0.1033   -1.0052    0.7587 H   0  0  0  0  0  0  0  0  0  0  0  0
    0.1393   -1.4216   -2.2914 H   0  0  0  0  0  0  0  0  0  0  0  0
    1.4124   -1.8319   -1.0901 H   0  0  0  0  0  0  0  0  0  0  0  0
   -0.2861   -4.7524    0.2347 H   0  0  0  0  0  0  0  0  0  0  0  0
   -4.1796    0.0323   -1.0374 H   0  0  0  0  0  0  0  0  0  0  0  0
   -4.5100    1.2325    1.7585 H   0  0  0  0  0  0  0  0  0  0  0  0
   -6.8692    1.3199    2.4421 H   0  0  0  0  0  0  0  0  0  0  0  0
   -9.2370    1.6994    1.8947 H   0  0  0  0  0  0  0  0  0  0  0  0
  -10.6200    1.8612   -1.4826 H   0  0  0  0  0  0  0  0  0  0  0  0
   -8.3189    1.4832   -2.2994 H   0  0  0  0  0  0  0  0  0  0  0  0
   -5.9576    1.1284   -1.7820 H   0  0  0  0  0  0  0  0  0  0  0  0
    0.1422    1.4278    0.3315 H   0  0  0  0  0  0  0  0  0  0  0  0
    4.3081   -0.1410    2.2084 H   0  0  0  0  0  0  0  0  0  0  0  0
    4.3049    0.0060   -0.8485 H   0  0  0  0  0  0  0  0  0  0  0  0
    6.4863    0.2747    2.2842 H   0  0  0  0  0  0  0  0  0  0  0  0
    8.8702   -0.2591    2.3335 H   0  0  0  0  0  0  0  0  0  0  0  0
   10.8628   -1.1089    1.1452 H   0  0  0  0  0  0  0  0  0  0  0  0
    8.6882   -1.5882   -1.7507 H   0  0  0  0  0  0  0  0  0  0  0  0
    6.2823   -1.0811   -1.8183 H   0  0  0  0  0  0  0  0  0  0  0  0
   -0.9658    2.5339   -2.9125 H   0  0  0  0  0  0  0  0  0  0  0  0
  1  2  1  0
  2  3  1  0
  3  4  1  0
  3  5  2  0
  1  6  1  0
  6  7  1  0
  7  8  2  0
  7  9  1  0
  9 10  2  0
 10 11  1  0
 11 12  2  0
 12 13  1  0
 13 14  2  0
 14 15  1  0
 14 16  1  0
 16 17  2  0
  1 18  1  0
 18 19  1  0
 19 20  1  0
 20 21  2  0
 20 22  1  0
 22 23  2  0
 23 24  1  0
 24 25  2  0
 25 26  1  0
 26 27  2  0
 27 28  1  0
 27 29  1  0
 29 30  2  0
 18 31  1  0
 31 32  1  0
 31 33  2  0
 17 11  1  0
 30 24  1  0
  1 34  1  1
  2 35  1  0
  2 36  1  0
  4 37  1  0
  9 38  1  0
 10 39  1  0
 12 40  1  0
 13 41  1  0
 15 42  1  0
 16 43  1  0
 17 44  1  0
 18 45  1  1
 22 46  1  0
 23 47  1  0
 25 48  1  0
 26 49  1  0
 28 50  1  0
 29 51  1  0
 30 52  1  0
 32 53  1  0
M  END
$$$$
