
     RDKit          3D

 19 20  0  0  0  0  0  0  0  0999 V2000
    3.6086    0.8879    0.4752 C   0  0  0  0  0  0  0  0  0  0  0  0
    3.2482   -0.2967   -0.8572 S   0  0  0  0  0  0  0  0  0  0  0  0
    1.4821   -0.2488   -0.5703 C   0  0  0  0  0  0  0  0  0  0  0  0
    0.6562    0.6271   -1.1966 N   0  0  0  0  0  0  0  0  0  0  0  0
   -0.5493    0.3130   -0.6861 C   0  0  0  0  0  0  0  0  0  0  0  0
   -0.4359   -0.7101    0.2065 C   0  0  0  0  0  0  0  0  0  0  0  0
    0.8498   -1.0793    0.2906 N   0  0  0  0  0  0  0  0  0  0  0  0
   -1.5356   -1.2327    0.8857 C   0  0  0  0  0  0  0  0  0  0  0  0
   -1.3034   -2.6743    2.1313 Br  0  0  0  0  0  0  0  0  0  0  0  0
   -2.8035   -0.6610    0.6184 C   0  0  0  0  0  0  0  0  0  0  0  0
   -4.3610   -1.3370    1.5228 Br  0  0  0  0  0  0  0  0  0  0  0  0
   -2.9234    0.4091   -0.3152 C   0  0  0  0  0  0  0  0  0  0  0  0
   -4.6432    1.1890   -0.6813 Br  0  0  0  0  0  0  0  0  0  0  0  0
   -1.7752    0.9049   -0.9792 C   0  0  0  0  0  0  0  0  0  0  0  0
   -1.8587    2.3428   -2.2467 Br  0  0  0  0  0  0  0  0  0  0  0  0
    3.1060    1.8563    0.2704 H   0  0  0  0  0  0  0  0  0  0  0  0
    3.2605    0.4834    1.4488 H   0  0  0  0  0  0  0  0  0  0  0  0
    4.7041    1.0545    0.5258 H   0  0  0  0  0  0  0  0  0  0  0  0
    1.2739   -1.8281    0.8818 H   0  0  0  0  0  0  0  0  0  0  0  0
  1  2  1  0
  2  3  1  0
  3  4  2  0
  4  5  1  0
  5  6  2  0
  6  7  1  0
  6  8  1  0
  8  9  1  0
  8 10  2  0
 10 11  1  0
 10 12  1  0
 12 13  1  0
 12 14  2  0
 14 15  1  0
  7  3  1  0
 14  5  1  0
  1 16  1  0
  1 17  1  0
  1 18  1  0
  7 19  1  0
M  END
$$$$
