
     RDKit          3D

 20 21  0  0  0  0  0  0  0  0999 V2000
   -3.6795    0.1944   -0.1884 N   0  0  0  0  0  0  0  0  0  0  0  0
   -2.4005   -0.3863   -0.2014 N   0  0  0  0  0  0  0  0  0  0  0  0
   -1.2306    0.4486   -0.2336 C   0  0  0  0  0  0  0  0  0  0  0  0
   -1.3883    1.7798   -0.4722 N   0  0  0  0  0  0  0  0  0  0  0  0
   -0.3556    2.6181   -0.5494 N   0  0  0  0  0  0  0  0  0  0  0  0
    0.9199    2.1886   -0.3957 C   0  0  0  0  0  0  0  0  0  0  0  0
    1.1677    0.8391   -0.1373 C   0  0  0  0  0  0  0  0  0  0  0  0
    2.4825    0.3805    0.0368 C   0  0  0  0  0  0  0  0  0  0  0  0
    2.7240   -0.9649    0.3154 C   0  0  0  0  0  0  0  0  0  0  0  0
    1.6585   -1.8577    0.4294 C   0  0  0  0  0  0  0  0  0  0  0  0
    0.3436   -1.4151    0.2569 C   0  0  0  0  0  0  0  0  0  0  0  0
    0.0778   -0.0610   -0.0430 C   0  0  0  0  0  0  0  0  0  0  0  0
   -4.3822   -0.5765   -0.2626 H   0  0  0  0  0  0  0  0  0  0  0  0
   -3.8109    0.6282    0.7535 H   0  0  0  0  0  0  0  0  0  0  0  0
   -2.3279   -1.4230   -0.2901 H   0  0  0  0  0  0  0  0  0  0  0  0
    1.7322    2.9013   -0.4685 H   0  0  0  0  0  0  0  0  0  0  0  0
    3.3210    1.0628   -0.0383 H   0  0  0  0  0  0  0  0  0  0  0  0
    3.7392   -1.3150    0.4513 H   0  0  0  0  0  0  0  0  0  0  0  0
    1.8515   -2.8981    0.6579 H   0  0  0  0  0  0  0  0  0  0  0  0
   -0.4423   -2.1437    0.3792 H   0  0  0  0  0  0  0  0  0  0  0  0
  1  2  1  0
  2  3  1  0
  3  4  2  0
  4  5  1  0
  5  6  2  0
  6  7  1  0
  7  8  2  0
  8  9  1  0
  9 10  2  0
 10 11  1  0
 11 12  2  0
 12  3  1  0
 12  7  1  0
  1 13  1  0
  1 14  1  0
  2 15  1  0
  6 16  1  0
  8 17  1  0
  9 18  1  0
 10 19  1  0
 11 20  1  0
M  END
$$$$
