
     RDKit          3D

 76 80  0  0  0  0  0  0  0  0999 V2000
   -3.3576   -1.5191   -0.1313 C   0  0  1  0  0  0  0  0  0  0  0  0
   -2.5624   -0.2581   -0.5042 C   0  0  0  0  0  0  0  0  0  0  0  0
   -1.9306    0.2772    0.6412 O   0  0  0  0  0  0  0  0  0  0  0  0
   -0.2703   -0.1186    0.6259 P   0  0  0  0  0  5  0  0  0  0  0  0
    0.4718    0.6838   -0.6679 O   0  0  0  0  0  0  0  0  0  0  0  0
    0.3417    0.3526    1.9269 O   0  0  0  0  0  0  0  0  0  0  0  0
   -0.0905   -1.8042    0.4536 O   0  0  0  0  0  0  0  0  0  0  0  0
    1.5588   -2.1714    0.6527 P   0  0  0  0  0  5  0  0  0  0  0  0
    1.9947   -1.9520    2.2756 O   0  0  0  0  0  0  0  0  0  0  0  0
    1.7726   -3.6222    0.2849 O   0  0  0  0  0  0  0  0  0  0  0  0
    2.5117   -1.1983   -0.3803 O   0  0  0  0  0  0  0  0  0  0  0  0
    3.8542   -1.1951    0.0585 C   0  0  0  0  0  0  0  0  0  0  0  0
    4.1537    0.0730    0.8761 C   0  0  1  0  0  0  0  0  0  0  0  0
    5.4711   -0.0084    1.3834 O   0  0  0  0  0  0  0  0  0  0  0  0
    6.1905    1.1063    0.9016 C   0  0  1  0  0  0  0  0  0  0  0  0
    7.5621    0.7169    0.5292 N   0  0  0  0  0  4  0  0  0  0  0  0
    8.5999    1.5597    0.8164 C   0  0  0  0  0  0  0  0  0  0  0  0
    9.9033    1.2342    0.4441 C   0  0  0  0  0  0  0  0  0  0  0  0
   10.1472    0.0420   -0.2323 C   0  0  0  0  0  0  0  0  0  0  0  0
    9.0883   -0.8243   -0.5363 C   0  0  0  0  0  0  0  0  0  0  0  0
    7.7883   -0.4518   -0.1495 C   0  0  0  0  0  0  0  0  0  0  0  0
    9.3389   -2.0904   -1.2705 C   0  0  0  0  0  0  0  0  0  0  0  0
   10.6740   -2.1940   -2.4814 S   0  0  0  0  0  1  0  0  0  0  0  0
    8.6218   -3.1497   -1.0607 N   0  0  0  0  0  0  0  0  0  0  0  0
    5.4438    1.6858   -0.2919 C   0  0  2  0  0  0  0  0  0  0  0  0
    5.6397    3.0716   -0.4062 O   0  0  0  0  0  0  0  0  0  0  0  0
    4.0129    1.3484    0.0315 C   0  0  2  0  0  0  0  0  0  0  0  0
    3.4290    2.3728    0.7974 O   0  0  0  0  0  0  0  0  0  0  0  0
   -4.2427   -1.2141    0.9288 O   0  0  0  0  0  0  0  0  0  0  0  0
   -5.5456   -1.5641    0.5191 C   0  0  1  0  0  0  0  0  0  0  0  0
   -6.5159   -0.5856    1.0137 N   0  0  0  0  0  0  0  0  0  0  0  0
   -7.8051   -0.8205    1.3702 C   0  0  0  0  0  0  0  0  0  0  0  0
   -8.4980    0.3124    1.6723 N   0  0  0  0  0  0  0  0  0  0  0  0
   -7.5831    1.2807    1.4772 C   0  0  0  0  0  0  0  0  0  0  0  0
   -7.7157    2.6596    1.5963 C   0  0  0  0  0  0  0  0  0  0  0  0
   -8.9410    3.2648    2.0091 N   0  0  0  0  0  0  0  0  0  0  0  0
   -6.6266    3.4287    1.2953 N   0  0  0  0  0  0  0  0  0  0  0  0
   -5.4446    2.8649    0.8858 C   0  0  0  0  0  0  0  0  0  0  0  0
   -5.3275    1.5081    0.7689 N   0  0  0  0  0  0  0  0  0  0  0  0
   -6.4063    0.7482    1.0769 C   0  0  0  0  0  0  0  0  0  0  0  0
   -5.5799   -1.6329   -0.9992 C   0  0  2  0  0  0  0  0  0  0  0  0
   -6.5348   -2.5879   -1.4209 O   0  0  0  0  0  0  0  0  0  0  0  0
   -7.2002   -2.1232   -2.9235 P   0  0  0  0  0  5  0  0  0  0  0  0
   -8.4001   -0.9516   -2.6817 O   0  0  0  0  0  0  0  0  0  0  0  0
   -6.0016   -1.5235   -3.9609 O   0  0  0  0  0  0  0  0  0  0  0  0
   -7.8319   -3.3362   -3.5662 O   0  0  0  0  0  0  0  0  0  0  0  0
   -4.1637   -2.0513   -1.3274 C   0  0  2  0  0  0  0  0  0  0  0  0
   -4.0367   -3.4500   -1.4504 O   0  0  0  0  0  0  0  0  0  0  0  0
   -2.6410   -2.2935    0.2176 H   0  0  0  0  0  0  0  0  0  0  0  0
   -3.2714    0.5083   -0.8837 H   0  0  0  0  0  0  0  0  0  0  0  0
   -1.8715   -0.4766   -1.3529 H   0  0  0  0  0  0  0  0  0  0  0  0
    0.2288    1.6362   -0.5477 H   0  0  0  0  0  0  0  0  0  0  0  0
    1.3323   -2.4799    2.7887 H   0  0  0  0  0  0  0  0  0  0  0  0
    4.5042   -1.1997   -0.8422 H   0  0  0  0  0  0  0  0  0  0  0  0
    4.1445   -2.1042    0.6361 H   0  0  0  0  0  0  0  0  0  0  0  0
    3.4523    0.1101    1.7370 H   0  0  0  0  0  0  0  0  0  0  0  0
    6.2133    1.8608    1.7226 H   0  0  0  0  0  0  0  0  0  0  0  0
    8.4250    2.4959    1.3332 H   0  0  0  0  0  0  0  0  0  0  0  0
   10.7202    1.9045    0.6784 H   0  0  0  0  0  0  0  0  0  0  0  0
   11.1648   -0.2053   -0.5061 H   0  0  0  0  0  0  0  0  0  0  0  0
    6.9522   -1.0851   -0.4162 H   0  0  0  0  0  0  0  0  0  0  0  0
    7.8468   -3.1852   -0.3622 H   0  0  0  0  0  0  0  0  0  0  0  0
    5.7348    1.1690   -1.2372 H   0  0  0  0  0  0  0  0  0  0  0  0
    6.5507    3.1955   -0.7801 H   0  0  0  0  0  0  0  0  0  0  0  0
    3.4313    1.1954   -0.9080 H   0  0  0  0  0  0  0  0  0  0  0  0
    2.4539    2.1885    0.8185 H   0  0  0  0  0  0  0  0  0  0  0  0
   -5.7833   -2.5628    0.9521 H   0  0  0  0  0  0  0  0  0  0  0  0
   -8.2483   -1.8077    1.3935 H   0  0  0  0  0  0  0  0  0  0  0  0
   -9.0128    4.3034    2.0866 H   0  0  0  0  0  0  0  0  0  0  0  0
   -9.7775    2.6833    2.2387 H   0  0  0  0  0  0  0  0  0  0  0  0
   -4.6003    3.4983    0.6510 H   0  0  0  0  0  0  0  0  0  0  0  0
   -5.7579   -0.6019   -1.3896 H   0  0  0  0  0  0  0  0  0  0  0  0
   -7.9619   -0.2308   -2.1639 H   0  0  0  0  0  0  0  0  0  0  0  0
   -6.0373   -0.5394   -3.8571 H   0  0  0  0  0  0  0  0  0  0  0  0
   -3.8433   -1.5909   -2.2879 H   0  0  0  0  0  0  0  0  0  0  0  0
   -4.3062   -3.8646   -0.5890 H   0  0  0  0  0  0  0  0  0  0  0  0
  1  2  1  0
  2  3  1  0
  3  4  1  0
  4  5  1  0
  4  6  2  0
  4  7  1  0
  7  8  1  0
  8  9  1  0
  8 10  2  0
  8 11  1  0
 11 12  1  0
 12 13  1  0
 13 14  1  0
 14 15  1  0
 15 16  1  0
 16 17  2  0
 17 18  1  0
 18 19  2  0
 19 20  1  0
 20 21  2  0
 20 22  1  0
 22 23  1  0
 22 24  2  3
 15 25  1  0
 25 26  1  0
 25 27  1  0
 27 28  1  0
  1 29  1  0
 29 30  1  0
 30 31  1  0
 31 32  1  0
 32 33  2  0
 33 34  1  0
 34 35  2  0
 35 36  1  0
 35 37  1  0
 37 38  2  0
 38 39  1  0
 39 40  2  0
 30 41  1  0
 41 42  1  0
 42 43  1  0
 43 44  1  0
 43 45  1  0
 43 46  2  0
 41 47  1  0
 47 48  1  0
 47  1  1  0
 27 13  1  0
 40 31  1  0
 21 16  1  0
 40 34  1  0
  1 49  1  1
  2 50  1  0
  2 51  1  0
  5 52  1  0
  9 53  1  0
 12 54  1  0
 12 55  1  0
 13 56  1  1
 15 57  1  1
 17 58  1  0
 18 59  1  0
 19 60  1  0
 21 61  1  0
 24 62  1  0
 25 63  1  6
 26 64  1  0
 27 65  1  6
 28 66  1  0
 30 67  1  1
 32 68  1  0
 36 69  1  0
 36 70  1  0
 38 71  1  0
 41 72  1  6
 44 73  1  0
 45 74  1  0
 47 75  1  6
 48 76  1  0
M  CHG  2  16   1  23  -1
M  END
$$$$
