
     RDKit          3D

 43 44  0  0  0  0  0  0  0  0999 V2000
   -0.5651    2.0498    1.8403 C   0  0  1  0  0  0  0  0  0  0  0  0
    0.6129    1.4245    2.4478 N   0  0  0  0  0  0  0  0  0  0  0  0
    1.8089    1.2150    1.6916 C   0  0  0  0  0  0  0  0  0  0  0  0
    2.0385    1.9092    0.6629 O   0  0  0  0  0  0  0  0  0  0  0  0
    2.6857    0.1929    2.0671 O   0  0  0  0  0  0  0  0  0  0  0  0
    3.6736   -0.3373    1.1860 C   0  0  0  0  0  0  0  0  0  0  0  0
    3.0091   -1.0019    0.0086 C   0  0  0  0  0  0  0  0  0  0  0  0
    2.1859   -2.1221    0.2094 C   0  0  0  0  0  0  0  0  0  0  0  0
    1.5135   -2.7046   -0.8693 C   0  0  0  0  0  0  0  0  0  0  0  0
    1.6566   -2.1724   -2.1536 C   0  0  0  0  0  0  0  0  0  0  0  0
    2.4713   -1.0564   -2.3610 C   0  0  0  0  0  0  0  0  0  0  0  0
    3.1453   -0.4704   -1.2849 C   0  0  0  0  0  0  0  0  0  0  0  0
   -1.0815    1.1999    0.6988 C   0  0  0  0  0  0  0  0  0  0  0  0
   -1.2337   -0.1898    0.8470 C   0  0  0  0  0  0  0  0  0  0  0  0
   -1.6914   -0.9712   -0.2167 C   0  0  0  0  0  0  0  0  0  0  0  0
   -2.0101   -0.3794   -1.4518 C   0  0  0  0  0  0  0  0  0  0  0  0
   -1.8661    1.0114   -1.5949 C   0  0  0  0  0  0  0  0  0  0  0  0
   -1.4097    1.7930   -0.5297 C   0  0  0  0  0  0  0  0  0  0  0  0
   -2.5060   -1.2014   -2.5860 C   0  0  0  0  0  0  0  0  0  0  0  0
   -3.4792   -0.6698   -3.4892 N   0  0  0  0  0  0  0  0  0  0  0  0
   -2.0673   -2.4064   -2.7807 N   0  0  0  0  0  0  0  0  0  0  0  0
   -1.8847    2.3010    3.0806 P   0  0  0  0  0  5  0  0  0  0  0  0
   -1.3071    3.2749    4.3394 O   0  0  0  0  0  0  0  0  0  0  0  0
   -2.4089    0.8151    3.7013 O   0  0  0  0  0  0  0  0  0  0  0  0
   -3.0537    2.9967    2.4215 O   0  0  0  0  0  0  0  0  0  0  0  0
   -0.2740    3.0575    1.4708 H   0  0  0  0  0  0  0  0  0  0  0  0
    0.5357    0.9507    3.3754 H   0  0  0  0  0  0  0  0  0  0  0  0
    4.2757   -1.0909    1.7358 H   0  0  0  0  0  0  0  0  0  0  0  0
    4.3638    0.4728    0.8634 H   0  0  0  0  0  0  0  0  0  0  0  0
    2.0557   -2.5341    1.2025 H   0  0  0  0  0  0  0  0  0  0  0  0
    0.8761   -3.5644   -0.7084 H   0  0  0  0  0  0  0  0  0  0  0  0
    1.1344   -2.6227   -2.9876 H   0  0  0  0  0  0  0  0  0  0  0  0
    2.5767   -0.6419   -3.3552 H   0  0  0  0  0  0  0  0  0  0  0  0
    3.7621    0.4024   -1.4592 H   0  0  0  0  0  0  0  0  0  0  0  0
   -0.9930   -0.6710    1.7866 H   0  0  0  0  0  0  0  0  0  0  0  0
   -1.8135   -2.0356   -0.0633 H   0  0  0  0  0  0  0  0  0  0  0  0
   -2.0876    1.4958   -2.5373 H   0  0  0  0  0  0  0  0  0  0  0  0
   -1.3028    2.8616   -0.6687 H   0  0  0  0  0  0  0  0  0  0  0  0
   -3.7945   -1.2295   -4.3127 H   0  0  0  0  0  0  0  0  0  0  0  0
   -3.9355    0.2525   -3.3140 H   0  0  0  0  0  0  0  0  0  0  0  0
   -1.3466   -2.8556   -2.1740 H   0  0  0  0  0  0  0  0  0  0  0  0
   -0.5921    2.7423    4.7699 H   0  0  0  0  0  0  0  0  0  0  0  0
   -1.6774    0.5097    4.2942 H   0  0  0  0  0  0  0  0  0  0  0  0
  1  2  1  0
  2  3  1  0
  3  4  2  0
  3  5  1  0
  5  6  1  0
  6  7  1  0
  7  8  2  0
  8  9  1  0
  9 10  2  0
 10 11  1  0
 11 12  2  0
  1 13  1  0
 13 14  2  0
 14 15  1  0
 15 16  2  0
 16 17  1  0
 17 18  2  0
 16 19  1  0
 19 20  1  0
 19 21  2  3
  1 22  1  0
 22 23  1  0
 22 24  1  0
 22 25  2  0
 12  7  1  0
 18 13  1  0
  1 26  1  6
  2 27  1  0
  6 28  1  0
  6 29  1  0
  8 30  1  0
  9 31  1  0
 10 32  1  0
 11 33  1  0
 12 34  1  0
 14 35  1  0
 15 36  1  0
 17 37  1  0
 18 38  1  0
 20 39  1  0
 20 40  1  0
 21 41  1  0
 23 42  1  0
 24 43  1  0
M  END
$$$$
