
     RDKit          2D

166172  0  0  0  0  0  0  0  0999 V2000
  -26.0858  -14.7860    0.0000 C   0  0  0  0  0  0  0  0  0  0  0  0
  -24.5872  -14.7206    0.0000 C   0  0  0  0  0  0  0  0  0  0  0  0
  -23.0886  -14.6552    0.0000 C   0  0  0  0  0  0  0  0  0  0  0  0
  -22.3960  -13.3247    0.0000 C   0  0  0  0  0  0  0  0  0  0  0  0
  -23.2020  -12.0596    0.0000 C   0  0  0  0  0  0  0  0  0  0  0  0
  -24.0079  -10.7945    0.0000 C   0  0  0  0  0  0  0  0  0  0  0  0
  -23.3153   -9.4640    0.0000 C   0  0  0  0  0  0  0  0  0  0  0  0
  -21.8167   -9.3985    0.0000 C   0  0  0  0  0  0  0  0  0  0  0  0
  -20.3181   -9.3331    0.0000 C   0  0  0  0  0  0  0  0  0  0  0  0
  -19.6255   -8.0026    0.0000 C   0  0  0  0  0  0  0  0  0  0  0  0
  -20.4315   -6.7375    0.0000 C   0  0  0  0  0  0  0  0  0  0  0  0
  -21.2374   -5.4724    0.0000 C   0  0  0  0  0  0  0  0  0  0  0  0
  -20.5448   -4.1419    0.0000 C   0  0  0  0  0  0  0  0  0  0  0  0
  -19.0462   -4.0765    0.0000 C   0  0  0  0  0  0  0  0  0  0  0  0
  -17.5476   -4.0111    0.0000 C   0  0  0  0  0  0  0  0  0  0  0  0
  -16.8550   -2.6805    0.0000 C   0  0  0  0  0  0  0  0  0  0  0  0
  -17.6610   -1.4155    0.0000 C   0  0  0  0  0  0  0  0  0  0  0  0
  -18.4669   -0.1504    0.0000 C   0  0  0  0  0  0  0  0  0  0  0  0
  -17.7743    1.1802    0.0000 C   0  0  0  0  0  0  0  0  0  0  0  0
  -16.2757    1.2456    0.0000 C   0  0  0  0  0  0  0  0  0  0  0  0
  -14.7771    1.3110    0.0000 C   0  0  0  0  0  0  0  0  0  0  0  0
  -13.2786    1.3764    0.0000 C   0  0  0  0  0  0  0  0  0  0  0  0
  -12.4726    0.1114    0.0000 O   0  0  0  0  0  0  0  0  0  0  0  0
  -12.5860    2.7070    0.0000 O   0  0  0  0  0  0  0  0  0  0  0  0
  -11.0874    2.7724    0.0000 C   0  0  0  0  0  0  0  0  0  0  0  0
   -9.5888    2.8378    0.0000 C   0  0  0  0  0  0  0  0  0  0  0  0
   -8.7392    4.0740    0.0000 O   0  0  0  0  0  0  0  0  0  0  0  0
   -8.7829    1.5727    0.0000 O   0  0  0  0  0  0  0  0  0  0  0  0
   -7.2843    1.6382    0.0000 C   0  0  0  0  0  0  0  0  0  0  0  0
   -5.8985    2.2122    0.0000 C   0  0  0  0  0  0  0  0  0  0  0  0
   -4.7084    1.2990    0.0000 C   0  0  0  0  0  0  0  0  0  0  0  0
   -4.9042    2.7862    0.0000 O   0  0  0  0  0  0  0  0  0  0  0  0
   -3.2595    0.9108    0.0000 C   0  0  0  0  0  0  0  0  0  0  0  0
   -3.2595    2.4108    0.0000 O   0  0  0  0  0  0  0  0  0  0  0  0
   -1.9605    3.1608    0.0000 C   0  0  0  0  0  0  0  0  0  0  0  0
   -0.7626    2.2581    0.0000 O   0  0  0  0  0  0  0  0  0  0  0  0
   -1.9605    4.6608    0.0000 C   0  0  0  0  0  0  0  0  0  0  0  0
   -0.6615    5.4108    0.0000 C   0  0  0  0  0  0  0  0  0  0  0  0
   -0.6615    6.9108    0.0000 C   0  0  0  0  0  0  0  0  0  0  0  0
   -1.9605    7.6608    0.0000 C   0  0  0  0  0  0  0  0  0  0  0  0
   -3.2595    6.9108    0.0000 C   0  0  0  0  0  0  0  0  0  0  0  0
   -3.2595    5.4108    0.0000 C   0  0  0  0  0  0  0  0  0  0  0  0
   -2.5095   -0.3882    0.0000 C   0  0  0  0  0  0  0  0  0  0  0  0
   -2.8978   -1.8371    0.0000 C   0  0  0  0  0  0  0  0  0  0  0  0
   -3.0936   -3.3243    0.0000 C   0  0  0  0  0  0  0  0  0  0  0  0
   -1.8371   -2.8978    0.0000 C   0  0  0  0  0  0  0  0  0  0  0  0
   -3.0658   -3.7581    0.0000 O   0  0  0  0  0  0  0  0  0  0  0  0
   -0.3882   -2.5095    0.0000 C   0  0  0  0  0  0  0  0  0  0  0  0
   -0.0000   -1.0607    0.0000 C   0  0  0  0  0  0  0  0  0  0  0  0
    1.0607    0.0000    0.0000 O   0  0  0  0  0  0  0  0  0  0  0  0
    0.0000    1.0607    0.0000 C   0  0  0  0  0  0  0  0  0  0  0  0
   -1.0607    0.0000    0.0000 C   0  0  0  0  0  0  0  0  0  0  0  0
   -1.0607   -1.5000    0.0000 O   0  0  0  0  0  0  0  0  0  0  0  0
    0.2384   -2.2500    0.0000 C   0  0  0  0  0  0  0  0  0  0  0  0
    1.6192   -1.6639    0.0000 O   0  0  0  0  0  0  0  0  0  0  0  0
    0.2384   -3.7500    0.0000 C   0  0  0  0  0  0  0  0  0  0  0  0
   -4.1968   -2.5871    0.0000 C   0  0  0  0  0  0  0  0  0  0  0  0
   -4.0010   -4.0743    0.0000 O   0  0  0  0  0  0  0  0  0  0  0  0
   -5.6457   -2.1989    0.0000 C   0  0  0  0  0  0  0  0  0  0  0  0
   -5.6457   -3.6989    0.0000 O   0  0  0  0  0  0  0  0  0  0  0  0
   -6.9447   -4.4489    0.0000 C   0  0  0  0  0  0  0  0  0  0  0  0
   -8.2438   -3.6989    0.0000 O   0  0  0  0  0  0  0  0  0  0  0  0
   -6.9447   -5.9489    0.0000 C   0  0  0  0  0  0  0  0  0  0  0  0
   -6.3957   -0.8999    0.0000 C   0  0  0  0  0  0  0  0  0  0  0  0
   -7.4801    0.1510    0.0000 C   0  0  0  0  0  0  0  0  0  0  0  0
   -8.8659   -0.4230    0.0000 C   0  0  0  0  0  0  0  0  0  0  0  0
   -6.0075    0.5490    0.0000 C   0  0  0  0  0  0  0  0  0  0  0  0
   -6.3957    1.9979    0.0000 C   0  0  0  0  0  0  0  0  0  0  0  0
   -7.5075    0.5490    0.0000 C   0  0  0  0  0  0  0  0  0  0  0  0
  -11.1528    4.2710    0.0000 C   0  0  0  0  0  0  0  0  0  0  0  0
  -11.2182    5.7695    0.0000 N   0  0  0  0  0  0  0  0  0  0  0  0
  -12.5488    6.4622    0.0000 C   0  0  0  0  0  0  0  0  0  0  0  0
  -13.9713    5.9863    0.0000 O   0  0  0  0  0  0  0  0  0  0  0  0
  -12.6142    7.9607    0.0000 C   0  0  0  0  0  0  0  0  0  0  0  0
  -11.3491    8.7667    0.0000 C   0  0  0  0  0  0  0  0  0  0  0  0
  -11.4145   10.2652    0.0000 C   0  0  0  0  0  0  0  0  0  0  0  0
  -12.7450   10.9579    0.0000 C   0  0  0  0  0  0  0  0  0  0  0  0
  -14.0101   10.1519    0.0000 C   0  0  0  0  0  0  0  0  0  0  0  0
  -13.9447    8.6533    0.0000 C   0  0  0  0  0  0  0  0  0  0  0  0
  -12.6514    4.2055    0.0000 C   0  0  0  0  0  0  0  0  0  0  0  0
  -13.4573    5.4706    0.0000 C   0  0  0  0  0  0  0  0  0  0  0  0
  -14.9559    5.4052    0.0000 C   0  0  0  0  0  0  0  0  0  0  0  0
  -15.6485    4.0747    0.0000 C   0  0  0  0  0  0  0  0  0  0  0  0
  -14.8426    2.8096    0.0000 C   0  0  0  0  0  0  0  0  0  0  0  0
  -13.3440    2.8750    0.0000 C   0  0  0  0  0  0  0  0  0  0  0  0
  -26.1512  -13.2875    0.0000 H   0  0  0  0  0  0  0  0  0  0  0  0
  -26.0203  -16.2846    0.0000 H   0  0  0  0  0  0  0  0  0  0  0  0
  -27.5843  -14.8515    0.0000 H   0  0  0  0  0  0  0  0  0  0  0  0
  -24.5218  -16.2192    0.0000 H   0  0  0  0  0  0  0  0  0  0  0  0
  -24.8348  -13.2412    0.0000 H   0  0  0  0  0  0  0  0  0  0  0  0
  -22.2827  -15.9203    0.0000 H   0  0  0  0  0  0  0  0  0  0  0  0
  -20.8974  -13.2592    0.0000 H   0  0  0  0  0  0  0  0  0  0  0  0
  -24.5558  -12.7053    0.0000 H   0  0  0  0  0  0  0  0  0  0  0  0
  -21.8481  -11.4139    0.0000 H   0  0  0  0  0  0  0  0  0  0  0  0
  -25.5065  -10.8599    0.0000 H   0  0  0  0  0  0  0  0  0  0  0  0
  -24.1212   -8.1989    0.0000 H   0  0  0  0  0  0  0  0  0  0  0  0
  -21.5691  -10.8780    0.0000 H   0  0  0  0  0  0  0  0  0  0  0  0
  -22.0643   -7.9191    0.0000 H   0  0  0  0  0  0  0  0  0  0  0  0
  -19.5122  -10.5982    0.0000 H   0  0  0  0  0  0  0  0  0  0  0  0
  -18.1269   -7.9372    0.0000 H   0  0  0  0  0  0  0  0  0  0  0  0
  -21.7854   -7.3832    0.0000 H   0  0  0  0  0  0  0  0  0  0  0  0
  -19.0776   -6.0918    0.0000 H   0  0  0  0  0  0  0  0  0  0  0  0
  -22.7360   -5.5379    0.0000 H   0  0  0  0  0  0  0  0  0  0  0  0
  -21.3507   -2.8768    0.0000 H   0  0  0  0  0  0  0  0  0  0  0  0
  -19.2938   -2.5971    0.0000 H   0  0  0  0  0  0  0  0  0  0  0  0
  -18.7986   -5.5559    0.0000 H   0  0  0  0  0  0  0  0  0  0  0  0
  -16.7417   -5.2761    0.0000 H   0  0  0  0  0  0  0  0  0  0  0  0
  -15.3564   -2.6151    0.0000 H   0  0  0  0  0  0  0  0  0  0  0  0
  -16.3071   -0.7697    0.0000 H   0  0  0  0  0  0  0  0  0  0  0  0
  -19.0149   -2.0612    0.0000 H   0  0  0  0  0  0  0  0  0  0  0  0
  -19.9655   -0.2158    0.0000 H   0  0  0  0  0  0  0  0  0  0  0  0
  -18.5802    2.4452    0.0000 H   0  0  0  0  0  0  0  0  0  0  0  0
  -16.3412    2.7442    0.0000 H   0  0  0  0  0  0  0  0  0  0  0  0
  -16.0281   -0.2338    0.0000 H   0  0  0  0  0  0  0  0  0  0  0  0
  -14.7117   -0.1876    0.0000 H   0  0  0  0  0  0  0  0  0  0  0  0
  -15.2032    2.7492    0.0000 H   0  0  0  0  0  0  0  0  0  0  0  0
  -11.0220    1.2738    0.0000 H   0  0  0  0  0  0  0  0  0  0  0  0
   -7.7850    3.0521    0.0000 H   0  0  0  0  0  0  0  0  0  0  0  0
   -4.9243    3.3528    0.0000 H   0  0  0  0  0  0  0  0  0  0  0  0
   -6.5442    3.5661    0.0000 H   0  0  0  0  0  0  0  0  0  0  0  0
   -3.7142    3.6993    0.0000 H   0  0  0  0  0  0  0  0  0  0  0  0
   -1.8688    1.4728    0.0000 H   0  0  0  0  0  0  0  0  0  0  0  0
    0.6376    4.6608    0.0000 H   0  0  0  0  0  0  0  0  0  0  0  0
    0.6376    7.6608    0.0000 H   0  0  0  0  0  0  0  0  0  0  0  0
   -1.9605    9.1608    0.0000 H   0  0  0  0  0  0  0  0  0  0  0  0
   -4.5586    7.6608    0.0000 H   0  0  0  0  0  0  0  0  0  0  0  0
   -4.5586    4.6608    0.0000 H   0  0  0  0  0  0  0  0  0  0  0  0
   -1.7709    0.9173    0.0000 H   0  0  0  0  0  0  0  0  0  0  0  0
   -4.5839   -3.4942    0.0000 H   0  0  0  0  0  0  0  0  0  0  0  0
   -1.8725   -4.1955    0.0000 H   0  0  0  0  0  0  0  0  0  0  0  0
   -3.1066   -4.8242    0.0000 H   0  0  0  0  0  0  0  0  0  0  0  0
   -1.2032   -4.2572    0.0000 H   0  0  0  0  0  0  0  0  0  0  0  0
   -3.1182   -5.2572    0.0000 H   0  0  0  0  0  0  0  0  0  0  0  0
    1.0790   -2.8215    0.0000 H   0  0  0  0  0  0  0  0  0  0  0  0
   -0.6230   -3.9911    0.0000 H   0  0  0  0  0  0  0  0  0  0  0  0
    1.4419   -1.4740    0.0000 H   0  0  0  0  0  0  0  0  0  0  0  0
   -1.1820    1.9841    0.0000 H   0  0  0  0  0  0  0  0  0  0  0  0
    1.0607    2.1213    0.0000 H   0  0  0  0  0  0  0  0  0  0  0  0
    1.7384   -3.7500    0.0000 H   0  0  0  0  0  0  0  0  0  0  0  0
   -1.2170   -4.1130    0.0000 H   0  0  0  0  0  0  0  0  0  0  0  0
    0.2384   -5.2500    0.0000 H   0  0  0  0  0  0  0  0  0  0  0  0
   -7.0946   -2.5871    0.0000 H   0  0  0  0  0  0  0  0  0  0  0  0
   -8.4447   -5.9489    0.0000 H   0  0  0  0  0  0  0  0  0  0  0  0
   -5.4447   -5.9489    0.0000 H   0  0  0  0  0  0  0  0  0  0  0  0
   -6.9447   -7.4489    0.0000 H   0  0  0  0  0  0  0  0  0  0  0  0
   -9.8985    0.6649    0.0000 H   0  0  0  0  0  0  0  0  0  0  0  0
   -8.2919   -1.8089    0.0000 H   0  0  0  0  0  0  0  0  0  0  0  0
  -10.2517   -0.9971    0.0000 H   0  0  0  0  0  0  0  0  0  0  0  0
   -7.7865    1.4360    0.0000 H   0  0  0  0  0  0  0  0  0  0  0  0
   -5.1823    2.8797    0.0000 H   0  0  0  0  0  0  0  0  0  0  0  0
   -6.7839    3.4468    0.0000 H   0  0  0  0  0  0  0  0  0  0  0  0
   -7.5075   -0.9510    0.0000 H   0  0  0  0  0  0  0  0  0  0  0  0
   -8.0451    1.9494    0.0000 H   0  0  0  0  0  0  0  0  0  0  0  0
   -8.9963    0.7319    0.0000 H   0  0  0  0  0  0  0  0  0  0  0  0
   -9.6734    4.5186    0.0000 H   0  0  0  0  0  0  0  0  0  0  0  0
   -9.9532    6.5755    0.0000 H   0  0  0  0  0  0  0  0  0  0  0  0
  -10.0186    8.0741    0.0000 H   0  0  0  0  0  0  0  0  0  0  0  0
  -10.1494   11.0712    0.0000 H   0  0  0  0  0  0  0  0  0  0  0  0
  -12.8105   12.4564    0.0000 H   0  0  0  0  0  0  0  0  0  0  0  0
  -15.3406   10.8445    0.0000 H   0  0  0  0  0  0  0  0  0  0  0  0
  -15.2098    7.8474    0.0000 H   0  0  0  0  0  0  0  0  0  0  0  0
  -13.1072    6.9292    0.0000 H   0  0  0  0  0  0  0  0  0  0  0  0
  -15.7619    6.6703    0.0000 H   0  0  0  0  0  0  0  0  0  0  0  0
  -17.1471    4.0092    0.0000 H   0  0  0  0  0  0  0  0  0  0  0  0
  -16.0789    1.9601    0.0000 H   0  0  0  0  0  0  0  0  0  0  0  0
  -12.8681    1.4525    0.0000 H   0  0  0  0  0  0  0  0  0  0  0  0
  1  2  1  0
  2  3  1  0
  3  4  2  0
  4  5  1  0
  5  6  1  0
  6  7  2  0
  7  8  1  0
  8  9  1  0
  9 10  2  0
 10 11  1  0
 11 12  1  0
 12 13  2  0
 13 14  1  0
 14 15  1  0
 15 16  2  0
 16 17  1  0
 17 18  1  0
 18 19  2  0
 19 20  1  0
 20 21  1  0
 21 22  1  0
 22 23  2  0
 22 24  1  0
 24 25  1  0
 25 26  1  0
 26 27  2  0
 26 28  1  0
 28 29  1  0
 29 30  1  0
 30 31  1  0
 31 32  1  6
 31 33  1  0
 33 34  1  0
 34 35  1  0
 35 36  2  0
 35 37  1  0
 37 38  2  0
 38 39  1  0
 39 40  2  0
 40 41  1  0
 41 42  2  0
 33 43  1  0
 43 44  1  0
 44 45  1  6
 44 46  1  0
 46 47  1  0
 46 48  1  0
 48 49  1  0
 49 50  1  0
 50 51  1  0
 51 52  1  0
 52 53  1  1
 53 54  1  0
 54 55  2  0
 54 56  1  0
 44 57  1  0
 57 58  2  0
 57 59  1  0
 59 60  1  0
 60 61  1  0
 61 62  2  0
 61 63  1  0
 59 64  1  0
 64 65  2  0
 65 66  1  0
 64 67  1  0
 67 68  1  0
 67 69  1  0
 25 70  1  0
 70 71  1  0
 71 72  1  0
 72 73  2  0
 72 74  1  0
 74 75  2  0
 75 76  1  0
 76 77  2  0
 77 78  1  0
 78 79  2  0
 70 80  1  0
 80 81  2  0
 81 82  1  0
 82 83  2  0
 83 84  1  0
 84 85  2  0
 65 29  1  0
 79 74  1  0
 85 80  1  0
 67 31  1  0
 42 37  1  0
 52 43  1  0
 52 49  1  0
  1 86  1  0
  1 87  1  0
  1 88  1  0
  2 89  1  0
  2 90  1  0
  3 91  1  0
  4 92  1  0
  5 93  1  0
  5 94  1  0
  6 95  1  0
  7 96  1  0
  8 97  1  0
  8 98  1  0
  9 99  1  0
 10100  1  0
 11101  1  0
 11102  1  0
 12103  1  0
 13104  1  0
 14105  1  0
 14106  1  0
 15107  1  0
 16108  1  0
 17109  1  0
 17110  1  0
 18111  1  0
 19112  1  0
 20113  1  0
 20114  1  0
 21115  1  0
 21116  1  0
 25117  1  1
 29118  1  6
 30119  1  0
 30120  1  0
 32121  1  0
 33122  1  6
 38123  1  0
 39124  1  0
 40125  1  0
 41126  1  0
 42127  1  0
 43128  1  1
 45129  1  0
 45130  1  0
 45131  1  0
 46132  1  1
 47133  1  0
 48134  1  0
 48135  1  0
 49136  1  1
 51137  1  0
 51138  1  0
 56139  1  0
 56140  1  0
 56141  1  0
 59142  1  1
 63143  1  0
 63144  1  0
 63145  1  0
 66146  1  0
 66147  1  0
 66148  1  0
 68149  1  0
 68150  1  0
 68151  1  0
 69152  1  0
 69153  1  0
 69154  1  0
 70155  1  1
 71156  1  0
 75157  1  0
 76158  1  0
 77159  1  0
 78160  1  0
 79161  1  0
 81162  1  0
 82163  1  0
 83164  1  0
 84165  1  0
 85166  1  0
M  END
$$$$
