
     RDKit          3D

 43 44  0  0  0  0  0  0  0  0999 V2000
   -1.3464   -1.4760   -0.0056 C   0  0  0  0  0  0  0  0  0  0  0  0
   -0.1426   -0.8321    0.6983 C   0  0  2  0  0  0  0  0  0  0  0  0
    0.7795   -1.8478    1.0164 O   0  0  0  0  0  0  0  0  0  0  0  0
   -0.5821   -0.0881    1.9932 C   0  0  0  0  0  0  0  0  0  0  0  0
   -1.2792   -1.1439    3.2713 S   0  0  0  0  0  6  0  0  0  0  0  0
   -1.2280   -0.4141    4.5838 O   0  0  0  0  0  0  0  0  0  0  0  0
   -0.4714   -2.4057    3.3967 O   0  0  0  0  0  0  0  0  0  0  0  0
   -2.9628   -1.5313    2.9184 C   0  0  0  0  0  0  0  0  0  0  0  0
   -3.8906   -0.4967    2.7303 C   0  0  0  0  0  0  0  0  0  0  0  0
   -5.2267   -0.7929    2.4436 C   0  0  0  0  0  0  0  0  0  0  0  0
   -5.6441   -2.1237    2.3483 C   0  0  0  0  0  0  0  0  0  0  0  0
   -6.9398   -2.4098    2.0699 F   0  0  0  0  0  0  0  0  0  0  0  0
   -4.7253   -3.1593    2.5425 C   0  0  0  0  0  0  0  0  0  0  0  0
   -3.3885   -2.8659    2.8295 C   0  0  0  0  0  0  0  0  0  0  0  0
    0.4966    0.1470   -0.2734 C   0  0  0  0  0  0  0  0  0  0  0  0
    0.0755    1.3354   -0.3349 O   0  0  0  0  0  0  0  0  0  0  0  0
    1.4948   -0.3071   -1.2035 N   0  0  0  0  0  0  0  0  0  0  0  0
    2.3301    0.5730   -1.9752 C   0  0  0  0  0  0  0  0  0  0  0  0
    2.7777    1.8001   -1.4551 C   0  0  0  0  0  0  0  0  0  0  0  0
    3.6113    2.6476   -2.2129 C   0  0  0  0  0  0  0  0  0  0  0  0
    4.0101    2.2329   -3.5063 C   0  0  0  0  0  0  0  0  0  0  0  0
    3.5811    0.9987   -4.0092 C   0  0  0  0  0  0  0  0  0  0  0  0
    2.7541    0.1735   -3.2476 C   0  0  0  0  0  0  0  0  0  0  0  0
    4.8675    3.0503   -4.3321 C   0  0  0  0  0  0  0  0  0  0  0  0
    5.5547    3.7050   -4.9943 N   0  0  0  0  0  0  0  0  0  0  0  0
    4.0816    3.9712   -1.6417 C   0  0  0  0  0  0  0  0  0  0  0  0
    5.4622    3.9743   -1.5569 F   0  0  0  0  0  0  0  0  0  0  0  0
    3.6756    5.0039   -2.4677 F   0  0  0  0  0  0  0  0  0  0  0  0
    3.5673    4.2009   -0.3770 F   0  0  0  0  0  0  0  0  0  0  0  0
   -1.7344   -2.3302    0.5843 H   0  0  0  0  0  0  0  0  0  0  0  0
   -1.0479   -1.8763   -0.9988 H   0  0  0  0  0  0  0  0  0  0  0  0
   -2.1617   -0.7353   -0.1538 H   0  0  0  0  0  0  0  0  0  0  0  0
    1.5625   -1.4211    1.4550 H   0  0  0  0  0  0  0  0  0  0  0  0
   -1.3296    0.6963    1.7483 H   0  0  0  0  0  0  0  0  0  0  0  0
    0.2996    0.4290    2.4302 H   0  0  0  0  0  0  0  0  0  0  0  0
   -3.5803    0.5376    2.8058 H   0  0  0  0  0  0  0  0  0  0  0  0
   -5.9377    0.0098    2.2966 H   0  0  0  0  0  0  0  0  0  0  0  0
   -5.0479   -4.1901    2.4706 H   0  0  0  0  0  0  0  0  0  0  0  0
   -2.6893   -3.6789    2.9751 H   0  0  0  0  0  0  0  0  0  0  0  0
    1.5573   -1.3330   -1.3936 H   0  0  0  0  0  0  0  0  0  0  0  0
    2.4944    2.0790   -0.4495 H   0  0  0  0  0  0  0  0  0  0  0  0
    3.8888    0.6715   -4.9955 H   0  0  0  0  0  0  0  0  0  0  0  0
    2.4337   -0.7776   -3.6543 H   0  0  0  0  0  0  0  0  0  0  0  0
  1  2  1  0
  2  3  1  1
  2  4  1  0
  4  5  1  0
  5  6  2  0
  5  7  2  0
  5  8  1  0
  8  9  2  0
  9 10  1  0
 10 11  2  0
 11 12  1  0
 11 13  1  0
 13 14  2  0
  2 15  1  0
 15 16  2  0
 15 17  1  0
 17 18  1  0
 18 19  2  0
 19 20  1  0
 20 21  2  0
 21 22  1  0
 22 23  2  0
 21 24  1  0
 24 25  3  0
 20 26  1  0
 26 27  1  0
 26 28  1  0
 26 29  1  0
 14  8  1  0
 23 18  1  0
  1 30  1  0
  1 31  1  0
  1 32  1  0
  3 33  1  0
  4 34  1  0
  4 35  1  0
  9 36  1  0
 10 37  1  0
 13 38  1  0
 14 39  1  0
 17 40  1  0
 19 41  1  0
 22 42  1  0
 23 43  1  0
M  END
$$$$
