
     RDKit          3D

 88 90  0  0  0  0  0  0  0  0999 V2000
    5.2171   -4.9646    1.9927 C   0  0  0  0  0  0  0  0  0  0  0  0
    5.5619   -3.6655    1.5272 O   0  0  0  0  0  0  0  0  0  0  0  0
    4.6833   -2.5813    1.6015 C   0  0  0  0  0  0  0  0  0  0  0  0
    3.5319   -2.7250    2.0985 O   0  0  0  0  0  0  0  0  0  0  0  0
    5.1049   -1.3035    1.1092 N   0  0  0  0  0  0  0  0  0  0  0  0
    4.2473   -0.1113    1.1895 C   0  0  1  0  0  0  0  0  0  0  0  0
    5.0087    1.2143    0.8797 C   0  0  0  0  0  0  0  0  0  0  0  0
    6.2609    1.3593    1.7337 C   0  0  0  0  0  0  0  0  0  0  0  0
    7.5425    1.0252    1.2479 C   0  0  0  0  0  0  0  0  0  0  0  0
    8.6658    1.1424    2.0717 C   0  0  0  0  0  0  0  0  0  0  0  0
    8.5269    1.5837    3.3889 C   0  0  0  0  0  0  0  0  0  0  0  0
    7.2630    1.9049    3.8872 C   0  0  0  0  0  0  0  0  0  0  0  0
    6.1361    1.7898    3.0682 C   0  0  0  0  0  0  0  0  0  0  0  0
    5.2632    1.5320   -0.5953 C   0  0  0  0  0  0  0  0  0  0  0  0
    5.5675    0.5417   -1.5535 C   0  0  0  0  0  0  0  0  0  0  0  0
    5.8262    0.8932   -2.8817 C   0  0  0  0  0  0  0  0  0  0  0  0
    5.8003    2.2328   -3.2716 C   0  0  0  0  0  0  0  0  0  0  0  0
    5.5204    3.2259   -2.3326 C   0  0  0  0  0  0  0  0  0  0  0  0
    5.2600    2.8805   -1.0037 C   0  0  0  0  0  0  0  0  0  0  0  0
    3.0188   -0.2576    0.3221 C   0  0  0  0  0  0  0  0  0  0  0  0
    3.0335   -1.0351   -0.6717 O   0  0  0  0  0  0  0  0  0  0  0  0
    1.8479    0.5201    0.6090 N   0  0  0  0  0  0  0  0  0  0  0  0
    0.6305    0.4330   -0.1944 C   0  0  0  0  0  0  0  0  0  0  0  0
   -0.1387   -0.8525    0.1398 C   0  0  0  0  0  0  0  0  0  0  0  0
   -1.3464   -1.0804   -0.7831 C   0  0  0  0  0  0  0  0  0  0  0  0
   -2.4983   -0.0990   -0.5029 C   0  0  0  0  0  0  0  0  0  0  0  0
   -3.7378   -0.3660   -1.3966 C   0  0  1  0  0  0  0  0  0  0  0  0
   -4.4777   -1.6579   -0.9966 C   0  0  0  0  0  0  0  0  0  0  0  0
   -5.7224   -1.7244   -1.6370 O   0  0  0  0  0  0  0  0  0  0  0  0
   -4.6734    0.7941   -1.4729 N   0  0  0  0  0  0  0  0  0  0  0  0
   -4.2232    1.8341   -2.4310 C   0  0  0  0  0  0  0  0  0  0  0  0
   -5.1011    1.8457   -3.6999 C   0  0  0  0  0  0  0  0  0  0  0  0
   -6.5723    2.1275   -3.3703 C   0  0  0  0  0  0  0  0  0  0  0  0
   -4.9658    0.5475   -4.5048 C   0  0  0  0  0  0  0  0  0  0  0  0
   -5.1319    1.5121    0.0679 S   0  0  0  0  0  6  0  0  0  0  0  0
   -3.9438    2.1728    0.7112 O   0  0  0  0  0  0  0  0  0  0  0  0
   -6.1715    2.5708   -0.1729 O   0  0  0  0  0  0  0  0  0  0  0  0
   -5.8376    0.3322    1.1678 C   0  0  0  0  0  0  0  0  0  0  0  0
   -7.0785   -0.2422    0.8622 C   0  0  0  0  0  0  0  0  0  0  0  0
   -7.6445   -1.1920    1.7173 C   0  0  0  0  0  0  0  0  0  0  0  0
   -6.9775   -1.5710    2.8908 C   0  0  0  0  0  0  0  0  0  0  0  0
   -7.5551   -2.5442    3.7648 N   0  0  0  0  0  0  0  0  0  0  0  0
   -5.7405   -0.9888    3.2018 C   0  0  0  0  0  0  0  0  0  0  0  0
   -5.1739   -0.0394    2.3461 C   0  0  0  0  0  0  0  0  0  0  0  0
    4.9888   -4.9310    3.0791 H   0  0  0  0  0  0  0  0  0  0  0  0
    4.3356   -5.3466    1.4354 H   0  0  0  0  0  0  0  0  0  0  0  0
    6.0727   -5.6506    1.8261 H   0  0  0  0  0  0  0  0  0  0  0  0
    6.0901   -1.2295    0.7749 H   0  0  0  0  0  0  0  0  0  0  0  0
    3.8927   -0.0354    2.2424 H   0  0  0  0  0  0  0  0  0  0  0  0
    4.3102    2.0112    1.2259 H   0  0  0  0  0  0  0  0  0  0  0  0
    7.6801    0.6690    0.2363 H   0  0  0  0  0  0  0  0  0  0  0  0
    9.6454    0.8865    1.6889 H   0  0  0  0  0  0  0  0  0  0  0  0
    9.3981    1.6721    4.0250 H   0  0  0  0  0  0  0  0  0  0  0  0
    7.1552    2.2406    4.9106 H   0  0  0  0  0  0  0  0  0  0  0  0
    5.1632    2.0351    3.4761 H   0  0  0  0  0  0  0  0  0  0  0  0
    5.6059   -0.5030   -1.2935 H   0  0  0  0  0  0  0  0  0  0  0  0
    6.0512    0.1244   -3.6096 H   0  0  0  0  0  0  0  0  0  0  0  0
    6.0028    2.5015   -4.3003 H   0  0  0  0  0  0  0  0  0  0  0  0
    5.5090    4.2656   -2.6331 H   0  0  0  0  0  0  0  0  0  0  0  0
    5.0571    3.6690   -0.2894 H   0  0  0  0  0  0  0  0  0  0  0  0
    1.8802    1.2160    1.3880 H   0  0  0  0  0  0  0  0  0  0  0  0
    0.8922    0.4654   -1.2745 H   0  0  0  0  0  0  0  0  0  0  0  0
   -0.0047    1.3154    0.0307 H   0  0  0  0  0  0  0  0  0  0  0  0
   -0.4708   -0.8245    1.2007 H   0  0  0  0  0  0  0  0  0  0  0  0
    0.5439   -1.7223    0.0285 H   0  0  0  0  0  0  0  0  0  0  0  0
   -1.0270   -0.9997   -1.8453 H   0  0  0  0  0  0  0  0  0  0  0  0
   -1.7019   -2.1186   -0.6154 H   0  0  0  0  0  0  0  0  0  0  0  0
   -2.7792   -0.1708    0.5690 H   0  0  0  0  0  0  0  0  0  0  0  0
   -2.1359    0.9302   -0.6993 H   0  0  0  0  0  0  0  0  0  0  0  0
   -3.3595   -0.5689   -2.4243 H   0  0  0  0  0  0  0  0  0  0  0  0
   -4.6098   -1.7180    0.1031 H   0  0  0  0  0  0  0  0  0  0  0  0
   -3.8729   -2.5395   -1.3031 H   0  0  0  0  0  0  0  0  0  0  0  0
   -6.1618   -2.5493   -1.3033 H   0  0  0  0  0  0  0  0  0  0  0  0
   -3.1604    1.6925   -2.7306 H   0  0  0  0  0  0  0  0  0  0  0  0
   -4.2561    2.8519   -1.9828 H   0  0  0  0  0  0  0  0  0  0  0  0
   -4.7387    2.6753   -4.3469 H   0  0  0  0  0  0  0  0  0  0  0  0
   -6.6648    3.0946   -2.8324 H   0  0  0  0  0  0  0  0  0  0  0  0
   -7.1661    2.1980   -4.3066 H   0  0  0  0  0  0  0  0  0  0  0  0
   -6.9998    1.3188   -2.7396 H   0  0  0  0  0  0  0  0  0  0  0  0
   -5.5184    0.6366   -5.4643 H   0  0  0  0  0  0  0  0  0  0  0  0
   -3.8984    0.3504   -4.7403 H   0  0  0  0  0  0  0  0  0  0  0  0
   -5.3793   -0.3143   -3.9409 H   0  0  0  0  0  0  0  0  0  0  0  0
   -7.6009    0.0375   -0.0442 H   0  0  0  0  0  0  0  0  0  0  0  0
   -8.6005   -1.6332    1.4651 H   0  0  0  0  0  0  0  0  0  0  0  0
   -7.0658   -2.8330    4.6411 H   0  0  0  0  0  0  0  0  0  0  0  0
   -8.4760   -2.9835    3.5415 H   0  0  0  0  0  0  0  0  0  0  0  0
   -5.2156   -1.2715    4.1056 H   0  0  0  0  0  0  0  0  0  0  0  0
   -4.2171    0.3967    2.6013 H   0  0  0  0  0  0  0  0  0  0  0  0
  1  2  1  0
  2  3  1  0
  3  4  2  0
  3  5  1  0
  5  6  1  0
  6  7  1  0
  7  8  1  0
  8  9  2  0
  9 10  1  0
 10 11  2  0
 11 12  1  0
 12 13  2  0
  7 14  1  0
 14 15  2  0
 15 16  1  0
 16 17  2  0
 17 18  1  0
 18 19  2  0
  6 20  1  0
 20 21  2  0
 20 22  1  0
 22 23  1  0
 23 24  1  0
 24 25  1  0
 25 26  1  0
 26 27  1  0
 27 28  1  0
 28 29  1  0
 27 30  1  0
 30 31  1  0
 31 32  1  0
 32 33  1  0
 32 34  1  0
 30 35  1  0
 35 36  2  0
 35 37  2  0
 35 38  1  0
 38 39  2  0
 39 40  1  0
 40 41  2  0
 41 42  1  0
 41 43  1  0
 43 44  2  0
 13  8  1  0
 19 14  1  0
 44 38  1  0
  1 45  1  0
  1 46  1  0
  1 47  1  0
  5 48  1  0
  6 49  1  1
  7 50  1  0
  9 51  1  0
 10 52  1  0
 11 53  1  0
 12 54  1  0
 13 55  1  0
 15 56  1  0
 16 57  1  0
 17 58  1  0
 18 59  1  0
 19 60  1  0
 22 61  1  0
 23 62  1  0
 23 63  1  0
 24 64  1  0
 24 65  1  0
 25 66  1  0
 25 67  1  0
 26 68  1  0
 26 69  1  0
 27 70  1  6
 28 71  1  0
 28 72  1  0
 29 73  1  0
 31 74  1  0
 31 75  1  0
 32 76  1  0
 33 77  1  0
 33 78  1  0
 33 79  1  0
 34 80  1  0
 34 81  1  0
 34 82  1  0
 39 83  1  0
 40 84  1  0
 42 85  1  0
 42 86  1  0
 43 87  1  0
 44 88  1  0
M  END
$$$$
