
     RDKit          3D

 68 72  0  0  0  0  0  0  0  0999 V2000
    3.9475    5.7682    2.7883 N   0  0  0  0  0  0  0  0  0  0  0  0
    3.9788    4.5800    1.9921 C   0  0  0  0  0  0  0  0  0  0  0  0
    4.2417    3.4806    2.5498 O   0  0  0  0  0  0  0  0  0  0  0  0
    3.6946    4.5984    0.5401 C   0  0  0  0  0  0  0  0  0  0  0  0
    3.6733    5.7672   -0.2050 C   0  0  0  0  0  0  0  0  0  0  0  0
    3.2058    3.4216   -1.4168 Se  0  0  0  0  0  2  0  0  0  0  0  0
    3.2056    3.4204   -1.4175 C   0  0  0  0  0  0  0  0  0  0  0  0
    3.4708    3.4339   -0.0967 N   0  0  0  0  0  0  0  0  0  0  0  0
    2.9728    2.1265   -2.1377 C   0  0  2  0  0  0  0  0  0  0  0  0
    2.0516    1.3433   -1.4086 O   0  0  0  0  0  0  0  0  0  0  0  0
    2.7138    0.1798   -0.9558 C   0  0  2  0  0  0  0  0  0  0  0  0
    2.3692   -0.0505    0.5256 C   0  0  0  0  0  0  0  0  0  0  0  0
    3.0311   -1.1820    1.0566 O   0  0  0  0  0  0  0  0  0  0  0  0
    2.0987   -2.5931    0.8008 P   0  0  0  0  0  5  0  0  0  0  0  0
    2.7089   -3.8145    1.8018 O   0  0  0  0  0  0  0  0  0  0  0  0
    2.2360   -3.0239   -0.6429 O   0  0  0  0  0  0  0  0  0  0  0  0
    0.4665   -2.2935    1.1864 O   0  0  0  0  0  0  0  0  0  0  0  0
   -0.3988   -3.7506    1.0209 P   0  0  0  0  0  5  0  0  0  0  0  0
   -0.0907   -4.4835   -0.4742 O   0  0  0  0  0  0  0  0  0  0  0  0
   -0.0267   -4.7106    2.1305 O   0  0  0  0  0  0  0  0  0  0  0  0
   -2.0614   -3.3800    1.0967 O   0  0  0  0  0  0  0  0  0  0  0  0
   -2.4057   -3.0719    2.4297 C   0  0  0  0  0  0  0  0  0  0  0  0
   -3.6966   -2.2441    2.4576 C   0  0  1  0  0  0  0  0  0  0  0  0
   -3.4461   -0.9753    1.8858 O   0  0  0  0  0  0  0  0  0  0  0  0
   -4.5142   -0.6910    1.0137 C   0  0  2  0  0  0  0  0  0  0  0  0
   -5.0768   -2.0092    0.5130 C   0  0  2  0  0  0  0  0  0  0  0  0
   -6.4330   -1.8819    0.1733 O   0  0  0  0  0  0  0  0  0  0  0  0
   -4.8539   -2.9254    1.7003 C   0  0  2  0  0  0  0  0  0  0  0  0
   -6.0011   -3.0363    2.5121 O   0  0  0  0  0  0  0  0  0  0  0  0
   -4.0553    0.1467   -0.0964 N   0  0  0  0  0  0  0  0  0  0  0  0
   -4.7155    1.1901   -0.6622 C   0  0  0  0  0  0  0  0  0  0  0  0
   -4.0421    1.7575   -1.7011 N   0  0  0  0  0  0  0  0  0  0  0  0
   -2.9226    1.0130   -1.7713 C   0  0  0  0  0  0  0  0  0  0  0  0
   -1.8480    1.1127   -2.6480 C   0  0  0  0  0  0  0  0  0  0  0  0
   -0.8337    0.2075   -2.5113 N   0  0  0  0  0  0  0  0  0  0  0  0
   -0.8701   -0.7652   -1.5451 C   0  0  0  0  0  0  0  0  0  0  0  0
   -1.9291   -0.8503   -0.6843 N   0  0  0  0  0  0  0  0  0  0  0  0
   -2.9323    0.0498   -0.8215 C   0  0  0  0  0  0  0  0  0  0  0  0
   -1.7918    2.1184   -3.6594 N   0  0  0  0  0  0  0  0  0  0  0  0
    4.2176    0.3363   -1.1906 C   0  0  1  0  0  0  0  0  0  0  0  0
    4.8178   -0.8798   -1.5581 O   0  0  0  0  0  0  0  0  0  0  0  0
    4.2753    1.3424   -2.3152 C   0  0  1  0  0  0  0  0  0  0  0  0
    4.3254    0.7218   -3.5805 O   0  0  0  0  0  0  0  0  0  0  0  0
    4.2065    5.7211    3.7988 H   0  0  0  0  0  0  0  0  0  0  0  0
    3.5982    6.6775    2.4169 H   0  0  0  0  0  0  0  0  0  0  0  0
    3.8569    6.7451    0.2149 H   0  0  0  0  0  0  0  0  0  0  0  0
    2.5327    2.3719   -3.1282 H   0  0  0  0  0  0  0  0  0  0  0  0
    2.3329   -0.6715   -1.5581 H   0  0  0  0  0  0  0  0  0  0  0  0
    1.2664   -0.0745    0.6635 H   0  0  0  0  0  0  0  0  0  0  0  0
    2.7087    0.8359    1.1029 H   0  0  0  0  0  0  0  0  0  0  0  0
    3.6682   -3.8800    1.5641 H   0  0  0  0  0  0  0  0  0  0  0  0
   -0.5726   -3.9241   -1.1339 H   0  0  0  0  0  0  0  0  0  0  0  0
   -2.5677   -4.0151    2.9968 H   0  0  0  0  0  0  0  0  0  0  0  0
   -1.6209   -2.4729    2.9498 H   0  0  0  0  0  0  0  0  0  0  0  0
   -3.9732   -2.0949    3.5254 H   0  0  0  0  0  0  0  0  0  0  0  0
   -5.2936   -0.1401    1.5898 H   0  0  0  0  0  0  0  0  0  0  0  0
   -4.4846   -2.3714   -0.3608 H   0  0  0  0  0  0  0  0  0  0  0  0
   -6.6891   -2.7303   -0.2740 H   0  0  0  0  0  0  0  0  0  0  0  0
   -4.5857   -3.9445    1.3439 H   0  0  0  0  0  0  0  0  0  0  0  0
   -6.2510   -2.1265    2.8232 H   0  0  0  0  0  0  0  0  0  0  0  0
   -5.6829    1.5393   -0.3247 H   0  0  0  0  0  0  0  0  0  0  0  0
   -0.0556   -1.4694   -1.4654 H   0  0  0  0  0  0  0  0  0  0  0  0
   -2.5636    2.8130   -3.7710 H   0  0  0  0  0  0  0  0  0  0  0  0
   -0.9695    2.1709   -4.3006 H   0  0  0  0  0  0  0  0  0  0  0  0
    4.7243    0.7709   -0.2955 H   0  0  0  0  0  0  0  0  0  0  0  0
    4.9715   -1.3859   -0.7188 H   0  0  0  0  0  0  0  0  0  0  0  0
    5.1748    1.9903   -2.2113 H   0  0  0  0  0  0  0  0  0  0  0  0
    3.5116    0.1615   -3.6857 H   0  0  0  0  0  0  0  0  0  0  0  0
  1  2  1  0
  2  3  2  0
  2  4  1  0
  4  5  2  0
  5  6  1  0
  6  7  1  0
  7  8  2  0
  7  9  1  0
  9 10  1  0
 10 11  1  0
 11 12  1  0
 12 13  1  0
 13 14  1  0
 14 15  1  0
 14 16  2  0
 14 17  1  0
 17 18  1  0
 18 19  1  0
 18 20  2  0
 18 21  1  0
 21 22  1  0
 22 23  1  0
 23 24  1  0
 24 25  1  0
 25 26  1  0
 26 27  1  0
 26 28  1  0
 28 29  1  0
 25 30  1  0
 30 31  1  0
 31 32  2  0
 32 33  1  0
 33 34  2  0
 34 35  1  0
 35 36  2  0
 36 37  1  0
 37 38  2  0
 34 39  1  0
 11 40  1  0
 40 41  1  0
 40 42  1  0
 42 43  1  0
  8  4  1  0
 42  9  1  0
 28 23  1  0
 38 30  1  0
 38 33  1  0
  1 44  1  0
  1 45  1  0
  5 46  1  0
  9 47  1  6
 11 48  1  6
 12 49  1  0
 12 50  1  0
 15 51  1  0
 19 52  1  0
 22 53  1  0
 22 54  1  0
 23 55  1  1
 25 56  1  1
 26 57  1  6
 27 58  1  0
 28 59  1  6
 29 60  1  0
 31 61  1  0
 36 62  1  0
 39 63  1  0
 39 64  1  0
 40 65  1  1
 41 66  1  0
 42 67  1  1
 43 68  1  0
M  END
$$$$
