
     RDKit          3D

 62 66  0  0  0  0  0  0  0  0999 V2000
    4.6910   -1.3714   -0.5514 C   0  0  1  0  0  0  0  0  0  0  0  0
    5.4256   -1.3555    0.8079 C   0  0  0  0  0  0  0  0  0  0  0  0
    3.1879   -1.6457   -0.3810 C   0  0  0  0  0  0  0  0  0  0  0  0
    2.5753   -0.6407    0.4242 O   0  0  0  0  0  0  0  0  0  0  0  0
    1.2083   -0.5896    0.7294 C   0  0  0  0  0  0  0  0  0  0  0  0
    0.2970   -1.5635    0.2822 C   0  0  0  0  0  0  0  0  0  0  0  0
   -1.0590   -1.4615    0.6050 C   0  0  0  0  0  0  0  0  0  0  0  0
   -1.5302   -0.3866    1.3799 C   0  0  0  0  0  0  0  0  0  0  0  0
   -0.6123    0.5778    1.8311 C   0  0  0  0  0  0  0  0  0  0  0  0
    0.7423    0.4753    1.5061 C   0  0  0  0  0  0  0  0  0  0  0  0
   -3.0056   -0.2329    1.7043 C   0  0  2  0  0  0  0  0  0  0  0  0
   -3.5787   -1.5080    2.0201 O   0  0  0  0  0  0  0  0  0  0  0  0
   -4.4323   -2.2540    1.1920 C   0  0  0  0  0  0  0  0  0  0  0  0
   -4.7283   -1.8646   -0.1305 C   0  0  0  0  0  0  0  0  0  0  0  0
   -3.8765   -0.4947   -0.9164 S   0  0  0  0  0  0  0  0  0  0  0  0
   -3.8104    0.5079    0.6074 C   0  0  2  0  0  0  0  0  0  0  0  0
   -3.2719    1.9032    0.3450 C   0  0  0  0  0  0  0  0  0  0  0  0
   -2.1944    2.1291   -0.5355 C   0  0  0  0  0  0  0  0  0  0  0  0
   -1.6844    3.4176   -0.7165 C   0  0  0  0  0  0  0  0  0  0  0  0
   -2.2329    4.4965   -0.0182 C   0  0  0  0  0  0  0  0  0  0  0  0
   -1.7140    5.7751   -0.2090 O   0  0  0  0  0  0  0  0  0  0  0  0
   -3.2947    4.2813    0.8690 C   0  0  0  0  0  0  0  0  0  0  0  0
   -3.8059    2.9936    1.0545 C   0  0  0  0  0  0  0  0  0  0  0  0
   -5.6810   -2.5768   -0.8696 C   0  0  0  0  0  0  0  0  0  0  0  0
   -6.3052   -3.7039   -0.3191 C   0  0  0  0  0  0  0  0  0  0  0  0
   -7.2456   -4.4244   -1.0519 O   0  0  0  0  0  0  0  0  0  0  0  0
   -5.9777   -4.1144    0.9759 C   0  0  0  0  0  0  0  0  0  0  0  0
   -5.0464   -3.3925    1.7268 C   0  0  0  0  0  0  0  0  0  0  0  0
    4.9183   -0.1633   -1.3885 N   0  0  0  0  0  0  0  0  0  0  0  0
    4.5937    1.1329   -0.7697 C   0  0  0  0  0  0  0  0  0  0  0  0
    5.6056    2.1367   -1.2861 C   0  0  0  0  0  0  0  0  0  0  0  0
    6.8284    1.3048   -1.5913 C   0  0  0  0  0  0  0  0  0  0  0  0
    6.2801   -0.0688   -1.9413 C   0  0  0  0  0  0  0  0  0  0  0  0
    5.0865   -2.2484   -1.1135 H   0  0  0  0  0  0  0  0  0  0  0  0
    6.4688   -0.9958    0.6987 H   0  0  0  0  0  0  0  0  0  0  0  0
    5.4618   -2.3870    1.2186 H   0  0  0  0  0  0  0  0  0  0  0  0
    4.9068   -0.7223    1.5564 H   0  0  0  0  0  0  0  0  0  0  0  0
    2.7081   -1.6643   -1.3840 H   0  0  0  0  0  0  0  0  0  0  0  0
    3.0483   -2.6392    0.0990 H   0  0  0  0  0  0  0  0  0  0  0  0
    0.6251   -2.4015   -0.3174 H   0  0  0  0  0  0  0  0  0  0  0  0
   -1.7375   -2.2229    0.2448 H   0  0  0  0  0  0  0  0  0  0  0  0
   -0.9485    1.4208    2.4222 H   0  0  0  0  0  0  0  0  0  0  0  0
    1.4339    1.2321    1.8543 H   0  0  0  0  0  0  0  0  0  0  0  0
   -3.0885    0.3762    2.6316 H   0  0  0  0  0  0  0  0  0  0  0  0
   -4.8602    0.6070    0.9651 H   0  0  0  0  0  0  0  0  0  0  0  0
   -1.7337    1.3089   -1.0706 H   0  0  0  0  0  0  0  0  0  0  0  0
   -0.8561    3.5765   -1.3954 H   0  0  0  0  0  0  0  0  0  0  0  0
   -2.0887    6.5774    0.2837 H   0  0  0  0  0  0  0  0  0  0  0  0
   -3.7207    5.1100    1.4202 H   0  0  0  0  0  0  0  0  0  0  0  0
   -4.6170    2.8465    1.7570 H   0  0  0  0  0  0  0  0  0  0  0  0
   -5.9183   -2.2703   -1.8808 H   0  0  0  0  0  0  0  0  0  0  0  0
   -7.5035   -4.1536   -1.9938 H   0  0  0  0  0  0  0  0  0  0  0  0
   -6.4542   -4.9866    1.4053 H   0  0  0  0  0  0  0  0  0  0  0  0
   -4.8197   -3.7034    2.7387 H   0  0  0  0  0  0  0  0  0  0  0  0
    4.6570    1.1080    0.3364 H   0  0  0  0  0  0  0  0  0  0  0  0
    3.5662    1.4412   -1.0586 H   0  0  0  0  0  0  0  0  0  0  0  0
    5.2276    2.6047   -2.2220 H   0  0  0  0  0  0  0  0  0  0  0  0
    5.8242    2.9271   -0.5354 H   0  0  0  0  0  0  0  0  0  0  0  0
    7.4186    1.7382   -2.4277 H   0  0  0  0  0  0  0  0  0  0  0  0
    7.4672    1.2332   -0.6833 H   0  0  0  0  0  0  0  0  0  0  0  0
    6.9643   -0.8638   -1.5701 H   0  0  0  0  0  0  0  0  0  0  0  0
    6.2159   -0.1681   -3.0462 H   0  0  0  0  0  0  0  0  0  0  0  0
  1  2  1  0
  1  3  1  0
  3  4  1  0
  4  5  1  0
  5  6  2  0
  6  7  1  0
  7  8  2  0
  8  9  1  0
  9 10  2  0
  8 11  1  0
 11 12  1  0
 12 13  1  0
 13 14  2  0
 14 15  1  0
 15 16  1  0
 16 17  1  0
 17 18  2  0
 18 19  1  0
 19 20  2  0
 20 21  1  0
 20 22  1  0
 22 23  2  0
 14 24  1  0
 24 25  2  0
 25 26  1  0
 25 27  1  0
 27 28  2  0
  1 29  1  0
 29 30  1  0
 30 31  1  0
 31 32  1  0
 32 33  1  0
 10  5  1  0
 16 11  1  0
 23 17  1  0
 33 29  1  0
 28 13  1  0
  1 34  1  6
  2 35  1  0
  2 36  1  0
  2 37  1  0
  3 38  1  0
  3 39  1  0
  6 40  1  0
  7 41  1  0
  9 42  1  0
 10 43  1  0
 11 44  1  1
 16 45  1  1
 18 46  1  0
 19 47  1  0
 21 48  1  0
 22 49  1  0
 23 50  1  0
 24 51  1  0
 26 52  1  0
 27 53  1  0
 28 54  1  0
 30 55  1  0
 30 56  1  0
 31 57  1  0
 31 58  1  0
 32 59  1  0
 32 60  1  0
 33 61  1  0
 33 62  1  0
M  END
$$$$
