
     RDKit          3D

 43 45  0  0  0  0  0  0  0  0999 V2000
    5.7330   -0.1253   -0.0018 C   0  0  0  0  0  0  0  0  0  0  0  0
    5.0188    0.5300   -1.1820 C   0  0  0  0  0  0  0  0  0  0  0  0
    3.5077    0.2779   -1.1649 C   0  0  0  0  0  0  0  0  0  0  0  0
    2.8854    0.9648   -0.0070 N   0  0  0  0  0  0  0  0  0  0  0  0
    1.8095    1.8987   -0.3963 C   0  0  0  0  0  0  0  0  0  0  0  0
    0.5601    1.1699   -0.9351 C   0  0  0  0  0  0  0  0  0  0  0  0
    0.3779   -0.2338   -0.3173 C   0  0  0  0  0  0  0  0  0  0  0  0
    0.9731   -0.2957    1.0953 C   0  0  0  0  0  0  0  0  0  0  0  0
    2.4794    0.0468    1.0889 C   0  0  0  0  0  0  0  0  0  0  0  0
   -1.0724   -0.6377   -0.3080 C   0  0  0  0  0  0  0  0  0  0  0  0
   -1.5412   -1.7065   -1.0032 N   0  0  0  0  0  0  0  0  0  0  0  0
   -2.8519   -1.7062   -0.7027 C   0  0  0  0  0  0  0  0  0  0  0  0
   -3.1548   -0.6692    0.1336 C   0  0  0  0  0  0  0  0  0  0  0  0
   -2.0295    0.0100    0.4028 N   0  0  0  0  0  0  0  0  0  0  0  0
   -4.4532   -0.4668    0.6286 C   0  0  0  0  0  0  0  0  0  0  0  0
   -5.4382   -1.4051    0.2435 C   0  0  0  0  0  0  0  0  0  0  0  0
   -5.1186   -2.4730   -0.6239 C   0  0  0  0  0  0  0  0  0  0  0  0
   -3.8095   -2.6296   -1.1103 C   0  0  0  0  0  0  0  0  0  0  0  0
   -4.8053    0.6626    1.5129 C   0  0  0  0  0  0  0  0  0  0  0  0
   -4.2694    1.9680    1.2908 N   0  0  0  0  0  0  0  0  0  0  0  0
   -5.6264    0.4851    2.4522 O   0  0  0  0  0  0  0  0  0  0  0  0
    5.4029    0.3309    0.9550 H   0  0  0  0  0  0  0  0  0  0  0  0
    5.5275   -1.2167    0.0177 H   0  0  0  0  0  0  0  0  0  0  0  0
    6.8282    0.0271   -0.1015 H   0  0  0  0  0  0  0  0  0  0  0  0
    5.4403    0.1176   -2.1244 H   0  0  0  0  0  0  0  0  0  0  0  0
    5.2139    1.6244   -1.1703 H   0  0  0  0  0  0  0  0  0  0  0  0
    3.1020    0.6567   -2.1298 H   0  0  0  0  0  0  0  0  0  0  0  0
    3.3108   -0.8172   -1.1637 H   0  0  0  0  0  0  0  0  0  0  0  0
    1.5226    2.5023    0.4933 H   0  0  0  0  0  0  0  0  0  0  0  0
    2.1834    2.6221   -1.1540 H   0  0  0  0  0  0  0  0  0  0  0  0
   -0.3241    1.8134   -0.7319 H   0  0  0  0  0  0  0  0  0  0  0  0
    0.6379    1.0673   -2.0395 H   0  0  0  0  0  0  0  0  0  0  0  0
    0.9265   -0.9680   -0.9477 H   0  0  0  0  0  0  0  0  0  0  0  0
    0.4414    0.4266    1.7537 H   0  0  0  0  0  0  0  0  0  0  0  0
    0.8291   -1.3115    1.5250 H   0  0  0  0  0  0  0  0  0  0  0  0
    2.7322    0.5287    2.0575 H   0  0  0  0  0  0  0  0  0  0  0  0
    3.0691   -0.8962    1.0648 H   0  0  0  0  0  0  0  0  0  0  0  0
   -1.9004    0.8266    1.0396 H   0  0  0  0  0  0  0  0  0  0  0  0
   -6.4565   -1.3037    0.5980 H   0  0  0  0  0  0  0  0  0  0  0  0
   -5.8869   -3.1775   -0.9149 H   0  0  0  0  0  0  0  0  0  0  0  0
   -3.5523   -3.4508   -1.7668 H   0  0  0  0  0  0  0  0  0  0  0  0
   -3.7318    2.1883    0.4235 H   0  0  0  0  0  0  0  0  0  0  0  0
   -4.4900    2.7447    1.9528 H   0  0  0  0  0  0  0  0  0  0  0  0
  1  2  1  0
  2  3  1  0
  3  4  1  0
  4  5  1  0
  5  6  1  0
  6  7  1  0
  7  8  1  0
  8  9  1  0
  7 10  1  0
 10 11  2  0
 11 12  1  0
 12 13  2  0
 13 14  1  0
 13 15  1  0
 15 16  2  0
 16 17  1  0
 17 18  2  0
 15 19  1  0
 19 20  1  0
 19 21  2  0
  9  4  1  0
 14 10  1  0
 18 12  1  0
  1 22  1  0
  1 23  1  0
  1 24  1  0
  2 25  1  0
  2 26  1  0
  3 27  1  0
  3 28  1  0
  5 29  1  0
  5 30  1  0
  6 31  1  0
  6 32  1  0
  7 33  1  0
  8 34  1  0
  8 35  1  0
  9 36  1  0
  9 37  1  0
 14 38  1  0
 16 39  1  0
 17 40  1  0
 18 41  1  0
 20 42  1  0
 20 43  1  0
M  END
$$$$
