
     RDKit          3D

 50 53  0  0  0  0  0  0  0  0999 V2000
   -2.4368    0.3772   -2.4385 C   0  0  2  0  0  0  0  0  0  0  0  0
   -3.7464   -0.0748   -2.9163 N   0  0  0  0  0  0  0  0  0  0  0  0
   -1.5213   -0.8202   -2.1209 C   0  0  0  0  0  0  0  0  0  0  0  0
   -0.2508   -0.3571   -1.6687 O   0  0  0  0  0  0  0  0  0  0  0  0
    0.7911   -1.1920   -1.2407 C   0  0  0  0  0  0  0  0  0  0  0  0
    0.6986   -2.5935   -1.2657 C   0  0  0  0  0  0  0  0  0  0  0  0
    1.7445   -3.3522   -0.8477 N   0  0  0  0  0  0  0  0  0  0  0  0
    2.8970   -2.7975   -0.3897 C   0  0  0  0  0  0  0  0  0  0  0  0
    3.0387   -1.4036   -0.3251 C   0  0  0  0  0  0  0  0  0  0  0  0
    4.3162   -0.8364    0.1733 C   0  0  0  0  0  0  0  0  0  0  0  0
    4.4371    0.4082    0.6621 C   0  0  0  0  0  0  0  0  0  0  0  0
    5.7139    0.9772    1.1613 C   0  0  0  0  0  0  0  0  0  0  0  0
    5.8436    2.3728    1.2378 C   0  0  0  0  0  0  0  0  0  0  0  0
    7.0302    2.9359    1.7129 C   0  0  0  0  0  0  0  0  0  0  0  0
    8.0532    2.1359    2.1115 N   0  0  0  0  0  0  0  0  0  0  0  0
    7.9565    0.7816    2.0643 C   0  0  0  0  0  0  0  0  0  0  0  0
    6.7880    0.1758    1.5950 C   0  0  0  0  0  0  0  0  0  0  0  0
    1.9699   -0.6046   -0.7725 C   0  0  0  0  0  0  0  0  0  0  0  0
   -2.6006    1.3470   -1.2477 C   0  0  0  0  0  0  0  0  0  0  0  0
   -3.1743    0.6955   -0.0192 C   0  0  0  0  0  0  0  0  0  0  0  0
   -2.4567    0.0758    1.0006 C   0  0  0  0  0  0  0  0  0  0  0  0
   -3.2983   -0.4330    1.9288 N   0  0  0  0  0  0  0  0  0  0  0  0
   -4.5400   -0.1422    1.5039 C   0  0  0  0  0  0  0  0  0  0  0  0
   -4.5060    0.5458    0.3176 C   0  0  0  0  0  0  0  0  0  0  0  0
   -5.6738    0.9578   -0.3257 C   0  0  0  0  0  0  0  0  0  0  0  0
   -6.9033    0.6433    0.2813 C   0  0  0  0  0  0  0  0  0  0  0  0
   -6.9382   -0.0660    1.5023 C   0  0  0  0  0  0  0  0  0  0  0  0
   -5.7437   -0.4675    2.1278 C   0  0  0  0  0  0  0  0  0  0  0  0
   -1.9551    0.9559   -3.2586 H   0  0  0  0  0  0  0  0  0  0  0  0
   -3.6161   -0.5602   -3.8337 H   0  0  0  0  0  0  0  0  0  0  0  0
   -4.1380   -0.7809   -2.2512 H   0  0  0  0  0  0  0  0  0  0  0  0
   -1.3823   -1.4268   -3.0421 H   0  0  0  0  0  0  0  0  0  0  0  0
   -1.9873   -1.4618   -1.3423 H   0  0  0  0  0  0  0  0  0  0  0  0
   -0.1935   -3.0887   -1.6220 H   0  0  0  0  0  0  0  0  0  0  0  0
    3.7008   -3.4471   -0.0668 H   0  0  0  0  0  0  0  0  0  0  0  0
    5.1790   -1.4875    0.1456 H   0  0  0  0  0  0  0  0  0  0  0  0
    3.5730    1.0577    0.6910 H   0  0  0  0  0  0  0  0  0  0  0  0
    5.0358    3.0228    0.9238 H   0  0  0  0  0  0  0  0  0  0  0  0
    7.1369    4.0112    1.7658 H   0  0  0  0  0  0  0  0  0  0  0  0
    8.7856    0.1725    2.3991 H   0  0  0  0  0  0  0  0  0  0  0  0
    6.7289   -0.9033    1.6004 H   0  0  0  0  0  0  0  0  0  0  0  0
    2.0440    0.4739   -0.7860 H   0  0  0  0  0  0  0  0  0  0  0  0
   -1.6134    1.7894   -0.9925 H   0  0  0  0  0  0  0  0  0  0  0  0
   -3.2546    2.1918   -1.5533 H   0  0  0  0  0  0  0  0  0  0  0  0
   -1.3787   -0.0049    1.0545 H   0  0  0  0  0  0  0  0  0  0  0  0
   -3.0329   -0.9511    2.7958 H   0  0  0  0  0  0  0  0  0  0  0  0
   -5.6414    1.5003   -1.2613 H   0  0  0  0  0  0  0  0  0  0  0  0
   -7.8285    0.9468   -0.1909 H   0  0  0  0  0  0  0  0  0  0  0  0
   -7.8900   -0.3026    1.9598 H   0  0  0  0  0  0  0  0  0  0  0  0
   -5.7603   -1.0120    3.0631 H   0  0  0  0  0  0  0  0  0  0  0  0
  1  2  1  0
  1  3  1  0
  3  4  1  0
  4  5  1  0
  5  6  2  0
  6  7  1  0
  7  8  2  0
  8  9  1  0
  9 10  1  0
 10 11  2  0
 11 12  1  0
 12 13  2  0
 13 14  1  0
 14 15  2  0
 15 16  1  0
 16 17  2  0
  9 18  2  0
  1 19  1  0
 19 20  1  0
 20 21  2  0
 21 22  1  0
 22 23  1  0
 23 24  2  0
 24 25  1  0
 25 26  2  0
 26 27  1  0
 27 28  2  0
 18  5  1  0
 24 20  1  0
 17 12  1  0
 28 23  1  0
  1 29  1  6
  2 30  1  0
  2 31  1  0
  3 32  1  0
  3 33  1  0
  6 34  1  0
  8 35  1  0
 10 36  1  0
 11 37  1  0
 13 38  1  0
 14 39  1  0
 16 40  1  0
 17 41  1  0
 18 42  1  0
 19 43  1  0
 19 44  1  0
 21 45  1  0
 22 46  1  0
 25 47  1  0
 26 48  1  0
 27 49  1  0
 28 50  1  0
M  END
$$$$
