
     RDKit          3D

 30 30  0  0  0  0  0  0  0  0999 V2000
   -3.7232   -2.0401   -1.2784 N   0  0  0  0  0  0  0  0  0  0  0  0
   -3.0884   -0.8631   -0.6932 C   0  0  0  0  0  0  0  0  0  0  0  0
   -1.6155   -1.0955   -0.4849 C   0  0  0  0  0  0  0  0  0  0  0  0
   -0.7869   -0.3816    0.3748 C   0  0  0  0  0  0  0  0  0  0  0  0
   -1.1826    0.7521    1.2829 C   0  0  0  0  0  0  0  0  0  0  0  0
   -0.9685    2.0675    0.6061 C   0  0  0  0  0  0  0  0  0  0  0  0
    0.0481    2.9130    1.0391 O   0  0  0  0  0  0  0  0  0  0  0  0
   -1.7027    2.4083   -0.3598 O   0  0  0  0  0  0  0  0  0  0  0  0
    0.5018   -0.8456    0.1374 C   0  0  0  0  0  0  0  0  0  0  0  0
    1.7882   -0.3257    0.7132 C   0  0  0  0  0  0  0  0  0  0  0  0
    2.4619    0.6439   -0.2609 C   0  0  0  0  0  0  0  0  0  0  0  0
    3.7095    1.2075    0.3408 C   0  0  0  0  0  0  0  0  0  0  0  0
    4.9159    0.5297    0.1964 O   0  0  0  0  0  0  0  0  0  0  0  0
    3.6614    2.2734    1.0113 O   0  0  0  0  0  0  0  0  0  0  0  0
    0.4036   -1.8043   -0.8522 C   0  0  0  0  0  0  0  0  0  0  0  0
   -0.8792   -1.9473   -1.2286 N   0  0  0  0  0  0  0  0  0  0  0  0
   -3.7250   -2.8007   -0.5598 H   0  0  0  0  0  0  0  0  0  0  0  0
   -4.7247   -1.8030   -1.4636 H   0  0  0  0  0  0  0  0  0  0  0  0
   -3.5828   -0.6252    0.2729 H   0  0  0  0  0  0  0  0  0  0  0  0
   -3.2156    0.0025   -1.3781 H   0  0  0  0  0  0  0  0  0  0  0  0
   -2.2465    0.6649    1.5821 H   0  0  0  0  0  0  0  0  0  0  0  0
   -0.5887    0.7101    2.2194 H   0  0  0  0  0  0  0  0  0  0  0  0
    0.2121    3.8034    0.5849 H   0  0  0  0  0  0  0  0  0  0  0  0
    2.4666   -1.1842    0.9110 H   0  0  0  0  0  0  0  0  0  0  0  0
    1.5980    0.1818    1.6821 H   0  0  0  0  0  0  0  0  0  0  0  0
    2.7218    0.1117   -1.2016 H   0  0  0  0  0  0  0  0  0  0  0  0
    1.7681    1.4733   -0.5170 H   0  0  0  0  0  0  0  0  0  0  0  0
    5.7668    0.8898    0.6117 H   0  0  0  0  0  0  0  0  0  0  0  0
    1.2303   -2.3393   -1.3016 H   0  0  0  0  0  0  0  0  0  0  0  0
   -1.2239   -2.5773   -1.9866 H   0  0  0  0  0  0  0  0  0  0  0  0
  1  2  1  0
  2  3  1  0
  3  4  2  0
  4  5  1  0
  5  6  1  0
  6  7  1  0
  6  8  2  0
  4  9  1  0
  9 10  1  0
 10 11  1  0
 11 12  1  0
 12 13  1  0
 12 14  2  0
  9 15  2  0
 15 16  1  0
 16  3  1  0
  1 17  1  0
  1 18  1  0
  2 19  1  0
  2 20  1  0
  5 21  1  0
  5 22  1  0
  7 23  1  0
 10 24  1  0
 10 25  1  0
 11 26  1  0
 11 27  1  0
 13 28  1  0
 15 29  1  0
 16 30  1  0
M  END
$$$$
