
     RDKit          3D

 28 30  0  0  0  0  0  0  0  0999 V2000
   -3.8952   -0.5835   -0.0809 C   0  0  0  0  0  0  0  0  0  0  0  0
   -2.9400    0.4174   -0.5676 N   0  0  0  0  0  0  0  0  0  0  0  0
   -1.5693    0.1496   -0.0905 C   0  0  1  0  0  0  0  0  0  0  0  0
   -0.9590   -1.0826   -0.8328 C   0  0  0  0  0  0  0  0  0  0  0  0
    0.4752   -1.1678   -0.5638 N   0  0  0  0  0  0  0  0  0  0  0  0
    1.3666   -2.1793   -0.7018 C   0  0  0  0  0  0  0  0  0  0  0  0
    1.0483   -3.3461   -1.0538 O   0  0  0  0  0  0  0  0  0  0  0  0
    2.6459   -1.8004   -0.4332 N   0  0  0  0  0  0  0  0  0  0  0  0
    2.5322   -0.4899   -0.1361 C   0  0  0  0  0  0  0  0  0  0  0  0
    3.5190    0.4425    0.1806 C   0  0  0  0  0  0  0  0  0  0  0  0
    3.1042    1.7783    0.3962 C   0  0  0  0  0  0  0  0  0  0  0  0
    1.7344    2.1398    0.2825 C   0  0  0  0  0  0  0  0  0  0  0  0
    0.7710    1.1569   -0.0268 C   0  0  0  0  0  0  0  0  0  0  0  0
   -0.6911    1.4316   -0.2745 C   0  0  0  0  0  0  0  0  0  0  0  0
    1.2288   -0.1257   -0.2283 C   0  0  0  0  0  0  0  0  0  0  0  0
   -3.8416   -0.6882    1.0251 H   0  0  0  0  0  0  0  0  0  0  0  0
   -4.9260   -0.2688   -0.3496 H   0  0  0  0  0  0  0  0  0  0  0  0
   -3.7131   -1.5648   -0.5652 H   0  0  0  0  0  0  0  0  0  0  0  0
   -3.2527    1.3371   -0.1757 H   0  0  0  0  0  0  0  0  0  0  0  0
   -1.5819   -0.0769    1.0012 H   0  0  0  0  0  0  0  0  0  0  0  0
   -1.4465   -2.0188   -0.4887 H   0  0  0  0  0  0  0  0  0  0  0  0
   -1.1152   -0.9770   -1.9280 H   0  0  0  0  0  0  0  0  0  0  0  0
    3.5134   -2.3804   -0.4732 H   0  0  0  0  0  0  0  0  0  0  0  0
    4.5612    0.1591    0.2478 H   0  0  0  0  0  0  0  0  0  0  0  0
    3.8398    2.5351    0.6355 H   0  0  0  0  0  0  0  0  0  0  0  0
    1.4353    3.1704    0.4242 H   0  0  0  0  0  0  0  0  0  0  0  0
   -0.8034    1.8102   -1.3135 H   0  0  0  0  0  0  0  0  0  0  0  0
   -1.0404    2.2225    0.4242 H   0  0  0  0  0  0  0  0  0  0  0  0
  1  2  1  0
  2  3  1  0
  3  4  1  0
  4  5  1  0
  5  6  1  0
  6  7  2  0
  6  8  1  0
  8  9  1  0
  9 10  1  0
 10 11  2  0
 11 12  1  0
 12 13  2  0
 13 14  1  0
 13 15  1  0
 14  3  1  0
 15  5  1  0
 15  9  2  0
  1 16  1  0
  1 17  1  0
  1 18  1  0
  2 19  1  0
  3 20  1  1
  4 21  1  0
  4 22  1  0
  8 23  1  0
 10 24  1  0
 11 25  1  0
 12 26  1  0
 14 27  1  0
 14 28  1  0
M  END
$$$$
