
     RDKit          3D

 23 23  0  0  0  0  0  0  0  0999 V2000
   -1.1028   -1.1337    0.2451 C   0  0  1  0  0  0  0  0  0  0  0  0
   -2.0179   -1.8966   -0.4977 O   0  0  0  0  0  0  0  0  0  0  0  0
    0.2707   -1.1503   -0.4335 C   0  0  0  0  0  0  0  0  0  0  0  0
    1.2555   -0.2668    0.3762 C   0  0  1  0  0  0  0  0  0  0  0  0
    2.4907    0.1303   -0.4441 C   0  0  0  0  0  0  0  0  0  0  0  0
    2.1342    0.9646   -1.5112 O   0  0  0  0  0  0  0  0  0  0  0  0
    0.6678    0.8784    0.9936 O   0  0  0  0  0  0  0  0  0  0  0  0
   -0.4756    1.3493    0.3031 C   0  0  2  0  0  0  0  0  0  0  0  0
   -0.8724    2.5686    0.8734 O   0  0  0  0  0  0  0  0  0  0  0  0
   -1.6278    0.3165    0.3841 C   0  0  2  0  0  0  0  0  0  0  0  0
   -2.3087    0.4576    1.6053 O   0  0  0  0  0  0  0  0  0  0  0  0
   -0.9893   -1.5769    1.2638 H   0  0  0  0  0  0  0  0  0  0  0  0
   -1.7940   -2.8506   -0.3372 H   0  0  0  0  0  0  0  0  0  0  0  0
    0.6570   -2.1920   -0.4845 H   0  0  0  0  0  0  0  0  0  0  0  0
    0.1674   -0.7765   -1.4763 H   0  0  0  0  0  0  0  0  0  0  0  0
    1.6289   -0.9053    1.2072 H   0  0  0  0  0  0  0  0  0  0  0  0
    3.2100    0.6612    0.2191 H   0  0  0  0  0  0  0  0  0  0  0  0
    2.9859   -0.7876   -0.8337 H   0  0  0  0  0  0  0  0  0  0  0  0
    2.9776    1.1753   -1.9898 H   0  0  0  0  0  0  0  0  0  0  0  0
   -0.2198    1.5345   -0.7673 H   0  0  0  0  0  0  0  0  0  0  0  0
   -1.5354    2.9730    0.2543 H   0  0  0  0  0  0  0  0  0  0  0  0
   -2.3272    0.5447   -0.4551 H   0  0  0  0  0  0  0  0  0  0  0  0
   -3.1748   -0.0176    1.5054 H   0  0  0  0  0  0  0  0  0  0  0  0
  1  2  1  0
  1  3  1  0
  3  4  1  0
  4  5  1  0
  5  6  1  0
  4  7  1  0
  7  8  1  0
  8  9  1  0
  8 10  1  0
 10 11  1  0
 10  1  1  0
  1 12  1  1
  2 13  1  0
  3 14  1  0
  3 15  1  0
  4 16  1  1
  5 17  1  0
  5 18  1  0
  6 19  1  0
  8 20  1  6
  9 21  1  0
 10 22  1  6
 11 23  1  0
M  END
$$$$
