
     RDKit          3D

 70 73  0  0  0  0  0  0  0  0999 V2000
    5.2539   -2.2168   -2.0177 O   0  0  0  0  0  0  0  0  0  0  0  0
    5.2983   -1.7583   -0.6878 C   0  0  2  0  0  0  0  0  0  0  0  0
    4.5740   -0.4412   -0.6062 C   0  0  0  0  0  0  0  0  0  0  0  0
    4.2549    0.1084    0.5797 C   0  0  0  0  0  0  0  0  0  0  0  0
    3.4661    1.3934    0.7450 C   0  0  1  0  0  0  0  0  0  0  0  0
    3.6374    2.3846   -0.4270 C   0  0  0  0  0  0  0  0  0  0  0  0
    2.0061    1.1122    1.2407 C   0  0  1  0  0  0  0  0  0  0  0  0
    1.1203    2.3667    1.4320 C   0  0  0  0  0  0  0  0  0  0  0  0
   -0.3369    1.8971    1.2954 C   0  0  0  0  0  0  0  0  0  0  0  0
   -0.2482    0.3735    1.2037 C   0  0  1  0  0  0  0  0  0  0  0  0
   -1.3713   -0.4180    0.5672 C   0  0  0  0  0  0  0  0  0  0  0  0
   -1.0604   -1.8740    0.2551 C   0  0  0  0  0  0  0  0  0  0  0  0
    0.2556   -2.3520    0.9108 C   0  0  0  0  0  0  0  0  0  0  0  0
    1.4722   -1.4090    0.7014 C   0  0  0  0  0  0  0  0  0  0  0  0
    1.0924    0.0932    0.4970 C   0  0  2  0  0  0  0  0  0  0  0  0
    1.0078    0.4066   -1.0270 C   0  0  0  0  0  0  0  0  0  0  0  0
   -2.5962    0.1092    0.3766 C   0  0  0  0  0  0  0  0  0  0  0  0
   -3.7047   -0.6262   -0.2755 C   0  0  0  0  0  0  0  0  0  0  0  0
   -4.9925   -0.2264   -0.2413 C   0  0  0  0  0  0  0  0  0  0  0  0
   -6.0158   -0.9113   -1.1132 C   0  0  0  0  0  0  0  0  0  0  0  0
   -6.8661    0.1262   -1.8685 C   0  0  1  0  0  0  0  0  0  0  0  0
   -7.8797   -0.5261   -2.5876 O   0  0  0  0  0  0  0  0  0  0  0  0
   -7.5138    1.1232   -0.8894 C   0  0  0  0  0  0  0  0  0  0  0  0
   -6.4830    1.8542   -0.0026 C   0  0  2  0  0  0  0  0  0  0  0  0
   -5.8121    2.8566   -0.7260 O   0  0  0  0  0  0  0  0  0  0  0  0
   -5.4959    0.8826    0.6114 C   0  0  0  0  0  0  0  0  0  0  0  0
   -5.1617    0.9824    1.9039 C   0  0  0  0  0  0  0  0  0  0  0  0
    6.7458   -1.5870   -0.1716 C   0  0  0  0  0  0  0  0  0  0  0  0
    7.7590   -1.0343   -1.1647 C   0  0  0  0  0  0  0  0  0  0  0  0
    7.8174   -2.4996   -0.7538 C   0  0  0  0  0  0  0  0  0  0  0  0
    5.1456   -3.2032   -1.9862 H   0  0  0  0  0  0  0  0  0  0  0  0
    4.7739   -2.4809   -0.0177 H   0  0  0  0  0  0  0  0  0  0  0  0
    4.2903    0.0452   -1.5332 H   0  0  0  0  0  0  0  0  0  0  0  0
    4.5273   -0.4206    1.4896 H   0  0  0  0  0  0  0  0  0  0  0  0
    3.9628    1.9099    1.5972 H   0  0  0  0  0  0  0  0  0  0  0  0
    4.7073    2.4337   -0.7233 H   0  0  0  0  0  0  0  0  0  0  0  0
    3.3569    3.4122   -0.1184 H   0  0  0  0  0  0  0  0  0  0  0  0
    3.0494    2.1070   -1.3186 H   0  0  0  0  0  0  0  0  0  0  0  0
    2.1434    0.6996    2.2696 H   0  0  0  0  0  0  0  0  0  0  0  0
    1.3080    3.1403    0.6620 H   0  0  0  0  0  0  0  0  0  0  0  0
    1.2970    2.8172    2.4333 H   0  0  0  0  0  0  0  0  0  0  0  0
   -0.7848    2.3246    0.3715 H   0  0  0  0  0  0  0  0  0  0  0  0
   -0.9438    2.2093    2.1733 H   0  0  0  0  0  0  0  0  0  0  0  0
   -0.1832    0.0104    2.2576 H   0  0  0  0  0  0  0  0  0  0  0  0
   -1.8778   -2.5203    0.6429 H   0  0  0  0  0  0  0  0  0  0  0  0
   -1.0038   -2.0194   -0.8442 H   0  0  0  0  0  0  0  0  0  0  0  0
    0.5055   -3.3662    0.5310 H   0  0  0  0  0  0  0  0  0  0  0  0
    0.0755   -2.4561    2.0038 H   0  0  0  0  0  0  0  0  0  0  0  0
    2.1351   -1.5216    1.5862 H   0  0  0  0  0  0  0  0  0  0  0  0
    2.0594   -1.7810   -0.1659 H   0  0  0  0  0  0  0  0  0  0  0  0
    1.9535    0.1423   -1.5355 H   0  0  0  0  0  0  0  0  0  0  0  0
    0.7885    1.4767   -1.2189 H   0  0  0  0  0  0  0  0  0  0  0  0
    0.2186   -0.1837   -1.5303 H   0  0  0  0  0  0  0  0  0  0  0  0
   -2.7819    1.1287    0.6831 H   0  0  0  0  0  0  0  0  0  0  0  0
   -3.4510   -1.4861   -0.8830 H   0  0  0  0  0  0  0  0  0  0  0  0
   -5.5325   -1.5838   -1.8561 H   0  0  0  0  0  0  0  0  0  0  0  0
   -6.6715   -1.5364   -0.4686 H   0  0  0  0  0  0  0  0  0  0  0  0
   -6.2158    0.6890   -2.5779 H   0  0  0  0  0  0  0  0  0  0  0  0
   -7.4473   -0.9475   -3.3761 H   0  0  0  0  0  0  0  0  0  0  0  0
   -8.2249    0.5735   -0.2330 H   0  0  0  0  0  0  0  0  0  0  0  0
   -8.1026    1.8730   -1.4616 H   0  0  0  0  0  0  0  0  0  0  0  0
   -7.0592    2.3616    0.8028 H   0  0  0  0  0  0  0  0  0  0  0  0
   -5.2128    2.4160   -1.3830 H   0  0  0  0  0  0  0  0  0  0  0  0
   -5.5504    1.7830    2.5203 H   0  0  0  0  0  0  0  0  0  0  0  0
   -4.5117    0.2543    2.3721 H   0  0  0  0  0  0  0  0  0  0  0  0
    6.9145   -1.2840    0.8842 H   0  0  0  0  0  0  0  0  0  0  0  0
    8.5540   -0.4075   -0.7082 H   0  0  0  0  0  0  0  0  0  0  0  0
    7.3978   -0.8668   -2.2014 H   0  0  0  0  0  0  0  0  0  0  0  0
    7.5145   -3.2010   -1.5582 H   0  0  0  0  0  0  0  0  0  0  0  0
    8.6534   -2.7312   -0.0605 H   0  0  0  0  0  0  0  0  0  0  0  0
  1  2  1  0
  2  3  1  0
  3  4  2  0
  4  5  1  0
  5  6  1  0
  5  7  1  0
  7  8  1  0
  8  9  1  0
  9 10  1  0
 10 11  1  0
 11 12  1  0
 12 13  1  0
 13 14  1  0
 14 15  1  0
 15 16  1  6
 11 17  2  0
 17 18  1  0
 18 19  2  0
 19 20  1  0
 20 21  1  0
 21 22  1  0
 21 23  1  0
 23 24  1  0
 24 25  1  0
 24 26  1  0
 26 27  2  3
  2 28  1  0
 28 29  1  0
 29 30  1  0
 15  7  1  0
 26 19  1  0
 30 28  1  0
 15 10  1  0
  1 31  1  0
  2 32  1  1
  3 33  1  0
  4 34  1  0
  5 35  1  1
  6 36  1  0
  6 37  1  0
  6 38  1  0
  7 39  1  1
  8 40  1  0
  8 41  1  0
  9 42  1  0
  9 43  1  0
 10 44  1  1
 12 45  1  0
 12 46  1  0
 13 47  1  0
 13 48  1  0
 14 49  1  0
 14 50  1  0
 16 51  1  0
 16 52  1  0
 16 53  1  0
 17 54  1  0
 18 55  1  0
 20 56  1  0
 20 57  1  0
 21 58  1  6
 22 59  1  0
 23 60  1  0
 23 61  1  0
 24 62  1  1
 25 63  1  0
 27 64  1  0
 27 65  1  0
 28 66  1  0
 29 67  1  0
 29 68  1  0
 30 69  1  0
 30 70  1  0
M  END
$$$$
