
     RDKit          3D

110118  0  0  0  0  0  0  0  0999 V2000
   -3.1877    1.2637   -0.2105 C   0  0  2  0  0  0  0  0  0  0  0  0
   -2.5550    2.4523   -0.8538 N   0  0  0  0  0  0  0  0  0  0  0  0
   -1.9513    2.0541   -2.1370 C   0  0  0  0  0  0  0  0  0  0  0  0
   -2.2079    0.5778   -2.3606 C   0  0  0  0  0  0  0  0  0  0  0  0
   -2.6849    0.0160   -1.0225 C   0  0  1  0  0  0  0  0  0  0  0  0
   -1.5541   -0.6127   -0.2480 C   0  0  0  0  0  0  0  0  0  0  0  0
   -1.9218   -1.8282    0.2349 C   0  0  0  0  0  0  0  0  0  0  0  0
   -1.1014   -2.5336    1.1138 C   0  0  0  0  0  0  0  0  0  0  0  0
    0.1422   -1.9827    1.5005 C   0  0  0  0  0  0  0  0  0  0  0  0
    0.9629   -2.6564    2.4208 O   0  0  0  0  0  0  0  0  0  0  0  0
    0.6559   -3.9060    3.0299 C   0  0  0  0  0  0  0  0  0  0  0  0
    0.5606   -0.7142    0.9763 C   0  0  0  0  0  0  0  0  0  0  0  0
   -0.3470   -0.0249    0.1278 C   0  0  0  0  0  0  0  0  0  0  0  0
    1.9444   -0.1027    1.3602 C   0  0  1  0  0  0  0  0  0  0  0  0
    3.0652   -1.0780    0.8303 C   0  0  0  0  0  0  0  0  0  0  0  0
    4.5831   -0.6848    0.8560 C   0  0  2  0  0  0  0  0  0  0  0  0
    5.0228    0.4921   -0.0417 C   0  0  0  0  0  0  0  0  0  0  0  0
    4.9084    0.2043   -1.4875 N   0  0  0  0  0  0  0  0  0  0  0  0
    4.9986   -1.2130   -1.8915 C   0  0  0  0  0  0  0  0  0  0  0  0
    5.9569   -2.0050   -0.9708 C   0  0  2  0  0  0  0  0  0  0  0  0
    7.2320   -1.4136   -1.1040 O   0  0  0  0  0  0  0  0  0  0  0  0
    6.0075   -3.4767   -1.4743 C   0  0  0  0  0  0  0  0  0  0  0  0
    6.9878   -4.3738   -0.7116 C   0  0  0  0  0  0  0  0  0  0  0  0
    5.4621   -1.9278    0.5177 C   0  0  0  0  0  0  0  0  0  0  0  0
    3.9349    1.0094   -2.2530 C   0  0  0  0  0  0  0  0  0  0  0  0
    2.4746    0.8917   -1.7725 C   0  0  0  0  0  0  0  0  0  0  0  0
    2.2227    1.7263   -0.5451 C   0  0  0  0  0  0  0  0  0  0  0  0
    2.0854    1.3302    0.8075 C   0  0  0  0  0  0  0  0  0  0  0  0
    1.8696    2.4388    1.5703 N   0  0  0  0  0  0  0  0  0  0  0  0
    1.8863    3.4947    0.7445 C   0  0  0  0  0  0  0  0  0  0  0  0
    1.6843    4.8318    1.0857 C   0  0  0  0  0  0  0  0  0  0  0  0
    1.7117    5.7861    0.0534 C   0  0  0  0  0  0  0  0  0  0  0  0
    1.9318    5.3857   -1.2821 C   0  0  0  0  0  0  0  0  0  0  0  0
    2.1258    4.0284   -1.5948 C   0  0  0  0  0  0  0  0  0  0  0  0
    2.0985    3.1046   -0.5469 C   0  0  0  0  0  0  0  0  0  0  0  0
    1.9972   -0.0294    2.8856 C   0  0  0  0  0  0  0  0  0  0  0  0
    3.0978   -0.0809    3.4993 O   0  0  0  0  0  0  0  0  0  0  0  0
    0.8134    0.1781    3.6060 O   0  0  0  0  0  0  0  0  0  0  0  0
    0.7823    0.2685    5.0245 C   0  0  0  0  0  0  0  0  0  0  0  0
   -3.1794   -2.2543   -0.2730 N   0  0  0  0  0  0  0  0  0  0  0  0
   -3.4904   -3.6841   -0.3878 C   0  0  0  0  0  0  0  0  0  0  0  0
   -3.6376   -1.2275   -1.2345 C   0  0  1  0  0  0  0  0  0  0  0  0
   -5.1531   -0.8833   -1.1721 C   0  0  2  0  0  0  0  0  0  0  0  0
   -5.4551   -0.1490   -2.3391 O   0  0  0  0  0  0  0  0  0  0  0  0
   -5.4209   -0.0236    0.0978 C   0  0  2  0  0  0  0  0  0  0  0  0
   -6.7931    0.0721    0.4181 O   0  0  0  0  0  0  0  0  0  0  0  0
   -4.7461    1.3888    0.0670 C   0  0  1  0  0  0  0  0  0  0  0  0
   -5.0125    2.1043    1.4471 C   0  0  0  0  0  0  0  0  0  0  0  0
   -4.7522    1.2749    2.7156 C   0  0  0  0  0  0  0  0  0  0  0  0
   -5.3836    2.2741   -0.9987 C   0  0  0  0  0  0  0  0  0  0  0  0
   -4.7482    3.3445   -1.4744 C   0  0  0  0  0  0  0  0  0  0  0  0
   -3.3777    3.6707   -0.9787 C   0  0  0  0  0  0  0  0  0  0  0  0
   -5.9947   -2.1570   -1.1652 C   0  0  0  0  0  0  0  0  0  0  0  0
   -6.2725   -2.8476   -2.3859 N   0  0  0  0  0  0  0  0  0  0  0  0
   -6.4164   -2.6418   -0.0795 O   0  0  0  0  0  0  0  0  0  0  0  0
   -2.7265    1.2142    0.7974 H   0  0  0  0  0  0  0  0  0  0  0  0
   -0.8578    2.2449   -2.0906 H   0  0  0  0  0  0  0  0  0  0  0  0
   -2.3517    2.6293   -3.0035 H   0  0  0  0  0  0  0  0  0  0  0  0
   -1.2978    0.0616   -2.7402 H   0  0  0  0  0  0  0  0  0  0  0  0
   -3.0054    0.4779   -3.1294 H   0  0  0  0  0  0  0  0  0  0  0  0
   -1.4364   -3.4849    1.5016 H   0  0  0  0  0  0  0  0  0  0  0  0
   -0.2765   -3.8211    3.6268 H   0  0  0  0  0  0  0  0  0  0  0  0
    1.4860   -4.1903    3.7083 H   0  0  0  0  0  0  0  0  0  0  0  0
    0.5468   -4.6927    2.2538 H   0  0  0  0  0  0  0  0  0  0  0  0
   -0.1665    0.9745   -0.2184 H   0  0  0  0  0  0  0  0  0  0  0  0
    2.7887   -1.4761   -0.1549 H   0  0  0  0  0  0  0  0  0  0  0  0
    3.0059   -1.9826    1.4658 H   0  0  0  0  0  0  0  0  0  0  0  0
    4.8364   -0.3933    1.8946 H   0  0  0  0  0  0  0  0  0  0  0  0
    6.0993    0.6754    0.1672 H   0  0  0  0  0  0  0  0  0  0  0  0
    4.5689    1.4539    0.2482 H   0  0  0  0  0  0  0  0  0  0  0  0
    5.3934   -1.2524   -2.9311 H   0  0  0  0  0  0  0  0  0  0  0  0
    3.9977   -1.6869   -1.9248 H   0  0  0  0  0  0  0  0  0  0  0  0
    7.8442   -1.8131   -0.4343 H   0  0  0  0  0  0  0  0  0  0  0  0
    4.9927   -3.9271   -1.4030 H   0  0  0  0  0  0  0  0  0  0  0  0
    6.2984   -3.4917   -2.5478 H   0  0  0  0  0  0  0  0  0  0  0  0
    6.7829   -4.3594    0.3786 H   0  0  0  0  0  0  0  0  0  0  0  0
    8.0355   -4.0583   -0.8968 H   0  0  0  0  0  0  0  0  0  0  0  0
    6.8802   -5.4193   -1.0696 H   0  0  0  0  0  0  0  0  0  0  0  0
    4.9164   -2.8595    0.7819 H   0  0  0  0  0  0  0  0  0  0  0  0
    6.3414   -1.9244    1.1986 H   0  0  0  0  0  0  0  0  0  0  0  0
    4.2557    2.0733   -2.2318 H   0  0  0  0  0  0  0  0  0  0  0  0
    3.9739    0.7105   -3.3237 H   0  0  0  0  0  0  0  0  0  0  0  0
    1.8202    1.2850   -2.5799 H   0  0  0  0  0  0  0  0  0  0  0  0
    2.1541   -0.1539   -1.6532 H   0  0  0  0  0  0  0  0  0  0  0  0
    1.6808    2.4876    2.5957 H   0  0  0  0  0  0  0  0  0  0  0  0
    1.5083    5.1271    2.1119 H   0  0  0  0  0  0  0  0  0  0  0  0
    1.5591    6.8324    0.2837 H   0  0  0  0  0  0  0  0  0  0  0  0
    1.9467    6.1266   -2.0707 H   0  0  0  0  0  0  0  0  0  0  0  0
    2.2842    3.7170   -2.6188 H   0  0  0  0  0  0  0  0  0  0  0  0
    1.4024    1.1250    5.3641 H   0  0  0  0  0  0  0  0  0  0  0  0
   -0.2641    0.4278    5.3560 H   0  0  0  0  0  0  0  0  0  0  0  0
    1.1630   -0.6736    5.4728 H   0  0  0  0  0  0  0  0  0  0  0  0
   -4.0710   -3.8983   -1.3056 H   0  0  0  0  0  0  0  0  0  0  0  0
   -4.0585   -4.0141    0.5062 H   0  0  0  0  0  0  0  0  0  0  0  0
   -2.5591   -4.2838   -0.4680 H   0  0  0  0  0  0  0  0  0  0  0  0
   -3.4433   -1.6499   -2.2487 H   0  0  0  0  0  0  0  0  0  0  0  0
   -6.4410   -0.0786   -2.4318 H   0  0  0  0  0  0  0  0  0  0  0  0
   -4.9558   -0.5961    0.9288 H   0  0  0  0  0  0  0  0  0  0  0  0
   -7.3013    0.2984   -0.3999 H   0  0  0  0  0  0  0  0  0  0  0  0
   -4.3967    3.0178    1.5364 H   0  0  0  0  0  0  0  0  0  0  0  0
   -6.0720    2.4427    1.4928 H   0  0  0  0  0  0  0  0  0  0  0  0
   -4.7724    1.9451    3.6009 H   0  0  0  0  0  0  0  0  0  0  0  0
   -5.5499    0.5167    2.8597 H   0  0  0  0  0  0  0  0  0  0  0  0
   -3.7660    0.7700    2.6915 H   0  0  0  0  0  0  0  0  0  0  0  0
   -6.3841    2.0803   -1.3669 H   0  0  0  0  0  0  0  0  0  0  0  0
   -5.2104    3.9582   -2.2416 H   0  0  0  0  0  0  0  0  0  0  0  0
   -3.4361    4.1837   -0.0002 H   0  0  0  0  0  0  0  0  0  0  0  0
   -2.8988    4.4076   -1.6610 H   0  0  0  0  0  0  0  0  0  0  0  0
   -5.8797   -2.5155   -3.2943 H   0  0  0  0  0  0  0  0  0  0  0  0
   -6.8469   -3.7194   -2.3765 H   0  0  0  0  0  0  0  0  0  0  0  0
  1  2  1  0
  2  3  1  0
  3  4  1  0
  5  4  1  6
  5  6  1  0
  6  7  2  0
  7  8  1  0
  8  9  2  0
  9 10  1  0
 10 11  1  0
  9 12  1  0
 12 13  2  0
 12 14  1  0
 14 15  1  0
 15 16  1  0
 16 17  1  0
 17 18  1  0
 18 19  1  1
 19 20  1  0
 20 21  1  1
 20 22  1  0
 22 23  1  0
 20 24  1  0
 18 25  1  0
 25 26  1  0
 26 27  1  0
 27 28  2  0
 28 29  1  0
 29 30  1  0
 30 31  2  0
 31 32  1  0
 32 33  2  0
 33 34  1  0
 34 35  2  0
 14 36  1  1
 36 37  2  0
 36 38  1  0
 38 39  1  0
  7 40  1  0
 40 41  1  0
 40 42  1  0
 42 43  1  0
 43 44  1  6
 43 45  1  0
 45 46  1  0
 45 47  1  0
 47 48  1  1
 48 49  1  0
 47 50  1  0
 50 51  2  0
 51 52  1  0
 43 53  1  0
 53 54  1  0
 53 55  2  0
  5  1  1  0
 42  5  1  0
 47  1  1  0
 52  2  1  0
 13  6  1  0
 28 14  1  0
 35 30  1  0
 24 16  1  0
 35 27  1  0
  1 56  1  1
  3 57  1  0
  3 58  1  0
  4 59  1  0
  4 60  1  0
  8 61  1  0
 11 62  1  0
 11 63  1  0
 11 64  1  0
 13 65  1  0
 15 66  1  0
 15 67  1  0
 16 68  1  1
 17 69  1  0
 17 70  1  0
 19 71  1  0
 19 72  1  0
 21 73  1  0
 22 74  1  0
 22 75  1  0
 23 76  1  0
 23 77  1  0
 23 78  1  0
 24 79  1  0
 24 80  1  0
 25 81  1  0
 25 82  1  0
 26 83  1  0
 26 84  1  0
 29 85  1  0
 31 86  1  0
 32 87  1  0
 33 88  1  0
 34 89  1  0
 39 90  1  0
 39 91  1  0
 39 92  1  0
 41 93  1  0
 41 94  1  0
 41 95  1  0
 42 96  1  6
 44 97  1  0
 45 98  1  1
 46 99  1  0
 48100  1  0
 48101  1  0
 49102  1  0
 49103  1  0
 49104  1  0
 50105  1  0
 51106  1  0
 52107  1  0
 52108  1  0
 54109  1  0
 54110  1  0
M  END
$$$$
