
     RDKit          3D

 42 44  0  0  0  0  0  0  0  0999 V2000
    1.4802    1.6010   -1.6489 C   0  0  0  0  0  0  0  0  0  0  0  0
    1.4798    1.4246   -0.1346 C   0  0  0  0  0  0  0  0  0  0  0  0
    1.7838    0.0300    0.2204 N   0  0  0  0  0  0  0  0  0  0  0  0
    0.7682   -0.9999    0.1893 C   0  0  0  0  0  0  0  0  0  0  0  0
    1.0961   -2.2134    0.2933 O   0  0  0  0  0  0  0  0  0  0  0  0
   -0.6687   -0.6735    0.0464 C   0  0  0  0  0  0  0  0  0  0  0  0
   -1.3731   -0.0529    1.0906 C   0  0  0  0  0  0  0  0  0  0  0  0
   -0.7222    0.2238    2.2969 O   0  0  0  0  0  0  0  0  0  0  0  0
   -2.7372    0.2783    0.9180 C   0  0  0  0  0  0  0  0  0  0  0  0
   -3.3736   -0.0731   -0.3132 C   0  0  0  0  0  0  0  0  0  0  0  0
   -4.7409    0.2561   -0.4865 C   0  0  0  0  0  0  0  0  0  0  0  0
   -5.4586    0.9037    0.5113 C   0  0  0  0  0  0  0  0  0  0  0  0
   -4.8429    1.2453    1.7050 C   0  0  0  0  0  0  0  0  0  0  0  0
   -3.4975    0.9462    1.9252 C   0  0  0  0  0  0  0  0  0  0  0  0
   -2.8561    1.4646    3.4859 Cl  0  0  0  0  0  0  0  0  0  0  0  0
   -2.6654   -0.7221   -1.3083 N   0  0  0  0  0  0  0  0  0  0  0  0
   -3.3299   -1.1020   -2.5743 C   0  0  0  0  0  0  0  0  0  0  0  0
   -1.3343   -1.0137   -1.1374 C   0  0  0  0  0  0  0  0  0  0  0  0
   -0.6826   -1.5900   -2.0543 O   0  0  0  0  0  0  0  0  0  0  0  0
    3.1593   -0.3330    0.4308 C   0  0  0  0  0  0  0  0  0  0  0  0
    3.8160   -1.1867   -0.4707 C   0  0  0  0  0  0  0  0  0  0  0  0
    5.1569   -1.5269   -0.2673 C   0  0  0  0  0  0  0  0  0  0  0  0
    5.8498   -1.0154    0.8338 C   0  0  0  0  0  0  0  0  0  0  0  0
    5.2031   -0.1613    1.7320 C   0  0  0  0  0  0  0  0  0  0  0  0
    3.8624    0.1813    1.5312 C   0  0  0  0  0  0  0  0  0  0  0  0
    0.6987    0.9639   -2.1122 H   0  0  0  0  0  0  0  0  0  0  0  0
    1.2705    2.6617   -1.9011 H   0  0  0  0  0  0  0  0  0  0  0  0
    2.4716    1.3226   -2.0651 H   0  0  0  0  0  0  0  0  0  0  0  0
    2.2371    2.1098    0.3048 H   0  0  0  0  0  0  0  0  0  0  0  0
    0.4982    1.7353    0.2763 H   0  0  0  0  0  0  0  0  0  0  0  0
    0.2411   -0.0227    2.4861 H   0  0  0  0  0  0  0  0  0  0  0  0
   -5.2786    0.0220   -1.3936 H   0  0  0  0  0  0  0  0  0  0  0  0
   -6.5025    1.1450    0.3558 H   0  0  0  0  0  0  0  0  0  0  0  0
   -5.4202    1.7530    2.4679 H   0  0  0  0  0  0  0  0  0  0  0  0
   -4.1845   -1.7803   -2.3650 H   0  0  0  0  0  0  0  0  0  0  0  0
   -2.6637   -1.6427   -3.2774 H   0  0  0  0  0  0  0  0  0  0  0  0
   -3.6864   -0.1917   -3.1019 H   0  0  0  0  0  0  0  0  0  0  0  0
    3.2902   -1.5782   -1.3324 H   0  0  0  0  0  0  0  0  0  0  0  0
    5.6596   -2.1846   -0.9645 H   0  0  0  0  0  0  0  0  0  0  0  0
    6.8878   -1.2793    0.9900 H   0  0  0  0  0  0  0  0  0  0  0  0
    5.7407    0.2348    2.5838 H   0  0  0  0  0  0  0  0  0  0  0  0
    3.3677    0.8401    2.2338 H   0  0  0  0  0  0  0  0  0  0  0  0
  1  2  1  0
  2  3  1  0
  3  4  1  0
  4  5  2  0
  4  6  1  0
  6  7  2  0
  7  8  1  0
  7  9  1  0
  9 10  2  0
 10 11  1  0
 11 12  2  0
 12 13  1  0
 13 14  2  0
 14 15  1  0
 10 16  1  0
 16 17  1  0
 16 18  1  0
 18 19  2  0
  3 20  1  0
 20 21  2  0
 21 22  1  0
 22 23  2  0
 23 24  1  0
 24 25  2  0
 18  6  1  0
 25 20  1  0
 14  9  1  0
  1 26  1  0
  1 27  1  0
  1 28  1  0
  2 29  1  0
  2 30  1  0
  8 31  1  0
 11 32  1  0
 12 33  1  0
 13 34  1  0
 17 35  1  0
 17 36  1  0
 17 37  1  0
 21 38  1  0
 22 39  1  0
 23 40  1  0
 24 41  1  0
 25 42  1  0
M  END
$$$$
