
     RDKit          3D

 23 23  0  0  0  0  0  0  0  0999 V2000
    3.3468    1.0892   -0.3960 O   0  0  0  0  0  0  0  0  0  0  0  0
    3.3388    0.1181    0.6133 C   0  0  0  0  0  0  0  0  0  0  0  0
    2.6501   -1.1487    0.1094 C   0  0  0  0  0  0  0  0  0  0  0  0
    1.2667   -0.8708   -0.2745 N   0  0  0  0  0  0  0  0  0  0  0  0
    0.2326   -0.6319    0.6946 C   0  0  0  0  0  0  0  0  0  0  0  0
    0.4631   -0.8464    1.9165 O   0  0  0  0  0  0  0  0  0  0  0  0
   -1.1092   -0.1554    0.2807 C   0  0  0  0  0  0  0  0  0  0  0  0
   -1.2913    0.5446   -0.9271 C   0  0  0  0  0  0  0  0  0  0  0  0
   -2.5617    0.9943   -1.3006 C   0  0  0  0  0  0  0  0  0  0  0  0
   -3.6625    0.7569   -0.4729 C   0  0  0  0  0  0  0  0  0  0  0  0
   -5.2544    1.3232   -0.9441 Cl  0  0  0  0  0  0  0  0  0  0  0  0
   -3.4916    0.0730    0.7338 C   0  0  0  0  0  0  0  0  0  0  0  0
   -2.2231   -0.3775    1.1117 C   0  0  0  0  0  0  0  0  0  0  0  0
    3.7998    1.8832   -0.0097 H   0  0  0  0  0  0  0  0  0  0  0  0
    4.3844   -0.1309    0.9012 H   0  0  0  0  0  0  0  0  0  0  0  0
    2.8076    0.5064    1.5104 H   0  0  0  0  0  0  0  0  0  0  0  0
    3.2070   -1.5358   -0.7717 H   0  0  0  0  0  0  0  0  0  0  0  0
    2.6747   -1.9333    0.8963 H   0  0  0  0  0  0  0  0  0  0  0  0
    1.0199   -0.9405   -1.2868 H   0  0  0  0  0  0  0  0  0  0  0  0
   -0.4541    0.7684   -1.5746 H   0  0  0  0  0  0  0  0  0  0  0  0
   -2.6876    1.5331   -2.2311 H   0  0  0  0  0  0  0  0  0  0  0  0
   -4.3406   -0.1103    1.3801 H   0  0  0  0  0  0  0  0  0  0  0  0
   -2.1153   -0.9088    2.0493 H   0  0  0  0  0  0  0  0  0  0  0  0
  1  2  1  0
  2  3  1  0
  3  4  1  0
  4  5  1  0
  5  6  2  0
  5  7  1  0
  7  8  2  0
  8  9  1  0
  9 10  2  0
 10 11  1  0
 10 12  1  0
 12 13  2  0
 13  7  1  0
  1 14  1  0
  2 15  1  0
  2 16  1  0
  3 17  1  0
  3 18  1  0
  4 19  1  0
  8 20  1  0
  9 21  1  0
 12 22  1  0
 13 23  1  0
M  END
$$$$
