
     RDKit          3D

 55 57  0  0  0  0  0  0  0  0999 V2000
   -5.0611   -2.5589    0.8090 C   0  0  0  0  0  0  0  0  0  0  0  0
   -4.0556   -2.2966   -0.3119 C   0  0  0  0  0  0  0  0  0  0  0  0
   -2.7514   -1.6355    0.1796 C   0  0  1  0  0  0  0  0  0  0  0  0
   -1.8917   -2.5799    1.0440 C   0  0  0  0  0  0  0  0  0  0  0  0
   -2.4290   -2.7224    2.3312 O   0  0  0  0  0  0  0  0  0  0  0  0
   -1.9674   -1.2188   -0.9859 N   0  0  0  0  0  0  0  0  0  0  0  0
   -1.8795    0.1452   -1.4218 C   0  0  0  0  0  0  0  0  0  0  0  0
   -2.6250    1.0278   -0.9167 O   0  0  0  0  0  0  0  0  0  0  0  0
   -0.8512    0.5430   -2.4347 C   0  0  0  0  0  0  0  0  0  0  0  0
    0.4260    0.9102   -1.7335 C   0  0  0  0  0  0  0  0  0  0  0  0
    1.4357    0.0459   -1.2977 C   0  0  0  0  0  0  0  0  0  0  0  0
    1.4927   -1.4324   -1.5596 C   0  0  0  0  0  0  0  0  0  0  0  0
    2.3363    0.7235   -0.5370 N   0  0  0  0  0  0  0  0  0  0  0  0
    3.4640    0.1788    0.1656 C   0  0  0  0  0  0  0  0  0  0  0  0
    4.6135    0.6438   -0.0626 O   0  0  0  0  0  0  0  0  0  0  0  0
    3.2892   -0.9021    1.1640 C   0  0  0  0  0  0  0  0  0  0  0  0
    2.0376   -1.1229    1.7681 C   0  0  0  0  0  0  0  0  0  0  0  0
    1.8749   -2.1461    2.7063 C   0  0  0  0  0  0  0  0  0  0  0  0
    2.9599   -2.9539    3.0582 C   0  0  0  0  0  0  0  0  0  0  0  0
    2.7527   -4.2383    4.2347 Cl  0  0  0  0  0  0  0  0  0  0  0  0
    4.2109   -2.7343    2.4739 C   0  0  0  0  0  0  0  0  0  0  0  0
    4.3775   -1.7120    1.5343 C   0  0  0  0  0  0  0  0  0  0  0  0
    1.9183    2.0052   -0.5060 C   0  0  0  0  0  0  0  0  0  0  0  0
    0.7514    2.1511   -1.2127 C   0  0  0  0  0  0  0  0  0  0  0  0
    0.0754    3.3708   -1.2727 C   0  0  0  0  0  0  0  0  0  0  0  0
    0.6333    4.4793   -0.5908 C   0  0  0  0  0  0  0  0  0  0  0  0
    0.0281    5.7445   -0.6007 O   0  0  0  0  0  0  0  0  0  0  0  0
   -1.1852    6.0483   -1.2812 C   0  0  0  0  0  0  0  0  0  0  0  0
    1.8366    4.3200    0.1327 C   0  0  0  0  0  0  0  0  0  0  0  0
    2.4863    3.0754    0.1886 C   0  0  0  0  0  0  0  0  0  0  0  0
   -5.2210   -1.6416    1.4145 H   0  0  0  0  0  0  0  0  0  0  0  0
   -6.0335   -2.8633    0.3675 H   0  0  0  0  0  0  0  0  0  0  0  0
   -4.7123   -3.3837    1.4636 H   0  0  0  0  0  0  0  0  0  0  0  0
   -4.5389   -1.6182   -1.0488 H   0  0  0  0  0  0  0  0  0  0  0  0
   -3.8291   -3.2509   -0.8358 H   0  0  0  0  0  0  0  0  0  0  0  0
   -3.0063   -0.7424    0.7925 H   0  0  0  0  0  0  0  0  0  0  0  0
   -0.8538   -2.1824    1.1179 H   0  0  0  0  0  0  0  0  0  0  0  0
   -1.8244   -3.5809    0.5670 H   0  0  0  0  0  0  0  0  0  0  0  0
   -2.2153   -1.8871    2.8235 H   0  0  0  0  0  0  0  0  0  0  0  0
   -1.4949   -1.9565   -1.5564 H   0  0  0  0  0  0  0  0  0  0  0  0
   -1.2209    1.4054   -3.0287 H   0  0  0  0  0  0  0  0  0  0  0  0
   -0.6777   -0.2874   -3.1494 H   0  0  0  0  0  0  0  0  0  0  0  0
    2.5415   -1.7923   -1.5233 H   0  0  0  0  0  0  0  0  0  0  0  0
    0.8984   -1.9711   -0.7942 H   0  0  0  0  0  0  0  0  0  0  0  0
    1.0933   -1.6672   -2.5668 H   0  0  0  0  0  0  0  0  0  0  0  0
    1.1861   -0.5011    1.5219 H   0  0  0  0  0  0  0  0  0  0  0  0
    0.9058   -2.3077    3.1611 H   0  0  0  0  0  0  0  0  0  0  0  0
    5.0547   -3.3557    2.7455 H   0  0  0  0  0  0  0  0  0  0  0  0
    5.3533   -1.5628    1.0890 H   0  0  0  0  0  0  0  0  0  0  0  0
   -0.8511    3.4527   -1.8234 H   0  0  0  0  0  0  0  0  0  0  0  0
   -1.0674    5.8678   -2.3706 H   0  0  0  0  0  0  0  0  0  0  0  0
   -1.4317    7.1181   -1.1227 H   0  0  0  0  0  0  0  0  0  0  0  0
   -2.0142    5.4287   -0.8785 H   0  0  0  0  0  0  0  0  0  0  0  0
    2.2610    5.1642    0.6610 H   0  0  0  0  0  0  0  0  0  0  0  0
    3.3953    2.9567    0.7634 H   0  0  0  0  0  0  0  0  0  0  0  0
  1  2  1  0
  2  3  1  0
  3  4  1  0
  4  5  1  0
  3  6  1  0
  6  7  1  0
  7  8  2  0
  7  9  1  0
  9 10  1  0
 10 11  2  0
 11 12  1  0
 11 13  1  0
 13 14  1  0
 14 15  2  0
 14 16  1  0
 16 17  2  0
 17 18  1  0
 18 19  2  0
 19 20  1  0
 19 21  1  0
 21 22  2  0
 13 23  1  0
 23 24  2  0
 24 25  1  0
 25 26  2  0
 26 27  1  0
 27 28  1  0
 26 29  1  0
 29 30  2  0
 24 10  1  0
 22 16  1  0
 30 23  1  0
  1 31  1  0
  1 32  1  0
  1 33  1  0
  2 34  1  0
  2 35  1  0
  3 36  1  1
  4 37  1  0
  4 38  1  0
  5 39  1  0
  6 40  1  0
  9 41  1  0
  9 42  1  0
 12 43  1  0
 12 44  1  0
 12 45  1  0
 17 46  1  0
 18 47  1  0
 21 48  1  0
 22 49  1  0
 25 50  1  0
 28 51  1  0
 28 52  1  0
 28 53  1  0
 29 54  1  0
 30 55  1  0
M  END
$$$$
