
     RDKit          3D

 46 48  0  0  0  0  0  0  0  0999 V2000
   -2.7855   -0.9669   -3.2288 C   0  0  0  0  0  0  0  0  0  0  0  0
   -2.9947   -0.5209   -1.8068 C   0  0  0  0  0  0  0  0  0  0  0  0
   -3.9236   -1.1916   -0.9973 C   0  0  0  0  0  0  0  0  0  0  0  0
   -4.1387   -0.8007    0.3313 C   0  0  0  0  0  0  0  0  0  0  0  0
   -5.1160   -1.5656    1.1457 C   0  0  0  0  0  0  0  0  0  0  0  0
   -5.7028   -1.0876    2.2480 C   0  0  0  0  0  0  0  0  0  0  0  0
   -6.6539   -1.8880    2.9719 C   0  0  0  0  0  0  0  0  0  0  0  0
   -7.4191   -2.5316    3.5545 N   0  0  0  0  0  0  0  0  0  0  0  0
   -3.4015    0.2774    0.8526 C   0  0  0  0  0  0  0  0  0  0  0  0
   -2.4888    0.9803    0.0512 C   0  0  0  0  0  0  0  0  0  0  0  0
   -1.7420    2.1449    0.6463 C   0  0  0  0  0  0  0  0  0  0  0  0
   -2.2646    0.5642   -1.2806 C   0  0  0  0  0  0  0  0  0  0  0  0
   -1.3101    1.2463   -2.1088 N   0  0  0  0  0  0  0  0  0  0  0  0
    0.1017    1.1680   -1.8667 C   0  0  0  0  0  0  0  0  0  0  0  0
    0.9929    1.8912   -2.6646 C   0  0  0  0  0  0  0  0  0  0  0  0
    2.3584    1.7797   -2.4084 C   0  0  0  0  0  0  0  0  0  0  0  0
    2.7964    0.9816   -1.4011 N   0  0  0  0  0  0  0  0  0  0  0  0
    1.9209    0.2875   -0.6236 C   0  0  0  0  0  0  0  0  0  0  0  0
    2.3889   -0.5789    0.4196 N   0  0  0  0  0  0  0  0  0  0  0  0
    3.7338   -0.5802    0.9272 C   0  0  0  0  0  0  0  0  0  0  0  0
    4.3072   -1.7878    1.3537 C   0  0  0  0  0  0  0  0  0  0  0  0
    5.6051   -1.8119    1.8732 C   0  0  0  0  0  0  0  0  0  0  0  0
    6.3379   -0.6244    1.9868 C   0  0  0  0  0  0  0  0  0  0  0  0
    5.7639    0.5883    1.5868 C   0  0  0  0  0  0  0  0  0  0  0  0
    4.4662    0.6129    1.0663 C   0  0  0  0  0  0  0  0  0  0  0  0
    7.6732   -0.6487    2.5238 C   0  0  0  0  0  0  0  0  0  0  0  0
    8.7468   -0.6683    2.9555 N   0  0  0  0  0  0  0  0  0  0  0  0
    0.5872    0.3762   -0.8717 N   0  0  0  0  0  0  0  0  0  0  0  0
   -1.7045   -1.1390   -3.4164 H   0  0  0  0  0  0  0  0  0  0  0  0
   -3.1568   -0.1840   -3.9228 H   0  0  0  0  0  0  0  0  0  0  0  0
   -3.3251   -1.9132   -3.4459 H   0  0  0  0  0  0  0  0  0  0  0  0
   -4.4848   -2.0247   -1.4050 H   0  0  0  0  0  0  0  0  0  0  0  0
   -5.3972   -2.5542    0.7972 H   0  0  0  0  0  0  0  0  0  0  0  0
   -5.5087   -0.0876    2.6080 H   0  0  0  0  0  0  0  0  0  0  0  0
   -3.5189    0.5723    1.8865 H   0  0  0  0  0  0  0  0  0  0  0  0
   -2.3331    2.6199    1.4581 H   0  0  0  0  0  0  0  0  0  0  0  0
   -1.5467    2.9250   -0.1190 H   0  0  0  0  0  0  0  0  0  0  0  0
   -0.7781    1.7938    1.0692 H   0  0  0  0  0  0  0  0  0  0  0  0
   -1.6509    1.6952   -2.9889 H   0  0  0  0  0  0  0  0  0  0  0  0
    0.6372    2.5253   -3.4668 H   0  0  0  0  0  0  0  0  0  0  0  0
    3.0713    2.3254   -3.0119 H   0  0  0  0  0  0  0  0  0  0  0  0
    1.7267   -1.3045    0.7769 H   0  0  0  0  0  0  0  0  0  0  0  0
    3.7499   -2.7127    1.2732 H   0  0  0  0  0  0  0  0  0  0  0  0
    6.0356   -2.7550    2.1879 H   0  0  0  0  0  0  0  0  0  0  0  0
    6.3157    1.5155    1.6856 H   0  0  0  0  0  0  0  0  0  0  0  0
    4.0290    1.5654    0.7982 H   0  0  0  0  0  0  0  0  0  0  0  0
  1  2  1  0
  2  3  2  0
  3  4  1  0
  4  5  1  0
  5  6  2  0
  6  7  1  0
  7  8  3  0
  4  9  2  0
  9 10  1  0
 10 11  1  0
 10 12  2  0
 12 13  1  0
 13 14  1  0
 14 15  2  0
 15 16  1  0
 16 17  2  0
 17 18  1  0
 18 19  1  0
 19 20  1  0
 20 21  2  0
 21 22  1  0
 22 23  2  0
 23 24  1  0
 24 25  2  0
 23 26  1  0
 26 27  3  0
 18 28  2  0
 12  2  1  0
 28 14  1  0
 25 20  1  0
  1 29  1  0
  1 30  1  0
  1 31  1  0
  3 32  1  0
  5 33  1  0
  6 34  1  0
  9 35  1  0
 11 36  1  0
 11 37  1  0
 11 38  1  0
 13 39  1  0
 15 40  1  0
 16 41  1  0
 19 42  1  0
 21 43  1  0
 22 44  1  0
 24 45  1  0
 25 46  1  0
M  END
$$$$
