
     RDKit          3D

 39 40  0  0  0  0  0  0  0  0999 V2000
    4.3859   -1.3226    0.3673 C   0  0  2  0  0  0  0  0  0  0  0  0
    5.7328   -0.8327   -0.2068 C   0  0  0  0  0  0  0  0  0  0  0  0
    6.1987    0.4687    0.3806 C   0  0  0  0  0  0  0  0  0  0  0  0
    5.8008    1.6735   -0.1904 O   0  0  0  0  0  0  0  0  0  0  0  0
    6.9435    0.4717    1.3972 O   0  0  0  0  0  0  0  0  0  0  0  0
    3.2927   -0.3919    0.0588 N   0  0  0  0  0  0  0  0  0  0  0  0
    1.9166   -0.7252    0.3093 C   0  0  0  0  0  0  0  0  0  0  0  0
    1.6114   -1.9047    0.6377 O   0  0  0  0  0  0  0  0  0  0  0  0
    0.8459    0.2916    0.1726 C   0  0  0  0  0  0  0  0  0  0  0  0
    1.1215    1.6627    0.2985 C   0  0  0  0  0  0  0  0  0  0  0  0
    0.1230    2.5759    0.1817 N   0  0  0  0  0  0  0  0  0  0  0  0
   -1.1634    2.2101   -0.0539 C   0  0  0  0  0  0  0  0  0  0  0  0
   -1.5033    0.8540   -0.1791 C   0  0  0  0  0  0  0  0  0  0  0  0
   -0.4821   -0.1032   -0.0582 C   0  0  0  0  0  0  0  0  0  0  0  0
   -2.9077    0.4422   -0.4332 C   0  0  0  0  0  0  0  0  0  0  0  0
   -3.1959   -0.6012   -1.3301 C   0  0  0  0  0  0  0  0  0  0  0  0
   -4.5174   -0.9883   -1.5693 C   0  0  0  0  0  0  0  0  0  0  0  0
   -5.5801   -0.3410   -0.9159 C   0  0  0  0  0  0  0  0  0  0  0  0
   -5.2932    0.7015   -0.0195 C   0  0  0  0  0  0  0  0  0  0  0  0
   -3.9716    1.0894    0.2189 C   0  0  0  0  0  0  0  0  0  0  0  0
   -6.9806   -0.7479   -1.1656 C   0  0  0  0  0  0  0  0  0  0  0  0
   -8.0267   -0.0995   -0.5140 O   0  0  0  0  0  0  0  0  0  0  0  0
   -7.2402   -1.6841   -1.9693 O   0  0  0  0  0  0  0  0  0  0  0  0
    4.4698   -1.5709    1.8521 C   0  0  0  0  0  0  0  0  0  0  0  0
    4.4771   -0.6412    2.6438 O   0  0  0  0  0  0  0  0  0  0  0  0
    4.1654   -2.2953   -0.1255 H   0  0  0  0  0  0  0  0  0  0  0  0
    6.5092   -1.6098   -0.0324 H   0  0  0  0  0  0  0  0  0  0  0  0
    5.6360   -0.7140   -1.3077 H   0  0  0  0  0  0  0  0  0  0  0  0
    6.1019    2.5582    0.2004 H   0  0  0  0  0  0  0  0  0  0  0  0
    3.5049    0.4930   -0.4524 H   0  0  0  0  0  0  0  0  0  0  0  0
    2.1213    2.0137    0.5132 H   0  0  0  0  0  0  0  0  0  0  0  0
   -1.9163    2.9807   -0.1557 H   0  0  0  0  0  0  0  0  0  0  0  0
   -0.7223   -1.1566   -0.1364 H   0  0  0  0  0  0  0  0  0  0  0  0
   -2.3997   -1.1071   -1.8618 H   0  0  0  0  0  0  0  0  0  0  0  0
   -4.7064   -1.7928   -2.2691 H   0  0  0  0  0  0  0  0  0  0  0  0
   -6.0896    1.2173    0.5022 H   0  0  0  0  0  0  0  0  0  0  0  0
   -3.7813    1.8850    0.9282 H   0  0  0  0  0  0  0  0  0  0  0  0
   -8.9891   -0.3702   -0.6777 H   0  0  0  0  0  0  0  0  0  0  0  0
    4.5086   -2.5890    2.2256 H   0  0  0  0  0  0  0  0  0  0  0  0
  1  2  1  0
  2  3  1  0
  3  4  1  0
  3  5  2  0
  1  6  1  0
  6  7  1  0
  7  8  2  0
  7  9  1  0
  9 10  2  0
 10 11  1  0
 11 12  2  0
 12 13  1  0
 13 14  2  0
 13 15  1  0
 15 16  2  0
 16 17  1  0
 17 18  2  0
 18 19  1  0
 19 20  2  0
 18 21  1  0
 21 22  1  0
 21 23  2  0
  1 24  1  0
 24 25  2  0
 14  9  1  0
 20 15  1  0
  1 26  1  6
  2 27  1  0
  2 28  1  0
  4 29  1  0
  6 30  1  0
 10 31  1  0
 12 32  1  0
 14 33  1  0
 16 34  1  0
 17 35  1  0
 19 36  1  0
 20 37  1  0
 22 38  1  0
 24 39  1  0
M  END
$$$$
