
     RDKit          3D

 40 39  0  0  0  0  0  0  0  0999 V2000
    5.4553   -0.4513   -0.2876 C   0  0  0  0  0  0  0  0  0  0  0  0
    4.3569    0.3966    0.3473 C   0  0  0  0  0  0  0  0  0  0  0  0
    3.0940    0.4091   -0.5257 C   0  0  0  0  0  0  0  0  0  0  0  0
    2.0177    1.3776   -0.0037 C   0  0  0  0  0  0  0  0  0  0  0  0
    1.4582    1.0345    1.3912 C   0  0  0  0  0  0  0  0  0  0  0  0
    0.8535   -0.3778    1.5280 C   0  0  0  0  0  0  0  0  0  0  0  0
   -0.2424   -0.7271    0.5037 C   0  0  0  0  0  0  0  0  0  0  0  0
   -1.4969    0.1569    0.6442 C   0  0  0  0  0  0  0  0  0  0  0  0
   -2.5975   -0.1368   -0.4036 C   0  0  0  0  0  0  0  0  0  0  0  0
   -2.0498    0.0045   -1.6905 O   0  0  0  0  0  0  0  0  0  0  0  0
   -3.2833   -1.8359   -0.1947 P   0  0  0  0  0  5  0  0  0  0  0  0
   -2.1866   -2.9887   -0.7743 O   0  0  0  0  0  0  0  0  0  0  0  0
   -4.7372   -1.9954   -1.0479 O   0  0  0  0  0  0  0  0  0  0  0  0
   -3.5478   -2.1031    1.2697 O   0  0  0  0  0  0  0  0  0  0  0  0
   -3.9457    1.0933   -0.1842 P   0  0  0  0  0  5  0  0  0  0  0  0
   -3.3226    2.6539   -0.3893 O   0  0  0  0  0  0  0  0  0  0  0  0
   -4.6100    0.9596    1.3684 O   0  0  0  0  0  0  0  0  0  0  0  0
   -5.0289    0.8683   -1.2154 O   0  0  0  0  0  0  0  0  0  0  0  0
    5.1078   -1.4986   -0.4164 H   0  0  0  0  0  0  0  0  0  0  0  0
    5.7419   -0.0351   -1.2768 H   0  0  0  0  0  0  0  0  0  0  0  0
    6.3507   -0.4524    0.3692 H   0  0  0  0  0  0  0  0  0  0  0  0
    4.1236   -0.0267    1.3471 H   0  0  0  0  0  0  0  0  0  0  0  0
    4.7346    1.4338    0.4796 H   0  0  0  0  0  0  0  0  0  0  0  0
    3.3709    0.7354   -1.5522 H   0  0  0  0  0  0  0  0  0  0  0  0
    2.6813   -0.6183   -0.6115 H   0  0  0  0  0  0  0  0  0  0  0  0
    2.4472    2.4024    0.0340 H   0  0  0  0  0  0  0  0  0  0  0  0
    1.1834    1.4180   -0.7358 H   0  0  0  0  0  0  0  0  0  0  0  0
    0.6924    1.7914    1.6617 H   0  0  0  0  0  0  0  0  0  0  0  0
    2.2647    1.1466    2.1463 H   0  0  0  0  0  0  0  0  0  0  0  0
    0.4319   -0.4803    2.5517 H   0  0  0  0  0  0  0  0  0  0  0  0
    1.6669   -1.1304    1.4500 H   0  0  0  0  0  0  0  0  0  0  0  0
   -0.5213   -1.7843    0.6862 H   0  0  0  0  0  0  0  0  0  0  0  0
    0.1633   -0.6685   -0.5273 H   0  0  0  0  0  0  0  0  0  0  0  0
   -1.1906    1.2163    0.5242 H   0  0  0  0  0  0  0  0  0  0  0  0
   -1.9117    0.0419    1.6696 H   0  0  0  0  0  0  0  0  0  0  0  0
   -2.7711   -0.1760   -2.3475 H   0  0  0  0  0  0  0  0  0  0  0  0
   -2.0682   -2.7708   -1.7329 H   0  0  0  0  0  0  0  0  0  0  0  0
   -4.4778   -1.9731   -2.0032 H   0  0  0  0  0  0  0  0  0  0  0  0
   -3.0020    2.9214    0.5086 H   0  0  0  0  0  0  0  0  0  0  0  0
   -5.2047    0.1689    1.3275 H   0  0  0  0  0  0  0  0  0  0  0  0
  1  2  1  0
  2  3  1  0
  3  4  1  0
  4  5  1  0
  5  6  1  0
  6  7  1  0
  7  8  1  0
  8  9  1  0
  9 10  1  0
  9 11  1  0
 11 12  1  0
 11 13  1  0
 11 14  2  0
  9 15  1  0
 15 16  1  0
 15 17  1  0
 15 18  2  0
  1 19  1  0
  1 20  1  0
  1 21  1  0
  2 22  1  0
  2 23  1  0
  3 24  1  0
  3 25  1  0
  4 26  1  0
  4 27  1  0
  5 28  1  0
  5 29  1  0
  6 30  1  0
  6 31  1  0
  7 32  1  0
  7 33  1  0
  8 34  1  0
  8 35  1  0
 10 36  1  0
 12 37  1  0
 13 38  1  0
 16 39  1  0
 17 40  1  0
M  END
$$$$
