
     RDKit          3D

 47 51  0  0  0  0  0  0  0  0999 V2000
    3.3518    1.0081    2.4890 O   0  0  0  0  0  0  0  0  0  0  0  0
    2.9210    0.6610    1.2246 N   0  0  0  0  0  0  0  0  0  0  0  0
    1.7725    0.9888    0.7088 C   0  0  0  0  0  0  0  0  0  0  0  0
    0.7065    1.8202    1.2775 C   0  0  0  0  0  0  0  0  0  0  0  0
    0.6664    2.2897    2.4449 O   0  0  0  0  0  0  0  0  0  0  0  0
   -0.3265    2.0236    0.3118 N   0  0  0  0  0  0  0  0  0  0  0  0
   -1.6856    2.4766    0.6138 C   0  0  0  0  0  0  0  0  0  0  0  0
   -2.4418    1.4067    1.3615 C   0  0  0  0  0  0  0  0  0  0  0  0
   -2.4821    1.4291    2.7669 C   0  0  0  0  0  0  0  0  0  0  0  0
   -3.1463    0.4213    3.4743 C   0  0  0  0  0  0  0  0  0  0  0  0
   -3.1870    0.4600    4.8290 F   0  0  0  0  0  0  0  0  0  0  0  0
   -3.7650   -0.6271    2.7881 C   0  0  0  0  0  0  0  0  0  0  0  0
   -3.7104   -0.6721    1.3901 C   0  0  0  0  0  0  0  0  0  0  0  0
   -3.0697    0.3484    0.6785 C   0  0  0  0  0  0  0  0  0  0  0  0
   -3.0597    0.2757   -0.7147 O   0  0  0  0  0  0  0  0  0  0  0  0
   -3.8014   -0.7375   -1.3936 C   0  0  0  0  0  0  0  0  0  0  0  0
   -3.7662   -1.9500   -0.6617 O   0  0  0  0  0  0  0  0  0  0  0  0
   -4.3824   -1.7676    0.6036 C   0  0  0  0  0  0  0  0  0  0  0  0
    0.1069    1.3033   -0.8489 C   0  0  0  0  0  0  0  0  0  0  0  0
   -0.5291    1.2627   -2.0927 C   0  0  0  0  0  0  0  0  0  0  0  0
    0.0735    0.5407   -3.1320 C   0  0  0  0  0  0  0  0  0  0  0  0
    1.2969   -0.1221   -2.9264 C   0  0  0  0  0  0  0  0  0  0  0  0
    1.9420   -0.0725   -1.6739 C   0  0  0  0  0  0  0  0  0  0  0  0
    1.3255    0.6685   -0.6490 C   0  0  0  0  0  0  0  0  0  0  0  0
    3.2099   -0.8026   -1.4706 C   0  0  0  0  0  0  0  0  0  0  0  0
    3.3092   -1.7927   -0.4786 C   0  0  0  0  0  0  0  0  0  0  0  0
    4.5046   -2.4965   -0.3035 C   0  0  0  0  0  0  0  0  0  0  0  0
    5.6036   -2.2254   -1.1233 C   0  0  0  0  0  0  0  0  0  0  0  0
    5.5074   -1.2529   -2.1225 C   0  0  0  0  0  0  0  0  0  0  0  0
    4.3138   -0.5464   -2.3006 C   0  0  0  0  0  0  0  0  0  0  0  0
    2.7947    1.5530    3.1309 H   0  0  0  0  0  0  0  0  0  0  0  0
   -1.6318    3.4051    1.2226 H   0  0  0  0  0  0  0  0  0  0  0  0
   -2.2218    2.7494   -0.3183 H   0  0  0  0  0  0  0  0  0  0  0  0
   -2.0006    2.2288    3.3157 H   0  0  0  0  0  0  0  0  0  0  0  0
   -4.2798   -1.4025    3.3417 H   0  0  0  0  0  0  0  0  0  0  0  0
   -4.8499   -0.3983   -1.5514 H   0  0  0  0  0  0  0  0  0  0  0  0
   -3.3463   -0.9040   -2.3915 H   0  0  0  0  0  0  0  0  0  0  0  0
   -4.3060   -2.7225    1.1655 H   0  0  0  0  0  0  0  0  0  0  0  0
   -5.4645   -1.5372    0.4833 H   0  0  0  0  0  0  0  0  0  0  0  0
   -1.4581    1.7859   -2.2691 H   0  0  0  0  0  0  0  0  0  0  0  0
   -0.4057    0.4950   -4.1013 H   0  0  0  0  0  0  0  0  0  0  0  0
    1.7353   -0.6823   -3.7432 H   0  0  0  0  0  0  0  0  0  0  0  0
    2.4607   -2.0209    0.1549 H   0  0  0  0  0  0  0  0  0  0  0  0
    4.5777   -3.2548    0.4653 H   0  0  0  0  0  0  0  0  0  0  0  0
    6.5279   -2.7717   -0.9871 H   0  0  0  0  0  0  0  0  0  0  0  0
    6.3576   -1.0471   -2.7598 H   0  0  0  0  0  0  0  0  0  0  0  0
    4.2524    0.2051   -3.0783 H   0  0  0  0  0  0  0  0  0  0  0  0
  1  2  1  0
  2  3  2  0
  3  4  1  0
  4  5  2  0
  4  6  1  0
  6  7  1  0
  7  8  1  0
  8  9  2  0
  9 10  1  0
 10 11  1  0
 10 12  2  0
 12 13  1  0
 13 14  2  0
 14 15  1  0
 15 16  1  0
 16 17  1  0
 17 18  1  0
  6 19  1  0
 19 20  2  0
 20 21  1  0
 21 22  2  0
 22 23  1  0
 23 24  2  0
 23 25  1  0
 25 26  2  0
 26 27  1  0
 27 28  2  0
 28 29  1  0
 29 30  2  0
 24  3  1  0
 30 25  1  0
 14  8  1  0
 24 19  1  0
 18 13  1  0
  1 31  1  0
  7 32  1  0
  7 33  1  0
  9 34  1  0
 12 35  1  0
 16 36  1  0
 16 37  1  0
 18 38  1  0
 18 39  1  0
 20 40  1  0
 21 41  1  0
 22 42  1  0
 26 43  1  0
 27 44  1  0
 28 45  1  0
 29 46  1  0
 30 47  1  0
M  END
$$$$
