
     RDKit          3D

 36 37  0  0  0  0  0  0  0  0999 V2000
   -1.5803    0.8156    0.3848 C   0  0  1  0  0  0  0  0  0  0  0  0
   -1.5060    2.0086    1.3517 C   0  0  0  0  0  0  0  0  0  0  0  0
   -2.2250    3.1082    0.8610 O   0  0  0  0  0  0  0  0  0  0  0  0
   -0.6829   -0.1769    0.8521 O   0  0  0  0  0  0  0  0  0  0  0  0
   -0.5791   -1.2375   -0.0806 C   0  0  1  0  0  0  0  0  0  0  0  0
    0.7222   -2.3869    0.4897 S   0  0  0  0  0  0  0  0  0  0  0  0
    2.0552   -1.2066    0.2608 C   0  0  0  0  0  0  0  0  0  0  0  0
    2.4398   -0.3695    1.3132 C   0  0  0  0  0  0  0  0  0  0  0  0
    3.4721    0.5560    1.1337 C   0  0  0  0  0  0  0  0  0  0  0  0
    4.1371    0.6518   -0.1021 C   0  0  0  0  0  0  0  0  0  0  0  0
    3.7469   -0.2000   -1.1530 C   0  0  0  0  0  0  0  0  0  0  0  0
    2.7135   -1.1236   -0.9700 C   0  0  0  0  0  0  0  0  0  0  0  0
    5.1989    1.6060   -0.2854 N   0  0  0  0  0  4  0  0  0  0  0  0
    5.5772    2.4375    0.7439 O   0  0  0  0  0  1  0  0  0  0  0  0
    5.7929    1.6956   -1.3800 O   0  0  0  0  0  0  0  0  0  0  0  0
   -1.9229   -1.9884   -0.1817 C   0  0  2  0  0  0  0  0  0  0  0  0
   -1.8365   -3.0630   -1.0856 O   0  0  0  0  0  0  0  0  0  0  0  0
   -3.0411   -1.0118   -0.5985 C   0  0  1  0  0  0  0  0  0  0  0  0
   -4.2934   -1.6382   -0.4923 O   0  0  0  0  0  0  0  0  0  0  0  0
   -3.0178    0.2339    0.3076 C   0  0  2  0  0  0  0  0  0  0  0  0
   -3.9401    1.1902   -0.1540 O   0  0  0  0  0  0  0  0  0  0  0  0
   -1.2607    1.1788   -0.6207 H   0  0  0  0  0  0  0  0  0  0  0  0
   -0.4410    2.2957    1.5106 H   0  0  0  0  0  0  0  0  0  0  0  0
   -1.9208    1.7196    2.3410 H   0  0  0  0  0  0  0  0  0  0  0  0
   -1.6804    3.5009    0.1296 H   0  0  0  0  0  0  0  0  0  0  0  0
   -0.2809   -0.8568   -1.0857 H   0  0  0  0  0  0  0  0  0  0  0  0
    1.9355   -0.4305    2.2693 H   0  0  0  0  0  0  0  0  0  0  0  0
    3.7489    1.1961    1.9613 H   0  0  0  0  0  0  0  0  0  0  0  0
    4.2395   -0.1514   -2.1156 H   0  0  0  0  0  0  0  0  0  0  0  0
    2.4216   -1.7703   -1.7878 H   0  0  0  0  0  0  0  0  0  0  0  0
   -2.1709   -2.4011    0.8216 H   0  0  0  0  0  0  0  0  0  0  0  0
   -1.5921   -2.6914   -1.9736 H   0  0  0  0  0  0  0  0  0  0  0  0
   -2.8683   -0.6849   -1.6521 H   0  0  0  0  0  0  0  0  0  0  0  0
   -4.3933   -2.2188   -1.2914 H   0  0  0  0  0  0  0  0  0  0  0  0
   -3.3268   -0.0744    1.3315 H   0  0  0  0  0  0  0  0  0  0  0  0
   -3.6410    1.4876   -1.0530 H   0  0  0  0  0  0  0  0  0  0  0  0
  1  2  1  0
  2  3  1  0
  1  4  1  0
  4  5  1  0
  5  6  1  0
  6  7  1  0
  7  8  2  0
  8  9  1  0
  9 10  2  0
 10 11  1  0
 11 12  2  0
 10 13  1  0
 13 14  1  0
 13 15  2  0
  5 16  1  0
 16 17  1  0
 16 18  1  0
 18 19  1  0
 18 20  1  0
 20 21  1  0
 20  1  1  0
 12  7  1  0
  1 22  1  6
  2 23  1  0
  2 24  1  0
  3 25  1  0
  5 26  1  6
  8 27  1  0
  9 28  1  0
 11 29  1  0
 12 30  1  0
 16 31  1  1
 17 32  1  0
 18 33  1  6
 19 34  1  0
 20 35  1  1
 21 36  1  0
M  CHG  2  13   1  14  -1
M  END
$$$$
