
     RDKit          3D

 47 49  0  0  0  0  0  0  0  0999 V2000
   -0.7774   -2.8736    0.3411 C   0  0  1  0  0  0  0  0  0  0  0  0
    0.7292   -2.6475    0.1725 C   0  0  0  0  0  0  0  0  0  0  0  0
    0.9509   -1.4635   -0.5585 O   0  0  0  0  0  0  0  0  0  0  0  0
    2.6306   -1.1724   -0.6264 P   0  0  0  0  0  5  0  0  0  0  0  0
    2.9168    0.2077   -1.5634 O   0  0  0  0  0  0  0  0  0  0  0  0
    3.3174   -2.3439   -1.2926 O   0  0  0  0  0  0  0  0  0  0  0  0
    3.2863   -0.9749    0.9340 O   0  0  0  0  0  0  0  0  0  0  0  0
    2.5351    0.3743    1.6569 P   0  0  0  0  0  5  0  0  0  0  0  0
    3.2031    0.6047    3.1960 O   0  0  0  0  0  0  0  0  0  0  0  0
    1.0551    0.1151    1.8258 O   0  0  0  0  0  0  0  0  0  0  0  0
    2.7418    1.7794    0.7168 O   0  0  0  0  0  0  0  0  0  0  0  0
    4.3810    2.2424    0.7960 P   0  0  0  0  0  5  0  0  0  0  0  0
    5.4156    0.9075    0.9449 O   0  0  0  0  0  0  0  0  0  0  0  0
    4.7712    3.0649   -0.6311 O   0  0  0  0  0  0  0  0  0  0  0  0
    4.6194    3.3110    2.1354 S   0  0  0  0  0  0  0  0  0  0  0  0
   -1.3544   -1.7407    0.9583 O   0  0  0  0  0  0  0  0  0  0  0  0
   -2.5636   -1.4732    0.2895 C   0  0  1  0  0  0  0  0  0  0  0  0
   -2.8589   -0.0394    0.3374 N   0  0  0  0  0  0  0  0  0  0  0  0
   -4.0189    0.5478    0.7300 C   0  0  0  0  0  0  0  0  0  0  0  0
   -3.9937    1.9069    0.6441 N   0  0  0  0  0  0  0  0  0  0  0  0
   -2.7564    2.1518    0.1730 C   0  0  0  0  0  0  0  0  0  0  0  0
   -2.1530    3.3650   -0.1387 C   0  0  0  0  0  0  0  0  0  0  0  0
   -2.8293    4.6096    0.0395 N   0  0  0  0  0  0  0  0  0  0  0  0
   -0.8792    3.3301   -0.6328 N   0  0  0  0  0  0  0  0  0  0  0  0
   -0.2167    2.1430   -0.8172 C   0  0  0  0  0  0  0  0  0  0  0  0
   -0.8199    0.9566   -0.5052 N   0  0  0  0  0  0  0  0  0  0  0  0
   -2.0808    0.9949   -0.0111 C   0  0  0  0  0  0  0  0  0  0  0  0
   -2.4327   -1.9624   -1.1435 C   0  0  2  0  0  0  0  0  0  0  0  0
   -3.6835   -2.3321   -1.6636 O   0  0  0  0  0  0  0  0  0  0  0  0
   -1.4841   -3.1371   -1.0036 C   0  0  2  0  0  0  0  0  0  0  0  0
   -2.1604   -4.3738   -0.9918 O   0  0  0  0  0  0  0  0  0  0  0  0
   -0.9102   -3.7458    1.0199 H   0  0  0  0  0  0  0  0  0  0  0  0
    1.1767   -2.5783    1.1902 H   0  0  0  0  0  0  0  0  0  0  0  0
    1.1661   -3.5262   -0.3539 H   0  0  0  0  0  0  0  0  0  0  0  0
    2.3601    0.0835   -2.3729 H   0  0  0  0  0  0  0  0  0  0  0  0
    3.1328   -0.2794    3.6367 H   0  0  0  0  0  0  0  0  0  0  0  0
    6.3153    1.2540    0.7180 H   0  0  0  0  0  0  0  0  0  0  0  0
    3.9860    3.6391   -0.8182 H   0  0  0  0  0  0  0  0  0  0  0  0
   -3.3760   -2.0351    0.8064 H   0  0  0  0  0  0  0  0  0  0  0  0
   -4.8828   -0.0056    1.0750 H   0  0  0  0  0  0  0  0  0  0  0  0
   -2.3521    5.5053   -0.2054 H   0  0  0  0  0  0  0  0  0  0  0  0
   -3.8031    4.6436    0.4151 H   0  0  0  0  0  0  0  0  0  0  0  0
    0.7876    2.1458   -1.2164 H   0  0  0  0  0  0  0  0  0  0  0  0
   -1.9628   -1.1779   -1.7816 H   0  0  0  0  0  0  0  0  0  0  0  0
   -3.5458   -2.4958   -2.6330 H   0  0  0  0  0  0  0  0  0  0  0  0
   -0.7719   -3.1414   -1.8586 H   0  0  0  0  0  0  0  0  0  0  0  0
   -2.8102   -4.3639   -0.2402 H   0  0  0  0  0  0  0  0  0  0  0  0
  1  2  1  0
  2  3  1  0
  3  4  1  0
  4  5  1  0
  4  6  2  0
  4  7  1  0
  7  8  1  0
  8  9  1  0
  8 10  2  0
  8 11  1  0
 11 12  1  0
 12 13  1  0
 12 14  1  0
 12 15  2  0
  1 16  1  0
 16 17  1  0
 17 18  1  0
 18 19  1  0
 19 20  2  0
 20 21  1  0
 21 22  2  0
 22 23  1  0
 22 24  1  0
 24 25  2  0
 25 26  1  0
 26 27  2  0
 17 28  1  0
 28 29  1  0
 28 30  1  0
 30 31  1  0
 30  1  1  0
 27 18  1  0
 27 21  1  0
  1 32  1  1
  2 33  1  0
  2 34  1  0
  5 35  1  0
  9 36  1  0
 13 37  1  0
 14 38  1  0
 17 39  1  1
 19 40  1  0
 23 41  1  0
 23 42  1  0
 25 43  1  0
 28 44  1  6
 29 45  1  0
 30 46  1  6
 31 47  1  0
M  END
$$$$
