
     RDKit          3D

 28 30  0  0  0  0  0  0  0  0999 V2000
   -2.8142   -2.1926    0.5407 C   0  0  0  0  0  0  0  0  0  0  0  0
   -2.2856   -0.8803    0.1846 N   0  0  0  0  0  0  0  0  0  0  0  0
   -3.0616    0.1538   -0.1225 N   0  0  0  0  0  0  0  0  0  0  0  0
   -2.2639    1.2115   -0.3991 C   0  0  0  0  0  0  0  0  0  0  0  0
   -2.7704    2.5635   -0.7818 C   0  0  0  0  0  0  0  0  0  0  0  0
   -0.9437    0.8237   -0.2584 C   0  0  0  0  0  0  0  0  0  0  0  0
   -0.9930   -0.4888    0.1057 C   0  0  0  0  0  0  0  0  0  0  0  0
    0.1280   -1.2288    0.3536 N   0  0  0  0  0  0  0  0  0  0  0  0
   -0.0271   -2.5430    0.7574 O   0  0  0  0  0  0  0  0  0  0  0  0
    1.3672   -0.6222    0.2039 C   0  0  0  0  0  0  0  0  0  0  0  0
    1.4474    0.7639   -0.1736 C   0  0  0  0  0  0  0  0  0  0  0  0
    2.7042    1.3803   -0.3147 C   0  0  0  0  0  0  0  0  0  0  0  0
    3.8760    0.6554   -0.1020 C   0  0  0  0  0  0  0  0  0  0  0  0
    5.4359    1.4375   -0.2847 Cl  0  0  0  0  0  0  0  0  0  0  0  0
    3.8107   -0.6917    0.2472 C   0  0  0  0  0  0  0  0  0  0  0  0
    2.5769   -1.3285    0.3963 C   0  0  0  0  0  0  0  0  0  0  0  0
    0.2608    1.4945   -0.4053 C   0  0  0  0  0  0  0  0  0  0  0  0
    0.2843    2.7115   -0.7366 O   0  0  0  0  0  0  0  0  0  0  0  0
   -2.5118   -2.4531    1.5766 H   0  0  0  0  0  0  0  0  0  0  0  0
   -2.4382   -2.9573   -0.1708 H   0  0  0  0  0  0  0  0  0  0  0  0
   -3.9238   -2.1839    0.4911 H   0  0  0  0  0  0  0  0  0  0  0  0
   -2.4402    3.3122   -0.0319 H   0  0  0  0  0  0  0  0  0  0  0  0
   -3.8799    2.5593   -0.8224 H   0  0  0  0  0  0  0  0  0  0  0  0
   -2.3751    2.8419   -1.7809 H   0  0  0  0  0  0  0  0  0  0  0  0
    0.7262   -3.1344    1.0730 H   0  0  0  0  0  0  0  0  0  0  0  0
    2.7804    2.4244   -0.5937 H   0  0  0  0  0  0  0  0  0  0  0  0
    4.7233   -1.2539    0.4012 H   0  0  0  0  0  0  0  0  0  0  0  0
    2.6072   -2.3748    0.6474 H   0  0  0  0  0  0  0  0  0  0  0  0
  1  2  1  0
  2  3  1  0
  3  4  2  0
  4  5  1  0
  4  6  1  0
  6  7  2  0
  7  8  1  0
  8  9  1  0
  8 10  1  0
 10 11  2  0
 11 12  1  0
 12 13  2  0
 13 14  1  0
 13 15  1  0
 15 16  2  0
 11 17  1  0
 17 18  2  0
  7  2  1  0
 16 10  1  0
 17  6  1  0
  1 19  1  0
  1 20  1  0
  1 21  1  0
  5 22  1  0
  5 23  1  0
  5 24  1  0
  9 25  1  0
 12 26  1  0
 15 27  1  0
 16 28  1  0
M  END
$$$$
