
     RDKit          3D

 40 42  0  0  0  0  0  0  0  0999 V2000
   -5.9048   -1.4177   -2.7969 N   0  0  0  0  0  0  0  0  0  0  0  0
   -5.5269   -0.9914   -1.4881 C   0  0  0  0  0  0  0  0  0  0  0  0
   -5.3721    0.2761   -1.2602 N   0  0  0  0  0  0  0  0  0  0  0  0
   -5.3311   -1.9748   -0.4574 N   0  0  0  0  0  0  0  0  0  0  0  0
   -4.7956   -1.6079    1.1522 S   0  0  0  0  0  6  0  0  0  0  0  0
   -4.6884   -2.8827    1.9401 O   0  0  0  0  0  0  0  0  0  0  0  0
   -5.8044   -0.7099    1.8127 O   0  0  0  0  0  0  0  0  0  0  0  0
   -3.2132   -0.8374    1.1029 C   0  0  0  0  0  0  0  0  0  0  0  0
   -2.8910    0.1799    2.0097 C   0  0  0  0  0  0  0  0  0  0  0  0
   -1.6347    0.7909    1.9638 C   0  0  0  0  0  0  0  0  0  0  0  0
   -0.6777    0.3846    1.0204 C   0  0  0  0  0  0  0  0  0  0  0  0
    0.6023    1.0404    0.9855 N   0  0  0  0  0  0  0  0  0  0  0  0
    1.7760    0.4234    0.4342 C   0  0  0  0  0  0  0  0  0  0  0  0
    2.8838    1.1163    0.1335 C   0  0  0  0  0  0  0  0  0  0  0  0
    3.1335    2.5669    0.1930 C   0  0  0  0  0  0  0  0  0  0  0  0
    2.3034    3.4507    0.5311 O   0  0  0  0  0  0  0  0  0  0  0  0
    4.4568    2.8711   -0.2391 N   0  0  0  0  0  0  0  0  0  0  0  0
    5.0251    1.6136   -0.5834 C   0  0  0  0  0  0  0  0  0  0  0  0
    4.1416    0.5683   -0.3840 C   0  0  0  0  0  0  0  0  0  0  0  0
    4.5078   -0.7507   -0.6661 C   0  0  0  0  0  0  0  0  0  0  0  0
    5.8007   -0.9916   -1.1611 C   0  0  0  0  0  0  0  0  0  0  0  0
    6.6983    0.0763   -1.3646 C   0  0  0  0  0  0  0  0  0  0  0  0
    6.3114    1.3953   -1.0747 C   0  0  0  0  0  0  0  0  0  0  0  0
   -1.0108   -0.6317    0.1048 C   0  0  0  0  0  0  0  0  0  0  0  0
   -2.2680   -1.2411    0.1523 C   0  0  0  0  0  0  0  0  0  0  0  0
   -6.0357   -2.4317   -3.0080 H   0  0  0  0  0  0  0  0  0  0  0  0
   -6.0533   -0.7206   -3.5604 H   0  0  0  0  0  0  0  0  0  0  0  0
   -5.1016    0.6704   -0.3343 H   0  0  0  0  0  0  0  0  0  0  0  0
   -5.4911   -2.9799   -0.6902 H   0  0  0  0  0  0  0  0  0  0  0  0
   -3.6105    0.5023    2.7513 H   0  0  0  0  0  0  0  0  0  0  0  0
   -1.4033    1.5778    2.6707 H   0  0  0  0  0  0  0  0  0  0  0  0
    0.6985    1.9406    1.5044 H   0  0  0  0  0  0  0  0  0  0  0  0
    1.7787   -0.6468    0.2767 H   0  0  0  0  0  0  0  0  0  0  0  0
    4.8996    3.8134   -0.3173 H   0  0  0  0  0  0  0  0  0  0  0  0
    3.8205   -1.5712   -0.5104 H   0  0  0  0  0  0  0  0  0  0  0  0
    6.1094   -2.0038   -1.3877 H   0  0  0  0  0  0  0  0  0  0  0  0
    7.6914   -0.1210   -1.7468 H   0  0  0  0  0  0  0  0  0  0  0  0
    6.9947    2.2202   -1.2291 H   0  0  0  0  0  0  0  0  0  0  0  0
   -0.3126   -0.9439   -0.6598 H   0  0  0  0  0  0  0  0  0  0  0  0
   -2.5066   -2.0229   -0.5577 H   0  0  0  0  0  0  0  0  0  0  0  0
  1  2  1  0
  2  3  2  3
  2  4  1  0
  4  5  1  0
  5  6  2  0
  5  7  2  0
  5  8  1  0
  8  9  2  0
  9 10  1  0
 10 11  2  0
 11 12  1  0
 12 13  1  0
 13 14  2  0
 14 15  1  0
 15 16  2  0
 15 17  1  0
 17 18  1  0
 18 19  2  0
 19 20  1  0
 20 21  2  0
 21 22  1  0
 22 23  2  0
 11 24  1  0
 24 25  2  0
 25  8  1  0
 19 14  1  0
 23 18  1  0
  1 26  1  0
  1 27  1  0
  3 28  1  0
  4 29  1  0
  9 30  1  0
 10 31  1  0
 12 32  1  0
 13 33  1  0
 17 34  1  0
 20 35  1  0
 21 36  1  0
 22 37  1  0
 23 38  1  0
 24 39  1  0
 25 40  1  0
M  END
$$$$
