
     RDKit          3D

 54 56  0  0  0  0  0  0  0  0999 V2000
    1.7629   -1.7109    0.7005 C   0  0  1  0  0  0  0  0  0  0  0  0
    1.8992   -0.2331    1.1639 C   0  0  0  0  0  0  0  0  0  0  0  0
    1.5863    0.7871    0.0514 C   0  0  0  0  0  0  0  0  0  0  0  0
    2.7769    0.9903   -0.8971 C   0  0  0  0  0  0  0  0  0  0  0  0
    2.4310    1.9928   -2.0024 C   0  0  0  0  0  0  0  0  0  0  0  0
    3.5977    2.1806   -2.9261 C   0  0  0  0  0  0  0  0  0  0  0  0
    3.8186    1.2576   -3.9963 N   0  0  0  0  0  0  0  0  0  0  0  0
    4.4331    3.1477   -2.7148 N   0  0  0  0  0  0  0  0  0  0  0  0
    2.8771   -2.5138    1.3246 C   0  0  0  0  0  0  0  0  0  0  0  0
    2.8895   -2.7418    2.6980 O   0  0  0  0  0  0  0  0  0  0  0  0
    3.8124   -2.9596    0.6069 O   0  0  0  0  0  0  0  0  0  0  0  0
    0.3843   -2.3564    1.0565 C   0  0  1  0  0  0  0  0  0  0  0  0
   -0.7721   -1.6416    0.4308 C   0  0  0  0  0  0  0  0  0  0  0  0
   -1.2797   -2.3332   -0.6407 C   0  0  0  0  0  0  0  0  0  0  0  0
   -0.5853   -3.6224   -0.8455 C   0  0  0  0  0  0  0  0  0  0  0  0
    0.2527   -3.7820    0.4406 C   0  0  2  0  0  0  0  0  0  0  0  0
   -0.4197   -4.6162    1.3496 O   0  0  0  0  0  0  0  0  0  0  0  0
   -2.3637   -1.8473   -1.3712 C   0  0  0  0  0  0  0  0  0  0  0  0
   -2.9557   -0.6387   -0.9800 C   0  0  0  0  0  0  0  0  0  0  0  0
   -2.4787    0.0613    0.1524 C   0  0  0  0  0  0  0  0  0  0  0  0
   -1.3881   -0.4661    0.8762 C   0  0  0  0  0  0  0  0  0  0  0  0
   -3.1111    1.3365    0.5731 C   0  0  0  0  0  0  0  0  0  0  0  0
   -2.3201    2.4128    1.0168 C   0  0  0  0  0  0  0  0  0  0  0  0
   -2.9154    3.6148    1.4106 C   0  0  0  0  0  0  0  0  0  0  0  0
   -4.3049    3.7595    1.3681 C   0  0  0  0  0  0  0  0  0  0  0  0
   -4.8838    4.9630    1.7641 O   0  0  0  0  0  0  0  0  0  0  0  0
   -5.1008    2.6943    0.9283 C   0  0  0  0  0  0  0  0  0  0  0  0
   -4.5091    1.4909    0.5325 C   0  0  0  0  0  0  0  0  0  0  0  0
    1.8882   -1.7628   -0.4046 H   0  0  0  0  0  0  0  0  0  0  0  0
    2.9274   -0.0238    1.5374 H   0  0  0  0  0  0  0  0  0  0  0  0
    1.2388   -0.0487    2.0364 H   0  0  0  0  0  0  0  0  0  0  0  0
    0.7014    0.4679   -0.5364 H   0  0  0  0  0  0  0  0  0  0  0  0
    1.3408    1.7611    0.5284 H   0  0  0  0  0  0  0  0  0  0  0  0
    3.0601    0.0204   -1.3601 H   0  0  0  0  0  0  0  0  0  0  0  0
    3.6480    1.3700   -0.3186 H   0  0  0  0  0  0  0  0  0  0  0  0
    1.5597    1.6241   -2.5864 H   0  0  0  0  0  0  0  0  0  0  0  0
    2.1496    2.9697   -1.5506 H   0  0  0  0  0  0  0  0  0  0  0  0
    3.1642    0.4586   -4.1500 H   0  0  0  0  0  0  0  0  0  0  0  0
    4.6370    1.3648   -4.6360 H   0  0  0  0  0  0  0  0  0  0  0  0
    5.2684    3.2942   -3.3244 H   0  0  0  0  0  0  0  0  0  0  0  0
    3.6365   -3.2725    3.1296 H   0  0  0  0  0  0  0  0  0  0  0  0
    0.2508   -2.3873    2.1615 H   0  0  0  0  0  0  0  0  0  0  0  0
   -1.3118   -4.4533   -0.9782 H   0  0  0  0  0  0  0  0  0  0  0  0
    0.0764   -3.5478   -1.7354 H   0  0  0  0  0  0  0  0  0  0  0  0
    1.2426   -4.2286    0.1904 H   0  0  0  0  0  0  0  0  0  0  0  0
   -0.2980   -5.5475    1.0274 H   0  0  0  0  0  0  0  0  0  0  0  0
   -2.7487   -2.3977   -2.2199 H   0  0  0  0  0  0  0  0  0  0  0  0
   -3.7831   -0.2508   -1.5604 H   0  0  0  0  0  0  0  0  0  0  0  0
   -1.0342    0.0251    1.7718 H   0  0  0  0  0  0  0  0  0  0  0  0
   -1.2406    2.3311    1.0424 H   0  0  0  0  0  0  0  0  0  0  0  0
   -2.2952    4.4364    1.7460 H   0  0  0  0  0  0  0  0  0  0  0  0
   -5.8878    5.0992    1.7448 H   0  0  0  0  0  0  0  0  0  0  0  0
   -6.1781    2.7964    0.8955 H   0  0  0  0  0  0  0  0  0  0  0  0
   -5.1457    0.6759    0.2118 H   0  0  0  0  0  0  0  0  0  0  0  0
  1  2  1  0
  2  3  1  0
  3  4  1  0
  4  5  1  0
  5  6  1  0
  6  7  1  0
  6  8  2  3
  1  9  1  0
  9 10  1  0
  9 11  2  0
  1 12  1  0
 12 13  1  0
 13 14  2  0
 14 15  1  0
 15 16  1  0
 16 17  1  0
 14 18  1  0
 18 19  2  0
 19 20  1  0
 20 21  2  0
 20 22  1  0
 22 23  2  0
 23 24  1  0
 24 25  2  0
 25 26  1  0
 25 27  1  0
 27 28  2  0
 16 12  1  0
 28 22  1  0
 21 13  1  0
  1 29  1  6
  2 30  1  0
  2 31  1  0
  3 32  1  0
  3 33  1  0
  4 34  1  0
  4 35  1  0
  5 36  1  0
  5 37  1  0
  7 38  1  0
  7 39  1  0
  8 40  1  0
 10 41  1  0
 12 42  1  1
 15 43  1  0
 15 44  1  0
 16 45  1  6
 17 46  1  0
 18 47  1  0
 19 48  1  0
 21 49  1  0
 23 50  1  0
 24 51  1  0
 26 52  1  0
 27 53  1  0
 28 54  1  0
M  END
$$$$
