
     RDKit          3D

 19 19  0  0  0  0  0  0  0  0999 V2000
    3.4394   -0.7314   -0.0420 N   0  0  0  0  0  0  0  0  0  0  0  0
    2.0616   -0.3485   -0.0439 C   0  0  0  0  0  0  0  0  0  0  0  0
    1.2795   -0.5208    1.1070 C   0  0  0  0  0  0  0  0  0  0  0  0
   -0.0679   -0.1467    1.1049 C   0  0  0  0  0  0  0  0  0  0  0  0
   -0.6442    0.4077   -0.0461 C   0  0  0  0  0  0  0  0  0  0  0  0
    0.1352    0.5731   -1.1994 C   0  0  0  0  0  0  0  0  0  0  0  0
    1.4826    0.1991   -1.1975 C   0  0  0  0  0  0  0  0  0  0  0  0
   -2.3446    0.8634   -0.0508 S   0  0  0  0  0  6  0  0  0  0  0  0
   -3.3043   -0.5031   -0.4970 N   0  0  0  0  0  0  0  0  0  0  0  0
   -2.7465    1.3393    1.3175 O   0  0  0  0  0  0  0  0  0  0  0  0
   -2.5711    1.9773   -1.0343 O   0  0  0  0  0  0  0  0  0  0  0  0
    3.8792   -1.1411    0.8121 H   0  0  0  0  0  0  0  0  0  0  0  0
    4.0297   -0.6078   -0.8947 H   0  0  0  0  0  0  0  0  0  0  0  0
    1.7129   -0.9462    2.0034 H   0  0  0  0  0  0  0  0  0  0  0  0
   -0.6608   -0.2918    1.9990 H   0  0  0  0  0  0  0  0  0  0  0  0
   -0.2987    0.9884   -2.1000 H   0  0  0  0  0  0  0  0  0  0  0  0
    2.0742    0.3339   -2.0943 H   0  0  0  0  0  0  0  0  0  0  0  0
   -3.1517   -1.2344    0.2333 H   0  0  0  0  0  0  0  0  0  0  0  0
   -4.3046   -0.2104   -0.4262 H   0  0  0  0  0  0  0  0  0  0  0  0
  1  2  1  0
  2  3  2  0
  3  4  1  0
  4  5  2  0
  5  6  1  0
  6  7  2  0
  5  8  1  0
  8  9  1  0
  8 10  2  0
  8 11  2  0
  7  2  1  0
  1 12  1  0
  1 13  1  0
  3 14  1  0
  4 15  1  0
  6 16  1  0
  7 17  1  0
  9 18  1  0
  9 19  1  0
M  END
$$$$
