
     RDKit          3D

 24 25  0  0  0  0  0  0  0  0999 V2000
    3.5259   -0.8051   -0.1321 C   0  0  0  0  0  0  0  0  0  0  0  0
    2.1282   -0.2778   -0.4414 C   0  0  0  0  0  0  0  0  0  0  0  0
    1.3340   -0.0216    0.8430 C   0  0  0  0  0  0  0  0  0  0  0  0
   -0.0099    0.4823    0.5185 N   0  0  0  0  0  0  0  0  0  0  0  0
   -1.0480   -0.3792    0.3160 C   0  0  0  0  0  0  0  0  0  0  0  0
   -2.2879    0.0471   -0.0151 C   0  0  0  0  0  0  0  0  0  0  0  0
   -3.1011   -1.0061   -0.1563 N   0  0  0  0  0  0  0  0  0  0  0  0
   -2.2989   -2.0683    0.1013 C   0  0  0  0  0  0  0  0  0  0  0  0
   -1.0169   -1.7232    0.3977 N   0  0  0  0  0  0  0  0  0  0  0  0
   -2.5491    1.3975   -0.1704 C   0  0  0  0  0  0  0  0  0  0  0  0
   -3.6987    1.8102   -0.4797 O   0  0  0  0  0  0  0  0  0  0  0  0
   -1.5170    2.2715    0.0183 N   0  0  0  0  0  0  0  0  0  0  0  0
   -0.2584    1.8298    0.3515 C   0  0  0  0  0  0  0  0  0  0  0  0
    0.6691    2.6723    0.4998 O   0  0  0  0  0  0  0  0  0  0  0  0
    4.0915   -0.0661    0.4746 H   0  0  0  0  0  0  0  0  0  0  0  0
    3.4619   -1.7648    0.4238 H   0  0  0  0  0  0  0  0  0  0  0  0
    4.0753   -0.9804   -1.0810 H   0  0  0  0  0  0  0  0  0  0  0  0
    2.2173    0.6678   -1.0187 H   0  0  0  0  0  0  0  0  0  0  0  0
    1.5908   -1.0220   -1.0683 H   0  0  0  0  0  0  0  0  0  0  0  0
    1.2605   -0.9621    1.4330 H   0  0  0  0  0  0  0  0  0  0  0  0
    1.8762    0.7085    1.4836 H   0  0  0  0  0  0  0  0  0  0  0  0
   -4.1139   -1.0134   -0.4099 H   0  0  0  0  0  0  0  0  0  0  0  0
   -2.6438   -3.0934    0.0720 H   0  0  0  0  0  0  0  0  0  0  0  0
   -1.6872    3.2966   -0.0992 H   0  0  0  0  0  0  0  0  0  0  0  0
  1  2  1  0
  2  3  1  0
  3  4  1  0
  4  5  1  0
  5  6  2  0
  6  7  1  0
  7  8  1  0
  8  9  2  0
  6 10  1  0
 10 11  2  0
 10 12  1  0
 12 13  1  0
 13 14  2  0
 13  4  1  0
  9  5  1  0
  1 15  1  0
  1 16  1  0
  1 17  1  0
  2 18  1  0
  2 19  1  0
  3 20  1  0
  3 21  1  0
  7 22  1  0
  8 23  1  0
 12 24  1  0
M  END
$$$$
