
     RDKit          3D

 59 59  0  0  0  0  0  0  0  0999 V2000
    2.9629    1.0486   -0.3171 C   0  0  0  0  0  0  0  0  0  0  0  0
    3.3761    0.5243   -1.6707 C   0  0  0  0  0  0  0  0  0  0  0  0
    4.8977    0.3217   -1.7690 C   0  0  0  0  0  0  0  0  0  0  0  0
    5.7020    1.6263   -1.6507 C   0  0  0  0  0  0  0  0  0  0  0  0
    5.4369    2.5521   -2.7977 C   0  0  0  0  0  0  0  0  0  0  0  0
    4.5651    3.6244   -2.6363 O   0  0  0  0  0  0  0  0  0  0  0  0
    5.9802    2.3443   -3.9155 O   0  0  0  0  0  0  0  0  0  0  0  0
    2.7225    0.2815    0.7622 C   0  0  0  0  0  0  0  0  0  0  0  0
    2.7118   -1.2274    0.7603 C   0  0  0  0  0  0  0  0  0  0  0  0
    1.3534   -1.7877    0.2797 C   0  0  1  0  0  0  0  0  0  0  0  0
    1.3523   -3.3094    0.1074 C   0  0  1  0  0  0  0  0  0  0  0  0
    2.0150   -3.9451    1.1732 O   0  0  0  0  0  0  0  0  0  0  0  0
   -0.1235   -3.6940    0.1402 C   0  0  0  0  0  0  0  0  0  0  0  0
   -0.8428   -2.6308    0.9838 C   0  0  1  0  0  0  0  0  0  0  0  0
   -1.2816   -3.1771    2.2012 O   0  0  0  0  0  0  0  0  0  0  0  0
    0.1905   -1.5200    1.2497 C   0  0  2  0  0  0  0  0  0  0  0  0
   -0.3922   -0.1273    1.1256 C   0  0  0  0  0  0  0  0  0  0  0  0
   -0.9133    0.3468   -0.0189 C   0  0  0  0  0  0  0  0  0  0  0  0
   -1.4980    1.7372   -0.1123 C   0  0  1  0  0  0  0  0  0  0  0  0
   -0.8483    2.4585   -1.1284 O   0  0  0  0  0  0  0  0  0  0  0  0
   -3.0151    1.6848   -0.3769 C   0  0  0  0  0  0  0  0  0  0  0  0
   -3.7888    1.0841    0.8072 C   0  0  0  0  0  0  0  0  0  0  0  0
   -5.3014    1.1055    0.5433 C   0  0  0  0  0  0  0  0  0  0  0  0
   -6.1017    0.3859    1.6398 C   0  0  0  0  0  0  0  0  0  0  0  0
   -6.1035    1.1457    2.9659 C   0  0  0  0  0  0  0  0  0  0  0  0
    2.8980    2.1265   -0.1997 H   0  0  0  0  0  0  0  0  0  0  0  0
    2.8646   -0.4324   -1.8984 H   0  0  0  0  0  0  0  0  0  0  0  0
    3.0440    1.2441   -2.4484 H   0  0  0  0  0  0  0  0  0  0  0  0
    5.2315   -0.3733   -0.9693 H   0  0  0  0  0  0  0  0  0  0  0  0
    5.1328   -0.1648   -2.7410 H   0  0  0  0  0  0  0  0  0  0  0  0
    6.7854    1.3786   -1.6357 H   0  0  0  0  0  0  0  0  0  0  0  0
    5.4698    2.1383   -0.6926 H   0  0  0  0  0  0  0  0  0  0  0  0
    4.3646    4.2512   -3.4062 H   0  0  0  0  0  0  0  0  0  0  0  0
    2.4808    0.7800    1.6966 H   0  0  0  0  0  0  0  0  0  0  0  0
    2.9177   -1.5758    1.7953 H   0  0  0  0  0  0  0  0  0  0  0  0
    3.5315   -1.6184    0.1227 H   0  0  0  0  0  0  0  0  0  0  0  0
    1.1186   -1.3540   -0.7165 H   0  0  0  0  0  0  0  0  0  0  0  0
    1.8034   -3.6016   -0.8710 H   0  0  0  0  0  0  0  0  0  0  0  0
    2.9626   -4.0562    0.8992 H   0  0  0  0  0  0  0  0  0  0  0  0
   -0.5275   -3.6734   -0.8965 H   0  0  0  0  0  0  0  0  0  0  0  0
   -0.2669   -4.7208    0.5441 H   0  0  0  0  0  0  0  0  0  0  0  0
   -1.7174   -2.2403    0.4115 H   0  0  0  0  0  0  0  0  0  0  0  0
   -2.0841   -3.7243    1.9949 H   0  0  0  0  0  0  0  0  0  0  0  0
    0.5710   -1.6345    2.2909 H   0  0  0  0  0  0  0  0  0  0  0  0
   -0.3728    0.5066    2.0078 H   0  0  0  0  0  0  0  0  0  0  0  0
   -0.9524   -0.2857   -0.9012 H   0  0  0  0  0  0  0  0  0  0  0  0
   -1.3302    2.2893    0.8390 H   0  0  0  0  0  0  0  0  0  0  0  0
   -1.0192    1.9919   -1.9888 H   0  0  0  0  0  0  0  0  0  0  0  0
   -3.3781    2.7209   -0.5560 H   0  0  0  0  0  0  0  0  0  0  0  0
   -3.2156    1.0890   -1.2951 H   0  0  0  0  0  0  0  0  0  0  0  0
   -3.4615    0.0340    0.9700 H   0  0  0  0  0  0  0  0  0  0  0  0
   -3.5612    1.6725    1.7215 H   0  0  0  0  0  0  0  0  0  0  0  0
   -5.6544    2.1558    0.4474 H   0  0  0  0  0  0  0  0  0  0  0  0
   -5.5052    0.5918   -0.4218 H   0  0  0  0  0  0  0  0  0  0  0  0
   -5.6994   -0.6383    1.7977 H   0  0  0  0  0  0  0  0  0  0  0  0
   -7.1539    0.2838    1.2959 H   0  0  0  0  0  0  0  0  0  0  0  0
   -5.0893    1.1536    3.4160 H   0  0  0  0  0  0  0  0  0  0  0  0
   -6.4510    2.1900    2.8157 H   0  0  0  0  0  0  0  0  0  0  0  0
   -6.7923    0.6435    3.6774 H   0  0  0  0  0  0  0  0  0  0  0  0
  1  2  1  0
  2  3  1  0
  3  4  1  0
  4  5  1  0
  5  6  1  0
  5  7  2  0
  1  8  2  0
  8  9  1  0
  9 10  1  0
 10 11  1  0
 11 12  1  0
 11 13  1  0
 13 14  1  0
 14 15  1  0
 14 16  1  0
 16 17  1  0
 17 18  2  0
 18 19  1  0
 19 20  1  0
 19 21  1  0
 21 22  1  0
 22 23  1  0
 23 24  1  0
 24 25  1  0
 16 10  1  0
  1 26  1  0
  2 27  1  0
  2 28  1  0
  3 29  1  0
  3 30  1  0
  4 31  1  0
  4 32  1  0
  6 33  1  0
  8 34  1  0
  9 35  1  0
  9 36  1  0
 10 37  1  6
 11 38  1  6
 12 39  1  0
 13 40  1  0
 13 41  1  0
 14 42  1  6
 15 43  1  0
 16 44  1  1
 17 45  1  0
 18 46  1  0
 19 47  1  1
 20 48  1  0
 21 49  1  0
 21 50  1  0
 22 51  1  0
 22 52  1  0
 23 53  1  0
 23 54  1  0
 24 55  1  0
 24 56  1  0
 25 57  1  0
 25 58  1  0
 25 59  1  0
M  END
$$$$
