
     RDKit          3D

 54 57  0  0  0  0  0  0  0  0999 V2000
   -3.5114   -0.3563   -1.1388 C   0  0  2  0  0  0  0  0  0  0  0  0
   -4.1544   -1.0324    0.1002 C   0  0  0  0  0  0  0  0  0  0  0  0
   -3.3265   -0.9463    1.3964 C   0  0  0  0  0  0  0  0  0  0  0  0
   -3.5404    0.3314    2.0701 N   0  0  0  0  0  0  0  0  0  0  0  0
   -2.1630   -0.9404   -1.5245 C   0  0  0  0  0  0  0  0  0  0  0  0
   -1.3356   -0.2320   -2.1623 O   0  0  0  0  0  0  0  0  0  0  0  0
   -1.8674   -2.3267   -1.2952 N   0  0  0  0  0  0  0  0  0  0  0  0
   -0.5361   -2.8215   -1.0742 C   0  0  0  0  0  0  0  0  0  0  0  0
   -0.2432   -4.1812   -1.3596 C   0  0  0  0  0  0  0  0  0  0  0  0
    1.0436   -4.7060   -1.1345 C   0  0  0  0  0  0  0  0  0  0  0  0
    2.0075   -3.8490   -0.6126 C   0  0  0  0  0  0  0  0  0  0  0  0
    3.2888   -4.1201   -0.3108 N   0  0  0  0  0  0  0  0  0  0  0  0
    3.8519   -3.0182    0.1739 N   0  0  0  0  0  0  0  0  0  0  0  0
    2.9126   -2.0411    0.1818 C   0  0  0  0  0  0  0  0  0  0  0  0
    3.1338   -0.6933    0.6227 N   0  0  0  0  0  0  0  0  0  0  0  0
    4.3725   -0.2432    1.1978 C   0  0  0  0  0  0  0  0  0  0  0  0
    5.2360   -1.0854    1.5676 O   0  0  0  0  0  0  0  0  0  0  0  0
    4.6411    1.2024    1.3938 C   0  0  0  0  0  0  0  0  0  0  0  0
    5.5702    1.6214    2.3649 C   0  0  0  0  0  0  0  0  0  0  0  0
    5.8332    2.9815    2.5547 C   0  0  0  0  0  0  0  0  0  0  0  0
    5.1796    3.9372    1.7742 C   0  0  0  0  0  0  0  0  0  0  0  0
    4.2651    3.5343    0.7988 C   0  0  0  0  0  0  0  0  0  0  0  0
    3.9974    2.1755    0.6049 C   0  0  0  0  0  0  0  0  0  0  0  0
    1.7308   -2.5455   -0.3192 C   0  0  0  0  0  0  0  0  0  0  0  0
    0.4718   -1.9887   -0.5284 C   0  0  0  0  0  0  0  0  0  0  0  0
   -3.4789    1.1577   -0.9771 C   0  0  0  0  0  0  0  0  0  0  0  0
   -4.5588    1.9283   -1.4459 C   0  0  0  0  0  0  0  0  0  0  0  0
   -4.5672    3.3174   -1.2773 C   0  0  0  0  0  0  0  0  0  0  0  0
   -5.9176    4.2650   -1.8734 Cl  0  0  0  0  0  0  0  0  0  0  0  0
   -3.5026    3.9500   -0.6292 C   0  0  0  0  0  0  0  0  0  0  0  0
   -2.4324    3.1955   -0.1447 C   0  0  0  0  0  0  0  0  0  0  0  0
   -2.4199    1.8081   -0.3108 C   0  0  0  0  0  0  0  0  0  0  0  0
   -4.1780   -0.5904   -1.9983 H   0  0  0  0  0  0  0  0  0  0  0  0
   -4.3374   -2.1037   -0.1274 H   0  0  0  0  0  0  0  0  0  0  0  0
   -5.1623   -0.5947    0.2740 H   0  0  0  0  0  0  0  0  0  0  0  0
   -2.2446   -1.0804    1.1834 H   0  0  0  0  0  0  0  0  0  0  0  0
   -3.6343   -1.7721    2.0763 H   0  0  0  0  0  0  0  0  0  0  0  0
   -2.8975    0.3693    2.8938 H   0  0  0  0  0  0  0  0  0  0  0  0
   -4.5143    0.3435    2.4516 H   0  0  0  0  0  0  0  0  0  0  0  0
   -2.6491   -3.0169   -1.3527 H   0  0  0  0  0  0  0  0  0  0  0  0
   -1.0127   -4.8276   -1.7622 H   0  0  0  0  0  0  0  0  0  0  0  0
    1.2729   -5.7401   -1.3566 H   0  0  0  0  0  0  0  0  0  0  0  0
    3.7799   -5.0341   -0.4279 H   0  0  0  0  0  0  0  0  0  0  0  0
    2.3369   -0.0230    0.5541 H   0  0  0  0  0  0  0  0  0  0  0  0
    6.0851    0.8981    2.9850 H   0  0  0  0  0  0  0  0  0  0  0  0
    6.5445    3.2945    3.3081 H   0  0  0  0  0  0  0  0  0  0  0  0
    5.3855    4.9895    1.9216 H   0  0  0  0  0  0  0  0  0  0  0  0
    3.7673    4.2757    0.1871 H   0  0  0  0  0  0  0  0  0  0  0  0
    3.3060    1.8928   -0.1776 H   0  0  0  0  0  0  0  0  0  0  0  0
    0.2747   -0.9600   -0.2588 H   0  0  0  0  0  0  0  0  0  0  0  0
   -5.3956    1.4498   -1.9400 H   0  0  0  0  0  0  0  0  0  0  0  0
   -3.5065    5.0242   -0.4953 H   0  0  0  0  0  0  0  0  0  0  0  0
   -1.6133    3.6856    0.3656 H   0  0  0  0  0  0  0  0  0  0  0  0
   -1.5879    1.2419    0.0883 H   0  0  0  0  0  0  0  0  0  0  0  0
  1  2  1  0
  2  3  1  0
  3  4  1  0
  1  5  1  0
  5  6  2  0
  5  7  1  0
  7  8  1  0
  8  9  2  0
  9 10  1  0
 10 11  2  0
 11 12  1  0
 12 13  1  0
 13 14  2  0
 14 15  1  0
 15 16  1  0
 16 17  2  0
 16 18  1  0
 18 19  2  0
 19 20  1  0
 20 21  2  0
 21 22  1  0
 22 23  2  0
 14 24  1  0
 24 25  2  0
  1 26  1  0
 26 27  2  0
 27 28  1  0
 28 29  1  0
 28 30  2  0
 30 31  1  0
 31 32  2  0
 25  8  1  0
 32 26  1  0
 24 11  1  0
 23 18  1  0
  1 33  1  6
  2 34  1  0
  2 35  1  0
  3 36  1  0
  3 37  1  0
  4 38  1  0
  4 39  1  0
  7 40  1  0
  9 41  1  0
 10 42  1  0
 12 43  1  0
 15 44  1  0
 19 45  1  0
 20 46  1  0
 21 47  1  0
 22 48  1  0
 23 49  1  0
 25 50  1  0
 27 51  1  0
 30 52  1  0
 31 53  1  0
 32 54  1  0
M  END
$$$$
