
     RDKit          3D

 83 86  0  0  0  0  0  0  0  0999 V2000
   -1.8988   -0.0808    0.7133 C   0  0  1  0  0  0  0  0  0  0  0  0
   -1.1939    0.9896   -0.1622 C   0  0  0  0  0  0  0  0  0  0  0  0
   -1.8088    1.2141   -1.5587 C   0  0  0  0  0  0  0  0  0  0  0  0
   -3.1573    1.9328   -1.5199 C   0  0  0  0  0  0  0  0  0  0  0  0
   -3.1720    0.4611    1.3098 C   0  0  0  0  0  0  0  0  0  0  0  0
   -3.1600    1.4149    2.2493 C   0  0  0  0  0  0  0  0  0  0  0  0
   -4.6642    2.1238    2.8111 S   0  0  0  0  0  6  0  0  0  0  0  0
   -4.3710    3.1489    3.8705 O   0  0  0  0  0  0  0  0  0  0  0  0
   -5.5420    1.0577    3.4049 O   0  0  0  0  0  0  0  0  0  0  0  0
   -5.4643    2.8966    1.4471 C   0  0  0  0  0  0  0  0  0  0  0  0
   -5.1021    4.1963    1.0650 C   0  0  0  0  0  0  0  0  0  0  0  0
   -5.6970    4.7914   -0.0518 C   0  0  0  0  0  0  0  0  0  0  0  0
   -6.6511    4.0896   -0.7942 C   0  0  0  0  0  0  0  0  0  0  0  0
   -7.0106    2.7914   -0.4209 C   0  0  0  0  0  0  0  0  0  0  0  0
   -6.4177    2.1940    0.6958 C   0  0  0  0  0  0  0  0  0  0  0  0
   -2.2178   -1.2955   -0.0472 N   0  0  0  0  0  0  0  0  0  0  0  0
   -1.4098   -2.2263   -0.4789 C   0  0  0  0  0  0  0  0  0  0  0  0
   -1.9540   -3.3116   -1.1617 O   0  0  0  0  0  0  0  0  0  0  0  0
    0.0889   -2.1926   -0.2732 C   0  0  2  0  0  0  0  0  0  0  0  0
    0.8289   -1.8230   -1.5788 C   0  0  0  0  0  0  0  0  0  0  0  0
    0.6946   -2.8620   -2.6661 C   0  0  0  0  0  0  0  0  0  0  0  0
   -0.2998   -2.7339   -3.6513 C   0  0  0  0  0  0  0  0  0  0  0  0
   -0.4321   -3.7038   -4.6496 C   0  0  0  0  0  0  0  0  0  0  0  0
    0.4273   -4.8054   -4.6742 C   0  0  0  0  0  0  0  0  0  0  0  0
    1.4214   -4.9384   -3.7012 C   0  0  0  0  0  0  0  0  0  0  0  0
    1.5570   -3.9712   -2.7008 C   0  0  0  0  0  0  0  0  0  0  0  0
    0.5336   -3.4962    0.2287 N   0  0  0  0  0  0  0  0  0  0  0  0
    1.6160   -3.7127    0.9207 C   0  0  0  0  0  0  0  0  0  0  0  0
    1.9558   -5.0159    1.2701 O   0  0  0  0  0  0  0  0  0  0  0  0
    2.4708   -2.6355    1.3278 N   0  0  0  0  0  0  0  0  0  0  0  0
    3.8400   -2.5811    0.8120 C   0  0  0  0  0  0  0  0  0  0  0  0
    4.5375   -1.2670    1.2025 C   0  0  0  0  0  0  0  0  0  0  0  0
    3.5388   -0.0765    1.1760 C   0  0  0  0  0  0  0  0  0  0  0  0
    2.4125   -0.3328    2.2232 C   0  0  0  0  0  0  0  0  0  0  0  0
    2.1092   -1.8188    2.4870 C   0  0  0  0  0  0  0  0  0  0  0  0
    4.2047    1.2364    1.4367 N   0  0  0  0  0  0  0  0  0  0  0  0
    3.2519    2.3609    1.2828 C   0  0  0  0  0  0  0  0  0  0  0  0
    3.9325    3.7017    1.6373 C   0  0  0  0  0  0  0  0  0  0  0  0
    5.3457    3.6162    1.6492 O   0  0  0  0  0  0  0  0  0  0  0  0
    5.7883    2.9434    0.4922 C   0  0  0  0  0  0  0  0  0  0  0  0
    5.3735    1.4612    0.5470 C   0  0  0  0  0  0  0  0  0  0  0  0
   -1.2407   -0.3483    1.5689 H   0  0  0  0  0  0  0  0  0  0  0  0
   -0.1347    0.6948   -0.3002 H   0  0  0  0  0  0  0  0  0  0  0  0
   -1.1492    1.9592    0.3799 H   0  0  0  0  0  0  0  0  0  0  0  0
   -1.9128    0.2531   -2.1053 H   0  0  0  0  0  0  0  0  0  0  0  0
   -1.1040    1.8443   -2.1433 H   0  0  0  0  0  0  0  0  0  0  0  0
   -3.9548    1.2508   -1.1629 H   0  0  0  0  0  0  0  0  0  0  0  0
   -3.4296    2.2623   -2.5446 H   0  0  0  0  0  0  0  0  0  0  0  0
   -3.1076    2.8279   -0.8643 H   0  0  0  0  0  0  0  0  0  0  0  0
   -4.1256    0.0828    0.9505 H   0  0  0  0  0  0  0  0  0  0  0  0
   -2.2207    1.8049    2.6297 H   0  0  0  0  0  0  0  0  0  0  0  0
   -4.3526    4.7428    1.6232 H   0  0  0  0  0  0  0  0  0  0  0  0
   -5.4141    5.7940   -0.3453 H   0  0  0  0  0  0  0  0  0  0  0  0
   -7.1085    4.5499   -1.6604 H   0  0  0  0  0  0  0  0  0  0  0  0
   -7.7445    2.2461   -1.0000 H   0  0  0  0  0  0  0  0  0  0  0  0
   -6.6930    1.1826    0.9658 H   0  0  0  0  0  0  0  0  0  0  0  0
   -2.9508   -3.3790   -1.3307 H   0  0  0  0  0  0  0  0  0  0  0  0
    0.3383   -1.4246    0.4744 H   0  0  0  0  0  0  0  0  0  0  0  0
    0.4579   -0.8463   -1.9545 H   0  0  0  0  0  0  0  0  0  0  0  0
    1.9049   -1.6688   -1.3569 H   0  0  0  0  0  0  0  0  0  0  0  0
   -0.9757   -1.8877   -3.6416 H   0  0  0  0  0  0  0  0  0  0  0  0
   -1.2019   -3.6018   -5.4035 H   0  0  0  0  0  0  0  0  0  0  0  0
    0.3233   -5.5555   -5.4476 H   0  0  0  0  0  0  0  0  0  0  0  0
    2.0874   -5.7913   -3.7221 H   0  0  0  0  0  0  0  0  0  0  0  0
    2.3337   -4.0864   -1.9555 H   0  0  0  0  0  0  0  0  0  0  0  0
    1.3761   -5.7994    0.9930 H   0  0  0  0  0  0  0  0  0  0  0  0
    3.8140   -2.6567   -0.2965 H   0  0  0  0  0  0  0  0  0  0  0  0
    4.4223   -3.4439    1.2013 H   0  0  0  0  0  0  0  0  0  0  0  0
    4.9749   -1.3604    2.2209 H   0  0  0  0  0  0  0  0  0  0  0  0
    5.3708   -1.1262    0.4850 H   0  0  0  0  0  0  0  0  0  0  0  0
    3.0731   -0.0555    0.1631 H   0  0  0  0  0  0  0  0  0  0  0  0
    1.4781    0.1547    1.8703 H   0  0  0  0  0  0  0  0  0  0  0  0
    2.6860    0.1372    3.1935 H   0  0  0  0  0  0  0  0  0  0  0  0
    2.6963   -2.1679    3.3644 H   0  0  0  0  0  0  0  0  0  0  0  0
    1.0325   -1.9403    2.7403 H   0  0  0  0  0  0  0  0  0  0  0  0
    2.8724    2.4022    0.2359 H   0  0  0  0  0  0  0  0  0  0  0  0
    2.3768    2.2472    1.9550 H   0  0  0  0  0  0  0  0  0  0  0  0
    3.6049    4.0150    2.6516 H   0  0  0  0  0  0  0  0  0  0  0  0
    3.6051    4.4973    0.9315 H   0  0  0  0  0  0  0  0  0  0  0  0
    5.3876    3.4285   -0.4285 H   0  0  0  0  0  0  0  0  0  0  0  0
    6.8953    3.0174    0.4361 H   0  0  0  0  0  0  0  0  0  0  0  0
    6.2402    0.8937    0.9491 H   0  0  0  0  0  0  0  0  0  0  0  0
    5.1643    1.1102   -0.4892 H   0  0  0  0  0  0  0  0  0  0  0  0
  1  2  1  0
  2  3  1  0
  3  4  1  0
  1  5  1  0
  5  6  2  3
  6  7  1  0
  7  8  2  0
  7  9  2  0
  7 10  1  0
 10 11  2  0
 11 12  1  0
 12 13  2  0
 13 14  1  0
 14 15  2  0
  1 16  1  0
 16 17  2  3
 17 18  1  0
 17 19  1  0
 19 20  1  0
 20 21  1  0
 21 22  2  0
 22 23  1  0
 23 24  2  0
 24 25  1  0
 25 26  2  0
 19 27  1  0
 27 28  2  3
 28 29  1  0
 28 30  1  0
 30 31  1  0
 31 32  1  0
 32 33  1  0
 33 34  1  0
 34 35  1  0
 33 36  1  0
 36 37  1  0
 37 38  1  0
 38 39  1  0
 39 40  1  0
 40 41  1  0
 15 10  1  0
 26 21  1  0
 35 30  1  0
 41 36  1  0
  1 42  1  1
  2 43  1  0
  2 44  1  0
  3 45  1  0
  3 46  1  0
  4 47  1  0
  4 48  1  0
  4 49  1  0
  5 50  1  0
  6 51  1  0
 11 52  1  0
 12 53  1  0
 13 54  1  0
 14 55  1  0
 15 56  1  0
 18 57  1  0
 19 58  1  1
 20 59  1  0
 20 60  1  0
 22 61  1  0
 23 62  1  0
 24 63  1  0
 25 64  1  0
 26 65  1  0
 29 66  1  0
 31 67  1  0
 31 68  1  0
 32 69  1  0
 32 70  1  0
 33 71  1  0
 34 72  1  0
 34 73  1  0
 35 74  1  0
 35 75  1  0
 37 76  1  0
 37 77  1  0
 38 78  1  0
 38 79  1  0
 40 80  1  0
 40 81  1  0
 41 82  1  0
 41 83  1  0
M  END
$$$$
