
     RDKit          3D

 45 48  0  0  0  0  0  0  0  0999 V2000
   -3.2353   -2.0330    0.5832 C   0  0  0  0  0  0  0  0  0  0  0  0
   -2.5163   -0.9481   -0.0854 N   0  0  0  0  0  0  0  0  0  0  0  0
   -2.8182    0.4494    0.2456 C   0  0  0  0  0  0  0  0  0  0  0  0
   -4.1601    0.8645   -0.3527 C   0  0  0  0  0  0  0  0  0  0  0  0
   -4.4124    2.2073   -0.0471 O   0  0  0  0  0  0  0  0  0  0  0  0
   -1.7574   -1.2496   -1.2641 C   0  0  0  0  0  0  0  0  0  0  0  0
   -2.3735   -1.8146   -2.3446 N   0  0  0  0  0  0  0  0  0  0  0  0
   -1.7001   -2.0511   -3.5127 C   0  0  0  0  0  0  0  0  0  0  0  0
   -0.3839   -1.7111   -3.6333 N   0  0  0  0  0  0  0  0  0  0  0  0
    0.2412   -1.1600   -2.5659 C   0  0  0  0  0  0  0  0  0  0  0  0
   -0.3973   -0.9410   -1.3798 C   0  0  0  0  0  0  0  0  0  0  0  0
    0.5510   -0.3935   -0.5300 C   0  0  0  0  0  0  0  0  0  0  0  0
    1.7186   -0.3072   -1.3039 C   0  0  0  0  0  0  0  0  0  0  0  0
    1.4905   -0.7732   -2.5195 O   0  0  0  0  0  0  0  0  0  0  0  0
    3.0404    0.2076   -0.8860 C   0  0  0  0  0  0  0  0  0  0  0  0
    3.5286    0.0072    0.4181 C   0  0  0  0  0  0  0  0  0  0  0  0
    4.7865    0.4963    0.7836 C   0  0  0  0  0  0  0  0  0  0  0  0
    5.5729    1.1754   -0.1500 C   0  0  0  0  0  0  0  0  0  0  0  0
    5.1061    1.3593   -1.4537 C   0  0  0  0  0  0  0  0  0  0  0  0
    3.8487    0.8720   -1.8235 C   0  0  0  0  0  0  0  0  0  0  0  0
    0.3616    0.0466    0.8642 C   0  0  0  0  0  0  0  0  0  0  0  0
    0.6329    1.3749    1.2286 C   0  0  0  0  0  0  0  0  0  0  0  0
    0.4501    1.7917    2.5505 C   0  0  0  0  0  0  0  0  0  0  0  0
    0.0014    0.8849    3.5150 C   0  0  0  0  0  0  0  0  0  0  0  0
   -0.2597   -0.4416    3.1601 C   0  0  0  0  0  0  0  0  0  0  0  0
   -0.0762   -0.8623    1.8397 C   0  0  0  0  0  0  0  0  0  0  0  0
   -3.7852   -1.6573    1.4724 H   0  0  0  0  0  0  0  0  0  0  0  0
   -3.9642   -2.4922   -0.1173 H   0  0  0  0  0  0  0  0  0  0  0  0
   -2.5153   -2.8080    0.9193 H   0  0  0  0  0  0  0  0  0  0  0  0
   -2.8414    0.5778    1.3498 H   0  0  0  0  0  0  0  0  0  0  0  0
   -2.0275    1.1206   -0.1541 H   0  0  0  0  0  0  0  0  0  0  0  0
   -4.9700    0.2273    0.0671 H   0  0  0  0  0  0  0  0  0  0  0  0
   -4.1281    0.7307   -1.4573 H   0  0  0  0  0  0  0  0  0  0  0  0
   -5.2878    2.4236   -0.4617 H   0  0  0  0  0  0  0  0  0  0  0  0
   -2.2184   -2.4974   -4.3501 H   0  0  0  0  0  0  0  0  0  0  0  0
    2.9543   -0.5468    1.1481 H   0  0  0  0  0  0  0  0  0  0  0  0
    5.1553    0.3407    1.7892 H   0  0  0  0  0  0  0  0  0  0  0  0
    6.5469    1.5519    0.1344 H   0  0  0  0  0  0  0  0  0  0  0  0
    5.7191    1.8791   -2.1787 H   0  0  0  0  0  0  0  0  0  0  0  0
    3.5009    1.0253   -2.8378 H   0  0  0  0  0  0  0  0  0  0  0  0
    0.9762    2.0870    0.4882 H   0  0  0  0  0  0  0  0  0  0  0  0
    0.6550    2.8177    2.8269 H   0  0  0  0  0  0  0  0  0  0  0  0
   -0.1406    1.2092    4.5378 H   0  0  0  0  0  0  0  0  0  0  0  0
   -0.6015   -1.1446    3.9086 H   0  0  0  0  0  0  0  0  0  0  0  0
   -0.2676   -1.8953    1.5786 H   0  0  0  0  0  0  0  0  0  0  0  0
  1  2  1  0
  2  3  1  0
  3  4  1  0
  4  5  1  0
  2  6  1  0
  6  7  2  0
  7  8  1  0
  8  9  2  0
  9 10  1  0
 10 11  2  0
 11 12  1  0
 12 13  2  0
 13 14  1  0
 13 15  1  0
 15 16  2  0
 16 17  1  0
 17 18  2  0
 18 19  1  0
 19 20  2  0
 12 21  1  0
 21 22  2  0
 22 23  1  0
 23 24  2  0
 24 25  1  0
 25 26  2  0
 11  6  1  0
 20 15  1  0
 26 21  1  0
 14 10  1  0
  1 27  1  0
  1 28  1  0
  1 29  1  0
  3 30  1  0
  3 31  1  0
  4 32  1  0
  4 33  1  0
  5 34  1  0
  8 35  1  0
 16 36  1  0
 17 37  1  0
 18 38  1  0
 19 39  1  0
 20 40  1  0
 22 41  1  0
 23 42  1  0
 24 43  1  0
 25 44  1  0
 26 45  1  0
M  END
$$$$
