
     RDKit          3D

 44 46  0  0  0  0  0  0  0  0999 V2000
    7.6127   -0.9096    1.8022 N   0  0  0  0  0  0  0  0  0  0  0  0
    7.4571    0.2341    0.9581 C   0  0  0  0  0  0  0  0  0  0  0  0
    8.4685    1.0281    0.7874 N   0  0  0  0  0  0  0  0  0  0  0  0
    6.1534    0.5060    0.3014 C   0  0  0  0  0  0  0  0  0  0  0  0
    6.0977    1.0464   -0.9954 C   0  0  0  0  0  0  0  0  0  0  0  0
    4.8658    1.2951   -1.6073 C   0  0  0  0  0  0  0  0  0  0  0  0
    3.6676    0.9947   -0.9451 C   0  0  0  0  0  0  0  0  0  0  0  0
    2.4145    1.2822   -1.5896 N   0  0  0  0  0  0  0  0  0  0  0  0
    1.2175    0.5109   -1.4046 C   0  0  0  0  0  0  0  0  0  0  0  0
    1.2721   -0.6236   -0.8564 O   0  0  0  0  0  0  0  0  0  0  0  0
   -0.0275    1.0035   -1.9232 N   0  0  0  0  0  0  0  0  0  0  0  0
   -1.3111    0.4286   -1.6230 C   0  0  0  0  0  0  0  0  0  0  0  0
   -2.3260    0.4699   -2.5901 C   0  0  0  0  0  0  0  0  0  0  0  0
   -3.5891   -0.0623   -2.3157 C   0  0  0  0  0  0  0  0  0  0  0  0
   -3.8677   -0.6169   -1.0622 C   0  0  0  0  0  0  0  0  0  0  0  0
   -5.1424   -1.1550   -0.8315 O   0  0  0  0  0  0  0  0  0  0  0  0
   -5.7940   -1.1995    0.4099 C   0  0  0  0  0  0  0  0  0  0  0  0
   -6.6976   -2.2405    0.6587 C   0  0  0  0  0  0  0  0  0  0  0  0
   -7.3780   -2.3102    1.8785 C   0  0  0  0  0  0  0  0  0  0  0  0
   -7.1687   -1.3311    2.8536 C   0  0  0  0  0  0  0  0  0  0  0  0
   -6.2844   -0.2774    2.6069 C   0  0  0  0  0  0  0  0  0  0  0  0
   -5.6024   -0.2055    1.3882 C   0  0  0  0  0  0  0  0  0  0  0  0
   -2.8546   -0.6585   -0.0884 C   0  0  0  0  0  0  0  0  0  0  0  0
   -1.5905   -0.1280   -0.3620 C   0  0  0  0  0  0  0  0  0  0  0  0
    3.7201    0.4737    0.3591 C   0  0  0  0  0  0  0  0  0  0  0  0
    4.9515    0.2243    0.9722 C   0  0  0  0  0  0  0  0  0  0  0  0
    6.8531   -1.6194    1.8973 H   0  0  0  0  0  0  0  0  0  0  0  0
    8.5160   -1.0799    2.2978 H   0  0  0  0  0  0  0  0  0  0  0  0
    8.4200    1.8919    0.2027 H   0  0  0  0  0  0  0  0  0  0  0  0
    7.0049    1.2597   -1.5461 H   0  0  0  0  0  0  0  0  0  0  0  0
    4.8446    1.7097   -2.6075 H   0  0  0  0  0  0  0  0  0  0  0  0
    2.3901    2.0543   -2.2935 H   0  0  0  0  0  0  0  0  0  0  0  0
    0.0110    1.7813   -2.6202 H   0  0  0  0  0  0  0  0  0  0  0  0
   -2.1333    0.9050   -3.5628 H   0  0  0  0  0  0  0  0  0  0  0  0
   -4.3583   -0.0345   -3.0770 H   0  0  0  0  0  0  0  0  0  0  0  0
   -6.8665   -3.0012   -0.0929 H   0  0  0  0  0  0  0  0  0  0  0  0
   -8.0686   -3.1219    2.0669 H   0  0  0  0  0  0  0  0  0  0  0  0
   -7.6970   -1.3849    3.7967 H   0  0  0  0  0  0  0  0  0  0  0  0
   -6.1328    0.4877    3.3573 H   0  0  0  0  0  0  0  0  0  0  0  0
   -4.9437    0.6325    1.2023 H   0  0  0  0  0  0  0  0  0  0  0  0
   -3.0369   -1.1099    0.8780 H   0  0  0  0  0  0  0  0  0  0  0  0
   -0.8418   -0.1372    0.4187 H   0  0  0  0  0  0  0  0  0  0  0  0
    2.8129    0.2855    0.9174 H   0  0  0  0  0  0  0  0  0  0  0  0
    4.9618   -0.1634    1.9831 H   0  0  0  0  0  0  0  0  0  0  0  0
  1  2  1  0
  2  3  2  3
  2  4  1  0
  4  5  2  0
  5  6  1  0
  6  7  2  0
  7  8  1  0
  8  9  1  0
  9 10  2  0
  9 11  1  0
 11 12  1  0
 12 13  2  0
 13 14  1  0
 14 15  2  0
 15 16  1  0
 16 17  1  0
 17 18  2  0
 18 19  1  0
 19 20  2  0
 20 21  1  0
 21 22  2  0
 15 23  1  0
 23 24  2  0
  7 25  1  0
 25 26  2  0
 26  4  1  0
 24 12  1  0
 22 17  1  0
  1 27  1  0
  1 28  1  0
  3 29  1  0
  5 30  1  0
  6 31  1  0
  8 32  1  0
 11 33  1  0
 13 34  1  0
 14 35  1  0
 18 36  1  0
 19 37  1  0
 20 38  1  0
 21 39  1  0
 22 40  1  0
 23 41  1  0
 24 42  1  0
 25 43  1  0
 26 44  1  0
M  END
$$$$
