
     RDKit          3D

 40 42  0  0  0  0  0  0  0  0999 V2000
    2.1739   -0.8555    3.5358 C   0  0  0  0  0  0  0  0  0  0  0  0
    3.0447   -0.9438    2.3662 N   0  0  0  0  0  0  0  0  0  0  0  0
    4.3108   -0.5100    2.2351 C   0  0  0  0  0  0  0  0  0  0  0  0
    4.9648    0.0676    3.1442 O   0  0  0  0  0  0  0  0  0  0  0  0
    4.7976   -0.7694    1.0122 N   0  0  0  0  0  0  0  0  0  0  0  0
    3.8457   -1.3807    0.3239 N   0  0  0  0  0  0  0  0  0  0  0  0
    2.7814   -1.4803    1.1519 C   0  0  0  0  0  0  0  0  0  0  0  0
    1.4853   -2.1234    0.7492 C   0  0  0  0  0  0  0  0  0  0  0  0
    0.9306   -1.4489   -0.4356 N   0  0  0  0  0  0  0  0  0  0  0  0
    1.1844   -1.9697   -1.6732 C   0  0  0  0  0  0  0  0  0  0  0  0
    0.7103   -1.3430   -2.8241 C   0  0  0  0  0  0  0  0  0  0  0  0
   -0.0407   -0.1644   -2.7208 C   0  0  0  0  0  0  0  0  0  0  0  0
   -0.3100    0.3601   -1.4447 C   0  0  0  0  0  0  0  0  0  0  0  0
   -1.0600    1.5419   -1.3309 O   0  0  0  0  0  0  0  0  0  0  0  0
   -2.1326    1.7329   -0.4471 C   0  0  0  0  0  0  0  0  0  0  0  0
   -2.8706    0.6535    0.0748 C   0  0  0  0  0  0  0  0  0  0  0  0
   -3.9412    0.8878    0.9474 C   0  0  0  0  0  0  0  0  0  0  0  0
   -4.2863    2.2001    1.2928 C   0  0  0  0  0  0  0  0  0  0  0  0
   -3.5666    3.2758    0.7626 C   0  0  0  0  0  0  0  0  0  0  0  0
   -4.0057    4.9198    1.1886 Cl  0  0  0  0  0  0  0  0  0  0  0  0
   -2.4969    3.0412   -0.1080 C   0  0  0  0  0  0  0  0  0  0  0  0
   -4.6892   -0.2190    1.4839 C   0  0  0  0  0  0  0  0  0  0  0  0
   -5.2903   -1.1089    1.9151 N   0  0  0  0  0  0  0  0  0  0  0  0
    0.2148   -0.2851   -0.3067 C   0  0  0  0  0  0  0  0  0  0  0  0
    0.0402    0.2287    0.8328 O   0  0  0  0  0  0  0  0  0  0  0  0
   -0.5772    0.5283   -3.9527 C   0  0  0  0  0  0  0  0  0  0  0  0
   -0.1979   -0.1214   -5.1148 F   0  0  0  0  0  0  0  0  0  0  0  0
   -1.9590    0.5597   -3.8989 F   0  0  0  0  0  0  0  0  0  0  0  0
   -0.0972    1.8247   -4.0007 F   0  0  0  0  0  0  0  0  0  0  0  0
    1.8494   -1.8730    3.8384 H   0  0  0  0  0  0  0  0  0  0  0  0
    1.2826   -0.2403    3.2936 H   0  0  0  0  0  0  0  0  0  0  0  0
    2.7081   -0.3862    4.3886 H   0  0  0  0  0  0  0  0  0  0  0  0
    5.7489   -0.5422    0.6469 H   0  0  0  0  0  0  0  0  0  0  0  0
    1.6729   -3.1996    0.5411 H   0  0  0  0  0  0  0  0  0  0  0  0
    0.7505   -2.0973    1.5817 H   0  0  0  0  0  0  0  0  0  0  0  0
    1.7685   -2.8764   -1.7804 H   0  0  0  0  0  0  0  0  0  0  0  0
    0.9342   -1.7841   -3.7867 H   0  0  0  0  0  0  0  0  0  0  0  0
   -2.6224   -0.3629   -0.2055 H   0  0  0  0  0  0  0  0  0  0  0  0
   -5.1140    2.3875    1.9667 H   0  0  0  0  0  0  0  0  0  0  0  0
   -1.9419    3.8758   -0.5178 H   0  0  0  0  0  0  0  0  0  0  0  0
  1  2  1  0
  2  3  1  0
  3  4  2  0
  3  5  1  0
  5  6  1  0
  6  7  2  0
  7  8  1  0
  8  9  1  0
  9 10  1  0
 10 11  2  0
 11 12  1  0
 12 13  2  0
 13 14  1  0
 14 15  1  0
 15 16  2  0
 16 17  1  0
 17 18  2  0
 18 19  1  0
 19 20  1  0
 19 21  2  0
 17 22  1  0
 22 23  3  0
 13 24  1  0
 24 25  2  0
 12 26  1  0
 26 27  1  0
 26 28  1  0
 26 29  1  0
  7  2  1  0
 24  9  1  0
 21 15  1  0
  1 30  1  0
  1 31  1  0
  1 32  1  0
  5 33  1  0
  8 34  1  0
  8 35  1  0
 10 36  1  0
 11 37  1  0
 16 38  1  0
 18 39  1  0
 21 40  1  0
M  END
$$$$
