
     RDKit          3D

 38 38  0  0  0  0  0  0  0  0999 V2000
    3.7045    0.9831    1.1028 C   0  0  0  0  0  0  0  0  0  0  0  0
    2.8258   -0.1473    0.5230 C   0  0  0  0  0  0  0  0  0  0  0  0
    3.4013   -0.6244   -0.8300 C   0  0  0  0  0  0  0  0  0  0  0  0
    2.8644   -1.3299    1.5141 C   0  0  0  0  0  0  0  0  0  0  0  0
    1.4148    0.2982    0.3979 N   0  0  0  0  0  0  0  0  0  0  0  0
    1.1667    1.3255   -0.6301 C   0  0  0  0  0  0  0  0  0  0  0  0
   -0.2268    1.9542   -0.4295 C   0  0  0  0  0  0  0  0  0  0  0  0
   -0.4125    3.0619   -1.2766 O   0  0  0  0  0  0  0  0  0  0  0  0
   -1.3444    0.9453   -0.6212 C   0  0  0  0  0  0  0  0  0  0  0  0
   -2.1392    0.5591    0.4720 C   0  0  0  0  0  0  0  0  0  0  0  0
   -3.1688   -0.3840    0.3156 C   0  0  0  0  0  0  0  0  0  0  0  0
   -3.9844   -0.8057    1.5071 C   0  0  0  0  0  0  0  0  0  0  0  0
   -3.4641   -1.9970    2.0263 O   0  0  0  0  0  0  0  0  0  0  0  0
   -3.3839   -0.9710   -0.9451 C   0  0  0  0  0  0  0  0  0  0  0  0
   -4.3810   -1.9324   -1.1106 O   0  0  0  0  0  0  0  0  0  0  0  0
   -2.5912   -0.5905   -2.0352 C   0  0  0  0  0  0  0  0  0  0  0  0
   -1.5804    0.3591   -1.8766 C   0  0  0  0  0  0  0  0  0  0  0  0
    3.2220    1.4236    2.0017 H   0  0  0  0  0  0  0  0  0  0  0  0
    3.8816    1.7900    0.3629 H   0  0  0  0  0  0  0  0  0  0  0  0
    4.7034    0.5932    1.3958 H   0  0  0  0  0  0  0  0  0  0  0  0
    4.4065   -1.0774   -0.6889 H   0  0  0  0  0  0  0  0  0  0  0  0
    3.5155    0.2220   -1.5396 H   0  0  0  0  0  0  0  0  0  0  0  0
    2.7339   -1.3851   -1.2887 H   0  0  0  0  0  0  0  0  0  0  0  0
    2.4416   -1.0248    2.4957 H   0  0  0  0  0  0  0  0  0  0  0  0
    3.9057   -1.6848    1.6747 H   0  0  0  0  0  0  0  0  0  0  0  0
    2.2658   -2.1838    1.1295 H   0  0  0  0  0  0  0  0  0  0  0  0
    0.8220   -0.5321    0.1578 H   0  0  0  0  0  0  0  0  0  0  0  0
    1.9098    2.1445   -0.5597 H   0  0  0  0  0  0  0  0  0  0  0  0
    1.2368    0.8811   -1.6474 H   0  0  0  0  0  0  0  0  0  0  0  0
   -0.2577    2.3438    0.6120 H   0  0  0  0  0  0  0  0  0  0  0  0
   -0.1990    2.7817   -2.2044 H   0  0  0  0  0  0  0  0  0  0  0  0
   -1.9547    0.9894    1.4492 H   0  0  0  0  0  0  0  0  0  0  0  0
   -5.0459   -0.9534    1.2069 H   0  0  0  0  0  0  0  0  0  0  0  0
   -3.9653   -0.0145    2.2901 H   0  0  0  0  0  0  0  0  0  0  0  0
   -4.0401   -2.2356    2.7985 H   0  0  0  0  0  0  0  0  0  0  0  0
   -4.5533   -2.3700   -2.0082 H   0  0  0  0  0  0  0  0  0  0  0  0
   -2.7534   -1.0374   -3.0079 H   0  0  0  0  0  0  0  0  0  0  0  0
   -0.9760    0.6256   -2.7338 H   0  0  0  0  0  0  0  0  0  0  0  0
  1  2  1  0
  2  3  1  0
  2  4  1  0
  2  5  1  0
  5  6  1  0
  6  7  1  0
  7  8  1  0
  7  9  1  0
  9 10  2  0
 10 11  1  0
 11 12  1  0
 12 13  1  0
 11 14  2  0
 14 15  1  0
 14 16  1  0
 16 17  2  0
 17  9  1  0
  1 18  1  0
  1 19  1  0
  1 20  1  0
  3 21  1  0
  3 22  1  0
  3 23  1  0
  4 24  1  0
  4 25  1  0
  4 26  1  0
  5 27  1  0
  6 28  1  0
  6 29  1  0
  7 30  1  0
  8 31  1  0
 10 32  1  0
 12 33  1  0
 12 34  1  0
 13 35  1  0
 15 36  1  0
 16 37  1  0
 17 38  1  0
M  END
$$$$
