
     RDKit          3D

 18 18  0  0  0  0  0  0  0  0999 V2000
   -0.9074    1.9410   -0.2058 N   0  0  0  0  0  0  0  0  0  0  0  0
    0.0477    0.8720   -0.1401 C   0  0  0  0  0  0  0  0  0  0  0  0
    1.3647    1.1202   -0.5613 C   0  0  0  0  0  0  0  0  0  0  0  0
    2.3236    0.1066   -0.5367 C   0  0  0  0  0  0  0  0  0  0  0  0
    1.9790   -1.1697   -0.0952 C   0  0  0  0  0  0  0  0  0  0  0  0
    0.6765   -1.4348    0.3306 C   0  0  0  0  0  0  0  0  0  0  0  0
   -0.2999   -0.4215    0.3305 C   0  0  0  0  0  0  0  0  0  0  0  0
   -1.6970   -0.7693    0.7860 C   0  0  0  0  0  0  0  0  0  0  0  0
   -2.4912   -1.1214   -0.3138 O   0  0  0  0  0  0  0  0  0  0  0  0
   -0.6157    2.8886   -0.5345 H   0  0  0  0  0  0  0  0  0  0  0  0
   -1.9125    1.8172    0.0389 H   0  0  0  0  0  0  0  0  0  0  0  0
    1.6472    2.1033   -0.9166 H   0  0  0  0  0  0  0  0  0  0  0  0
    3.3343    0.3099   -0.8665 H   0  0  0  0  0  0  0  0  0  0  0  0
    2.7223   -1.9565   -0.0843 H   0  0  0  0  0  0  0  0  0  0  0  0
    0.4296   -2.4354    0.6641 H   0  0  0  0  0  0  0  0  0  0  0  0
   -1.6650   -1.6346    1.4823 H   0  0  0  0  0  0  0  0  0  0  0  0
   -2.1577    0.0593    1.3666 H   0  0  0  0  0  0  0  0  0  0  0  0
   -2.7784   -0.2751   -0.7442 H   0  0  0  0  0  0  0  0  0  0  0  0
  1  2  1  0
  2  3  2  0
  3  4  1  0
  4  5  2  0
  5  6  1  0
  6  7  2  0
  7  8  1  0
  8  9  1  0
  7  2  1  0
  1 10  1  0
  1 11  1  0
  3 12  1  0
  4 13  1  0
  5 14  1  0
  6 15  1  0
  8 16  1  0
  8 17  1  0
  9 18  1  0
M  END
$$$$
