
     RDKit          3D

 68 70  0  0  0  0  0  0  0  0999 V2000
   11.8515   -0.8820    0.8598 C   0  0  0  0  0  0  0  0  0  0  0  0
   11.4189    0.2160   -0.1055 C   0  0  0  0  0  0  0  0  0  0  0  0
    9.9546    0.0972   -0.4264 C   0  0  0  0  0  0  0  0  0  0  0  0
    9.4054   -0.6026   -1.4228 C   0  0  0  0  0  0  0  0  0  0  0  0
   10.1675   -1.3637   -2.4634 C   0  0  0  0  0  0  0  0  0  0  0  0
    7.8995   -0.5485   -1.3677 C   0  0  0  0  0  0  0  0  0  0  0  0
    7.6215    0.2652   -0.1871 N   0  0  0  0  0  0  0  0  0  0  0  0
    6.3221    0.6134    0.3181 C   0  0  0  0  0  0  0  0  0  0  0  0
    6.2241    1.3225    1.3566 O   0  0  0  0  0  0  0  0  0  0  0  0
    5.1352    0.1612   -0.3499 N   0  0  0  0  0  0  0  0  0  0  0  0
    3.8043    0.5045    0.1509 C   0  0  0  0  0  0  0  0  0  0  0  0
    2.7128   -0.0986   -0.7382 C   0  0  0  0  0  0  0  0  0  0  0  0
    1.3468    0.2586   -0.2167 C   0  0  0  0  0  0  0  0  0  0  0  0
    0.7133   -0.5614    0.7306 C   0  0  0  0  0  0  0  0  0  0  0  0
   -0.5414   -0.2125    1.2388 C   0  0  0  0  0  0  0  0  0  0  0  0
   -1.1701    0.9669    0.8178 C   0  0  0  0  0  0  0  0  0  0  0  0
   -0.5380    1.7899   -0.1238 C   0  0  0  0  0  0  0  0  0  0  0  0
    0.7168    1.4422   -0.6328 C   0  0  0  0  0  0  0  0  0  0  0  0
   -2.7580    1.3962    1.4452 S   0  0  0  0  0  6  0  0  0  0  0  0
   -2.9023    0.8727    2.8469 O   0  0  0  0  0  0  0  0  0  0  0  0
   -2.9048    2.8921    1.4608 O   0  0  0  0  0  0  0  0  0  0  0  0
   -3.9767    0.6990    0.4315 N   0  0  0  0  0  0  0  0  0  0  0  0
   -5.3711    0.8728    0.7015 C   0  0  0  0  0  0  0  0  0  0  0  0
   -5.7413    1.5550    1.6957 O   0  0  0  0  0  0  0  0  0  0  0  0
   -6.3439    0.2734   -0.1655 N   0  0  0  0  0  0  0  0  0  0  0  0
   -7.7861    0.3869    0.0752 C   0  0  1  0  0  0  0  0  0  0  0  0
   -8.5693    0.0404   -1.2052 C   0  0  0  0  0  0  0  0  0  0  0  0
  -10.0822    0.1126   -0.9638 C   0  0  0  0  0  0  0  0  0  0  0  0
  -10.5017   -0.8203    0.1882 C   0  0  2  0  0  0  0  0  0  0  0  0
  -12.0100   -0.7204    0.4391 C   0  0  0  0  0  0  0  0  0  0  0  0
   -9.7166   -0.4817    1.4698 C   0  0  0  0  0  0  0  0  0  0  0  0
   -8.2037   -0.5484    1.2249 C   0  0  0  0  0  0  0  0  0  0  0  0
    8.8738    0.6383    0.3685 C   0  0  0  0  0  0  0  0  0  0  0  0
    9.0119    1.3346    1.4095 O   0  0  0  0  0  0  0  0  0  0  0  0
   11.2792   -0.8079    1.8092 H   0  0  0  0  0  0  0  0  0  0  0  0
   12.9327   -0.7722    1.0871 H   0  0  0  0  0  0  0  0  0  0  0  0
   11.6831   -1.8829    0.4087 H   0  0  0  0  0  0  0  0  0  0  0  0
   11.6139    1.2066    0.3583 H   0  0  0  0  0  0  0  0  0  0  0  0
   12.0267    0.1555   -1.0332 H   0  0  0  0  0  0  0  0  0  0  0  0
    9.4651   -1.8718   -3.1569 H   0  0  0  0  0  0  0  0  0  0  0  0
   10.8066   -2.1313   -1.9797 H   0  0  0  0  0  0  0  0  0  0  0  0
   10.8030   -0.6675   -3.0496 H   0  0  0  0  0  0  0  0  0  0  0  0
    7.4967   -0.0587   -2.2798 H   0  0  0  0  0  0  0  0  0  0  0  0
    7.4812   -1.5698   -1.2407 H   0  0  0  0  0  0  0  0  0  0  0  0
    5.2264   -0.4241   -1.2104 H   0  0  0  0  0  0  0  0  0  0  0  0
    3.6961    1.6112    0.1698 H   0  0  0  0  0  0  0  0  0  0  0  0
    3.6934    0.1163    1.1872 H   0  0  0  0  0  0  0  0  0  0  0  0
    2.8306    0.2775   -1.7783 H   0  0  0  0  0  0  0  0  0  0  0  0
    2.8281   -1.2045   -0.7698 H   0  0  0  0  0  0  0  0  0  0  0  0
    1.1910   -1.4705    1.0748 H   0  0  0  0  0  0  0  0  0  0  0  0
   -1.0209   -0.8619    1.9601 H   0  0  0  0  0  0  0  0  0  0  0  0
   -1.0148    2.7002   -0.4641 H   0  0  0  0  0  0  0  0  0  0  0  0
    1.1971    2.0948   -1.3515 H   0  0  0  0  0  0  0  0  0  0  0  0
   -3.6764    0.1351   -0.3942 H   0  0  0  0  0  0  0  0  0  0  0  0
   -6.0009   -0.2358   -1.0118 H   0  0  0  0  0  0  0  0  0  0  0  0
   -8.0245    1.4392    0.3512 H   0  0  0  0  0  0  0  0  0  0  0  0
   -8.3008   -0.9826   -1.5511 H   0  0  0  0  0  0  0  0  0  0  0  0
   -8.2964    0.7572   -2.0100 H   0  0  0  0  0  0  0  0  0  0  0  0
  -10.6084   -0.1857   -1.8967 H   0  0  0  0  0  0  0  0  0  0  0  0
  -10.3676    1.1623   -0.7293 H   0  0  0  0  0  0  0  0  0  0  0  0
  -10.2736   -1.8707   -0.1024 H   0  0  0  0  0  0  0  0  0  0  0  0
  -12.2920    0.3134    0.7337 H   0  0  0  0  0  0  0  0  0  0  0  0
  -12.5693   -0.9966   -0.4801 H   0  0  0  0  0  0  0  0  0  0  0  0
  -12.3095   -1.4186    1.2496 H   0  0  0  0  0  0  0  0  0  0  0  0
   -9.9816   -1.2046    2.2720 H   0  0  0  0  0  0  0  0  0  0  0  0
   -9.9861    0.5382    1.8245 H   0  0  0  0  0  0  0  0  0  0  0  0
   -7.6784   -0.2557    2.1590 H   0  0  0  0  0  0  0  0  0  0  0  0
   -7.9125   -1.5948    0.9841 H   0  0  0  0  0  0  0  0  0  0  0  0
  1  2  1  0
  2  3  1  0
  3  4  2  0
  4  5  1  0
  4  6  1  0
  6  7  1  0
  7  8  1  0
  8  9  2  0
  8 10  1  0
 10 11  1  0
 11 12  1  0
 12 13  1  0
 13 14  2  0
 14 15  1  0
 15 16  2  0
 16 17  1  0
 17 18  2  0
 16 19  1  0
 19 20  2  0
 19 21  2  0
 19 22  1  0
 22 23  1  0
 23 24  2  0
 23 25  1  0
 25 26  1  0
 26 27  1  0
 27 28  1  0
 28 29  1  0
 29 30  1  0
 29 31  1  0
 31 32  1  0
  7 33  1  0
 33 34  2  0
 33  3  1  0
 18 13  1  0
 32 26  1  0
  1 35  1  0
  1 36  1  0
  1 37  1  0
  2 38  1  0
  2 39  1  0
  5 40  1  0
  5 41  1  0
  5 42  1  0
  6 43  1  0
  6 44  1  0
 10 45  1  0
 11 46  1  0
 11 47  1  0
 12 48  1  0
 12 49  1  0
 14 50  1  0
 15 51  1  0
 17 52  1  0
 18 53  1  0
 22 54  1  0
 25 55  1  0
 26 56  1  1
 27 57  1  0
 27 58  1  0
 28 59  1  0
 28 60  1  0
 29 61  1  6
 30 62  1  0
 30 63  1  0
 30 64  1  0
 31 65  1  0
 31 66  1  0
 32 67  1  0
 32 68  1  0
M  END
$$$$
