
     RDKit          3D

 45 46  0  0  0  0  0  0  0  0999 V2000
   -0.7844    2.7563    0.4163 C   0  0  0  0  0  0  0  0  0  0  0  0
   -0.5473    1.2347    0.4523 C   0  0  0  0  0  0  0  0  0  0  0  0
   -1.8578    0.4474    0.6578 C   0  0  0  0  0  0  0  0  0  0  0  0
   -2.8578    0.5780   -0.5030 C   0  0  0  0  0  0  0  0  0  0  0  0
   -4.0732   -0.2723   -0.2455 C   0  0  0  0  0  0  0  0  0  0  0  0
   -4.1047   -1.6108   -0.6703 C   0  0  0  0  0  0  0  0  0  0  0  0
   -5.2203   -2.4096   -0.4014 C   0  0  0  0  0  0  0  0  0  0  0  0
   -6.3106   -1.8817    0.3035 C   0  0  0  0  0  0  0  0  0  0  0  0
   -7.4275   -2.6679    0.5771 O   0  0  0  0  0  0  0  0  0  0  0  0
   -6.2773   -0.5533    0.7400 C   0  0  0  0  0  0  0  0  0  0  0  0
   -5.1628    0.2476    0.4724 C   0  0  0  0  0  0  0  0  0  0  0  0
    0.1442    0.7559   -0.7632 N   0  0  0  0  0  0  0  0  0  0  0  0
    1.6081    0.8514   -0.6605 C   0  0  0  0  0  0  0  0  0  0  0  0
    2.1785   -0.4309   -0.0476 C   0  0  0  0  0  0  0  0  0  0  0  0
    3.6790   -0.3539    0.0423 C   0  0  0  0  0  0  0  0  0  0  0  0
    4.4771   -0.7937   -1.0260 C   0  0  0  0  0  0  0  0  0  0  0  0
    5.8741   -0.6917   -0.9566 C   0  0  0  0  0  0  0  0  0  0  0  0
    6.6671   -1.1347   -2.0137 O   0  0  0  0  0  0  0  0  0  0  0  0
    6.4782   -0.1395    0.1805 C   0  0  0  0  0  0  0  0  0  0  0  0
    7.8668   -0.0407    0.2468 O   0  0  0  0  0  0  0  0  0  0  0  0
    5.6831    0.3126    1.2425 C   0  0  0  0  0  0  0  0  0  0  0  0
    4.2911    0.2110    1.1721 C   0  0  0  0  0  0  0  0  0  0  0  0
   -1.3611    3.0760    1.3102 H   0  0  0  0  0  0  0  0  0  0  0  0
    0.1860    3.2944    0.4248 H   0  0  0  0  0  0  0  0  0  0  0  0
   -1.3390    3.0587   -0.4961 H   0  0  0  0  0  0  0  0  0  0  0  0
    0.0728    1.0260    1.3538 H   0  0  0  0  0  0  0  0  0  0  0  0
   -2.3429    0.7875    1.5996 H   0  0  0  0  0  0  0  0  0  0  0  0
   -1.5988   -0.6267    0.7905 H   0  0  0  0  0  0  0  0  0  0  0  0
   -2.3827    0.2621   -1.4565 H   0  0  0  0  0  0  0  0  0  0  0  0
   -3.1716    1.6366   -0.6221 H   0  0  0  0  0  0  0  0  0  0  0  0
   -3.2653   -2.0350   -1.2074 H   0  0  0  0  0  0  0  0  0  0  0  0
   -5.2350   -3.4384   -0.7378 H   0  0  0  0  0  0  0  0  0  0  0  0
   -7.4818   -3.6338    0.2754 H   0  0  0  0  0  0  0  0  0  0  0  0
   -7.1143   -0.1424    1.2901 H   0  0  0  0  0  0  0  0  0  0  0  0
   -5.1478    1.2713    0.8255 H   0  0  0  0  0  0  0  0  0  0  0  0
   -0.1704    1.3106   -1.5941 H   0  0  0  0  0  0  0  0  0  0  0  0
    2.0376    0.9728   -1.6806 H   0  0  0  0  0  0  0  0  0  0  0  0
    1.9201    1.7383   -0.0646 H   0  0  0  0  0  0  0  0  0  0  0  0
    1.8797   -1.3024   -0.6707 H   0  0  0  0  0  0  0  0  0  0  0  0
    1.7520   -0.5931    0.9657 H   0  0  0  0  0  0  0  0  0  0  0  0
    4.0142   -1.2132   -1.9110 H   0  0  0  0  0  0  0  0  0  0  0  0
    6.2598   -1.5378   -2.8494 H   0  0  0  0  0  0  0  0  0  0  0  0
    8.3320    0.3548    1.0555 H   0  0  0  0  0  0  0  0  0  0  0  0
    6.1429    0.7459    2.1215 H   0  0  0  0  0  0  0  0  0  0  0  0
    3.6900    0.5736    1.9969 H   0  0  0  0  0  0  0  0  0  0  0  0
  1  2  1  0
  2  3  1  0
  3  4  1  0
  4  5  1  0
  5  6  2  0
  6  7  1  0
  7  8  2  0
  8  9  1  0
  8 10  1  0
 10 11  2  0
  2 12  1  0
 12 13  1  0
 13 14  1  0
 14 15  1  0
 15 16  2  0
 16 17  1  0
 17 18  1  0
 17 19  2  0
 19 20  1  0
 19 21  1  0
 21 22  2  0
 11  5  1  0
 22 15  1  0
  1 23  1  0
  1 24  1  0
  1 25  1  0
  2 26  1  0
  3 27  1  0
  3 28  1  0
  4 29  1  0
  4 30  1  0
  6 31  1  0
  7 32  1  0
  9 33  1  0
 10 34  1  0
 11 35  1  0
 12 36  1  0
 13 37  1  0
 13 38  1  0
 14 39  1  0
 14 40  1  0
 16 41  1  0
 18 42  1  0
 20 43  1  0
 21 44  1  0
 22 45  1  0
M  END
$$$$
