
     RDKit          3D

 46 49  0  0  0  0  0  0  0  0999 V2000
    8.5354    0.1405   -1.3262 O   0  0  0  0  0  0  0  0  0  0  0  0
    7.1717    0.3720   -1.1614 C   0  0  0  0  0  0  0  0  0  0  0  0
    6.2723   -0.6933   -1.2672 C   0  0  0  0  0  0  0  0  0  0  0  0
    4.9007   -0.4761   -1.1025 C   0  0  0  0  0  0  0  0  0  0  0  0
    4.4157    0.8125   -0.8135 C   0  0  0  0  0  0  0  0  0  0  0  0
    3.0088    1.0677   -0.6646 N   0  0  0  0  0  0  0  0  0  0  0  0
    2.0857    0.1607   -0.0455 C   0  0  0  0  0  0  0  0  0  0  0  0
    0.7366    0.3934   -0.1574 N   0  0  0  0  0  0  0  0  0  0  0  0
   -0.1847   -0.4249    0.4378 C   0  0  0  0  0  0  0  0  0  0  0  0
   -1.5569   -0.1928    0.3204 O   0  0  0  0  0  0  0  0  0  0  0  0
   -2.0920    0.9002   -0.4215 C   0  0  0  0  0  0  0  0  0  0  0  0
   -3.6278    0.8904   -0.3685 C   0  0  0  0  0  0  0  0  0  0  0  0
   -4.2137   -0.3548   -1.0849 C   0  0  0  0  0  0  0  0  0  0  0  0
   -5.6159   -0.7501   -0.5775 C   0  0  0  0  0  0  0  0  0  0  0  0
   -6.3967    0.4612   -0.0584 C   0  0  0  0  0  0  0  0  0  0  0  0
   -5.6785    1.1369    1.1273 C   0  0  0  0  0  0  0  0  0  0  0  0
   -4.1429    0.9949    1.0797 C   0  0  0  0  0  0  0  0  0  0  0  0
    0.2923   -1.5005    1.1701 C   0  0  0  0  0  0  0  0  0  0  0  0
   -0.3886   -2.4409    1.8481 N   0  0  0  0  0  0  0  0  0  0  0  0
    0.6092   -3.2132    2.3617 C   0  0  0  0  0  0  0  0  0  0  0  0
    1.8545   -2.7873    2.0300 N   0  0  0  0  0  0  0  0  0  0  0  0
    1.6218   -1.7077    1.2791 C   0  0  0  0  0  0  0  0  0  0  0  0
    2.5378   -0.9009    0.6940 N   0  0  0  0  0  0  0  0  0  0  0  0
    5.3215    1.8811   -0.7321 C   0  0  0  0  0  0  0  0  0  0  0  0
    6.6925    1.6617   -0.8964 C   0  0  0  0  0  0  0  0  0  0  0  0
    9.2120    0.8917   -1.2572 H   0  0  0  0  0  0  0  0  0  0  0  0
    6.6357   -1.6892   -1.4867 H   0  0  0  0  0  0  0  0  0  0  0  0
    4.2213   -1.3089   -1.2262 H   0  0  0  0  0  0  0  0  0  0  0  0
    2.6448    2.0045   -0.9517 H   0  0  0  0  0  0  0  0  0  0  0  0
   -1.7580    0.8320   -1.4802 H   0  0  0  0  0  0  0  0  0  0  0  0
   -1.7131    1.8565    0.0017 H   0  0  0  0  0  0  0  0  0  0  0  0
   -3.9771    1.7966   -0.9139 H   0  0  0  0  0  0  0  0  0  0  0  0
   -3.5446   -1.2340   -0.9592 H   0  0  0  0  0  0  0  0  0  0  0  0
   -4.2674   -0.1415   -2.1751 H   0  0  0  0  0  0  0  0  0  0  0  0
   -6.1850   -1.2355   -1.3996 H   0  0  0  0  0  0  0  0  0  0  0  0
   -5.5169   -1.4924    0.2453 H   0  0  0  0  0  0  0  0  0  0  0  0
   -7.4134    0.1415    0.2572 H   0  0  0  0  0  0  0  0  0  0  0  0
   -6.5177    1.1938   -0.8868 H   0  0  0  0  0  0  0  0  0  0  0  0
   -6.0466    0.6972    2.0799 H   0  0  0  0  0  0  0  0  0  0  0  0
   -5.9487    2.2154    1.1364 H   0  0  0  0  0  0  0  0  0  0  0  0
   -3.8450    0.0828    1.6431 H   0  0  0  0  0  0  0  0  0  0  0  0
   -3.6819    1.8698    1.5882 H   0  0  0  0  0  0  0  0  0  0  0  0
    0.4251   -4.0838    2.9772 H   0  0  0  0  0  0  0  0  0  0  0  0
    2.7731   -3.2044    2.2986 H   0  0  0  0  0  0  0  0  0  0  0  0
    4.9640    2.8831   -0.5303 H   0  0  0  0  0  0  0  0  0  0  0  0
    7.3804    2.4941   -0.8199 H   0  0  0  0  0  0  0  0  0  0  0  0
  1  2  1  0
  2  3  2  0
  3  4  1  0
  4  5  2  0
  5  6  1  0
  6  7  1  0
  7  8  2  0
  8  9  1  0
  9 10  1  0
 10 11  1  0
 11 12  1  0
 12 13  1  0
 13 14  1  0
 14 15  1  0
 15 16  1  0
 16 17  1  0
  9 18  2  0
 18 19  1  0
 19 20  2  0
 20 21  1  0
 21 22  1  0
 22 23  2  0
  5 24  1  0
 24 25  2  0
 25  2  1  0
 23  7  1  0
 17 12  1  0
 22 18  1  0
  1 26  1  0
  3 27  1  0
  4 28  1  0
  6 29  1  0
 11 30  1  0
 11 31  1  0
 12 32  1  0
 13 33  1  0
 13 34  1  0
 14 35  1  0
 14 36  1  0
 15 37  1  0
 15 38  1  0
 16 39  1  0
 16 40  1  0
 17 41  1  0
 17 42  1  0
 20 43  1  0
 21 44  1  0
 24 45  1  0
 25 46  1  0
M  END
$$$$
