
     RDKit          3D

 29 30  0  0  0  0  0  0  0  0999 V2000
    4.3799   -1.8158   -0.9015 N   0  0  0  0  0  0  0  0  0  0  0  0
    4.4863   -1.3337    0.7549 S   0  0  0  0  0  6  0  0  0  0  0  0
    4.5955   -2.5533    1.6260 O   0  0  0  0  0  0  0  0  0  0  0  0
    5.7070   -0.4806    0.9559 O   0  0  0  0  0  0  0  0  0  0  0  0
    3.0560   -0.4223    1.1992 C   0  0  0  0  0  0  0  0  0  0  0  0
    2.8474    0.9258    0.9417 C   0  0  0  0  0  0  0  0  0  0  0  0
    1.5986    1.3783    1.3813 C   0  0  0  0  0  0  0  0  0  0  0  0
    0.8414    0.3806    1.9793 C   0  0  0  0  0  0  0  0  0  0  0  0
    1.7001   -1.0653    1.9583 S   0  0  0  0  0  0  0  0  0  0  0  0
   -0.7890    0.5764    2.5975 S   0  0  0  0  0  6  0  0  0  0  0  0
   -0.8247    1.7658    3.5148 O   0  0  0  0  0  0  0  0  0  0  0  0
   -1.1828   -0.6464    3.3785 O   0  0  0  0  0  0  0  0  0  0  0  0
   -1.9072    0.8222    1.2908 N   0  0  0  0  0  0  0  0  0  0  0  0
   -1.8586   -0.3205    0.3774 C   0  0  0  0  0  0  0  0  0  0  0  0
   -2.8963   -0.1581   -0.6860 C   0  0  0  0  0  0  0  0  0  0  0  0
   -2.7246    0.5033   -1.8949 C   0  0  0  0  0  0  0  0  0  0  0  0
   -3.8962    0.5645   -2.6589 C   0  0  0  0  0  0  0  0  0  0  0  0
   -4.9920   -0.0325   -2.0482 C   0  0  0  0  0  0  0  0  0  0  0  0
   -4.5033   -0.6341   -0.5551 S   0  0  0  0  0  0  0  0  0  0  0  0
    3.4938   -2.3594   -1.0044 H   0  0  0  0  0  0  0  0  0  0  0  0
    4.2653   -0.9443   -1.4660 H   0  0  0  0  0  0  0  0  0  0  0  0
    3.5695    1.5601    0.4449 H   0  0  0  0  0  0  0  0  0  0  0  0
    1.2564    2.3971    1.2573 H   0  0  0  0  0  0  0  0  0  0  0  0
   -1.5808    1.6698    0.7708 H   0  0  0  0  0  0  0  0  0  0  0  0
   -2.0648   -1.2628    0.9296 H   0  0  0  0  0  0  0  0  0  0  0  0
   -0.8556   -0.4006   -0.0977 H   0  0  0  0  0  0  0  0  0  0  0  0
   -1.7847    0.9351   -2.2132 H   0  0  0  0  0  0  0  0  0  0  0  0
   -3.9461    1.0404   -3.6291 H   0  0  0  0  0  0  0  0  0  0  0  0
   -5.9904   -0.0898   -2.4601 H   0  0  0  0  0  0  0  0  0  0  0  0
  1  2  1  0
  2  3  2  0
  2  4  2  0
  2  5  1  0
  5  6  2  0
  6  7  1  0
  7  8  2  0
  8  9  1  0
  8 10  1  0
 10 11  2  0
 10 12  2  0
 10 13  1  0
 13 14  1  0
 14 15  1  0
 15 16  2  0
 16 17  1  0
 17 18  2  0
 18 19  1  0
  9  5  1  0
 19 15  1  0
  1 20  1  0
  1 21  1  0
  6 22  1  0
  7 23  1  0
 13 24  1  0
 14 25  1  0
 14 26  1  0
 16 27  1  0
 17 28  1  0
 18 29  1  0
M  END
$$$$
