
     RDKit          3D

 35 36  0  0  0  0  0  0  0  0999 V2000
   -6.5370   -0.9110   -1.4146 N   0  0  0  0  0  0  0  0  0  0  0  0
   -6.2523    0.4814   -1.0872 C   0  0  0  0  0  0  0  0  0  0  0  0
   -4.8731    0.5983   -0.5153 C   0  0  0  0  0  0  0  0  0  0  0  0
   -4.7312    0.8691    0.7078 O   0  0  0  0  0  0  0  0  0  0  0  0
   -3.7289    0.4209   -1.3653 N   0  0  0  0  0  0  0  0  0  0  0  0
   -2.3780    0.3039   -0.8867 C   0  0  0  0  0  0  0  0  0  0  0  0
   -2.0801   -0.3570    0.3178 C   0  0  0  0  0  0  0  0  0  0  0  0
   -0.7555   -0.4781    0.7476 C   0  0  0  0  0  0  0  0  0  0  0  0
    0.2926    0.0426   -0.0192 C   0  0  0  0  0  0  0  0  0  0  0  0
    1.6034   -0.1032    0.4580 O   0  0  0  0  0  0  0  0  0  0  0  0
    2.7644    0.3746   -0.2156 C   0  0  0  0  0  0  0  0  0  0  0  0
    3.9793    0.0372    0.5977 C   0  0  0  0  0  0  0  0  0  0  0  0
    4.4358    0.9216    1.5891 C   0  0  0  0  0  0  0  0  0  0  0  0
    5.5458    0.5889    2.3721 C   0  0  0  0  0  0  0  0  0  0  0  0
    6.1985   -0.6319    2.1795 C   0  0  0  0  0  0  0  0  0  0  0  0
    5.7392   -1.5243    1.2067 C   0  0  0  0  0  0  0  0  0  0  0  0
    4.6296   -1.1954    0.4216 C   0  0  0  0  0  0  0  0  0  0  0  0
   -0.0018    0.6852   -1.2363 C   0  0  0  0  0  0  0  0  0  0  0  0
   -1.3264    0.8054   -1.6669 C   0  0  0  0  0  0  0  0  0  0  0  0
   -6.6255   -1.4454   -0.5193 H   0  0  0  0  0  0  0  0  0  0  0  0
   -7.4757   -0.9438   -1.8743 H   0  0  0  0  0  0  0  0  0  0  0  0
   -6.3157    1.0996   -2.0086 H   0  0  0  0  0  0  0  0  0  0  0  0
   -7.0057    0.8633   -0.3619 H   0  0  0  0  0  0  0  0  0  0  0  0
   -3.8816    0.4611   -2.3987 H   0  0  0  0  0  0  0  0  0  0  0  0
   -2.8643   -0.8032    0.9145 H   0  0  0  0  0  0  0  0  0  0  0  0
   -0.5408   -0.9878    1.6785 H   0  0  0  0  0  0  0  0  0  0  0  0
    2.8377   -0.0976   -1.2198 H   0  0  0  0  0  0  0  0  0  0  0  0
    2.6937    1.4759   -0.3521 H   0  0  0  0  0  0  0  0  0  0  0  0
    3.9329    1.8663    1.7553 H   0  0  0  0  0  0  0  0  0  0  0  0
    5.8975    1.2758    3.1310 H   0  0  0  0  0  0  0  0  0  0  0  0
    7.0565   -0.8886    2.7873 H   0  0  0  0  0  0  0  0  0  0  0  0
    6.2407   -2.4728    1.0637 H   0  0  0  0  0  0  0  0  0  0  0  0
    4.2778   -1.9001   -0.3218 H   0  0  0  0  0  0  0  0  0  0  0  0
    0.7839    1.0927   -1.8576 H   0  0  0  0  0  0  0  0  0  0  0  0
   -1.5357    1.3004   -2.6071 H   0  0  0  0  0  0  0  0  0  0  0  0
  1  2  1  0
  2  3  1  0
  3  4  2  0
  3  5  1  0
  5  6  1  0
  6  7  2  0
  7  8  1  0
  8  9  2  0
  9 10  1  0
 10 11  1  0
 11 12  1  0
 12 13  2  0
 13 14  1  0
 14 15  2  0
 15 16  1  0
 16 17  2  0
  9 18  1  0
 18 19  2  0
 19  6  1  0
 17 12  1  0
  1 20  1  0
  1 21  1  0
  2 22  1  0
  2 23  1  0
  5 24  1  0
  7 25  1  0
  8 26  1  0
 11 27  1  0
 11 28  1  0
 13 29  1  0
 14 30  1  0
 15 31  1  0
 16 32  1  0
 17 33  1  0
 18 34  1  0
 19 35  1  0
M  END
$$$$
