
     RDKit          3D

 97100  0  0  0  0  0  0  0  0999 V2000
   -2.3097   -5.2393   -0.8406 C   0  0  0  0  0  0  0  0  0  0  0  0
   -1.5912   -4.0427   -1.0501 O   0  0  0  0  0  0  0  0  0  0  0  0
   -1.4428   -3.3265    0.1663 C   0  0  1  0  0  0  0  0  0  0  0  0
   -0.1965   -3.7975    0.8825 C   0  0  0  0  0  0  0  0  0  0  0  0
   -0.2241   -4.2017    2.1593 C   0  0  0  0  0  0  0  0  0  0  0  0
    0.9239   -4.5485    2.8946 O   0  0  0  0  0  0  0  0  0  0  0  0
    2.2348   -3.9788    2.7600 C   0  0  1  0  0  0  0  0  0  0  0  0
    3.0731   -4.3326    3.9873 C   0  0  0  0  0  0  0  0  0  0  0  0
    2.8949   -4.4454    1.5873 O   0  0  0  0  0  0  0  0  0  0  0  0
    3.2368   -3.3792    0.7600 C   0  0  0  0  0  0  0  0  0  0  0  0
    2.7762   -2.1767    1.2421 C   0  0  0  0  0  0  0  0  0  0  0  0
    2.1858   -2.4932    2.5488 C   0  0  0  0  0  0  0  0  0  0  0  0
    1.8001   -1.6741    3.4226 O   0  0  0  0  0  0  0  0  0  0  0  0
    2.8548   -0.9975    0.4663 C   0  0  0  0  0  0  0  0  0  0  0  0
    3.5845   -1.0589   -0.7652 C   0  0  0  0  0  0  0  0  0  0  0  0
    4.1369   -2.3049   -1.2006 C   0  0  0  0  0  0  0  0  0  0  0  0
    4.8605   -2.3668   -2.3969 O   0  0  0  0  0  0  0  0  0  0  0  0
    3.9292   -3.4821   -0.4433 C   0  0  0  0  0  0  0  0  0  0  0  0
    4.4327   -4.8220   -0.9104 C   0  0  0  0  0  0  0  0  0  0  0  0
    3.7131    0.1158   -1.5551 C   0  0  0  0  0  0  0  0  0  0  0  0
    4.5288    0.1053   -2.6915 O   0  0  0  0  0  0  0  0  0  0  0  0
    3.0291    1.2957   -1.1946 C   0  0  0  0  0  0  0  0  0  0  0  0
    2.9649    2.4070   -2.1139 N   0  0  0  0  0  0  0  0  0  0  0  0
    2.5903    3.7521   -1.7718 C   0  0  0  0  0  0  0  0  0  0  0  0
    1.9596    4.4347   -2.6240 O   0  0  0  0  0  0  0  0  0  0  0  0
    3.0046    4.3904   -0.4927 C   0  0  0  0  0  0  0  0  0  0  0  0
    4.3497    4.0559    0.0904 C   0  0  0  0  0  0  0  0  0  0  0  0
    2.2309    5.2969    0.1414 C   0  0  0  0  0  0  0  0  0  0  0  0
    0.8492    5.6261   -0.2608 C   0  0  0  0  0  0  0  0  0  0  0  0
   -0.0970    4.6826   -0.3157 C   0  0  0  0  0  0  0  0  0  0  0  0
   -1.4867    4.9497   -0.8399 C   0  0  2  0  0  0  0  0  0  0  0  0
   -2.2545    5.8870    0.1119 C   0  0  0  0  0  0  0  0  0  0  0  0
   -2.2162    3.5972   -1.1425 C   0  0  2  0  0  0  0  0  0  0  0  0
   -3.2822    3.7863   -2.0444 O   0  0  0  0  0  0  0  0  0  0  0  0
   -2.6427    2.7747    0.1310 C   0  0  1  0  0  0  0  0  0  0  0  0
   -4.1402    2.9378    0.4735 C   0  0  0  0  0  0  0  0  0  0  0  0
   -2.1540    1.2781    0.1294 C   0  0  1  0  0  0  0  0  0  0  0  0
   -2.1203    0.8049    1.4552 O   0  0  0  0  0  0  0  0  0  0  0  0
   -2.9329    0.2854   -0.8087 C   0  0  1  0  0  0  0  0  0  0  0  0
   -2.6411    0.5258   -2.3048 C   0  0  0  0  0  0  0  0  0  0  0  0
   -2.8007   -1.2375   -0.4292 C   0  0  2  0  0  0  0  0  0  0  0  0
   -3.6250   -1.4966    0.7130 O   0  0  0  0  0  0  0  0  0  0  0  0
   -5.0149   -1.6520    0.6565 C   0  0  0  0  0  0  0  0  0  0  0  0
   -5.7806   -1.8398    1.9210 C   0  0  0  0  0  0  0  0  0  0  0  0
   -5.6292   -1.5964   -0.4434 O   0  0  0  0  0  0  0  0  0  0  0  0
   -1.3665   -1.7936   -0.1355 C   0  0  2  0  0  0  0  0  0  0  0  0
   -0.3723   -1.5093   -1.2807 C   0  0  0  0  0  0  0  0  0  0  0  0
    2.2897    1.3172   -0.0096 C   0  0  0  0  0  0  0  0  0  0  0  0
    2.1904    0.1991    0.8137 C   0  0  0  0  0  0  0  0  0  0  0  0
    1.3763    0.2847    1.9392 O   0  0  0  0  0  0  0  0  0  0  0  0
   -1.8297   -5.8727   -0.0617 H   0  0  0  0  0  0  0  0  0  0  0  0
   -3.3658   -5.0213   -0.5681 H   0  0  0  0  0  0  0  0  0  0  0  0
   -2.3181   -5.8174   -1.7872 H   0  0  0  0  0  0  0  0  0  0  0  0
   -2.3142   -3.4915    0.8443 H   0  0  0  0  0  0  0  0  0  0  0  0
    0.7250   -3.8124    0.3306 H   0  0  0  0  0  0  0  0  0  0  0  0
   -1.1760   -4.2813    2.6684 H   0  0  0  0  0  0  0  0  0  0  0  0
    3.1613   -5.4361    4.0759 H   0  0  0  0  0  0  0  0  0  0  0  0
    4.0938   -3.9013    3.8996 H   0  0  0  0  0  0  0  0  0  0  0  0
    2.5920   -3.9399    4.9086 H   0  0  0  0  0  0  0  0  0  0  0  0
    5.2780   -3.2143   -2.7585 H   0  0  0  0  0  0  0  0  0  0  0  0
    4.0003   -5.0596   -1.9051 H   0  0  0  0  0  0  0  0  0  0  0  0
    5.5405   -4.8026   -0.9802 H   0  0  0  0  0  0  0  0  0  0  0  0
    4.1499   -5.6396   -0.2149 H   0  0  0  0  0  0  0  0  0  0  0  0
    4.7788    0.9378   -3.2091 H   0  0  0  0  0  0  0  0  0  0  0  0
    2.9760    2.1884   -3.1352 H   0  0  0  0  0  0  0  0  0  0  0  0
    4.8989    4.9861    0.3500 H   0  0  0  0  0  0  0  0  0  0  0  0
    4.2168    3.4445    1.0076 H   0  0  0  0  0  0  0  0  0  0  0  0
    4.9706    3.4860   -0.6326 H   0  0  0  0  0  0  0  0  0  0  0  0
    2.6270    5.8250    1.0005 H   0  0  0  0  0  0  0  0  0  0  0  0
    0.6064    6.6577   -0.4811 H   0  0  0  0  0  0  0  0  0  0  0  0
    0.1553    3.6723   -0.0344 H   0  0  0  0  0  0  0  0  0  0  0  0
   -1.3748    5.4805   -1.8122 H   0  0  0  0  0  0  0  0  0  0  0  0
   -1.7369    6.8671    0.1772 H   0  0  0  0  0  0  0  0  0  0  0  0
   -3.2786    6.0891   -0.2596 H   0  0  0  0  0  0  0  0  0  0  0  0
   -2.3162    5.4691    1.1375 H   0  0  0  0  0  0  0  0  0  0  0  0
   -1.4718    2.9927   -1.7033 H   0  0  0  0  0  0  0  0  0  0  0  0
   -3.8774    4.4930   -1.6896 H   0  0  0  0  0  0  0  0  0  0  0  0
   -2.1028    3.2203    0.9937 H   0  0  0  0  0  0  0  0  0  0  0  0
   -4.3782    4.0087    0.6379 H   0  0  0  0  0  0  0  0  0  0  0  0
   -4.7904    2.5668   -0.3447 H   0  0  0  0  0  0  0  0  0  0  0  0
   -4.4054    2.4074    1.4092 H   0  0  0  0  0  0  0  0  0  0  0  0
   -1.0948    1.2897   -0.2009 H   0  0  0  0  0  0  0  0  0  0  0  0
   -3.0535    0.7033    1.7704 H   0  0  0  0  0  0  0  0  0  0  0  0
   -4.0118    0.5081   -0.6958 H   0  0  0  0  0  0  0  0  0  0  0  0
   -1.5668    0.7107   -2.4986 H   0  0  0  0  0  0  0  0  0  0  0  0
   -3.2135    1.3996   -2.6694 H   0  0  0  0  0  0  0  0  0  0  0  0
   -2.9685   -0.3334   -2.9266 H   0  0  0  0  0  0  0  0  0  0  0  0
   -3.2018   -1.8444   -1.2725 H   0  0  0  0  0  0  0  0  0  0  0  0
   -5.1281   -2.2992    2.6928 H   0  0  0  0  0  0  0  0  0  0  0  0
   -6.6520   -2.5054    1.7455 H   0  0  0  0  0  0  0  0  0  0  0  0
   -6.1378   -0.8543    2.2853 H   0  0  0  0  0  0  0  0  0  0  0  0
   -0.9766   -1.2932    0.7767 H   0  0  0  0  0  0  0  0  0  0  0  0
    0.5621   -2.0924   -1.1604 H   0  0  0  0  0  0  0  0  0  0  0  0
   -0.8161   -1.7692   -2.2648 H   0  0  0  0  0  0  0  0  0  0  0  0
   -0.0657   -0.4465   -1.2785 H   0  0  0  0  0  0  0  0  0  0  0  0
    1.7385    2.1961    0.2678 H   0  0  0  0  0  0  0  0  0  0  0  0
    0.8726    1.1313    2.1782 H   0  0  0  0  0  0  0  0  0  0  0  0
  1  2  1  0
  2  3  1  0
  3  4  1  0
  4  5  2  0
  5  6  1  0
  6  7  1  0
  7  8  1  1
  7  9  1  0
  9 10  1  0
 10 11  2  0
 11 12  1  0
 12 13  2  0
 11 14  1  0
 14 15  2  0
 15 16  1  0
 16 17  1  0
 16 18  2  0
 18 19  1  0
 15 20  1  0
 20 21  1  0
 20 22  2  0
 22 23  1  0
 23 24  1  0
 24 25  2  0
 24 26  1  0
 26 27  1  0
 26 28  2  0
 28 29  1  0
 29 30  2  0
 30 31  1  0
 31 32  1  0
 31 33  1  0
 33 34  1  0
 33 35  1  0
 35 36  1  0
 35 37  1  0
 37 38  1  0
 37 39  1  0
 39 40  1  0
 39 41  1  0
 41 42  1  0
 42 43  1  0
 43 44  1  0
 43 45  2  0
 41 46  1  0
 46 47  1  0
 22 48  1  0
 48 49  2  0
 49 50  1  0
 46  3  1  0
 12  7  1  0
 49 14  1  0
 18 10  1  0
  1 51  1  0
  1 52  1  0
  1 53  1  0
  3 54  1  1
  4 55  1  0
  5 56  1  0
  8 57  1  0
  8 58  1  0
  8 59  1  0
 17 60  1  0
 19 61  1  0
 19 62  1  0
 19 63  1  0
 21 64  1  0
 23 65  1  0
 27 66  1  0
 27 67  1  0
 27 68  1  0
 28 69  1  0
 29 70  1  0
 30 71  1  0
 31 72  1  6
 32 73  1  0
 32 74  1  0
 32 75  1  0
 33 76  1  6
 34 77  1  0
 35 78  1  1
 36 79  1  0
 36 80  1  0
 36 81  1  0
 37 82  1  6
 38 83  1  0
 39 84  1  6
 40 85  1  0
 40 86  1  0
 40 87  1  0
 41 88  1  6
 44 89  1  0
 44 90  1  0
 44 91  1  0
 46 92  1  1
 47 93  1  0
 47 94  1  0
 47 95  1  0
 48 96  1  0
 50 97  1  0
M  END
$$$$
