
     RDKit          3D

 23 23  0  0  0  0  0  0  0  0999 V2000
   -2.3883   -0.7137    1.6454 C   0  0  0  0  0  0  0  0  0  0  0  0
   -1.5916   -1.2507    0.4559 C   0  0  0  0  0  0  0  0  0  0  0  0
   -1.1564   -0.1438   -0.5217 C   0  0  0  0  0  0  0  0  0  0  0  0
   -2.3491    0.4608   -1.2711 C   0  0  0  0  0  0  0  0  0  0  0  0
    0.0170   -0.8600   -1.7305 S   0  0  0  0  0  0  0  0  0  0  0  0
    0.9830    0.9920   -2.1750 S   0  0  0  0  0  0  0  0  0  0  0  0
    2.2865    0.6837   -0.9897 C   0  0  0  0  0  0  0  0  0  0  0  0
    3.4101    0.0004   -1.2893 N   0  0  0  0  0  0  0  0  0  0  0  0
    4.1059    0.0021   -0.1345 C   0  0  0  0  0  0  0  0  0  0  0  0
    3.3969    0.6823    0.8304 C   0  0  0  0  0  0  0  0  0  0  0  0
    2.2496    1.1122    0.2850 N   0  0  0  0  0  0  0  0  0  0  0  0
   -3.3772   -0.3321    1.3174 H   0  0  0  0  0  0  0  0  0  0  0  0
   -2.5612   -1.5341    2.3735 H   0  0  0  0  0  0  0  0  0  0  0  0
   -1.8272    0.0978    2.1556 H   0  0  0  0  0  0  0  0  0  0  0  0
   -2.1948   -2.0186   -0.0761 H   0  0  0  0  0  0  0  0  0  0  0  0
   -0.6833   -1.7525    0.8560 H   0  0  0  0  0  0  0  0  0  0  0  0
   -0.6461    0.6570    0.0547 H   0  0  0  0  0  0  0  0  0  0  0  0
   -2.9230   -0.3317   -1.7971 H   0  0  0  0  0  0  0  0  0  0  0  0
   -3.0225    0.9948   -0.5697 H   0  0  0  0  0  0  0  0  0  0  0  0
   -1.9959    1.1994   -2.0207 H   0  0  0  0  0  0  0  0  0  0  0  0
    5.0735   -0.4638   -0.0052 H   0  0  0  0  0  0  0  0  0  0  0  0
    3.6973    0.8539    1.8555 H   0  0  0  0  0  0  0  0  0  0  0  0
    1.4967    1.6647    0.7512 H   0  0  0  0  0  0  0  0  0  0  0  0
  1  2  1  0
  2  3  1  0
  3  4  1  0
  3  5  1  0
  5  6  1  0
  6  7  1  0
  7  8  2  0
  8  9  1  0
  9 10  2  0
 10 11  1  0
 11  7  1  0
  1 12  1  0
  1 13  1  0
  1 14  1  0
  2 15  1  0
  2 16  1  0
  3 17  1  0
  4 18  1  0
  4 19  1  0
  4 20  1  0
  9 21  1  0
 10 22  1  0
 11 23  1  0
M  END
$$$$
