
     RDKit          3D

 50 52  0  0  0  0  0  0  0  0999 V2000
   -5.8983   -2.2542    0.8670 C   0  0  0  0  0  0  0  0  0  0  0  0
   -5.4156   -1.1587    0.0960 O   0  0  0  0  0  0  0  0  0  0  0  0
   -4.0607   -0.8163   -0.0402 C   0  0  0  0  0  0  0  0  0  0  0  0
   -3.7306    0.2908   -0.8333 C   0  0  0  0  0  0  0  0  0  0  0  0
   -4.7743    0.9960   -1.4547 O   0  0  0  0  0  0  0  0  0  0  0  0
   -4.5974    2.1388   -2.2857 C   0  0  0  0  0  0  0  0  0  0  0  0
   -2.3803    0.6590   -0.9923 C   0  0  0  0  0  0  0  0  0  0  0  0
   -1.3533   -0.0520   -0.3372 C   0  0  0  0  0  0  0  0  0  0  0  0
    0.1357    0.2339   -0.5672 C   0  0  0  0  0  0  0  0  0  0  0  0
    0.4099    1.6468   -1.1487 C   0  0  0  0  0  0  0  0  0  0  0  0
    1.8663    1.9970   -1.0681 C   0  0  0  0  0  0  0  0  0  0  0  0
    2.4165    2.5518   -2.0079 O   0  0  0  0  0  0  0  0  0  0  0  0
    2.6060    1.7708    0.2203 C   0  0  0  0  0  0  0  0  0  0  0  0
    3.9999    1.1094    0.0373 C   0  0  0  0  0  0  0  0  0  0  0  0
    4.0332   -0.3728   -0.4251 C   0  0  0  0  0  0  0  0  0  0  0  0
    5.4177   -0.9723   -0.1386 C   0  0  0  0  0  0  0  0  0  0  0  0
    3.7179   -0.5260   -1.9208 C   0  0  0  0  0  0  0  0  0  0  0  0
    1.7008    1.0453    1.2340 C   0  0  0  0  0  0  0  0  0  0  0  0
    1.0051   -0.1026    0.6142 N   0  0  0  0  0  0  0  0  0  0  0  0
    0.4023   -0.9548    1.6655 C   0  0  0  0  0  0  0  0  0  0  0  0
   -0.6048   -1.9474    1.0966 C   0  0  0  0  0  0  0  0  0  0  0  0
   -1.6989   -1.1700    0.4375 C   0  0  0  0  0  0  0  0  0  0  0  0
   -3.0388   -1.5499    0.5863 C   0  0  0  0  0  0  0  0  0  0  0  0
   -5.6117   -2.1272    1.9323 H   0  0  0  0  0  0  0  0  0  0  0  0
   -7.0049   -2.2857    0.7985 H   0  0  0  0  0  0  0  0  0  0  0  0
   -5.4907   -3.2085    0.4716 H   0  0  0  0  0  0  0  0  0  0  0  0
   -5.5904    2.4932   -2.6303 H   0  0  0  0  0  0  0  0  0  0  0  0
   -4.1079    2.9552   -1.7137 H   0  0  0  0  0  0  0  0  0  0  0  0
   -3.9872    1.8739   -3.1748 H   0  0  0  0  0  0  0  0  0  0  0  0
   -2.1387    1.4915   -1.6333 H   0  0  0  0  0  0  0  0  0  0  0  0
    0.4323   -0.4749   -1.3701 H   0  0  0  0  0  0  0  0  0  0  0  0
    0.0810    1.6883   -2.2106 H   0  0  0  0  0  0  0  0  0  0  0  0
   -0.1561    2.4109   -0.5726 H   0  0  0  0  0  0  0  0  0  0  0  0
    2.8049    2.7813    0.6421 H   0  0  0  0  0  0  0  0  0  0  0  0
    4.6075    1.7267   -0.6608 H   0  0  0  0  0  0  0  0  0  0  0  0
    4.5130    1.1821    1.0222 H   0  0  0  0  0  0  0  0  0  0  0  0
    3.3045   -0.9719    0.1564 H   0  0  0  0  0  0  0  0  0  0  0  0
    5.6395   -0.9285    0.9492 H   0  0  0  0  0  0  0  0  0  0  0  0
    5.4492   -2.0395   -0.4465 H   0  0  0  0  0  0  0  0  0  0  0  0
    6.2072   -0.4163   -0.6889 H   0  0  0  0  0  0  0  0  0  0  0  0
    2.6665   -0.2624   -2.1360 H   0  0  0  0  0  0  0  0  0  0  0  0
    3.8555   -1.5821   -2.2372 H   0  0  0  0  0  0  0  0  0  0  0  0
    4.3863    0.1172   -2.5323 H   0  0  0  0  0  0  0  0  0  0  0  0
    0.9489    1.7620    1.6365 H   0  0  0  0  0  0  0  0  0  0  0  0
    2.3232    0.7073    2.0933 H   0  0  0  0  0  0  0  0  0  0  0  0
    1.2092   -1.5259    2.1740 H   0  0  0  0  0  0  0  0  0  0  0  0
   -0.1098   -0.3300    2.4340 H   0  0  0  0  0  0  0  0  0  0  0  0
   -0.1119   -2.6072    0.3502 H   0  0  0  0  0  0  0  0  0  0  0  0
   -1.0012   -2.5774    1.9227 H   0  0  0  0  0  0  0  0  0  0  0  0
   -3.2766   -2.4148    1.1910 H   0  0  0  0  0  0  0  0  0  0  0  0
  1  2  1  0
  2  3  1  0
  3  4  2  0
  4  5  1  0
  5  6  1  0
  4  7  1  0
  7  8  2  0
  8  9  1  0
  9 10  1  0
 10 11  1  0
 11 12  2  0
 11 13  1  0
 13 14  1  0
 14 15  1  0
 15 16  1  0
 15 17  1  0
 13 18  1  0
 18 19  1  0
 19 20  1  0
 20 21  1  0
 21 22  1  0
 22 23  2  0
 23  3  1  0
 22  8  1  0
 19  9  1  0
  1 24  1  0
  1 25  1  0
  1 26  1  0
  6 27  1  0
  6 28  1  0
  6 29  1  0
  7 30  1  0
  9 31  1  0
 10 32  1  0
 10 33  1  0
 13 34  1  0
 14 35  1  0
 14 36  1  0
 15 37  1  0
 16 38  1  0
 16 39  1  0
 16 40  1  0
 17 41  1  0
 17 42  1  0
 17 43  1  0
 18 44  1  0
 18 45  1  0
 20 46  1  0
 20 47  1  0
 21 48  1  0
 21 49  1  0
 23 50  1  0
M  END
$$$$
