
     RDKit          3D

 34 37  0  0  0  0  0  0  0  0999 V2000
   -5.4801   -1.4762   -0.0511 N   0  0  0  0  0  0  0  0  0  0  0  0
   -4.5478   -0.4355    0.2423 C   0  0  0  0  0  0  0  0  0  0  0  0
   -3.2298   -0.4870   -0.1967 C   0  0  0  0  0  0  0  0  0  0  0  0
   -2.5978   -1.4460   -0.8996 N   0  0  0  0  0  0  0  0  0  0  0  0
   -1.3298   -0.9588   -0.9989 C   0  0  0  0  0  0  0  0  0  0  0  0
   -1.1690    0.2512   -0.4007 N   0  0  0  0  0  0  0  0  0  0  0  0
    0.0697    1.0123   -0.2249 C   0  0  2  0  0  0  0  0  0  0  0  0
    0.8812    0.8686   -1.3801 O   0  0  0  0  0  0  0  0  0  0  0  0
    2.1586    0.5184   -0.9122 C   0  0  2  0  0  0  0  0  0  0  0  0
    2.9821   -0.3006   -1.9345 C   0  0  0  0  0  0  0  0  0  0  0  0
    3.6628   -1.4215   -1.3857 O   0  0  0  0  0  0  0  0  0  0  0  0
    4.3401   -1.0281    0.1405 P   0  0  0  0  0  5  0  0  0  0  0  0
    5.6427    0.0327   -0.0645 O   0  0  0  0  0  0  0  0  0  0  0  0
    4.8298   -2.2930    0.8066 O   0  0  0  0  0  0  0  0  0  0  0  0
    3.1493   -0.2967    1.1285 O   0  0  0  0  0  0  0  0  0  0  0  0
    1.9650   -0.2647    0.3674 C   0  0  1  0  0  0  0  0  0  0  0  0
    0.8399    0.5030    1.0088 C   0  0  1  0  0  0  0  0  0  0  0  0
    1.3284    1.5932    1.7501 O   0  0  0  0  0  0  0  0  0  0  0  0
   -2.3777    0.5182    0.1076 C   0  0  0  0  0  0  0  0  0  0  0  0
   -2.7482    1.5944    0.8430 N   0  0  0  0  0  0  0  0  0  0  0  0
   -4.0431    1.6572    1.2777 C   0  0  0  0  0  0  0  0  0  0  0  0
   -4.9279    0.6520    0.9780 N   0  0  0  0  0  0  0  0  0  0  0  0
   -5.1961   -2.3105   -0.6113 H   0  0  0  0  0  0  0  0  0  0  0  0
   -6.4633   -1.4121    0.2941 H   0  0  0  0  0  0  0  0  0  0  0  0
   -0.5290   -1.4941   -1.4927 H   0  0  0  0  0  0  0  0  0  0  0  0
   -0.1823    2.0899   -0.1051 H   0  0  0  0  0  0  0  0  0  0  0  0
    2.7187    1.4582   -0.6902 H   0  0  0  0  0  0  0  0  0  0  0  0
    2.2980   -0.6786   -2.7236 H   0  0  0  0  0  0  0  0  0  0  0  0
    3.7170    0.3618   -2.4417 H   0  0  0  0  0  0  0  0  0  0  0  0
    5.2289    0.9046   -0.2854 H   0  0  0  0  0  0  0  0  0  0  0  0
    1.5985   -1.3000    0.1605 H   0  0  0  0  0  0  0  0  0  0  0  0
    0.2107   -0.1586    1.6510 H   0  0  0  0  0  0  0  0  0  0  0  0
    1.5722    1.2420    2.6461 H   0  0  0  0  0  0  0  0  0  0  0  0
   -4.3717    2.5041    1.8641 H   0  0  0  0  0  0  0  0  0  0  0  0
  1  2  1  0
  2  3  2  0
  3  4  1  0
  4  5  2  0
  5  6  1  0
  6  7  1  0
  7  8  1  0
  8  9  1  0
  9 10  1  0
 10 11  1  0
 11 12  1  0
 12 13  1  0
 12 14  2  0
 12 15  1  0
 15 16  1  0
 16 17  1  0
 17 18  1  0
  6 19  1  0
 19 20  2  0
 20 21  1  0
 21 22  2  0
 22  2  1  0
 19  3  1  0
 17  7  1  0
 16  9  1  0
  1 23  1  0
  1 24  1  0
  5 25  1  0
  7 26  1  1
  9 27  1  1
 10 28  1  0
 10 29  1  0
 13 30  1  0
 16 31  1  6
 17 32  1  1
 18 33  1  0
 21 34  1  0
M  END
$$$$
