
     RDKit          3D

 41 44  0  0  0  0  0  0  0  0999 V2000
    5.5124    2.6758   -2.1658 Cl  0  0  0  0  0  0  0  0  0  0  0  0
    4.2272    1.5340   -2.5138 C   0  0  0  0  0  0  0  0  0  0  0  0
    2.8974    1.9663   -2.5503 C   0  0  0  0  0  0  0  0  0  0  0  0
    1.8717    1.0572   -2.8261 C   0  0  0  0  0  0  0  0  0  0  0  0
    2.1699   -0.2943   -3.0685 C   0  0  0  0  0  0  0  0  0  0  0  0
    1.0704   -1.2860   -3.3386 C   0  0  0  0  0  0  0  0  0  0  0  0
    0.9269   -2.2063   -2.2121 N   0  0  0  0  0  0  0  0  0  0  0  0
    0.3936   -1.8019   -0.9451 C   0  0  0  0  0  0  0  0  0  0  0  0
    0.3186   -2.7077    0.0736 N   0  0  0  0  0  0  0  0  0  0  0  0
   -0.1784   -2.2908    1.2616 C   0  0  0  0  0  0  0  0  0  0  0  0
   -0.2999   -2.9884    2.4356 C   0  0  0  0  0  0  0  0  0  0  0  0
   -0.7957   -2.0516    3.3352 C   0  0  0  0  0  0  0  0  0  0  0  0
   -0.9559   -0.8585    2.7102 N   0  0  0  0  0  0  0  0  0  0  0  0
   -0.5855   -1.0346    1.4512 N   0  0  0  0  0  0  0  0  0  0  0  0
   -0.5345   -0.1188    0.4507 C   0  0  0  0  0  0  0  0  0  0  0  0
   -0.9356    1.2447    0.6444 N   0  0  0  0  0  0  0  0  0  0  0  0
   -2.0896    1.6464    1.4009 C   0  0  0  0  0  0  0  0  0  0  0  0
   -2.1279    2.9277    1.9722 C   0  0  0  0  0  0  0  0  0  0  0  0
   -3.2512    3.3482    2.6912 C   0  0  0  0  0  0  0  0  0  0  0  0
   -4.3508    2.4977    2.8326 C   0  0  0  0  0  0  0  0  0  0  0  0
   -4.3316    1.2283    2.2490 C   0  0  0  0  0  0  0  0  0  0  0  0
   -3.2104    0.8044    1.5291 C   0  0  0  0  0  0  0  0  0  0  0  0
   -0.0259   -0.5128   -0.7492 N   0  0  0  0  0  0  0  0  0  0  0  0
    0.0472   -4.3590    2.6940 C   0  0  0  0  0  0  0  0  0  0  0  0
    0.3267   -5.4624    2.9019 N   0  0  0  0  0  0  0  0  0  0  0  0
    3.5067   -0.7222   -3.0274 C   0  0  0  0  0  0  0  0  0  0  0  0
    4.5306    0.1896   -2.7526 C   0  0  0  0  0  0  0  0  0  0  0  0
    2.6574    3.0053   -2.3633 H   0  0  0  0  0  0  0  0  0  0  0  0
    0.8468    1.4066   -2.8453 H   0  0  0  0  0  0  0  0  0  0  0  0
    1.3246   -1.8628   -4.2542 H   0  0  0  0  0  0  0  0  0  0  0  0
    0.1008   -0.7774   -3.5320 H   0  0  0  0  0  0  0  0  0  0  0  0
    1.2185   -3.2017   -2.3401 H   0  0  0  0  0  0  0  0  0  0  0  0
   -1.0135   -2.2233    4.3810 H   0  0  0  0  0  0  0  0  0  0  0  0
   -0.3886    1.9836    0.1472 H   0  0  0  0  0  0  0  0  0  0  0  0
   -1.2826    3.5962    1.8671 H   0  0  0  0  0  0  0  0  0  0  0  0
   -3.2699    4.3343    3.1369 H   0  0  0  0  0  0  0  0  0  0  0  0
   -5.2201    2.8248    3.3883 H   0  0  0  0  0  0  0  0  0  0  0  0
   -5.1886    0.5747    2.3488 H   0  0  0  0  0  0  0  0  0  0  0  0
   -3.2230   -0.1730    1.0644 H   0  0  0  0  0  0  0  0  0  0  0  0
    3.7537   -1.7618   -3.2046 H   0  0  0  0  0  0  0  0  0  0  0  0
    5.5580   -0.1503   -2.7231 H   0  0  0  0  0  0  0  0  0  0  0  0
  1  2  1  0
  2  3  2  0
  3  4  1  0
  4  5  2  0
  5  6  1  0
  6  7  1  0
  7  8  1  0
  8  9  2  0
  9 10  1  0
 10 11  2  0
 11 12  1  0
 12 13  2  0
 13 14  1  0
 14 15  1  0
 15 16  1  0
 16 17  1  0
 17 18  2  0
 18 19  1  0
 19 20  2  0
 20 21  1  0
 21 22  2  0
 15 23  2  0
 11 24  1  0
 24 25  3  0
  5 26  1  0
 26 27  2  0
 27  2  1  0
 23  8  1  0
 14 10  1  0
 22 17  1  0
  3 28  1  0
  4 29  1  0
  6 30  1  0
  6 31  1  0
  7 32  1  0
 12 33  1  0
 16 34  1  0
 18 35  1  0
 19 36  1  0
 20 37  1  0
 21 38  1  0
 22 39  1  0
 26 40  1  0
 27 41  1  0
M  END
$$$$
