
     RDKit          3D

 45 47  0  0  0  0  0  0  0  0999 V2000
   -2.2359   -0.6631    0.6910 C   0  0  1  0  0  0  0  0  0  0  0  0
   -2.7614   -2.0748    0.3608 C   0  0  0  0  0  0  0  0  0  0  0  0
   -0.9485   -0.7550    1.4946 C   0  0  0  0  0  0  0  0  0  0  0  0
    0.0402    0.1689    1.4094 C   0  0  0  0  0  0  0  0  0  0  0  0
    1.1756    0.0890    2.3958 C   0  0  0  0  0  0  0  0  0  0  0  0
    0.0002    1.3143    0.3832 C   0  0  2  0  0  0  0  0  0  0  0  0
   -1.4451    1.6271   -0.0370 C   0  0  2  0  0  0  0  0  0  0  0  0
   -2.2262    2.3408    1.0878 C   0  0  0  0  0  0  0  0  0  0  0  0
   -2.0507    0.2776   -0.5515 C   0  0  2  0  0  0  0  0  0  0  0  0
   -3.4138    0.5234   -1.2646 C   0  0  0  0  0  0  0  0  0  0  0  0
   -3.3200    1.5392   -2.2294 O   0  0  0  0  0  0  0  0  0  0  0  0
   -1.0225   -0.3877   -1.5473 C   0  0  0  0  0  0  0  0  0  0  0  0
   -0.0146    0.5007   -2.0001 O   0  0  0  0  0  0  0  0  0  0  0  0
    0.7899    1.0170   -0.9377 C   0  0  2  0  0  0  0  0  0  0  0  0
    2.0989    0.2629   -0.7557 C   0  0  0  0  0  0  0  0  0  0  0  0
    2.3012   -1.0356   -1.2641 C   0  0  0  0  0  0  0  0  0  0  0  0
    3.5190   -1.6933   -1.0655 C   0  0  0  0  0  0  0  0  0  0  0  0
    4.5569   -1.0634   -0.3745 C   0  0  0  0  0  0  0  0  0  0  0  0
    5.7625   -1.7341   -0.1816 O   0  0  0  0  0  0  0  0  0  0  0  0
    4.3772    0.2368    0.1110 C   0  0  0  0  0  0  0  0  0  0  0  0
    3.1620    0.8975   -0.0866 C   0  0  0  0  0  0  0  0  0  0  0  0
   -3.0027   -0.2210    1.3625 H   0  0  0  0  0  0  0  0  0  0  0  0
   -2.8934   -2.6542    1.2998 H   0  0  0  0  0  0  0  0  0  0  0  0
   -2.0696   -2.6434   -0.2918 H   0  0  0  0  0  0  0  0  0  0  0  0
   -3.7559   -2.0220   -0.1262 H   0  0  0  0  0  0  0  0  0  0  0  0
   -0.8850   -1.5232    2.2618 H   0  0  0  0  0  0  0  0  0  0  0  0
    1.7778   -0.8235    2.2011 H   0  0  0  0  0  0  0  0  0  0  0  0
    0.7755    0.0482    3.4312 H   0  0  0  0  0  0  0  0  0  0  0  0
    1.8348    0.9776    2.3260 H   0  0  0  0  0  0  0  0  0  0  0  0
    0.4407    2.2223    0.8541 H   0  0  0  0  0  0  0  0  0  0  0  0
   -1.4098    2.3584   -0.8772 H   0  0  0  0  0  0  0  0  0  0  0  0
   -1.7833    3.3442    1.2637 H   0  0  0  0  0  0  0  0  0  0  0  0
   -3.2860    2.4913    0.7999 H   0  0  0  0  0  0  0  0  0  0  0  0
   -2.1817    1.7874    2.0479 H   0  0  0  0  0  0  0  0  0  0  0  0
   -4.1848    0.8197   -0.5236 H   0  0  0  0  0  0  0  0  0  0  0  0
   -3.7857   -0.4102   -1.7432 H   0  0  0  0  0  0  0  0  0  0  0  0
   -2.9161    1.1330   -3.0395 H   0  0  0  0  0  0  0  0  0  0  0  0
   -1.5453   -0.7942   -2.4384 H   0  0  0  0  0  0  0  0  0  0  0  0
   -0.5288   -1.2702   -1.0957 H   0  0  0  0  0  0  0  0  0  0  0  0
    1.0994    2.0210   -1.3059 H   0  0  0  0  0  0  0  0  0  0  0  0
    1.5390   -1.5437   -1.8342 H   0  0  0  0  0  0  0  0  0  0  0  0
    3.6589   -2.6929   -1.4571 H   0  0  0  0  0  0  0  0  0  0  0  0
    6.5345   -1.3035    0.3138 H   0  0  0  0  0  0  0  0  0  0  0  0
    5.1782    0.7371    0.6402 H   0  0  0  0  0  0  0  0  0  0  0  0
    3.0443    1.9051    0.2930 H   0  0  0  0  0  0  0  0  0  0  0  0
  1  2  1  0
  1  3  1  0
  3  4  2  0
  4  5  1  0
  4  6  1  0
  6  7  1  0
  7  8  1  0
  7  9  1  0
  9 10  1  6
 10 11  1  0
  9 12  1  0
 12 13  1  0
 13 14  1  0
 14 15  1  0
 15 16  2  0
 16 17  1  0
 17 18  2  0
 18 19  1  0
 18 20  1  0
 20 21  2  0
  9  1  1  0
 21 15  1  0
 14  6  1  0
  1 22  1  1
  2 23  1  0
  2 24  1  0
  2 25  1  0
  3 26  1  0
  5 27  1  0
  5 28  1  0
  5 29  1  0
  6 30  1  1
  7 31  1  6
  8 32  1  0
  8 33  1  0
  8 34  1  0
 10 35  1  0
 10 36  1  0
 11 37  1  0
 12 38  1  0
 12 39  1  0
 14 40  1  6
 16 41  1  0
 17 42  1  0
 19 43  1  0
 20 44  1  0
 21 45  1  0
M  END
$$$$
