
     RDKit          3D

 22 23  0  0  0  0  0  0  0  0999 V2000
    3.8829    0.8489    1.0810 O   0  0  0  0  0  1  0  0  0  0  0  0
    2.8835    1.3974    0.3105 N   0  0  0  0  0  4  0  0  0  0  0  0
    2.9867    2.5877   -0.0519 O   0  0  0  0  0  0  0  0  0  0  0  0
    1.6519    0.6839    0.1102 C   0  0  0  0  0  0  0  0  0  0  0  0
    1.6382   -0.7198   -0.0817 C   0  0  0  0  0  0  0  0  0  0  0  0
    0.4071   -1.3949   -0.1585 C   0  0  0  0  0  0  0  0  0  0  0  0
   -0.8016   -0.6914   -0.0842 C   0  0  0  0  0  0  0  0  0  0  0  0
   -1.9962   -1.3432   -0.1701 N   0  0  0  0  0  0  0  0  0  0  0  0
   -3.1729   -0.6617   -0.1054 C   0  0  0  0  0  0  0  0  0  0  0  0
   -4.2666   -1.2842   -0.1862 O   0  0  0  0  0  0  0  0  0  0  0  0
   -3.1590    0.7307    0.0507 C   0  0  0  0  0  0  0  0  0  0  0  0
   -4.2402    1.3768    0.1126 O   0  0  0  0  0  0  0  0  0  0  0  0
   -1.9691    1.3864    0.1358 N   0  0  0  0  0  0  0  0  0  0  0  0
   -0.7877    0.7087    0.0705 C   0  0  0  0  0  0  0  0  0  0  0  0
    0.4346    1.3857    0.1657 C   0  0  0  0  0  0  0  0  0  0  0  0
    2.8574   -1.4600   -0.2608 N   0  0  0  0  0  4  0  0  0  0  0  0
    3.8816   -0.9335   -1.0138 O   0  0  0  0  0  1  0  0  0  0  0  0
    2.9283   -2.6522    0.1030 O   0  0  0  0  0  0  0  0  0  0  0  0
    0.3903   -2.4679   -0.3067 H   0  0  0  0  0  0  0  0  0  0  0  0
   -2.0179   -2.3825   -0.2875 H   0  0  0  0  0  0  0  0  0  0  0  0
   -1.9702    2.4260    0.2530 H   0  0  0  0  0  0  0  0  0  0  0  0
    0.4386    2.4589    0.3138 H   0  0  0  0  0  0  0  0  0  0  0  0
  1  2  1  0
  2  3  2  0
  2  4  1  0
  4  5  2  0
  5  6  1  0
  6  7  2  0
  7  8  1  0
  8  9  1  0
  9 10  2  0
  9 11  1  0
 11 12  2  0
 11 13  1  0
 13 14  1  0
 14 15  2  0
  5 16  1  0
 16 17  1  0
 16 18  2  0
 15  4  1  0
 14  7  1  0
  6 19  1  0
  8 20  1  0
 13 21  1  0
 15 22  1  0
M  CHG  4   1  -1   2   1  16   1  17  -1
M  END
$$$$
