
     RDKit          3D

 21 20  0  0  0  0  0  0  0  0999 V2000
    2.9219   -1.1349   -0.1133 O   0  0  0  0  0  0  0  0  0  0  0  0
    2.2209   -0.3193   -0.9962 C   0  0  0  0  0  0  0  0  0  0  0  0
    2.2721   -0.5436   -2.2353 O   0  0  0  0  0  0  0  0  0  0  0  0
    1.3909    0.8150   -0.4696 C   0  0  0  0  0  0  0  0  0  0  0  0
   -0.0906    0.4302   -0.2096 C   0  0  0  0  0  0  0  0  0  0  0  0
   -0.6845   -0.0105   -1.4114 O   0  0  0  0  0  0  0  0  0  0  0  0
   -0.2019   -0.6657    0.8895 C   0  0  0  0  0  0  0  0  0  0  0  0
   -1.6253   -1.0590    1.1576 C   0  0  0  0  0  0  0  0  0  0  0  0
   -2.2494   -2.0002    0.3450 O   0  0  0  0  0  0  0  0  0  0  0  0
   -2.2647   -0.5169    2.0985 O   0  0  0  0  0  0  0  0  0  0  0  0
   -0.8196    1.6758    0.2468 C   0  0  0  0  0  0  0  0  0  0  0  0
   -1.8678    2.1926   -0.5106 O   0  0  0  0  0  0  0  0  0  0  0  0
   -0.4814    2.2551    1.3152 O   0  0  0  0  0  0  0  0  0  0  0  0
    3.4790   -1.9097   -0.4529 H   0  0  0  0  0  0  0  0  0  0  0  0
    1.8578    1.1830    0.4706 H   0  0  0  0  0  0  0  0  0  0  0  0
    1.4326    1.6509   -1.2031 H   0  0  0  0  0  0  0  0  0  0  0  0
   -0.3306   -0.9130   -1.6248 H   0  0  0  0  0  0  0  0  0  0  0  0
    0.3496   -1.5784    0.5790 H   0  0  0  0  0  0  0  0  0  0  0  0
    0.2671   -0.3105    1.8338 H   0  0  0  0  0  0  0  0  0  0  0  0
   -3.2137   -2.2663    0.5046 H   0  0  0  0  0  0  0  0  0  0  0  0
   -2.3624    3.0253   -0.2137 H   0  0  0  0  0  0  0  0  0  0  0  0
  1  2  1  0
  2  3  2  0
  2  4  1  0
  4  5  1  0
  5  6  1  0
  5  7  1  0
  7  8  1  0
  8  9  1  0
  8 10  2  0
  5 11  1  0
 11 12  1  0
 11 13  2  0
  1 14  1  0
  4 15  1  0
  4 16  1  0
  6 17  1  0
  7 18  1  0
  7 19  1  0
  9 20  1  0
 12 21  1  0
M  END
$$$$
