
     RDKit          3D

 63 66  0  0  0  0  0  0  0  0999 V2000
    1.2550    2.9256   -4.3594 C   0  0  0  0  0  0  0  0  0  0  0  0
    0.2013    3.4755   -3.4041 C   0  0  0  0  0  0  0  0  0  0  0  0
    0.2828    2.8282   -2.1340 O   0  0  0  0  0  0  0  0  0  0  0  0
    1.2508    3.0747   -1.1436 C   0  0  0  0  0  0  0  0  0  0  0  0
    2.2143    4.0959   -1.2711 C   0  0  0  0  0  0  0  0  0  0  0  0
    3.1582    4.3230   -0.2574 C   0  0  0  0  0  0  0  0  0  0  0  0
    3.1534    3.5029    0.8780 C   0  0  0  0  0  0  0  0  0  0  0  0
    2.2016    2.4926    1.0161 C   0  0  0  0  0  0  0  0  0  0  0  0
    1.2519    2.2640    0.0069 C   0  0  0  0  0  0  0  0  0  0  0  0
    0.2519    1.2415    0.1604 N   0  0  0  0  0  0  0  0  0  0  0  0
    0.5117   -0.0547    0.7171 C   0  0  0  0  0  0  0  0  0  0  0  0
    1.7881   -0.4830    0.9208 N   0  0  0  0  0  0  0  0  0  0  0  0
    2.0469   -1.7183    1.4215 C   0  0  0  0  0  0  0  0  0  0  0  0
    0.9894   -2.5793    1.7284 C   0  0  0  0  0  0  0  0  0  0  0  0
    1.2104   -3.8616    2.2409 C   0  0  0  0  0  0  0  0  0  0  0  0
    0.1119   -4.6817    2.5229 C   0  0  0  0  0  0  0  0  0  0  0  0
    0.3171   -6.0592    3.0668 C   0  0  0  0  0  0  0  0  0  0  0  0
   -1.1499   -4.2252    2.2965 N   0  0  0  0  0  0  0  0  0  0  0  0
   -1.4036   -2.9824    1.7977 C   0  0  0  0  0  0  0  0  0  0  0  0
   -2.7609   -2.5614    1.5703 N   0  0  0  0  0  0  0  0  0  0  0  0
   -3.9158   -3.4420    1.7670 C   0  0  0  0  0  0  0  0  0  0  0  0
   -4.3726   -4.1155    0.4444 C   0  0  0  0  0  0  0  0  0  0  0  0
   -4.7529   -3.0472   -0.6016 C   0  0  0  0  0  0  0  0  0  0  0  0
   -5.6106   -4.9867    0.7381 C   0  0  0  0  0  0  0  0  0  0  0  0
   -3.2571   -5.0159   -0.1246 C   0  0  0  0  0  0  0  0  0  0  0  0
   -0.3249   -2.1291    1.5032 C   0  0  0  0  0  0  0  0  0  0  0  0
   -0.5294   -0.8825    0.9997 N   0  0  0  0  0  0  0  0  0  0  0  0
    4.1834    5.3818   -0.3868 C   0  0  0  0  0  0  0  0  0  0  0  0
    5.4595    5.2205    0.0163 N   0  0  0  0  0  0  0  0  0  0  0  0
    6.0951    6.3559   -0.2356 N   0  0  0  0  0  0  0  0  0  0  0  0
    5.1994    7.1998   -0.7817 C   0  0  0  0  0  0  0  0  0  0  0  0
    3.9876    6.6251   -0.8786 N   0  0  0  0  0  0  0  0  0  0  0  0
    2.7669    7.2535   -1.3758 C   0  0  0  0  0  0  0  0  0  0  0  0
    1.1496    3.4133   -5.3512 H   0  0  0  0  0  0  0  0  0  0  0  0
    1.1181    1.8303   -4.4813 H   0  0  0  0  0  0  0  0  0  0  0  0
    2.2769    3.1196   -3.9743 H   0  0  0  0  0  0  0  0  0  0  0  0
    0.2930    4.5770   -3.2966 H   0  0  0  0  0  0  0  0  0  0  0  0
   -0.8009    3.2692   -3.8351 H   0  0  0  0  0  0  0  0  0  0  0  0
    2.2516    4.6983   -2.1645 H   0  0  0  0  0  0  0  0  0  0  0  0
    3.8741    3.6598    1.6714 H   0  0  0  0  0  0  0  0  0  0  0  0
    2.1924    1.9043    1.9244 H   0  0  0  0  0  0  0  0  0  0  0  0
   -0.7052    1.4204   -0.2196 H   0  0  0  0  0  0  0  0  0  0  0  0
    3.0741   -2.0250    1.5742 H   0  0  0  0  0  0  0  0  0  0  0  0
    2.2182   -4.2202    2.4170 H   0  0  0  0  0  0  0  0  0  0  0  0
   -0.6590   -6.5625    3.2332 H   0  0  0  0  0  0  0  0  0  0  0  0
    0.8596   -6.0039    4.0340 H   0  0  0  0  0  0  0  0  0  0  0  0
    0.9106   -6.6617    2.3473 H   0  0  0  0  0  0  0  0  0  0  0  0
   -2.9500   -1.5934    1.2255 H   0  0  0  0  0  0  0  0  0  0  0  0
   -3.6876   -4.2131    2.5350 H   0  0  0  0  0  0  0  0  0  0  0  0
   -4.7510   -2.8337    2.1789 H   0  0  0  0  0  0  0  0  0  0  0  0
   -5.1504   -3.5259   -1.5228 H   0  0  0  0  0  0  0  0  0  0  0  0
   -3.8689   -2.4396   -0.8901 H   0  0  0  0  0  0  0  0  0  0  0  0
   -5.5323   -2.3650   -0.1987 H   0  0  0  0  0  0  0  0  0  0  0  0
   -5.9702   -5.4870   -0.1872 H   0  0  0  0  0  0  0  0  0  0  0  0
   -6.4404   -4.3666    1.1413 H   0  0  0  0  0  0  0  0  0  0  0  0
   -5.3681   -5.7730    1.4855 H   0  0  0  0  0  0  0  0  0  0  0  0
   -3.6131   -5.5546   -1.0293 H   0  0  0  0  0  0  0  0  0  0  0  0
   -2.9411   -5.7706    0.6275 H   0  0  0  0  0  0  0  0  0  0  0  0
   -2.3704   -4.4151   -0.4177 H   0  0  0  0  0  0  0  0  0  0  0  0
    5.4261    8.2138   -1.0848 H   0  0  0  0  0  0  0  0  0  0  0  0
    2.6463    7.0344   -2.4569 H   0  0  0  0  0  0  0  0  0  0  0  0
    1.8848    6.8812   -0.8137 H   0  0  0  0  0  0  0  0  0  0  0  0
    2.8221    8.3546   -1.2399 H   0  0  0  0  0  0  0  0  0  0  0  0
  1  2  1  0
  2  3  1  0
  3  4  1  0
  4  5  2  0
  5  6  1  0
  6  7  2  0
  7  8  1  0
  8  9  2  0
  9 10  1  0
 10 11  1  0
 11 12  2  0
 12 13  1  0
 13 14  2  0
 14 15  1  0
 15 16  2  0
 16 17  1  0
 16 18  1  0
 18 19  2  0
 19 20  1  0
 20 21  1  0
 21 22  1  0
 22 23  1  0
 22 24  1  0
 22 25  1  0
 19 26  1  0
 26 27  2  0
  6 28  1  0
 28 29  2  0
 29 30  1  0
 30 31  2  0
 31 32  1  0
 32 33  1  0
  9  4  1  0
 27 11  1  0
 32 28  1  0
 26 14  1  0
  1 34  1  0
  1 35  1  0
  1 36  1  0
  2 37  1  0
  2 38  1  0
  5 39  1  0
  7 40  1  0
  8 41  1  0
 10 42  1  0
 13 43  1  0
 15 44  1  0
 17 45  1  0
 17 46  1  0
 17 47  1  0
 20 48  1  0
 21 49  1  0
 21 50  1  0
 23 51  1  0
 23 52  1  0
 23 53  1  0
 24 54  1  0
 24 55  1  0
 24 56  1  0
 25 57  1  0
 25 58  1  0
 25 59  1  0
 31 60  1  0
 33 61  1  0
 33 62  1  0
 33 63  1  0
M  END
$$$$
