
     RDKit          3D

 64 68  0  0  0  0  0  0  0  0999 V2000
    4.8461    1.9369    1.5907 C   0  0  0  0  0  0  0  0  0  0  0  0
    3.3979    1.4712    1.7362 C   0  0  0  0  0  0  0  0  0  0  0  0
    2.3985    2.5043    1.2013 C   0  0  0  0  0  0  0  0  0  0  0  0
    2.5492    2.7299   -0.6088 S   0  0  0  0  0  0  0  0  0  0  0  0
    1.5140    1.3316   -1.0295 C   0  0  0  0  0  0  0  0  0  0  0  0
    0.1744    1.5176   -1.2388 N   0  0  0  0  0  0  0  0  0  0  0  0
   -0.5625    0.4325   -1.5747 C   0  0  0  0  0  0  0  0  0  0  0  0
   -0.0385   -0.8034   -1.6957 C   0  0  0  0  0  0  0  0  0  0  0  0
   -1.0269   -1.6697   -1.9854 N   0  0  0  0  0  0  0  0  0  0  0  0
   -2.1398   -0.9342   -2.0374 N   0  0  0  0  0  0  0  0  0  0  0  0
   -1.8789    0.3510   -1.8002 N   0  0  0  0  0  0  0  0  0  0  0  0
   -2.8785    1.4193   -1.6959 C   0  0  2  0  0  0  0  0  0  0  0  0
   -3.7251    1.2390   -0.4265 C   0  0  0  0  0  0  0  0  0  0  0  0
   -5.1818    1.0692   -0.8727 C   0  0  2  0  0  0  0  0  0  0  0  0
   -5.8243    0.0357   -0.1457 O   0  0  0  0  0  0  0  0  0  0  0  0
   -6.3879    0.5282    1.0563 C   0  0  0  0  0  0  0  0  0  0  0  0
   -7.8519    0.9094    0.8452 C   0  0  0  0  0  0  0  0  0  0  0  0
   -8.5711   -0.2028    0.3898 O   0  0  0  0  0  0  0  0  0  0  0  0
   -5.1130    0.6909   -2.3503 C   0  0  1  0  0  0  0  0  0  0  0  0
   -6.2586    1.1123   -3.0443 O   0  0  0  0  0  0  0  0  0  0  0  0
   -3.8548    1.3770   -2.8840 C   0  0  1  0  0  0  0  0  0  0  0  0
   -4.1306    2.6750   -3.3589 O   0  0  0  0  0  0  0  0  0  0  0  0
    1.3159   -1.0118   -1.4767 C   0  0  0  0  0  0  0  0  0  0  0  0
    1.9012   -2.3157   -1.5632 N   0  0  0  0  0  0  0  0  0  0  0  0
    3.2799   -2.5468   -1.1436 C   0  0  2  0  0  0  0  0  0  0  0  0
    3.5228   -3.9304   -0.5494 C   0  0  0  0  0  0  0  0  0  0  0  0
    3.4108   -2.7147    0.3666 C   0  0  1  0  0  0  0  0  0  0  0  0
    4.6991   -2.2658    1.0320 C   0  0  0  0  0  0  0  0  0  0  0  0
    4.6447   -1.9181    2.3928 C   0  0  0  0  0  0  0  0  0  0  0  0
    5.7944   -1.5015    3.0703 C   0  0  0  0  0  0  0  0  0  0  0  0
    5.7208   -1.1650    4.3819 F   0  0  0  0  0  0  0  0  0  0  0  0
    7.0149   -1.4240    2.3954 C   0  0  0  0  0  0  0  0  0  0  0  0
    8.1299   -1.0152    3.0498 F   0  0  0  0  0  0  0  0  0  0  0  0
    7.0865   -1.7676    1.0439 C   0  0  0  0  0  0  0  0  0  0  0  0
    5.9405   -2.1894    0.3630 C   0  0  0  0  0  0  0  0  0  0  0  0
    2.0711    0.0821   -1.1506 N   0  0  0  0  0  0  0  0  0  0  0  0
    5.5234    1.2004    2.0689 H   0  0  0  0  0  0  0  0  0  0  0  0
    5.1246    2.0206    0.5195 H   0  0  0  0  0  0  0  0  0  0  0  0
    4.9892    2.9199    2.0874 H   0  0  0  0  0  0  0  0  0  0  0  0
    3.1890    1.3005    2.8143 H   0  0  0  0  0  0  0  0  0  0  0  0
    3.2655    0.5022    1.2120 H   0  0  0  0  0  0  0  0  0  0  0  0
    2.5791    3.4834    1.6937 H   0  0  0  0  0  0  0  0  0  0  0  0
    1.3645    2.1915    1.4625 H   0  0  0  0  0  0  0  0  0  0  0  0
   -2.3608    2.4050   -1.6662 H   0  0  0  0  0  0  0  0  0  0  0  0
   -3.3906    0.3505    0.1545 H   0  0  0  0  0  0  0  0  0  0  0  0
   -3.6309    2.1307    0.2311 H   0  0  0  0  0  0  0  0  0  0  0  0
   -5.7130    2.0488   -0.7896 H   0  0  0  0  0  0  0  0  0  0  0  0
   -5.8253    1.3896    1.4875 H   0  0  0  0  0  0  0  0  0  0  0  0
   -6.3429   -0.2822    1.8144 H   0  0  0  0  0  0  0  0  0  0  0  0
   -7.9233    1.7358    0.1041 H   0  0  0  0  0  0  0  0  0  0  0  0
   -8.2770    1.2607    1.8117 H   0  0  0  0  0  0  0  0  0  0  0  0
   -9.5063    0.1061    0.2676 H   0  0  0  0  0  0  0  0  0  0  0  0
   -4.9857   -0.4129   -2.4565 H   0  0  0  0  0  0  0  0  0  0  0  0
   -6.9981    0.5173   -2.7533 H   0  0  0  0  0  0  0  0  0  0  0  0
   -3.4352    0.7894   -3.7301 H   0  0  0  0  0  0  0  0  0  0  0  0
   -4.4908    3.2109   -2.6042 H   0  0  0  0  0  0  0  0  0  0  0  0
    1.3408   -3.1094   -1.9488 H   0  0  0  0  0  0  0  0  0  0  0  0
    4.0935   -2.0595   -1.7184 H   0  0  0  0  0  0  0  0  0  0  0  0
    4.5451   -4.3269   -0.7211 H   0  0  0  0  0  0  0  0  0  0  0  0
    2.6363   -4.5992   -0.5223 H   0  0  0  0  0  0  0  0  0  0  0  0
    2.4607   -2.6705    0.9439 H   0  0  0  0  0  0  0  0  0  0  0  0
    3.7065   -1.9668    2.9321 H   0  0  0  0  0  0  0  0  0  0  0  0
    8.0331   -1.7113    0.5219 H   0  0  0  0  0  0  0  0  0  0  0  0
    6.0398   -2.4614   -0.6778 H   0  0  0  0  0  0  0  0  0  0  0  0
  1  2  1  0
  2  3  1  0
  3  4  1  0
  4  5  1  0
  5  6  2  0
  6  7  1  0
  7  8  2  0
  8  9  1  0
  9 10  2  0
 10 11  1  0
 11 12  1  0
 12 13  1  0
 13 14  1  0
 14 15  1  0
 15 16  1  0
 16 17  1  0
 17 18  1  0
 14 19  1  0
 19 20  1  0
 19 21  1  0
 21 22  1  0
  8 23  1  0
 23 24  1  0
 24 25  1  0
 25 26  1  0
 26 27  1  0
 27 28  1  0
 28 29  2  0
 29 30  1  0
 30 31  1  0
 30 32  2  0
 32 33  1  0
 32 34  1  0
 34 35  2  0
 23 36  2  0
 36  5  1  0
 11  7  1  0
 21 12  1  0
 27 25  1  0
 35 28  1  0
  1 37  1  0
  1 38  1  0
  1 39  1  0
  2 40  1  0
  2 41  1  0
  3 42  1  0
  3 43  1  0
 12 44  1  1
 13 45  1  0
 13 46  1  0
 14 47  1  6
 16 48  1  0
 16 49  1  0
 17 50  1  0
 17 51  1  0
 18 52  1  0
 19 53  1  1
 20 54  1  0
 21 55  1  6
 22 56  1  0
 24 57  1  0
 25 58  1  6
 26 59  1  0
 26 60  1  0
 27 61  1  1
 29 62  1  0
 34 63  1  0
 35 64  1  0
M  END
$$$$
