
     RDKit          3D

 35 35  0  0  0  0  0  0  0  0999 V2000
   -2.5233   -1.2042   -0.5023 C   0  0  0  0  0  0  0  0  0  0  0  0
   -2.9532   -0.0240    0.3973 C   0  0  0  0  0  0  0  0  0  0  0  0
   -3.0674   -0.4846    1.8680 C   0  0  0  0  0  0  0  0  0  0  0  0
   -4.3515    0.4471   -0.0560 C   0  0  0  0  0  0  0  0  0  0  0  0
   -2.0212    1.1262    0.2801 N   0  0  0  0  0  0  0  0  0  0  0  0
   -0.6004    0.8566    0.5952 C   0  0  0  0  0  0  0  0  0  0  0  0
    0.2876    0.8408   -0.6646 C   0  0  0  0  0  0  0  0  0  0  0  0
    0.3343    2.1282   -1.2255 O   0  0  0  0  0  0  0  0  0  0  0  0
    1.6831    0.3732   -0.3099 C   0  0  0  0  0  0  0  0  0  0  0  0
    2.5838    1.2335    0.3353 C   0  0  0  0  0  0  0  0  0  0  0  0
    3.8616    0.7917    0.6940 C   0  0  0  0  0  0  0  0  0  0  0  0
    4.9358    1.9344    1.4933 Cl  0  0  0  0  0  0  0  0  0  0  0  0
    4.2566   -0.5353    0.4191 C   0  0  0  0  0  0  0  0  0  0  0  0
    5.5677   -0.9957    0.7835 N   0  0  0  0  0  0  0  0  0  0  0  0
    3.3429   -1.4047   -0.2150 C   0  0  0  0  0  0  0  0  0  0  0  0
    3.7524   -3.0772   -0.5805 Cl  0  0  0  0  0  0  0  0  0  0  0  0
    2.0683   -0.9494   -0.5685 C   0  0  0  0  0  0  0  0  0  0  0  0
   -3.2829   -2.0150   -0.4685 H   0  0  0  0  0  0  0  0  0  0  0  0
   -2.4191   -0.8695   -1.5564 H   0  0  0  0  0  0  0  0  0  0  0  0
   -1.5578   -1.6402   -0.1723 H   0  0  0  0  0  0  0  0  0  0  0  0
   -2.1480   -0.9937    2.2204 H   0  0  0  0  0  0  0  0  0  0  0  0
   -3.9013   -1.2099    1.9879 H   0  0  0  0  0  0  0  0  0  0  0  0
   -3.2634    0.3865    2.5294 H   0  0  0  0  0  0  0  0  0  0  0  0
   -4.3317    0.7697   -1.1195 H   0  0  0  0  0  0  0  0  0  0  0  0
   -5.1003   -0.3689    0.0418 H   0  0  0  0  0  0  0  0  0  0  0  0
   -4.6877    1.3086    0.5607 H   0  0  0  0  0  0  0  0  0  0  0  0
   -2.1111    1.5648   -0.6671 H   0  0  0  0  0  0  0  0  0  0  0  0
   -0.2425    1.6600    1.2743 H   0  0  0  0  0  0  0  0  0  0  0  0
   -0.4652   -0.0946    1.1475 H   0  0  0  0  0  0  0  0  0  0  0  0
   -0.1631    0.1403   -1.4043 H   0  0  0  0  0  0  0  0  0  0  0  0
    0.7126    2.0286   -2.1384 H   0  0  0  0  0  0  0  0  0  0  0  0
    2.2906    2.2513    0.5627 H   0  0  0  0  0  0  0  0  0  0  0  0
    5.8807   -1.9717    0.5905 H   0  0  0  0  0  0  0  0  0  0  0  0
    6.2585   -0.3712    1.2532 H   0  0  0  0  0  0  0  0  0  0  0  0
    1.3746   -1.6317   -1.0449 H   0  0  0  0  0  0  0  0  0  0  0  0
  1  2  1  0
  2  3  1  0
  2  4  1  0
  2  5  1  0
  5  6  1  0
  6  7  1  0
  7  8  1  0
  7  9  1  0
  9 10  2  0
 10 11  1  0
 11 12  1  0
 11 13  2  0
 13 14  1  0
 13 15  1  0
 15 16  1  0
 15 17  2  0
 17  9  1  0
  1 18  1  0
  1 19  1  0
  1 20  1  0
  3 21  1  0
  3 22  1  0
  3 23  1  0
  4 24  1  0
  4 25  1  0
  4 26  1  0
  5 27  1  0
  6 28  1  0
  6 29  1  0
  7 30  1  0
  8 31  1  0
 10 32  1  0
 14 33  1  0
 14 34  1  0
 17 35  1  0
M  END
$$$$
