
     RDKit          3D

 70 73  0  0  0  0  0  0  0  0999 V2000
   -2.4002   -0.9274   -0.4590 C   0  0  2  0  0  0  0  0  0  0  0  0
   -3.7238   -1.7218   -0.7601 C   0  0  0  0  0  0  0  0  0  0  0  0
   -4.8503   -1.0834    0.0111 C   0  0  0  0  0  0  0  0  0  0  0  0
   -6.0785   -1.5691    0.4506 C   0  0  0  0  0  0  0  0  0  0  0  0
   -6.7300   -0.6052    1.1587 N   0  0  0  0  0  0  0  0  0  0  0  0
   -5.9173    0.4709    1.1579 C   0  0  0  0  0  0  0  0  0  0  0  0
   -6.1071    1.7224    1.7432 C   0  0  0  0  0  0  0  0  0  0  0  0
   -5.0835    2.6851    1.5732 C   0  0  0  0  0  0  0  0  0  0  0  0
   -3.9112    2.3781    0.8307 C   0  0  0  0  0  0  0  0  0  0  0  0
   -3.7464    1.0865    0.2798 C   0  0  0  0  0  0  0  0  0  0  0  0
   -4.7873    0.1971    0.4642 C   0  0  0  0  0  0  0  0  0  0  0  0
   -2.6516    0.6152   -0.6631 C   0  0  1  0  0  0  0  0  0  0  0  0
   -1.3177    1.3574   -0.5763 C   0  0  0  0  0  0  0  0  0  0  0  0
   -0.4023    0.9066   -1.7489 C   0  0  2  0  0  0  0  0  0  0  0  0
   -0.7364   -0.5216   -2.2649 C   0  0  0  0  0  0  0  0  0  0  0  0
   -1.1628   -1.4030   -1.1576 N   0  0  0  0  0  0  0  0  0  0  0  0
   -1.1713   -2.8305   -1.5441 C   0  0  0  0  0  0  0  0  0  0  0  0
    0.2248   -3.3376   -1.7860 C   0  0  0  0  0  0  0  0  0  0  0  0
    1.0941   -3.4820   -0.7837 C   0  0  0  0  0  0  0  0  0  0  0  0
    1.0731    1.0640   -1.4491 C   0  0  0  0  0  0  0  0  0  0  0  0
    1.8926    1.0771   -2.4070 O   0  0  0  0  0  0  0  0  0  0  0  0
    1.5648    1.2389   -0.1121 N   0  0  0  0  0  0  0  0  0  0  0  0
    1.7365    0.0581    0.7417 C   0  0  0  0  0  0  0  0  0  0  0  0
    3.0763   -0.6256    0.4447 C   0  0  0  0  0  0  0  0  0  0  0  0
    3.3984   -1.7048    1.4878 C   0  0  0  0  0  0  0  0  0  0  0  0
    4.5088   -2.5648    1.0240 N   0  0  0  0  0  0  0  0  0  0  0  0
    5.8127   -1.9205    1.2607 C   0  0  0  0  0  0  0  0  0  0  0  0
    4.4708   -3.8619    1.7187 C   0  0  0  0  0  0  0  0  0  0  0  0
    2.1017    2.5161    0.2895 C   0  0  0  0  0  0  0  0  0  0  0  0
    2.8176    2.5974    1.3256 O   0  0  0  0  0  0  0  0  0  0  0  0
    1.8135    3.7035   -0.4683 N   0  0  0  0  0  0  0  0  0  0  0  0
    2.4248    4.9953   -0.1629 C   0  0  0  0  0  0  0  0  0  0  0  0
    3.8837    5.0156   -0.6057 C   0  0  0  0  0  0  0  0  0  0  0  0
   -2.1977   -1.0747    0.6268 H   0  0  0  0  0  0  0  0  0  0  0  0
   -3.9538   -1.6845   -1.8460 H   0  0  0  0  0  0  0  0  0  0  0  0
   -3.6533   -2.7782   -0.4330 H   0  0  0  0  0  0  0  0  0  0  0  0
   -6.4654   -2.5647    0.2788 H   0  0  0  0  0  0  0  0  0  0  0  0
   -7.6662   -0.6876    1.6135 H   0  0  0  0  0  0  0  0  0  0  0  0
   -7.0060    1.9518    2.3002 H   0  0  0  0  0  0  0  0  0  0  0  0
   -5.2022    3.6718    2.0014 H   0  0  0  0  0  0  0  0  0  0  0  0
   -3.1629    3.1447    0.6905 H   0  0  0  0  0  0  0  0  0  0  0  0
   -3.0577    0.7794   -1.6875 H   0  0  0  0  0  0  0  0  0  0  0  0
   -0.8711    1.1447    0.4173 H   0  0  0  0  0  0  0  0  0  0  0  0
   -1.4702    2.4545   -0.6548 H   0  0  0  0  0  0  0  0  0  0  0  0
   -0.6157    1.5956   -2.5974 H   0  0  0  0  0  0  0  0  0  0  0  0
    0.1496   -0.9383   -2.7919 H   0  0  0  0  0  0  0  0  0  0  0  0
   -1.5477   -0.4665   -3.0256 H   0  0  0  0  0  0  0  0  0  0  0  0
   -1.7844   -2.9801   -2.4602 H   0  0  0  0  0  0  0  0  0  0  0  0
   -1.5939   -3.4538   -0.7279 H   0  0  0  0  0  0  0  0  0  0  0  0
    0.5234   -3.6109   -2.7936 H   0  0  0  0  0  0  0  0  0  0  0  0
    2.0954   -3.8522   -0.9780 H   0  0  0  0  0  0  0  0  0  0  0  0
    0.8074   -3.2404    0.2344 H   0  0  0  0  0  0  0  0  0  0  0  0
    0.9071   -0.6603    0.5662 H   0  0  0  0  0  0  0  0  0  0  0  0
    1.6855    0.3557    1.8121 H   0  0  0  0  0  0  0  0  0  0  0  0
    3.0294   -1.0857   -0.5665 H   0  0  0  0  0  0  0  0  0  0  0  0
    3.8821    0.1384    0.4437 H   0  0  0  0  0  0  0  0  0  0  0  0
    3.6363   -1.2283    2.4664 H   0  0  0  0  0  0  0  0  0  0  0  0
    2.4807   -2.3142    1.6425 H   0  0  0  0  0  0  0  0  0  0  0  0
    5.9726   -1.7124    2.3423 H   0  0  0  0  0  0  0  0  0  0  0  0
    5.8869   -0.9706    0.6925 H   0  0  0  0  0  0  0  0  0  0  0  0
    6.6346   -2.5739    0.8962 H   0  0  0  0  0  0  0  0  0  0  0  0
    3.5288   -4.3986    1.4739 H   0  0  0  0  0  0  0  0  0  0  0  0
    4.5390   -3.7298    2.8219 H   0  0  0  0  0  0  0  0  0  0  0  0
    5.3079   -4.5085    1.3772 H   0  0  0  0  0  0  0  0  0  0  0  0
    1.0926    3.6721   -1.2233 H   0  0  0  0  0  0  0  0  0  0  0  0
    1.8774    5.7977   -0.7034 H   0  0  0  0  0  0  0  0  0  0  0  0
    2.3516    5.2045    0.9261 H   0  0  0  0  0  0  0  0  0  0  0  0
    4.3192    6.0175   -0.4072 H   0  0  0  0  0  0  0  0  0  0  0  0
    3.9540    4.8032   -1.6936 H   0  0  0  0  0  0  0  0  0  0  0  0
    4.4706    4.2565   -0.0474 H   0  0  0  0  0  0  0  0  0  0  0  0
  1  2  1  0
  2  3  1  0
  3  4  2  0
  4  5  1  0
  5  6  1  0
  6  7  2  0
  7  8  1  0
  8  9  2  0
  9 10  1  0
 10 11  2  0
 10 12  1  0
 12 13  1  0
 13 14  1  0
 14 15  1  0
 15 16  1  0
 16 17  1  0
 17 18  1  0
 18 19  2  3
 14 20  1  0
 20 21  2  0
 20 22  1  0
 22 23  1  0
 23 24  1  0
 24 25  1  0
 25 26  1  0
 26 27  1  0
 26 28  1  0
 22 29  1  0
 29 30  2  0
 29 31  1  0
 31 32  1  0
 32 33  1  0
 12  1  1  0
 16  1  1  0
 11  3  1  0
 11  6  1  0
  1 34  1  1
  2 35  1  0
  2 36  1  0
  4 37  1  0
  5 38  1  0
  7 39  1  0
  8 40  1  0
  9 41  1  0
 12 42  1  6
 13 43  1  0
 13 44  1  0
 14 45  1  6
 15 46  1  0
 15 47  1  0
 17 48  1  0
 17 49  1  0
 18 50  1  0
 19 51  1  0
 19 52  1  0
 23 53  1  0
 23 54  1  0
 24 55  1  0
 24 56  1  0
 25 57  1  0
 25 58  1  0
 27 59  1  0
 27 60  1  0
 27 61  1  0
 28 62  1  0
 28 63  1  0
 28 64  1  0
 31 65  1  0
 32 66  1  0
 32 67  1  0
 33 68  1  0
 33 69  1  0
 33 70  1  0
M  END
$$$$
