
     RDKit          3D

 31 33  0  0  0  0  0  0  0  0999 V2000
   -1.0012    0.7821   -1.1131 C   0  0  1  0  0  0  0  0  0  0  0  0
   -0.6789   -0.3340   -1.8713 F   0  0  0  0  0  0  0  0  0  0  0  0
   -2.4993    0.9583   -1.0789 C   0  0  2  0  0  0  0  0  0  0  0  0
   -2.8553    2.3211   -1.1005 O   0  0  0  0  0  0  0  0  0  0  0  0
   -2.9152    0.2897    0.2443 C   0  0  1  0  0  0  0  0  0  0  0  0
   -3.7491   -0.9771    0.0174 C   0  0  0  0  0  0  0  0  0  0  0  0
   -2.9961   -1.9410   -0.6667 O   0  0  0  0  0  0  0  0  0  0  0  0
   -1.7605   -0.0400    0.9886 O   0  0  0  0  0  0  0  0  0  0  0  0
   -0.6577    0.5633    0.3521 C   0  0  1  0  0  0  0  0  0  0  0  0
    0.5356   -0.2723    0.5000 N   0  0  0  0  0  0  0  0  0  0  0  0
    0.6077   -1.6263    0.5979 C   0  0  0  0  0  0  0  0  0  0  0  0
    1.8850   -2.0981    0.6301 N   0  0  0  0  0  0  0  0  0  0  0  0
    2.6191   -0.9731    0.5374 C   0  0  0  0  0  0  0  0  0  0  0  0
    4.0000   -0.8187    0.4950 C   0  0  0  0  0  0  0  0  0  0  0  0
    4.8852   -1.9358    0.5768 N   0  0  0  0  0  0  0  0  0  0  0  0
    4.4913    0.4502    0.3654 N   0  0  0  0  0  0  0  0  0  0  0  0
    3.6557    1.5352    0.2769 C   0  0  0  0  0  0  0  0  0  0  0  0
    4.3312    3.1405    0.1076 Cl  0  0  0  0  0  0  0  0  0  0  0  0
    2.2990    1.3708    0.3173 N   0  0  0  0  0  0  0  0  0  0  0  0
    1.8164    0.1119    0.4523 C   0  0  0  0  0  0  0  0  0  0  0  0
   -0.4764    1.6708   -1.5275 H   0  0  0  0  0  0  0  0  0  0  0  0
   -2.9645    0.4690   -1.9635 H   0  0  0  0  0  0  0  0  0  0  0  0
   -2.4202    2.7681   -0.3271 H   0  0  0  0  0  0  0  0  0  0  0  0
   -3.5323    0.9918    0.8484 H   0  0  0  0  0  0  0  0  0  0  0  0
   -4.0655   -1.3835    1.0042 H   0  0  0  0  0  0  0  0  0  0  0  0
   -4.6624   -0.7228   -0.5663 H   0  0  0  0  0  0  0  0  0  0  0  0
   -3.5924   -2.7260   -0.7803 H   0  0  0  0  0  0  0  0  0  0  0  0
   -0.4736    1.5486    0.8377 H   0  0  0  0  0  0  0  0  0  0  0  0
   -0.2604   -2.2720    0.6312 H   0  0  0  0  0  0  0  0  0  0  0  0
    5.9183   -1.7899    0.5399 H   0  0  0  0  0  0  0  0  0  0  0  0
    4.5167   -2.9080    0.6746 H   0  0  0  0  0  0  0  0  0  0  0  0
  1  2  1  0
  1  3  1  0
  3  4  1  0
  3  5  1  0
  5  6  1  0
  6  7  1  0
  5  8  1  0
  8  9  1  0
  9 10  1  0
 10 11  1  0
 11 12  2  0
 12 13  1  0
 13 14  2  0
 14 15  1  0
 14 16  1  0
 16 17  2  0
 17 18  1  0
 17 19  1  0
 19 20  2  0
  9  1  1  0
 20 10  1  0
 20 13  1  0
  1 21  1  6
  3 22  1  6
  4 23  1  0
  5 24  1  1
  6 25  1  0
  6 26  1  0
  7 27  1  0
  9 28  1  1
 11 29  1  0
 15 30  1  0
 15 31  1  0
M  END
$$$$
