
     RDKit          3D

 36 38  0  0  0  0  0  0  0  0999 V2000
    0.9676   -1.2805    1.3166 C   0  0  1  0  0  0  0  0  0  0  0  0
    1.4365    0.1630    1.5391 C   0  0  0  0  0  0  0  0  0  0  0  0
    2.8123    0.1693    1.8403 O   0  0  0  0  0  0  0  0  0  0  0  0
    3.3347    1.7901    1.9282 P   0  0  0  0  0  5  0  0  0  0  0  0
    2.4312    2.6383    3.0825 O   0  0  0  0  0  0  0  0  0  0  0  0
    3.1709    2.5348    0.4160 O   0  0  0  0  0  0  0  0  0  0  0  0
    4.7905    1.8134    2.3335 O   0  0  0  0  0  0  0  0  0  0  0  0
   -0.4426   -1.2945    1.2084 O   0  0  0  0  0  0  0  0  0  0  0  0
   -0.7746   -1.8462   -0.0461 C   0  0  1  0  0  0  0  0  0  0  0  0
   -1.8985   -1.1201   -0.6407 N   0  0  0  0  0  0  0  0  0  0  0  0
   -2.8869   -1.6339   -1.4176 C   0  0  0  0  0  0  0  0  0  0  0  0
   -3.7402   -0.6895   -1.9025 N   0  0  0  0  0  0  0  0  0  0  0  0
   -3.2347    0.4526   -1.4001 C   0  0  0  0  0  0  0  0  0  0  0  0
   -3.6690    1.7597   -1.5732 C   0  0  0  0  0  0  0  0  0  0  0  0
   -5.0871    2.1320   -2.5382 Cl  0  0  0  0  0  0  0  0  0  0  0  0
   -2.9489    2.7542   -0.9698 N   0  0  0  0  0  4  0  0  0  0  0  0
   -1.8320    2.4703   -0.2226 C   0  0  0  0  0  0  0  0  0  0  0  0
   -1.4139    1.1790   -0.0620 N   0  0  0  0  0  0  0  0  0  0  0  0
   -2.1354    0.1986   -0.6559 C   0  0  0  0  0  0  0  0  0  0  0  0
    0.4484   -1.7795   -0.9433 C   0  0  2  0  0  0  0  0  0  0  0  0
    0.4441   -2.8259   -1.8794 O   0  0  0  0  0  0  0  0  0  0  0  0
    1.5793   -1.8923    0.0497 C   0  0  2  0  0  0  0  0  0  0  0  0
    1.9047   -3.2392    0.2924 O   0  0  0  0  0  0  0  0  0  0  0  0
    1.2574   -1.8779    2.2100 H   0  0  0  0  0  0  0  0  0  0  0  0
    1.2180    0.7527    0.6193 H   0  0  0  0  0  0  0  0  0  0  0  0
    0.8587    0.5857    2.3917 H   0  0  0  0  0  0  0  0  0  0  0  0
    1.6526    2.9959    2.5855 H   0  0  0  0  0  0  0  0  0  0  0  0
    3.6179    1.9192   -0.2182 H   0  0  0  0  0  0  0  0  0  0  0  0
   -1.0678   -2.9090    0.1147 H   0  0  0  0  0  0  0  0  0  0  0  0
   -2.9826   -2.6881   -1.6436 H   0  0  0  0  0  0  0  0  0  0  0  0
   -3.2485    3.7486   -1.0803 H   0  0  0  0  0  0  0  0  0  0  0  0
   -1.2748    3.2727    0.2427 H   0  0  0  0  0  0  0  0  0  0  0  0
    0.4966   -0.7904   -1.4583 H   0  0  0  0  0  0  0  0  0  0  0  0
    1.1731   -2.6275   -2.5233 H   0  0  0  0  0  0  0  0  0  0  0  0
    2.4775   -1.3314   -0.3036 H   0  0  0  0  0  0  0  0  0  0  0  0
    2.5655   -3.5043   -0.3995 H   0  0  0  0  0  0  0  0  0  0  0  0
  1  2  1  0
  2  3  1  0
  3  4  1  0
  4  5  1  0
  4  6  1  0
  4  7  2  0
  1  8  1  0
  8  9  1  0
  9 10  1  0
 10 11  1  0
 11 12  2  0
 12 13  1  0
 13 14  2  0
 14 15  1  0
 14 16  1  0
 16 17  2  0
 17 18  1  0
 18 19  2  0
  9 20  1  0
 20 21  1  0
 20 22  1  0
 22 23  1  0
 22  1  1  0
 19 10  1  0
 19 13  1  0
  1 24  1  1
  2 25  1  0
  2 26  1  0
  5 27  1  0
  6 28  1  0
  9 29  1  1
 11 30  1  0
 16 31  1  0
 17 32  1  0
 20 33  1  6
 21 34  1  0
 22 35  1  6
 23 36  1  0
M  CHG  1  16   1
M  END
$$$$
