
     RDKit          3D

 28 28  0  0  0  0  0  0  0  0999 V2000
   -4.5502   -0.7790   -0.4660 N   0  0  0  0  0  0  0  0  0  0  0  0
   -5.4534   -1.1742   -1.3949 O   0  0  0  0  0  0  0  0  0  0  0  0
   -3.1684   -0.6441   -0.8054 C   0  0  0  0  0  0  0  0  0  0  0  0
   -2.7834   -0.9068   -1.9771 O   0  0  0  0  0  0  0  0  0  0  0  0
   -2.2267   -0.2118    0.1864 N   0  0  0  0  0  0  0  0  0  0  0  0
   -0.8005   -0.0445   -0.1112 C   0  0  2  0  0  0  0  0  0  0  0  0
    0.0104    0.0562    1.1952 C   0  0  0  0  0  0  0  0  0  0  0  0
    1.4958    0.0607    0.9327 C   0  0  0  0  0  0  0  0  0  0  0  0
    2.2037    1.2729    0.8676 C   0  0  0  0  0  0  0  0  0  0  0  0
    3.5746    1.2740    0.5924 C   0  0  0  0  0  0  0  0  0  0  0  0
    4.2465    0.0680    0.3747 C   0  0  0  0  0  0  0  0  0  0  0  0
    3.5478   -1.1412    0.4290 C   0  0  0  0  0  0  0  0  0  0  0  0
    2.1767   -1.1468    0.7034 C   0  0  0  0  0  0  0  0  0  0  0  0
   -0.5992    1.1795   -0.9614 C   0  0  0  0  0  0  0  0  0  0  0  0
    0.1886    1.1038   -2.1057 O   0  0  0  0  0  0  0  0  0  0  0  0
   -1.1163    2.2792   -0.6259 O   0  0  0  0  0  0  0  0  0  0  0  0
   -4.8771   -0.5502    0.4992 H   0  0  0  0  0  0  0  0  0  0  0  0
   -5.4946   -2.1606   -1.3054 H   0  0  0  0  0  0  0  0  0  0  0  0
   -2.5816   -0.0054    1.1481 H   0  0  0  0  0  0  0  0  0  0  0  0
   -0.4479   -0.9406   -0.6696 H   0  0  0  0  0  0  0  0  0  0  0  0
   -0.2854    0.9696    1.7580 H   0  0  0  0  0  0  0  0  0  0  0  0
   -0.2367   -0.8126    1.8443 H   0  0  0  0  0  0  0  0  0  0  0  0
    1.6939    2.2153    1.0255 H   0  0  0  0  0  0  0  0  0  0  0  0
    4.1157    2.2102    0.5448 H   0  0  0  0  0  0  0  0  0  0  0  0
    5.3074    0.0707    0.1608 H   0  0  0  0  0  0  0  0  0  0  0  0
    4.0682   -2.0742    0.2554 H   0  0  0  0  0  0  0  0  0  0  0  0
    1.6449   -2.0897    0.7349 H   0  0  0  0  0  0  0  0  0  0  0  0
    0.3473    1.9216   -2.6818 H   0  0  0  0  0  0  0  0  0  0  0  0
  1  2  1  0
  1  3  1  0
  3  4  2  0
  3  5  1  0
  5  6  1  0
  6  7  1  0
  7  8  1  0
  8  9  2  0
  9 10  1  0
 10 11  2  0
 11 12  1  0
 12 13  2  0
  6 14  1  0
 14 15  1  0
 14 16  2  0
 13  8  1  0
  1 17  1  0
  2 18  1  0
  5 19  1  0
  6 20  1  6
  7 21  1  0
  7 22  1  0
  9 23  1  0
 10 24  1  0
 11 25  1  0
 12 26  1  0
 13 27  1  0
 15 28  1  0
M  END
$$$$
