
     RDKit          3D

 66 67  0  0  0  0  0  0  0  0999 V2000
   -3.2399   -0.7674   -1.0317 C   0  0  2  0  0  0  0  0  0  0  0  0
   -2.0326   -0.9562   -0.0879 C   0  0  0  0  0  0  0  0  0  0  0  0
   -0.5461   -1.5563   -0.9773 P   0  0  2  0  0  5  0  0  0  0  0  0
   -0.1490   -0.4385   -2.1866 O   0  0  0  0  0  0  0  0  0  0  0  0
   -0.8551   -2.8877   -1.6239 O   0  0  0  0  0  0  0  0  0  0  0  0
    0.9230   -1.6921    0.1381 C   0  0  1  0  0  0  0  0  0  0  0  0
    0.9766   -0.5302    1.0459 N   0  0  0  0  0  0  0  0  0  0  0  0
    2.6148   -0.0891    1.4636 S   0  0  0  0  0  6  0  0  0  0  0  0
    3.5765   -1.2195    1.2165 O   0  0  0  0  0  0  0  0  0  0  0  0
    2.6555    0.2679    2.9222 O   0  0  0  0  0  0  0  0  0  0  0  0
    3.1349    1.3368    0.5190 C   0  0  0  0  0  0  0  0  0  0  0  0
    3.1834    1.0193   -0.9800 C   0  0  0  0  0  0  0  0  0  0  0  0
    3.5969    2.2360   -1.8195 C   0  0  0  0  0  0  0  0  0  0  0  0
    5.0348    2.6224   -1.5838 C   0  0  0  0  0  0  0  0  0  0  0  0
    5.3542    3.6994   -0.7394 C   0  0  0  0  0  0  0  0  0  0  0  0
    6.6905    4.0380   -0.5048 C   0  0  0  0  0  0  0  0  0  0  0  0
    7.7156    3.3034   -1.1070 C   0  0  0  0  0  0  0  0  0  0  0  0
    7.4063    2.2274   -1.9435 C   0  0  0  0  0  0  0  0  0  0  0  0
    6.0714    1.8851   -2.1806 C   0  0  0  0  0  0  0  0  0  0  0  0
    0.9848   -3.0159    0.9651 C   0  0  0  0  0  0  0  0  0  0  0  0
    1.4310   -4.2201    0.1220 C   0  0  0  0  0  0  0  0  0  0  0  0
   -0.3032   -3.3353    1.7342 C   0  0  0  0  0  0  0  0  0  0  0  0
   -3.0732    0.4100   -1.9563 C   0  0  0  0  0  0  0  0  0  0  0  0
   -3.4228    0.2839   -3.2972 O   0  0  0  0  0  0  0  0  0  0  0  0
   -2.6545    1.5171   -1.5213 O   0  0  0  0  0  0  0  0  0  0  0  0
   -4.5285   -0.6237   -0.2446 C   0  0  0  0  0  0  0  0  0  0  0  0
   -4.6919    0.4114    0.6969 C   0  0  0  0  0  0  0  0  0  0  0  0
   -5.8888    0.5400    1.4190 C   0  0  0  0  0  0  0  0  0  0  0  0
   -6.0381    1.6275    2.4527 C   0  0  0  0  0  0  0  0  0  0  0  0
   -5.5433    1.1851    3.7541 N   0  0  0  0  0  0  0  0  0  0  0  0
   -6.9217   -0.3859    1.2131 C   0  0  0  0  0  0  0  0  0  0  0  0
   -6.7698   -1.4121    0.2789 C   0  0  0  0  0  0  0  0  0  0  0  0
   -5.5832   -1.5308   -0.4485 C   0  0  0  0  0  0  0  0  0  0  0  0
   -3.3087   -1.6800   -1.6648 H   0  0  0  0  0  0  0  0  0  0  0  0
   -1.7889   -0.0061    0.4306 H   0  0  0  0  0  0  0  0  0  0  0  0
   -2.3022   -1.6993    0.6881 H   0  0  0  0  0  0  0  0  0  0  0  0
   -0.6303   -0.7457   -2.9957 H   0  0  0  0  0  0  0  0  0  0  0  0
    1.7999   -1.6684   -0.5456 H   0  0  0  0  0  0  0  0  0  0  0  0
    0.5726    0.3103    0.5742 H   0  0  0  0  0  0  0  0  0  0  0  0
    4.1411    1.6394    0.8773 H   0  0  0  0  0  0  0  0  0  0  0  0
    2.4245    2.1697    0.7077 H   0  0  0  0  0  0  0  0  0  0  0  0
    2.1741    0.7017   -1.3148 H   0  0  0  0  0  0  0  0  0  0  0  0
    3.8847    0.1771   -1.1674 H   0  0  0  0  0  0  0  0  0  0  0  0
    3.4620    1.9893   -2.8952 H   0  0  0  0  0  0  0  0  0  0  0  0
    2.9190    3.0907   -1.6021 H   0  0  0  0  0  0  0  0  0  0  0  0
    4.5702    4.2721   -0.2597 H   0  0  0  0  0  0  0  0  0  0  0  0
    6.9314    4.8684    0.1462 H   0  0  0  0  0  0  0  0  0  0  0  0
    8.7494    3.5663   -0.9236 H   0  0  0  0  0  0  0  0  0  0  0  0
    8.2010    1.6570   -2.4067 H   0  0  0  0  0  0  0  0  0  0  0  0
    5.8446    1.0457   -2.8263 H   0  0  0  0  0  0  0  0  0  0  0  0
    1.7720   -2.8886    1.7386 H   0  0  0  0  0  0  0  0  0  0  0  0
    0.6523   -4.5261   -0.6031 H   0  0  0  0  0  0  0  0  0  0  0  0
    2.3660   -3.9832   -0.4287 H   0  0  0  0  0  0  0  0  0  0  0  0
    1.6383   -5.0871    0.7853 H   0  0  0  0  0  0  0  0  0  0  0  0
   -0.1145   -4.1557    2.4592 H   0  0  0  0  0  0  0  0  0  0  0  0
   -0.6422   -2.4463    2.3067 H   0  0  0  0  0  0  0  0  0  0  0  0
   -1.1068   -3.6699    1.0461 H   0  0  0  0  0  0  0  0  0  0  0  0
   -3.3293    1.0660   -3.9341 H   0  0  0  0  0  0  0  0  0  0  0  0
   -3.8889    1.1167    0.8710 H   0  0  0  0  0  0  0  0  0  0  0  0
   -7.1056    1.9231    2.5483 H   0  0  0  0  0  0  0  0  0  0  0  0
   -5.4780    2.5346    2.1372 H   0  0  0  0  0  0  0  0  0  0  0  0
   -6.0746    0.3317    4.0441 H   0  0  0  0  0  0  0  0  0  0  0  0
   -4.5371    0.9148    3.6581 H   0  0  0  0  0  0  0  0  0  0  0  0
   -7.8440   -0.3130    1.7762 H   0  0  0  0  0  0  0  0  0  0  0  0
   -7.5728   -2.1203    0.1203 H   0  0  0  0  0  0  0  0  0  0  0  0
   -5.4875   -2.3352   -1.1671 H   0  0  0  0  0  0  0  0  0  0  0  0
  1  2  1  0
  2  3  1  0
  3  4  1  6
  3  5  2  0
  3  6  1  0
  6  7  1  0
  7  8  1  0
  8  9  2  0
  8 10  2  0
  8 11  1  0
 11 12  1  0
 12 13  1  0
 13 14  1  0
 14 15  2  0
 15 16  1  0
 16 17  2  0
 17 18  1  0
 18 19  2  0
  6 20  1  0
 20 21  1  0
 20 22  1  0
  1 23  1  0
 23 24  1  0
 23 25  2  0
  1 26  1  0
 26 27  2  0
 27 28  1  0
 28 29  1  0
 29 30  1  0
 28 31  2  0
 31 32  1  0
 32 33  2  0
 19 14  1  0
 33 26  1  0
  1 34  1  6
  2 35  1  0
  2 36  1  0
  4 37  1  0
  6 38  1  6
  7 39  1  0
 11 40  1  0
 11 41  1  0
 12 42  1  0
 12 43  1  0
 13 44  1  0
 13 45  1  0
 15 46  1  0
 16 47  1  0
 17 48  1  0
 18 49  1  0
 19 50  1  0
 20 51  1  0
 21 52  1  0
 21 53  1  0
 21 54  1  0
 22 55  1  0
 22 56  1  0
 22 57  1  0
 24 58  1  0
 27 59  1  0
 29 60  1  0
 29 61  1  0
 30 62  1  0
 30 63  1  0
 31 64  1  0
 32 65  1  0
 33 66  1  0
M  END
$$$$
