
     RDKit          3D

 63 66  0  0  0  0  0  0  0  0999 V2000
   -3.4323    1.6882   -0.2134 C   0  0  1  0  0  0  0  0  0  0  0  0
   -3.2567    0.1657   -1.2177 S   0  0  0  0  0  0  0  0  0  0  0  0
   -4.8824   -0.5349   -0.6594 C   0  0  0  0  0  0  0  0  0  0  0  0
   -4.5801   -1.6524    0.3549 C   0  0  0  0  0  0  0  0  0  0  0  0
   -5.6025   -1.1551   -1.8724 C   0  0  0  0  0  0  0  0  0  0  0  0
   -5.6921    0.6025    0.0434 C   0  0  1  0  0  0  0  0  0  0  0  0
   -4.6815    1.5357    0.4681 N   0  0  0  0  0  0  0  0  0  0  0  0
   -3.9725    1.7474    1.7517 C   0  0  0  0  0  0  0  0  0  0  0  0
   -4.3131    1.7796    2.9628 O   0  0  0  0  0  0  0  0  0  0  0  0
   -2.6732    1.8221    1.0120 C   0  0  1  0  0  0  0  0  0  0  0  0
   -1.8036    0.6845    1.3217 N   0  0  0  0  0  0  0  0  0  0  0  0
   -0.5324    0.5074    0.6833 C   0  0  0  0  0  0  0  0  0  0  0  0
   -0.1222    1.3556   -0.1564 O   0  0  0  0  0  0  0  0  0  0  0  0
    0.2716   -0.7361    0.9609 C   0  0  2  0  0  0  0  0  0  0  0  0
    1.6791   -0.5522    0.5847 N   0  0  0  0  0  0  0  0  0  0  0  0
    2.5501    0.3352    1.3035 C   0  0  0  0  0  0  0  0  0  0  0  0
    2.1665    0.8463    2.3914 O   0  0  0  0  0  0  0  0  0  0  0  0
    3.8708    0.6227    0.8078 N   0  0  0  0  0  0  0  0  0  0  0  0
    4.9511    0.9299    1.7559 C   0  0  0  0  0  0  0  0  0  0  0  0
    6.2957    0.4139    1.2292 C   0  0  0  0  0  0  0  0  0  0  0  0
    6.5684    0.9509   -0.1104 N   0  0  0  0  0  0  0  0  0  0  0  0
    7.9306    1.3505   -0.4840 C   0  0  0  0  0  0  0  0  0  0  0  0
    8.0429    2.8699   -0.5391 C   0  0  0  0  0  0  0  0  0  0  0  0
    5.4931    1.0117   -1.0649 C   0  0  0  0  0  0  0  0  0  0  0  0
    5.7233    1.2456   -2.2826 O   0  0  0  0  0  0  0  0  0  0  0  0
    4.1139    0.8167   -0.5993 C   0  0  0  0  0  0  0  0  0  0  0  0
    3.1603    0.8556   -1.4238 O   0  0  0  0  0  0  0  0  0  0  0  0
   -0.3381   -1.9074    0.2191 C   0  0  0  0  0  0  0  0  0  0  0  0
   -0.3806   -1.9231   -1.1883 C   0  0  0  0  0  0  0  0  0  0  0  0
   -0.9758   -2.9909   -1.8660 C   0  0  0  0  0  0  0  0  0  0  0  0
   -1.5311   -4.0532   -1.1490 C   0  0  0  0  0  0  0  0  0  0  0  0
   -1.4941   -4.0485    0.2475 C   0  0  0  0  0  0  0  0  0  0  0  0
   -0.9048   -2.9802    0.9305 C   0  0  0  0  0  0  0  0  0  0  0  0
   -6.6640    1.3181   -0.8566 C   0  0  0  0  0  0  0  0  0  0  0  0
   -6.2010    2.1894   -1.8391 O   0  0  0  0  0  0  0  0  0  0  0  0
   -7.9005    1.1034   -0.7423 O   0  0  0  0  0  0  0  0  0  0  0  0
   -3.4273    2.6112   -0.8341 H   0  0  0  0  0  0  0  0  0  0  0  0
   -4.0499   -1.2465    1.2414 H   0  0  0  0  0  0  0  0  0  0  0  0
   -3.9375   -2.4328   -0.1046 H   0  0  0  0  0  0  0  0  0  0  0  0
   -5.5215   -2.1321    0.6993 H   0  0  0  0  0  0  0  0  0  0  0  0
   -5.0138   -2.0042   -2.2820 H   0  0  0  0  0  0  0  0  0  0  0  0
   -5.7201   -0.4096   -2.6868 H   0  0  0  0  0  0  0  0  0  0  0  0
   -6.6062   -1.5303   -1.5781 H   0  0  0  0  0  0  0  0  0  0  0  0
   -6.2421    0.2241    0.9342 H   0  0  0  0  0  0  0  0  0  0  0  0
   -2.1688    2.8046    1.1397 H   0  0  0  0  0  0  0  0  0  0  0  0
   -2.0868    0.0043    2.0636 H   0  0  0  0  0  0  0  0  0  0  0  0
    0.2313   -0.9335    2.0552 H   0  0  0  0  0  0  0  0  0  0  0  0
    2.0844   -1.1162   -0.1963 H   0  0  0  0  0  0  0  0  0  0  0  0
    4.7526    0.4514    2.7401 H   0  0  0  0  0  0  0  0  0  0  0  0
    5.0063    2.0301    1.9053 H   0  0  0  0  0  0  0  0  0  0  0  0
    7.0967    0.7060    1.9428 H   0  0  0  0  0  0  0  0  0  0  0  0
    6.2650   -0.6958    1.1752 H   0  0  0  0  0  0  0  0  0  0  0  0
    8.6676    0.9649    0.2538 H   0  0  0  0  0  0  0  0  0  0  0  0
    8.1985    0.9146   -1.4707 H   0  0  0  0  0  0  0  0  0  0  0  0
    9.0843    3.1583   -0.7942 H   0  0  0  0  0  0  0  0  0  0  0  0
    7.7812    3.3056    0.4485 H   0  0  0  0  0  0  0  0  0  0  0  0
    7.3600    3.2813   -1.3117 H   0  0  0  0  0  0  0  0  0  0  0  0
    0.0380   -1.1030   -1.7584 H   0  0  0  0  0  0  0  0  0  0  0  0
   -1.0093   -2.9931   -2.9478 H   0  0  0  0  0  0  0  0  0  0  0  0
   -1.9932   -4.8783   -1.6753 H   0  0  0  0  0  0  0  0  0  0  0  0
   -1.9295   -4.8698    0.8018 H   0  0  0  0  0  0  0  0  0  0  0  0
   -0.8964   -2.9893    2.0132 H   0  0  0  0  0  0  0  0  0  0  0  0
   -6.8465    2.6637   -2.4591 H   0  0  0  0  0  0  0  0  0  0  0  0
  1  2  1  0
  2  3  1  0
  3  4  1  0
  3  5  1  0
  3  6  1  0
  6  7  1  0
  7  8  1  0
  8  9  2  0
  8 10  1  0
 10 11  1  0
 11 12  1  0
 12 13  2  0
 12 14  1  0
 14 15  1  0
 15 16  1  0
 16 17  2  0
 16 18  1  0
 18 19  1  0
 19 20  1  0
 20 21  1  0
 21 22  1  0
 22 23  1  0
 21 24  1  0
 24 25  2  0
 24 26  1  0
 26 27  2  0
 14 28  1  0
 28 29  2  0
 29 30  1  0
 30 31  2  0
 31 32  1  0
 32 33  2  0
  6 34  1  0
 34 35  1  0
 34 36  2  0
  7  1  1  0
 26 18  1  0
 33 28  1  0
 10  1  1  0
  1 37  1  6
  4 38  1  0
  4 39  1  0
  4 40  1  0
  5 41  1  0
  5 42  1  0
  5 43  1  0
  6 44  1  1
 10 45  1  6
 11 46  1  0
 14 47  1  1
 15 48  1  0
 19 49  1  0
 19 50  1  0
 20 51  1  0
 20 52  1  0
 22 53  1  0
 22 54  1  0
 23 55  1  0
 23 56  1  0
 23 57  1  0
 29 58  1  0
 30 59  1  0
 31 60  1  0
 32 61  1  0
 33 62  1  0
 35 63  1  0
M  END
$$$$
