
     RDKit          3D

 52 56  0  0  0  0  0  0  0  0999 V2000
   -1.7618    0.3648   -0.9371 C   0  0  2  0  0  0  0  0  0  0  0  0
   -2.6506    0.8803   -2.0635 C   0  0  0  0  0  0  0  0  0  0  0  0
   -3.9433    1.3382   -1.3608 C   0  0  0  0  0  0  0  0  0  0  0  0
   -3.6902    1.2495    0.1681 C   0  0  1  0  0  0  0  0  0  0  0  0
   -4.2639    2.3619    0.8128 O   0  0  0  0  0  0  0  0  0  0  0  0
   -4.3226    0.0126    0.6920 C   0  0  0  0  0  0  0  0  0  0  0  0
   -4.8381   -0.9917    1.1160 C   0  0  0  0  0  0  0  0  0  0  0  0
   -2.1307    1.2315    0.2761 C   0  0  2  0  0  0  0  0  0  0  0  0
   -1.5993    2.7013    0.1662 C   0  0  0  0  0  0  0  0  0  0  0  0
   -1.5299    0.5608    1.5390 C   0  0  0  0  0  0  0  0  0  0  0  0
    0.0018    0.3928    1.4105 C   0  0  0  0  0  0  0  0  0  0  0  0
    0.4310   -0.3415    0.0988 C   0  0  1  0  0  0  0  0  0  0  0  0
   -0.2376    0.2726   -1.1765 C   0  0  1  0  0  0  0  0  0  0  0  0
    0.0638   -0.6169   -2.3956 C   0  0  0  0  0  0  0  0  0  0  0  0
    1.5654   -0.7127   -2.6492 C   0  0  0  0  0  0  0  0  0  0  0  0
    2.3041   -1.1782   -1.4176 C   0  0  0  0  0  0  0  0  0  0  0  0
    3.3942   -1.9583   -1.5879 C   0  0  0  0  0  0  0  0  0  0  0  0
    4.1971   -2.3274   -0.4292 C   0  0  0  0  0  0  0  0  0  0  0  0
    3.8354   -2.0025    0.8342 C   0  0  0  0  0  0  0  0  0  0  0  0
    2.5219   -1.3766    1.1580 C   0  0  0  0  0  0  0  0  0  0  0  0
    1.9915   -0.5119   -0.0491 C   0  0  2  0  0  0  0  0  0  0  0  0
    2.7264    0.8533   -0.0282 C   0  0  0  0  0  0  0  0  0  0  0  0
    4.8004   -2.5692    1.6345 C   0  0  0  0  0  0  0  0  0  0  0  0
    5.7096   -3.1732    0.8357 N   0  0  0  0  0  0  0  0  0  0  0  0
    5.3150   -3.0090   -0.3981 O   0  0  0  0  0  0  0  0  0  0  0  0
   -2.1077   -0.6796   -0.7393 H   0  0  0  0  0  0  0  0  0  0  0  0
   -2.8642    0.0774   -2.8024 H   0  0  0  0  0  0  0  0  0  0  0  0
   -2.1654    1.7343   -2.5849 H   0  0  0  0  0  0  0  0  0  0  0  0
   -4.1669    2.3866   -1.6583 H   0  0  0  0  0  0  0  0  0  0  0  0
   -4.8054    0.7125   -1.6848 H   0  0  0  0  0  0  0  0  0  0  0  0
   -4.0353    2.2968    1.7776 H   0  0  0  0  0  0  0  0  0  0  0  0
   -5.2897   -1.8734    1.4880 H   0  0  0  0  0  0  0  0  0  0  0  0
   -1.8627    3.2726    1.0814 H   0  0  0  0  0  0  0  0  0  0  0  0
   -0.5011    2.7680    0.0617 H   0  0  0  0  0  0  0  0  0  0  0  0
   -2.0390    3.2375   -0.6997 H   0  0  0  0  0  0  0  0  0  0  0  0
   -1.9669   -0.4481    1.6991 H   0  0  0  0  0  0  0  0  0  0  0  0
   -1.7623    1.1679    2.4406 H   0  0  0  0  0  0  0  0  0  0  0  0
    0.3436   -0.1900    2.2914 H   0  0  0  0  0  0  0  0  0  0  0  0
    0.4817    1.3866    1.4870 H   0  0  0  0  0  0  0  0  0  0  0  0
    0.0142   -1.3717    0.1917 H   0  0  0  0  0  0  0  0  0  0  0  0
    0.1657    1.2813   -1.3918 H   0  0  0  0  0  0  0  0  0  0  0  0
   -0.3502   -1.6384   -2.2412 H   0  0  0  0  0  0  0  0  0  0  0  0
   -0.4128   -0.1894   -3.3038 H   0  0  0  0  0  0  0  0  0  0  0  0
    1.7268   -1.4110   -3.5003 H   0  0  0  0  0  0  0  0  0  0  0  0
    1.9572    0.2822   -2.9521 H   0  0  0  0  0  0  0  0  0  0  0  0
    3.6848   -2.3185   -2.5672 H   0  0  0  0  0  0  0  0  0  0  0  0
    2.6286   -0.7649    2.0796 H   0  0  0  0  0  0  0  0  0  0  0  0
    1.8146   -2.2043    1.3815 H   0  0  0  0  0  0  0  0  0  0  0  0
    2.6521    1.3471    0.9619 H   0  0  0  0  0  0  0  0  0  0  0  0
    2.3301    1.5462   -0.7970 H   0  0  0  0  0  0  0  0  0  0  0  0
    3.8090    0.7107   -0.2352 H   0  0  0  0  0  0  0  0  0  0  0  0
    4.8312   -2.5688    2.7157 H   0  0  0  0  0  0  0  0  0  0  0  0
  1  2  1  0
  2  3  1  0
  3  4  1  0
  4  5  1  0
  4  6  1  1
  6  7  3  0
  4  8  1  0
  8  9  1  6
  8 10  1  0
 10 11  1  0
 11 12  1  0
 12 13  1  0
 13 14  1  0
 14 15  1  0
 15 16  1  0
 16 17  2  0
 17 18  1  0
 18 19  2  0
 19 20  1  0
 20 21  1  0
 21 22  1  6
 19 23  1  0
 23 24  2  0
 24 25  1  0
  8  1  1  0
 21 12  1  0
 13  1  1  0
 21 16  1  0
 25 18  1  0
  1 26  1  1
  2 27  1  0
  2 28  1  0
  3 29  1  0
  3 30  1  0
  5 31  1  0
  7 32  1  0
  9 33  1  0
  9 34  1  0
  9 35  1  0
 10 36  1  0
 10 37  1  0
 11 38  1  0
 11 39  1  0
 12 40  1  1
 13 41  1  6
 14 42  1  0
 14 43  1  0
 15 44  1  0
 15 45  1  0
 17 46  1  0
 20 47  1  0
 20 48  1  0
 22 49  1  0
 22 50  1  0
 22 51  1  0
 23 52  1  0
M  END
$$$$
