
     RDKit          3D

 37 38  0  0  0  0  0  0  0  0999 V2000
   -1.8733   -4.4979   -2.8858 C   0  0  0  0  0  0  0  0  0  0  0  0
   -1.5461   -3.5674   -1.8129 N   0  0  0  0  0  0  0  0  0  0  0  0
   -1.2752   -2.1833   -2.0722 C   0  0  0  0  0  0  0  0  0  0  0  0
   -1.3417   -1.7380   -3.2511 O   0  0  0  0  0  0  0  0  0  0  0  0
   -0.9493   -1.2474   -0.9370 C   0  0  2  0  0  0  0  0  0  0  0  0
   -2.1357   -0.3011   -0.6764 C   0  0  0  0  0  0  0  0  0  0  0  0
   -1.8798    0.5897    0.5173 C   0  0  0  0  0  0  0  0  0  0  0  0
   -1.3639    1.8894    0.3436 C   0  0  0  0  0  0  0  0  0  0  0  0
   -1.1316    2.3806   -0.9005 F   0  0  0  0  0  0  0  0  0  0  0  0
   -1.0639    2.6826    1.4561 C   0  0  0  0  0  0  0  0  0  0  0  0
   -0.5586    3.9293    1.2820 F   0  0  0  0  0  0  0  0  0  0  0  0
   -1.2746    2.1902    2.7469 C   0  0  0  0  0  0  0  0  0  0  0  0
   -0.9791    2.9611    3.8230 F   0  0  0  0  0  0  0  0  0  0  0  0
   -1.7843    0.9017    2.9294 C   0  0  0  0  0  0  0  0  0  0  0  0
   -1.9811    0.4237    4.1833 F   0  0  0  0  0  0  0  0  0  0  0  0
   -2.0830    0.1007    1.8219 C   0  0  0  0  0  0  0  0  0  0  0  0
   -2.5583   -1.1555    2.0202 F   0  0  0  0  0  0  0  0  0  0  0  0
    0.2591   -0.4777   -1.2559 N   0  0  0  0  0  0  0  0  0  0  0  0
    1.2331   -0.1235   -0.2628 C   0  0  0  0  0  0  0  0  0  0  0  0
    1.2128   -0.6792    0.8693 O   0  0  0  0  0  0  0  0  0  0  0  0
    2.2187    0.8751   -0.5627 N   0  0  0  0  0  0  0  0  0  0  0  0
    3.0820    1.4608    0.4199 C   0  0  0  0  0  0  0  0  0  0  0  0
    3.0503    1.1592    1.7375 N   0  0  0  0  0  0  0  0  0  0  0  0
    3.9338    1.8531    2.4525 N   0  0  0  0  0  0  0  0  0  0  0  0
    4.6645    2.7082    1.7054 C   0  0  0  0  0  0  0  0  0  0  0  0
    5.9274    3.7769    2.3770 S   0  0  0  0  0  0  0  0  0  0  0  0
    4.2348    2.6408    0.0790 S   0  0  0  0  0  0  0  0  0  0  0  0
   -2.0453   -5.5118   -2.4668 H   0  0  0  0  0  0  0  0  0  0  0  0
   -1.0337   -4.5467   -3.6109 H   0  0  0  0  0  0  0  0  0  0  0  0
   -2.7953   -4.1634   -3.4063 H   0  0  0  0  0  0  0  0  0  0  0  0
   -1.5140   -3.9263   -0.8321 H   0  0  0  0  0  0  0  0  0  0  0  0
   -0.7761   -1.8589   -0.0246 H   0  0  0  0  0  0  0  0  0  0  0  0
   -3.0544   -0.9011   -0.4936 H   0  0  0  0  0  0  0  0  0  0  0  0
   -2.3358    0.3129   -1.5819 H   0  0  0  0  0  0  0  0  0  0  0  0
    0.3114    0.0041   -2.1822 H   0  0  0  0  0  0  0  0  0  0  0  0
    2.2800    1.2344   -1.5415 H   0  0  0  0  0  0  0  0  0  0  0  0
    6.9259    2.8043    2.1832 H   0  0  0  0  0  0  0  0  0  0  0  0
  1  2  1  0
  2  3  1  0
  3  4  2  0
  3  5  1  0
  5  6  1  0
  6  7  1  0
  7  8  2  0
  8  9  1  0
  8 10  1  0
 10 11  1  0
 10 12  2  0
 12 13  1  0
 12 14  1  0
 14 15  1  0
 14 16  2  0
 16 17  1  0
  5 18  1  0
 18 19  1  0
 19 20  2  0
 19 21  1  0
 21 22  1  0
 22 23  2  0
 23 24  1  0
 24 25  2  0
 25 26  1  0
 25 27  1  0
 16  7  1  0
 27 22  1  0
  1 28  1  0
  1 29  1  0
  1 30  1  0
  2 31  1  0
  5 32  1  1
  6 33  1  0
  6 34  1  0
 18 35  1  0
 21 36  1  0
 26 37  1  0
M  END
$$$$
