
     RDKit          3D

 46 49  0  0  0  0  0  0  0  0999 V2000
   -1.0016    3.1130   -1.2538 C   0  0  0  0  0  0  0  0  0  0  0  0
   -0.9880    1.6891   -0.6854 C   0  0  1  0  0  0  0  0  0  0  0  0
   -1.4532    1.7228    0.6680 O   0  0  0  0  0  0  0  0  0  0  0  0
   -2.5955    0.9468    0.8010 C   0  0  0  0  0  0  0  0  0  0  0  0
   -3.2590    0.8741    1.8683 O   0  0  0  0  0  0  0  0  0  0  0  0
   -2.9715    0.3098   -0.4087 N   0  0  0  0  0  0  0  0  0  0  0  0
   -4.2798   -0.0871   -0.7373 N   0  0  0  0  0  0  0  0  0  0  0  0
   -5.0426   -0.9807    0.0888 C   0  0  0  0  0  0  0  0  0  0  0  0
   -4.4134   -1.8331    1.0142 C   0  0  0  0  0  0  0  0  0  0  0  0
   -5.1737   -2.7089    1.7956 C   0  0  0  0  0  0  0  0  0  0  0  0
   -6.5631   -2.7491    1.6528 C   0  0  0  0  0  0  0  0  0  0  0  0
   -7.1941   -1.9176    0.7239 C   0  0  0  0  0  0  0  0  0  0  0  0
   -6.4371   -1.0406   -0.0594 C   0  0  0  0  0  0  0  0  0  0  0  0
   -2.0345    0.8235   -1.3445 C   0  0  0  0  0  0  0  0  0  0  0  0
   -2.1127    0.6041   -2.5832 O   0  0  0  0  0  0  0  0  0  0  0  0
    0.3964    1.0589   -0.7826 C   0  0  0  0  0  0  0  0  0  0  0  0
    1.1246    0.7096    0.3724 C   0  0  0  0  0  0  0  0  0  0  0  0
    2.3971    0.1411    0.2673 C   0  0  0  0  0  0  0  0  0  0  0  0
    2.9771   -0.0743   -0.9935 C   0  0  0  0  0  0  0  0  0  0  0  0
    4.2448   -0.6572   -1.1383 O   0  0  0  0  0  0  0  0  0  0  0  0
    5.3099   -0.5225   -0.2354 C   0  0  0  0  0  0  0  0  0  0  0  0
    6.2390   -1.5653   -0.1305 C   0  0  0  0  0  0  0  0  0  0  0  0
    7.3228   -1.4614    0.7472 C   0  0  0  0  0  0  0  0  0  0  0  0
    7.4917   -0.3074    1.5173 C   0  0  0  0  0  0  0  0  0  0  0  0
    6.5812    0.7468    1.4048 C   0  0  0  0  0  0  0  0  0  0  0  0
    5.4964    0.6455    0.5281 C   0  0  0  0  0  0  0  0  0  0  0  0
    2.2551    0.2572   -2.1429 C   0  0  0  0  0  0  0  0  0  0  0  0
    0.9828    0.8260   -2.0421 C   0  0  0  0  0  0  0  0  0  0  0  0
   -0.2585    3.7418   -0.7186 H   0  0  0  0  0  0  0  0  0  0  0  0
   -2.0063    3.5695   -1.1218 H   0  0  0  0  0  0  0  0  0  0  0  0
   -0.7564    3.1130   -2.3370 H   0  0  0  0  0  0  0  0  0  0  0  0
   -4.6954    0.2440   -1.6376 H   0  0  0  0  0  0  0  0  0  0  0  0
   -3.3367   -1.8324    1.1233 H   0  0  0  0  0  0  0  0  0  0  0  0
   -4.6847   -3.3610    2.5078 H   0  0  0  0  0  0  0  0  0  0  0  0
   -7.1499   -3.4284    2.2575 H   0  0  0  0  0  0  0  0  0  0  0  0
   -8.2698   -1.9536    0.6095 H   0  0  0  0  0  0  0  0  0  0  0  0
   -6.9372   -0.4021   -0.7768 H   0  0  0  0  0  0  0  0  0  0  0  0
    0.7149    0.8674    1.3613 H   0  0  0  0  0  0  0  0  0  0  0  0
    2.9199   -0.1462    1.1700 H   0  0  0  0  0  0  0  0  0  0  0  0
    6.1159   -2.4613   -0.7256 H   0  0  0  0  0  0  0  0  0  0  0  0
    8.0324   -2.2746    0.8290 H   0  0  0  0  0  0  0  0  0  0  0  0
    8.3317   -0.2272    2.1951 H   0  0  0  0  0  0  0  0  0  0  0  0
    6.7200    1.6457    1.9916 H   0  0  0  0  0  0  0  0  0  0  0  0
    4.8175    1.4825    0.4319 H   0  0  0  0  0  0  0  0  0  0  0  0
    2.6866    0.0823   -3.1203 H   0  0  0  0  0  0  0  0  0  0  0  0
    0.4569    1.0851   -2.9515 H   0  0  0  0  0  0  0  0  0  0  0  0
  2  1  1  6
  2  3  1  0
  3  4  1  0
  4  5  2  0
  4  6  1  0
  6  7  1  0
  7  8  1  0
  8  9  2  0
  9 10  1  0
 10 11  2  0
 11 12  1  0
 12 13  2  0
  6 14  1  0
 14 15  2  0
  2 16  1  0
 16 17  2  0
 17 18  1  0
 18 19  2  0
 19 20  1  0
 20 21  1  0
 21 22  2  0
 22 23  1  0
 23 24  2  0
 24 25  1  0
 25 26  2  0
 19 27  1  0
 27 28  2  0
 14  2  1  0
 28 16  1  0
 13  8  1  0
 26 21  1  0
  1 29  1  0
  1 30  1  0
  1 31  1  0
  7 32  1  0
  9 33  1  0
 10 34  1  0
 11 35  1  0
 12 36  1  0
 13 37  1  0
 17 38  1  0
 18 39  1  0
 22 40  1  0
 23 41  1  0
 24 42  1  0
 25 43  1  0
 26 44  1  0
 27 45  1  0
 28 46  1  0
M  END
$$$$
