
     RDKit          3D

 38 39  0  0  0  0  0  0  0  0999 V2000
    5.8668    1.6396    0.8626 C   0  0  0  0  0  0  0  0  0  0  0  0
    4.5478    1.2787    0.4714 O   0  0  0  0  0  0  0  0  0  0  0  0
    4.0943   -0.0448    0.4751 C   0  0  0  0  0  0  0  0  0  0  0  0
    4.8649   -0.9733    0.8435 O   0  0  0  0  0  0  0  0  0  0  0  0
    2.6996   -0.3468    0.0649 C   0  0  0  0  0  0  0  0  0  0  0  0
    2.3710   -1.5251   -0.6581 C   0  0  0  0  0  0  0  0  0  0  0  0
    3.4197   -2.5193   -1.0874 C   0  0  0  0  0  0  0  0  0  0  0  0
    1.0306   -1.7810   -0.9920 C   0  0  0  0  0  0  0  0  0  0  0  0
    0.0175   -0.8860   -0.6472 C   0  0  0  0  0  0  0  0  0  0  0  0
   -1.3013   -1.1929   -1.0177 O   0  0  0  0  0  0  0  0  0  0  0  0
   -2.4371   -0.5340   -0.5313 C   0  0  0  0  0  0  0  0  0  0  0  0
   -2.7595   -0.5252    0.8436 C   0  0  0  0  0  0  0  0  0  0  0  0
   -1.9943   -1.2343    1.7711 O   0  0  0  0  0  0  0  0  0  0  0  0
   -3.8835    0.1937    1.2880 C   0  0  0  0  0  0  0  0  0  0  0  0
   -4.2136    0.2496    2.6420 O   0  0  0  0  0  0  0  0  0  0  0  0
   -4.6956    0.8623    0.3664 C   0  0  0  0  0  0  0  0  0  0  0  0
   -4.4111    0.8064   -1.0047 C   0  0  0  0  0  0  0  0  0  0  0  0
   -5.2709    1.5477   -1.9854 C   0  0  0  0  0  0  0  0  0  0  0  0
   -3.2745    0.1150   -1.4450 C   0  0  0  0  0  0  0  0  0  0  0  0
    0.3465    0.2939    0.0356 C   0  0  0  0  0  0  0  0  0  0  0  0
    1.6719    0.5622    0.3983 C   0  0  0  0  0  0  0  0  0  0  0  0
    1.9635    1.7278    1.1084 O   0  0  0  0  0  0  0  0  0  0  0  0
    6.6086    1.1429    0.2020 H   0  0  0  0  0  0  0  0  0  0  0  0
    6.0450    1.3426    1.9179 H   0  0  0  0  0  0  0  0  0  0  0  0
    5.9853    2.7390    0.7738 H   0  0  0  0  0  0  0  0  0  0  0  0
    3.0269   -3.2211   -1.8539 H   0  0  0  0  0  0  0  0  0  0  0  0
    3.7527   -3.1139   -0.2114 H   0  0  0  0  0  0  0  0  0  0  0  0
    4.2882   -1.9937   -1.5374 H   0  0  0  0  0  0  0  0  0  0  0  0
    0.7659   -2.6833   -1.5303 H   0  0  0  0  0  0  0  0  0  0  0  0
   -1.2297   -1.8392    1.5003 H   0  0  0  0  0  0  0  0  0  0  0  0
   -3.6598   -0.2144    3.3519 H   0  0  0  0  0  0  0  0  0  0  0  0
   -5.5557    1.4174    0.7211 H   0  0  0  0  0  0  0  0  0  0  0  0
   -5.2679    1.0382   -2.9726 H   0  0  0  0  0  0  0  0  0  0  0  0
   -6.3216    1.5955   -1.6278 H   0  0  0  0  0  0  0  0  0  0  0  0
   -4.8831    2.5803   -2.1095 H   0  0  0  0  0  0  0  0  0  0  0  0
   -3.0256    0.0945   -2.4992 H   0  0  0  0  0  0  0  0  0  0  0  0
   -0.4238    1.0096    0.2909 H   0  0  0  0  0  0  0  0  0  0  0  0
    1.2417    2.3915    1.3642 H   0  0  0  0  0  0  0  0  0  0  0  0
  1  2  1  0
  2  3  1  0
  3  4  2  0
  3  5  1  0
  5  6  2  0
  6  7  1  0
  6  8  1  0
  8  9  2  0
  9 10  1  0
 10 11  1  0
 11 12  2  0
 12 13  1  0
 12 14  1  0
 14 15  1  0
 14 16  2  0
 16 17  1  0
 17 18  1  0
 17 19  2  0
  9 20  1  0
 20 21  2  0
 21 22  1  0
 21  5  1  0
 19 11  1  0
  1 23  1  0
  1 24  1  0
  1 25  1  0
  7 26  1  0
  7 27  1  0
  7 28  1  0
  8 29  1  0
 13 30  1  0
 15 31  1  0
 16 32  1  0
 18 33  1  0
 18 34  1  0
 18 35  1  0
 19 36  1  0
 20 37  1  0
 22 38  1  0
M  END
$$$$
