
     RDKit          3D

137140  0  0  0  0  0  0  0  0999 V2000
    1.4024    2.3467    4.1933 N   0  0  0  0  0  0  0  0  0  0  0  0
    2.2988    1.2342    3.8957 C   0  0  0  0  0  0  0  0  0  0  0  0
    3.6818    1.7607    3.5017 C   0  0  0  0  0  0  0  0  0  0  0  0
    4.6226    0.6090    3.1121 C   0  0  0  0  0  0  0  0  0  0  0  0
    6.0354    1.1036    2.7488 C   0  0  0  0  0  0  0  0  0  0  0  0
    6.1344    1.6471    1.3062 C   0  0  2  0  0  0  0  0  0  0  0  0
    5.9938    0.5666    0.3240 N   0  0  0  0  0  0  0  0  0  0  0  0
    5.7541    0.8321   -1.0664 C   0  0  0  0  0  0  0  0  0  0  0  0
    5.4965    2.0069   -1.4494 O   0  0  0  0  0  0  0  0  0  0  0  0
    5.7542   -0.2983   -2.0656 C   0  0  2  0  0  0  0  0  0  0  0  0
    6.4491    0.0942   -3.3717 C   0  0  0  0  0  0  0  0  0  0  0  0
    5.3259    0.4728   -4.3324 C   0  0  0  0  0  0  0  0  0  0  0  0
    4.0861   -0.2496   -3.8194 C   0  0  0  0  0  0  0  0  0  0  0  0
    4.3864   -0.6259   -2.4459 N   0  0  0  0  0  0  0  0  0  0  0  0
    3.4901   -1.3629   -1.5897 C   0  0  0  0  0  0  0  0  0  0  0  0
    3.9026   -1.7616   -0.4657 O   0  0  0  0  0  0  0  0  0  0  0  0
    2.0478   -1.6175   -1.9803 C   0  0  2  0  0  0  0  0  0  0  0  0
    1.1363   -0.4420   -1.5895 C   0  0  0  0  0  0  0  0  0  0  0  0
    1.1961   -0.0887    0.2087 S   0  0  0  0  0  0  0  0  0  0  0  0
    2.5142    1.5814   -0.0053 S   0  0  0  0  0  0  0  0  0  0  0  0
    1.2567    2.8445    0.3910 C   0  0  0  0  0  0  0  0  0  0  0  0
    0.1798    2.9715   -0.7002 C   0  0  2  0  0  0  0  0  0  0  0  0
    0.7993    3.2925   -1.9891 N   0  0  0  0  0  0  0  0  0  0  0  0
   -0.8288    4.0358   -0.3131 C   0  0  0  0  0  0  0  0  0  0  0  0
   -0.4447    5.2365   -0.2721 O   0  0  0  0  0  0  0  0  0  0  0  0
   -2.2013    3.7473    0.0188 N   0  0  0  0  0  0  0  0  0  0  0  0
   -2.7879    2.4073    0.1969 C   0  0  1  0  0  0  0  0  0  0  0  0
   -2.3645    1.7908    1.5485 C   0  0  0  0  0  0  0  0  0  0  0  0
   -2.7072    2.6624    2.7332 C   0  0  0  0  0  0  0  0  0  0  0  0
   -1.8206    3.6664    3.1589 C   0  0  0  0  0  0  0  0  0  0  0  0
   -2.1457    4.4794    4.2485 C   0  0  0  0  0  0  0  0  0  0  0  0
   -3.3584    4.3000    4.9190 C   0  0  0  0  0  0  0  0  0  0  0  0
   -4.2475    3.3064    4.5012 C   0  0  0  0  0  0  0  0  0  0  0  0
   -3.9249    2.4897    3.4134 C   0  0  0  0  0  0  0  0  0  0  0  0
   -4.2963    2.4641    0.0654 C   0  0  0  0  0  0  0  0  0  0  0  0
   -4.9343    3.4215    0.5818 O   0  0  0  0  0  0  0  0  0  0  0  0
   -5.0241    1.4658   -0.6650 N   0  0  0  0  0  0  0  0  0  0  0  0
   -4.7861    0.0231   -0.5097 C   0  0  1  0  0  0  0  0  0  0  0  0
   -5.6271   -0.5378    0.6605 C   0  0  0  0  0  0  0  0  0  0  0  0
   -7.0939   -0.1914    0.5663 C   0  0  0  0  0  0  0  0  0  0  0  0
   -7.9729   -1.0041   -0.1693 C   0  0  0  0  0  0  0  0  0  0  0  0
   -9.3264   -0.6682   -0.2698 C   0  0  0  0  0  0  0  0  0  0  0  0
   -9.8122    0.4799    0.3614 C   0  0  0  0  0  0  0  0  0  0  0  0
   -8.9452    1.2943    1.0945 C   0  0  0  0  0  0  0  0  0  0  0  0
   -7.5912    0.9619    1.1979 C   0  0  0  0  0  0  0  0  0  0  0  0
   -5.0674   -0.7037   -1.8079 C   0  0  0  0  0  0  0  0  0  0  0  0
   -5.9687   -0.2706   -2.5763 O   0  0  0  0  0  0  0  0  0  0  0  0
   -4.3234   -1.8686   -2.2078 N   0  0  0  0  0  0  0  0  0  0  0  0
   -3.7990   -2.8702   -1.2691 C   0  0  1  0  0  0  0  0  0  0  0  0
   -4.8451   -3.9865   -1.0853 C   0  0  0  0  0  0  0  0  0  0  0  0
   -4.5134   -4.9200    0.0863 C   0  0  0  0  0  0  0  0  0  0  0  0
   -5.6119   -5.9195    0.2847 C   0  0  0  0  0  0  0  0  0  0  0  0
   -5.6444   -7.1189   -0.4884 N   0  0  0  0  0  0  0  0  0  0  0  0
   -6.5343   -5.6819    1.1095 O   0  0  0  0  0  0  0  0  0  0  0  0
   -2.4975   -3.4401   -1.7796 C   0  0  0  0  0  0  0  0  0  0  0  0
   -2.3178   -3.5786   -3.0200 O   0  0  0  0  0  0  0  0  0  0  0  0
   -1.4980   -3.8866   -0.8456 N   0  0  0  0  0  0  0  0  0  0  0  0
   -0.2785   -4.6130   -1.2163 C   0  0  1  0  0  0  0  0  0  0  0  0
   -0.6162   -5.9470   -1.9139 C   0  0  0  0  0  0  0  0  0  0  0  0
    0.6021   -6.8126   -2.0564 C   0  0  0  0  0  0  0  0  0  0  0  0
    1.0724   -7.5844   -0.9516 N   0  0  0  0  0  0  0  0  0  0  0  0
    1.2332   -6.8336   -3.1467 O   0  0  0  0  0  0  0  0  0  0  0  0
    0.6241   -3.7202   -2.0310 C   0  0  0  0  0  0  0  0  0  0  0  0
    0.5214   -3.6907   -3.2880 O   0  0  0  0  0  0  0  0  0  0  0  0
    1.5511   -2.8523   -1.3628 N   0  0  0  0  0  0  0  0  0  0  0  0
    7.4585    2.3309    1.0927 C   0  0  0  0  0  0  0  0  0  0  0  0
    8.5290    1.7109    1.3412 O   0  0  0  0  0  0  0  0  0  0  0  0
    7.5050    3.6579    0.5489 N   0  0  0  0  0  0  0  0  0  0  0  0
    8.7494    4.2693    0.0913 C   0  0  0  0  0  0  0  0  0  0  0  0
    9.2340    3.5854   -1.1509 C   0  0  0  0  0  0  0  0  0  0  0  0
    8.4470    3.6107   -2.3413 N   0  0  0  0  0  0  0  0  0  0  0  0
   10.3369    2.9766   -1.1433 O   0  0  0  0  0  0  0  0  0  0  0  0
    1.7114    2.7855    5.0911 H   0  0  0  0  0  0  0  0  0  0  0  0
    0.4505    1.9504    4.3680 H   0  0  0  0  0  0  0  0  0  0  0  0
    1.8747    0.6426    3.0562 H   0  0  0  0  0  0  0  0  0  0  0  0
    2.3838    0.5700    4.7850 H   0  0  0  0  0  0  0  0  0  0  0  0
    4.1148    2.3171    4.3617 H   0  0  0  0  0  0  0  0  0  0  0  0
    3.5696    2.4672    2.6534 H   0  0  0  0  0  0  0  0  0  0  0  0
    4.7104   -0.0811    3.9797 H   0  0  0  0  0  0  0  0  0  0  0  0
    4.1883    0.0292    2.2686 H   0  0  0  0  0  0  0  0  0  0  0  0
    6.7487    0.2582    2.8684 H   0  0  0  0  0  0  0  0  0  0  0  0
    6.3467    1.8904    3.4716 H   0  0  0  0  0  0  0  0  0  0  0  0
    5.3183    2.3844    1.1547 H   0  0  0  0  0  0  0  0  0  0  0  0
    6.1407   -0.4237    0.6248 H   0  0  0  0  0  0  0  0  0  0  0  0
    6.2598   -1.1927   -1.6386 H   0  0  0  0  0  0  0  0  0  0  0  0
    7.1795    0.9240   -3.2471 H   0  0  0  0  0  0  0  0  0  0  0  0
    6.9892   -0.7892   -3.7786 H   0  0  0  0  0  0  0  0  0  0  0  0
    5.1611    1.5721   -4.2942 H   0  0  0  0  0  0  0  0  0  0  0  0
    5.5680    0.1757   -5.3759 H   0  0  0  0  0  0  0  0  0  0  0  0
    3.9011   -1.1625   -4.4259 H   0  0  0  0  0  0  0  0  0  0  0  0
    3.2017    0.4215   -3.8564 H   0  0  0  0  0  0  0  0  0  0  0  0
    2.0024   -1.7254   -3.0835 H   0  0  0  0  0  0  0  0  0  0  0  0
    1.3977    0.4553   -2.1878 H   0  0  0  0  0  0  0  0  0  0  0  0
    0.0873   -0.6996   -1.8493 H   0  0  0  0  0  0  0  0  0  0  0  0
    0.7966    2.5913    1.3666 H   0  0  0  0  0  0  0  0  0  0  0  0
    1.7826    3.8154    0.5146 H   0  0  0  0  0  0  0  0  0  0  0  0
   -0.3180    1.9941   -0.8069 H   0  0  0  0  0  0  0  0  0  0  0  0
    0.0489    3.3558   -2.7154 H   0  0  0  0  0  0  0  0  0  0  0  0
    1.2677    4.2267   -1.9358 H   0  0  0  0  0  0  0  0  0  0  0  0
   -2.7943    4.5804    0.2368 H   0  0  0  0  0  0  0  0  0  0  0  0
   -2.4353    1.7519   -0.6238 H   0  0  0  0  0  0  0  0  0  0  0  0
   -2.8377    0.7942    1.6740 H   0  0  0  0  0  0  0  0  0  0  0  0
   -1.2737    1.5965    1.5382 H   0  0  0  0  0  0  0  0  0  0  0  0
   -0.8787    3.8203    2.6497 H   0  0  0  0  0  0  0  0  0  0  0  0
   -1.4576    5.2495    4.5723 H   0  0  0  0  0  0  0  0  0  0  0  0
   -3.6092    4.9312    5.7617 H   0  0  0  0  0  0  0  0  0  0  0  0
   -5.1874    3.1691    5.0200 H   0  0  0  0  0  0  0  0  0  0  0  0
   -4.6249    1.7262    3.1007 H   0  0  0  0  0  0  0  0  0  0  0  0
   -5.9459    1.7661   -1.0567 H   0  0  0  0  0  0  0  0  0  0  0  0
   -3.7166   -0.1422   -0.2731 H   0  0  0  0  0  0  0  0  0  0  0  0
   -5.5172   -1.6397    0.7268 H   0  0  0  0  0  0  0  0  0  0  0  0
   -5.2171   -0.1396    1.6130 H   0  0  0  0  0  0  0  0  0  0  0  0
   -7.6116   -1.8943   -0.6665 H   0  0  0  0  0  0  0  0  0  0  0  0
   -9.9986   -1.2977   -0.8385 H   0  0  0  0  0  0  0  0  0  0  0  0
  -10.8601    0.7389    0.2817 H   0  0  0  0  0  0  0  0  0  0  0  0
   -9.3219    2.1843    1.5817 H   0  0  0  0  0  0  0  0  0  0  0  0
   -6.9304    1.6048    1.7658 H   0  0  0  0  0  0  0  0  0  0  0  0
   -4.4324   -2.1623   -3.2057 H   0  0  0  0  0  0  0  0  0  0  0  0
   -3.5943   -2.3978   -0.2881 H   0  0  0  0  0  0  0  0  0  0  0  0
   -5.8347   -3.5194   -0.8927 H   0  0  0  0  0  0  0  0  0  0  0  0
   -4.9324   -4.5780   -2.0241 H   0  0  0  0  0  0  0  0  0  0  0  0
   -4.3826   -4.3264    1.0175 H   0  0  0  0  0  0  0  0  0  0  0  0
   -3.5668   -5.4646   -0.1128 H   0  0  0  0  0  0  0  0  0  0  0  0
   -6.4181   -7.8081   -0.3599 H   0  0  0  0  0  0  0  0  0  0  0  0
   -4.8998   -7.3181   -1.1929 H   0  0  0  0  0  0  0  0  0  0  0  0
   -1.6571   -3.7042    0.1713 H   0  0  0  0  0  0  0  0  0  0  0  0
    0.2585   -4.8674   -0.2747 H   0  0  0  0  0  0  0  0  0  0  0  0
   -1.3706   -6.4943   -1.3082 H   0  0  0  0  0  0  0  0  0  0  0  0
   -1.0637   -5.7737   -2.9153 H   0  0  0  0  0  0  0  0  0  0  0  0
    0.5702   -7.5643   -0.0364 H   0  0  0  0  0  0  0  0  0  0  0  0
    1.9279   -8.1751   -1.0474 H   0  0  0  0  0  0  0  0  0  0  0  0
    1.6696   -2.9727   -0.3310 H   0  0  0  0  0  0  0  0  0  0  0  0
    6.6158    4.1930    0.4256 H   0  0  0  0  0  0  0  0  0  0  0  0
    9.5141    4.2171    0.8967 H   0  0  0  0  0  0  0  0  0  0  0  0
    8.5715    5.3412   -0.1402 H   0  0  0  0  0  0  0  0  0  0  0  0
    7.5274    4.1050   -2.3604 H   0  0  0  0  0  0  0  0  0  0  0  0
    8.7803    3.1270   -3.2045 H   0  0  0  0  0  0  0  0  0  0  0  0
  1  2  1  0
  2  3  1  0
  3  4  1  0
  4  5  1  0
  5  6  1  0
  6  7  1  0
  7  8  1  0
  8  9  2  0
  8 10  1  0
 10 11  1  0
 11 12  1  0
 12 13  1  0
 13 14  1  0
 14 15  1  0
 15 16  2  0
 15 17  1  0
 17 18  1  0
 18 19  1  0
 19 20  1  0
 20 21  1  0
 21 22  1  0
 22 23  1  0
 22 24  1  0
 24 25  2  0
 24 26  1  0
 26 27  1  0
 27 28  1  0
 28 29  1  0
 29 30  2  0
 30 31  1  0
 31 32  2  0
 32 33  1  0
 33 34  2  0
 27 35  1  0
 35 36  2  0
 35 37  1  0
 37 38  1  0
 38 39  1  0
 39 40  1  0
 40 41  2  0
 41 42  1  0
 42 43  2  0
 43 44  1  0
 44 45  2  0
 38 46  1  0
 46 47  2  0
 46 48  1  0
 48 49  1  0
 49 50  1  0
 50 51  1  0
 51 52  1  0
 52 53  1  0
 52 54  2  0
 49 55  1  0
 55 56  2  0
 55 57  1  0
 57 58  1  0
 58 59  1  0
 59 60  1  0
 60 61  1  0
 60 62  2  0
 58 63  1  0
 63 64  2  0
 63 65  1  0
  6 66  1  0
 66 67  2  0
 66 68  1  0
 68 69  1  0
 69 70  1  0
 70 71  1  0
 70 72  2  0
 14 10  1  0
 65 17  1  0
 34 29  1  0
 45 40  1  0
  1 73  1  0
  1 74  1  0
  2 75  1  0
  2 76  1  0
  3 77  1  0
  3 78  1  0
  4 79  1  0
  4 80  1  0
  5 81  1  0
  5 82  1  0
  6 83  1  6
  7 84  1  0
 10 85  1  1
 11 86  1  0
 11 87  1  0
 12 88  1  0
 12 89  1  0
 13 90  1  0
 13 91  1  0
 17 92  1  6
 18 93  1  0
 18 94  1  0
 21 95  1  0
 21 96  1  0
 22 97  1  6
 23 98  1  0
 23 99  1  0
 26100  1  0
 27101  1  6
 28102  1  0
 28103  1  0
 30104  1  0
 31105  1  0
 32106  1  0
 33107  1  0
 34108  1  0
 37109  1  0
 38110  1  1
 39111  1  0
 39112  1  0
 41113  1  0
 42114  1  0
 43115  1  0
 44116  1  0
 45117  1  0
 48118  1  0
 49119  1  1
 50120  1  0
 50121  1  0
 51122  1  0
 51123  1  0
 53124  1  0
 53125  1  0
 57126  1  0
 58127  1  1
 59128  1  0
 59129  1  0
 61130  1  0
 61131  1  0
 65132  1  0
 68133  1  0
 69134  1  0
 69135  1  0
 71136  1  0
 71137  1  0
M  END
$$$$
