
     RDKit          3D

 55 56  0  0  0  0  0  0  0  0999 V2000
   -1.8703   -1.2223   -1.5883 C   0  0  1  0  0  0  0  0  0  0  0  0
   -2.8078   -2.3520   -1.6143 N   0  0  0  0  0  0  0  0  0  0  0  0
   -0.6822   -1.5363   -0.6419 C   0  0  0  0  0  0  0  0  0  0  0  0
   -1.1188   -1.9023    0.7567 C   0  0  0  0  0  0  0  0  0  0  0  0
   -0.8397   -3.1771    1.2790 C   0  0  0  0  0  0  0  0  0  0  0  0
   -1.2222   -3.5039    2.5838 C   0  0  0  0  0  0  0  0  0  0  0  0
   -1.8852   -2.5633    3.3763 C   0  0  0  0  0  0  0  0  0  0  0  0
   -2.1698   -1.2951    2.8643 C   0  0  0  0  0  0  0  0  0  0  0  0
   -1.7892   -0.9648    1.5608 C   0  0  0  0  0  0  0  0  0  0  0  0
   -1.3995   -0.9143   -3.0386 C   0  0  2  0  0  0  0  0  0  0  0  0
   -0.7781   -2.0519   -3.5817 O   0  0  0  0  0  0  0  0  0  0  0  0
   -0.4455    0.2910   -3.1385 C   0  0  0  0  0  0  0  0  0  0  0  0
   -1.0776    1.4986   -2.5958 N   0  0  0  0  0  0  0  0  0  0  0  0
    0.1396    2.6638   -2.1681 S   0  0  0  0  0  6  0  0  0  0  0  0
   -0.5016    4.0104   -1.9848 O   0  0  0  0  0  0  0  0  0  0  0  0
    1.1172    2.7816   -3.3031 O   0  0  0  0  0  0  0  0  0  0  0  0
    0.8767    2.1333   -0.6196 C   0  0  0  0  0  0  0  0  0  0  0  0
    0.0676    2.1288    0.5466 C   0  0  0  0  0  0  0  0  0  0  0  0
   -1.3073    2.7542    0.5749 C   0  0  0  0  0  0  0  0  0  0  0  0
    0.5414    1.5425    1.7240 C   0  0  0  0  0  0  0  0  0  0  0  0
    1.7828    0.9008    1.7696 C   0  0  0  0  0  0  0  0  0  0  0  0
    2.2263    0.2555    2.9383 O   0  0  0  0  0  0  0  0  0  0  0  0
    1.4673    0.1227    4.1361 C   0  0  0  0  0  0  0  0  0  0  0  0
    2.6074    0.9005    0.6286 C   0  0  0  0  0  0  0  0  0  0  0  0
    3.9357    0.1759    0.6868 C   0  0  0  0  0  0  0  0  0  0  0  0
    2.1934    1.5872   -0.5488 C   0  0  0  0  0  0  0  0  0  0  0  0
    3.1473    1.7295   -1.7158 C   0  0  0  0  0  0  0  0  0  0  0  0
   -2.4065   -0.3261   -1.2017 H   0  0  0  0  0  0  0  0  0  0  0  0
   -3.5829   -2.1298   -2.2808 H   0  0  0  0  0  0  0  0  0  0  0  0
   -3.2689   -2.4305   -0.6792 H   0  0  0  0  0  0  0  0  0  0  0  0
   -0.0670   -2.3529   -1.0786 H   0  0  0  0  0  0  0  0  0  0  0  0
   -0.0259   -0.6484   -0.5513 H   0  0  0  0  0  0  0  0  0  0  0  0
   -0.3237   -3.9168    0.6798 H   0  0  0  0  0  0  0  0  0  0  0  0
   -1.0026   -4.4863    2.9813 H   0  0  0  0  0  0  0  0  0  0  0  0
   -2.1785   -2.8173    4.3867 H   0  0  0  0  0  0  0  0  0  0  0  0
   -2.6828   -0.5664    3.4785 H   0  0  0  0  0  0  0  0  0  0  0  0
   -2.0182    0.0198    1.1789 H   0  0  0  0  0  0  0  0  0  0  0  0
   -2.3066   -0.6701   -3.6412 H   0  0  0  0  0  0  0  0  0  0  0  0
   -0.7907   -1.9456   -4.5690 H   0  0  0  0  0  0  0  0  0  0  0  0
   -0.1816    0.4578   -4.2073 H   0  0  0  0  0  0  0  0  0  0  0  0
    0.5014    0.0527   -2.6097 H   0  0  0  0  0  0  0  0  0  0  0  0
   -1.6718    1.9244   -3.3441 H   0  0  0  0  0  0  0  0  0  0  0  0
   -1.2228    3.8529    0.4479 H   0  0  0  0  0  0  0  0  0  0  0  0
   -1.8272    2.5726    1.5397 H   0  0  0  0  0  0  0  0  0  0  0  0
   -1.9485    2.3266   -0.2219 H   0  0  0  0  0  0  0  0  0  0  0  0
   -0.0853    1.5577    2.6053 H   0  0  0  0  0  0  0  0  0  0  0  0
    2.0582   -0.4542    4.8766 H   0  0  0  0  0  0  0  0  0  0  0  0
    0.5240   -0.4258    3.9313 H   0  0  0  0  0  0  0  0  0  0  0  0
    1.2462    1.1238    4.5623 H   0  0  0  0  0  0  0  0  0  0  0  0
    4.0817   -0.4331   -0.2302 H   0  0  0  0  0  0  0  0  0  0  0  0
    4.7601    0.9127    0.7867 H   0  0  0  0  0  0  0  0  0  0  0  0
    3.9999   -0.5335    1.5370 H   0  0  0  0  0  0  0  0  0  0  0  0
    2.8440    1.0518   -2.5406 H   0  0  0  0  0  0  0  0  0  0  0  0
    4.1999    1.5064   -1.4586 H   0  0  0  0  0  0  0  0  0  0  0  0
    3.1686    2.7848   -2.0559 H   0  0  0  0  0  0  0  0  0  0  0  0
  1  2  1  0
  1  3  1  0
  3  4  1  0
  4  5  2  0
  5  6  1  0
  6  7  2  0
  7  8  1  0
  8  9  2  0
  1 10  1  0
 10 11  1  0
 10 12  1  0
 12 13  1  0
 13 14  1  0
 14 15  2  0
 14 16  2  0
 14 17  1  0
 17 18  2  0
 18 19  1  0
 18 20  1  0
 20 21  2  0
 21 22  1  0
 22 23  1  0
 21 24  1  0
 24 25  1  0
 24 26  2  0
 26 27  1  0
  9  4  1  0
 26 17  1  0
  1 28  1  1
  2 29  1  0
  2 30  1  0
  3 31  1  0
  3 32  1  0
  5 33  1  0
  6 34  1  0
  7 35  1  0
  8 36  1  0
  9 37  1  0
 10 38  1  6
 11 39  1  0
 12 40  1  0
 12 41  1  0
 13 42  1  0
 19 43  1  0
 19 44  1  0
 19 45  1  0
 20 46  1  0
 23 47  1  0
 23 48  1  0
 23 49  1  0
 25 50  1  0
 25 51  1  0
 25 52  1  0
 27 53  1  0
 27 54  1  0
 27 55  1  0
M  END
$$$$
