
     RDKit          3D

 40 41  0  0  0  0  0  0  0  0999 V2000
   -1.0970   -1.3279   -1.8125 C   0  0  1  0  0  0  0  0  0  0  0  0
   -0.9149   -1.4191   -3.2619 N   0  0  0  0  0  0  0  0  0  0  0  0
   -2.3729   -2.1034   -1.4152 C   0  0  0  0  0  0  0  0  0  0  0  0
   -2.6576   -2.1278    0.0982 C   0  0  0  0  0  0  0  0  0  0  0  0
   -2.8199   -0.7473    0.6817 C   0  0  0  0  0  0  0  0  0  0  0  0
   -1.8362   -0.2147    1.5323 C   0  0  0  0  0  0  0  0  0  0  0  0
   -1.9872    1.0682    2.0675 C   0  0  0  0  0  0  0  0  0  0  0  0
   -3.1174    1.8286    1.7561 C   0  0  0  0  0  0  0  0  0  0  0  0
   -4.1006    1.3060    0.9115 C   0  0  0  0  0  0  0  0  0  0  0  0
   -3.9550    0.0223    0.3763 C   0  0  0  0  0  0  0  0  0  0  0  0
    0.1200   -1.9056   -1.1190 C   0  0  0  0  0  0  0  0  0  0  0  0
    1.1891   -1.1943   -0.7187 C   0  0  0  0  0  0  0  0  0  0  0  0
    1.3694    0.5526   -0.9105 S   0  0  0  0  0  6  0  0  0  0  0  0
    0.2539    1.2857   -0.2210 O   0  0  0  0  0  0  0  0  0  0  0  0
    1.3759    0.9217   -2.3672 O   0  0  0  0  0  0  0  0  0  0  0  0
    2.8974    1.0337   -0.1810 C   0  0  0  0  0  0  0  0  0  0  0  0
    4.0639    1.0999   -0.9573 C   0  0  0  0  0  0  0  0  0  0  0  0
    5.2784    1.4680   -0.3694 C   0  0  0  0  0  0  0  0  0  0  0  0
    5.3342    1.7658    0.9953 C   0  0  0  0  0  0  0  0  0  0  0  0
    4.1760    1.6929    1.7746 C   0  0  0  0  0  0  0  0  0  0  0  0
    2.9601    1.3252    1.1896 C   0  0  0  0  0  0  0  0  0  0  0  0
   -1.2441   -0.2636   -1.5332 H   0  0  0  0  0  0  0  0  0  0  0  0
   -0.0560   -0.8876   -3.5302 H   0  0  0  0  0  0  0  0  0  0  0  0
   -1.7133   -0.9279   -3.7265 H   0  0  0  0  0  0  0  0  0  0  0  0
   -3.2470   -1.6552   -1.9366 H   0  0  0  0  0  0  0  0  0  0  0  0
   -2.2882   -3.1538   -1.7716 H   0  0  0  0  0  0  0  0  0  0  0  0
   -3.5954   -2.6987    0.2720 H   0  0  0  0  0  0  0  0  0  0  0  0
   -1.8525   -2.6854    0.6240 H   0  0  0  0  0  0  0  0  0  0  0  0
   -0.9503   -0.7880    1.7759 H   0  0  0  0  0  0  0  0  0  0  0  0
   -1.2245    1.4749    2.7190 H   0  0  0  0  0  0  0  0  0  0  0  0
   -3.2312    2.8226    2.1690 H   0  0  0  0  0  0  0  0  0  0  0  0
   -4.9760    1.8955    0.6717 H   0  0  0  0  0  0  0  0  0  0  0  0
   -4.7249   -0.3717   -0.2753 H   0  0  0  0  0  0  0  0  0  0  0  0
    0.1551   -2.9824   -0.9762 H   0  0  0  0  0  0  0  0  0  0  0  0
    2.0109   -1.7272   -0.2506 H   0  0  0  0  0  0  0  0  0  0  0  0
    4.0351    0.8643   -2.0134 H   0  0  0  0  0  0  0  0  0  0  0  0
    6.1765    1.5201   -0.9712 H   0  0  0  0  0  0  0  0  0  0  0  0
    6.2749    2.0497    1.4492 H   0  0  0  0  0  0  0  0  0  0  0  0
    4.2207    1.9191    2.8321 H   0  0  0  0  0  0  0  0  0  0  0  0
    2.0709    1.2648    1.8044 H   0  0  0  0  0  0  0  0  0  0  0  0
  1  2  1  0
  1  3  1  0
  3  4  1  0
  4  5  1  0
  5  6  2  0
  6  7  1  0
  7  8  2  0
  8  9  1  0
  9 10  2  0
  1 11  1  0
 11 12  2  3
 12 13  1  0
 13 14  2  0
 13 15  2  0
 13 16  1  0
 16 17  2  0
 17 18  1  0
 18 19  2  0
 19 20  1  0
 20 21  2  0
 10  5  1  0
 21 16  1  0
  1 22  1  6
  2 23  1  0
  2 24  1  0
  3 25  1  0
  3 26  1  0
  4 27  1  0
  4 28  1  0
  6 29  1  0
  7 30  1  0
  8 31  1  0
  9 32  1  0
 10 33  1  0
 11 34  1  0
 12 35  1  0
 17 36  1  0
 18 37  1  0
 19 38  1  0
 20 39  1  0
 21 40  1  0
M  END
$$$$
