
     RDKit          3D

 65 68  0  0  0  0  0  0  0  0999 V2000
   -3.2524    3.4794   -0.7109 C   0  0  0  0  0  0  0  0  0  0  0  0
   -4.0784    2.3667   -1.3829 C   0  0  0  0  0  0  0  0  0  0  0  0
   -5.0990    1.7942   -0.3787 C   0  0  0  0  0  0  0  0  0  0  0  0
   -4.7903    2.9447   -2.5338 N   0  0  0  0  0  0  0  0  0  0  0  0
   -3.1420    1.2650   -1.8574 C   0  0  0  0  0  0  0  0  0  0  0  0
   -3.1578    0.9070   -3.0678 O   0  0  0  0  0  0  0  0  0  0  0  0
   -2.2358    0.6267   -0.9410 N   0  0  0  0  0  0  0  0  0  0  0  0
   -1.1955   -0.3116   -1.3831 C   0  0  2  0  0  0  0  0  0  0  0  0
   -1.6894   -1.7673   -1.2899 C   0  0  0  0  0  0  0  0  0  0  0  0
   -2.1585   -2.1390    0.0900 C   0  0  0  0  0  0  0  0  0  0  0  0
   -1.3651   -2.5693    1.1498 C   0  0  0  0  0  0  0  0  0  0  0  0
   -2.1155   -2.7471    2.2607 N   0  0  0  0  0  0  0  0  0  0  0  0
   -3.3745   -2.4291    1.9132 C   0  0  0  0  0  0  0  0  0  0  0  0
   -4.5052   -2.4441    2.7287 C   0  0  0  0  0  0  0  0  0  0  0  0
   -5.7327   -2.0608    2.1579 C   0  0  0  0  0  0  0  0  0  0  0  0
   -5.8016   -1.6772    0.8003 C   0  0  0  0  0  0  0  0  0  0  0  0
   -4.6439   -1.6718    0.0015 C   0  0  0  0  0  0  0  0  0  0  0  0
   -3.4410   -2.0530    0.5961 C   0  0  0  0  0  0  0  0  0  0  0  0
    0.0804   -0.1145   -0.6003 C   0  0  0  0  0  0  0  0  0  0  0  0
    0.0356    0.2649    0.6024 O   0  0  0  0  0  0  0  0  0  0  0  0
    1.3437   -0.4145   -1.2104 N   0  0  0  0  0  0  0  0  0  0  0  0
    2.6040   -0.3148   -0.4693 C   0  0  2  0  0  0  0  0  0  0  0  0
    3.8080   -0.4217   -1.4226 C   0  0  0  0  0  0  0  0  0  0  0  0
    5.1040   -0.2568   -0.6839 C   0  0  0  0  0  0  0  0  0  0  0  0
    5.9189   -1.2766   -0.2013 C   0  0  0  0  0  0  0  0  0  0  0  0
    6.9666   -0.7604    0.4809 N   0  0  0  0  0  0  0  0  0  0  0  0
    6.8133    0.5748    0.4430 C   0  0  0  0  0  0  0  0  0  0  0  0
    7.6363    1.5370    1.0267 C   0  0  0  0  0  0  0  0  0  0  0  0
    7.2744    2.8887    0.8794 C   0  0  0  0  0  0  0  0  0  0  0  0
    6.1094    3.2439    0.1634 C   0  0  0  0  0  0  0  0  0  0  0  0
    5.2965    2.2511   -0.4133 C   0  0  0  0  0  0  0  0  0  0  0  0
    5.6843    0.9205   -0.2547 C   0  0  0  0  0  0  0  0  0  0  0  0
    2.6625   -1.3499    0.5691 N   0  0  0  0  0  0  0  0  0  0  0  0
    2.4925   -2.7495    0.3123 C   0  0  0  0  0  0  0  0  0  0  0  0
    2.2304   -3.1719   -0.8449 O   0  0  0  0  0  0  0  0  0  0  0  0
   -3.9114    4.3164   -0.3945 H   0  0  0  0  0  0  0  0  0  0  0  0
   -2.4979    3.8809   -1.4215 H   0  0  0  0  0  0  0  0  0  0  0  0
   -2.7242    3.1041    0.1911 H   0  0  0  0  0  0  0  0  0  0  0  0
   -5.7973    2.5895   -0.0403 H   0  0  0  0  0  0  0  0  0  0  0  0
   -5.6985    0.9890   -0.8538 H   0  0  0  0  0  0  0  0  0  0  0  0
   -4.5948    1.3778    0.5186 H   0  0  0  0  0  0  0  0  0  0  0  0
   -5.4205    3.7137   -2.2065 H   0  0  0  0  0  0  0  0  0  0  0  0
   -5.4092    2.2180   -2.9638 H   0  0  0  0  0  0  0  0  0  0  0  0
   -2.3790    0.7684    0.0838 H   0  0  0  0  0  0  0  0  0  0  0  0
   -0.9540   -0.1084   -2.4496 H   0  0  0  0  0  0  0  0  0  0  0  0
   -0.8722   -2.4573   -1.5941 H   0  0  0  0  0  0  0  0  0  0  0  0
   -2.5192   -1.9161   -2.0132 H   0  0  0  0  0  0  0  0  0  0  0  0
   -0.2965   -2.7303    1.1127 H   0  0  0  0  0  0  0  0  0  0  0  0
   -1.7790   -3.0583    3.1989 H   0  0  0  0  0  0  0  0  0  0  0  0
   -4.4421   -2.7386    3.7682 H   0  0  0  0  0  0  0  0  0  0  0  0
   -6.6297   -2.0597    2.7632 H   0  0  0  0  0  0  0  0  0  0  0  0
   -6.7508   -1.3832    0.3718 H   0  0  0  0  0  0  0  0  0  0  0  0
   -4.6908   -1.3776   -1.0385 H   0  0  0  0  0  0  0  0  0  0  0  0
    1.3556   -0.7259   -2.2085 H   0  0  0  0  0  0  0  0  0  0  0  0
    2.6465    0.6861    0.0166 H   0  0  0  0  0  0  0  0  0  0  0  0
    3.8037   -1.4001   -1.9481 H   0  0  0  0  0  0  0  0  0  0  0  0
    3.7333    0.3702   -2.1989 H   0  0  0  0  0  0  0  0  0  0  0  0
    5.7460   -2.3371   -0.3310 H   0  0  0  0  0  0  0  0  0  0  0  0
    7.7293   -1.2949    0.9532 H   0  0  0  0  0  0  0  0  0  0  0  0
    8.5237    1.2548    1.5784 H   0  0  0  0  0  0  0  0  0  0  0  0
    7.8911    3.6611    1.3201 H   0  0  0  0  0  0  0  0  0  0  0  0
    5.8394    4.2867    0.0590 H   0  0  0  0  0  0  0  0  0  0  0  0
    4.4008    2.5158   -0.9600 H   0  0  0  0  0  0  0  0  0  0  0  0
    2.8344   -1.0528    1.5557 H   0  0  0  0  0  0  0  0  0  0  0  0
    2.5812   -3.4559    1.1266 H   0  0  0  0  0  0  0  0  0  0  0  0
  1  2  1  0
  2  3  1  0
  2  4  1  0
  2  5  1  0
  5  6  2  0
  5  7  1  0
  7  8  1  0
  8  9  1  0
  9 10  1  0
 10 11  2  0
 11 12  1  0
 12 13  1  0
 13 14  2  0
 14 15  1  0
 15 16  2  0
 16 17  1  0
 17 18  2  0
  8 19  1  0
 19 20  2  0
 19 21  1  0
 21 22  1  0
 22 23  1  0
 23 24  1  0
 24 25  2  0
 25 26  1  0
 26 27  1  0
 27 28  2  0
 28 29  1  0
 29 30  2  0
 30 31  1  0
 31 32  2  0
 22 33  1  0
 33 34  1  0
 34 35  2  0
 18 10  1  0
 32 24  1  0
 18 13  1  0
 32 27  1  0
  1 36  1  0
  1 37  1  0
  1 38  1  0
  3 39  1  0
  3 40  1  0
  3 41  1  0
  4 42  1  0
  4 43  1  0
  7 44  1  0
  8 45  1  6
  9 46  1  0
  9 47  1  0
 11 48  1  0
 12 49  1  0
 14 50  1  0
 15 51  1  0
 16 52  1  0
 17 53  1  0
 21 54  1  0
 22 55  1  1
 23 56  1  0
 23 57  1  0
 25 58  1  0
 26 59  1  0
 28 60  1  0
 29 61  1  0
 30 62  1  0
 31 63  1  0
 33 64  1  0
 34 65  1  0
M  END
$$$$
