
     RDKit          3D

 67 68  0  0  0  0  0  0  0  0999 V2000
   -7.9509    2.8142    0.0625 C   0  0  0  0  0  0  0  0  0  0  0  0
   -8.5363    1.4716   -0.3615 C   0  0  0  0  0  0  0  0  0  0  0  0
   -7.4713    0.5422   -0.7308 N   0  0  0  0  0  0  0  0  0  0  0  0
   -6.7432    0.6523   -1.9623 C   0  0  0  0  0  0  0  0  0  0  0  0
   -7.0596    1.5268   -2.8139 O   0  0  0  0  0  0  0  0  0  0  0  0
   -5.5708   -0.2457   -2.2288 C   0  0  0  0  0  0  0  0  0  0  0  0
   -4.2439    0.4332   -1.8658 C   0  0  0  0  0  0  0  0  0  0  0  0
   -4.1069    0.6749   -0.3554 C   0  0  0  0  0  0  0  0  0  0  0  0
   -2.7436    1.2263   -0.0259 C   0  0  0  0  0  0  0  0  0  0  0  0
   -1.6651    0.4673    0.2371 C   0  0  0  0  0  0  0  0  0  0  0  0
   -1.7025   -1.0425    0.2935 C   0  0  0  0  0  0  0  0  0  0  0  0
   -0.2928   -1.6506    0.4936 C   0  0  1  0  0  0  0  0  0  0  0  0
   -0.3060   -3.1905    0.6295 C   0  0  1  0  0  0  0  0  0  0  0  0
   -1.5809   -3.7029    0.9233 O   0  0  0  0  0  0  0  0  0  0  0  0
    0.2068   -3.7326   -0.6977 C   0  0  0  0  0  0  0  0  0  0  0  0
    1.2141   -2.7022   -1.1721 C   0  0  1  0  0  0  0  0  0  0  0  0
    1.3459   -2.7557   -2.5681 O   0  0  0  0  0  0  0  0  0  0  0  0
    0.6403   -1.3530   -0.7126 C   0  0  2  0  0  0  0  0  0  0  0  0
    1.7221   -0.3420   -0.3953 C   0  0  0  0  0  0  0  0  0  0  0  0
    2.6192   -0.5206    0.5883 C   0  0  0  0  0  0  0  0  0  0  0  0
    3.6756    0.5200    0.8736 C   0  0  1  0  0  0  0  0  0  0  0  0
    3.0747    1.7325    1.2564 O   0  0  0  0  0  0  0  0  0  0  0  0
    4.6601    0.0258    1.9546 C   0  0  0  0  0  0  0  0  0  0  0  0
    5.7707    1.0414    2.2679 C   0  0  0  0  0  0  0  0  0  0  0  0
    6.6916    1.2543    1.0935 C   0  0  0  0  0  0  0  0  0  0  0  0
    7.6771    0.3012    0.7862 C   0  0  0  0  0  0  0  0  0  0  0  0
    8.5152    0.4853   -0.3179 C   0  0  0  0  0  0  0  0  0  0  0  0
    8.3728    1.6177   -1.1245 C   0  0  0  0  0  0  0  0  0  0  0  0
    7.3910    2.5674   -0.8291 C   0  0  0  0  0  0  0  0  0  0  0  0
    6.5511    2.3876    0.2743 C   0  0  0  0  0  0  0  0  0  0  0  0
   -7.4055    3.2853   -0.7818 H   0  0  0  0  0  0  0  0  0  0  0  0
   -7.2514    2.6722    0.9137 H   0  0  0  0  0  0  0  0  0  0  0  0
   -8.7693    3.4938    0.3803 H   0  0  0  0  0  0  0  0  0  0  0  0
   -9.1124    1.0493    0.4901 H   0  0  0  0  0  0  0  0  0  0  0  0
   -9.2354    1.6094   -1.2144 H   0  0  0  0  0  0  0  0  0  0  0  0
   -7.2477   -0.2416   -0.0768 H   0  0  0  0  0  0  0  0  0  0  0  0
   -5.6783   -1.1969   -1.6637 H   0  0  0  0  0  0  0  0  0  0  0  0
   -5.5569   -0.5058   -3.3094 H   0  0  0  0  0  0  0  0  0  0  0  0
   -4.1576    1.4003   -2.4091 H   0  0  0  0  0  0  0  0  0  0  0  0
   -3.4159   -0.2202   -2.2149 H   0  0  0  0  0  0  0  0  0  0  0  0
   -4.8639    1.4225   -0.0357 H   0  0  0  0  0  0  0  0  0  0  0  0
   -4.3055   -0.2589    0.2125 H   0  0  0  0  0  0  0  0  0  0  0  0
   -2.6234    2.3060   -0.0290 H   0  0  0  0  0  0  0  0  0  0  0  0
   -0.7271    0.9779    0.4369 H   0  0  0  0  0  0  0  0  0  0  0  0
   -2.3501   -1.3315    1.1492 H   0  0  0  0  0  0  0  0  0  0  0  0
   -2.1481   -1.4495   -0.6392 H   0  0  0  0  0  0  0  0  0  0  0  0
    0.1200   -1.2299    1.4388 H   0  0  0  0  0  0  0  0  0  0  0  0
    0.4107   -3.4793    1.4352 H   0  0  0  0  0  0  0  0  0  0  0  0
   -1.4531   -4.6555    1.1722 H   0  0  0  0  0  0  0  0  0  0  0  0
   -0.6335   -3.8074   -1.4248 H   0  0  0  0  0  0  0  0  0  0  0  0
    0.6771   -4.7323   -0.5728 H   0  0  0  0  0  0  0  0  0  0  0  0
    2.1932   -2.9225   -0.6858 H   0  0  0  0  0  0  0  0  0  0  0  0
    2.1275   -2.1881   -2.7970 H   0  0  0  0  0  0  0  0  0  0  0  0
    0.0393   -0.9396   -1.5550 H   0  0  0  0  0  0  0  0  0  0  0  0
    1.7586    0.5674   -0.9894 H   0  0  0  0  0  0  0  0  0  0  0  0
    2.5874   -1.4276    1.1870 H   0  0  0  0  0  0  0  0  0  0  0  0
    4.2406    0.6908   -0.0679 H   0  0  0  0  0  0  0  0  0  0  0  0
    2.5577    1.5608    2.0873 H   0  0  0  0  0  0  0  0  0  0  0  0
    4.1003   -0.1810    2.8933 H   0  0  0  0  0  0  0  0  0  0  0  0
    5.1217   -0.9319    1.6266 H   0  0  0  0  0  0  0  0  0  0  0  0
    6.3659    0.6626    3.1272 H   0  0  0  0  0  0  0  0  0  0  0  0
    5.3231    2.0048    2.5960 H   0  0  0  0  0  0  0  0  0  0  0  0
    7.7937   -0.5832    1.4002 H   0  0  0  0  0  0  0  0  0  0  0  0
    9.2737   -0.2513   -0.5496 H   0  0  0  0  0  0  0  0  0  0  0  0
    9.0215    1.7580   -1.9794 H   0  0  0  0  0  0  0  0  0  0  0  0
    7.2789    3.4419   -1.4569 H   0  0  0  0  0  0  0  0  0  0  0  0
    5.7892    3.1274    0.4865 H   0  0  0  0  0  0  0  0  0  0  0  0
  1  2  1  0
  2  3  1  0
  3  4  1  0
  4  5  2  0
  4  6  1  0
  6  7  1  0
  7  8  1  0
  8  9  1  0
  9 10  2  0
 10 11  1  0
 11 12  1  0
 12 13  1  0
 13 14  1  0
 13 15  1  0
 15 16  1  0
 16 17  1  0
 16 18  1  0
 18 19  1  0
 19 20  2  0
 20 21  1  0
 21 22  1  0
 21 23  1  0
 23 24  1  0
 24 25  1  0
 25 26  2  0
 26 27  1  0
 27 28  2  0
 28 29  1  0
 29 30  2  0
 18 12  1  0
 30 25  1  0
  1 31  1  0
  1 32  1  0
  1 33  1  0
  2 34  1  0
  2 35  1  0
  3 36  1  0
  6 37  1  0
  6 38  1  0
  7 39  1  0
  7 40  1  0
  8 41  1  0
  8 42  1  0
  9 43  1  0
 10 44  1  0
 11 45  1  0
 11 46  1  0
 12 47  1  1
 13 48  1  1
 14 49  1  0
 15 50  1  0
 15 51  1  0
 16 52  1  1
 17 53  1  0
 18 54  1  6
 19 55  1  0
 20 56  1  0
 21 57  1  6
 22 58  1  0
 23 59  1  0
 23 60  1  0
 24 61  1  0
 24 62  1  0
 26 63  1  0
 27 64  1  0
 28 65  1  0
 29 66  1  0
 30 67  1  0
M  END
$$$$
