
     RDKit          3D

 61 63  0  0  0  0  0  0  0  0999 V2000
   -2.9292    2.5083    2.5736 C   0  0  0  0  0  0  0  0  0  0  0  0
   -4.0039    2.5147    1.4913 C   0  0  0  0  0  0  0  0  0  0  0  0
   -3.9178    1.2936    0.6767 N   0  0  0  0  0  0  0  0  0  0  0  0
   -4.9695    0.2718    0.7970 C   0  0  0  0  0  0  0  0  0  0  0  0
   -5.9164    0.3373   -0.3966 C   0  0  0  0  0  0  0  0  0  0  0  0
   -2.8215    1.1425   -0.2553 C   0  0  0  0  0  0  0  0  0  0  0  0
   -2.2548    2.1764   -0.7050 O   0  0  0  0  0  0  0  0  0  0  0  0
   -2.3041   -0.2341   -0.6509 C   0  0  0  0  0  0  0  0  0  0  0  0
   -1.7067   -0.9781    0.5793 C   0  0  0  0  0  0  0  0  0  0  0  0
   -0.2403   -1.1559    0.4854 N   0  0  0  0  0  0  0  0  0  0  0  0
    0.2873   -1.6687    1.7598 C   0  0  0  0  0  0  0  0  0  0  0  0
    1.7387   -2.0889    1.5674 C   0  0  0  0  0  0  0  0  0  0  0  0
    2.5477   -0.9491    1.0167 C   0  0  0  0  0  0  0  0  0  0  0  0
    3.9378   -0.9448    1.1960 C   0  0  0  0  0  0  0  0  0  0  0  0
    4.7217    0.1161    0.7087 C   0  0  0  0  0  0  0  0  0  0  0  0
    6.1153    0.1518    0.8764 O   0  0  0  0  0  0  0  0  0  0  0  0
    6.8757   -0.8554    1.5361 C   0  0  0  0  0  0  0  0  0  0  0  0
    4.1053    1.1806    0.0381 C   0  0  0  0  0  0  0  0  0  0  0  0
    4.9120    2.2348   -0.4201 O   0  0  0  0  0  0  0  0  0  0  0  0
    4.4288    3.3772   -1.1194 C   0  0  0  0  0  0  0  0  0  0  0  0
    2.7119    1.1675   -0.1568 C   0  0  0  0  0  0  0  0  0  0  0  0
    1.9281    0.0896    0.2921 C   0  0  0  0  0  0  0  0  0  0  0  0
    0.4144    0.1119    0.0837 C   0  0  0  0  0  0  0  0  0  0  0  0
    0.0708    0.3956   -1.4003 C   0  0  0  0  0  0  0  0  0  0  0  0
   -1.2985   -0.1910   -1.8275 C   0  0  0  0  0  0  0  0  0  0  0  0
   -1.1261   -1.5225   -2.3219 O   0  0  0  0  0  0  0  0  0  0  0  0
   -0.5893   -1.8195   -3.5796 C   0  0  0  0  0  0  0  0  0  0  0  0
   -0.4231   -3.2434   -3.9872 C   0  0  0  0  0  0  0  0  0  0  0  0
   -0.2873   -0.8993   -4.3873 O   0  0  0  0  0  0  0  0  0  0  0  0
   -3.0482    1.6135    3.2209 H   0  0  0  0  0  0  0  0  0  0  0  0
   -3.0239    3.4202    3.1998 H   0  0  0  0  0  0  0  0  0  0  0  0
   -1.9176    2.4940    2.1157 H   0  0  0  0  0  0  0  0  0  0  0  0
   -4.9993    2.5993    1.9788 H   0  0  0  0  0  0  0  0  0  0  0  0
   -3.8858    3.4127    0.8473 H   0  0  0  0  0  0  0  0  0  0  0  0
   -5.5617    0.4249    1.7251 H   0  0  0  0  0  0  0  0  0  0  0  0
   -4.5265   -0.7416    0.8806 H   0  0  0  0  0  0  0  0  0  0  0  0
   -6.3958    1.3380   -0.4443 H   0  0  0  0  0  0  0  0  0  0  0  0
   -5.3669    0.1542   -1.3432 H   0  0  0  0  0  0  0  0  0  0  0  0
   -6.7073   -0.4343   -0.2883 H   0  0  0  0  0  0  0  0  0  0  0  0
   -3.1778   -0.8147   -1.0170 H   0  0  0  0  0  0  0  0  0  0  0  0
   -2.1764   -1.9852    0.6334 H   0  0  0  0  0  0  0  0  0  0  0  0
   -1.9742   -0.4524    1.5255 H   0  0  0  0  0  0  0  0  0  0  0  0
   -0.2903   -2.5625    2.0857 H   0  0  0  0  0  0  0  0  0  0  0  0
    0.2167   -0.8952    2.5592 H   0  0  0  0  0  0  0  0  0  0  0  0
    2.1502   -2.4172    2.5469 H   0  0  0  0  0  0  0  0  0  0  0  0
    1.7886   -2.9435    0.8585 H   0  0  0  0  0  0  0  0  0  0  0  0
    4.3996   -1.7675    1.7258 H   0  0  0  0  0  0  0  0  0  0  0  0
    6.7584   -1.8273    1.0117 H   0  0  0  0  0  0  0  0  0  0  0  0
    7.9473   -0.5699    1.5188 H   0  0  0  0  0  0  0  0  0  0  0  0
    6.5499   -0.9487    2.5936 H   0  0  0  0  0  0  0  0  0  0  0  0
    3.7119    3.9390   -0.4841 H   0  0  0  0  0  0  0  0  0  0  0  0
    5.2833    4.0415   -1.3624 H   0  0  0  0  0  0  0  0  0  0  0  0
    3.9397    3.0666   -2.0668 H   0  0  0  0  0  0  0  0  0  0  0  0
    2.2302    1.9941   -0.6597 H   0  0  0  0  0  0  0  0  0  0  0  0
    0.0170    0.9463    0.7081 H   0  0  0  0  0  0  0  0  0  0  0  0
    0.8626   -0.0185   -2.0623 H   0  0  0  0  0  0  0  0  0  0  0  0
    0.0661    1.4939   -1.5679 H   0  0  0  0  0  0  0  0  0  0  0  0
   -1.7309    0.4341   -2.6417 H   0  0  0  0  0  0  0  0  0  0  0  0
   -1.3092   -3.5663   -4.5721 H   0  0  0  0  0  0  0  0  0  0  0  0
    0.4897   -3.3583   -4.6090 H   0  0  0  0  0  0  0  0  0  0  0  0
   -0.3264   -3.8857   -3.0869 H   0  0  0  0  0  0  0  0  0  0  0  0
  1  2  1  0
  2  3  1  0
  3  4  1  0
  4  5  1  0
  3  6  1  0
  6  7  2  0
  6  8  1  0
  8  9  1  0
  9 10  1  0
 10 11  1  0
 11 12  1  0
 12 13  1  0
 13 14  2  0
 14 15  1  0
 15 16  1  0
 16 17  1  0
 15 18  2  0
 18 19  1  0
 19 20  1  0
 18 21  1  0
 21 22  2  0
 22 23  1  0
 23 24  1  0
 24 25  1  0
 25 26  1  0
 26 27  1  0
 27 28  1  0
 27 29  2  0
 25  8  1  0
 23 10  1  0
 22 13  1  0
  1 30  1  0
  1 31  1  0
  1 32  1  0
  2 33  1  0
  2 34  1  0
  4 35  1  0
  4 36  1  0
  5 37  1  0
  5 38  1  0
  5 39  1  0
  8 40  1  0
  9 41  1  0
  9 42  1  0
 11 43  1  0
 11 44  1  0
 12 45  1  0
 12 46  1  0
 14 47  1  0
 17 48  1  0
 17 49  1  0
 17 50  1  0
 20 51  1  0
 20 52  1  0
 20 53  1  0
 21 54  1  0
 23 55  1  0
 24 56  1  0
 24 57  1  0
 25 58  1  0
 28 59  1  0
 28 60  1  0
 28 61  1  0
M  END
$$$$
