
     RDKit          3D

 23 23  0  0  0  0  0  0  0  0999 V2000
    2.1325    1.6832    0.2960 C   0  0  0  0  0  0  0  0  0  0  0  0
    2.2673    0.3012   -0.1734 N   0  0  0  0  0  0  0  0  0  0  0  0
    3.5757   -0.2726   -0.4760 C   0  0  0  0  0  0  0  0  0  0  0  0
    1.1328   -0.5105   -0.3469 N   0  0  0  0  0  0  0  0  0  0  0  0
   -0.0369   -0.0771   -0.0986 N   0  0  0  0  0  0  0  0  0  0  0  0
   -1.1875   -0.9039   -0.2776 C   0  0  0  0  0  0  0  0  0  0  0  0
   -2.4968   -0.5574   -0.0079 C   0  0  0  0  0  0  0  0  0  0  0  0
   -3.2794   -1.6369   -0.2171 N   0  0  0  0  0  0  0  0  0  0  0  0
   -2.4250   -2.6043   -0.6187 C   0  0  0  0  0  0  0  0  0  0  0  0
   -1.1447   -2.1891   -0.6628 N   0  0  0  0  0  0  0  0  0  0  0  0
   -3.0221    0.7352    0.4727 C   0  0  0  0  0  0  0  0  0  0  0  0
   -2.2716    1.9459    0.3558 N   0  0  0  0  0  0  0  0  0  0  0  0
   -4.1743    0.7754    0.9806 O   0  0  0  0  0  0  0  0  0  0  0  0
    3.1190    2.1856    0.3793 H   0  0  0  0  0  0  0  0  0  0  0  0
    1.5051    2.2585   -0.4167 H   0  0  0  0  0  0  0  0  0  0  0  0
    1.6495    1.6911    1.2955 H   0  0  0  0  0  0  0  0  0  0  0  0
    3.6036   -0.5901   -1.5394 H   0  0  0  0  0  0  0  0  0  0  0  0
    4.3943    0.4574   -0.3037 H   0  0  0  0  0  0  0  0  0  0  0  0
    3.7501   -1.1579    0.1706 H   0  0  0  0  0  0  0  0  0  0  0  0
   -2.7369   -3.6102   -0.8670 H   0  0  0  0  0  0  0  0  0  0  0  0
   -0.3061   -2.7555   -0.9198 H   0  0  0  0  0  0  0  0  0  0  0  0
   -1.4040    2.0023   -0.2190 H   0  0  0  0  0  0  0  0  0  0  0  0
   -2.6448    2.8299    0.7676 H   0  0  0  0  0  0  0  0  0  0  0  0
  1  2  1  0
  2  3  1  0
  2  4  1  0
  4  5  2  0
  5  6  1  0
  6  7  2  0
  7  8  1  0
  8  9  2  0
  9 10  1  0
  7 11  1  0
 11 12  1  0
 11 13  2  0
 10  6  1  0
  1 14  1  0
  1 15  1  0
  1 16  1  0
  3 17  1  0
  3 18  1  0
  3 19  1  0
  9 20  1  0
 10 21  1  0
 12 22  1  0
 12 23  1  0
M  END
$$$$
