
     RDKit          3D

 60 64  0  0  0  0  0  0  0  0999 V2000
   -1.1236   -0.2005    1.1014 C   0  0  1  0  0  0  0  0  0  0  0  0
   -1.6974   -1.5899    1.4239 C   0  0  0  0  0  0  0  0  0  0  0  0
   -1.2394   -2.6812    0.4351 C   0  0  1  0  0  0  0  0  0  0  0  0
   -1.6861   -2.3437   -0.9324 N   0  0  0  0  0  0  0  0  0  0  0  0
    0.3049   -2.7852    0.4703 C   0  0  0  0  0  0  0  0  0  0  0  0
    1.0285   -1.4475    0.4322 C   0  0  0  0  0  0  0  0  0  0  0  0
    0.3610   -0.2414    0.7655 C   0  0  0  0  0  0  0  0  0  0  0  0
    1.0583    0.9819    0.7149 C   0  0  0  0  0  0  0  0  0  0  0  0
    0.3260    2.1601    0.8990 O   0  0  0  0  0  0  0  0  0  0  0  0
    2.4476    1.0087    0.4458 C   0  0  0  0  0  0  0  0  0  0  0  0
    3.2525    2.2553    0.5990 C   0  0  0  0  0  0  0  0  0  0  0  0
    2.8280    3.2129    1.3009 O   0  0  0  0  0  0  0  0  0  0  0  0
    4.6064    2.3415    0.0164 C   0  0  0  0  0  0  0  0  0  0  0  0
    5.2773    3.5755   -0.0656 C   0  0  0  0  0  0  0  0  0  0  0  0
    6.5660    3.6437   -0.5995 C   0  0  0  0  0  0  0  0  0  0  0  0
    7.1981    2.4845   -1.0497 C   0  0  0  0  0  0  0  0  0  0  0  0
    6.5439    1.2532   -0.9671 C   0  0  0  0  0  0  0  0  0  0  0  0
    5.2433    1.1722   -0.4345 C   0  0  0  0  0  0  0  0  0  0  0  0
    4.5463   -0.1289   -0.3287 C   0  0  0  0  0  0  0  0  0  0  0  0
    5.1774   -1.1837   -0.6118 O   0  0  0  0  0  0  0  0  0  0  0  0
    3.1098   -0.1868    0.0852 C   0  0  0  0  0  0  0  0  0  0  0  0
    2.4108   -1.4155    0.1236 C   0  0  0  0  0  0  0  0  0  0  0  0
    3.1178   -2.5987   -0.1263 O   0  0  0  0  0  0  0  0  0  0  0  0
   -1.8715   -4.0156    0.8540 C   0  0  0  0  0  0  0  0  0  0  0  0
   -1.5940   -4.6664    2.1838 C   0  0  0  0  0  0  0  0  0  0  0  0
   -2.6607   -4.5760    0.1065 O   0  0  0  0  0  0  0  0  0  0  0  0
   -1.8201    0.3784    0.0043 O   0  0  0  0  0  0  0  0  0  0  0  0
   -2.7601    1.3651    0.4085 C   0  0  1  0  0  0  0  0  0  0  0  0
   -3.0304    2.3346   -0.7558 C   0  0  0  0  0  0  0  0  0  0  0  0
   -3.8091    1.6443   -1.8796 C   0  0  2  0  0  0  0  0  0  0  0  0
   -4.1843    2.5962   -2.8406 O   0  0  0  0  0  0  0  0  0  0  0  0
   -5.0483    0.9437   -1.3033 C   0  0  2  0  0  0  0  0  0  0  0  0
   -5.9758    1.8992   -0.8547 O   0  0  0  0  0  0  0  0  0  0  0  0
   -4.6181    0.0380   -0.1400 C   0  0  0  0  0  0  0  0  0  0  0  0
   -3.9637    0.7743    0.8810 O   0  0  0  0  0  0  0  0  0  0  0  0
   -1.2186    0.3910    2.0433 H   0  0  0  0  0  0  0  0  0  0  0  0
   -2.8061   -1.5446    1.4539 H   0  0  0  0  0  0  0  0  0  0  0  0
   -1.3681   -1.8555    2.4519 H   0  0  0  0  0  0  0  0  0  0  0  0
   -1.4846   -3.1458   -1.5740 H   0  0  0  0  0  0  0  0  0  0  0  0
   -1.1230   -1.5524   -1.3175 H   0  0  0  0  0  0  0  0  0  0  0  0
    0.6474   -3.3092    1.3861 H   0  0  0  0  0  0  0  0  0  0  0  0
    0.6086   -3.4043   -0.4010 H   0  0  0  0  0  0  0  0  0  0  0  0
    0.6257    3.0651    0.5636 H   0  0  0  0  0  0  0  0  0  0  0  0
    4.8043    4.4869    0.2781 H   0  0  0  0  0  0  0  0  0  0  0  0
    7.0755    4.5966   -0.6630 H   0  0  0  0  0  0  0  0  0  0  0  0
    8.1974    2.5394   -1.4619 H   0  0  0  0  0  0  0  0  0  0  0  0
    7.0549    0.3666   -1.3210 H   0  0  0  0  0  0  0  0  0  0  0  0
    2.7462   -3.5290    0.0079 H   0  0  0  0  0  0  0  0  0  0  0  0
   -2.5499   -4.8110    2.7296 H   0  0  0  0  0  0  0  0  0  0  0  0
   -0.9225   -4.0608    2.8232 H   0  0  0  0  0  0  0  0  0  0  0  0
   -1.1218   -5.6571    2.0171 H   0  0  0  0  0  0  0  0  0  0  0  0
   -2.3511    2.0075    1.2211 H   0  0  0  0  0  0  0  0  0  0  0  0
   -2.0657    2.7209   -1.1517 H   0  0  0  0  0  0  0  0  0  0  0  0
   -3.6150    3.2025   -0.3773 H   0  0  0  0  0  0  0  0  0  0  0  0
   -3.1431    0.8827   -2.3510 H   0  0  0  0  0  0  0  0  0  0  0  0
   -4.4625    2.0911   -3.6489 H   0  0  0  0  0  0  0  0  0  0  0  0
   -5.5067    0.3176   -2.1041 H   0  0  0  0  0  0  0  0  0  0  0  0
   -6.8427    1.4275   -0.7469 H   0  0  0  0  0  0  0  0  0  0  0  0
   -5.5209   -0.4383    0.2972 H   0  0  0  0  0  0  0  0  0  0  0  0
   -3.9786   -0.7900   -0.5163 H   0  0  0  0  0  0  0  0  0  0  0  0
  1  2  1  0
  2  3  1  0
  3  4  1  6
  3  5  1  0
  5  6  1  0
  6  7  2  0
  7  8  1  0
  8  9  1  0
  8 10  2  0
 10 11  1  0
 11 12  2  0
 11 13  1  0
 13 14  2  0
 14 15  1  0
 15 16  2  0
 16 17  1  0
 17 18  2  0
 18 19  1  0
 19 20  2  0
 19 21  1  0
 21 22  2  0
 22 23  1  0
  3 24  1  0
 24 25  1  0
 24 26  2  0
  1 27  1  0
 27 28  1  0
 28 29  1  0
 29 30  1  0
 30 31  1  0
 30 32  1  0
 32 33  1  0
 32 34  1  0
 34 35  1  0
  7  1  1  0
 21 10  1  0
 35 28  1  0
 22  6  1  0
 18 13  1  0
  1 36  1  1
  2 37  1  0
  2 38  1  0
  4 39  1  0
  4 40  1  0
  5 41  1  0
  5 42  1  0
  9 43  1  0
 14 44  1  0
 15 45  1  0
 16 46  1  0
 17 47  1  0
 23 48  1  0
 25 49  1  0
 25 50  1  0
 25 51  1  0
 28 52  1  1
 29 53  1  0
 29 54  1  0
 30 55  1  6
 31 56  1  0
 32 57  1  6
 33 58  1  0
 34 59  1  0
 34 60  1  0
M  END
$$$$
