
     RDKit          3D

 14 14  0  0  0  0  0  0  0  0999 V2000
    2.3234    0.1311    0.0307 N   0  0  0  0  0  0  0  0  0  0  0  0
    0.8936    0.0523    0.0116 C   0  0  0  0  0  0  0  0  0  0  0  0
    0.2532   -1.1866    0.1057 C   0  0  0  0  0  0  0  0  0  0  0  0
   -1.1036   -1.2569    0.0872 N   0  0  0  0  0  0  0  0  0  0  0  0
   -1.8591   -0.1306   -0.0223 C   0  0  0  0  0  0  0  0  0  0  0  0
   -3.1165   -0.2154   -0.0377 O   0  0  0  0  0  0  0  0  0  0  0  0
   -1.2587    1.0875   -0.1153 N   0  0  0  0  0  0  0  0  0  0  0  0
    0.0976    1.2017   -0.1006 C   0  0  0  0  0  0  0  0  0  0  0  0
    0.6297    2.3412   -0.1881 O   0  0  0  0  0  0  0  0  0  0  0  0
    2.8167    1.0487   -0.0387 H   0  0  0  0  0  0  0  0  0  0  0  0
    2.9026   -0.7339    0.1148 H   0  0  0  0  0  0  0  0  0  0  0  0
    0.8359   -2.0955    0.1936 H   0  0  0  0  0  0  0  0  0  0  0  0
   -1.5669   -2.1911    0.1585 H   0  0  0  0  0  0  0  0  0  0  0  0
   -1.8480    1.9475   -0.1992 H   0  0  0  0  0  0  0  0  0  0  0  0
  1  2  1  0
  2  3  2  0
  3  4  1  0
  4  5  1  0
  5  6  2  0
  5  7  1  0
  7  8  1  0
  8  9  2  0
  8  2  1  0
  1 10  1  0
  1 11  1  0
  3 12  1  0
  4 13  1  0
  7 14  1  0
M  END
$$$$
