
     RDKit          3D

 83 87  0  0  0  0  0  0  0  0999 V2000
   -2.1884   -4.9398   -0.5295 C   0  0  0  0  0  0  0  0  0  0  0  0
   -3.2297   -4.0662   -0.1046 O   0  0  0  0  0  0  0  0  0  0  0  0
   -3.0954   -2.6757    0.0387 C   0  0  0  0  0  0  0  0  0  0  0  0
   -4.2112   -1.9430    0.4729 C   0  0  0  0  0  0  0  0  0  0  0  0
   -5.3983   -2.6458    0.7463 O   0  0  0  0  0  0  0  0  0  0  0  0
   -6.6482   -2.0550    1.1018 C   0  0  0  0  0  0  0  0  0  0  0  0
   -7.3213   -1.4369   -0.1306 C   0  0  0  0  0  0  0  0  0  0  0  0
   -8.6159   -0.7004    0.2343 C   0  0  0  0  0  0  0  0  0  0  0  0
   -8.3363    0.4368    1.1422 N   0  0  0  0  0  0  0  0  0  0  0  0
   -7.9483    1.6798    0.4351 C   0  0  0  0  0  0  0  0  0  0  0  0
   -9.1422    2.3988   -0.2202 C   0  0  0  0  0  0  0  0  0  0  0  0
  -10.2719    2.6245    0.7851 C   0  0  0  0  0  0  0  0  0  0  0  0
  -10.6532    1.3127    1.4699 C   0  0  0  0  0  0  0  0  0  0  0  0
   -9.4183    0.6759    2.1204 C   0  0  0  0  0  0  0  0  0  0  0  0
   -4.1116   -0.5457    0.6208 C   0  0  0  0  0  0  0  0  0  0  0  0
   -2.9123    0.1128    0.3391 C   0  0  0  0  0  0  0  0  0  0  0  0
   -2.8403    1.4639    0.4582 N   0  0  0  0  0  0  0  0  0  0  0  0
   -1.6925    2.1307    0.1790 C   0  0  0  0  0  0  0  0  0  0  0  0
   -0.5870    1.4490   -0.2140 N   0  0  0  0  0  0  0  0  0  0  0  0
   -0.5936    0.0950   -0.3412 C   0  0  0  0  0  0  0  0  0  0  0  0
    0.6192   -0.5708   -0.7250 N   0  0  0  0  0  0  0  0  0  0  0  0
    1.3300   -1.4207    0.2363 C   0  0  0  0  0  0  0  0  0  0  0  0
    2.7981   -0.9926    0.3237 C   0  0  0  0  0  0  0  0  0  0  0  0
    3.3972   -0.8133   -1.0106 N   0  0  0  0  0  0  0  0  0  0  0  0
    2.5611   -0.9768   -2.2120 C   0  0  0  0  0  0  0  0  0  0  0  0
    1.2192   -0.2593   -2.0270 C   0  0  0  0  0  0  0  0  0  0  0  0
    4.8139   -0.5593   -1.1452 C   0  0  0  0  0  0  0  0  0  0  0  0
    5.3648   -0.6868   -2.2733 O   0  0  0  0  0  0  0  0  0  0  0  0
    5.6133   -0.1889   -0.0056 N   0  0  0  0  0  0  0  0  0  0  0  0
    6.9292    0.3828   -0.1082 C   0  0  0  0  0  0  0  0  0  0  0  0
    7.2683    1.2599   -1.1528 C   0  0  0  0  0  0  0  0  0  0  0  0
    8.5466    1.8215   -1.2160 C   0  0  0  0  0  0  0  0  0  0  0  0
    9.5038    1.5302   -0.2376 C   0  0  0  0  0  0  0  0  0  0  0  0
   10.7713    2.1247   -0.3560 O   0  0  0  0  0  0  0  0  0  0  0  0
   11.8987    1.8658    0.4840 C   0  0  0  0  0  0  0  0  0  0  0  0
   12.9266    2.9769    0.2785 C   0  0  0  0  0  0  0  0  0  0  0  0
   12.5145    0.5052    0.1416 C   0  0  0  0  0  0  0  0  0  0  0  0
    9.1571    0.6719    0.8237 C   0  0  0  0  0  0  0  0  0  0  0  0
    7.8781    0.1107    0.8874 C   0  0  0  0  0  0  0  0  0  0  0  0
   -1.7822   -0.6188   -0.0788 C   0  0  0  0  0  0  0  0  0  0  0  0
   -1.8862   -2.0102   -0.2429 C   0  0  0  0  0  0  0  0  0  0  0  0
   -1.8578   -4.6698   -1.5547 H   0  0  0  0  0  0  0  0  0  0  0  0
   -2.5717   -5.9805   -0.5431 H   0  0  0  0  0  0  0  0  0  0  0  0
   -1.3324   -4.8855    0.1760 H   0  0  0  0  0  0  0  0  0  0  0  0
   -7.3074   -2.8536    1.5035 H   0  0  0  0  0  0  0  0  0  0  0  0
   -6.5045   -1.3109    1.9137 H   0  0  0  0  0  0  0  0  0  0  0  0
   -6.6252   -0.7447   -0.6458 H   0  0  0  0  0  0  0  0  0  0  0  0
   -7.5629   -2.2503   -0.8488 H   0  0  0  0  0  0  0  0  0  0  0  0
   -9.1162   -0.3653   -0.6980 H   0  0  0  0  0  0  0  0  0  0  0  0
   -9.3003   -1.4379    0.7104 H   0  0  0  0  0  0  0  0  0  0  0  0
   -7.1820    1.4674   -0.3398 H   0  0  0  0  0  0  0  0  0  0  0  0
   -7.4698    2.3702    1.1638 H   0  0  0  0  0  0  0  0  0  0  0  0
   -8.8031    3.3822   -0.6113 H   0  0  0  0  0  0  0  0  0  0  0  0
   -9.5220    1.8156   -1.0851 H   0  0  0  0  0  0  0  0  0  0  0  0
  -11.1585    3.0394    0.2591 H   0  0  0  0  0  0  0  0  0  0  0  0
   -9.9479    3.3645    1.5498 H   0  0  0  0  0  0  0  0  0  0  0  0
  -11.4175    1.5148    2.2507 H   0  0  0  0  0  0  0  0  0  0  0  0
  -11.0969    0.6133    0.7284 H   0  0  0  0  0  0  0  0  0  0  0  0
   -9.0403    1.3474    2.9226 H   0  0  0  0  0  0  0  0  0  0  0  0
   -9.7067   -0.2730    2.6231 H   0  0  0  0  0  0  0  0  0  0  0  0
   -4.9579    0.0422    0.9482 H   0  0  0  0  0  0  0  0  0  0  0  0
   -1.6568    3.2070    0.2752 H   0  0  0  0  0  0  0  0  0  0  0  0
    0.8646   -1.3563    1.2447 H   0  0  0  0  0  0  0  0  0  0  0  0
    1.2791   -2.4785   -0.1005 H   0  0  0  0  0  0  0  0  0  0  0  0
    3.3556   -1.7737    0.8845 H   0  0  0  0  0  0  0  0  0  0  0  0
    2.8590   -0.0335    0.8823 H   0  0  0  0  0  0  0  0  0  0  0  0
    2.3855   -2.0599   -2.3894 H   0  0  0  0  0  0  0  0  0  0  0  0
    3.0576   -0.5568   -3.1132 H   0  0  0  0  0  0  0  0  0  0  0  0
    0.5240   -0.5649   -2.8384 H   0  0  0  0  0  0  0  0  0  0  0  0
    1.3873    0.8373   -2.1013 H   0  0  0  0  0  0  0  0  0  0  0  0
    5.2682   -0.4167    0.9525 H   0  0  0  0  0  0  0  0  0  0  0  0
    6.5411    1.5317   -1.9063 H   0  0  0  0  0  0  0  0  0  0  0  0
    8.7938    2.4937   -2.0280 H   0  0  0  0  0  0  0  0  0  0  0  0
   11.5950    1.8863    1.5529 H   0  0  0  0  0  0  0  0  0  0  0  0
   12.4738    3.9581    0.5351 H   0  0  0  0  0  0  0  0  0  0  0  0
   13.8081    2.8144    0.9351 H   0  0  0  0  0  0  0  0  0  0  0  0
   13.2617    3.0064   -0.7807 H   0  0  0  0  0  0  0  0  0  0  0  0
   13.3977    0.3105    0.7867 H   0  0  0  0  0  0  0  0  0  0  0  0
   11.7794   -0.3085    0.3075 H   0  0  0  0  0  0  0  0  0  0  0  0
   12.8306    0.4814   -0.9232 H   0  0  0  0  0  0  0  0  0  0  0  0
    9.8605    0.4325    1.6077 H   0  0  0  0  0  0  0  0  0  0  0  0
    7.6279   -0.5462    1.7112 H   0  0  0  0  0  0  0  0  0  0  0  0
   -1.0394   -2.5733   -0.6037 H   0  0  0  0  0  0  0  0  0  0  0  0
  1  2  1  0
  2  3  1  0
  3  4  2  0
  4  5  1  0
  5  6  1  0
  6  7  1  0
  7  8  1  0
  8  9  1  0
  9 10  1  0
 10 11  1  0
 11 12  1  0
 12 13  1  0
 13 14  1  0
  4 15  1  0
 15 16  2  0
 16 17  1  0
 17 18  2  0
 18 19  1  0
 19 20  2  0
 20 21  1  0
 21 22  1  0
 22 23  1  0
 23 24  1  0
 24 25  1  0
 25 26  1  0
 24 27  1  0
 27 28  2  0
 27 29  1  0
 29 30  1  0
 30 31  2  0
 31 32  1  0
 32 33  2  0
 33 34  1  0
 34 35  1  0
 35 36  1  0
 35 37  1  0
 33 38  1  0
 38 39  2  0
 20 40  1  0
 40 41  2  0
 41  3  1  0
 14  9  1  0
 40 16  1  0
 26 21  1  0
 39 30  1  0
  1 42  1  0
  1 43  1  0
  1 44  1  0
  6 45  1  0
  6 46  1  0
  7 47  1  0
  7 48  1  0
  8 49  1  0
  8 50  1  0
 10 51  1  0
 10 52  1  0
 11 53  1  0
 11 54  1  0
 12 55  1  0
 12 56  1  0
 13 57  1  0
 13 58  1  0
 14 59  1  0
 14 60  1  0
 15 61  1  0
 18 62  1  0
 22 63  1  0
 22 64  1  0
 23 65  1  0
 23 66  1  0
 25 67  1  0
 25 68  1  0
 26 69  1  0
 26 70  1  0
 29 71  1  0
 31 72  1  0
 32 73  1  0
 35 74  1  0
 36 75  1  0
 36 76  1  0
 36 77  1  0
 37 78  1  0
 37 79  1  0
 37 80  1  0
 38 81  1  0
 39 82  1  0
 41 83  1  0
M  END
$$$$
