
     RDKit          3D

 81 82  0  0  0  0  0  0  0  0999 V2000
   -8.2225    1.6488   -0.3880 C   0  0  1  0  0  0  0  0  0  0  0  0
   -9.0042    2.4726   -1.2179 O   0  0  0  0  0  0  0  0  0  0  0  0
   -9.0943    0.9456    0.6665 C   0  0  2  0  0  0  0  0  0  0  0  0
   -9.6518    1.9181    1.5150 O   0  0  0  0  0  0  0  0  0  0  0  0
   -8.2232   -0.0407    1.4802 C   0  0  1  0  0  0  0  0  0  0  0  0
   -9.0766   -0.8156    2.4952 C   0  0  0  0  0  0  0  0  0  0  0  0
   -8.2881   -1.7437    3.1906 O   0  0  0  0  0  0  0  0  0  0  0  0
   -7.5926   -0.9805    0.6207 O   0  0  0  0  0  0  0  0  0  0  0  0
   -6.6925   -0.3564   -0.2826 C   0  0  2  0  0  0  0  0  0  0  0  0
   -5.6726    0.3316    0.4346 O   0  0  0  0  0  0  0  0  0  0  0  0
   -4.3603   -0.0534    0.0537 C   0  0  1  0  0  0  0  0  0  0  0  0
   -3.4494    1.1824    0.1649 C   0  0  2  0  0  0  0  0  0  0  0  0
   -3.9100    2.2295   -0.6531 O   0  0  0  0  0  0  0  0  0  0  0  0
   -1.9762    0.8309   -0.1641 C   0  0  1  0  0  0  0  0  0  0  0  0
   -1.1169    1.6193    0.6202 O   0  0  0  0  0  0  0  0  0  0  0  0
   -1.6912   -0.6713    0.0862 C   0  0  1  0  0  0  0  0  0  0  0  0
   -0.3086   -0.8741    0.3294 O   0  0  0  0  0  0  0  0  0  0  0  0
    0.3914   -1.1046   -0.8770 C   0  0  0  0  0  0  0  0  0  0  0  0
    1.8893   -1.1558   -0.5802 C   0  0  0  0  0  0  0  0  0  0  0  0
    2.7008   -1.3967   -1.8621 C   0  0  0  0  0  0  0  0  0  0  0  0
    4.2008   -1.5849   -1.5862 C   0  0  0  0  0  0  0  0  0  0  0  0
    4.8925   -0.2811   -1.1604 C   0  0  0  0  0  0  0  0  0  0  0  0
    6.4071   -0.4814   -1.0258 C   0  0  0  0  0  0  0  0  0  0  0  0
    7.0957    0.8171   -0.5783 C   0  0  0  0  0  0  0  0  0  0  0  0
    8.6286    0.7011   -0.5596 C   0  0  0  0  0  0  0  0  0  0  0  0
    9.1421   -0.1495    0.6152 C   0  0  0  0  0  0  0  0  0  0  0  0
   10.6752   -0.2609    0.6367 C   0  0  0  0  0  0  0  0  0  0  0  0
   11.3578    1.0378    1.0913 C   0  0  0  0  0  0  0  0  0  0  0  0
   12.8657    0.8466    1.2278 C   0  0  0  0  0  0  0  0  0  0  0  0
   -2.4029   -1.1154    1.2277 O   0  0  0  0  0  0  0  0  0  0  0  0
   -3.8158   -1.1484    1.0265 C   0  0  2  0  0  0  0  0  0  0  0  0
   -4.2731   -2.5775    0.6813 C   0  0  0  0  0  0  0  0  0  0  0  0
   -3.7833   -2.9916   -0.5662 O   0  0  0  0  0  0  0  0  0  0  0  0
   -7.4471    0.6121   -1.2171 C   0  0  2  0  0  0  0  0  0  0  0  0
   -6.5494    1.2711   -2.0713 O   0  0  0  0  0  0  0  0  0  0  0  0
   -7.4886    2.3001    0.1382 H   0  0  0  0  0  0  0  0  0  0  0  0
   -9.6602    1.8942   -1.6884 H   0  0  0  0  0  0  0  0  0  0  0  0
   -9.8968    0.3732    0.1401 H   0  0  0  0  0  0  0  0  0  0  0  0
  -10.5598    1.6039    1.7646 H   0  0  0  0  0  0  0  0  0  0  0  0
   -7.4650    0.5309    2.0639 H   0  0  0  0  0  0  0  0  0  0  0  0
   -9.8805   -1.3674    1.9624 H   0  0  0  0  0  0  0  0  0  0  0  0
   -9.5607   -0.1179    3.2157 H   0  0  0  0  0  0  0  0  0  0  0  0
   -7.7438   -1.2251    3.8392 H   0  0  0  0  0  0  0  0  0  0  0  0
   -6.3001   -1.1720   -0.9305 H   0  0  0  0  0  0  0  0  0  0  0  0
   -4.2988   -0.3964   -1.0061 H   0  0  0  0  0  0  0  0  0  0  0  0
   -3.5005    1.5380    1.2192 H   0  0  0  0  0  0  0  0  0  0  0  0
   -3.9046    1.9036   -1.5910 H   0  0  0  0  0  0  0  0  0  0  0  0
   -1.7739    1.0286   -1.2427 H   0  0  0  0  0  0  0  0  0  0  0  0
   -1.1433    2.5358    0.2391 H   0  0  0  0  0  0  0  0  0  0  0  0
   -2.0300   -1.2563   -0.8038 H   0  0  0  0  0  0  0  0  0  0  0  0
    0.0792   -2.0790   -1.3172 H   0  0  0  0  0  0  0  0  0  0  0  0
    0.2032   -0.2878   -1.6105 H   0  0  0  0  0  0  0  0  0  0  0  0
    2.1891   -0.1915   -0.1178 H   0  0  0  0  0  0  0  0  0  0  0  0
    2.0859   -1.9740    0.1469 H   0  0  0  0  0  0  0  0  0  0  0  0
    2.3255   -2.3199   -2.3559 H   0  0  0  0  0  0  0  0  0  0  0  0
    2.5510   -0.5521   -2.5701 H   0  0  0  0  0  0  0  0  0  0  0  0
    4.3453   -2.3634   -0.8051 H   0  0  0  0  0  0  0  0  0  0  0  0
    4.6767   -1.9543   -2.5212 H   0  0  0  0  0  0  0  0  0  0  0  0
    4.6925    0.5080   -1.9184 H   0  0  0  0  0  0  0  0  0  0  0  0
    4.4879    0.0552   -0.1820 H   0  0  0  0  0  0  0  0  0  0  0  0
    6.5963   -1.2833   -0.2811 H   0  0  0  0  0  0  0  0  0  0  0  0
    6.8231   -0.8014   -2.0064 H   0  0  0  0  0  0  0  0  0  0  0  0
    6.8231    1.6282   -1.2889 H   0  0  0  0  0  0  0  0  0  0  0  0
    6.7275    1.1148    0.4281 H   0  0  0  0  0  0  0  0  0  0  0  0
    8.9863    0.2762   -1.5231 H   0  0  0  0  0  0  0  0  0  0  0  0
    9.0387    1.7289   -0.4724 H   0  0  0  0  0  0  0  0  0  0  0  0
    8.7353   -1.1785    0.5256 H   0  0  0  0  0  0  0  0  0  0  0  0
    8.7814    0.2729    1.5786 H   0  0  0  0  0  0  0  0  0  0  0  0
   11.0469   -0.5529   -0.3701 H   0  0  0  0  0  0  0  0  0  0  0  0
   10.9492   -1.0740    1.3446 H   0  0  0  0  0  0  0  0  0  0  0  0
   11.1742    1.8463    0.3531 H   0  0  0  0  0  0  0  0  0  0  0  0
   10.9471    1.3560    2.0742 H   0  0  0  0  0  0  0  0  0  0  0  0
   13.3342    1.8012    1.5477 H   0  0  0  0  0  0  0  0  0  0  0  0
   13.3057    0.5438    0.2537 H   0  0  0  0  0  0  0  0  0  0  0  0
   13.0895    0.0694    1.9892 H   0  0  0  0  0  0  0  0  0  0  0  0
   -4.2605   -0.9257    2.0219 H   0  0  0  0  0  0  0  0  0  0  0  0
   -5.3824   -2.6570    0.7264 H   0  0  0  0  0  0  0  0  0  0  0  0
   -3.8785   -3.2704    1.4546 H   0  0  0  0  0  0  0  0  0  0  0  0
   -4.4900   -2.8001   -1.2356 H   0  0  0  0  0  0  0  0  0  0  0  0
   -8.1755    0.0231   -1.8237 H   0  0  0  0  0  0  0  0  0  0  0  0
   -6.2457    0.6015   -2.7385 H   0  0  0  0  0  0  0  0  0  0  0  0
  1  2  1  0
  1  3  1  0
  3  4  1  0
  3  5  1  0
  5  6  1  0
  6  7  1  0
  5  8  1  0
  8  9  1  0
  9 10  1  0
 10 11  1  0
 11 12  1  0
 12 13  1  0
 12 14  1  0
 14 15  1  0
 14 16  1  0
 16 17  1  0
 17 18  1  0
 18 19  1  0
 19 20  1  0
 20 21  1  0
 21 22  1  0
 22 23  1  0
 23 24  1  0
 24 25  1  0
 25 26  1  0
 26 27  1  0
 27 28  1  0
 28 29  1  0
 16 30  1  0
 30 31  1  0
 31 32  1  0
 32 33  1  0
  9 34  1  0
 34 35  1  0
 34  1  1  0
 31 11  1  0
  1 36  1  1
  2 37  1  0
  3 38  1  6
  4 39  1  0
  5 40  1  1
  6 41  1  0
  6 42  1  0
  7 43  1  0
  9 44  1  6
 11 45  1  6
 12 46  1  1
 13 47  1  0
 14 48  1  6
 15 49  1  0
 16 50  1  6
 18 51  1  0
 18 52  1  0
 19 53  1  0
 19 54  1  0
 20 55  1  0
 20 56  1  0
 21 57  1  0
 21 58  1  0
 22 59  1  0
 22 60  1  0
 23 61  1  0
 23 62  1  0
 24 63  1  0
 24 64  1  0
 25 65  1  0
 25 66  1  0
 26 67  1  0
 26 68  1  0
 27 69  1  0
 27 70  1  0
 28 71  1  0
 28 72  1  0
 29 73  1  0
 29 74  1  0
 29 75  1  0
 31 76  1  1
 32 77  1  0
 32 78  1  0
 33 79  1  0
 34 80  1  6
 35 81  1  0
M  END
$$$$
