
     RDKit          3D

 30 33  0  0  0  0  0  0  0  0999 V2000
    1.0050    3.2898   -0.0965 O   0  0  0  0  0  0  0  0  0  0  0  0
    1.5874    2.1751   -0.0703 C   0  0  0  0  0  0  0  0  0  0  0  0
    2.9956    2.0510    0.0865 N   0  0  0  0  0  0  0  0  0  0  0  0
    3.2394    0.6529    0.1120 C   0  0  0  0  0  0  0  0  0  0  0  0
    2.0747   -0.0878   -0.0163 C   0  0  0  0  0  0  0  0  0  0  0  0
    2.1382   -1.4769   -0.1936 C   0  0  0  0  0  0  0  0  0  0  0  0
    3.3924   -2.1072   -0.1343 C   0  0  0  0  0  0  0  0  0  0  0  0
    4.5639   -1.3503    0.0532 C   0  0  0  0  0  0  0  0  0  0  0  0
    4.4939    0.0464    0.1593 C   0  0  0  0  0  0  0  0  0  0  0  0
    0.9373    0.8506   -0.1111 C   0  0  0  0  0  0  0  0  0  0  0  0
   -0.3830    0.5714   -0.1205 C   0  0  0  0  0  0  0  0  0  0  0  0
   -0.9424   -0.7068    0.2170 N   0  0  0  0  0  0  0  0  0  0  0  0
   -2.3570   -0.5406    0.1590 C   0  0  0  0  0  0  0  0  0  0  0  0
   -2.7177    0.7390   -0.1975 C   0  0  0  0  0  0  0  0  0  0  0  0
   -4.0532    1.1245   -0.3012 C   0  0  0  0  0  0  0  0  0  0  0  0
   -5.0406    0.1633   -0.0231 C   0  0  0  0  0  0  0  0  0  0  0  0
   -4.6751   -1.1465    0.3537 C   0  0  0  0  0  0  0  0  0  0  0  0
   -3.3193   -1.5068    0.4515 C   0  0  0  0  0  0  0  0  0  0  0  0
   -1.4972    1.4987   -0.3898 C   0  0  0  0  0  0  0  0  0  0  0  0
   -1.4315    2.6881   -0.7957 O   0  0  0  0  0  0  0  0  0  0  0  0
    3.6989    2.8210    0.1403 H   0  0  0  0  0  0  0  0  0  0  0  0
    1.2653   -2.0668   -0.4227 H   0  0  0  0  0  0  0  0  0  0  0  0
    3.4609   -3.1801   -0.2593 H   0  0  0  0  0  0  0  0  0  0  0  0
    5.5259   -1.8451    0.0842 H   0  0  0  0  0  0  0  0  0  0  0  0
    5.3940    0.6396    0.2558 H   0  0  0  0  0  0  0  0  0  0  0  0
   -0.4722   -1.4761    0.7402 H   0  0  0  0  0  0  0  0  0  0  0  0
   -4.3232    2.1344   -0.5812 H   0  0  0  0  0  0  0  0  0  0  0  0
   -6.0868    0.4311   -0.0935 H   0  0  0  0  0  0  0  0  0  0  0  0
   -5.4427   -1.8778    0.5707 H   0  0  0  0  0  0  0  0  0  0  0  0
   -3.0309   -2.5083    0.7431 H   0  0  0  0  0  0  0  0  0  0  0  0
  1  2  2  0
  2  3  1  0
  3  4  1  0
  4  5  2  0
  5  6  1  0
  6  7  2  0
  7  8  1  0
  8  9  2  0
  5 10  1  0
 10 11  2  0
 11 12  1  0
 12 13  1  0
 13 14  2  0
 14 15  1  0
 15 16  2  0
 16 17  1  0
 17 18  2  0
 14 19  1  0
 19 20  2  0
 10  2  1  0
 19 11  1  0
  9  4  1  0
 18 13  1  0
  3 21  1  0
  6 22  1  0
  7 23  1  0
  8 24  1  0
  9 25  1  0
 12 26  1  0
 15 27  1  0
 16 28  1  0
 17 29  1  0
 18 30  1  0
M  END
$$$$
