
     RDKit          3D

140148  0  0  0  0  0  0  0  0999 V2000
   -0.4934   -1.6361    1.3669 C   0  0  0  0  0  0  0  0  0  0  0  0
   -0.6686   -0.4117    0.4687 C   0  0  1  0  0  0  0  0  0  0  0  0
   -1.9122    0.1974    0.7641 O   0  0  0  0  0  0  0  0  0  0  0  0
   -2.2765    1.1205   -0.2577 C   0  0  2  0  0  0  0  0  0  0  0  0
   -1.1232    2.0964   -0.6109 C   0  0  0  0  0  0  0  0  0  0  0  0
   -0.0261    2.0504    0.4642 C   0  0  2  0  0  0  0  0  0  0  0  0
    1.0206    2.9453    0.1758 O   0  0  0  0  0  0  0  0  0  0  0  0
    0.4917    0.6035    0.6654 C   0  0  2  0  0  0  0  0  0  0  0  0
    1.5076    0.3180   -0.2876 O   0  0  0  0  0  0  0  0  0  0  0  0
    2.7264   -0.0452    0.3336 C   0  0  1  0  0  0  0  0  0  0  0  0
    3.6763   -0.6132   -0.7527 C   0  0  0  0  0  0  0  0  0  0  0  0
    4.7817    0.3922   -1.0858 C   0  0  2  0  0  0  0  0  0  0  0  0
    5.6404   -0.1562   -2.0520 O   0  0  0  0  0  0  0  0  0  0  0  0
    5.5613    0.7779    0.1952 C   0  0  2  0  0  0  0  0  0  0  0  0
    6.5574   -0.2042    0.4514 O   0  0  0  0  0  0  0  0  0  0  0  0
    7.8444    0.3708    0.5812 C   0  0  1  0  0  0  0  0  0  0  0  0
    8.7945   -0.6938    1.1891 C   0  0  0  0  0  0  0  0  0  0  0  0
    9.7382   -1.2545    0.1175 C   0  0  2  0  0  0  0  0  0  0  0  0
   10.6192   -2.1908    0.6834 O   0  0  0  0  0  0  0  0  0  0  0  0
   10.5321   -0.1092   -0.5533 C   0  0  2  0  0  0  0  0  0  0  0  0
   11.6769    0.1964    0.2331 O   0  0  0  0  0  0  0  0  0  0  0  0
   12.8724    0.0778   -0.5144 C   0  0  2  0  0  0  0  0  0  0  0  0
   13.1306   -1.2905   -0.7753 O   0  0  0  0  0  0  0  0  0  0  0  0
   14.1430   -1.4174   -1.7612 C   0  0  2  0  0  0  0  0  0  0  0  0
   14.4257   -2.9083   -1.9875 C   0  0  0  0  0  0  0  0  0  0  0  0
   14.8799   -3.5073   -0.8054 O   0  0  0  0  0  0  0  0  0  0  0  0
   15.4421   -0.6279   -1.3945 C   0  0  1  0  0  0  0  0  0  0  0  0
   15.6135    0.4174   -2.3195 O   0  0  0  0  0  0  0  0  0  0  0  0
   15.3753   -0.0406    0.0359 C   0  0  2  0  0  0  0  0  0  0  0  0
   15.6223   -1.0433    0.9934 O   0  0  0  0  0  0  0  0  0  0  0  0
   14.0316    0.6853    0.3112 C   0  0  1  0  0  0  0  0  0  0  0  0
   14.1669    2.0498    0.0040 O   0  0  0  0  0  0  0  0  0  0  0  0
    9.6523    1.1677   -0.6650 C   0  0  1  0  0  0  0  0  0  0  0  0
    9.9876    1.9666   -1.9242 C   0  0  0  0  0  0  0  0  0  0  0  0
    8.2811    0.8192   -0.6980 O   0  0  0  0  0  0  0  0  0  0  0  0
    4.5975    0.8421    1.4149 C   0  0  1  0  0  0  0  0  0  0  0  0
    5.0124    1.9367    2.3980 C   0  0  0  0  0  0  0  0  0  0  0  0
    3.2732    1.0972    0.9853 O   0  0  0  0  0  0  0  0  0  0  0  0
   -3.3828    1.8818    0.1916 O   0  0  0  0  0  0  0  0  0  0  0  0
   -4.5862    1.1315    0.1428 C   0  0  1  0  0  0  0  0  0  0  0  0
   -5.4286    1.4981    1.3696 C   0  0  0  0  0  0  0  0  0  0  0  0
   -6.8415    0.8873    1.3174 C   0  0  0  0  0  0  0  0  0  0  0  0
   -7.6325    1.1933    0.0006 C   0  0  1  0  0  0  0  0  0  0  0  0
   -7.9030    2.7329   -0.0274 C   0  0  0  0  0  0  0  0  0  0  0  0
   -6.7396    0.8031   -1.2347 C   0  0  2  0  0  0  0  0  0  0  0  0
   -6.5934   -0.7270   -1.5117 C   0  0  0  0  0  0  0  0  0  0  0  0
   -7.6392   -1.6124   -0.8352 C   0  0  0  0  0  0  0  0  0  0  0  0
   -9.0077   -0.9256   -0.8283 C   0  0  2  0  0  0  0  0  0  0  0  0
   -9.0145    0.3762    0.0135 C   0  0  2  0  0  0  0  0  0  0  0  0
  -10.3038    1.1804   -0.3528 C   0  0  0  0  0  0  0  0  0  0  0  0
  -11.5172    0.3268   -0.8281 C   0  0  1  0  0  0  0  0  0  0  0  0
  -11.5148    0.2720   -2.2360 O   0  0  0  0  0  0  0  0  0  0  0  0
  -11.5638   -1.1274   -0.2493 C   0  0  2  0  0  0  0  0  0  0  0  0
  -12.7226   -1.8979   -0.9565 C   0  0  0  0  0  0  0  0  0  0  0  0
  -11.8071   -1.1031    1.2917 C   0  0  2  0  0  0  0  0  0  0  0  0
  -11.1700   -2.3791    1.8155 C   0  0  0  0  0  0  0  0  0  0  0  0
   -9.9220   -2.5641    0.9686 C   0  0  0  0  0  0  0  0  0  0  0  0
  -10.1823   -1.8927   -0.4120 C   0  0  2  0  0  0  0  0  0  0  0  0
  -10.2763   -2.9302   -1.3672 O   0  0  0  0  0  0  0  0  0  0  0  0
  -13.2331   -0.8903    1.7699 C   0  0  0  0  0  0  0  0  0  0  0  0
  -14.1960   -1.8105    1.8167 C   0  0  0  0  0  0  0  0  0  0  0  0
  -15.3536   -1.1710    2.3893 C   0  0  0  0  0  0  0  0  0  0  0  0
  -16.4684   -1.7202    2.5870 O   0  0  0  0  0  0  0  0  0  0  0  0
  -15.0731    0.1435    2.7001 O   0  0  0  0  0  0  0  0  0  0  0  0
  -13.7215    0.4150    2.3492 C   0  0  0  0  0  0  0  0  0  0  0  0
   -5.3363    1.4579   -1.1672 C   0  0  0  0  0  0  0  0  0  0  0  0
    0.4599   -2.1543    1.1316 H   0  0  0  0  0  0  0  0  0  0  0  0
   -1.3292   -2.3476    1.1964 H   0  0  0  0  0  0  0  0  0  0  0  0
   -0.4952   -1.3386    2.4373 H   0  0  0  0  0  0  0  0  0  0  0  0
   -0.6671   -0.7874   -0.5832 H   0  0  0  0  0  0  0  0  0  0  0  0
   -2.5415    0.5631   -1.1892 H   0  0  0  0  0  0  0  0  0  0  0  0
   -0.6853    1.8042   -1.5913 H   0  0  0  0  0  0  0  0  0  0  0  0
   -1.5028    3.1368   -0.7152 H   0  0  0  0  0  0  0  0  0  0  0  0
   -0.4893    2.3857    1.4194 H   0  0  0  0  0  0  0  0  0  0  0  0
    1.3319    2.7670   -0.7498 H   0  0  0  0  0  0  0  0  0  0  0  0
    0.8477    0.5527    1.7249 H   0  0  0  0  0  0  0  0  0  0  0  0
    2.5439   -0.8556    1.0796 H   0  0  0  0  0  0  0  0  0  0  0  0
    3.1117   -0.8690   -1.6765 H   0  0  0  0  0  0  0  0  0  0  0  0
    4.1428   -1.5529   -0.3812 H   0  0  0  0  0  0  0  0  0  0  0  0
    4.2906    1.3040   -1.5035 H   0  0  0  0  0  0  0  0  0  0  0  0
    6.1530    0.6008   -2.4391 H   0  0  0  0  0  0  0  0  0  0  0  0
    5.9809    1.7958   -0.0025 H   0  0  0  0  0  0  0  0  0  0  0  0
    7.8084    1.2324    1.2898 H   0  0  0  0  0  0  0  0  0  0  0  0
    9.4029   -0.2291    1.9969 H   0  0  0  0  0  0  0  0  0  0  0  0
    8.2127   -1.5221    1.6506 H   0  0  0  0  0  0  0  0  0  0  0  0
    9.1191   -1.7563   -0.6649 H   0  0  0  0  0  0  0  0  0  0  0  0
   10.0928   -3.0157    0.8514 H   0  0  0  0  0  0  0  0  0  0  0  0
   10.7822   -0.4760   -1.5804 H   0  0  0  0  0  0  0  0  0  0  0  0
   12.7786    0.6581   -1.4670 H   0  0  0  0  0  0  0  0  0  0  0  0
   13.7438   -1.0406   -2.7325 H   0  0  0  0  0  0  0  0  0  0  0  0
   13.4883   -3.4082   -2.3206 H   0  0  0  0  0  0  0  0  0  0  0  0
   15.1878   -3.0267   -2.7906 H   0  0  0  0  0  0  0  0  0  0  0  0
   15.0459   -4.4604   -1.0260 H   0  0  0  0  0  0  0  0  0  0  0  0
   16.3301   -1.3021   -1.4518 H   0  0  0  0  0  0  0  0  0  0  0  0
   16.5635    0.7018   -2.2661 H   0  0  0  0  0  0  0  0  0  0  0  0
   16.2009    0.6974    0.1445 H   0  0  0  0  0  0  0  0  0  0  0  0
   14.8242   -1.6290    1.0456 H   0  0  0  0  0  0  0  0  0  0  0  0
   13.8080    0.5840    1.4001 H   0  0  0  0  0  0  0  0  0  0  0  0
   13.3871    2.5132    0.4083 H   0  0  0  0  0  0  0  0  0  0  0  0
    9.8538    1.8426    0.2019 H   0  0  0  0  0  0  0  0  0  0  0  0
    9.8076    1.3551   -2.8342 H   0  0  0  0  0  0  0  0  0  0  0  0
    9.3458    2.8717   -1.9745 H   0  0  0  0  0  0  0  0  0  0  0  0
   11.0486    2.2926   -1.9043 H   0  0  0  0  0  0  0  0  0  0  0  0
    4.6363   -0.1216    1.9781 H   0  0  0  0  0  0  0  0  0  0  0  0
    5.0034    2.9309    1.9022 H   0  0  0  0  0  0  0  0  0  0  0  0
    6.0276    1.7342    2.7982 H   0  0  0  0  0  0  0  0  0  0  0  0
    4.3017    1.9615    3.2512 H   0  0  0  0  0  0  0  0  0  0  0  0
   -4.4003    0.0344    0.2104 H   0  0  0  0  0  0  0  0  0  0  0  0
   -5.4761    2.5996    1.4914 H   0  0  0  0  0  0  0  0  0  0  0  0
   -4.9144    1.1140    2.2779 H   0  0  0  0  0  0  0  0  0  0  0  0
   -6.7399   -0.2041    1.4702 H   0  0  0  0  0  0  0  0  0  0  0  0
   -7.4142    1.2679    2.1920 H   0  0  0  0  0  0  0  0  0  0  0  0
   -8.2922    3.0630   -1.0117 H   0  0  0  0  0  0  0  0  0  0  0  0
   -6.9949    3.3408    0.1314 H   0  0  0  0  0  0  0  0  0  0  0  0
   -8.6158    3.0237    0.7727 H   0  0  0  0  0  0  0  0  0  0  0  0
   -7.2436    1.2254   -2.1340 H   0  0  0  0  0  0  0  0  0  0  0  0
   -6.6627   -0.8849   -2.6113 H   0  0  0  0  0  0  0  0  0  0  0  0
   -5.5951   -1.1166   -1.2273 H   0  0  0  0  0  0  0  0  0  0  0  0
   -7.7006   -2.5688   -1.3986 H   0  0  0  0  0  0  0  0  0  0  0  0
   -7.3053   -1.8745    0.1860 H   0  0  0  0  0  0  0  0  0  0  0  0
   -9.1820   -0.6253   -1.8869 H   0  0  0  0  0  0  0  0  0  0  0  0
   -9.1666    0.0776    1.0679 H   0  0  0  0  0  0  0  0  0  0  0  0
  -10.6158    1.7797    0.5307 H   0  0  0  0  0  0  0  0  0  0  0  0
  -10.0919    1.8975   -1.1688 H   0  0  0  0  0  0  0  0  0  0  0  0
  -12.4470    0.8490   -0.4995 H   0  0  0  0  0  0  0  0  0  0  0  0
  -11.8897    1.1309   -2.5648 H   0  0  0  0  0  0  0  0  0  0  0  0
  -12.8270   -2.9253   -0.5494 H   0  0  0  0  0  0  0  0  0  0  0  0
  -12.5528   -1.9882   -2.0491 H   0  0  0  0  0  0  0  0  0  0  0  0
  -13.6880   -1.3618   -0.8395 H   0  0  0  0  0  0  0  0  0  0  0  0
  -11.2276   -0.2688    1.7364 H   0  0  0  0  0  0  0  0  0  0  0  0
  -10.9189   -2.2928    2.8957 H   0  0  0  0  0  0  0  0  0  0  0  0
  -11.8370   -3.2551    1.6687 H   0  0  0  0  0  0  0  0  0  0  0  0
   -9.0743   -2.1050    1.5163 H   0  0  0  0  0  0  0  0  0  0  0  0
   -9.6892   -3.6470    0.8641 H   0  0  0  0  0  0  0  0  0  0  0  0
  -10.3400   -2.5211   -2.2692 H   0  0  0  0  0  0  0  0  0  0  0  0
  -14.1279   -2.8413    1.4975 H   0  0  0  0  0  0  0  0  0  0  0  0
  -13.6769    1.2260    1.5930 H   0  0  0  0  0  0  0  0  0  0  0  0
  -13.1385    0.6835    3.2554 H   0  0  0  0  0  0  0  0  0  0  0  0
   -4.7307    1.1119   -2.0329 H   0  0  0  0  0  0  0  0  0  0  0  0
   -5.4215    2.5589   -1.2827 H   0  0  0  0  0  0  0  0  0  0  0  0
  1  2  1  0
  2  3  1  0
  3  4  1  0
  4  5  1  0
  5  6  1  0
  6  7  1  0
  6  8  1  0
  8  9  1  0
  9 10  1  0
 10 11  1  0
 11 12  1  0
 12 13  1  0
 12 14  1  0
 14 15  1  0
 15 16  1  0
 16 17  1  0
 17 18  1  0
 18 19  1  0
 18 20  1  0
 20 21  1  0
 21 22  1  0
 22 23  1  0
 23 24  1  0
 24 25  1  0
 25 26  1  0
 24 27  1  0
 27 28  1  0
 27 29  1  0
 29 30  1  0
 29 31  1  0
 31 32  1  0
 20 33  1  0
 33 34  1  0
 33 35  1  0
 14 36  1  0
 36 37  1  0
 36 38  1  0
  4 39  1  0
 39 40  1  0
 40 41  1  0
 41 42  1  0
 42 43  1  0
 43 44  1  6
 43 45  1  0
 45 46  1  0
 46 47  1  0
 47 48  1  0
 48 49  1  0
 49 50  1  0
 50 51  1  0
 51 52  1  0
 51 53  1  0
 53 54  1  6
 53 55  1  0
 55 56  1  0
 56 57  1  0
 57 58  1  0
 58 59  1  6
 55 60  1  0
 60 61  2  0
 61 62  1  0
 62 63  2  0
 62 64  1  0
 64 65  1  0
 45 66  1  0
  8  2  1  0
 38 10  1  0
 66 40  1  0
 35 16  1  0
 49 43  1  0
 58 53  1  0
 65 60  1  0
 31 22  1  0
 58 48  1  0
  1 67  1  0
  1 68  1  0
  1 69  1  0
  2 70  1  6
  4 71  1  6
  5 72  1  0
  5 73  1  0
  6 74  1  1
  7 75  1  0
  8 76  1  1
 10 77  1  1
 11 78  1  0
 11 79  1  0
 12 80  1  6
 13 81  1  0
 14 82  1  6
 16 83  1  1
 17 84  1  0
 17 85  1  0
 18 86  1  6
 19 87  1  0
 20 88  1  6
 22 89  1  6
 24 90  1  6
 25 91  1  0
 25 92  1  0
 26 93  1  0
 27 94  1  1
 28 95  1  0
 29 96  1  6
 30 97  1  0
 31 98  1  1
 32 99  1  0
 33100  1  1
 34101  1  0
 34102  1  0
 34103  1  0
 36104  1  1
 37105  1  0
 37106  1  0
 37107  1  0
 40108  1  6
 41109  1  0
 41110  1  0
 42111  1  0
 42112  1  0
 44113  1  0
 44114  1  0
 44115  1  0
 45116  1  6
 46117  1  0
 46118  1  0
 47119  1  0
 47120  1  0
 48121  1  6
 49122  1  1
 50123  1  0
 50124  1  0
 51125  1  6
 52126  1  0
 54127  1  0
 54128  1  0
 54129  1  0
 55130  1  1
 56131  1  0
 56132  1  0
 57133  1  0
 57134  1  0
 59135  1  0
 61136  1  0
 65137  1  0
 65138  1  0
 66139  1  0
 66140  1  0
M  END
$$$$
