
     RDKit          3D

 18 18  0  0  0  0  0  0  0  0999 V2000
    3.0169   -0.5477   -0.5348 N   0  0  0  0  0  0  0  0  0  0  0  0
    2.0420    0.3321    0.0309 C   0  0  0  0  0  0  0  0  0  0  0  0
    2.4177    1.4453    0.4874 O   0  0  0  0  0  0  0  0  0  0  0  0
    0.6079   -0.0486    0.0884 C   0  0  0  0  0  0  0  0  0  0  0  0
    0.2550   -1.4006    0.2416 C   0  0  0  0  0  0  0  0  0  0  0  0
   -1.0837   -1.7810    0.3104 C   0  0  0  0  0  0  0  0  0  0  0  0
   -2.0889   -0.8202    0.2338 C   0  0  0  0  0  0  0  0  0  0  0  0
   -1.7710    0.5334    0.0873 C   0  0  0  0  0  0  0  0  0  0  0  0
   -2.8302    1.4421    0.0264 O   0  0  0  0  0  0  0  0  0  0  0  0
   -0.4117    0.9304    0.0075 C   0  0  0  0  0  0  0  0  0  0  0  0
   -0.0465    2.2690   -0.1685 O   0  0  0  0  0  0  0  0  0  0  0  0
    2.7385   -1.4219   -1.0323 H   0  0  0  0  0  0  0  0  0  0  0  0
    4.0276   -0.2859   -0.5203 H   0  0  0  0  0  0  0  0  0  0  0  0
    1.0143   -2.1664    0.3331 H   0  0  0  0  0  0  0  0  0  0  0  0
   -1.3432   -2.8248    0.4324 H   0  0  0  0  0  0  0  0  0  0  0  0
   -3.1252   -1.1283    0.2935 H   0  0  0  0  0  0  0  0  0  0  0  0
   -2.7178    2.4418   -0.0559 H   0  0  0  0  0  0  0  0  0  0  0  0
   -0.7016    3.0313   -0.2609 H   0  0  0  0  0  0  0  0  0  0  0  0
  1  2  1  0
  2  3  2  0
  2  4  1  0
  4  5  2  0
  5  6  1  0
  6  7  2  0
  7  8  1  0
  8  9  1  0
  8 10  2  0
 10 11  1  0
 10  4  1  0
  1 12  1  0
  1 13  1  0
  5 14  1  0
  6 15  1  0
  7 16  1  0
  9 17  1  0
 11 18  1  0
M  END
$$$$
