
     RDKit          3D

 36 37  0  0  0  0  0  0  0  0999 V2000
    2.5469    1.9748   -1.0253 O   0  0  0  0  0  0  0  0  0  0  0  0
    2.6150    1.9670    0.3643 C   0  0  0  0  0  0  0  0  0  0  0  0
    3.6713    2.3320    0.9460 O   0  0  0  0  0  0  0  0  0  0  0  0
    1.4214    1.5545    1.1644 C   0  0  0  0  0  0  0  0  0  0  0  0
    0.8846    0.3315    0.6627 O   0  0  0  0  0  0  0  0  0  0  0  0
    1.4776   -0.9377    0.7935 C   0  0  0  0  0  0  0  0  0  0  0  0
    2.6458   -1.1394    1.5567 C   0  0  0  0  0  0  0  0  0  0  0  0
    3.1852   -2.4198    1.7009 C   0  0  0  0  0  0  0  0  0  0  0  0
    4.3068   -2.6028    2.4405 F   0  0  0  0  0  0  0  0  0  0  0  0
    2.5695   -3.5115    1.0892 C   0  0  0  0  0  0  0  0  0  0  0  0
    1.4173   -3.3267    0.3238 C   0  0  0  0  0  0  0  0  0  0  0  0
    0.8674   -2.0427    0.1615 C   0  0  0  0  0  0  0  0  0  0  0  0
   -0.3334   -1.8532   -0.6819 C   0  0  0  0  0  0  0  0  0  0  0  0
   -1.6155   -2.8671   -0.5069 S   0  0  0  0  0  0  0  0  0  0  0  0
   -0.3390   -0.8213   -1.6845 N   0  0  0  0  0  0  0  0  0  0  0  0
   -1.5546   -0.2818   -2.2932 C   0  0  0  0  0  0  0  0  0  0  0  0
   -2.2698    0.6125   -1.3148 C   0  0  0  0  0  0  0  0  0  0  0  0
   -1.6636    1.8129   -0.9078 C   0  0  0  0  0  0  0  0  0  0  0  0
   -2.2946    2.6447    0.0209 C   0  0  0  0  0  0  0  0  0  0  0  0
   -3.5381    2.2879    0.5496 C   0  0  0  0  0  0  0  0  0  0  0  0
   -4.3972    3.4244    1.8213 Br  0  0  0  0  0  0  0  0  0  0  0  0
   -4.1524    1.0985    0.1461 C   0  0  0  0  0  0  0  0  0  0  0  0
   -3.5250    0.2610   -0.7825 C   0  0  0  0  0  0  0  0  0  0  0  0
   -4.1450   -0.8856   -1.1599 F   0  0  0  0  0  0  0  0  0  0  0  0
    3.3434    2.2588   -1.5829 H   0  0  0  0  0  0  0  0  0  0  0  0
    0.6493    2.3450    1.0680 H   0  0  0  0  0  0  0  0  0  0  0  0
    1.6668    1.4584    2.2440 H   0  0  0  0  0  0  0  0  0  0  0  0
    3.1411   -0.3160    2.0507 H   0  0  0  0  0  0  0  0  0  0  0  0
    2.9888   -4.5031    1.2023 H   0  0  0  0  0  0  0  0  0  0  0  0
    0.9656   -4.1846   -0.1588 H   0  0  0  0  0  0  0  0  0  0  0  0
    0.5695   -0.3717   -1.9400 H   0  0  0  0  0  0  0  0  0  0  0  0
   -2.1991   -1.1074   -2.6618 H   0  0  0  0  0  0  0  0  0  0  0  0
   -1.2770    0.3224   -3.1841 H   0  0  0  0  0  0  0  0  0  0  0  0
   -0.6976    2.0995   -1.3055 H   0  0  0  0  0  0  0  0  0  0  0  0
   -1.8150    3.5644    0.3306 H   0  0  0  0  0  0  0  0  0  0  0  0
   -5.1167    0.8222    0.5531 H   0  0  0  0  0  0  0  0  0  0  0  0
  1  2  1  0
  2  3  2  0
  2  4  1  0
  4  5  1  0
  5  6  1  0
  6  7  2  0
  7  8  1  0
  8  9  1  0
  8 10  2  0
 10 11  1  0
 11 12  2  0
 12 13  1  0
 13 14  2  0
 13 15  1  0
 15 16  1  0
 16 17  1  0
 17 18  2  0
 18 19  1  0
 19 20  2  0
 20 21  1  0
 20 22  1  0
 22 23  2  0
 23 24  1  0
 12  6  1  0
 23 17  1  0
  1 25  1  0
  4 26  1  0
  4 27  1  0
  7 28  1  0
 10 29  1  0
 11 30  1  0
 15 31  1  0
 16 32  1  0
 16 33  1  0
 18 34  1  0
 19 35  1  0
 22 36  1  0
M  END
$$$$
