
     RDKit          3D

 39 40  0  0  0  0  0  0  0  0999 V2000
   -5.1859   -1.6708    0.7914 O   0  0  0  0  0  0  0  0  0  0  0  0
   -4.0992   -0.9323    0.3234 C   0  0  0  0  0  0  0  0  0  0  0  0
   -4.1669    0.4614    0.2867 C   0  0  0  0  0  0  0  0  0  0  0  0
   -3.0832    1.2134   -0.1732 C   0  0  0  0  0  0  0  0  0  0  0  0
   -3.1653    2.6068   -0.1876 O   0  0  0  0  0  0  0  0  0  0  0  0
   -1.9089    0.5712   -0.6068 C   0  0  0  0  0  0  0  0  0  0  0  0
   -1.8334   -0.8508   -0.5908 C   0  0  0  0  0  0  0  0  0  0  0  0
   -0.6288   -1.5877   -1.1519 C   0  0  0  0  0  0  0  0  0  0  0  0
    0.1938   -2.2757   -0.0834 C   0  0  0  0  0  0  0  0  0  0  0  0
    0.4371   -3.4680   -0.1955 O   0  0  0  0  0  0  0  0  0  0  0  0
    0.7594   -1.5240    1.0967 C   0  0  0  0  0  0  0  0  0  0  0  0
    2.2923   -1.3857    1.0392 C   0  0  0  0  0  0  0  0  0  0  0  0
    2.8067   -0.8274   -0.3050 C   0  0  0  0  0  0  0  0  0  0  0  0
    3.9507    0.1392   -0.1462 C   0  0  0  0  0  0  0  0  0  0  0  0
    3.8194    1.4315    0.2137 C   0  0  0  0  0  0  0  0  0  0  0  0
    2.5307    2.0972    0.6424 C   0  0  0  0  0  0  0  0  0  0  0  0
    1.5078    2.2711   -0.4946 C   0  0  0  0  0  0  0  0  0  0  0  0
    0.3900    1.4225   -0.2511 O   0  0  0  0  0  0  0  0  0  0  0  0
   -0.7706    1.4141   -1.0257 C   0  0  0  0  0  0  0  0  0  0  0  0
   -0.8776    2.1631   -2.0345 O   0  0  0  0  0  0  0  0  0  0  0  0
   -2.9433   -1.5915   -0.1152 C   0  0  0  0  0  0  0  0  0  0  0  0
   -2.9265   -3.3569   -0.0816 Cl  0  0  0  0  0  0  0  0  0  0  0  0
   -6.0354   -1.2214    1.1130 H   0  0  0  0  0  0  0  0  0  0  0  0
   -5.0650    0.9640    0.6234 H   0  0  0  0  0  0  0  0  0  0  0  0
   -3.9974    3.0945    0.1234 H   0  0  0  0  0  0  0  0  0  0  0  0
   -0.9877   -2.3425   -1.8853 H   0  0  0  0  0  0  0  0  0  0  0  0
    0.0219   -0.9172   -1.7438 H   0  0  0  0  0  0  0  0  0  0  0  0
    0.3006   -0.5219    1.1794 H   0  0  0  0  0  0  0  0  0  0  0  0
    0.4829   -2.0661    2.0264 H   0  0  0  0  0  0  0  0  0  0  0  0
    2.6095   -0.7380    1.8847 H   0  0  0  0  0  0  0  0  0  0  0  0
    2.7535   -2.3822    1.2166 H   0  0  0  0  0  0  0  0  0  0  0  0
    3.1548   -1.6816   -0.9255 H   0  0  0  0  0  0  0  0  0  0  0  0
    2.0123   -0.3411   -0.8916 H   0  0  0  0  0  0  0  0  0  0  0  0
    4.9422   -0.2141   -0.4151 H   0  0  0  0  0  0  0  0  0  0  0  0
    4.7220    2.0350    0.2517 H   0  0  0  0  0  0  0  0  0  0  0  0
    2.7891    3.1049    1.0348 H   0  0  0  0  0  0  0  0  0  0  0  0
    2.0855    1.5423    1.4950 H   0  0  0  0  0  0  0  0  0  0  0  0
    1.1599    3.3273   -0.5151 H   0  0  0  0  0  0  0  0  0  0  0  0
    1.9531    2.0377   -1.4866 H   0  0  0  0  0  0  0  0  0  0  0  0
  1  2  1  0
  2  3  2  0
  3  4  1  0
  4  5  1  0
  4  6  2  0
  6  7  1  0
  7  8  1  0
  8  9  1  0
  9 10  2  0
  9 11  1  0
 11 12  1  0
 12 13  1  0
 13 14  1  0
 14 15  2  0
 15 16  1  0
 16 17  1  0
 17 18  1  0
 18 19  1  0
 19 20  2  0
  7 21  2  0
 21 22  1  0
 21  2  1  0
 19  6  1  0
  1 23  1  0
  3 24  1  0
  5 25  1  0
  8 26  1  0
  8 27  1  0
 11 28  1  0
 11 29  1  0
 12 30  1  0
 12 31  1  0
 13 32  1  0
 13 33  1  0
 14 34  1  0
 15 35  1  0
 16 36  1  0
 16 37  1  0
 17 38  1  0
 17 39  1  0
M  END
$$$$
