
     RDKit          3D

 52 54  0  0  0  0  0  0  0  0999 V2000
    8.1248    1.8105   -0.7182 O   0  0  0  0  0  0  0  0  0  0  0  0
    7.3649    0.7620   -1.2271 C   0  0  0  0  0  0  0  0  0  0  0  0
    7.6121    0.3034   -2.3745 O   0  0  0  0  0  0  0  0  0  0  0  0
    6.2248    0.2129   -0.4295 C   0  0  0  0  0  0  0  0  0  0  0  0
    4.9409    0.9954   -0.7208 C   0  0  0  0  0  0  0  0  0  0  0  0
    3.7632    0.4481    0.0959 C   0  0  0  0  0  0  0  0  0  0  0  0
    2.5402    1.2333   -0.1758 N   0  0  0  0  0  0  0  0  0  0  0  0
    1.8483    0.7911   -1.4183 C   0  0  0  0  0  0  0  0  0  0  0  0
    0.6185   -0.0841   -1.1370 C   0  0  0  0  0  0  0  0  0  0  0  0
   -0.4257    0.6639   -0.2769 C   0  0  0  0  0  0  0  0  0  0  0  0
    0.2368    1.6971    0.6580 C   0  0  0  0  0  0  0  0  0  0  0  0
    1.6645    1.2770    1.0206 C   0  0  0  0  0  0  0  0  0  0  0  0
   -1.1400   -0.2721    0.5164 O   0  0  0  0  0  0  0  0  0  0  0  0
   -2.3132   -0.7283   -0.1385 C   0  0  0  0  0  0  0  0  0  0  0  0
   -3.4417    0.2648    0.0389 C   0  0  0  0  0  0  0  0  0  0  0  0
   -3.6777    0.8671    1.2881 C   0  0  0  0  0  0  0  0  0  0  0  0
   -4.7340    1.7684    1.4492 C   0  0  0  0  0  0  0  0  0  0  0  0
   -5.5692    2.0704    0.3692 C   0  0  0  0  0  0  0  0  0  0  0  0
   -6.8949    3.2006    0.5737 Cl  0  0  0  0  0  0  0  0  0  0  0  0
   -5.3491    1.4670   -0.8730 C   0  0  0  0  0  0  0  0  0  0  0  0
   -4.2933    0.5654   -1.0379 C   0  0  0  0  0  0  0  0  0  0  0  0
   -2.7274   -2.0490    0.4532 C   0  0  0  0  0  0  0  0  0  0  0  0
   -3.4360   -2.9854   -0.3163 C   0  0  0  0  0  0  0  0  0  0  0  0
   -3.8453   -4.1851    0.2691 C   0  0  0  0  0  0  0  0  0  0  0  0
   -3.5570   -4.4376    1.6111 C   0  0  0  0  0  0  0  0  0  0  0  0
   -2.8638   -3.4788    2.3524 C   0  0  0  0  0  0  0  0  0  0  0  0
   -2.4731   -2.3160    1.7658 N   0  0  0  0  0  0  0  0  0  0  0  0
    8.8899    2.2046   -1.2526 H   0  0  0  0  0  0  0  0  0  0  0  0
    6.0792   -0.8601   -0.6832 H   0  0  0  0  0  0  0  0  0  0  0  0
    6.4736    0.2833    0.6516 H   0  0  0  0  0  0  0  0  0  0  0  0
    5.0931    2.0664   -0.4610 H   0  0  0  0  0  0  0  0  0  0  0  0
    4.7142    0.9302   -1.8066 H   0  0  0  0  0  0  0  0  0  0  0  0
    4.0443    0.5219    1.1720 H   0  0  0  0  0  0  0  0  0  0  0  0
    3.5991   -0.6305   -0.1290 H   0  0  0  0  0  0  0  0  0  0  0  0
    1.5222    1.6941   -1.9781 H   0  0  0  0  0  0  0  0  0  0  0  0
    2.5287    0.2350   -2.0997 H   0  0  0  0  0  0  0  0  0  0  0  0
    0.1567   -0.3920   -2.0999 H   0  0  0  0  0  0  0  0  0  0  0  0
    0.9537   -1.0074   -0.6148 H   0  0  0  0  0  0  0  0  0  0  0  0
   -1.0984    1.2437   -0.9550 H   0  0  0  0  0  0  0  0  0  0  0  0
   -0.3660    1.8210    1.5843 H   0  0  0  0  0  0  0  0  0  0  0  0
    0.2757    2.6886    0.1545 H   0  0  0  0  0  0  0  0  0  0  0  0
    2.0788    2.0126    1.7435 H   0  0  0  0  0  0  0  0  0  0  0  0
    1.6267    0.2841    1.5260 H   0  0  0  0  0  0  0  0  0  0  0  0
   -2.1137   -0.8977   -1.2243 H   0  0  0  0  0  0  0  0  0  0  0  0
   -3.0442    0.6387    2.1361 H   0  0  0  0  0  0  0  0  0  0  0  0
   -4.9036    2.2291    2.4140 H   0  0  0  0  0  0  0  0  0  0  0  0
   -5.9963    1.6938   -1.7105 H   0  0  0  0  0  0  0  0  0  0  0  0
   -4.1407    0.1022   -2.0047 H   0  0  0  0  0  0  0  0  0  0  0  0
   -3.6709   -2.7863   -1.3546 H   0  0  0  0  0  0  0  0  0  0  0  0
   -4.3887   -4.9161   -0.3156 H   0  0  0  0  0  0  0  0  0  0  0  0
   -3.8718   -5.3641    2.0734 H   0  0  0  0  0  0  0  0  0  0  0  0
   -2.6394   -3.6569    3.3955 H   0  0  0  0  0  0  0  0  0  0  0  0
  1  2  1  0
  2  3  2  0
  2  4  1  0
  4  5  1  0
  5  6  1  0
  6  7  1  0
  7  8  1  0
  8  9  1  0
  9 10  1  0
 10 11  1  0
 11 12  1  0
 10 13  1  0
 13 14  1  0
 14 15  1  0
 15 16  2  0
 16 17  1  0
 17 18  2  0
 18 19  1  0
 18 20  1  0
 20 21  2  0
 14 22  1  0
 22 23  2  0
 23 24  1  0
 24 25  2  0
 25 26  1  0
 26 27  2  0
 12  7  1  0
 21 15  1  0
 27 22  1  0
  1 28  1  0
  4 29  1  0
  4 30  1  0
  5 31  1  0
  5 32  1  0
  6 33  1  0
  6 34  1  0
  8 35  1  0
  8 36  1  0
  9 37  1  0
  9 38  1  0
 10 39  1  0
 11 40  1  0
 11 41  1  0
 12 42  1  0
 12 43  1  0
 14 44  1  0
 16 45  1  0
 17 46  1  0
 20 47  1  0
 21 48  1  0
 23 49  1  0
 24 50  1  0
 25 51  1  0
 26 52  1  0
M  END
$$$$
