
     RDKit          3D

 62 66  0  0  0  0  0  0  0  0999 V2000
   -4.5367    0.4066   -1.7353 C   0  0  2  0  0  0  0  0  0  0  0  0
   -4.3104   -0.2509   -3.1101 C   0  0  0  0  0  0  0  0  0  0  0  0
   -3.1744    0.8522   -1.1644 C   0  0  0  0  0  0  0  0  0  0  0  0
   -2.3901   -0.2885   -0.8193 O   0  0  0  0  0  0  0  0  0  0  0  0
   -1.1048   -0.2298   -0.2621 C   0  0  0  0  0  0  0  0  0  0  0  0
   -0.4536    0.9873    0.0095 C   0  0  0  0  0  0  0  0  0  0  0  0
    0.8305    0.9925    0.5615 C   0  0  0  0  0  0  0  0  0  0  0  0
    1.4883   -0.2160    0.8522 C   0  0  0  0  0  0  0  0  0  0  0  0
    0.8293   -1.4283    0.5840 C   0  0  0  0  0  0  0  0  0  0  0  0
   -0.4534   -1.4319    0.0308 C   0  0  0  0  0  0  0  0  0  0  0  0
    2.8983   -0.2328    1.4157 C   0  0  2  0  0  0  0  0  0  0  0  0
    3.0503    0.7968    2.4009 O   0  0  0  0  0  0  0  0  0  0  0  0
    3.7511    2.0012    2.2305 C   0  0  0  0  0  0  0  0  0  0  0  0
    4.2985    2.3850    0.9889 C   0  0  0  0  0  0  0  0  0  0  0  0
    3.9657    1.4551   -0.5093 S   0  0  0  0  0  0  0  0  0  0  0  0
    4.0033   -0.1641    0.3323 C   0  0  2  0  0  0  0  0  0  0  0  0
    3.9141   -1.3170   -0.6517 C   0  0  0  0  0  0  0  0  0  0  0  0
    4.6454   -2.4926   -0.4053 C   0  0  0  0  0  0  0  0  0  0  0  0
    4.5437   -3.5872   -1.2687 C   0  0  0  0  0  0  0  0  0  0  0  0
    3.6990   -3.5282   -2.3840 C   0  0  0  0  0  0  0  0  0  0  0  0
    3.5881   -4.6138   -3.2498 O   0  0  0  0  0  0  0  0  0  0  0  0
    2.9557   -2.3707   -2.6295 C   0  0  0  0  0  0  0  0  0  0  0  0
    3.0565   -1.2736   -1.7697 C   0  0  0  0  0  0  0  0  0  0  0  0
    5.0926    3.5353    0.9034 C   0  0  0  0  0  0  0  0  0  0  0  0
    5.3057    4.3331    2.0317 C   0  0  0  0  0  0  0  0  0  0  0  0
    6.0891    5.4800    1.9255 O   0  0  0  0  0  0  0  0  0  0  0  0
    4.7253    3.9755    3.2549 C   0  0  0  0  0  0  0  0  0  0  0  0
    3.9529    2.8151    3.3513 C   0  0  0  0  0  0  0  0  0  0  0  0
   -5.2228   -0.5323   -0.8069 N   0  0  0  0  0  0  0  0  0  0  0  0
   -5.4870    0.0616    0.5105 C   0  0  0  0  0  0  0  0  0  0  0  0
   -6.6745   -0.6783    1.1035 C   0  0  0  0  0  0  0  0  0  0  0  0
   -7.3706   -1.3315   -0.0761 C   0  0  0  0  0  0  0  0  0  0  0  0
   -6.5443   -0.9505   -1.2941 C   0  0  0  0  0  0  0  0  0  0  0  0
   -5.1571    1.3192   -1.8908 H   0  0  0  0  0  0  0  0  0  0  0  0
   -3.7809   -1.2209   -2.9950 H   0  0  0  0  0  0  0  0  0  0  0  0
   -5.2769   -0.4277   -3.6260 H   0  0  0  0  0  0  0  0  0  0  0  0
   -3.7075    0.4126   -3.7664 H   0  0  0  0  0  0  0  0  0  0  0  0
   -3.3299    1.4861   -0.2654 H   0  0  0  0  0  0  0  0  0  0  0  0
   -2.6320    1.4674   -1.9155 H   0  0  0  0  0  0  0  0  0  0  0  0
   -0.9286    1.9348   -0.2041 H   0  0  0  0  0  0  0  0  0  0  0  0
    1.3075    1.9431    0.7579 H   0  0  0  0  0  0  0  0  0  0  0  0
    1.3154   -2.3741    0.7896 H   0  0  0  0  0  0  0  0  0  0  0  0
   -0.9432   -2.3751   -0.1755 H   0  0  0  0  0  0  0  0  0  0  0  0
    3.0371   -1.1950    1.9569 H   0  0  0  0  0  0  0  0  0  0  0  0
    4.9883   -0.2285    0.8475 H   0  0  0  0  0  0  0  0  0  0  0  0
    5.2927   -2.5645    0.4600 H   0  0  0  0  0  0  0  0  0  0  0  0
    5.1173   -4.4827   -1.0663 H   0  0  0  0  0  0  0  0  0  0  0  0
    4.1125   -5.4676   -3.0983 H   0  0  0  0  0  0  0  0  0  0  0  0
    2.2929   -2.3237   -3.4842 H   0  0  0  0  0  0  0  0  0  0  0  0
    2.4505   -0.3997   -1.9705 H   0  0  0  0  0  0  0  0  0  0  0  0
    5.5252    3.8256   -0.0460 H   0  0  0  0  0  0  0  0  0  0  0  0
    6.2606    6.0799    2.7241 H   0  0  0  0  0  0  0  0  0  0  0  0
    4.8816    4.5887    4.1333 H   0  0  0  0  0  0  0  0  0  0  0  0
    3.5303    2.5324    4.3071 H   0  0  0  0  0  0  0  0  0  0  0  0
   -5.7421    1.1432    0.4224 H   0  0  0  0  0  0  0  0  0  0  0  0
   -4.5985   -0.0535    1.1684 H   0  0  0  0  0  0  0  0  0  0  0  0
   -6.3236   -1.4556    1.8177 H   0  0  0  0  0  0  0  0  0  0  0  0
   -7.3546    0.0239    1.6338 H   0  0  0  0  0  0  0  0  0  0  0  0
   -7.3812   -2.4366    0.0505 H   0  0  0  0  0  0  0  0  0  0  0  0
   -8.4162   -0.9664   -0.1776 H   0  0  0  0  0  0  0  0  0  0  0  0
   -7.0575   -0.1213   -1.8342 H   0  0  0  0  0  0  0  0  0  0  0  0
   -6.4427   -1.8235   -1.9744 H   0  0  0  0  0  0  0  0  0  0  0  0
  1  2  1  0
  1  3  1  0
  3  4  1  0
  4  5  1  0
  5  6  2  0
  6  7  1  0
  7  8  2  0
  8  9  1  0
  9 10  2  0
  8 11  1  0
 11 12  1  0
 12 13  1  0
 13 14  2  0
 14 15  1  0
 15 16  1  0
 16 17  1  0
 17 18  2  0
 18 19  1  0
 19 20  2  0
 20 21  1  0
 20 22  1  0
 22 23  2  0
 14 24  1  0
 24 25  2  0
 25 26  1  0
 25 27  1  0
 27 28  2  0
  1 29  1  0
 29 30  1  0
 30 31  1  0
 31 32  1  0
 32 33  1  0
 10  5  1  0
 16 11  1  0
 23 17  1  0
 33 29  1  0
 28 13  1  0
  1 34  1  6
  2 35  1  0
  2 36  1  0
  2 37  1  0
  3 38  1  0
  3 39  1  0
  6 40  1  0
  7 41  1  0
  9 42  1  0
 10 43  1  0
 11 44  1  1
 16 45  1  1
 18 46  1  0
 19 47  1  0
 21 48  1  0
 22 49  1  0
 23 50  1  0
 24 51  1  0
 26 52  1  0
 27 53  1  0
 28 54  1  0
 30 55  1  0
 30 56  1  0
 31 57  1  0
 31 58  1  0
 32 59  1  0
 32 60  1  0
 33 61  1  0
 33 62  1  0
M  END
$$$$
