
     RDKit          3D

 48 50  0  0  0  0  0  0  0  0999 V2000
    5.0545   -2.2163    2.4274 C   0  0  0  0  0  0  0  0  0  0  0  0
    6.0048   -1.4022    1.6732 N   0  0  0  0  0  0  0  0  0  0  0  0
    5.3740   -1.0593    0.0899 S   0  0  0  0  0  6  0  0  0  0  0  0
    5.0365   -2.3443   -0.6143 O   0  0  0  0  0  0  0  0  0  0  0  0
    6.4269   -0.3327   -0.6989 O   0  0  0  0  0  0  0  0  0  0  0  0
    3.9118   -0.0353    0.2030 C   0  0  0  0  0  0  0  0  0  0  0  0
    3.4481    0.4090   -1.1854 C   0  0  0  0  0  0  0  0  0  0  0  0
    2.2031    1.2469   -1.0807 C   0  0  0  0  0  0  0  0  0  0  0  0
    0.9340    0.6273   -1.0703 C   0  0  0  0  0  0  0  0  0  0  0  0
   -0.1930    1.4390   -0.9356 C   0  0  0  0  0  0  0  0  0  0  0  0
   -0.0883    2.7982   -0.7935 C   0  0  0  0  0  0  0  0  0  0  0  0
   -1.2976    3.3607   -0.6328 N   0  0  0  0  0  0  0  0  0  0  0  0
   -2.1901    2.3458   -0.6689 C   0  0  0  0  0  0  0  0  0  0  0  0
   -1.5401    1.1286   -0.8761 C   0  0  0  0  0  0  0  0  0  0  0  0
   -2.1554   -0.2516   -0.8710 C   0  0  0  0  0  0  0  0  0  0  0  0
   -2.2627   -0.7724    0.5768 C   0  0  0  0  0  0  0  0  0  0  0  0
   -3.2691   -1.9279    0.6620 C   0  0  0  0  0  0  0  0  0  0  0  0
   -4.6399   -1.5353    0.2385 N   0  0  0  0  0  0  0  0  0  0  0  0
   -5.5289   -1.3609    1.3976 C   0  0  0  0  0  0  0  0  0  0  0  0
   -4.6949   -0.3372   -0.6329 C   0  0  0  0  0  0  0  0  0  0  0  0
   -3.5158   -0.2971   -1.6132 C   0  0  0  0  0  0  0  0  0  0  0  0
    1.1470    3.4417   -0.7847 C   0  0  0  0  0  0  0  0  0  0  0  0
    2.3021    2.6533   -0.9284 C   0  0  0  0  0  0  0  0  0  0  0  0
    5.4906   -2.4603    3.4187 H   0  0  0  0  0  0  0  0  0  0  0  0
    4.1026   -1.6680    2.5925 H   0  0  0  0  0  0  0  0  0  0  0  0
    4.8547   -3.1720    1.8981 H   0  0  0  0  0  0  0  0  0  0  0  0
    6.1082   -0.4875    2.1696 H   0  0  0  0  0  0  0  0  0  0  0  0
    3.1029   -0.6151    0.6962 H   0  0  0  0  0  0  0  0  0  0  0  0
    4.1461    0.8543    0.8260 H   0  0  0  0  0  0  0  0  0  0  0  0
    3.2469   -0.4841   -1.8168 H   0  0  0  0  0  0  0  0  0  0  0  0
    4.2533    0.9931   -1.6820 H   0  0  0  0  0  0  0  0  0  0  0  0
    0.8393   -0.4476   -1.1569 H   0  0  0  0  0  0  0  0  0  0  0  0
   -1.5081    4.3725   -0.4832 H   0  0  0  0  0  0  0  0  0  0  0  0
   -3.2545    2.4815   -0.5349 H   0  0  0  0  0  0  0  0  0  0  0  0
   -1.4699   -0.9304   -1.4248 H   0  0  0  0  0  0  0  0  0  0  0  0
   -2.5943    0.0377    1.2642 H   0  0  0  0  0  0  0  0  0  0  0  0
   -1.2648   -1.1213    0.9217 H   0  0  0  0  0  0  0  0  0  0  0  0
   -2.9218   -2.7500   -0.0004 H   0  0  0  0  0  0  0  0  0  0  0  0
   -3.2553   -2.3408    1.6962 H   0  0  0  0  0  0  0  0  0  0  0  0
   -6.5505   -1.0784    1.0622 H   0  0  0  0  0  0  0  0  0  0  0  0
   -5.1395   -0.5751    2.0824 H   0  0  0  0  0  0  0  0  0  0  0  0
   -5.6191   -2.3181    1.9545 H   0  0  0  0  0  0  0  0  0  0  0  0
   -5.6400   -0.3594   -1.2175 H   0  0  0  0  0  0  0  0  0  0  0  0
   -4.6944    0.5983   -0.0289 H   0  0  0  0  0  0  0  0  0  0  0  0
   -3.5593   -1.2152   -2.2403 H   0  0  0  0  0  0  0  0  0  0  0  0
   -3.6309    0.5657   -2.3053 H   0  0  0  0  0  0  0  0  0  0  0  0
    1.2177    4.5145   -0.6601 H   0  0  0  0  0  0  0  0  0  0  0  0
    3.2729    3.1327   -0.9129 H   0  0  0  0  0  0  0  0  0  0  0  0
  1  2  1  0
  2  3  1  0
  3  4  2  0
  3  5  2  0
  3  6  1  0
  6  7  1  0
  7  8  1  0
  8  9  2  0
  9 10  1  0
 10 11  2  0
 11 12  1  0
 12 13  1  0
 13 14  2  0
 14 15  1  0
 15 16  1  0
 16 17  1  0
 17 18  1  0
 18 19  1  0
 18 20  1  0
 20 21  1  0
 11 22  1  0
 22 23  2  0
 23  8  1  0
 14 10  1  0
 21 15  1  0
  1 24  1  0
  1 25  1  0
  1 26  1  0
  2 27  1  0
  6 28  1  0
  6 29  1  0
  7 30  1  0
  7 31  1  0
  9 32  1  0
 12 33  1  0
 13 34  1  0
 15 35  1  0
 16 36  1  0
 16 37  1  0
 17 38  1  0
 17 39  1  0
 19 40  1  0
 19 41  1  0
 19 42  1  0
 20 43  1  0
 20 44  1  0
 21 45  1  0
 21 46  1  0
 22 47  1  0
 23 48  1  0
M  END
$$$$
