
     RDKit          3D

 13 13  0  0  0  0  0  0  0  0999 V2000
   -1.7182   -0.4555    0.1467 N   0  0  0  0  0  0  0  0  0  0  0  0
   -0.4983    0.3030    0.4319 C   0  0  2  0  0  0  0  0  0  0  0  0
    0.0526    0.9821   -0.8370 C   0  0  0  0  0  0  0  0  0  0  0  0
    1.1273    0.2081   -1.3572 O   0  0  0  0  0  0  0  0  0  0  0  0
    1.5606   -0.5413   -0.3090 N   0  0  0  0  0  0  0  0  0  0  0  0
    0.6244   -0.5785    0.7346 C   0  0  0  0  0  0  0  0  0  0  0  0
    0.7892   -1.2204    1.8054 O   0  0  0  0  0  0  0  0  0  0  0  0
   -1.5165   -1.1995   -0.5622 H   0  0  0  0  0  0  0  0  0  0  0  0
   -2.0207   -0.9359    1.0255 H   0  0  0  0  0  0  0  0  0  0  0  0
   -0.6726    1.0402    1.2461 H   0  0  0  0  0  0  0  0  0  0  0  0
    0.4313    1.9970   -0.5852 H   0  0  0  0  0  0  0  0  0  0  0  0
   -0.7371    1.0920   -1.6110 H   0  0  0  0  0  0  0  0  0  0  0  0
    2.5779   -0.6914   -0.1286 H   0  0  0  0  0  0  0  0  0  0  0  0
  1  2  1  0
  2  3  1  0
  3  4  1  0
  4  5  1  0
  5  6  1  0
  6  7  2  0
  6  2  1  0
  1  8  1  0
  1  9  1  0
  2 10  1  1
  3 11  1  0
  3 12  1  0
  5 13  1  0
M  END
$$$$
