
     RDKit          3D

 35 38  0  0  0  0  0  0  0  0999 V2000
    4.4755   -1.9162   -2.3340 C   0  0  0  0  0  0  0  0  0  0  0  0
    3.3294   -1.3580   -1.5590 C   0  0  0  0  0  0  0  0  0  0  0  0
    2.2400   -2.0681   -1.2122 N   0  0  0  0  0  0  0  0  0  0  0  0
    1.4765   -1.2642   -0.4875 N   0  0  0  0  0  0  0  0  0  0  0  0
    2.1174   -0.0805   -0.4008 C   0  0  0  0  0  0  0  0  0  0  0  0
    3.2944   -0.1126   -1.0552 N   0  0  0  0  0  0  0  0  0  0  0  0
    1.6109    1.0873    0.3609 C   0  0  0  0  0  0  0  0  0  0  0  0
    2.5317    1.9781    0.9434 C   0  0  0  0  0  0  0  0  0  0  0  0
    2.0904    3.0591    1.7089 C   0  0  0  0  0  0  0  0  0  0  0  0
    0.7263    3.2696    1.9011 C   0  0  0  0  0  0  0  0  0  0  0  0
   -0.2024    2.4019    1.3257 C   0  0  0  0  0  0  0  0  0  0  0  0
    0.2238    1.3037    0.5579 C   0  0  0  0  0  0  0  0  0  0  0  0
   -0.7525    0.4751   -0.0946 N   0  0  0  0  0  0  0  0  0  0  0  0
   -1.9019   -0.0592    0.5815 C   0  0  0  0  0  0  0  0  0  0  0  0
   -2.0307    0.0393    1.9397 N   0  0  0  0  0  0  0  0  0  0  0  0
   -3.1111   -0.4853    2.5991 C   0  0  0  0  0  0  0  0  0  0  0  0
   -4.0955   -1.1343    1.9095 N   0  0  0  0  0  0  0  0  0  0  0  0
   -3.9731   -1.2432    0.5649 C   0  0  0  0  0  0  0  0  0  0  0  0
   -2.9086   -0.7286   -0.1114 C   0  0  0  0  0  0  0  0  0  0  0  0
   -3.0987   -1.0156   -1.4477 C   0  0  0  0  0  0  0  0  0  0  0  0
   -4.3061   -1.7098   -1.4999 C   0  0  0  0  0  0  0  0  0  0  0  0
   -4.8382   -1.8467   -0.2629 N   0  0  0  0  0  0  0  0  0  0  0  0
    4.1262   -2.7444   -2.9855 H   0  0  0  0  0  0  0  0  0  0  0  0
    4.9243   -1.1239   -2.9691 H   0  0  0  0  0  0  0  0  0  0  0  0
    5.2433   -2.3017   -1.6317 H   0  0  0  0  0  0  0  0  0  0  0  0
    4.0082    0.6422   -1.1610 H   0  0  0  0  0  0  0  0  0  0  0  0
    3.5974    1.8267    0.8302 H   0  0  0  0  0  0  0  0  0  0  0  0
    2.8090    3.7334    2.1568 H   0  0  0  0  0  0  0  0  0  0  0  0
    0.3869    4.1129    2.4887 H   0  0  0  0  0  0  0  0  0  0  0  0
   -1.2583    2.6019    1.4561 H   0  0  0  0  0  0  0  0  0  0  0  0
   -0.5928    0.2223   -1.0954 H   0  0  0  0  0  0  0  0  0  0  0  0
   -3.1836   -0.3869    3.6734 H   0  0  0  0  0  0  0  0  0  0  0  0
   -2.4573   -0.7598   -2.2802 H   0  0  0  0  0  0  0  0  0  0  0  0
   -4.7681   -2.0928   -2.4002 H   0  0  0  0  0  0  0  0  0  0  0  0
   -5.7327   -2.3219   -0.0095 H   0  0  0  0  0  0  0  0  0  0  0  0
  1  2  1  0
  2  3  2  0
  3  4  1  0
  4  5  2  0
  5  6  1  0
  5  7  1  0
  7  8  2  0
  8  9  1  0
  9 10  2  0
 10 11  1  0
 11 12  2  0
 12 13  1  0
 13 14  1  0
 14 15  2  0
 15 16  1  0
 16 17  2  0
 17 18  1  0
 18 19  2  0
 19 20  1  0
 20 21  2  0
 21 22  1  0
  6  2  1  0
 12  7  1  0
 19 14  1  0
 22 18  1  0
  1 23  1  0
  1 24  1  0
  1 25  1  0
  6 26  1  0
  8 27  1  0
  9 28  1  0
 10 29  1  0
 11 30  1  0
 13 31  1  0
 16 32  1  0
 20 33  1  0
 21 34  1  0
 22 35  1  0
M  END
$$$$
