
     RDKit          3D

 39 41  0  0  0  0  0  0  0  0999 V2000
    0.5519    3.4376   -2.2744 O   0  0  0  0  0  0  0  0  0  0  0  0
    0.4017    2.0939   -1.9449 C   0  0  0  0  0  0  0  0  0  0  0  0
   -0.1930    1.3218   -2.7432 O   0  0  0  0  0  0  0  0  0  0  0  0
    0.9654    1.5886   -0.6781 C   0  0  0  0  0  0  0  0  0  0  0  0
    1.7068    2.3557   -0.0056 O   0  0  0  0  0  0  0  0  0  0  0  0
    0.7047    0.2502   -0.1963 N   0  0  0  0  0  0  0  0  0  0  0  0
    1.5745   -0.3363    0.7902 C   0  0  0  0  0  0  0  0  0  0  0  0
    1.0544   -0.6229    2.0637 C   0  0  0  0  0  0  0  0  0  0  0  0
    1.8763   -1.1288    3.0704 C   0  0  0  0  0  0  0  0  0  0  0  0
    3.2283   -1.3540    2.8195 C   0  0  0  0  0  0  0  0  0  0  0  0
    3.7609   -1.0877    1.5568 C   0  0  0  0  0  0  0  0  0  0  0  0
    2.9466   -0.5909    0.5217 C   0  0  0  0  0  0  0  0  0  0  0  0
    3.5500   -0.3901   -0.8190 C   0  0  0  0  0  0  0  0  0  0  0  0
    4.9305   -0.2608   -0.9480 O   0  0  0  0  0  0  0  0  0  0  0  0
    2.8328   -0.3656   -1.8547 O   0  0  0  0  0  0  0  0  0  0  0  0
   -0.4805   -0.4747   -0.5781 C   0  0  0  0  0  0  0  0  0  0  0  0
   -0.3359   -1.6687   -1.2999 C   0  0  0  0  0  0  0  0  0  0  0  0
   -1.4549   -2.3844   -1.7246 C   0  0  0  0  0  0  0  0  0  0  0  0
   -2.7373   -1.9246   -1.4282 C   0  0  0  0  0  0  0  0  0  0  0  0
   -2.9117   -0.7485   -0.6851 C   0  0  0  0  0  0  0  0  0  0  0  0
   -4.2035   -0.3006   -0.3701 C   0  0  0  0  0  0  0  0  0  0  0  0
   -4.3815    0.8550    0.3917 C   0  0  0  0  0  0  0  0  0  0  0  0
   -3.2760    1.5709    0.8552 C   0  0  0  0  0  0  0  0  0  0  0  0
   -3.4750    2.7134    1.6273 O   0  0  0  0  0  0  0  0  0  0  0  0
   -1.9804    1.1367    0.5452 C   0  0  0  0  0  0  0  0  0  0  0  0
   -1.7793   -0.0157   -0.2412 C   0  0  0  0  0  0  0  0  0  0  0  0
    0.1802    3.8047   -3.1424 H   0  0  0  0  0  0  0  0  0  0  0  0
    0.0110   -0.4330    2.2810 H   0  0  0  0  0  0  0  0  0  0  0  0
    1.4657   -1.3388    4.0495 H   0  0  0  0  0  0  0  0  0  0  0  0
    3.8650   -1.7436    3.6034 H   0  0  0  0  0  0  0  0  0  0  0  0
    4.8103   -1.2927    1.3850 H   0  0  0  0  0  0  0  0  0  0  0  0
    5.3587   -0.1347   -1.8574 H   0  0  0  0  0  0  0  0  0  0  0  0
    0.6515   -2.0366   -1.5476 H   0  0  0  0  0  0  0  0  0  0  0  0
   -1.3272   -3.2981   -2.2905 H   0  0  0  0  0  0  0  0  0  0  0  0
   -3.5932   -2.4941   -1.7708 H   0  0  0  0  0  0  0  0  0  0  0  0
   -5.0757   -0.8476   -0.7084 H   0  0  0  0  0  0  0  0  0  0  0  0
   -5.3827    1.1906    0.6310 H   0  0  0  0  0  0  0  0  0  0  0  0
   -2.6961    3.2570    1.9805 H   0  0  0  0  0  0  0  0  0  0  0  0
   -1.1430    1.6974    0.9367 H   0  0  0  0  0  0  0  0  0  0  0  0
  1  2  1  0
  2  3  2  0
  2  4  1  0
  4  5  2  0
  4  6  1  0
  6  7  1  0
  7  8  2  0
  8  9  1  0
  9 10  2  0
 10 11  1  0
 11 12  2  0
 12 13  1  0
 13 14  1  0
 13 15  2  0
  6 16  1  0
 16 17  2  0
 17 18  1  0
 18 19  2  0
 19 20  1  0
 20 21  2  0
 21 22  1  0
 22 23  2  0
 23 24  1  0
 23 25  1  0
 25 26  2  0
 12  7  1  0
 26 16  1  0
 26 20  1  0
  1 27  1  0
  8 28  1  0
  9 29  1  0
 10 30  1  0
 11 31  1  0
 14 32  1  0
 17 33  1  0
 18 34  1  0
 19 35  1  0
 21 36  1  0
 22 37  1  0
 24 38  1  0
 25 39  1  0
M  END
$$$$
