
     RDKit          3D

 15 16  0  0  0  0  0  0  0  0999 V2000
    4.2126   -0.3739   -0.1386 S   0  0  0  0  0  0  0  0  0  0  0  0
    2.5789   -0.3983   -0.1315 C   0  0  0  0  0  0  0  0  0  0  0  0
    1.8152    0.6784    0.1716 N   0  0  0  0  0  0  0  0  0  0  0  0
    0.4921    0.3813    0.1009 C   0  0  0  0  0  0  0  0  0  0  0  0
    0.2090   -0.9289   -0.2576 C   0  0  0  0  0  0  0  0  0  0  0  0
    1.6493   -1.7633   -0.4997 S   0  0  0  0  0  0  0  0  0  0  0  0
   -1.0973   -1.3967   -0.3755 C   0  0  0  0  0  0  0  0  0  0  0  0
   -2.1467   -0.4996   -0.1195 C   0  0  0  0  0  0  0  0  0  0  0  0
   -1.8717    0.8337    0.2454 C   0  0  0  0  0  0  0  0  0  0  0  0
   -0.5443    1.2825    0.3579 C   0  0  0  0  0  0  0  0  0  0  0  0
    2.1955    1.6176    0.4271 H   0  0  0  0  0  0  0  0  0  0  0  0
   -1.2992   -2.4222   -0.6562 H   0  0  0  0  0  0  0  0  0  0  0  0
   -3.1726   -0.8341   -0.2030 H   0  0  0  0  0  0  0  0  0  0  0  0
   -2.6880    1.5169    0.4405 H   0  0  0  0  0  0  0  0  0  0  0  0
   -0.3328    2.3065    0.6382 H   0  0  0  0  0  0  0  0  0  0  0  0
  1  2  2  0
  2  3  1  0
  3  4  1  0
  4  5  2  0
  5  6  1  0
  5  7  1  0
  7  8  2  0
  8  9  1  0
  9 10  2  0
  6  2  1  0
 10  4  1  0
  3 11  1  0
  7 12  1  0
  8 13  1  0
  9 14  1  0
 10 15  1  0
M  END
$$$$
