
     RDKit          3D

 35 36  0  0  0  0  0  0  0  0999 V2000
    7.4339   -1.2863   -0.0566 O   0  0  0  0  0  0  0  0  0  0  0  0
    6.0609   -1.0534   -0.0891 C   0  0  0  0  0  0  0  0  0  0  0  0
    5.4381   -0.3095    0.9217 C   0  0  0  0  0  0  0  0  0  0  0  0
    4.0590   -0.0818    0.8791 C   0  0  0  0  0  0  0  0  0  0  0  0
    3.2862   -0.5978   -0.1781 C   0  0  0  0  0  0  0  0  0  0  0  0
    1.8286   -0.3719   -0.2493 C   0  0  0  0  0  0  0  0  0  0  0  0
    1.2075    0.2887    0.6813 N   0  0  0  0  0  0  0  0  0  0  0  0
   -0.1524    0.5525    0.6713 O   0  0  0  0  0  0  0  0  0  0  0  0
   -0.8990    0.7778   -0.4945 C   0  0  0  0  0  0  0  0  0  0  0  0
   -0.3265    1.0588   -1.5824 O   0  0  0  0  0  0  0  0  0  0  0  0
   -2.4006    0.7314   -0.4360 C   0  0  0  0  0  0  0  0  0  0  0  0
   -2.8916   -0.7071   -0.1371 C   0  0  0  0  0  0  0  0  0  0  0  0
   -4.2791   -0.7526    0.5370 C   0  0  0  0  0  0  0  0  0  0  0  0
   -5.1379    0.4591    0.1609 C   0  0  0  0  0  0  0  0  0  0  0  0
   -4.4784    1.7827    0.5988 C   0  0  0  0  0  0  0  0  0  0  0  0
   -2.9361    1.7307    0.6035 C   0  0  0  0  0  0  0  0  0  0  0  0
    3.9186   -1.3417   -1.1875 C   0  0  0  0  0  0  0  0  0  0  0  0
    5.2978   -1.5675   -1.1417 C   0  0  0  0  0  0  0  0  0  0  0  0
    8.0143   -0.9272    0.6925 H   0  0  0  0  0  0  0  0  0  0  0  0
    6.0214    0.0926    1.7403 H   0  0  0  0  0  0  0  0  0  0  0  0
    3.6005    0.4966    1.6712 H   0  0  0  0  0  0  0  0  0  0  0  0
    1.2742   -0.7990   -1.0755 H   0  0  0  0  0  0  0  0  0  0  0  0
   -2.7992    1.0353   -1.4312 H   0  0  0  0  0  0  0  0  0  0  0  0
   -2.9319   -1.2720   -1.0942 H   0  0  0  0  0  0  0  0  0  0  0  0
   -2.1730   -1.2394    0.5250 H   0  0  0  0  0  0  0  0  0  0  0  0
   -4.8045   -1.6868    0.2429 H   0  0  0  0  0  0  0  0  0  0  0  0
   -4.1535   -0.7728    1.6423 H   0  0  0  0  0  0  0  0  0  0  0  0
   -5.2892    0.4653   -0.9411 H   0  0  0  0  0  0  0  0  0  0  0  0
   -6.1386    0.3683    0.6360 H   0  0  0  0  0  0  0  0  0  0  0  0
   -4.8283    2.0483    1.6202 H   0  0  0  0  0  0  0  0  0  0  0  0
   -4.8179    2.5903   -0.0859 H   0  0  0  0  0  0  0  0  0  0  0  0
   -2.5855    1.4312    1.6165 H   0  0  0  0  0  0  0  0  0  0  0  0
   -2.5371    2.7481    0.3959 H   0  0  0  0  0  0  0  0  0  0  0  0
    3.3451   -1.7483   -2.0117 H   0  0  0  0  0  0  0  0  0  0  0  0
    5.7741   -2.1428   -1.9255 H   0  0  0  0  0  0  0  0  0  0  0  0
  1  2  1  0
  2  3  2  0
  3  4  1  0
  4  5  2  0
  5  6  1  0
  6  7  2  0
  7  8  1  0
  8  9  1  0
  9 10  2  0
  9 11  1  0
 11 12  1  0
 12 13  1  0
 13 14  1  0
 14 15  1  0
 15 16  1  0
  5 17  1  0
 17 18  2  0
 18  2  1  0
 16 11  1  0
  1 19  1  0
  3 20  1  0
  4 21  1  0
  6 22  1  0
 11 23  1  0
 12 24  1  0
 12 25  1  0
 13 26  1  0
 13 27  1  0
 14 28  1  0
 14 29  1  0
 15 30  1  0
 15 31  1  0
 16 32  1  0
 16 33  1  0
 17 34  1  0
 18 35  1  0
M  END
$$$$
