
     RDKit          3D

 71 76  0  0  0  0  0  0  0  0999 V2000
   -6.9489    2.8004   -0.6458 N   0  0  0  0  0  0  0  0  0  0  0  0
   -5.9796    1.9360   -0.0326 C   0  0  0  0  0  0  0  0  0  0  0  0
   -4.8203    2.4916    0.5499 C   0  0  0  0  0  0  0  0  0  0  0  0
   -3.8393    1.6502    1.0734 C   0  0  0  0  0  0  0  0  0  0  0  0
   -3.9469    0.2610    0.9768 C   0  0  0  0  0  0  0  0  0  0  0  0
   -2.9139   -0.5488    1.5620 N   0  0  0  0  0  0  0  0  0  0  0  0
   -1.5131   -0.3807    1.2771 C   0  0  0  0  0  0  0  0  0  0  0  0
   -0.5635   -0.9056    2.1612 C   0  0  0  0  0  0  0  0  0  0  0  0
    0.8000   -0.7602    1.9038 C   0  0  0  0  0  0  0  0  0  0  0  0
    1.2436   -0.1034    0.7442 C   0  0  0  0  0  0  0  0  0  0  0  0
    2.6519    0.0734    0.5142 N   0  0  0  0  0  0  0  0  0  0  0  0
    3.6173   -0.9736    0.6812 C   0  0  0  0  0  0  0  0  0  0  0  0
    3.2235   -2.2573    0.8911 N   0  0  0  0  0  0  0  0  0  0  0  0
    4.1470   -3.2414    1.0222 C   0  0  0  0  0  0  0  0  0  0  0  0
    3.6331   -4.8916    1.2946 Cl  0  0  0  0  0  0  0  0  0  0  0  0
    5.4683   -2.9474    0.9373 N   0  0  0  0  0  0  0  0  0  0  0  0
    5.8710   -1.6678    0.7268 C   0  0  0  0  0  0  0  0  0  0  0  0
    7.2698   -1.3744    0.6106 N   0  0  0  0  0  0  0  0  0  0  0  0
    7.7946   -0.0373    0.5412 C   0  0  0  0  0  0  0  0  0  0  0  0
    7.3375    0.9433    1.4400 C   0  0  0  0  0  0  0  0  0  0  0  0
    7.8638    2.2359    1.4078 C   0  0  0  0  0  0  0  0  0  0  0  0
    8.8594    2.5620    0.4874 C   0  0  0  0  0  0  0  0  0  0  0  0
    9.3323    1.5967   -0.4037 C   0  0  0  0  0  0  0  0  0  0  0  0
    8.8086    0.2944   -0.3872 C   0  0  0  0  0  0  0  0  0  0  0  0
    9.4120   -0.8894   -1.5517 S   0  0  0  0  0  6  0  0  0  0  0  0
   10.3254   -0.1189   -2.7356 O   0  0  0  0  0  0  0  0  0  0  0  0
    8.2529   -1.5826   -2.2118 O   0  0  0  0  0  0  0  0  0  0  0  0
   10.2715   -1.8961   -0.8402 O   0  0  0  0  0  0  0  0  0  0  0  0
    4.9408   -0.6864    0.5877 N   0  0  0  0  0  0  0  0  0  0  0  0
    0.2933    0.4213   -0.1591 C   0  0  0  0  0  0  0  0  0  0  0  0
   -1.0760    0.2723    0.1114 C   0  0  0  0  0  0  0  0  0  0  0  0
    0.7976    1.2383   -1.6439 S   0  0  0  0  0  6  0  0  0  0  0  0
    1.4508    2.7379   -1.2552 O   0  0  0  0  0  0  0  0  0  0  0  0
   -0.3809    1.4351   -2.5565 O   0  0  0  0  0  0  0  0  0  0  0  0
    1.8248    0.4001   -2.3525 O   0  0  0  0  0  0  0  0  0  0  0  0
   -5.0929   -0.3191    0.3791 C   0  0  0  0  0  0  0  0  0  0  0  0
   -6.1471    0.5230   -0.0614 C   0  0  0  0  0  0  0  0  0  0  0  0
   -7.4342   -0.1030   -0.4872 C   0  0  0  0  0  0  0  0  0  0  0  0
   -8.4886    0.5852   -0.5575 O   0  0  0  0  0  0  0  0  0  0  0  0
   -7.5121   -1.5560   -0.7464 C   0  0  0  0  0  0  0  0  0  0  0  0
   -8.6771   -2.1251   -1.2947 C   0  0  0  0  0  0  0  0  0  0  0  0
   -8.7504   -3.4998   -1.5276 C   0  0  0  0  0  0  0  0  0  0  0  0
   -7.6671   -4.3200   -1.2143 C   0  0  0  0  0  0  0  0  0  0  0  0
   -6.5070   -3.7682   -0.6670 C   0  0  0  0  0  0  0  0  0  0  0  0
   -6.4197   -2.3831   -0.4280 C   0  0  0  0  0  0  0  0  0  0  0  0
   -5.1942   -1.7935    0.1549 C   0  0  0  0  0  0  0  0  0  0  0  0
   -4.2189   -2.5501    0.4134 O   0  0  0  0  0  0  0  0  0  0  0  0
   -4.5580    4.2425    0.6136 S   0  0  0  0  0  6  0  0  0  0  0  0
   -5.7084    4.9533    1.6125 O   0  0  0  0  0  0  0  0  0  0  0  0
   -4.6703    4.8150   -0.7713 O   0  0  0  0  0  0  0  0  0  0  0  0
   -3.1883    4.5558    1.1490 O   0  0  0  0  0  0  0  0  0  0  0  0
   -7.4358    2.5190   -1.5249 H   0  0  0  0  0  0  0  0  0  0  0  0
   -7.1108    3.7730   -0.3068 H   0  0  0  0  0  0  0  0  0  0  0  0
   -2.9662    2.0739    1.5530 H   0  0  0  0  0  0  0  0  0  0  0  0
   -3.1972   -1.2434    2.2901 H   0  0  0  0  0  0  0  0  0  0  0  0
   -0.8811   -1.4147    3.0626 H   0  0  0  0  0  0  0  0  0  0  0  0
    1.5125   -1.1424    2.6235 H   0  0  0  0  0  0  0  0  0  0  0  0
    2.9920    0.9956    0.1609 H   0  0  0  0  0  0  0  0  0  0  0  0
    7.9300   -2.1792    0.5246 H   0  0  0  0  0  0  0  0  0  0  0  0
    6.5872    0.7009    2.1817 H   0  0  0  0  0  0  0  0  0  0  0  0
    7.5056    2.9831    2.1041 H   0  0  0  0  0  0  0  0  0  0  0  0
    9.2689    3.5637    0.4669 H   0  0  0  0  0  0  0  0  0  0  0  0
   10.1081    1.8699   -1.1067 H   0  0  0  0  0  0  0  0  0  0  0  0
   10.6350   -0.8456   -3.3334 H   0  0  0  0  0  0  0  0  0  0  0  0
   -1.8023    0.6551   -0.5926 H   0  0  0  0  0  0  0  0  0  0  0  0
    1.7764    3.1056   -2.1154 H   0  0  0  0  0  0  0  0  0  0  0  0
   -9.5301   -1.5077   -1.5472 H   0  0  0  0  0  0  0  0  0  0  0  0
   -9.6489   -3.9296   -1.9514 H   0  0  0  0  0  0  0  0  0  0  0  0
   -7.7261   -5.3856   -1.3951 H   0  0  0  0  0  0  0  0  0  0  0  0
   -5.6800   -4.4258   -0.4307 H   0  0  0  0  0  0  0  0  0  0  0  0
   -5.6110    4.4903    2.4828 H   0  0  0  0  0  0  0  0  0  0  0  0
  1  2  1  0
  2  3  2  0
  3  4  1  0
  4  5  2  0
  5  6  1  0
  6  7  1  0
  7  8  2  0
  8  9  1  0
  9 10  2  0
 10 11  1  0
 11 12  1  0
 12 13  2  0
 13 14  1  0
 14 15  1  0
 14 16  2  0
 16 17  1  0
 17 18  1  0
 18 19  1  0
 19 20  2  0
 20 21  1  0
 21 22  2  0
 22 23  1  0
 23 24  2  0
 24 25  1  0
 25 26  1  0
 25 27  2  0
 25 28  2  0
 17 29  2  0
 10 30  1  0
 30 31  2  0
 30 32  1  0
 32 33  1  0
 32 34  2  0
 32 35  2  0
  5 36  1  0
 36 37  2  0
 37 38  1  0
 38 39  2  0
 38 40  1  0
 40 41  2  0
 41 42  1  0
 42 43  2  0
 43 44  1  0
 44 45  2  0
 45 46  1  0
 46 47  2  0
  3 48  1  0
 48 49  1  0
 48 50  2  0
 48 51  2  0
 37  2  1  0
 45 40  1  0
 31  7  1  0
 46 36  1  0
 29 12  1  0
 24 19  1  0
  1 52  1  0
  1 53  1  0
  4 54  1  0
  6 55  1  0
  8 56  1  0
  9 57  1  0
 11 58  1  0
 18 59  1  0
 20 60  1  0
 21 61  1  0
 22 62  1  0
 23 63  1  0
 26 64  1  0
 31 65  1  0
 33 66  1  0
 41 67  1  0
 42 68  1  0
 43 69  1  0
 44 70  1  0
 49 71  1  0
M  END
$$$$
