
     RDKit          3D

 52 54  0  0  0  0  0  0  0  0999 V2000
   -2.0444    1.1380    1.4235 C   0  0  1  0  0  0  0  0  0  0  0  0
   -3.5039    0.8877    1.0093 C   0  0  0  0  0  0  0  0  0  0  0  0
   -3.7508    1.2797   -0.4207 C   0  0  0  0  0  0  0  0  0  0  0  0
   -3.9730    2.5693   -0.8941 C   0  0  0  0  0  0  0  0  0  0  0  0
   -4.0651    2.5677   -2.2432 N   0  0  0  0  0  0  0  0  0  0  0  0
   -3.8916    1.2908   -2.6260 C   0  0  0  0  0  0  0  0  0  0  0  0
   -3.6934    0.4746   -1.5427 C   0  0  0  0  0  0  0  0  0  0  0  0
   -3.4616   -0.8935   -1.6864 C   0  0  0  0  0  0  0  0  0  0  0  0
   -3.4501   -1.4314   -2.9915 C   0  0  0  0  0  0  0  0  0  0  0  0
   -3.1622   -2.8881   -3.1989 C   0  0  0  0  0  0  0  0  0  0  0  0
   -3.6420   -0.5790   -4.1080 C   0  0  0  0  0  0  0  0  0  0  0  0
   -3.8708    0.7970   -3.9283 C   0  0  0  0  0  0  0  0  0  0  0  0
   -1.9183    0.9366    2.8777 N   0  0  0  0  0  0  0  0  0  0  0  0
   -0.5285    1.7607    3.5272 S   0  0  0  0  0  6  0  0  0  0  0  0
   -0.4774    1.5413    5.0129 O   0  0  0  0  0  0  0  0  0  0  0  0
   -0.6551    3.2371    3.2707 O   0  0  0  0  0  0  0  0  0  0  0  0
    0.9602    1.1449    2.8133 C   0  0  0  0  0  0  0  0  0  0  0  0
    1.3798   -0.1595    3.1014 C   0  0  0  0  0  0  0  0  0  0  0  0
    2.5389   -0.6736    2.5130 C   0  0  0  0  0  0  0  0  0  0  0  0
    3.2942    0.1170    1.6255 C   0  0  0  0  0  0  0  0  0  0  0  0
    4.4613   -0.3533    1.0058 O   0  0  0  0  0  0  0  0  0  0  0  0
    5.0023   -1.6568    1.1943 C   0  0  0  0  0  0  0  0  0  0  0  0
    6.2166   -1.7946    0.3904 C   0  0  0  0  0  0  0  0  0  0  0  0
    7.2172   -1.9079   -0.2724 C   0  0  0  0  0  0  0  0  0  0  0  0
    8.4314   -2.0450   -1.0768 C   0  0  0  0  0  0  0  0  0  0  0  0
    2.8709    1.4213    1.3442 C   0  0  0  0  0  0  0  0  0  0  0  0
    1.7116    1.9345    1.9325 C   0  0  0  0  0  0  0  0  0  0  0  0
   -1.1102    0.2382    0.6488 C   0  0  0  0  0  0  0  0  0  0  0  0
   -0.3079    0.7775   -0.3518 O   0  0  0  0  0  0  0  0  0  0  0  0
   -1.0772   -1.0015    0.8767 O   0  0  0  0  0  0  0  0  0  0  0  0
   -1.8066    2.1970    1.1751 H   0  0  0  0  0  0  0  0  0  0  0  0
   -4.1741    1.4932    1.6575 H   0  0  0  0  0  0  0  0  0  0  0  0
   -3.7731   -0.1792    1.1662 H   0  0  0  0  0  0  0  0  0  0  0  0
   -4.0448    3.4609   -0.2849 H   0  0  0  0  0  0  0  0  0  0  0  0
   -4.2192    3.3961   -2.8600 H   0  0  0  0  0  0  0  0  0  0  0  0
   -3.2944   -1.5227   -0.8217 H   0  0  0  0  0  0  0  0  0  0  0  0
   -2.0667   -3.0370   -3.2972 H   0  0  0  0  0  0  0  0  0  0  0  0
   -3.5338   -3.4866   -2.3400 H   0  0  0  0  0  0  0  0  0  0  0  0
   -3.6628   -3.2590   -4.1185 H   0  0  0  0  0  0  0  0  0  0  0  0
   -3.6108   -0.9812   -5.1129 H   0  0  0  0  0  0  0  0  0  0  0  0
   -4.0165    1.4523   -4.7773 H   0  0  0  0  0  0  0  0  0  0  0  0
   -1.8369   -0.0807    3.1075 H   0  0  0  0  0  0  0  0  0  0  0  0
    0.8027   -0.7818    3.7737 H   0  0  0  0  0  0  0  0  0  0  0  0
    2.8360   -1.6857    2.7511 H   0  0  0  0  0  0  0  0  0  0  0  0
    5.2605   -1.8099    2.2636 H   0  0  0  0  0  0  0  0  0  0  0  0
    4.2677   -2.4236    0.8690 H   0  0  0  0  0  0  0  0  0  0  0  0
    9.3209   -1.9922   -0.4160 H   0  0  0  0  0  0  0  0  0  0  0  0
    8.4187   -3.0220   -1.6023 H   0  0  0  0  0  0  0  0  0  0  0  0
    8.4756   -1.2247   -1.8225 H   0  0  0  0  0  0  0  0  0  0  0  0
    3.4411    2.0383    0.6614 H   0  0  0  0  0  0  0  0  0  0  0  0
    1.3968    2.9409    1.6896 H   0  0  0  0  0  0  0  0  0  0  0  0
    0.3191    0.1896   -0.8877 H   0  0  0  0  0  0  0  0  0  0  0  0
  1  2  1  0
  2  3  1  0
  3  4  2  0
  4  5  1  0
  5  6  1  0
  6  7  2  0
  7  8  1  0
  8  9  2  0
  9 10  1  0
  9 11  1  0
 11 12  2  0
  1 13  1  0
 13 14  1  0
 14 15  2  0
 14 16  2  0
 14 17  1  0
 17 18  2  0
 18 19  1  0
 19 20  2  0
 20 21  1  0
 21 22  1  0
 22 23  1  0
 23 24  3  0
 24 25  1  0
 20 26  1  0
 26 27  2  0
  1 28  1  0
 28 29  1  0
 28 30  2  0
  7  3  1  0
 27 17  1  0
 12  6  1  0
  1 31  1  1
  2 32  1  0
  2 33  1  0
  4 34  1  0
  5 35  1  0
  8 36  1  0
 10 37  1  0
 10 38  1  0
 10 39  1  0
 11 40  1  0
 12 41  1  0
 13 42  1  0
 18 43  1  0
 19 44  1  0
 22 45  1  0
 22 46  1  0
 25 47  1  0
 25 48  1  0
 25 49  1  0
 26 50  1  0
 27 51  1  0
 29 52  1  0
M  END
$$$$
