
     RDKit          3D

 62 63  0  0  0  0  0  0  0  0999 V2000
   -7.0830   -1.5157    2.0065 C   0  0  0  0  0  0  0  0  0  0  0  0
   -6.6290   -0.0647    2.1911 C   0  0  0  0  0  0  0  0  0  0  0  0
   -6.0471    0.5928    0.9153 C   0  0  2  0  0  0  0  0  0  0  0  0
   -7.1071    0.7000   -0.1945 C   0  0  0  0  0  0  0  0  0  0  0  0
   -4.7601   -0.1303    0.4368 C   0  0  0  0  0  0  0  0  0  0  0  0
   -3.9390    0.6610   -0.6120 C   0  0  0  0  0  0  0  0  0  0  0  0
   -4.6230    0.6572   -1.8174 F   0  0  0  0  0  0  0  0  0  0  0  0
   -3.7993    1.9737   -0.1871 F   0  0  0  0  0  0  0  0  0  0  0  0
   -2.5247    0.0528   -0.8350 C   0  0  1  0  0  0  0  0  0  0  0  0
   -2.6648   -1.2840   -1.2674 O   0  0  0  0  0  0  0  0  0  0  0  0
   -1.7988    0.8576   -1.9710 C   0  0  0  0  0  0  0  0  0  0  0  0
   -0.2956    0.5337   -2.0653 C   0  0  0  0  0  0  0  0  0  0  0  0
    0.2828    0.6371   -0.6608 C   0  0  1  0  0  0  0  0  0  0  0  0
   -0.4770   -0.3314    0.2301 C   0  0  1  0  0  0  0  0  0  0  0  0
    0.3446   -0.3731    1.5091 C   0  0  0  0  0  0  0  0  0  0  0  0
    1.7289   -0.1742    0.9785 C   0  0  0  0  0  0  0  0  0  0  0  0
    2.7281   -0.3754    1.6505 O   0  0  0  0  0  0  0  0  0  0  0  0
    1.7578    0.2705   -0.4611 C   0  0  2  0  0  0  0  0  0  0  0  0
    2.6967    1.4797   -0.7075 C   0  0  0  0  0  0  0  0  0  0  0  0
    4.0355    1.0887   -1.3564 C   0  0  0  0  0  0  0  0  0  0  0  0
    4.9134    0.2240   -0.4428 C   0  0  0  0  0  0  0  0  0  0  0  0
    6.3087    0.0170   -1.0486 C   0  0  0  0  0  0  0  0  0  0  0  0
    7.1288   -1.0616   -0.3181 C   0  0  0  0  0  0  0  0  0  0  0  0
    7.6121   -0.6396    1.0808 C   0  0  0  0  0  0  0  0  0  0  0  0
    6.5523   -0.8002    2.1293 C   0  0  0  0  0  0  0  0  0  0  0  0
    5.9205   -2.0282    2.3011 O   0  0  0  0  0  0  0  0  0  0  0  0
    6.2529    0.1693    2.8765 O   0  0  0  0  0  0  0  0  0  0  0  0
   -1.8059    0.1179    0.4076 O   0  0  0  0  0  0  0  0  0  0  0  0
   -7.8688   -1.5900    1.2269 H   0  0  0  0  0  0  0  0  0  0  0  0
   -7.5098   -1.8886    2.9613 H   0  0  0  0  0  0  0  0  0  0  0  0
   -6.2268   -2.1678    1.7376 H   0  0  0  0  0  0  0  0  0  0  0  0
   -7.4958    0.5341    2.5472 H   0  0  0  0  0  0  0  0  0  0  0  0
   -5.8661   -0.0328    2.9994 H   0  0  0  0  0  0  0  0  0  0  0  0
   -5.7759    1.6302    1.2108 H   0  0  0  0  0  0  0  0  0  0  0  0
   -6.7922    1.4407   -0.9580 H   0  0  0  0  0  0  0  0  0  0  0  0
   -7.2673   -0.2805   -0.6907 H   0  0  0  0  0  0  0  0  0  0  0  0
   -8.0739    1.0529    0.2235 H   0  0  0  0  0  0  0  0  0  0  0  0
   -4.1184   -0.3159    1.3254 H   0  0  0  0  0  0  0  0  0  0  0  0
   -5.0320   -1.1190    0.0090 H   0  0  0  0  0  0  0  0  0  0  0  0
   -2.8264   -1.8491   -0.4675 H   0  0  0  0  0  0  0  0  0  0  0  0
   -1.9006    1.9497   -1.7862 H   0  0  0  0  0  0  0  0  0  0  0  0
   -2.2738    0.6433   -2.9531 H   0  0  0  0  0  0  0  0  0  0  0  0
   -0.1501   -0.4893   -2.4772 H   0  0  0  0  0  0  0  0  0  0  0  0
    0.2058    1.2607   -2.7397 H   0  0  0  0  0  0  0  0  0  0  0  0
    0.1130    1.6747   -0.2810 H   0  0  0  0  0  0  0  0  0  0  0  0
   -0.4547   -1.3628   -0.2000 H   0  0  0  0  0  0  0  0  0  0  0  0
    0.2432   -1.3560    2.0178 H   0  0  0  0  0  0  0  0  0  0  0  0
    0.0759    0.4584    2.1961 H   0  0  0  0  0  0  0  0  0  0  0  0
    2.0256   -0.5937   -1.1093 H   0  0  0  0  0  0  0  0  0  0  0  0
    2.2055    2.1931   -1.4054 H   0  0  0  0  0  0  0  0  0  0  0  0
    2.8806    2.0413    0.2352 H   0  0  0  0  0  0  0  0  0  0  0  0
    4.5837    2.0248   -1.6026 H   0  0  0  0  0  0  0  0  0  0  0  0
    3.8423    0.5514   -2.3110 H   0  0  0  0  0  0  0  0  0  0  0  0
    4.4289   -0.7653   -0.2989 H   0  0  0  0  0  0  0  0  0  0  0  0
    5.0123    0.7320    0.5386 H   0  0  0  0  0  0  0  0  0  0  0  0
    6.8656    0.9796   -1.0509 H   0  0  0  0  0  0  0  0  0  0  0  0
    6.1958   -0.3061   -2.1070 H   0  0  0  0  0  0  0  0  0  0  0  0
    8.0308   -1.2648   -0.9358 H   0  0  0  0  0  0  0  0  0  0  0  0
    6.5587   -2.0152   -0.2704 H   0  0  0  0  0  0  0  0  0  0  0  0
    7.9806    0.4094    1.0587 H   0  0  0  0  0  0  0  0  0  0  0  0
    8.4697   -1.2842    1.3697 H   0  0  0  0  0  0  0  0  0  0  0  0
    5.2057   -2.1500    3.0085 H   0  0  0  0  0  0  0  0  0  0  0  0
  1  2  1  0
  2  3  1  0
  3  4  1  0
  3  5  1  0
  5  6  1  0
  6  7  1  0
  6  8  1  0
  6  9  1  0
  9 10  1  6
  9 11  1  0
 11 12  1  0
 12 13  1  0
 13 14  1  0
 14 15  1  0
 15 16  1  0
 16 17  2  0
 16 18  1  0
 18 19  1  0
 19 20  1  0
 20 21  1  0
 21 22  1  0
 22 23  1  0
 23 24  1  0
 24 25  1  0
 25 26  1  0
 25 27  2  0
 14 28  1  0
 28  9  1  0
 18 13  1  0
  1 29  1  0
  1 30  1  0
  1 31  1  0
  2 32  1  0
  2 33  1  0
  3 34  1  1
  4 35  1  0
  4 36  1  0
  4 37  1  0
  5 38  1  0
  5 39  1  0
 10 40  1  0
 11 41  1  0
 11 42  1  0
 12 43  1  0
 12 44  1  0
 13 45  1  1
 14 46  1  6
 15 47  1  0
 15 48  1  0
 18 49  1  6
 19 50  1  0
 19 51  1  0
 20 52  1  0
 20 53  1  0
 21 54  1  0
 21 55  1  0
 22 56  1  0
 22 57  1  0
 23 58  1  0
 23 59  1  0
 24 60  1  0
 24 61  1  0
 26 62  1  0
M  END
$$$$
