
     RDKit          3D

 35 37  0  0  0  0  0  0  0  0999 V2000
   -1.9143    3.2222   -0.1534 O   0  0  0  0  0  0  0  0  0  0  0  0
   -2.7857    2.5570   -1.0102 C   0  0  0  0  0  0  0  0  0  0  0  0
   -2.7671    2.8047   -2.2453 O   0  0  0  0  0  0  0  0  0  0  0  0
   -3.7152    1.5168   -0.4705 C   0  0  0  0  0  0  0  0  0  0  0  0
   -3.2314    0.2123   -0.7777 O   0  0  0  0  0  0  0  0  0  0  0  0
   -2.1003   -0.3374   -0.1681 C   0  0  0  0  0  0  0  0  0  0  0  0
   -1.3698    0.2676    0.7987 N   0  0  0  0  0  0  0  0  0  0  0  0
   -0.3713   -0.5490    1.1214 N   0  0  0  0  0  0  0  0  0  0  0  0
    0.6845   -0.1921    2.0657 C   0  0  0  0  0  0  0  0  0  0  0  0
    1.7883    0.5321    1.3460 C   0  0  0  0  0  0  0  0  0  0  0  0
    1.6239    1.8790    0.9817 C   0  0  0  0  0  0  0  0  0  0  0  0
    2.6302    2.5459    0.2764 C   0  0  0  0  0  0  0  0  0  0  0  0
    3.8031    1.8723   -0.0752 C   0  0  0  0  0  0  0  0  0  0  0  0
    3.9702    0.5297    0.2757 C   0  0  0  0  0  0  0  0  0  0  0  0
    2.9658   -0.1413    0.9804 C   0  0  0  0  0  0  0  0  0  0  0  0
   -0.4531   -1.6591    0.3571 C   0  0  0  0  0  0  0  0  0  0  0  0
    0.3908   -2.7716    0.3179 C   0  0  0  0  0  0  0  0  0  0  0  0
    0.0780   -3.7967   -0.5958 C   0  0  0  0  0  0  0  0  0  0  0  0
   -1.0513   -3.6871   -1.4403 C   0  0  0  0  0  0  0  0  0  0  0  0
   -1.8794   -2.5505   -1.3809 C   0  0  0  0  0  0  0  0  0  0  0  0
   -1.5424   -1.5592   -0.4639 C   0  0  0  0  0  0  0  0  0  0  0  0
   -1.2637    3.9132   -0.5073 H   0  0  0  0  0  0  0  0  0  0  0  0
   -4.7151    1.6469   -0.9352 H   0  0  0  0  0  0  0  0  0  0  0  0
   -3.8304    1.6334    0.6290 H   0  0  0  0  0  0  0  0  0  0  0  0
    1.0681   -1.1014    2.5765 H   0  0  0  0  0  0  0  0  0  0  0  0
    0.2645    0.4646    2.8584 H   0  0  0  0  0  0  0  0  0  0  0  0
    0.7159    2.4096    1.2408 H   0  0  0  0  0  0  0  0  0  0  0  0
    2.4992    3.5840   -0.0004 H   0  0  0  0  0  0  0  0  0  0  0  0
    4.5809    2.3894   -0.6220 H   0  0  0  0  0  0  0  0  0  0  0  0
    4.8771    0.0078   -0.0011 H   0  0  0  0  0  0  0  0  0  0  0  0
    3.1077   -1.1826    1.2400 H   0  0  0  0  0  0  0  0  0  0  0  0
    1.2545   -2.8544    0.9627 H   0  0  0  0  0  0  0  0  0  0  0  0
    0.7080   -4.6747   -0.6532 H   0  0  0  0  0  0  0  0  0  0  0  0
   -1.2787   -4.4810   -2.1397 H   0  0  0  0  0  0  0  0  0  0  0  0
   -2.7418   -2.4505   -2.0272 H   0  0  0  0  0  0  0  0  0  0  0  0
  1  2  1  0
  2  3  2  0
  2  4  1  0
  4  5  1  0
  5  6  1  0
  6  7  2  0
  7  8  1  0
  8  9  1  0
  9 10  1  0
 10 11  2  0
 11 12  1  0
 12 13  2  0
 13 14  1  0
 14 15  2  0
  8 16  1  0
 16 17  2  0
 17 18  1  0
 18 19  2  0
 19 20  1  0
 20 21  2  0
 21  6  1  0
 15 10  1  0
 21 16  1  0
  1 22  1  0
  4 23  1  0
  4 24  1  0
  9 25  1  0
  9 26  1  0
 11 27  1  0
 12 28  1  0
 13 29  1  0
 14 30  1  0
 15 31  1  0
 17 32  1  0
 18 33  1  0
 19 34  1  0
 20 35  1  0
M  END
$$$$
