
     RDKit          3D

 40 41  0  0  0  0  0  0  0  0999 V2000
   -2.3915    1.0218    2.7716 C   0  0  0  0  0  0  0  0  0  0  0  0
   -2.8083    0.4273    1.5462 O   0  0  0  0  0  0  0  0  0  0  0  0
   -2.0331    0.3606    0.3775 C   0  0  0  0  0  0  0  0  0  0  0  0
   -0.7379    0.9118    0.3393 C   0  0  0  0  0  0  0  0  0  0  0  0
    0.0449    0.8387   -0.8196 C   0  0  0  0  0  0  0  0  0  0  0  0
    1.4311    1.4365   -0.8369 C   0  0  0  0  0  0  0  0  0  0  0  0
    2.3359    0.7513    0.1631 C   0  0  0  0  0  0  0  0  0  0  0  0
    2.5877    1.3680    1.3979 C   0  0  0  0  0  0  0  0  0  0  0  0
    3.3702    0.7599    2.3265 N   0  0  0  0  0  4  0  0  0  0  0  0
    3.9212   -0.4587    2.0824 C   0  0  0  0  0  0  0  0  0  0  0  0
    4.7411   -1.0902    3.0656 N   0  0  0  0  0  0  0  0  0  0  0  0
    3.6892   -1.0804    0.8982 N   0  0  0  0  0  0  0  0  0  0  0  0
    2.9150   -0.5169   -0.0664 C   0  0  0  0  0  0  0  0  0  0  0  0
    2.7146   -1.2356   -1.2880 N   0  0  0  0  0  0  0  0  0  0  0  0
   -0.4823    0.2324   -1.9650 C   0  0  0  0  0  0  0  0  0  0  0  0
   -1.7725   -0.3252   -1.9515 C   0  0  0  0  0  0  0  0  0  0  0  0
   -2.3206   -0.9499   -3.0841 O   0  0  0  0  0  0  0  0  0  0  0  0
   -1.6515   -1.0943   -4.3329 C   0  0  0  0  0  0  0  0  0  0  0  0
   -2.5522   -0.2674   -0.7843 C   0  0  0  0  0  0  0  0  0  0  0  0
   -3.8320   -0.8519   -0.8510 O   0  0  0  0  0  0  0  0  0  0  0  0
   -4.7912   -0.9182    0.1985 C   0  0  0  0  0  0  0  0  0  0  0  0
   -1.4888    0.5046    3.1599 H   0  0  0  0  0  0  0  0  0  0  0  0
   -3.2060    0.9207    3.5176 H   0  0  0  0  0  0  0  0  0  0  0  0
   -2.1814    2.1017    2.6205 H   0  0  0  0  0  0  0  0  0  0  0  0
   -0.3268    1.4016    1.2110 H   0  0  0  0  0  0  0  0  0  0  0  0
    1.3473    2.5204   -0.6034 H   0  0  0  0  0  0  0  0  0  0  0  0
    1.8858    1.3893   -1.8493 H   0  0  0  0  0  0  0  0  0  0  0  0
    2.1545    2.3351    1.6237 H   0  0  0  0  0  0  0  0  0  0  0  0
    3.5434    1.2397    3.2382 H   0  0  0  0  0  0  0  0  0  0  0  0
    5.1630   -2.0266    2.8774 H   0  0  0  0  0  0  0  0  0  0  0  0
    4.9289   -0.6262    3.9819 H   0  0  0  0  0  0  0  0  0  0  0  0
    2.1602   -0.8542   -2.0827 H   0  0  0  0  0  0  0  0  0  0  0  0
    3.1482   -2.1775   -1.4102 H   0  0  0  0  0  0  0  0  0  0  0  0
    0.1149    0.1995   -2.8657 H   0  0  0  0  0  0  0  0  0  0  0  0
   -2.3168   -1.6301   -5.0404 H   0  0  0  0  0  0  0  0  0  0  0  0
   -1.4134   -0.0958   -4.7564 H   0  0  0  0  0  0  0  0  0  0  0  0
   -0.7215   -1.6870   -4.2016 H   0  0  0  0  0  0  0  0  0  0  0  0
   -5.0923    0.1041    0.5098 H   0  0  0  0  0  0  0  0  0  0  0  0
   -5.6931   -1.4455   -0.1739 H   0  0  0  0  0  0  0  0  0  0  0  0
   -4.3839   -1.4932    1.0565 H   0  0  0  0  0  0  0  0  0  0  0  0
  1  2  1  0
  2  3  1  0
  3  4  2  0
  4  5  1  0
  5  6  1  0
  6  7  1  0
  7  8  2  0
  8  9  1  0
  9 10  2  0
 10 11  1  0
 10 12  1  0
 12 13  2  0
 13 14  1  0
  5 15  2  0
 15 16  1  0
 16 17  1  0
 17 18  1  0
 16 19  2  0
 19 20  1  0
 20 21  1  0
 19  3  1  0
 13  7  1  0
  1 22  1  0
  1 23  1  0
  1 24  1  0
  4 25  1  0
  6 26  1  0
  6 27  1  0
  8 28  1  0
  9 29  1  0
 11 30  1  0
 11 31  1  0
 14 32  1  0
 14 33  1  0
 15 34  1  0
 18 35  1  0
 18 36  1  0
 18 37  1  0
 21 38  1  0
 21 39  1  0
 21 40  1  0
M  CHG  1   9   1
M  END
$$$$
