
     RDKit          3D

 55 57  0  0  0  0  0  0  0  0999 V2000
    2.1829   -0.5957   -1.2557 C   0  0  1  0  0  0  0  0  0  0  0  0
    3.2523   -0.5767   -2.1664 O   0  0  0  0  0  0  0  0  0  0  0  0
    2.7229   -0.9938    0.1356 C   0  0  0  0  0  0  0  0  0  0  0  0
    3.5117    0.1241    0.8778 C   0  0  2  0  0  0  0  0  0  0  0  0
    3.3103    1.5261    0.2684 C   0  0  0  0  0  0  0  0  0  0  0  0
    1.8436    1.7236   -0.1097 C   0  0  0  0  0  0  0  0  0  0  0  0
    1.4430    0.7832   -1.2698 C   0  0  2  0  0  0  0  0  0  0  0  0
   -0.0669    0.6168   -1.3376 C   0  0  0  0  0  0  0  0  0  0  0  0
   -0.7759   -0.0119   -0.2990 C   0  0  0  0  0  0  0  0  0  0  0  0
   -2.1625   -0.1660   -0.3745 C   0  0  0  0  0  0  0  0  0  0  0  0
   -2.8738    0.3009   -1.4938 C   0  0  0  0  0  0  0  0  0  0  0  0
   -2.1665    0.9384   -2.5273 C   0  0  0  0  0  0  0  0  0  0  0  0
   -0.7794    1.0908   -2.4521 C   0  0  0  0  0  0  0  0  0  0  0  0
   -4.3477    0.1558   -1.5807 C   0  0  0  0  0  0  0  0  0  0  0  0
   -4.9985    0.9073   -2.3578 O   0  0  0  0  0  0  0  0  0  0  0  0
   -5.0414   -0.8329   -0.8026 N   0  0  0  0  0  0  0  0  0  0  0  0
   -6.5013   -0.8881   -0.7244 C   0  0  0  0  0  0  0  0  0  0  0  0
   -6.9622   -1.2570    0.6936 C   0  0  0  0  0  0  0  0  0  0  0  0
   -6.8049   -0.1054    1.6992 C   0  0  0  0  0  0  0  0  0  0  0  0
   -5.3697    0.1780    2.0200 C   0  0  0  0  0  0  0  0  0  0  0  0
   -4.7677    1.3376    1.5413 O   0  0  0  0  0  0  0  0  0  0  0  0
   -4.7035   -0.6383    2.7113 O   0  0  0  0  0  0  0  0  0  0  0  0
    4.9862   -0.2137    1.0291 C   0  0  0  0  0  0  0  0  0  0  0  0
    5.8394   -0.2871   -0.0894 C   0  0  0  0  0  0  0  0  0  0  0  0
    7.1897   -0.6133    0.0686 C   0  0  0  0  0  0  0  0  0  0  0  0
    7.7041   -0.8733    1.3403 C   0  0  0  0  0  0  0  0  0  0  0  0
    6.8688   -0.8085    2.4572 C   0  0  0  0  0  0  0  0  0  0  0  0
    5.5177   -0.4827    2.3050 C   0  0  0  0  0  0  0  0  0  0  0  0
    1.4781   -1.4036   -1.5677 H   0  0  0  0  0  0  0  0  0  0  0  0
    2.8605   -0.6572   -3.0755 H   0  0  0  0  0  0  0  0  0  0  0  0
    1.8591   -1.2938    0.7665 H   0  0  0  0  0  0  0  0  0  0  0  0
    3.3423   -1.9126    0.0331 H   0  0  0  0  0  0  0  0  0  0  0  0
    3.0701    0.1808    1.8996 H   0  0  0  0  0  0  0  0  0  0  0  0
    3.6056    2.2976    1.0129 H   0  0  0  0  0  0  0  0  0  0  0  0
    3.9407    1.6730   -0.6350 H   0  0  0  0  0  0  0  0  0  0  0  0
    1.2163    1.5461    0.7912 H   0  0  0  0  0  0  0  0  0  0  0  0
    1.6826    2.7798   -0.4186 H   0  0  0  0  0  0  0  0  0  0  0  0
    1.7657    1.3085   -2.1979 H   0  0  0  0  0  0  0  0  0  0  0  0
   -0.2604   -0.3758    0.5785 H   0  0  0  0  0  0  0  0  0  0  0  0
   -2.6733   -0.6301    0.4581 H   0  0  0  0  0  0  0  0  0  0  0  0
   -2.6851    1.3125   -3.4014 H   0  0  0  0  0  0  0  0  0  0  0  0
   -0.2632    1.5804   -3.2685 H   0  0  0  0  0  0  0  0  0  0  0  0
   -4.5045   -1.6432   -0.4199 H   0  0  0  0  0  0  0  0  0  0  0  0
   -6.9556    0.0828   -1.0194 H   0  0  0  0  0  0  0  0  0  0  0  0
   -6.8633   -1.6623   -1.4341 H   0  0  0  0  0  0  0  0  0  0  0  0
   -6.4225   -2.1609    1.0524 H   0  0  0  0  0  0  0  0  0  0  0  0
   -8.0411   -1.5205    0.6445 H   0  0  0  0  0  0  0  0  0  0  0  0
   -7.3280   -0.3783    2.6410 H   0  0  0  0  0  0  0  0  0  0  0  0
   -7.2913    0.8130    1.3048 H   0  0  0  0  0  0  0  0  0  0  0  0
   -3.7954    1.5392    1.7415 H   0  0  0  0  0  0  0  0  0  0  0  0
    5.4682   -0.0895   -1.0838 H   0  0  0  0  0  0  0  0  0  0  0  0
    7.8379   -0.6647   -0.7967 H   0  0  0  0  0  0  0  0  0  0  0  0
    8.7497   -1.1260    1.4601 H   0  0  0  0  0  0  0  0  0  0  0  0
    7.2680   -1.0123    3.4424 H   0  0  0  0  0  0  0  0  0  0  0  0
    4.8881   -0.4421    3.1851 H   0  0  0  0  0  0  0  0  0  0  0  0
  1  2  1  0
  1  3  1  0
  3  4  1  0
  4  5  1  0
  5  6  1  0
  6  7  1  0
  7  8  1  0
  8  9  2  0
  9 10  1  0
 10 11  2  0
 11 12  1  0
 12 13  2  0
 11 14  1  0
 14 15  2  0
 14 16  1  0
 16 17  1  0
 17 18  1  0
 18 19  1  0
 19 20  1  0
 20 21  1  0
 20 22  2  0
  4 23  1  0
 23 24  2  0
 24 25  1  0
 25 26  2  0
 26 27  1  0
 27 28  2  0
  7  1  1  0
 13  8  1  0
 28 23  1  0
  1 29  1  6
  2 30  1  0
  3 31  1  0
  3 32  1  0
  4 33  1  1
  5 34  1  0
  5 35  1  0
  6 36  1  0
  6 37  1  0
  7 38  1  6
  9 39  1  0
 10 40  1  0
 12 41  1  0
 13 42  1  0
 16 43  1  0
 17 44  1  0
 17 45  1  0
 18 46  1  0
 18 47  1  0
 19 48  1  0
 19 49  1  0
 21 50  1  0
 24 51  1  0
 25 52  1  0
 26 53  1  0
 27 54  1  0
 28 55  1  0
M  END
$$$$
