
     RDKit          3D

 89 91  0  0  0  0  0  0  0  0999 V2000
   -0.6668   -3.6371   -5.4154 C   0  0  0  0  0  0  0  0  0  0  0  0
   -1.7821   -2.7040   -5.2375 N   0  0  0  0  0  0  0  0  0  0  0  0
   -1.3593   -1.4280   -4.6226 C   0  0  2  0  0  0  0  0  0  0  0  0
   -1.0146   -1.5944   -3.1107 C   0  0  1  0  0  0  0  0  0  0  0  0
    0.3371   -1.9665   -2.9937 O   0  0  0  0  0  0  0  0  0  0  0  0
   -1.2724   -0.2811   -2.3350 C   0  0  1  0  0  0  0  0  0  0  0  0
   -0.4372   -0.2302   -1.1925 O   0  0  0  0  0  0  0  0  0  0  0  0
   -0.8676    0.7650   -0.2742 C   0  0  1  0  0  0  0  0  0  0  0  0
   -1.7026    0.1013    0.8510 C   0  0  1  0  0  0  0  0  0  0  0  0
   -0.8254   -0.7689    1.7812 C   0  0  0  0  0  0  0  0  0  0  0  0
    0.4445   -0.0608    2.3072 C   0  0  2  0  0  0  0  0  0  0  0  0
    0.1109    0.9343    3.3298 N   0  0  0  0  0  0  0  0  0  0  0  0
    1.2536    0.5777    1.1567 C   0  0  1  0  0  0  0  0  0  0  0  0
    1.7987   -0.4660    0.3615 O   0  0  0  0  0  0  0  0  0  0  0  0
    3.1213   -0.1757   -0.0466 C   0  0  1  0  0  0  0  0  0  0  0  0
    4.0044   -0.2436    1.0762 O   0  0  0  0  0  0  0  0  0  0  0  0
    5.3815   -0.4812    0.9543 C   0  0  0  0  0  0  0  0  0  0  0  0
    6.2631   -0.3652    2.1679 C   0  0  0  0  0  0  0  0  0  0  0  0
    5.4712   -0.0455    3.3641 N   0  0  0  0  0  0  0  0  0  0  0  0
    4.8621   -1.2520    3.9412 C   0  0  0  0  0  0  0  0  0  0  0  0
    3.8104   -0.8539    4.9757 C   0  0  0  0  0  0  0  0  0  0  0  0
    3.1721   -1.9932    5.4845 O   0  0  0  0  0  0  0  0  0  0  0  0
    5.9045   -0.8389   -0.2275 C   0  0  0  0  0  0  0  0  0  0  0  0
    5.0501   -0.9425   -1.4632 C   0  0  0  0  0  0  0  0  0  0  0  0
    3.5672   -1.1828   -1.1268 C   0  0  1  0  0  0  0  0  0  0  0  0
    3.3661   -2.5733   -0.7013 N   0  0  0  0  0  0  0  0  0  0  0  0
    0.3697    1.4995    0.2809 C   0  0  2  0  0  0  0  0  0  0  0  0
   -0.0406    2.6280    1.0115 O   0  0  0  0  0  0  0  0  0  0  0  0
   -2.4685    1.1023    1.6061 N   0  0  0  0  0  0  0  0  0  0  0  0
   -3.5945    1.7916    1.0411 C   0  0  0  0  0  0  0  0  0  0  0  0
   -4.0140    1.4863   -0.1091 O   0  0  0  0  0  0  0  0  0  0  0  0
   -4.3208    2.8327    1.8529 C   0  0  1  0  0  0  0  0  0  0  0  0
   -4.8313    3.8458    1.0202 O   0  0  0  0  0  0  0  0  0  0  0  0
   -5.4319    2.1739    2.6964 C   0  0  0  0  0  0  0  0  0  0  0  0
   -6.2340    3.1794    3.5438 C   0  0  0  0  0  0  0  0  0  0  0  0
   -5.4256    3.8004    4.5930 N   0  0  0  0  0  0  0  0  0  0  0  0
   -0.9840    0.8185   -3.1764 O   0  0  0  0  0  0  0  0  0  0  0  0
   -2.0097    0.9869   -4.1423 C   0  0  0  0  0  0  0  0  0  0  0  0
   -2.4573   -0.3484   -4.8309 C   0  0  1  0  0  0  0  0  0  0  0  0
   -2.6917   -0.1140   -6.3405 C   0  0  0  0  0  0  0  0  0  0  0  0
   -3.6533   -0.8103   -4.2426 O   0  0  0  0  0  0  0  0  0  0  0  0
   -0.3063   -4.0164   -4.4357 H   0  0  0  0  0  0  0  0  0  0  0  0
    0.1680   -3.1549   -5.9678 H   0  0  0  0  0  0  0  0  0  0  0  0
   -1.0131   -4.5055   -6.0138 H   0  0  0  0  0  0  0  0  0  0  0  0
   -2.5138   -3.1666   -4.6487 H   0  0  0  0  0  0  0  0  0  0  0  0
   -0.4475   -1.0533   -5.1459 H   0  0  0  0  0  0  0  0  0  0  0  0
   -1.6671   -2.3832   -2.6651 H   0  0  0  0  0  0  0  0  0  0  0  0
    0.4176   -2.5175   -2.1719 H   0  0  0  0  0  0  0  0  0  0  0  0
   -2.3460   -0.2757   -2.0160 H   0  0  0  0  0  0  0  0  0  0  0  0
   -1.4876    1.5492   -0.7723 H   0  0  0  0  0  0  0  0  0  0  0  0
   -2.4356   -0.5902    0.3793 H   0  0  0  0  0  0  0  0  0  0  0  0
   -0.5084   -1.6722    1.2140 H   0  0  0  0  0  0  0  0  0  0  0  0
   -1.4361   -1.1365    2.6345 H   0  0  0  0  0  0  0  0  0  0  0  0
    1.0877   -0.8376    2.7825 H   0  0  0  0  0  0  0  0  0  0  0  0
    1.0001    1.3229    3.7200 H   0  0  0  0  0  0  0  0  0  0  0  0
   -0.3559    0.4433    4.1269 H   0  0  0  0  0  0  0  0  0  0  0  0
    2.0494    1.2066    1.6259 H   0  0  0  0  0  0  0  0  0  0  0  0
    3.1822    0.8444   -0.4932 H   0  0  0  0  0  0  0  0  0  0  0  0
    6.8464   -1.3033    2.3129 H   0  0  0  0  0  0  0  0  0  0  0  0
    6.9906    0.4563    1.9854 H   0  0  0  0  0  0  0  0  0  0  0  0
    6.1222    0.3547    4.0805 H   0  0  0  0  0  0  0  0  0  0  0  0
    5.6422   -1.8812    4.4262 H   0  0  0  0  0  0  0  0  0  0  0  0
    4.3624   -1.8571    3.1522 H   0  0  0  0  0  0  0  0  0  0  0  0
    4.2814   -0.2721    5.8006 H   0  0  0  0  0  0  0  0  0  0  0  0
    3.0475   -0.2079    4.4914 H   0  0  0  0  0  0  0  0  0  0  0  0
    3.8061   -2.4119    6.1237 H   0  0  0  0  0  0  0  0  0  0  0  0
    6.9703   -1.0114   -0.3196 H   0  0  0  0  0  0  0  0  0  0  0  0
    5.4294   -1.7649   -2.1072 H   0  0  0  0  0  0  0  0  0  0  0  0
    5.1475    0.0060   -2.0343 H   0  0  0  0  0  0  0  0  0  0  0  0
    2.9687   -1.0070   -2.0486 H   0  0  0  0  0  0  0  0  0  0  0  0
    3.7782   -2.7223    0.2482 H   0  0  0  0  0  0  0  0  0  0  0  0
    2.3405   -2.7611   -0.6269 H   0  0  0  0  0  0  0  0  0  0  0  0
    0.9703    1.8428   -0.5938 H   0  0  0  0  0  0  0  0  0  0  0  0
    0.7525    3.2188    1.1001 H   0  0  0  0  0  0  0  0  0  0  0  0
   -2.2701    1.2577    2.6186 H   0  0  0  0  0  0  0  0  0  0  0  0
   -3.5805    3.3000    2.5357 H   0  0  0  0  0  0  0  0  0  0  0  0
   -5.5689    3.4555    0.4816 H   0  0  0  0  0  0  0  0  0  0  0  0
   -6.1403    1.6469    2.0197 H   0  0  0  0  0  0  0  0  0  0  0  0
   -4.9849    1.4057    3.3653 H   0  0  0  0  0  0  0  0  0  0  0  0
   -7.0784    2.6402    4.0243 H   0  0  0  0  0  0  0  0  0  0  0  0
   -6.6747    3.9676    2.8958 H   0  0  0  0  0  0  0  0  0  0  0  0
   -4.8874    3.0621    5.1021 H   0  0  0  0  0  0  0  0  0  0  0  0
   -4.7434    4.4609    4.1567 H   0  0  0  0  0  0  0  0  0  0  0  0
   -2.8762    1.5028   -3.6723 H   0  0  0  0  0  0  0  0  0  0  0  0
   -1.6165    1.6933   -4.9047 H   0  0  0  0  0  0  0  0  0  0  0  0
   -3.4222    0.7091   -6.4947 H   0  0  0  0  0  0  0  0  0  0  0  0
   -1.7425    0.1605   -6.8490 H   0  0  0  0  0  0  0  0  0  0  0  0
   -3.0998   -1.0289   -6.8201 H   0  0  0  0  0  0  0  0  0  0  0  0
   -4.3614   -0.1345   -4.4115 H   0  0  0  0  0  0  0  0  0  0  0  0
  1  2  1  0
  2  3  1  0
  3  4  1  0
  4  5  1  0
  4  6  1  0
  6  7  1  0
  7  8  1  0
  8  9  1  0
  9 10  1  0
 10 11  1  0
 11 12  1  0
 11 13  1  0
 13 14  1  0
 14 15  1  0
 15 16  1  0
 16 17  1  0
 17 18  1  0
 18 19  1  0
 19 20  1  0
 20 21  1  0
 21 22  1  0
 17 23  2  0
 23 24  1  0
 24 25  1  0
 25 26  1  0
 13 27  1  0
 27 28  1  0
  9 29  1  0
 29 30  1  0
 30 31  2  0
 30 32  1  0
 32 33  1  0
 32 34  1  0
 34 35  1  0
 35 36  1  0
  6 37  1  0
 37 38  1  0
 38 39  1  0
 39 40  1  0
 39 41  1  1
 39  3  1  0
 27  8  1  0
 25 15  1  0
  1 42  1  0
  1 43  1  0
  1 44  1  0
  2 45  1  0
  3 46  1  6
  4 47  1  1
  5 48  1  0
  6 49  1  1
  8 50  1  6
  9 51  1  6
 10 52  1  0
 10 53  1  0
 11 54  1  1
 12 55  1  0
 12 56  1  0
 13 57  1  1
 15 58  1  6
 18 59  1  0
 18 60  1  0
 19 61  1  0
 20 62  1  0
 20 63  1  0
 21 64  1  0
 21 65  1  0
 22 66  1  0
 23 67  1  0
 24 68  1  0
 24 69  1  0
 25 70  1  6
 26 71  1  0
 26 72  1  0
 27 73  1  6
 28 74  1  0
 29 75  1  0
 32 76  1  1
 33 77  1  0
 34 78  1  0
 34 79  1  0
 35 80  1  0
 35 81  1  0
 36 82  1  0
 36 83  1  0
 38 84  1  0
 38 85  1  0
 40 86  1  0
 40 87  1  0
 40 88  1  0
 41 89  1  0
M  END
$$$$
