
     RDKit          3D

 43 44  0  0  0  0  0  0  0  0999 V2000
   -2.7183   -1.9138   -2.6996 C   0  0  0  0  0  0  0  0  0  0  0  0
   -1.8272   -0.8860   -2.2834 O   0  0  0  0  0  0  0  0  0  0  0  0
   -1.8991   -0.3284   -1.0030 C   0  0  0  0  0  0  0  0  0  0  0  0
   -0.9821   -0.7535   -0.0028 C   0  0  0  0  0  0  0  0  0  0  0  0
    0.0988   -1.7554   -0.3348 C   0  0  0  0  0  0  0  0  0  0  0  0
    1.3387   -1.0281   -0.7948 C   0  0  0  0  0  0  0  0  0  0  0  0
    2.5811   -1.2202   -0.2949 C   0  0  0  0  0  0  0  0  0  0  0  0
    2.8550   -2.2162    0.8065 C   0  0  0  0  0  0  0  0  0  0  0  0
    3.7312   -0.4178   -0.8647 C   0  0  0  0  0  0  0  0  0  0  0  0
    3.6898    1.0274   -0.3588 C   0  0  0  0  0  0  0  0  0  0  0  0
    4.8416    1.8079   -0.9077 C   0  0  0  0  0  0  0  0  0  0  0  0
    6.0540    1.8261   -0.2256 O   0  0  0  0  0  0  0  0  0  0  0  0
    4.7270    2.4151   -2.0060 O   0  0  0  0  0  0  0  0  0  0  0  0
   -1.0410   -0.1907    1.2933 C   0  0  0  0  0  0  0  0  0  0  0  0
   -0.1212   -0.5834    2.2676 O   0  0  0  0  0  0  0  0  0  0  0  0
   -2.0355    0.7592    1.5577 C   0  0  0  0  0  0  0  0  0  0  0  0
   -2.3784    1.4888    2.7611 C   0  0  0  0  0  0  0  0  0  0  0  0
   -1.8124    1.3958    3.8809 O   0  0  0  0  0  0  0  0  0  0  0  0
   -3.4546    2.3261    2.5121 O   0  0  0  0  0  0  0  0  0  0  0  0
   -3.8689    2.2025    1.1510 C   0  0  0  0  0  0  0  0  0  0  0  0
   -2.9214    1.1759    0.5900 C   0  0  0  0  0  0  0  0  0  0  0  0
   -2.8654    0.6672   -0.7144 C   0  0  0  0  0  0  0  0  0  0  0  0
   -3.8393    1.1433   -1.7586 C   0  0  0  0  0  0  0  0  0  0  0  0
   -2.4667   -2.2154   -3.7369 H   0  0  0  0  0  0  0  0  0  0  0  0
   -3.7670   -1.5531   -2.6753 H   0  0  0  0  0  0  0  0  0  0  0  0
   -2.6171   -2.7965   -2.0335 H   0  0  0  0  0  0  0  0  0  0  0  0
    0.2805   -2.4088    0.5421 H   0  0  0  0  0  0  0  0  0  0  0  0
   -0.2289   -2.4354   -1.1478 H   0  0  0  0  0  0  0  0  0  0  0  0
    1.2092   -0.3202   -1.6103 H   0  0  0  0  0  0  0  0  0  0  0  0
    2.5603   -3.2352    0.4782 H   0  0  0  0  0  0  0  0  0  0  0  0
    3.9316   -2.2405    1.0750 H   0  0  0  0  0  0  0  0  0  0  0  0
    2.2884   -1.9372    1.7193 H   0  0  0  0  0  0  0  0  0  0  0  0
    3.6815   -0.4342   -1.9763 H   0  0  0  0  0  0  0  0  0  0  0  0
    4.7028   -0.8755   -0.5770 H   0  0  0  0  0  0  0  0  0  0  0  0
    3.7414    1.0367    0.7517 H   0  0  0  0  0  0  0  0  0  0  0  0
    2.7377    1.5137   -0.6647 H   0  0  0  0  0  0  0  0  0  0  0  0
    6.8486    2.3364   -0.5922 H   0  0  0  0  0  0  0  0  0  0  0  0
   -0.1135   -0.2019    3.2032 H   0  0  0  0  0  0  0  0  0  0  0  0
   -4.9174    1.8407    1.0999 H   0  0  0  0  0  0  0  0  0  0  0  0
   -3.7518    3.1758    0.6297 H   0  0  0  0  0  0  0  0  0  0  0  0
   -4.7822    0.5637   -1.6768 H   0  0  0  0  0  0  0  0  0  0  0  0
   -3.4234    1.0240   -2.7807 H   0  0  0  0  0  0  0  0  0  0  0  0
   -4.0664    2.2212   -1.6235 H   0  0  0  0  0  0  0  0  0  0  0  0
  1  2  1  0
  2  3  1  0
  3  4  2  0
  4  5  1  0
  5  6  1  0
  6  7  2  0
  7  8  1  0
  7  9  1  0
  9 10  1  0
 10 11  1  0
 11 12  1  0
 11 13  2  0
  4 14  1  0
 14 15  1  0
 14 16  2  0
 16 17  1  0
 17 18  2  0
 17 19  1  0
 19 20  1  0
 20 21  1  0
 21 22  2  0
 22 23  1  0
 22  3  1  0
 21 16  1  0
  1 24  1  0
  1 25  1  0
  1 26  1  0
  5 27  1  0
  5 28  1  0
  6 29  1  0
  8 30  1  0
  8 31  1  0
  8 32  1  0
  9 33  1  0
  9 34  1  0
 10 35  1  0
 10 36  1  0
 12 37  1  0
 15 38  1  0
 20 39  1  0
 20 40  1  0
 23 41  1  0
 23 42  1  0
 23 43  1  0
M  END
$$$$
