
     RDKit          3D

 25 25  0  0  0  0  0  0  0  0999 V2000
   -3.8525    0.0782    0.3410 C   0  0  0  0  0  0  0  0  0  0  0  0
   -2.9044   -1.0367    0.2762 N   0  0  0  0  0  0  0  0  0  0  0  0
   -1.6037   -0.6462   -0.2934 C   0  0  0  0  0  0  0  0  0  0  0  0
   -0.7374    0.1818    0.6808 C   0  0  2  0  0  0  0  0  0  0  0  0
   -1.2235    1.4972    0.7552 O   0  0  0  0  0  0  0  0  0  0  0  0
    0.7011    0.1959    0.2082 C   0  0  0  0  0  0  0  0  0  0  0  0
    1.6656   -0.6013    0.8494 C   0  0  0  0  0  0  0  0  0  0  0  0
    2.9908   -0.6113    0.3996 C   0  0  0  0  0  0  0  0  0  0  0  0
    3.9322   -1.4036    1.0527 O   0  0  0  0  0  0  0  0  0  0  0  0
    3.3588    0.1721   -0.7023 C   0  0  0  0  0  0  0  0  0  0  0  0
    2.4042    0.9576   -1.3529 C   0  0  0  0  0  0  0  0  0  0  0  0
    1.0805    0.9679   -0.9047 C   0  0  0  0  0  0  0  0  0  0  0  0
   -3.5929    0.7722    1.1679 H   0  0  0  0  0  0  0  0  0  0  0  0
   -3.8891    0.6292   -0.6234 H   0  0  0  0  0  0  0  0  0  0  0  0
   -4.8676   -0.3237    0.5408 H   0  0  0  0  0  0  0  0  0  0  0  0
   -2.7718   -1.4282    1.2379 H   0  0  0  0  0  0  0  0  0  0  0  0
   -1.0601   -1.5827   -0.5473 H   0  0  0  0  0  0  0  0  0  0  0  0
   -1.7446   -0.0963   -1.2507 H   0  0  0  0  0  0  0  0  0  0  0  0
   -0.7926   -0.2873    1.6912 H   0  0  0  0  0  0  0  0  0  0  0  0
   -0.8050    1.9124    1.5543 H   0  0  0  0  0  0  0  0  0  0  0  0
    1.3904   -1.2163    1.6975 H   0  0  0  0  0  0  0  0  0  0  0  0
    4.8993   -1.4337    0.7515 H   0  0  0  0  0  0  0  0  0  0  0  0
    4.3816    0.1696   -1.0568 H   0  0  0  0  0  0  0  0  0  0  0  0
    2.6898    1.5572   -2.2075 H   0  0  0  0  0  0  0  0  0  0  0  0
    0.3510    1.5759   -1.4251 H   0  0  0  0  0  0  0  0  0  0  0  0
  1  2  1  0
  2  3  1  0
  3  4  1  0
  4  5  1  0
  4  6  1  0
  6  7  2  0
  7  8  1  0
  8  9  1  0
  8 10  2  0
 10 11  1  0
 11 12  2  0
 12  6  1  0
  1 13  1  0
  1 14  1  0
  1 15  1  0
  2 16  1  0
  3 17  1  0
  3 18  1  0
  4 19  1  1
  5 20  1  0
  7 21  1  0
  9 22  1  0
 10 23  1  0
 11 24  1  0
 12 25  1  0
M  END
$$$$
