
     RDKit          3D

 45 47  0  0  0  0  0  0  0  0999 V2000
    2.1350   -1.7829    1.5896 C   0  0  2  0  0  0  0  0  0  0  0  0
    1.2525   -2.4290    2.6669 C   0  0  0  0  0  0  0  0  0  0  0  0
    2.8404   -0.6790    2.1043 O   0  0  0  0  0  0  0  0  0  0  0  0
    1.3671   -1.4261    0.2852 C   0  0  1  0  0  0  0  0  0  0  0  0
    0.1730   -0.4472    0.4784 C   0  0  0  0  0  0  0  0  0  0  0  0
   -1.1802   -1.1731    0.5626 C   0  0  0  0  0  0  0  0  0  0  0  0
   -2.3061   -0.1863    0.7918 C   0  0  0  0  0  0  0  0  0  0  0  0
   -2.7312    0.0292    2.1148 C   0  0  0  0  0  0  0  0  0  0  0  0
   -3.7523    0.9332    2.4014 C   0  0  0  0  0  0  0  0  0  0  0  0
   -4.3642    1.6500    1.3767 C   0  0  0  0  0  0  0  0  0  0  0  0
   -3.9522    1.4761    0.0488 C   0  0  0  0  0  0  0  0  0  0  0  0
   -2.9100    0.5583   -0.2605 C   0  0  0  0  0  0  0  0  0  0  0  0
   -2.5099    0.4249   -1.6092 C   0  0  0  0  0  0  0  0  0  0  0  0
   -3.1316    1.1707   -2.6136 C   0  0  0  0  0  0  0  0  0  0  0  0
   -4.1572    2.0604   -2.2983 C   0  0  0  0  0  0  0  0  0  0  0  0
   -4.5669    2.2153   -0.9743 C   0  0  0  0  0  0  0  0  0  0  0  0
    2.3112   -0.8914   -0.7062 N   0  0  0  0  0  0  0  0  0  0  0  0
    2.8564   -1.5652   -1.7397 C   0  0  0  0  0  0  0  0  0  0  0  0
    3.7321   -0.8173   -2.4438 N   0  0  0  0  0  0  0  0  0  0  0  0
    3.7327    0.3736   -1.8095 C   0  0  0  0  0  0  0  0  0  0  0  0
    2.8676    0.3337   -0.7373 C   0  0  0  0  0  0  0  0  0  0  0  0
    4.5517    1.5259   -2.2168 C   0  0  0  0  0  0  0  0  0  0  0  0
    5.4165    1.4403   -3.3501 N   0  0  0  0  0  0  0  0  0  0  0  0
    4.4920    2.6008   -1.5619 O   0  0  0  0  0  0  0  0  0  0  0  0
    2.8940   -2.5469    1.3111 H   0  0  0  0  0  0  0  0  0  0  0  0
    0.7218   -3.3116    2.2512 H   0  0  0  0  0  0  0  0  0  0  0  0
    1.8876   -2.7702    3.5117 H   0  0  0  0  0  0  0  0  0  0  0  0
    0.5106   -1.7047    3.0633 H   0  0  0  0  0  0  0  0  0  0  0  0
    2.1939   -0.0768    2.5539 H   0  0  0  0  0  0  0  0  0  0  0  0
    0.9655   -2.3829   -0.1210 H   0  0  0  0  0  0  0  0  0  0  0  0
    0.3118    0.1824    1.3810 H   0  0  0  0  0  0  0  0  0  0  0  0
    0.1249    0.2514   -0.3847 H   0  0  0  0  0  0  0  0  0  0  0  0
   -1.1603   -1.9139    1.3880 H   0  0  0  0  0  0  0  0  0  0  0  0
   -1.3633   -1.7681   -0.3561 H   0  0  0  0  0  0  0  0  0  0  0  0
   -2.2686   -0.5084    2.9338 H   0  0  0  0  0  0  0  0  0  0  0  0
   -4.0699    1.0804    3.4258 H   0  0  0  0  0  0  0  0  0  0  0  0
   -5.1561    2.3476    1.6233 H   0  0  0  0  0  0  0  0  0  0  0  0
   -1.7152   -0.2428   -1.9071 H   0  0  0  0  0  0  0  0  0  0  0  0
   -2.8146    1.0588   -3.6425 H   0  0  0  0  0  0  0  0  0  0  0  0
   -4.6340    2.6346   -3.0822 H   0  0  0  0  0  0  0  0  0  0  0  0
   -5.3627    2.9156   -0.7491 H   0  0  0  0  0  0  0  0  0  0  0  0
    2.6261   -2.5954   -1.9791 H   0  0  0  0  0  0  0  0  0  0  0  0
    2.6621    1.1307   -0.0338 H   0  0  0  0  0  0  0  0  0  0  0  0
    5.9944    2.2629   -3.6325 H   0  0  0  0  0  0  0  0  0  0  0  0
    5.4855    0.5625   -3.9111 H   0  0  0  0  0  0  0  0  0  0  0  0
  1  2  1  0
  1  3  1  0
  1  4  1  0
  4  5  1  0
  5  6  1  0
  6  7  1  0
  7  8  2  0
  8  9  1  0
  9 10  2  0
 10 11  1  0
 11 12  2  0
 12 13  1  0
 13 14  2  0
 14 15  1  0
 15 16  2  0
  4 17  1  0
 17 18  1  0
 18 19  2  0
 19 20  1  0
 20 21  2  0
 20 22  1  0
 22 23  1  0
 22 24  2  0
 12  7  1  0
 21 17  1  0
 16 11  1  0
  1 25  1  6
  2 26  1  0
  2 27  1  0
  2 28  1  0
  3 29  1  0
  4 30  1  6
  5 31  1  0
  5 32  1  0
  6 33  1  0
  6 34  1  0
  8 35  1  0
  9 36  1  0
 10 37  1  0
 13 38  1  0
 14 39  1  0
 15 40  1  0
 16 41  1  0
 18 42  1  0
 21 43  1  0
 23 44  1  0
 23 45  1  0
M  END
$$$$
