
     RDKit          3D

 63 65  0  0  0  0  0  0  0  0999 V2000
    0.7262   -1.4718   -3.9331 C   0  0  0  0  0  0  0  0  0  0  0  0
   -0.0037   -1.2910   -2.5946 C   0  0  0  0  0  0  0  0  0  0  0  0
   -0.7224   -2.5885   -2.1919 C   0  0  0  0  0  0  0  0  0  0  0  0
    0.9114   -0.7182   -1.4696 C   0  0  1  0  0  0  0  0  0  0  0  0
    0.0803   -0.3362   -0.3195 N   0  0  0  0  0  0  0  0  0  0  0  0
   -0.6592    0.8923   -0.2733 C   0  0  0  0  0  0  0  0  0  0  0  0
   -0.5836    1.7186   -1.2227 O   0  0  0  0  0  0  0  0  0  0  0  0
   -1.5102    1.2158    0.9195 C   0  0  0  0  0  0  0  0  0  0  0  0
   -2.4389    0.1026    1.2211 N   0  0  0  0  0  0  0  0  0  0  0  0
   -2.2067   -0.7109    2.3077 C   0  0  0  0  0  0  0  0  0  0  0  0
   -1.2357   -0.4852    3.0824 O   0  0  0  0  0  0  0  0  0  0  0  0
   -3.0395   -1.8104    2.5642 C   0  0  0  0  0  0  0  0  0  0  0  0
   -2.8181   -2.6704    3.6886 N   0  0  0  0  0  0  0  0  0  0  0  0
   -4.0913   -2.0631    1.6900 C   0  0  0  0  0  0  0  0  0  0  0  0
   -4.2950   -1.2519    0.6274 N   0  0  0  0  0  0  0  0  0  0  0  0
   -3.5007   -0.1770    0.3853 C   0  0  0  0  0  0  0  0  0  0  0  0
   -3.7978    0.6294   -0.8151 C   0  0  0  0  0  0  0  0  0  0  0  0
   -4.2933    1.9374   -0.6958 C   0  0  0  0  0  0  0  0  0  0  0  0
   -4.5791    2.6870   -1.8413 C   0  0  0  0  0  0  0  0  0  0  0  0
   -4.3874    2.1297   -3.1090 C   0  0  0  0  0  0  0  0  0  0  0  0
   -3.9199    0.8182   -3.2328 C   0  0  0  0  0  0  0  0  0  0  0  0
   -3.6358    0.0655   -2.0895 C   0  0  0  0  0  0  0  0  0  0  0  0
    2.0526   -1.6730   -1.0054 C   0  0  1  0  0  0  0  0  0  0  0  0
    2.9658   -1.9355   -2.0395 O   0  0  0  0  0  0  0  0  0  0  0  0
    2.7923   -1.1054    0.1763 C   0  0  0  0  0  0  0  0  0  0  0  0
    3.2408   -1.8393    1.2117 N   0  0  0  0  0  0  0  0  0  0  0  0
    3.8258   -0.9895    2.0412 N   0  0  0  0  0  0  0  0  0  0  0  0
    3.7225    0.2302    1.4748 C   0  0  0  0  0  0  0  0  0  0  0  0
    3.0875    0.1629    0.3285 O   0  0  0  0  0  0  0  0  0  0  0  0
    4.2069    1.5135    2.1112 C   0  0  0  0  0  0  0  0  0  0  0  0
    5.5442    1.2697    2.8368 C   0  0  0  0  0  0  0  0  0  0  0  0
    3.1492    1.9928    3.1200 C   0  0  0  0  0  0  0  0  0  0  0  0
    4.4102    2.5920    1.0291 C   0  0  0  0  0  0  0  0  0  0  0  0
   -0.0156   -1.6269   -4.7456 H   0  0  0  0  0  0  0  0  0  0  0  0
    1.3952   -2.3566   -3.9134 H   0  0  0  0  0  0  0  0  0  0  0  0
    1.3197   -0.5659   -4.1796 H   0  0  0  0  0  0  0  0  0  0  0  0
   -0.7945   -0.5316   -2.7813 H   0  0  0  0  0  0  0  0  0  0  0  0
   -0.0092   -3.4350   -2.1119 H   0  0  0  0  0  0  0  0  0  0  0  0
   -1.2490   -2.4620   -1.2225 H   0  0  0  0  0  0  0  0  0  0  0  0
   -1.4821   -2.8503   -2.9591 H   0  0  0  0  0  0  0  0  0  0  0  0
    1.3982    0.2032   -1.8625 H   0  0  0  0  0  0  0  0  0  0  0  0
    0.0064   -0.9911    0.4917 H   0  0  0  0  0  0  0  0  0  0  0  0
   -2.0764    2.1537    0.7479 H   0  0  0  0  0  0  0  0  0  0  0  0
   -0.8356    1.4420    1.7717 H   0  0  0  0  0  0  0  0  0  0  0  0
   -3.4436   -3.4883    3.8640 H   0  0  0  0  0  0  0  0  0  0  0  0
   -2.0328   -2.5023    4.3560 H   0  0  0  0  0  0  0  0  0  0  0  0
   -4.7497   -2.9070    1.8497 H   0  0  0  0  0  0  0  0  0  0  0  0
   -4.4595    2.3740    0.2813 H   0  0  0  0  0  0  0  0  0  0  0  0
   -4.9526    3.6983   -1.7463 H   0  0  0  0  0  0  0  0  0  0  0  0
   -4.6086    2.7110   -3.9947 H   0  0  0  0  0  0  0  0  0  0  0  0
   -3.7803    0.3838   -4.2142 H   0  0  0  0  0  0  0  0  0  0  0  0
   -3.2815   -0.9518   -2.1965 H   0  0  0  0  0  0  0  0  0  0  0  0
    1.6104   -2.6382   -0.6825 H   0  0  0  0  0  0  0  0  0  0  0  0
    3.3647   -1.0689   -2.3169 H   0  0  0  0  0  0  0  0  0  0  0  0
    5.9226    2.2125    3.2878 H   0  0  0  0  0  0  0  0  0  0  0  0
    6.3094    0.8898    2.1255 H   0  0  0  0  0  0  0  0  0  0  0  0
    5.4225    0.5239    3.6521 H   0  0  0  0  0  0  0  0  0  0  0  0
    2.9925    1.2314    3.9148 H   0  0  0  0  0  0  0  0  0  0  0  0
    2.1762    2.1700    2.6116 H   0  0  0  0  0  0  0  0  0  0  0  0
    3.4699    2.9410    3.6032 H   0  0  0  0  0  0  0  0  0  0  0  0
    4.7814    3.5368    1.4819 H   0  0  0  0  0  0  0  0  0  0  0  0
    3.4537    2.8128    0.5071 H   0  0  0  0  0  0  0  0  0  0  0  0
    5.1512    2.2513    0.2736 H   0  0  0  0  0  0  0  0  0  0  0  0
  1  2  1  0
  2  3  1  0
  2  4  1  0
  4  5  1  0
  5  6  1  0
  6  7  2  0
  6  8  1  0
  8  9  1  0
  9 10  1  0
 10 11  2  0
 10 12  1  0
 12 13  1  0
 12 14  2  0
 14 15  1  0
 15 16  2  0
 16 17  1  0
 17 18  2  0
 18 19  1  0
 19 20  2  0
 20 21  1  0
 21 22  2  0
  4 23  1  0
 23 24  1  0
 23 25  1  0
 25 26  2  0
 26 27  1  0
 27 28  2  0
 28 29  1  0
 28 30  1  0
 30 31  1  0
 30 32  1  0
 30 33  1  0
 16  9  1  0
 22 17  1  0
 29 25  1  0
  1 34  1  0
  1 35  1  0
  1 36  1  0
  2 37  1  0
  3 38  1  0
  3 39  1  0
  3 40  1  0
  4 41  1  6
  5 42  1  0
  8 43  1  0
  8 44  1  0
 13 45  1  0
 13 46  1  0
 14 47  1  0
 18 48  1  0
 19 49  1  0
 20 50  1  0
 21 51  1  0
 22 52  1  0
 23 53  1  1
 24 54  1  0
 31 55  1  0
 31 56  1  0
 31 57  1  0
 32 58  1  0
 32 59  1  0
 32 60  1  0
 33 61  1  0
 33 62  1  0
 33 63  1  0
M  END
$$$$
