
     RDKit          3D

 67 68  0  0  0  0  0  0  0  0999 V2000
   -3.6183   -1.1610    2.7414 C   0  0  0  0  0  0  0  0  0  0  0  0
   -2.5943   -1.5377    1.6591 C   0  0  0  0  0  0  0  0  0  0  0  0
   -2.7293   -3.0131    1.2594 C   0  0  0  0  0  0  0  0  0  0  0  0
   -2.6456   -0.6626    0.4555 N   0  0  0  0  0  0  0  0  0  0  0  0
   -1.8559    0.5854    0.5728 C   0  0  0  0  0  0  0  0  0  0  0  0
   -0.3513    0.2968    0.4127 C   0  0  0  0  0  0  0  0  0  0  0  0
    0.4481    1.5653    0.0189 C   0  0  2  0  0  0  0  0  0  0  0  0
    0.2163    1.9448   -1.4336 C   0  0  0  0  0  0  0  0  0  0  0  0
   -0.4316    3.1533   -1.7508 C   0  0  0  0  0  0  0  0  0  0  0  0
   -0.6603    3.5062   -3.0840 C   0  0  0  0  0  0  0  0  0  0  0  0
   -0.2439    2.6604   -4.1141 C   0  0  0  0  0  0  0  0  0  0  0  0
    0.4033    1.4602   -3.8132 C   0  0  0  0  0  0  0  0  0  0  0  0
    0.6344    1.1022   -2.4819 C   0  0  0  0  0  0  0  0  0  0  0  0
    1.9473    1.5155    0.3185 C   0  0  0  0  0  0  0  0  0  0  0  0
    2.7345    0.3378    0.2281 C   0  0  0  0  0  0  0  0  0  0  0  0
    2.1386   -0.8805   -0.1233 O   0  0  0  0  0  0  0  0  0  0  0  0
    2.4890   -2.1353    0.3908 C   0  0  0  0  0  0  0  0  0  0  0  0
    3.3064   -2.2423    1.3465 O   0  0  0  0  0  0  0  0  0  0  0  0
    1.8127   -3.3585   -0.1585 C   0  0  0  0  0  0  0  0  0  0  0  0
    2.8410   -4.3170   -0.7651 C   0  0  0  0  0  0  0  0  0  0  0  0
    0.9909   -4.0501    0.9332 C   0  0  0  0  0  0  0  0  0  0  0  0
    4.1208    0.4113    0.4562 C   0  0  0  0  0  0  0  0  0  0  0  0
    4.7262    1.6225    0.7861 C   0  0  0  0  0  0  0  0  0  0  0  0
    3.9647    2.7919    0.8665 C   0  0  0  0  0  0  0  0  0  0  0  0
    4.6136    4.0955    1.2437 C   0  0  0  0  0  0  0  0  0  0  0  0
    4.4828    4.3168    2.6210 O   0  0  0  0  0  0  0  0  0  0  0  0
    2.5843    2.7320    0.6360 C   0  0  0  0  0  0  0  0  0  0  0  0
   -3.9702   -0.5315   -0.2165 C   0  0  0  0  0  0  0  0  0  0  0  0
   -4.7655    0.7274    0.1916 C   0  0  0  0  0  0  0  0  0  0  0  0
   -3.7781   -0.5777   -1.7355 C   0  0  0  0  0  0  0  0  0  0  0  0
   -3.4599   -1.7927    3.6414 H   0  0  0  0  0  0  0  0  0  0  0  0
   -4.6592   -1.3212    2.3921 H   0  0  0  0  0  0  0  0  0  0  0  0
   -3.4875   -0.1028    3.0473 H   0  0  0  0  0  0  0  0  0  0  0  0
   -1.5934   -1.4528    2.1337 H   0  0  0  0  0  0  0  0  0  0  0  0
   -2.4422   -3.6645    2.1125 H   0  0  0  0  0  0  0  0  0  0  0  0
   -3.7691   -3.2670    0.9681 H   0  0  0  0  0  0  0  0  0  0  0  0
   -2.0548   -3.2377    0.4060 H   0  0  0  0  0  0  0  0  0  0  0  0
   -2.0474    1.0865    1.5464 H   0  0  0  0  0  0  0  0  0  0  0  0
   -2.1448    1.2965   -0.2271 H   0  0  0  0  0  0  0  0  0  0  0  0
    0.0442   -0.0922    1.3752 H   0  0  0  0  0  0  0  0  0  0  0  0
   -0.2335   -0.4927   -0.3595 H   0  0  0  0  0  0  0  0  0  0  0  0
    0.0356    2.3733    0.6666 H   0  0  0  0  0  0  0  0  0  0  0  0
   -0.7649    3.8222   -0.9672 H   0  0  0  0  0  0  0  0  0  0  0  0
   -1.1616    4.4363   -3.3183 H   0  0  0  0  0  0  0  0  0  0  0  0
   -0.4224    2.9352   -5.1457 H   0  0  0  0  0  0  0  0  0  0  0  0
    0.7260    0.8055   -4.6124 H   0  0  0  0  0  0  0  0  0  0  0  0
    1.1358    0.1676   -2.2741 H   0  0  0  0  0  0  0  0  0  0  0  0
    1.1154   -3.0440   -0.9664 H   0  0  0  0  0  0  0  0  0  0  0  0
    2.3265   -5.1938   -1.2129 H   0  0  0  0  0  0  0  0  0  0  0  0
    3.4137   -3.8033   -1.5669 H   0  0  0  0  0  0  0  0  0  0  0  0
    3.5517   -4.6768    0.0100 H   0  0  0  0  0  0  0  0  0  0  0  0
    0.2756   -3.3303    1.3848 H   0  0  0  0  0  0  0  0  0  0  0  0
    1.6514   -4.4452    1.7349 H   0  0  0  0  0  0  0  0  0  0  0  0
    0.4116   -4.8925    0.4986 H   0  0  0  0  0  0  0  0  0  0  0  0
    4.7451   -0.4653    0.3493 H   0  0  0  0  0  0  0  0  0  0  0  0
    5.7942    1.6501    0.9645 H   0  0  0  0  0  0  0  0  0  0  0  0
    5.6879    4.1054    0.9490 H   0  0  0  0  0  0  0  0  0  0  0  0
    4.1230    4.9307    0.6997 H   0  0  0  0  0  0  0  0  0  0  0  0
    5.1401    3.7213    3.0675 H   0  0  0  0  0  0  0  0  0  0  0  0
    2.0017    3.6442    0.6973 H   0  0  0  0  0  0  0  0  0  0  0  0
   -4.6106   -1.4035    0.0314 H   0  0  0  0  0  0  0  0  0  0  0  0
   -5.8195    0.6241   -0.1435 H   0  0  0  0  0  0  0  0  0  0  0  0
   -4.3565    1.6460   -0.2778 H   0  0  0  0  0  0  0  0  0  0  0  0
   -4.7707    0.8642    1.2900 H   0  0  0  0  0  0  0  0  0  0  0  0
   -3.1844    0.2909   -2.0909 H   0  0  0  0  0  0  0  0  0  0  0  0
   -3.2446   -1.5102   -2.0179 H   0  0  0  0  0  0  0  0  0  0  0  0
   -4.7640   -0.5695   -2.2477 H   0  0  0  0  0  0  0  0  0  0  0  0
  1  2  1  0
  2  3  1  0
  2  4  1  0
  4  5  1  0
  5  6  1  0
  6  7  1  0
  7  8  1  0
  8  9  2  0
  9 10  1  0
 10 11  2  0
 11 12  1  0
 12 13  2  0
  7 14  1  0
 14 15  2  0
 15 16  1  0
 16 17  1  0
 17 18  2  0
 17 19  1  0
 19 20  1  0
 19 21  1  0
 15 22  1  0
 22 23  2  0
 23 24  1  0
 24 25  1  0
 25 26  1  0
 24 27  2  0
  4 28  1  0
 28 29  1  0
 28 30  1  0
 13  8  1  0
 27 14  1  0
  1 31  1  0
  1 32  1  0
  1 33  1  0
  2 34  1  0
  3 35  1  0
  3 36  1  0
  3 37  1  0
  5 38  1  0
  5 39  1  0
  6 40  1  0
  6 41  1  0
  7 42  1  1
  9 43  1  0
 10 44  1  0
 11 45  1  0
 12 46  1  0
 13 47  1  0
 19 48  1  0
 20 49  1  0
 20 50  1  0
 20 51  1  0
 21 52  1  0
 21 53  1  0
 21 54  1  0
 22 55  1  0
 23 56  1  0
 25 57  1  0
 25 58  1  0
 26 59  1  0
 27 60  1  0
 28 61  1  0
 29 62  1  0
 29 63  1  0
 29 64  1  0
 30 65  1  0
 30 66  1  0
 30 67  1  0
M  END
$$$$
