
     RDKit          3D

 42 46  0  0  0  0  0  0  0  0999 V2000
   -3.0973    2.2033    1.6121 C   0  0  0  0  0  0  0  0  0  0  0  0
   -3.2891    0.7400    2.0273 C   0  0  0  0  0  0  0  0  0  0  0  0
   -3.4759   -0.2362    0.8221 C   0  0  1  0  0  0  0  0  0  0  0  0
   -3.5292   -1.5622    1.2933 O   0  0  0  0  0  0  0  0  0  0  0  0
   -4.7893    0.0906    0.1302 C   0  0  0  0  0  0  0  0  0  0  0  0
   -5.8578    0.1309    0.7973 O   0  0  0  0  0  0  0  0  0  0  0  0
   -4.8393    0.3928   -1.2275 O   0  0  0  0  0  0  0  0  0  0  0  0
   -3.8469   -0.0423   -2.1433 C   0  0  0  0  0  0  0  0  0  0  0  0
   -2.4690    0.0160   -1.5426 C   0  0  0  0  0  0  0  0  0  0  0  0
   -2.2884   -0.1468   -0.1403 C   0  0  0  0  0  0  0  0  0  0  0  0
   -0.9758   -0.2895    0.3633 C   0  0  0  0  0  0  0  0  0  0  0  0
    0.0926   -0.1955   -0.5193 C   0  0  0  0  0  0  0  0  0  0  0  0
   -0.0955   -0.0076   -1.8414 N   0  0  0  0  0  0  0  0  0  0  0  0
    1.1923    0.0302   -2.5488 C   0  0  0  0  0  0  0  0  0  0  0  0
    2.1740   -0.1623   -1.4304 C   0  0  0  0  0  0  0  0  0  0  0  0
    3.5642   -0.2191   -1.4642 C   0  0  0  0  0  0  0  0  0  0  0  0
    4.2468   -0.4149   -0.2468 C   0  0  0  0  0  0  0  0  0  0  0  0
    5.6467   -0.4818   -0.2061 C   0  0  0  0  0  0  0  0  0  0  0  0
    6.3027   -0.6769    1.0135 C   0  0  0  0  0  0  0  0  0  0  0  0
    5.5695   -0.8063    2.1977 C   0  0  0  0  0  0  0  0  0  0  0  0
    4.1729   -0.7419    2.1742 C   0  0  0  0  0  0  0  0  0  0  0  0
    3.5003   -0.5472    0.9631 C   0  0  0  0  0  0  0  0  0  0  0  0
    2.1358   -0.4846    0.9420 N   0  0  0  0  0  0  0  0  0  0  0  0
    1.5024   -0.2952   -0.2414 C   0  0  0  0  0  0  0  0  0  0  0  0
   -1.3367    0.0799   -2.3879 C   0  0  0  0  0  0  0  0  0  0  0  0
   -1.4679    0.2033   -3.6365 O   0  0  0  0  0  0  0  0  0  0  0  0
   -3.0127    2.8359    2.5207 H   0  0  0  0  0  0  0  0  0  0  0  0
   -2.1688    2.3266    1.0167 H   0  0  0  0  0  0  0  0  0  0  0  0
   -3.9640    2.5603    1.0174 H   0  0  0  0  0  0  0  0  0  0  0  0
   -4.1751    0.6843    2.6973 H   0  0  0  0  0  0  0  0  0  0  0  0
   -2.4249    0.4298    2.6506 H   0  0  0  0  0  0  0  0  0  0  0  0
   -4.2533   -1.6252    1.9707 H   0  0  0  0  0  0  0  0  0  0  0  0
   -3.9105    0.5940   -3.0511 H   0  0  0  0  0  0  0  0  0  0  0  0
   -4.0621   -1.0921   -2.4353 H   0  0  0  0  0  0  0  0  0  0  0  0
   -0.7843   -0.4756    1.4110 H   0  0  0  0  0  0  0  0  0  0  0  0
    1.3405    1.0166   -3.0377 H   0  0  0  0  0  0  0  0  0  0  0  0
    1.2618   -0.8039   -3.2795 H   0  0  0  0  0  0  0  0  0  0  0  0
    4.0949   -0.1150   -2.4027 H   0  0  0  0  0  0  0  0  0  0  0  0
    6.2307   -0.3837   -1.1134 H   0  0  0  0  0  0  0  0  0  0  0  0
    7.3835   -0.7281    1.0414 H   0  0  0  0  0  0  0  0  0  0  0  0
    6.0859   -0.9570    3.1370 H   0  0  0  0  0  0  0  0  0  0  0  0
    3.6163   -0.8434    3.0977 H   0  0  0  0  0  0  0  0  0  0  0  0
  1  2  1  0
  2  3  1  0
  3  4  1  1
  3  5  1  0
  5  6  2  0
  5  7  1  0
  7  8  1  0
  8  9  1  0
  9 10  2  0
 10 11  1  0
 11 12  2  0
 12 13  1  0
 13 14  1  0
 14 15  1  0
 15 16  2  0
 16 17  1  0
 17 18  2  0
 18 19  1  0
 19 20  2  0
 20 21  1  0
 21 22  2  0
 22 23  1  0
 23 24  2  0
 13 25  1  0
 25 26  2  0
 10  3  1  0
 24 12  1  0
 25  9  1  0
 24 15  1  0
 22 17  1  0
  1 27  1  0
  1 28  1  0
  1 29  1  0
  2 30  1  0
  2 31  1  0
  4 32  1  0
  8 33  1  0
  8 34  1  0
 11 35  1  0
 14 36  1  0
 14 37  1  0
 16 38  1  0
 18 39  1  0
 19 40  1  0
 20 41  1  0
 21 42  1  0
M  END
$$$$
