
     RDKit          3D

 60 60  0  0  0  0  0  0  0  0999 V2000
    1.9991   -4.1874    1.5454 C   0  0  0  0  0  0  0  0  0  0  0  0
    2.3271   -2.9267    0.7276 C   0  0  0  0  0  0  0  0  0  0  0  0
    3.7703   -3.0214    0.2067 C   0  0  0  0  0  0  0  0  0  0  0  0
    1.3176   -2.7390   -0.4427 C   0  0  2  0  0  0  0  0  0  0  0  0
    1.7124   -1.6356   -1.3283 N   0  0  0  0  0  0  0  0  0  0  0  0
    1.7193   -0.2529   -0.9456 C   0  0  0  0  0  0  0  0  0  0  0  0
    1.4423    0.0862    0.2371 O   0  0  0  0  0  0  0  0  0  0  0  0
    2.0296    0.7177   -1.9039 O   0  0  0  0  0  0  0  0  0  0  0  0
    2.0315    2.1170   -1.6273 C   0  0  0  0  0  0  0  0  0  0  0  0
    3.1764    2.4744   -0.7187 C   0  0  0  0  0  0  0  0  0  0  0  0
    4.4993    2.3092   -1.1599 C   0  0  0  0  0  0  0  0  0  0  0  0
    5.5680    2.6212   -0.3137 C   0  0  0  0  0  0  0  0  0  0  0  0
    5.3232    3.0980    0.9771 C   0  0  0  0  0  0  0  0  0  0  0  0
    4.0092    3.2632    1.4239 C   0  0  0  0  0  0  0  0  0  0  0  0
    2.9376    2.9525    0.5808 C   0  0  0  0  0  0  0  0  0  0  0  0
   -0.1058   -2.5242    0.0171 C   0  0  0  0  0  0  0  0  0  0  0  0
   -0.3355   -1.9617    1.1228 O   0  0  0  0  0  0  0  0  0  0  0  0
   -1.1933   -2.8660   -0.8594 N   0  0  0  0  0  0  0  0  0  0  0  0
   -2.5788   -2.4222   -0.6537 C   0  0  1  0  0  0  0  0  0  0  0  0
   -3.1522   -3.0375    0.6310 C   0  0  0  0  0  0  0  0  0  0  0  0
   -2.6718   -0.9109   -0.6673 C   0  0  0  0  0  0  0  0  0  0  0  0
   -1.7078   -0.2310   -1.1164 O   0  0  0  0  0  0  0  0  0  0  0  0
   -3.8709   -0.2429   -0.2437 N   0  0  0  0  0  0  0  0  0  0  0  0
   -3.9277    1.2152   -0.0970 C   0  0  1  0  0  0  0  0  0  0  0  0
   -5.3834    1.6774    0.1032 C   0  0  0  0  0  0  0  0  0  0  0  0
   -5.4889    3.1723    0.1102 C   0  0  0  0  0  0  0  0  0  0  0  0
   -5.4686    3.8633    1.3177 O   0  0  0  0  0  0  0  0  0  0  0  0
   -5.5569    3.8056   -0.9770 O   0  0  0  0  0  0  0  0  0  0  0  0
   -3.0603    1.6374    1.0706 C   0  0  0  0  0  0  0  0  0  0  0  0
   -3.2959    1.2006    2.1876 O   0  0  0  0  0  0  0  0  0  0  0  0
   -1.9059    2.5786    0.8845 C   0  0  0  0  0  0  0  0  0  0  0  0
   -0.7335    1.9546    1.2673 F   0  0  0  0  0  0  0  0  0  0  0  0
    2.7238   -4.3036    2.3794 H   0  0  0  0  0  0  0  0  0  0  0  0
    2.0452   -5.0936    0.9039 H   0  0  0  0  0  0  0  0  0  0  0  0
    0.9850   -4.1170    1.9907 H   0  0  0  0  0  0  0  0  0  0  0  0
    2.2741   -2.0530    1.4128 H   0  0  0  0  0  0  0  0  0  0  0  0
    3.8704   -3.8566   -0.5195 H   0  0  0  0  0  0  0  0  0  0  0  0
    4.0701   -2.0744   -0.2894 H   0  0  0  0  0  0  0  0  0  0  0  0
    4.4742   -3.1930    1.0490 H   0  0  0  0  0  0  0  0  0  0  0  0
    1.3333   -3.6770   -1.0425 H   0  0  0  0  0  0  0  0  0  0  0  0
    1.9615   -1.8655   -2.3167 H   0  0  0  0  0  0  0  0  0  0  0  0
    2.1471    2.6683   -2.5842 H   0  0  0  0  0  0  0  0  0  0  0  0
    1.0529    2.4147   -1.1901 H   0  0  0  0  0  0  0  0  0  0  0  0
    4.7009    1.9363   -2.1566 H   0  0  0  0  0  0  0  0  0  0  0  0
    6.5859    2.4918   -0.6581 H   0  0  0  0  0  0  0  0  0  0  0  0
    6.1513    3.3382    1.6312 H   0  0  0  0  0  0  0  0  0  0  0  0
    3.8209    3.6306    2.4244 H   0  0  0  0  0  0  0  0  0  0  0  0
    1.9252    3.0814    0.9427 H   0  0  0  0  0  0  0  0  0  0  0  0
   -0.9752   -3.3828   -1.7413 H   0  0  0  0  0  0  0  0  0  0  0  0
   -3.1909   -2.7953   -1.5039 H   0  0  0  0  0  0  0  0  0  0  0  0
   -4.2607   -2.9818    0.6263 H   0  0  0  0  0  0  0  0  0  0  0  0
   -2.8711   -4.1102    0.6964 H   0  0  0  0  0  0  0  0  0  0  0  0
   -2.7769   -2.5119    1.5337 H   0  0  0  0  0  0  0  0  0  0  0  0
   -4.7220   -0.8126   -0.0370 H   0  0  0  0  0  0  0  0  0  0  0  0
   -3.5568    1.6747   -1.0404 H   0  0  0  0  0  0  0  0  0  0  0  0
   -5.7894    1.2726    1.0560 H   0  0  0  0  0  0  0  0  0  0  0  0
   -6.0120    1.2799   -0.7236 H   0  0  0  0  0  0  0  0  0  0  0  0
   -5.5201    4.8747    1.3382 H   0  0  0  0  0  0  0  0  0  0  0  0
   -2.0608    3.4807    1.5125 H   0  0  0  0  0  0  0  0  0  0  0  0
   -1.8114    2.8994   -0.1737 H   0  0  0  0  0  0  0  0  0  0  0  0
  1  2  1  0
  2  3  1  0
  2  4  1  0
  4  5  1  0
  5  6  1  0
  6  7  2  0
  6  8  1  0
  8  9  1  0
  9 10  1  0
 10 11  2  0
 11 12  1  0
 12 13  2  0
 13 14  1  0
 14 15  2  0
  4 16  1  0
 16 17  2  0
 16 18  1  0
 18 19  1  0
 19 20  1  0
 19 21  1  0
 21 22  2  0
 21 23  1  0
 23 24  1  0
 24 25  1  0
 25 26  1  0
 26 27  1  0
 26 28  2  0
 24 29  1  0
 29 30  2  0
 29 31  1  0
 31 32  1  0
 15 10  1  0
  1 33  1  0
  1 34  1  0
  1 35  1  0
  2 36  1  0
  3 37  1  0
  3 38  1  0
  3 39  1  0
  4 40  1  6
  5 41  1  0
  9 42  1  0
  9 43  1  0
 11 44  1  0
 12 45  1  0
 13 46  1  0
 14 47  1  0
 15 48  1  0
 18 49  1  0
 19 50  1  6
 20 51  1  0
 20 52  1  0
 20 53  1  0
 23 54  1  0
 24 55  1  6
 25 56  1  0
 25 57  1  0
 27 58  1  0
 31 59  1  0
 31 60  1  0
M  END
$$$$
