
     RDKit          3D

 86 90  0  0  0  0  0  0  0  0999 V2000
   -1.6864    2.3974   -3.1668 C   0  0  0  0  0  0  0  0  0  0  0  0
   -0.6382    2.8597   -2.1622 C   0  0  0  0  0  0  0  0  0  0  0  0
   -0.9328    2.3238   -0.8217 N   0  0  0  0  0  0  0  0  0  0  0  0
   -1.2712    3.2054    0.3124 C   0  0  0  0  0  0  0  0  0  0  0  0
   -0.0582    4.0559    0.7408 C   0  0  0  0  0  0  0  0  0  0  0  0
   -0.5031    5.3073    1.5189 C   0  0  0  0  0  0  0  0  0  0  0  0
   -1.7392    5.0814    2.1679 O   0  0  0  0  0  0  0  0  0  0  0  0
   -2.7922    5.0237    1.2163 C   0  0  0  0  0  0  0  0  0  0  0  0
   -2.4886    4.0978    0.0138 C   0  0  0  0  0  0  0  0  0  0  0  0
   -0.6024    0.9501   -0.5388 C   0  0  0  0  0  0  0  0  0  0  0  0
    0.7437    0.5610   -0.5479 C   0  0  0  0  0  0  0  0  0  0  0  0
    1.1177   -0.7549   -0.2462 C   0  0  0  0  0  0  0  0  0  0  0  0
    0.1247   -1.6812    0.1021 C   0  0  0  0  0  0  0  0  0  0  0  0
   -1.2269   -1.3085    0.1519 C   0  0  0  0  0  0  0  0  0  0  0  0
   -2.2128   -2.3192    0.5907 C   0  0  0  0  0  0  0  0  0  0  0  0
   -2.1800   -3.4751    0.0889 O   0  0  0  0  0  0  0  0  0  0  0  0
   -3.1627   -2.0072    1.6195 N   0  0  0  0  0  0  0  0  0  0  0  0
   -4.3615   -2.8087    1.8571 C   0  0  0  0  0  0  0  0  0  0  0  0
   -5.4184   -2.4869    0.8182 C   0  0  0  0  0  0  0  0  0  0  0  0
   -6.2298   -1.3303    0.9269 C   0  0  0  0  0  0  0  0  0  0  0  0
   -6.1565   -0.4162    2.1234 C   0  0  0  0  0  0  0  0  0  0  0  0
   -7.1565   -1.0448   -0.0852 C   0  0  0  0  0  0  0  0  0  0  0  0
   -7.2570   -1.8807   -1.2005 C   0  0  0  0  0  0  0  0  0  0  0  0
   -8.2700   -1.5884   -2.2680 C   0  0  0  0  0  0  0  0  0  0  0  0
   -6.4806   -2.9962   -1.2811 N   0  0  0  0  0  0  0  0  0  0  0  0
   -5.5734   -3.3127   -0.3165 C   0  0  0  0  0  0  0  0  0  0  0  0
   -4.8776   -4.3562   -0.4478 O   0  0  0  0  0  0  0  0  0  0  0  0
   -1.6073    0.0081   -0.2142 C   0  0  0  0  0  0  0  0  0  0  0  0
   -3.0628    0.4111   -0.2668 C   0  0  0  0  0  0  0  0  0  0  0  0
    2.5479   -1.1540   -0.2741 C   0  0  0  0  0  0  0  0  0  0  0  0
    3.3939   -0.7038   -1.3035 C   0  0  0  0  0  0  0  0  0  0  0  0
    4.7407   -1.0762   -1.3295 C   0  0  0  0  0  0  0  0  0  0  0  0
    5.2663   -1.9050   -0.3269 C   0  0  0  0  0  0  0  0  0  0  0  0
    6.7199   -2.2980   -0.3374 C   0  0  0  0  0  0  0  0  0  0  0  0
    7.4240   -1.6750    0.8054 N   0  0  0  0  0  0  0  0  0  0  0  0
    8.6229   -2.4404    1.1988 C   0  0  0  0  0  0  0  0  0  0  0  0
    9.7592   -2.3056    0.1568 C   0  0  0  0  0  0  0  0  0  0  0  0
    9.5773   -1.2162   -0.7316 O   0  0  0  0  0  0  0  0  0  0  0  0
    9.1787   -0.0677   -0.0158 C   0  0  0  0  0  0  0  0  0  0  0  0
    7.7591   -0.2517    0.5584 C   0  0  0  0  0  0  0  0  0  0  0  0
    4.4272   -2.3539    0.7031 C   0  0  0  0  0  0  0  0  0  0  0  0
    3.0799   -1.9833    0.7296 C   0  0  0  0  0  0  0  0  0  0  0  0
   -2.6889    2.7721   -2.8711 H   0  0  0  0  0  0  0  0  0  0  0  0
   -1.7074    1.2882   -3.2190 H   0  0  0  0  0  0  0  0  0  0  0  0
   -1.4400    2.7967   -4.1730 H   0  0  0  0  0  0  0  0  0  0  0  0
   -0.6145    3.9688   -2.1576 H   0  0  0  0  0  0  0  0  0  0  0  0
    0.3649    2.5223   -2.4997 H   0  0  0  0  0  0  0  0  0  0  0  0
   -1.5547    2.5757    1.1879 H   0  0  0  0  0  0  0  0  0  0  0  0
    0.5388    4.3784   -0.1383 H   0  0  0  0  0  0  0  0  0  0  0  0
    0.6049    3.4337    1.3811 H   0  0  0  0  0  0  0  0  0  0  0  0
   -0.5660    6.1875    0.8372 H   0  0  0  0  0  0  0  0  0  0  0  0
    0.2632    5.5509    2.2849 H   0  0  0  0  0  0  0  0  0  0  0  0
   -3.0371    6.0490    0.8601 H   0  0  0  0  0  0  0  0  0  0  0  0
   -3.6963    4.6419    1.7365 H   0  0  0  0  0  0  0  0  0  0  0  0
   -2.2943    4.7334   -0.8750 H   0  0  0  0  0  0  0  0  0  0  0  0
   -3.3764    3.4689   -0.2101 H   0  0  0  0  0  0  0  0  0  0  0  0
    1.5045    1.3007   -0.7653 H   0  0  0  0  0  0  0  0  0  0  0  0
    0.4038   -2.6996    0.3463 H   0  0  0  0  0  0  0  0  0  0  0  0
   -2.9960   -1.1677    2.2184 H   0  0  0  0  0  0  0  0  0  0  0  0
   -4.1008   -3.8887    1.8625 H   0  0  0  0  0  0  0  0  0  0  0  0
   -4.7517   -2.5936    2.8740 H   0  0  0  0  0  0  0  0  0  0  0  0
   -5.1144   -0.0808    2.2927 H   0  0  0  0  0  0  0  0  0  0  0  0
   -6.7785    0.4934    1.9834 H   0  0  0  0  0  0  0  0  0  0  0  0
   -6.5248   -0.9497    3.0243 H   0  0  0  0  0  0  0  0  0  0  0  0
   -7.7978   -0.1743   -0.0094 H   0  0  0  0  0  0  0  0  0  0  0  0
   -8.4030   -0.4925   -2.3923 H   0  0  0  0  0  0  0  0  0  0  0  0
   -9.2426   -2.0440   -1.9884 H   0  0  0  0  0  0  0  0  0  0  0  0
   -7.9402   -2.0072   -3.2421 H   0  0  0  0  0  0  0  0  0  0  0  0
   -6.5798   -3.6310   -2.1064 H   0  0  0  0  0  0  0  0  0  0  0  0
   -3.2381    1.1835   -1.0404 H   0  0  0  0  0  0  0  0  0  0  0  0
   -3.7088   -0.4467   -0.5441 H   0  0  0  0  0  0  0  0  0  0  0  0
   -3.3773    0.8117    0.7183 H   0  0  0  0  0  0  0  0  0  0  0  0
    3.0099   -0.0753   -2.0974 H   0  0  0  0  0  0  0  0  0  0  0  0
    5.3727   -0.7164   -2.1320 H   0  0  0  0  0  0  0  0  0  0  0  0
    6.7611   -3.4081   -0.2698 H   0  0  0  0  0  0  0  0  0  0  0  0
    7.1995   -2.0222   -1.3031 H   0  0  0  0  0  0  0  0  0  0  0  0
    8.3726   -3.5112    1.3659 H   0  0  0  0  0  0  0  0  0  0  0  0
    8.9840   -2.0531    2.1772 H   0  0  0  0  0  0  0  0  0  0  0  0
    9.7943   -3.2354   -0.4496 H   0  0  0  0  0  0  0  0  0  0  0  0
   10.7418   -2.2146    0.6704 H   0  0  0  0  0  0  0  0  0  0  0  0
    9.9037    0.1608    0.7998 H   0  0  0  0  0  0  0  0  0  0  0  0
    9.1849    0.8031   -0.7049 H   0  0  0  0  0  0  0  0  0  0  0  0
    7.0204    0.2222   -0.1250 H   0  0  0  0  0  0  0  0  0  0  0  0
    7.6888    0.3013    1.5195 H   0  0  0  0  0  0  0  0  0  0  0  0
    4.8194   -2.9872    1.4894 H   0  0  0  0  0  0  0  0  0  0  0  0
    2.4590   -2.3296    1.5463 H   0  0  0  0  0  0  0  0  0  0  0  0
  1  2  1  0
  2  3  1  0
  3  4  1  0
  4  5  1  0
  5  6  1  0
  6  7  1  0
  7  8  1  0
  8  9  1  0
  3 10  1  0
 10 11  2  0
 11 12  1  0
 12 13  2  0
 13 14  1  0
 14 15  1  0
 15 16  2  0
 15 17  1  0
 17 18  1  0
 18 19  1  0
 19 20  2  0
 20 21  1  0
 20 22  1  0
 22 23  2  0
 23 24  1  0
 23 25  1  0
 25 26  1  0
 26 27  2  0
 14 28  2  0
 28 29  1  0
 12 30  1  0
 30 31  2  0
 31 32  1  0
 32 33  2  0
 33 34  1  0
 34 35  1  0
 35 36  1  0
 36 37  1  0
 37 38  1  0
 38 39  1  0
 39 40  1  0
 33 41  1  0
 41 42  2  0
  9  4  1  0
 28 10  1  0
 42 30  1  0
 26 19  1  0
 40 35  1  0
  1 43  1  0
  1 44  1  0
  1 45  1  0
  2 46  1  0
  2 47  1  0
  4 48  1  0
  5 49  1  0
  5 50  1  0
  6 51  1  0
  6 52  1  0
  8 53  1  0
  8 54  1  0
  9 55  1  0
  9 56  1  0
 11 57  1  0
 13 58  1  0
 17 59  1  0
 18 60  1  0
 18 61  1  0
 21 62  1  0
 21 63  1  0
 21 64  1  0
 22 65  1  0
 24 66  1  0
 24 67  1  0
 24 68  1  0
 25 69  1  0
 29 70  1  0
 29 71  1  0
 29 72  1  0
 31 73  1  0
 32 74  1  0
 34 75  1  0
 34 76  1  0
 36 77  1  0
 36 78  1  0
 37 79  1  0
 37 80  1  0
 39 81  1  0
 39 82  1  0
 40 83  1  0
 40 84  1  0
 41 85  1  0
 42 86  1  0
M  END
$$$$
