
     RDKit          3D

 86 91  0  0  0  0  0  0  0  0999 V2000
    7.2090    5.9928    2.4429 C   0  0  0  0  0  0  0  0  0  0  0  0
    7.0659    4.9950    1.4371 O   0  0  0  0  0  0  0  0  0  0  0  0
    6.9124    3.6231    1.6934 C   0  0  0  0  0  0  0  0  0  0  0  0
    6.8908    3.1057    3.0038 C   0  0  0  0  0  0  0  0  0  0  0  0
    6.7239    1.7318    3.2160 C   0  0  0  0  0  0  0  0  0  0  0  0
    6.5935    0.8662    2.1295 C   0  0  0  0  0  0  0  0  0  0  0  0
    6.4630   -0.6067    2.4107 C   0  0  0  0  0  0  0  0  0  0  0  0
    5.5478   -0.8700    3.5492 N   0  0  0  0  0  0  0  0  0  0  0  0
    4.1699   -1.2189    3.1375 C   0  0  0  0  0  0  0  0  0  0  0  0
    3.4821   -0.1175    2.3055 C   0  0  0  0  0  0  0  0  0  0  0  0
    2.0316   -0.4525    2.0863 C   0  0  0  0  0  0  0  0  0  0  0  0
    1.6446   -1.2438    0.9942 C   0  0  0  0  0  0  0  0  0  0  0  0
    0.3011   -1.5818    0.8079 C   0  0  0  0  0  0  0  0  0  0  0  0
   -0.6775   -1.1299    1.7112 C   0  0  0  0  0  0  0  0  0  0  0  0
   -2.0625   -1.4832    1.5547 N   0  0  0  0  0  0  0  0  0  0  0  0
   -2.7077   -1.6543    0.2816 C   0  0  0  0  0  0  0  0  0  0  0  0
   -2.1671   -1.2012   -0.7641 O   0  0  0  0  0  0  0  0  0  0  0  0
   -4.0194   -2.3431    0.1943 C   0  0  0  0  0  0  0  0  0  0  0  0
   -4.2899   -3.4090    1.0687 C   0  0  0  0  0  0  0  0  0  0  0  0
   -5.5031   -4.1171    0.9949 C   0  0  0  0  0  0  0  0  0  0  0  0
   -5.7941   -5.1893    1.8540 O   0  0  0  0  0  0  0  0  0  0  0  0
   -4.9225   -5.6687    2.8729 C   0  0  0  0  0  0  0  0  0  0  0  0
   -6.4606   -3.7538    0.0399 C   0  0  0  0  0  0  0  0  0  0  0  0
   -7.6643   -4.4755   -0.0044 O   0  0  0  0  0  0  0  0  0  0  0  0
   -8.7241   -4.2239   -0.9218 C   0  0  0  0  0  0  0  0  0  0  0  0
   -6.1979   -2.6859   -0.8359 C   0  0  0  0  0  0  0  0  0  0  0  0
   -4.9835   -1.9847   -0.7754 C   0  0  0  0  0  0  0  0  0  0  0  0
   -4.7750   -0.8491   -1.6319 N   0  0  0  0  0  0  0  0  0  0  0  0
   -4.9873   -0.8902   -3.0545 C   0  0  0  0  0  0  0  0  0  0  0  0
   -5.4035   -1.9510   -3.5964 O   0  0  0  0  0  0  0  0  0  0  0  0
   -4.7200    0.2949   -3.9039 C   0  0  0  0  0  0  0  0  0  0  0  0
   -3.7525    1.2511   -3.5461 C   0  0  0  0  0  0  0  0  0  0  0  0
   -3.5175    2.3258   -4.3448 N   0  0  0  0  0  0  0  0  0  0  0  0
   -4.1947    2.5194   -5.5066 C   0  0  0  0  0  0  0  0  0  0  0  0
   -3.9259    3.6415   -6.2990 C   0  0  0  0  0  0  0  0  0  0  0  0
   -4.6218    3.8346   -7.4966 C   0  0  0  0  0  0  0  0  0  0  0  0
   -5.5865    2.9085   -7.9065 C   0  0  0  0  0  0  0  0  0  0  0  0
   -5.8609    1.7839   -7.1213 C   0  0  0  0  0  0  0  0  0  0  0  0
   -5.1672    1.5832   -5.9181 C   0  0  0  0  0  0  0  0  0  0  0  0
   -5.4197    0.4679   -5.1099 C   0  0  0  0  0  0  0  0  0  0  0  0
   -0.2819   -0.3706    2.8223 C   0  0  0  0  0  0  0  0  0  0  0  0
    1.0613   -0.0317    3.0082 C   0  0  0  0  0  0  0  0  0  0  0  0
    5.5931    0.0858    4.6934 C   0  0  0  0  0  0  0  0  0  0  0  0
    6.7122    1.1366    4.5920 C   0  0  0  0  0  0  0  0  0  0  0  0
    6.6285    1.3690    0.8233 C   0  0  0  0  0  0  0  0  0  0  0  0
    6.7794    2.7517    0.5992 C   0  0  0  0  0  0  0  0  0  0  0  0
    6.8045    3.2977   -0.6940 O   0  0  0  0  0  0  0  0  0  0  0  0
    6.6727    2.5399   -1.8923 C   0  0  0  0  0  0  0  0  0  0  0  0
    7.3094    6.9849    1.9572 H   0  0  0  0  0  0  0  0  0  0  0  0
    8.1209    5.7987    3.0463 H   0  0  0  0  0  0  0  0  0  0  0  0
    6.3121    6.0066    3.0975 H   0  0  0  0  0  0  0  0  0  0  0  0
    6.9999    3.7607    3.8576 H   0  0  0  0  0  0  0  0  0  0  0  0
    7.4692   -0.9984    2.6712 H   0  0  0  0  0  0  0  0  0  0  0  0
    6.1408   -1.1612    1.5011 H   0  0  0  0  0  0  0  0  0  0  0  0
    3.5610   -1.4404    4.0430 H   0  0  0  0  0  0  0  0  0  0  0  0
    4.1957   -2.1592    2.5440 H   0  0  0  0  0  0  0  0  0  0  0  0
    3.9837   -0.0162    1.3197 H   0  0  0  0  0  0  0  0  0  0  0  0
    3.5624    0.8677    2.8111 H   0  0  0  0  0  0  0  0  0  0  0  0
    2.3851   -1.6069    0.2920 H   0  0  0  0  0  0  0  0  0  0  0  0
    0.0342   -2.2177   -0.0256 H   0  0  0  0  0  0  0  0  0  0  0  0
   -2.6592   -1.5171    2.4124 H   0  0  0  0  0  0  0  0  0  0  0  0
   -3.5408   -3.7005    1.7923 H   0  0  0  0  0  0  0  0  0  0  0  0
   -3.9720   -6.0276    2.4248 H   0  0  0  0  0  0  0  0  0  0  0  0
   -5.4097   -6.5162    3.3970 H   0  0  0  0  0  0  0  0  0  0  0  0
   -4.7188   -4.8644    3.6111 H   0  0  0  0  0  0  0  0  0  0  0  0
   -8.3650   -4.3521   -1.9648 H   0  0  0  0  0  0  0  0  0  0  0  0
   -9.1194   -3.1964   -0.7761 H   0  0  0  0  0  0  0  0  0  0  0  0
   -9.5432   -4.9485   -0.7366 H   0  0  0  0  0  0  0  0  0  0  0  0
   -6.9466   -2.3740   -1.5508 H   0  0  0  0  0  0  0  0  0  0  0  0
   -4.4405    0.0331   -1.1857 H   0  0  0  0  0  0  0  0  0  0  0  0
   -3.1599    1.1367   -2.6495 H   0  0  0  0  0  0  0  0  0  0  0  0
   -3.1799    4.3631   -5.9898 H   0  0  0  0  0  0  0  0  0  0  0  0
   -4.4131    4.7029   -8.1081 H   0  0  0  0  0  0  0  0  0  0  0  0
   -6.1221    3.0626   -8.8344 H   0  0  0  0  0  0  0  0  0  0  0  0
   -6.6108    1.0754   -7.4523 H   0  0  0  0  0  0  0  0  0  0  0  0
   -6.1676   -0.2566   -5.4121 H   0  0  0  0  0  0  0  0  0  0  0  0
   -1.0180   -0.0350    3.5421 H   0  0  0  0  0  0  0  0  0  0  0  0
    1.3458    0.5559    3.8725 H   0  0  0  0  0  0  0  0  0  0  0  0
    5.7407   -0.4946    5.6286 H   0  0  0  0  0  0  0  0  0  0  0  0
    4.6288    0.6277    4.8102 H   0  0  0  0  0  0  0  0  0  0  0  0
    6.5517    1.9191    5.3655 H   0  0  0  0  0  0  0  0  0  0  0  0
    7.6951    0.6550    4.7853 H   0  0  0  0  0  0  0  0  0  0  0  0
    6.5350    0.6825   -0.0072 H   0  0  0  0  0  0  0  0  0  0  0  0
    5.6930    2.0170   -1.9077 H   0  0  0  0  0  0  0  0  0  0  0  0
    7.5009    1.8044   -1.9722 H   0  0  0  0  0  0  0  0  0  0  0  0
    6.7225    3.2262   -2.7623 H   0  0  0  0  0  0  0  0  0  0  0  0
  1  2  1  0
  2  3  1  0
  3  4  2  0
  4  5  1  0
  5  6  2  0
  6  7  1  0
  7  8  1  0
  8  9  1  0
  9 10  1  0
 10 11  1  0
 11 12  2  0
 12 13  1  0
 13 14  2  0
 14 15  1  0
 15 16  1  0
 16 17  2  0
 16 18  1  0
 18 19  2  0
 19 20  1  0
 20 21  1  0
 21 22  1  0
 20 23  2  0
 23 24  1  0
 24 25  1  0
 23 26  1  0
 26 27  2  0
 27 28  1  0
 28 29  1  0
 29 30  2  0
 29 31  1  0
 31 32  2  0
 32 33  1  0
 33 34  2  0
 34 35  1  0
 35 36  2  0
 36 37  1  0
 37 38  2  0
 38 39  1  0
 39 40  2  0
 14 41  1  0
 41 42  2  0
  8 43  1  0
 43 44  1  0
  6 45  1  0
 45 46  2  0
 46 47  1  0
 47 48  1  0
 46  3  1  0
 44  5  1  0
 42 11  1  0
 27 18  1  0
 40 31  1  0
 39 34  1  0
  1 49  1  0
  1 50  1  0
  1 51  1  0
  4 52  1  0
  7 53  1  0
  7 54  1  0
  9 55  1  0
  9 56  1  0
 10 57  1  0
 10 58  1  0
 12 59  1  0
 13 60  1  0
 15 61  1  0
 19 62  1  0
 22 63  1  0
 22 64  1  0
 22 65  1  0
 25 66  1  0
 25 67  1  0
 25 68  1  0
 26 69  1  0
 28 70  1  0
 32 71  1  0
 35 72  1  0
 36 73  1  0
 37 74  1  0
 38 75  1  0
 40 76  1  0
 41 77  1  0
 42 78  1  0
 43 79  1  0
 43 80  1  0
 44 81  1  0
 44 82  1  0
 45 83  1  0
 48 84  1  0
 48 85  1  0
 48 86  1  0
M  END
$$$$
