
     RDKit          3D

 54 56  0  0  0  0  0  0  0  0999 V2000
    5.6071    3.9597   -1.9995 C   0  0  0  0  0  0  0  0  0  0  0  0
    4.4655    3.7092   -1.1863 O   0  0  0  0  0  0  0  0  0  0  0  0
    3.9418    2.4337   -0.9280 C   0  0  0  0  0  0  0  0  0  0  0  0
    4.5089    1.2621   -1.4616 C   0  0  0  0  0  0  0  0  0  0  0  0
    3.9483    0.0136   -1.1760 C   0  0  0  0  0  0  0  0  0  0  0  0
    2.8183   -0.0915   -0.3458 C   0  0  0  0  0  0  0  0  0  0  0  0
    2.2519    1.0845    0.1784 C   0  0  0  0  0  0  0  0  0  0  0  0
    2.8116    2.3319   -0.1109 C   0  0  0  0  0  0  0  0  0  0  0  0
    2.2240   -1.4227   -0.0696 C   0  0  0  0  0  0  0  0  0  0  0  0
    2.4277   -2.3674   -0.8809 O   0  0  0  0  0  0  0  0  0  0  0  0
    1.4133   -1.6490    1.0962 N   0  0  0  0  0  0  0  0  0  0  0  0
    0.6487   -2.8496    1.2785 C   0  0  0  0  0  0  0  0  0  0  0  0
    1.2999   -4.0936    1.2968 C   0  0  0  0  0  0  0  0  0  0  0  0
    0.5719   -5.2706    1.4809 C   0  0  0  0  0  0  0  0  0  0  0  0
   -0.8122   -5.2176    1.6470 C   0  0  0  0  0  0  0  0  0  0  0  0
   -1.4730   -3.9872    1.6338 C   0  0  0  0  0  0  0  0  0  0  0  0
   -0.7529   -2.7913    1.4649 C   0  0  0  0  0  0  0  0  0  0  0  0
   -1.5038   -1.4823    1.3850 C   0  0  0  0  0  0  0  0  0  0  0  0
   -1.7271   -1.0787   -0.0815 C   0  0  0  0  0  0  0  0  0  0  0  0
   -2.5133    0.2453   -0.2290 C   0  0  0  0  0  0  0  0  0  0  0  0
   -1.5909    1.4528    0.0658 C   0  0  0  0  0  0  0  0  0  0  0  0
   -2.3487    2.7808   -0.0705 C   0  0  0  0  0  0  0  0  0  0  0  0
   -3.3817    2.7647   -1.2086 C   0  0  0  0  0  0  0  0  0  0  0  0
   -3.0870    1.6547   -2.2250 C   0  0  0  0  0  0  0  0  0  0  0  0
   -3.0962    0.3081   -1.6018 N   0  0  0  0  0  0  0  0  0  0  0  0
   -4.4510   -0.2745   -1.6356 C   0  0  0  0  0  0  0  0  0  0  0  0
    5.7974    5.0520   -2.0306 H   0  0  0  0  0  0  0  0  0  0  0  0
    6.4990    3.4554   -1.5712 H   0  0  0  0  0  0  0  0  0  0  0  0
    5.4249    3.6008   -3.0345 H   0  0  0  0  0  0  0  0  0  0  0  0
    5.3813    1.3046   -2.0992 H   0  0  0  0  0  0  0  0  0  0  0  0
    4.4054   -0.8725   -1.5990 H   0  0  0  0  0  0  0  0  0  0  0  0
    1.3625    1.0533    0.7911 H   0  0  0  0  0  0  0  0  0  0  0  0
    2.3595    3.2268    0.2978 H   0  0  0  0  0  0  0  0  0  0  0  0
    1.3376   -0.9097    1.8279 H   0  0  0  0  0  0  0  0  0  0  0  0
    2.3746   -4.1485    1.1777 H   0  0  0  0  0  0  0  0  0  0  0  0
    1.0817   -6.2253    1.4940 H   0  0  0  0  0  0  0  0  0  0  0  0
   -1.3753   -6.1320    1.7822 H   0  0  0  0  0  0  0  0  0  0  0  0
   -2.5497   -3.9680    1.7492 H   0  0  0  0  0  0  0  0  0  0  0  0
   -0.9455   -0.6972    1.9315 H   0  0  0  0  0  0  0  0  0  0  0  0
   -2.4886   -1.5781    1.8928 H   0  0  0  0  0  0  0  0  0  0  0  0
   -2.2882   -1.9004   -0.5766 H   0  0  0  0  0  0  0  0  0  0  0  0
   -0.7514   -0.9947   -0.6085 H   0  0  0  0  0  0  0  0  0  0  0  0
   -3.3274    0.2658    0.5340 H   0  0  0  0  0  0  0  0  0  0  0  0
   -1.1757    1.3934    1.0931 H   0  0  0  0  0  0  0  0  0  0  0  0
   -0.7349    1.4475   -0.6447 H   0  0  0  0  0  0  0  0  0  0  0  0
   -2.8692    3.0081    0.8856 H   0  0  0  0  0  0  0  0  0  0  0  0
   -1.6108    3.5936   -0.2475 H   0  0  0  0  0  0  0  0  0  0  0  0
   -3.3816    3.7487   -1.7256 H   0  0  0  0  0  0  0  0  0  0  0  0
   -4.3980    2.6118   -0.7859 H   0  0  0  0  0  0  0  0  0  0  0  0
   -2.0882    1.8325   -2.6795 H   0  0  0  0  0  0  0  0  0  0  0  0
   -3.8176    1.7198   -3.0623 H   0  0  0  0  0  0  0  0  0  0  0  0
   -4.4543   -1.2899   -1.1865 H   0  0  0  0  0  0  0  0  0  0  0  0
   -5.1750    0.3608   -1.0806 H   0  0  0  0  0  0  0  0  0  0  0  0
   -4.7935   -0.3840   -2.6868 H   0  0  0  0  0  0  0  0  0  0  0  0
  1  2  1  0
  2  3  1  0
  3  4  2  0
  4  5  1  0
  5  6  2  0
  6  7  1  0
  7  8  2  0
  6  9  1  0
  9 10  2  0
  9 11  1  0
 11 12  1  0
 12 13  2  0
 13 14  1  0
 14 15  2  0
 15 16  1  0
 16 17  2  0
 17 18  1  0
 18 19  1  0
 19 20  1  0
 20 21  1  0
 21 22  1  0
 22 23  1  0
 23 24  1  0
 24 25  1  0
 25 26  1  0
  8  3  1  0
 17 12  1  0
 25 20  1  0
  1 27  1  0
  1 28  1  0
  1 29  1  0
  4 30  1  0
  5 31  1  0
  7 32  1  0
  8 33  1  0
 11 34  1  0
 13 35  1  0
 14 36  1  0
 15 37  1  0
 16 38  1  0
 18 39  1  0
 18 40  1  0
 19 41  1  0
 19 42  1  0
 20 43  1  0
 21 44  1  0
 21 45  1  0
 22 46  1  0
 22 47  1  0
 23 48  1  0
 23 49  1  0
 24 50  1  0
 24 51  1  0
 26 52  1  0
 26 53  1  0
 26 54  1  0
M  END
$$$$
