
     RDKit          3D

 61 62  0  0  0  0  0  0  0  0999 V2000
    3.5576    0.4799   -1.2453 C   0  0  2  0  0  0  0  0  0  0  0  0
    3.5908    0.4982   -2.7895 C   0  0  0  0  0  0  0  0  0  0  0  0
    4.7422   -0.3131   -3.4214 C   0  0  0  0  0  0  0  0  0  0  0  0
    4.6733   -1.8227   -3.1471 C   0  0  0  0  0  0  0  0  0  0  0  0
    3.4003   -2.3814   -3.5939 N   0  0  0  0  0  0  0  0  0  0  0  0
    2.3685    1.1897   -0.7674 N   0  0  0  0  0  0  0  0  0  0  0  0
    1.7718    0.9176    0.5094 C   0  0  0  0  0  0  0  0  0  0  0  0
    2.2477    0.0171    1.2546 O   0  0  0  0  0  0  0  0  0  0  0  0
    0.6083    1.7468    0.9878 C   0  0  2  0  0  0  0  0  0  0  0  0
    1.0645    2.8112    1.9855 C   0  0  0  0  0  0  0  0  0  0  0  0
    0.7279    2.2534    3.3652 C   0  0  0  0  0  0  0  0  0  0  0  0
   -0.3709    1.2221    3.1395 C   0  0  0  0  0  0  0  0  0  0  0  0
   -0.3441    0.9191    1.7162 N   0  0  0  0  0  0  0  0  0  0  0  0
   -1.2093   -0.0325    1.0640 C   0  0  0  0  0  0  0  0  0  0  0  0
   -1.0641   -0.2473   -0.1711 O   0  0  0  0  0  0  0  0  0  0  0  0
   -2.3397   -0.7168    1.8083 C   0  0  1  0  0  0  0  0  0  0  0  0
   -3.6240    0.1368    1.7829 C   0  0  0  0  0  0  0  0  0  0  0  0
   -4.1714    0.3348    0.3899 C   0  0  0  0  0  0  0  0  0  0  0  0
   -5.0492   -0.6094   -0.1694 C   0  0  0  0  0  0  0  0  0  0  0  0
   -5.5323   -0.4384   -1.4702 C   0  0  0  0  0  0  0  0  0  0  0  0
   -5.1421    0.6732   -2.2220 C   0  0  0  0  0  0  0  0  0  0  0  0
   -4.2676    1.6157   -1.6743 C   0  0  0  0  0  0  0  0  0  0  0  0
   -3.7823    1.4488   -0.3738 C   0  0  0  0  0  0  0  0  0  0  0  0
   -2.6001   -2.0563    1.2639 N   0  0  0  0  0  0  0  0  0  0  0  0
   -3.1956   -3.0995    2.0483 C   0  0  0  0  0  0  0  0  0  0  0  0
   -3.5676   -4.3946    1.4035 C   0  0  0  0  0  0  0  0  0  0  0  0
   -3.4341   -2.9230    3.2737 O   0  0  0  0  0  0  0  0  0  0  0  0
    4.8603    1.1650   -0.6092 B   0  0  0  0  0  0  0  0  0  0  0  0
    5.7547    0.3830    0.2403 O   0  0  0  0  0  0  0  0  0  0  0  0
    5.1538    2.5717   -0.8734 O   0  0  0  0  0  0  0  0  0  0  0  0
    3.5040   -0.5746   -0.9038 H   0  0  0  0  0  0  0  0  0  0  0  0
    3.6730    1.5505   -3.1419 H   0  0  0  0  0  0  0  0  0  0  0  0
    2.6223    0.1116   -3.1749 H   0  0  0  0  0  0  0  0  0  0  0  0
    4.7162   -0.1544   -4.5215 H   0  0  0  0  0  0  0  0  0  0  0  0
    5.7203    0.0753   -3.0658 H   0  0  0  0  0  0  0  0  0  0  0  0
    5.5092   -2.3245   -3.6839 H   0  0  0  0  0  0  0  0  0  0  0  0
    4.8123   -2.0231   -2.0639 H   0  0  0  0  0  0  0  0  0  0  0  0
    3.3895   -3.3947   -3.3360 H   0  0  0  0  0  0  0  0  0  0  0  0
    3.3737   -2.3395   -4.6388 H   0  0  0  0  0  0  0  0  0  0  0  0
    2.0013    1.9947   -1.3249 H   0  0  0  0  0  0  0  0  0  0  0  0
    0.1002    2.2339    0.1259 H   0  0  0  0  0  0  0  0  0  0  0  0
    0.4798    3.7429    1.8193 H   0  0  0  0  0  0  0  0  0  0  0  0
    2.1469    3.0551    1.8987 H   0  0  0  0  0  0  0  0  0  0  0  0
    0.3950    3.0575    4.0568 H   0  0  0  0  0  0  0  0  0  0  0  0
    1.6268    1.7548    3.7904 H   0  0  0  0  0  0  0  0  0  0  0  0
   -1.3586    1.6477    3.4168 H   0  0  0  0  0  0  0  0  0  0  0  0
   -0.1658    0.3071    3.7359 H   0  0  0  0  0  0  0  0  0  0  0  0
   -2.0315   -0.8317    2.8681 H   0  0  0  0  0  0  0  0  0  0  0  0
   -3.4225    1.1256    2.2489 H   0  0  0  0  0  0  0  0  0  0  0  0
   -4.3967   -0.3499    2.4172 H   0  0  0  0  0  0  0  0  0  0  0  0
   -5.3559   -1.4779    0.4003 H   0  0  0  0  0  0  0  0  0  0  0  0
   -6.2076   -1.1690   -1.8963 H   0  0  0  0  0  0  0  0  0  0  0  0
   -5.5160    0.8033   -3.2293 H   0  0  0  0  0  0  0  0  0  0  0  0
   -3.9635    2.4745   -2.2585 H   0  0  0  0  0  0  0  0  0  0  0  0
   -3.0989    2.1827    0.0357 H   0  0  0  0  0  0  0  0  0  0  0  0
   -2.4856   -2.2287    0.2392 H   0  0  0  0  0  0  0  0  0  0  0  0
   -2.7038   -4.7872    0.8275 H   0  0  0  0  0  0  0  0  0  0  0  0
   -4.4223   -4.2311    0.7146 H   0  0  0  0  0  0  0  0  0  0  0  0
   -3.8574   -5.1442    2.1702 H   0  0  0  0  0  0  0  0  0  0  0  0
    5.3954    0.5002    1.1559 H   0  0  0  0  0  0  0  0  0  0  0  0
    4.6926    3.0641   -0.1481 H   0  0  0  0  0  0  0  0  0  0  0  0
  1  2  1  0
  2  3  1  0
  3  4  1  0
  4  5  1  0
  1  6  1  0
  6  7  1  0
  7  8  2  0
  7  9  1  0
  9 10  1  0
 10 11  1  0
 11 12  1  0
 12 13  1  0
 13 14  1  0
 14 15  2  0
 14 16  1  0
 16 17  1  0
 17 18  1  0
 18 19  2  0
 19 20  1  0
 20 21  2  0
 21 22  1  0
 22 23  2  0
 16 24  1  0
 24 25  1  0
 25 26  1  0
 25 27  2  0
  1 28  1  0
 28 29  1  0
 28 30  1  0
 13  9  1  0
 23 18  1  0
  1 31  1  6
  2 32  1  0
  2 33  1  0
  3 34  1  0
  3 35  1  0
  4 36  1  0
  4 37  1  0
  5 38  1  0
  5 39  1  0
  6 40  1  0
  9 41  1  6
 10 42  1  0
 10 43  1  0
 11 44  1  0
 11 45  1  0
 12 46  1  0
 12 47  1  0
 16 48  1  1
 17 49  1  0
 17 50  1  0
 19 51  1  0
 20 52  1  0
 21 53  1  0
 22 54  1  0
 23 55  1  0
 24 56  1  0
 26 57  1  0
 26 58  1  0
 26 59  1  0
 29 60  1  0
 30 61  1  0
M  END
$$$$
