
     RDKit          3D

 47 50  0  0  0  0  0  0  0  0999 V2000
   -8.1872   -2.1624    0.7701 C   0  0  0  0  0  0  0  0  0  0  0  0
   -7.0076   -1.5980    0.0556 C   0  0  0  0  0  0  0  0  0  0  0  0
   -6.9757   -1.3412   -1.2652 N   0  0  0  0  0  0  0  0  0  0  0  0
   -5.7620   -0.8791   -1.5221 N   0  0  0  0  0  0  0  0  0  0  0  0
   -5.0985   -0.8764   -0.3483 C   0  0  0  0  0  0  0  0  0  0  0  0
   -5.8596   -1.3209    0.6243 O   0  0  0  0  0  0  0  0  0  0  0  0
   -3.7002   -0.4341   -0.1783 C   0  0  0  0  0  0  0  0  0  0  0  0
   -3.1011   -0.4723    1.0884 C   0  0  0  0  0  0  0  0  0  0  0  0
   -1.7779   -0.0620    1.2565 C   0  0  0  0  0  0  0  0  0  0  0  0
   -1.0308    0.3987    0.1633 C   0  0  0  0  0  0  0  0  0  0  0  0
   -1.6275    0.4554   -1.1169 C   0  0  0  0  0  0  0  0  0  0  0  0
   -0.8571    0.9442   -2.3152 C   0  0  0  0  0  0  0  0  0  0  0  0
   -2.9565    0.0271   -1.2768 C   0  0  0  0  0  0  0  0  0  0  0  0
    0.3743    0.8092    0.3805 C   0  0  0  0  0  0  0  0  0  0  0  0
    1.4026   -0.0464   -0.0438 C   0  0  0  0  0  0  0  0  0  0  0  0
    2.7515    0.2984    0.1438 C   0  0  0  0  0  0  0  0  0  0  0  0
    3.0601    1.5071    0.7890 C   0  0  0  0  0  0  0  0  0  0  0  0
    2.0432    2.3639    1.2151 C   0  0  0  0  0  0  0  0  0  0  0  0
    0.6955    2.0351    1.0050 C   0  0  0  0  0  0  0  0  0  0  0  0
   -0.3796    2.9795    1.4739 C   0  0  0  0  0  0  0  0  0  0  0  0
    3.8226   -0.6218   -0.3090 C   0  0  0  0  0  0  0  0  0  0  0  0
    3.5635   -1.8473   -0.4622 O   0  0  0  0  0  0  0  0  0  0  0  0
    5.1455   -0.1400   -0.5886 N   0  0  0  0  0  0  0  0  0  0  0  0
    6.2311   -1.0561   -0.9245 C   0  0  0  0  0  0  0  0  0  0  0  0
    6.8009   -1.7780    0.2847 C   0  0  0  0  0  0  0  0  0  0  0  0
    7.5800   -0.6433   -0.3615 C   0  0  0  0  0  0  0  0  0  0  0  0
   -8.2006   -3.2652    0.6474 H   0  0  0  0  0  0  0  0  0  0  0  0
   -8.1278   -1.9151    1.8506 H   0  0  0  0  0  0  0  0  0  0  0  0
   -9.1222   -1.7345    0.3520 H   0  0  0  0  0  0  0  0  0  0  0  0
   -3.6547   -0.8245    1.9500 H   0  0  0  0  0  0  0  0  0  0  0  0
   -1.3308   -0.1084    2.2422 H   0  0  0  0  0  0  0  0  0  0  0  0
   -0.1100    0.1799   -2.6146 H   0  0  0  0  0  0  0  0  0  0  0  0
   -0.3340    1.8934   -2.0734 H   0  0  0  0  0  0  0  0  0  0  0  0
   -1.5280    1.1392   -3.1788 H   0  0  0  0  0  0  0  0  0  0  0  0
   -3.4124    0.0570   -2.2593 H   0  0  0  0  0  0  0  0  0  0  0  0
    1.1454   -0.9816   -0.5279 H   0  0  0  0  0  0  0  0  0  0  0  0
    4.0860    1.7858    0.9897 H   0  0  0  0  0  0  0  0  0  0  0  0
    2.3114    3.2877    1.7130 H   0  0  0  0  0  0  0  0  0  0  0  0
   -0.8733    2.5630    2.3764 H   0  0  0  0  0  0  0  0  0  0  0  0
    0.0383    3.9768    1.7284 H   0  0  0  0  0  0  0  0  0  0  0  0
   -1.1373    3.1246    0.6751 H   0  0  0  0  0  0  0  0  0  0  0  0
    5.3142    0.8846   -0.6996 H   0  0  0  0  0  0  0  0  0  0  0  0
    6.1964   -1.6171   -1.8823 H   0  0  0  0  0  0  0  0  0  0  0  0
    6.3438   -1.5135    1.2626 H   0  0  0  0  0  0  0  0  0  0  0  0
    7.2078   -2.7878    0.0663 H   0  0  0  0  0  0  0  0  0  0  0  0
    7.5886    0.2948    0.2340 H   0  0  0  0  0  0  0  0  0  0  0  0
    8.4496   -0.9783   -0.9652 H   0  0  0  0  0  0  0  0  0  0  0  0
  1  2  1  0
  2  3  2  0
  3  4  1  0
  4  5  2  0
  5  6  1  0
  5  7  1  0
  7  8  2  0
  8  9  1  0
  9 10  2  0
 10 11  1  0
 11 12  1  0
 11 13  2  0
 10 14  1  0
 14 15  2  0
 15 16  1  0
 16 17  2  0
 17 18  1  0
 18 19  2  0
 19 20  1  0
 16 21  1  0
 21 22  2  0
 21 23  1  0
 23 24  1  0
 24 25  1  0
 25 26  1  0
  6  2  1  0
 13  7  1  0
 19 14  1  0
 26 24  1  0
  1 27  1  0
  1 28  1  0
  1 29  1  0
  8 30  1  0
  9 31  1  0
 12 32  1  0
 12 33  1  0
 12 34  1  0
 13 35  1  0
 15 36  1  0
 17 37  1  0
 18 38  1  0
 20 39  1  0
 20 40  1  0
 20 41  1  0
 23 42  1  0
 24 43  1  0
 25 44  1  0
 25 45  1  0
 26 46  1  0
 26 47  1  0
M  END
$$$$
