
     RDKit          3D

 45 49  0  0  0  0  0  0  0  0999 V2000
    5.1411   -0.6230    1.3895 C   0  0  2  0  0  0  0  0  0  0  0  0
    6.0362   -1.6193    2.1384 C   0  0  0  0  0  0  0  0  0  0  0  0
    3.8120   -1.2754    1.0119 C   0  0  0  0  0  0  0  0  0  0  0  0
    2.8002   -0.2498    0.8195 N   0  0  0  0  0  0  0  0  0  0  0  0
    2.7644    0.6169   -0.3195 C   0  0  0  0  0  0  0  0  0  0  0  0
    3.9135    1.2368   -0.8527 C   0  0  0  0  0  0  0  0  0  0  0  0
    3.4180    2.4756   -1.8869 S   0  0  0  0  0  0  0  0  0  0  0  0
    1.7788    2.2286   -1.6913 C   0  0  0  0  0  0  0  0  0  0  0  0
    1.5525    1.1490   -0.8420 C   0  0  0  0  0  0  0  0  0  0  0  0
    0.2136    0.7242   -0.6195 C   0  0  0  0  0  0  0  0  0  0  0  0
   -0.8434    1.5102   -1.1587 C   0  0  0  0  0  0  0  0  0  0  0  0
   -0.5664    2.6346   -1.9540 C   0  0  0  0  0  0  0  0  0  0  0  0
    0.7531    2.9821   -2.2498 C   0  0  0  0  0  0  0  0  0  0  0  0
   -2.1375    1.1556   -0.9413 N   0  0  0  0  0  0  0  0  0  0  0  0
   -2.4861    0.0415   -0.2423 C   0  0  0  0  0  0  0  0  0  0  0  0
   -1.4742   -0.8086    0.2297 C   0  0  0  0  0  0  0  0  0  0  0  0
   -0.1340   -0.4760    0.0275 C   0  0  0  0  0  0  0  0  0  0  0  0
   -3.9248   -0.2731   -0.0465 C   0  0  0  0  0  0  0  0  0  0  0  0
   -4.3748   -1.0220    1.0569 C   0  0  0  0  0  0  0  0  0  0  0  0
   -5.6993   -1.2854    1.2148 N   0  0  0  0  0  0  0  0  0  0  0  0
   -6.6327   -0.8473    0.3280 C   0  0  0  0  0  0  0  0  0  0  0  0
   -8.0788   -1.1530    0.5558 C   0  0  0  0  0  0  0  0  0  0  0  0
   -6.2356   -0.0836   -0.7744 C   0  0  0  0  0  0  0  0  0  0  0  0
   -4.8823    0.2035   -0.9580 C   0  0  0  0  0  0  0  0  0  0  0  0
    5.3485    0.9451   -0.6186 C   0  0  0  0  0  0  0  0  0  0  0  0
    6.2031    1.6509   -1.2190 O   0  0  0  0  0  0  0  0  0  0  0  0
    5.8198   -0.1425    0.1872 N   0  0  0  0  0  0  0  0  0  0  0  0
    4.9559    0.2377    2.0710 H   0  0  0  0  0  0  0  0  0  0  0  0
    5.5472   -1.9448    3.0814 H   0  0  0  0  0  0  0  0  0  0  0  0
    6.2381   -2.5119    1.5078 H   0  0  0  0  0  0  0  0  0  0  0  0
    7.0026   -1.1380    2.4003 H   0  0  0  0  0  0  0  0  0  0  0  0
    3.4721   -1.9497    1.8290 H   0  0  0  0  0  0  0  0  0  0  0  0
    3.9135   -1.8896    0.0902 H   0  0  0  0  0  0  0  0  0  0  0  0
    2.0859   -0.1220    1.5713 H   0  0  0  0  0  0  0  0  0  0  0  0
   -1.3770    3.2197   -2.3707 H   0  0  0  0  0  0  0  0  0  0  0  0
    0.9701    3.8296   -2.8873 H   0  0  0  0  0  0  0  0  0  0  0  0
   -1.7106   -1.7461    0.7154 H   0  0  0  0  0  0  0  0  0  0  0  0
    0.6042   -1.2014    0.3265 H   0  0  0  0  0  0  0  0  0  0  0  0
   -3.6841   -1.3780    1.8085 H   0  0  0  0  0  0  0  0  0  0  0  0
   -8.1972   -1.8782    1.3887 H   0  0  0  0  0  0  0  0  0  0  0  0
   -8.6209   -0.2191    0.8133 H   0  0  0  0  0  0  0  0  0  0  0  0
   -8.5223   -1.5929   -0.3624 H   0  0  0  0  0  0  0  0  0  0  0  0
   -6.9665    0.2845   -1.4838 H   0  0  0  0  0  0  0  0  0  0  0  0
   -4.5841    0.7887   -1.8190 H   0  0  0  0  0  0  0  0  0  0  0  0
    6.7883   -0.4842   -0.0122 H   0  0  0  0  0  0  0  0  0  0  0  0
  1  2  1  0
  1  3  1  0
  3  4  1  0
  4  5  1  0
  5  6  2  0
  6  7  1  0
  7  8  1  0
  8  9  2  0
  9 10  1  0
 10 11  2  0
 11 12  1  0
 12 13  2  0
 11 14  1  0
 14 15  2  0
 15 16  1  0
 16 17  2  0
 15 18  1  0
 18 19  2  0
 19 20  1  0
 20 21  2  0
 21 22  1  0
 21 23  1  0
 23 24  2  0
  6 25  1  0
 25 26  2  0
 25 27  1  0
 27  1  1  0
  9  5  1  0
 17 10  1  0
 24 18  1  0
 13  8  1  0
  1 28  1  1
  2 29  1  0
  2 30  1  0
  2 31  1  0
  3 32  1  0
  3 33  1  0
  4 34  1  0
 12 35  1  0
 13 36  1  0
 16 37  1  0
 17 38  1  0
 19 39  1  0
 22 40  1  0
 22 41  1  0
 22 42  1  0
 23 43  1  0
 24 44  1  0
 27 45  1  0
M  END
$$$$
