
     RDKit          3D

 48 51  0  0  0  0  0  0  0  0999 V2000
    5.0262    0.2959    2.5969 O   0  0  0  0  0  0  0  0  0  0  0  0
    5.8880    0.2459    1.4951 C   0  0  0  0  0  0  0  0  0  0  0  0
    5.2299    0.8969    0.3126 C   0  0  0  0  0  0  0  0  0  0  0  0
    5.7800    1.9097   -0.2000 O   0  0  0  0  0  0  0  0  0  0  0  0
    3.9865    0.4015   -0.2311 N   0  0  0  0  0  0  0  0  0  0  0  0
    3.1946    1.2490   -1.1359 C   0  0  0  0  0  0  0  0  0  0  0  0
    1.7038    1.0459   -0.8598 C   0  0  0  0  0  0  0  0  0  0  0  0
    1.2715   -0.4285   -1.0470 C   0  0  0  0  0  0  0  0  0  0  0  0
    2.4435   -1.4317   -0.9025 C   0  0  0  0  0  0  0  0  0  0  0  0
    3.5173   -0.9586    0.0877 C   0  0  0  0  0  0  0  0  0  0  0  0
    0.1357   -0.7568   -0.1044 C   0  0  0  0  0  0  0  0  0  0  0  0
    0.3251   -1.2097    1.1526 N   0  0  0  0  0  0  0  0  0  0  0  0
   -0.8424   -1.2030    1.7738 N   0  0  0  0  0  0  0  0  0  0  0  0
   -1.7940   -0.7279    0.9479 C   0  0  0  0  0  0  0  0  0  0  0  0
   -1.2058   -0.4289   -0.2732 C   0  0  0  0  0  0  0  0  0  0  0  0
   -1.8216    0.2812   -1.4083 C   0  0  0  0  0  0  0  0  0  0  0  0
   -2.5339    1.4173   -1.1803 N   0  0  0  0  0  0  0  0  0  0  0  0
   -3.1318    2.0879   -2.1992 C   0  0  0  0  0  0  0  0  0  0  0  0
   -3.0308    1.6231   -3.4715 N   0  0  0  0  0  0  0  0  0  0  0  0
   -2.3387    0.4869   -3.7444 C   0  0  0  0  0  0  0  0  0  0  0  0
   -1.7194   -0.2167   -2.7121 C   0  0  0  0  0  0  0  0  0  0  0  0
   -3.2148   -0.5629    1.3314 C   0  0  0  0  0  0  0  0  0  0  0  0
   -4.2451   -0.8045    0.4050 C   0  0  0  0  0  0  0  0  0  0  0  0
   -5.5831   -0.6492    0.7792 C   0  0  0  0  0  0  0  0  0  0  0  0
   -5.9066   -0.2598    2.0823 C   0  0  0  0  0  0  0  0  0  0  0  0
   -7.5861   -0.0657    2.5496 Cl  0  0  0  0  0  0  0  0  0  0  0  0
   -4.8895   -0.0302    3.0136 C   0  0  0  0  0  0  0  0  0  0  0  0
   -3.5503   -0.1845    2.6427 C   0  0  0  0  0  0  0  0  0  0  0  0
    5.4960   -0.1720    3.3353 H   0  0  0  0  0  0  0  0  0  0  0  0
    6.1437   -0.8079    1.2516 H   0  0  0  0  0  0  0  0  0  0  0  0
    6.8332    0.7802    1.7410 H   0  0  0  0  0  0  0  0  0  0  0  0
    3.4309    2.3241   -0.9794 H   0  0  0  0  0  0  0  0  0  0  0  0
    3.4291    0.9900   -2.1911 H   0  0  0  0  0  0  0  0  0  0  0  0
    1.1090    1.6978   -1.5364 H   0  0  0  0  0  0  0  0  0  0  0  0
    1.5050    1.3815    0.1833 H   0  0  0  0  0  0  0  0  0  0  0  0
    0.9024   -0.5393   -2.0871 H   0  0  0  0  0  0  0  0  0  0  0  0
    2.9294   -1.5567   -1.8959 H   0  0  0  0  0  0  0  0  0  0  0  0
    2.0737   -2.4376   -0.6048 H   0  0  0  0  0  0  0  0  0  0  0  0
    3.1115   -0.9771    1.1213 H   0  0  0  0  0  0  0  0  0  0  0  0
    4.3645   -1.6745    0.0277 H   0  0  0  0  0  0  0  0  0  0  0  0
   -0.9763   -1.5188    2.7598 H   0  0  0  0  0  0  0  0  0  0  0  0
   -3.6903    2.9912   -1.9966 H   0  0  0  0  0  0  0  0  0  0  0  0
   -2.2766    0.1253   -4.7620 H   0  0  0  0  0  0  0  0  0  0  0  0
   -1.1951   -1.1400   -2.9231 H   0  0  0  0  0  0  0  0  0  0  0  0
   -4.0190   -1.1316   -0.6015 H   0  0  0  0  0  0  0  0  0  0  0  0
   -6.3673   -0.8375    0.0569 H   0  0  0  0  0  0  0  0  0  0  0  0
   -5.1350    0.2698    4.0245 H   0  0  0  0  0  0  0  0  0  0  0  0
   -2.7772    0.0092    3.3756 H   0  0  0  0  0  0  0  0  0  0  0  0
  1  2  1  0
  2  3  1  0
  3  4  2  0
  3  5  1  0
  5  6  1  0
  6  7  1  0
  7  8  1  0
  8  9  1  0
  9 10  1  0
  8 11  1  0
 11 12  2  0
 12 13  1  0
 13 14  1  0
 14 15  2  0
 15 16  1  0
 16 17  2  0
 17 18  1  0
 18 19  2  0
 19 20  1  0
 20 21  2  0
 14 22  1  0
 22 23  2  0
 23 24  1  0
 24 25  2  0
 25 26  1  0
 25 27  1  0
 27 28  2  0
 10  5  1  0
 15 11  1  0
 21 16  1  0
 28 22  1  0
  1 29  1  0
  2 30  1  0
  2 31  1  0
  6 32  1  0
  6 33  1  0
  7 34  1  0
  7 35  1  0
  8 36  1  0
  9 37  1  0
  9 38  1  0
 10 39  1  0
 10 40  1  0
 13 41  1  0
 18 42  1  0
 20 43  1  0
 21 44  1  0
 23 45  1  0
 24 46  1  0
 27 47  1  0
 28 48  1  0
M  END
$$$$
