
     RDKit          3D

 49 48  0  0  0  0  0  0  0  0999 V2000
   -4.6588   -2.5900   -1.7212 C   0  0  0  0  0  0  0  0  0  0  0  0
   -3.5471   -3.1541   -2.6061 C   0  0  0  0  0  0  0  0  0  0  0  0
   -2.3270   -2.2271   -2.6745 C   0  0  0  0  0  0  0  0  0  0  0  0
   -1.6157   -2.1525   -1.3593 C   0  0  0  0  0  0  0  0  0  0  0  0
   -0.7784   -3.0433   -1.0490 O   0  0  0  0  0  0  0  0  0  0  0  0
   -1.9278   -1.1195   -0.4684 O   0  0  0  0  0  0  0  0  0  0  0  0
   -1.3018   -0.9570    0.8049 C   0  0  2  0  0  0  0  0  0  0  0  0
   -2.1825   -0.0534    1.6751 C   0  0  0  0  0  0  0  0  0  0  0  0
   -2.3149    1.2315    1.0740 O   0  0  0  0  0  0  0  0  0  0  0  0
   -2.9984    2.2855    1.6849 C   0  0  0  0  0  0  0  0  0  0  0  0
   -3.5501    2.1308    2.8086 O   0  0  0  0  0  0  0  0  0  0  0  0
   -3.0344    3.6210    1.0137 C   0  0  0  0  0  0  0  0  0  0  0  0
   -1.6899    4.3253    1.1542 C   0  0  0  0  0  0  0  0  0  0  0  0
    0.1076   -0.3692    0.6291 C   0  0  0  0  0  0  0  0  0  0  0  0
    0.7294   -0.2462    1.8873 O   0  0  0  0  0  0  0  0  0  0  0  0
    2.1860    0.6140    1.6815 P   0  0  0  0  0  5  0  0  0  0  0  0
    1.8344    2.2172    1.2607 O   0  0  0  0  0  0  0  0  0  0  0  0
    2.9465    0.5974    2.9886 O   0  0  0  0  0  0  0  0  0  0  0  0
    3.1236   -0.1304    0.4655 O   0  0  0  0  0  0  0  0  0  0  0  0
    4.2462    0.6812    0.2067 C   0  0  0  0  0  0  0  0  0  0  0  0
    5.1356    0.0179   -0.8539 C   0  0  2  0  0  0  0  0  0  0  0  0
    4.3755   -0.2240   -2.0819 N   0  0  0  0  0  0  0  0  0  0  0  0
    5.7034   -1.2721   -0.3292 C   0  0  0  0  0  0  0  0  0  0  0  0
    6.9955   -1.2978    0.1860 O   0  0  0  0  0  0  0  0  0  0  0  0
    5.0027   -2.3204   -0.3185 O   0  0  0  0  0  0  0  0  0  0  0  0
   -4.3213   -2.5211   -0.6656 H   0  0  0  0  0  0  0  0  0  0  0  0
   -4.9633   -1.5827   -2.0768 H   0  0  0  0  0  0  0  0  0  0  0  0
   -5.5416   -3.2622   -1.7626 H   0  0  0  0  0  0  0  0  0  0  0  0
   -3.9487   -3.2872   -3.6339 H   0  0  0  0  0  0  0  0  0  0  0  0
   -3.2437   -4.1553   -2.2290 H   0  0  0  0  0  0  0  0  0  0  0  0
   -1.6234   -2.6125   -3.4439 H   0  0  0  0  0  0  0  0  0  0  0  0
   -2.6396   -1.2079   -2.9891 H   0  0  0  0  0  0  0  0  0  0  0  0
   -1.2259   -1.9462    1.3099 H   0  0  0  0  0  0  0  0  0  0  0  0
   -3.1879   -0.5160    1.7825 H   0  0  0  0  0  0  0  0  0  0  0  0
   -1.7357    0.0481    2.6884 H   0  0  0  0  0  0  0  0  0  0  0  0
   -3.8315    4.2525    1.4629 H   0  0  0  0  0  0  0  0  0  0  0  0
   -3.2670    3.4818   -0.0637 H   0  0  0  0  0  0  0  0  0  0  0  0
   -0.8876    3.7251    0.6735 H   0  0  0  0  0  0  0  0  0  0  0  0
   -1.7363    5.3174    0.6577 H   0  0  0  0  0  0  0  0  0  0  0  0
   -1.4430    4.4751    2.2271 H   0  0  0  0  0  0  0  0  0  0  0  0
    0.0182    0.6154    0.1137 H   0  0  0  0  0  0  0  0  0  0  0  0
    0.6996   -1.0566   -0.0145 H   0  0  0  0  0  0  0  0  0  0  0  0
    1.1868    2.5216    1.9456 H   0  0  0  0  0  0  0  0  0  0  0  0
    3.9285    1.6752   -0.1820 H   0  0  0  0  0  0  0  0  0  0  0  0
    4.8522    0.8336    1.1298 H   0  0  0  0  0  0  0  0  0  0  0  0
    5.9806    0.7073   -1.0808 H   0  0  0  0  0  0  0  0  0  0  0  0
    5.0284   -0.6147   -2.8003 H   0  0  0  0  0  0  0  0  0  0  0  0
    4.0533    0.6980   -2.4571 H   0  0  0  0  0  0  0  0  0  0  0  0
    7.3895   -2.1537    0.5579 H   0  0  0  0  0  0  0  0  0  0  0  0
  1  2  1  0
  2  3  1  0
  3  4  1  0
  4  5  2  0
  4  6  1  0
  6  7  1  0
  7  8  1  0
  8  9  1  0
  9 10  1  0
 10 11  2  0
 10 12  1  0
 12 13  1  0
  7 14  1  0
 14 15  1  0
 15 16  1  0
 16 17  1  0
 16 18  2  0
 16 19  1  0
 19 20  1  0
 20 21  1  0
 21 22  1  0
 21 23  1  0
 23 24  1  0
 23 25  2  0
  1 26  1  0
  1 27  1  0
  1 28  1  0
  2 29  1  0
  2 30  1  0
  3 31  1  0
  3 32  1  0
  7 33  1  1
  8 34  1  0
  8 35  1  0
 12 36  1  0
 12 37  1  0
 13 38  1  0
 13 39  1  0
 13 40  1  0
 14 41  1  0
 14 42  1  0
 17 43  1  0
 20 44  1  0
 20 45  1  0
 21 46  1  6
 22 47  1  0
 22 48  1  0
 24 49  1  0
M  END
$$$$
