
     RDKit          3D

 63 65  0  0  0  0  0  0  0  0999 V2000
   -4.0103   -3.5929    1.1313 C   0  0  0  0  0  0  0  0  0  0  0  0
   -3.3387   -2.4450    1.8842 C   0  0  0  0  0  0  0  0  0  0  0  0
   -3.3761   -1.1243    1.1007 C   0  0  0  0  0  0  0  0  0  0  0  0
   -2.5232   -1.1780   -0.1884 C   0  0  0  0  0  0  0  0  0  0  0  0
   -2.1622    0.1451   -0.7575 N   0  0  0  0  0  0  0  0  0  0  0  0
   -3.2031    1.2004   -0.7848 C   0  0  0  0  0  0  0  0  0  0  0  0
   -4.0831    1.0803   -2.0441 C   0  0  0  0  0  0  0  0  0  0  0  0
   -5.3368    0.2066   -1.8680 C   0  0  0  0  0  0  0  0  0  0  0  0
   -6.4088    0.8746   -1.0063 C   0  0  0  0  0  0  0  0  0  0  0  0
   -0.8054    0.6204   -0.4090 C   0  0  0  0  0  0  0  0  0  0  0  0
   -0.6601    1.0077    1.0759 C   0  0  0  0  0  0  0  0  0  0  0  0
    0.7102    1.6606    1.3817 C   0  0  0  0  0  0  0  0  0  0  0  0
    0.7898    1.9803    2.7461 O   0  0  0  0  0  0  0  0  0  0  0  0
    1.9253    0.8017    1.0106 C   0  0  0  0  0  0  0  0  0  0  0  0
    3.1213    1.3594    0.4797 C   0  0  0  0  0  0  0  0  0  0  0  0
    3.3193    2.7588    0.4332 C   0  0  0  0  0  0  0  0  0  0  0  0
    4.4700    3.3082   -0.1202 C   0  0  0  0  0  0  0  0  0  0  0  0
    5.4694    2.4864   -0.6402 C   0  0  0  0  0  0  0  0  0  0  0  0
    5.3327    1.0959   -0.5324 C   0  0  0  0  0  0  0  0  0  0  0  0
    4.1679    0.5008    0.0198 C   0  0  0  0  0  0  0  0  0  0  0  0
    4.0298   -0.9165    0.1557 C   0  0  0  0  0  0  0  0  0  0  0  0
    4.9944   -1.8336   -0.3362 C   0  0  0  0  0  0  0  0  0  0  0  0
    4.8504   -3.2073   -0.1422 C   0  0  0  0  0  0  0  0  0  0  0  0
    6.0653   -4.3134   -0.7603 Cl  0  0  0  0  0  0  0  0  0  0  0  0
    3.7457   -3.7067    0.5360 C   0  0  0  0  0  0  0  0  0  0  0  0
    2.7627   -2.8428    1.0150 C   0  0  0  0  0  0  0  0  0  0  0  0
    1.3782   -3.5746    1.8301 Cl  0  0  0  0  0  0  0  0  0  0  0  0
    2.8896   -1.4439    0.8220 C   0  0  0  0  0  0  0  0  0  0  0  0
    1.8834   -0.5769    1.2633 C   0  0  0  0  0  0  0  0  0  0  0  0
    6.7402    3.0857   -1.1932 C   0  0  0  0  0  0  0  0  0  0  0  0
    6.5135    4.3597   -1.6854 F   0  0  0  0  0  0  0  0  0  0  0  0
    7.2338    2.3072   -2.2259 F   0  0  0  0  0  0  0  0  0  0  0  0
    7.6865    3.1539   -0.1879 F   0  0  0  0  0  0  0  0  0  0  0  0
   -5.0504   -3.3190    0.8538 H   0  0  0  0  0  0  0  0  0  0  0  0
   -4.0424   -4.4923    1.7816 H   0  0  0  0  0  0  0  0  0  0  0  0
   -3.4383   -3.8474    0.2148 H   0  0  0  0  0  0  0  0  0  0  0  0
   -3.8724   -2.2985    2.8482 H   0  0  0  0  0  0  0  0  0  0  0  0
   -2.2874   -2.7185    2.1212 H   0  0  0  0  0  0  0  0  0  0  0  0
   -3.0149   -0.3220    1.7736 H   0  0  0  0  0  0  0  0  0  0  0  0
   -4.4318   -0.8893    0.8501 H   0  0  0  0  0  0  0  0  0  0  0  0
   -3.0716   -1.7523   -0.9623 H   0  0  0  0  0  0  0  0  0  0  0  0
   -1.5998   -1.7671    0.0098 H   0  0  0  0  0  0  0  0  0  0  0  0
   -2.7226    2.2030   -0.8367 H   0  0  0  0  0  0  0  0  0  0  0  0
   -3.8013    1.2299    0.1447 H   0  0  0  0  0  0  0  0  0  0  0  0
   -3.4722    0.6684   -2.8769 H   0  0  0  0  0  0  0  0  0  0  0  0
   -4.4030    2.0968   -2.3637 H   0  0  0  0  0  0  0  0  0  0  0  0
   -5.0797   -0.7824   -1.4432 H   0  0  0  0  0  0  0  0  0  0  0  0
   -5.7733    0.0232   -2.8737 H   0  0  0  0  0  0  0  0  0  0  0  0
   -6.6704    1.8732   -1.4162 H   0  0  0  0  0  0  0  0  0  0  0  0
   -7.3236    0.2452   -1.0044 H   0  0  0  0  0  0  0  0  0  0  0  0
   -6.0670    0.9857    0.0426 H   0  0  0  0  0  0  0  0  0  0  0  0
   -0.0672   -0.1680   -0.6688 H   0  0  0  0  0  0  0  0  0  0  0  0
   -0.5461    1.4934   -1.0476 H   0  0  0  0  0  0  0  0  0  0  0  0
   -1.4560    1.7390    1.3345 H   0  0  0  0  0  0  0  0  0  0  0  0
   -0.8165    0.1258    1.7254 H   0  0  0  0  0  0  0  0  0  0  0  0
    0.7061    2.5925    0.7771 H   0  0  0  0  0  0  0  0  0  0  0  0
    0.2141    2.7760    2.8927 H   0  0  0  0  0  0  0  0  0  0  0  0
    2.6187    3.4573    0.8632 H   0  0  0  0  0  0  0  0  0  0  0  0
    4.5840    4.3853   -0.1251 H   0  0  0  0  0  0  0  0  0  0  0  0
    6.1704    0.5089   -0.8645 H   0  0  0  0  0  0  0  0  0  0  0  0
    5.8642   -1.5260   -0.8897 H   0  0  0  0  0  0  0  0  0  0  0  0
    3.6437   -4.7752    0.6807 H   0  0  0  0  0  0  0  0  0  0  0  0
    1.0347   -0.9836    1.7871 H   0  0  0  0  0  0  0  0  0  0  0  0
  1  2  1  0
  2  3  1  0
  3  4  1  0
  4  5  1  0
  5  6  1  0
  6  7  1  0
  7  8  1  0
  8  9  1  0
  5 10  1  0
 10 11  1  0
 11 12  1  0
 12 13  1  0
 12 14  1  0
 14 15  2  0
 15 16  1  0
 16 17  2  0
 17 18  1  0
 18 19  2  0
 19 20  1  0
 20 21  2  0
 21 22  1  0
 22 23  2  0
 23 24  1  0
 23 25  1  0
 25 26  2  0
 26 27  1  0
 26 28  1  0
 28 29  2  0
 18 30  1  0
 30 31  1  0
 30 32  1  0
 30 33  1  0
 29 14  1  0
 20 15  1  0
 28 21  1  0
  1 34  1  0
  1 35  1  0
  1 36  1  0
  2 37  1  0
  2 38  1  0
  3 39  1  0
  3 40  1  0
  4 41  1  0
  4 42  1  0
  6 43  1  0
  6 44  1  0
  7 45  1  0
  7 46  1  0
  8 47  1  0
  8 48  1  0
  9 49  1  0
  9 50  1  0
  9 51  1  0
 10 52  1  0
 10 53  1  0
 11 54  1  0
 11 55  1  0
 12 56  1  0
 13 57  1  0
 16 58  1  0
 17 59  1  0
 19 60  1  0
 22 61  1  0
 25 62  1  0
 29 63  1  0
M  END
$$$$
