
     RDKit          3D

 23 24  0  0  0  0  0  0  0  0999 V2000
    3.2751    1.2705   -1.2708 N   0  0  0  0  0  0  0  0  0  0  0  0
    2.4084    0.4163   -0.5148 C   0  0  0  0  0  0  0  0  0  0  0  0
    1.0226    0.6071   -0.5631 C   0  0  0  0  0  0  0  0  0  0  0  0
    0.1630   -0.2265    0.1698 C   0  0  0  0  0  0  0  0  0  0  0  0
    0.7296   -1.2497    0.9473 C   0  0  0  0  0  0  0  0  0  0  0  0
    2.0785   -1.4224    0.9852 N   0  0  0  0  0  0  0  0  0  0  0  0
    2.9236   -0.6214    0.2791 C   0  0  0  0  0  0  0  0  0  0  0  0
    4.1673   -0.8176    0.3435 O   0  0  0  0  0  0  0  0  0  0  0  0
   -1.3090   -0.0311    0.1242 C   0  0  0  0  0  0  0  0  0  0  0  0
   -1.8611    1.2617    0.1214 C   0  0  0  0  0  0  0  0  0  0  0  0
   -3.2481    1.4224    0.0786 C   0  0  0  0  0  0  0  0  0  0  0  0
   -4.0606    0.3340    0.0388 N   0  0  0  0  0  0  0  0  0  0  0  0
   -3.5589   -0.9288    0.0398 C   0  0  0  0  0  0  0  0  0  0  0  0
   -2.1780   -1.1354    0.0830 C   0  0  0  0  0  0  0  0  0  0  0  0
    4.3116    1.1463   -1.2518 H   0  0  0  0  0  0  0  0  0  0  0  0
    2.8839    2.0397   -1.8592 H   0  0  0  0  0  0  0  0  0  0  0  0
    0.6174    1.3941   -1.1873 H   0  0  0  0  0  0  0  0  0  0  0  0
    0.0986   -1.9008    1.5398 H   0  0  0  0  0  0  0  0  0  0  0  0
    2.4703   -2.1901    1.5765 H   0  0  0  0  0  0  0  0  0  0  0  0
   -1.2286    2.1391    0.1701 H   0  0  0  0  0  0  0  0  0  0  0  0
   -3.6790    2.4147    0.0805 H   0  0  0  0  0  0  0  0  0  0  0  0
   -4.2326   -1.7744    0.0036 H   0  0  0  0  0  0  0  0  0  0  0  0
   -1.7942   -2.1476    0.0658 H   0  0  0  0  0  0  0  0  0  0  0  0
  1  2  1  0
  2  3  2  0
  3  4  1  0
  4  5  2  0
  5  6  1  0
  6  7  1  0
  7  8  2  0
  4  9  1  0
  9 10  2  0
 10 11  1  0
 11 12  2  0
 12 13  1  0
 13 14  2  0
  7  2  1  0
 14  9  1  0
  1 15  1  0
  1 16  1  0
  3 17  1  0
  5 18  1  0
  6 19  1  0
 10 20  1  0
 11 21  1  0
 13 22  1  0
 14 23  1  0
M  END
$$$$
