
     RDKit          3D

 52 55  0  0  0  0  0  0  0  0999 V2000
    0.4625    3.7115    2.0018 C   0  0  0  0  0  0  0  0  0  0  0  0
   -0.7006    4.1582    1.1558 C   0  0  0  0  0  0  0  0  0  0  0  0
   -1.1589    5.4832    1.2575 C   0  0  0  0  0  0  0  0  0  0  0  0
   -2.2331    5.9240    0.4805 C   0  0  0  0  0  0  0  0  0  0  0  0
   -2.6696    7.2029    0.5916 F   0  0  0  0  0  0  0  0  0  0  0  0
   -2.8551    5.0510   -0.4130 C   0  0  0  0  0  0  0  0  0  0  0  0
   -2.4032    3.7359   -0.5355 C   0  0  0  0  0  0  0  0  0  0  0  0
   -1.3291    3.2763    0.2445 C   0  0  0  0  0  0  0  0  0  0  0  0
   -0.8526    1.8877    0.0631 C   0  0  0  0  0  0  0  0  0  0  0  0
   -1.6362    0.7645    0.4114 C   0  0  0  0  0  0  0  0  0  0  0  0
   -2.9077    0.8683    0.9953 C   0  0  0  0  0  0  0  0  0  0  0  0
   -3.6230   -0.2831    1.3115 C   0  0  0  0  0  0  0  0  0  0  0  0
   -3.0669   -1.5389    1.0586 C   0  0  0  0  0  0  0  0  0  0  0  0
   -3.7261   -2.5721    1.3598 O   0  0  0  0  0  0  0  0  0  0  0  0
   -1.8180   -1.6450    0.5021 N   0  0  0  0  0  0  0  0  0  0  0  0
   -1.0998   -0.5208    0.1785 C   0  0  0  0  0  0  0  0  0  0  0  0
    0.1406   -0.6339   -0.3678 N   0  0  0  0  0  0  0  0  0  0  0  0
    0.8859    0.4553   -0.6835 C   0  0  0  0  0  0  0  0  0  0  0  0
    2.1948    0.3025   -1.2481 N   0  0  0  0  0  0  0  0  0  0  0  0
    2.7884   -1.0144   -1.5134 C   0  0  0  0  0  0  0  0  0  0  0  0
    3.9315   -0.8940   -2.5398 C   0  0  0  0  0  0  0  0  0  0  0  0
    4.9643   -0.0732   -2.0596 O   0  0  0  0  0  0  0  0  0  0  0  0
    3.2619   -1.6578   -0.1990 C   0  0  0  0  0  0  0  0  0  0  0  0
    3.7456   -2.9503   -0.4414 O   0  0  0  0  0  0  0  0  0  0  0  0
    0.3847    1.6980   -0.4676 N   0  0  0  0  0  0  0  0  0  0  0  0
   -1.2489   -2.9475    0.2635 C   0  0  0  0  0  0  0  0  0  0  0  0
   -0.1948   -3.4165    1.0665 C   0  0  0  0  0  0  0  0  0  0  0  0
    0.2691   -2.6634    2.0952 F   0  0  0  0  0  0  0  0  0  0  0  0
    0.3817   -4.6642    0.8092 C   0  0  0  0  0  0  0  0  0  0  0  0
   -0.0917   -5.4510   -0.2444 C   0  0  0  0  0  0  0  0  0  0  0  0
   -1.1426   -4.9921   -1.0436 C   0  0  0  0  0  0  0  0  0  0  0  0
   -1.7210   -3.7434   -0.7936 C   0  0  0  0  0  0  0  0  0  0  0  0
   -2.7277   -3.2998   -1.5875 F   0  0  0  0  0  0  0  0  0  0  0  0
    1.3709    3.6257    1.3698 H   0  0  0  0  0  0  0  0  0  0  0  0
    0.2437    2.7266    2.4662 H   0  0  0  0  0  0  0  0  0  0  0  0
    0.6688    4.4325    2.8212 H   0  0  0  0  0  0  0  0  0  0  0  0
   -0.6855    6.1769    1.9414 H   0  0  0  0  0  0  0  0  0  0  0  0
   -3.6846    5.3948   -1.0174 H   0  0  0  0  0  0  0  0  0  0  0  0
   -2.8874    3.0741   -1.2435 H   0  0  0  0  0  0  0  0  0  0  0  0
   -3.3517    1.8296    1.2171 H   0  0  0  0  0  0  0  0  0  0  0  0
   -4.6056   -0.1990    1.7596 H   0  0  0  0  0  0  0  0  0  0  0  0
    2.7134    1.1696   -1.5173 H   0  0  0  0  0  0  0  0  0  0  0  0
    2.0129   -1.6717   -1.9670 H   0  0  0  0  0  0  0  0  0  0  0  0
    4.3172   -1.9042   -2.8113 H   0  0  0  0  0  0  0  0  0  0  0  0
    3.5297   -0.4430   -3.4721 H   0  0  0  0  0  0  0  0  0  0  0  0
    5.6156   -0.6660   -1.6018 H   0  0  0  0  0  0  0  0  0  0  0  0
    4.0570   -1.0348    0.2677 H   0  0  0  0  0  0  0  0  0  0  0  0
    2.4113   -1.7170    0.5143 H   0  0  0  0  0  0  0  0  0  0  0  0
    4.0226   -3.3110    0.4407 H   0  0  0  0  0  0  0  0  0  0  0  0
    1.1961   -5.0219    1.4260 H   0  0  0  0  0  0  0  0  0  0  0  0
    0.3563   -6.4162   -0.4419 H   0  0  0  0  0  0  0  0  0  0  0  0
   -1.5050   -5.6029   -1.8604 H   0  0  0  0  0  0  0  0  0  0  0  0
  1  2  1  0
  2  3  2  0
  3  4  1  0
  4  5  1  0
  4  6  2  0
  6  7  1  0
  7  8  2  0
  8  9  1  0
  9 10  2  0
 10 11  1  0
 11 12  2  0
 12 13  1  0
 13 14  2  0
 13 15  1  0
 15 16  1  0
 16 17  2  0
 17 18  1  0
 18 19  1  0
 19 20  1  0
 20 21  1  0
 21 22  1  0
 20 23  1  0
 23 24  1  0
 18 25  2  0
 15 26  1  0
 26 27  2  0
 27 28  1  0
 27 29  1  0
 29 30  2  0
 30 31  1  0
 31 32  2  0
 32 33  1  0
  8  2  1  0
 25  9  1  0
 32 26  1  0
 16 10  1  0
  1 34  1  0
  1 35  1  0
  1 36  1  0
  3 37  1  0
  6 38  1  0
  7 39  1  0
 11 40  1  0
 12 41  1  0
 19 42  1  0
 20 43  1  0
 21 44  1  0
 21 45  1  0
 22 46  1  0
 23 47  1  0
 23 48  1  0
 24 49  1  0
 29 50  1  0
 30 51  1  0
 31 52  1  0
M  END
$$$$
