
     RDKit          3D

 12 12  0  0  0  0  0  0  0  0999 V2000
   -2.1085   -0.7205   -0.2945 N   0  0  0  0  0  0  0  0  0  0  0  0
   -0.7809   -0.2326   -0.1022 C   0  0  0  0  0  0  0  0  0  0  0  0
   -0.5487    1.1182    0.1849 C   0  0  0  0  0  0  0  0  0  0  0  0
    0.7265    1.5536    0.3629 N   0  0  0  0  0  0  0  0  0  0  0  0
    1.7815    0.7022    0.2675 C   0  0  0  0  0  0  0  0  0  0  0  0
    1.5513   -0.6458   -0.0188 C   0  0  0  0  0  0  0  0  0  0  0  0
    2.8882   -1.7707   -0.1489 Cl  0  0  0  0  0  0  0  0  0  0  0  0
    0.2768   -1.0826   -0.1971 N   0  0  0  0  0  0  0  0  0  0  0  0
   -2.9309   -0.0805   -0.2249 H   0  0  0  0  0  0  0  0  0  0  0  0
   -2.2719   -1.7294   -0.5082 H   0  0  0  0  0  0  0  0  0  0  0  0
   -1.3714    1.8165    0.2661 H   0  0  0  0  0  0  0  0  0  0  0  0
    2.7880    1.0716    0.4132 H   0  0  0  0  0  0  0  0  0  0  0  0
  1  2  1  0
  2  3  2  0
  3  4  1  0
  4  5  2  0
  5  6  1  0
  6  7  1  0
  6  8  2  0
  8  2  1  0
  1  9  1  0
  1 10  1  0
  3 11  1  0
  5 12  1  0
M  END
$$$$
