
     RDKit          3D

 53 56  0  0  0  0  0  0  0  0999 V2000
   -2.0294   -2.4057   -1.1795 C   0  0  0  0  0  0  0  0  0  0  0  0
   -2.3359   -1.1054   -0.6891 O   0  0  0  0  0  0  0  0  0  0  0  0
   -3.6364   -0.6168   -0.5017 C   0  0  0  0  0  0  0  0  0  0  0  0
   -3.8445    0.6753   -0.0033 C   0  0  0  0  0  0  0  0  0  0  0  0
   -5.1060    1.2016    0.1067 C   0  0  0  0  0  0  0  0  0  0  0  0
   -5.0713    2.4769    0.5301 N   0  0  0  0  0  0  0  0  0  0  0  0
   -3.7652    2.7783    0.6970 C   0  0  0  0  0  0  0  0  0  0  0  0
   -2.9695    1.6788    0.3922 C   0  0  0  0  0  0  0  0  0  0  0  0
   -1.5002    1.6367    0.4957 C   0  0  0  0  0  0  0  0  0  0  0  0
   -0.8419    2.6148    0.0542 O   0  0  0  0  0  0  0  0  0  0  0  0
   -0.8186    0.5038    1.1691 C   0  0  0  0  0  0  0  0  0  0  0  0
   -1.4944   -0.2102    1.9606 O   0  0  0  0  0  0  0  0  0  0  0  0
    0.5688    0.1703    0.9312 N   0  0  0  0  0  0  0  0  0  0  0  0
    1.0342   -1.1940    1.2261 C   0  0  0  0  0  0  0  0  0  0  0  0
    2.0920   -1.6313    0.2076 C   0  0  0  0  0  0  0  0  0  0  0  0
    3.1339   -0.6100    0.0370 N   0  0  0  0  0  0  0  0  0  0  0  0
    2.9881    0.7028    0.6802 C   0  0  0  0  0  0  0  0  0  0  0  0
    1.5458    1.2014    0.5417 C   0  0  0  0  0  0  0  0  0  0  0  0
    4.2577   -0.8968   -0.8184 C   0  0  0  0  0  0  0  0  0  0  0  0
    4.0924   -1.6355   -1.8275 O   0  0  0  0  0  0  0  0  0  0  0  0
    5.6074   -0.3535   -0.5414 C   0  0  0  0  0  0  0  0  0  0  0  0
    6.0552   -0.1778    0.7802 C   0  0  0  0  0  0  0  0  0  0  0  0
    7.3360    0.3241    1.0312 C   0  0  0  0  0  0  0  0  0  0  0  0
    8.1838    0.6448   -0.0318 C   0  0  0  0  0  0  0  0  0  0  0  0
    7.7547    0.4579   -1.3480 C   0  0  0  0  0  0  0  0  0  0  0  0
    6.4749   -0.0443   -1.6039 C   0  0  0  0  0  0  0  0  0  0  0  0
   -6.2289    0.4499   -0.2260 C   0  0  0  0  0  0  0  0  0  0  0  0
   -7.5105    0.9939   -0.1013 O   0  0  0  0  0  0  0  0  0  0  0  0
   -8.6879    0.2668   -0.4298 C   0  0  0  0  0  0  0  0  0  0  0  0
   -6.0385   -0.8258   -0.6777 N   0  0  0  0  0  0  0  0  0  0  0  0
   -4.7911   -1.3700   -0.8223 C   0  0  0  0  0  0  0  0  0  0  0  0
   -2.4430   -3.1776   -0.4969 H   0  0  0  0  0  0  0  0  0  0  0  0
   -2.4438   -2.5359   -2.2014 H   0  0  0  0  0  0  0  0  0  0  0  0
   -0.9278   -2.5249   -1.2251 H   0  0  0  0  0  0  0  0  0  0  0  0
   -5.8839    3.1129    0.6911 H   0  0  0  0  0  0  0  0  0  0  0  0
   -3.4077    3.7408    1.0397 H   0  0  0  0  0  0  0  0  0  0  0  0
    0.1924   -1.9196    1.1851 H   0  0  0  0  0  0  0  0  0  0  0  0
    1.4650   -1.2203    2.2504 H   0  0  0  0  0  0  0  0  0  0  0  0
    2.5544   -2.5809    0.5539 H   0  0  0  0  0  0  0  0  0  0  0  0
    1.5972   -1.8158   -0.7707 H   0  0  0  0  0  0  0  0  0  0  0  0
    3.2447    0.6150    1.7578 H   0  0  0  0  0  0  0  0  0  0  0  0
    3.6684    1.4509    0.2177 H   0  0  0  0  0  0  0  0  0  0  0  0
    1.4259    2.0975    1.1886 H   0  0  0  0  0  0  0  0  0  0  0  0
    1.3709    1.4883   -0.5175 H   0  0  0  0  0  0  0  0  0  0  0  0
    5.4251   -0.4478    1.6175 H   0  0  0  0  0  0  0  0  0  0  0  0
    7.6738    0.4575    2.0508 H   0  0  0  0  0  0  0  0  0  0  0  0
    9.1752    1.0322    0.1646 H   0  0  0  0  0  0  0  0  0  0  0  0
    8.4143    0.7016   -2.1709 H   0  0  0  0  0  0  0  0  0  0  0  0
    6.1579   -0.1797   -2.6307 H   0  0  0  0  0  0  0  0  0  0  0  0
   -8.7637   -0.6411    0.2053 H   0  0  0  0  0  0  0  0  0  0  0  0
   -9.5748    0.9078   -0.2479 H   0  0  0  0  0  0  0  0  0  0  0  0
   -8.6683   -0.0247   -1.5013 H   0  0  0  0  0  0  0  0  0  0  0  0
   -4.7070   -2.3794   -1.1990 H   0  0  0  0  0  0  0  0  0  0  0  0
  1  2  1  0
  2  3  1  0
  3  4  2  0
  4  5  1  0
  5  6  1  0
  6  7  1  0
  7  8  2  0
  8  9  1  0
  9 10  2  0
  9 11  1  0
 11 12  2  0
 11 13  1  0
 13 14  1  0
 14 15  1  0
 15 16  1  0
 16 17  1  0
 17 18  1  0
 16 19  1  0
 19 20  2  0
 19 21  1  0
 21 22  2  0
 22 23  1  0
 23 24  2  0
 24 25  1  0
 25 26  2  0
  5 27  2  0
 27 28  1  0
 28 29  1  0
 27 30  1  0
 30 31  2  0
 31  3  1  0
  8  4  1  0
 18 13  1  0
 26 21  1  0
  1 32  1  0
  1 33  1  0
  1 34  1  0
  6 35  1  0
  7 36  1  0
 14 37  1  0
 14 38  1  0
 15 39  1  0
 15 40  1  0
 17 41  1  0
 17 42  1  0
 18 43  1  0
 18 44  1  0
 22 45  1  0
 23 46  1  0
 24 47  1  0
 25 48  1  0
 26 49  1  0
 29 50  1  0
 29 51  1  0
 29 52  1  0
 31 53  1  0
M  END
$$$$
