
     RDKit          3D

 61 63  0  0  0  0  0  0  0  0999 V2000
   -4.5145   -2.8984    0.4468 C   0  0  0  0  0  0  0  0  0  0  0  0
   -4.8278   -1.7985   -0.5739 C   0  0  0  0  0  0  0  0  0  0  0  0
   -6.2840   -1.6172   -0.6797 N   0  0  0  0  0  0  0  0  0  0  0  0
   -6.6566   -0.8670   -1.9011 C   0  0  1  0  0  0  0  0  0  0  0  0
   -7.9835   -0.2717   -1.7267 N   0  0  0  0  0  0  0  0  0  0  0  0
   -5.6227    0.2318   -2.2720 C   0  0  0  0  0  0  0  0  0  0  0  0
   -4.8671    0.7251   -1.0365 C   0  0  0  0  0  0  0  0  0  0  0  0
   -4.1091   -0.4262   -0.3236 C   0  0  0  0  0  0  0  0  0  0  0  0
   -3.9158   -0.0524    1.1699 C   0  0  0  0  0  0  0  0  0  0  0  0
   -2.8378   -0.8410    1.7870 N   0  0  0  0  0  0  0  0  0  0  0  0
   -1.5337   -0.1809    1.6446 C   0  0  0  0  0  0  0  0  0  0  0  0
   -0.4204   -1.1391    2.0702 C   0  0  0  0  0  0  0  0  0  0  0  0
    0.8944   -0.5110    1.8847 N   0  0  0  0  0  0  0  0  0  0  0  0
    1.7757   -0.9923    0.8054 C   0  0  0  0  0  0  0  0  0  0  0  0
    2.4762   -2.1262    1.2407 O   0  0  0  0  0  0  0  0  0  0  0  0
    2.7769    0.0627    0.3969 C   0  0  0  0  0  0  0  0  0  0  0  0
    3.4680   -0.0762   -0.8544 N   0  0  0  0  0  0  0  0  0  0  0  0
    4.5244    0.8357   -1.2933 C   0  0  0  0  0  0  0  0  0  0  0  0
    5.8828    0.4088   -0.7223 C   0  0  0  0  0  0  0  0  0  0  0  0
    5.8399    0.4353    0.6619 F   0  0  0  0  0  0  0  0  0  0  0  0
    6.1662   -0.8878   -1.1211 F   0  0  0  0  0  0  0  0  0  0  0  0
    6.9643    1.3392   -1.2060 C   0  0  0  0  0  0  0  0  0  0  0  0
    7.5323    1.1846   -2.4815 C   0  0  0  0  0  0  0  0  0  0  0  0
    8.5046    2.0888   -2.9138 C   0  0  0  0  0  0  0  0  0  0  0  0
    8.8943    3.1404   -2.0833 C   0  0  0  0  0  0  0  0  0  0  0  0
    8.2989    3.2749   -0.8276 C   0  0  0  0  0  0  0  0  0  0  0  0
    7.3538    2.3848   -0.4230 N   0  0  0  0  0  0  0  0  0  0  0  0
    3.0715    1.0433    1.2011 N   0  0  0  0  0  0  0  0  0  0  0  0
    2.4247    1.2385    2.4627 C   0  0  0  0  0  0  0  0  0  0  0  0
    1.3699    0.4982    2.7998 C   0  0  0  0  0  0  0  0  0  0  0  0
    0.5748    0.7988    4.3430 Cl  0  0  0  0  0  0  0  0  0  0  0  0
   -4.9937   -3.8483    0.1274 H   0  0  0  0  0  0  0  0  0  0  0  0
   -4.9083   -2.6391    1.4516 H   0  0  0  0  0  0  0  0  0  0  0  0
   -3.4189   -3.0713    0.5025 H   0  0  0  0  0  0  0  0  0  0  0  0
   -4.4554   -2.1951   -1.5475 H   0  0  0  0  0  0  0  0  0  0  0  0
   -6.6219   -1.1035    0.1691 H   0  0  0  0  0  0  0  0  0  0  0  0
   -6.7065   -1.5901   -2.7471 H   0  0  0  0  0  0  0  0  0  0  0  0
   -8.6535   -1.0370   -1.4824 H   0  0  0  0  0  0  0  0  0  0  0  0
   -8.3009    0.1038   -2.6503 H   0  0  0  0  0  0  0  0  0  0  0  0
   -6.1181    1.0922   -2.7725 H   0  0  0  0  0  0  0  0  0  0  0  0
   -4.8869   -0.1825   -2.9963 H   0  0  0  0  0  0  0  0  0  0  0  0
   -4.1458    1.5166   -1.3358 H   0  0  0  0  0  0  0  0  0  0  0  0
   -5.6075    1.1926   -0.3489 H   0  0  0  0  0  0  0  0  0  0  0  0
   -3.1054   -0.4963   -0.7971 H   0  0  0  0  0  0  0  0  0  0  0  0
   -3.7063    1.0379    1.2745 H   0  0  0  0  0  0  0  0  0  0  0  0
   -4.8702   -0.2321    1.7130 H   0  0  0  0  0  0  0  0  0  0  0  0
   -3.0426   -0.9174    2.8114 H   0  0  0  0  0  0  0  0  0  0  0  0
   -1.5017    0.7383    2.2708 H   0  0  0  0  0  0  0  0  0  0  0  0
   -1.3564    0.1105    0.5864 H   0  0  0  0  0  0  0  0  0  0  0  0
   -0.5525   -1.4454    3.1300 H   0  0  0  0  0  0  0  0  0  0  0  0
   -0.4986   -2.0631    1.4556 H   0  0  0  0  0  0  0  0  0  0  0  0
    1.1631   -1.2427   -0.0920 H   0  0  0  0  0  0  0  0  0  0  0  0
    1.8288   -2.8782    1.2445 H   0  0  0  0  0  0  0  0  0  0  0  0
    3.1968   -0.8569   -1.4942 H   0  0  0  0  0  0  0  0  0  0  0  0
    4.5733    0.8153   -2.4043 H   0  0  0  0  0  0  0  0  0  0  0  0
    4.2821    1.8782   -0.9908 H   0  0  0  0  0  0  0  0  0  0  0  0
    7.2232    0.3773   -3.1336 H   0  0  0  0  0  0  0  0  0  0  0  0
    8.9519    1.9770   -3.8930 H   0  0  0  0  0  0  0  0  0  0  0  0
    9.6459    3.8468   -2.4110 H   0  0  0  0  0  0  0  0  0  0  0  0
    8.5853    4.0892   -0.1755 H   0  0  0  0  0  0  0  0  0  0  0  0
    2.7803    2.0181    3.1239 H   0  0  0  0  0  0  0  0  0  0  0  0
  1  2  1  0
  2  3  1  0
  3  4  1  0
  4  5  1  0
  4  6  1  0
  6  7  1  0
  7  8  1  0
  8  9  1  0
  9 10  1  0
 10 11  1  0
 11 12  1  0
 12 13  1  0
 13 14  1  0
 14 15  1  0
 14 16  1  0
 16 17  1  0
 17 18  1  0
 18 19  1  0
 19 20  1  0
 19 21  1  0
 19 22  1  0
 22 23  2  0
 23 24  1  0
 24 25  2  0
 25 26  1  0
 26 27  2  0
 16 28  2  0
 28 29  1  0
 29 30  2  0
 30 31  1  0
  8  2  1  0
 30 13  1  0
 27 22  1  0
  1 32  1  0
  1 33  1  0
  1 34  1  0
  2 35  1  0
  3 36  1  0
  4 37  1  6
  5 38  1  0
  5 39  1  0
  6 40  1  0
  6 41  1  0
  7 42  1  0
  7 43  1  0
  8 44  1  0
  9 45  1  0
  9 46  1  0
 10 47  1  0
 11 48  1  0
 11 49  1  0
 12 50  1  0
 12 51  1  0
 14 52  1  0
 15 53  1  0
 17 54  1  0
 18 55  1  0
 18 56  1  0
 23 57  1  0
 24 58  1  0
 25 59  1  0
 26 60  1  0
 29 61  1  0
M  END
$$$$
