
     RDKit          3D

 49 52  0  0  0  0  0  0  0  0999 V2000
   -2.0005    0.9218   -0.1078 C   0  0  2  0  0  0  0  0  0  0  0  0
   -2.9788    1.8610    0.6003 C   0  0  0  0  0  0  0  0  0  0  0  0
   -4.3125    1.5848   -0.1167 C   0  0  0  0  0  0  0  0  0  0  0  0
   -4.1166    0.2310   -0.7301 C   0  0  0  0  0  0  0  0  0  0  0  0
   -4.9687   -0.3408   -1.3925 O   0  0  0  0  0  0  0  0  0  0  0  0
   -2.7952   -0.3639   -0.3723 C   0  0  2  0  0  0  0  0  0  0  0  0
   -3.0276   -1.2643    0.8735 C   0  0  0  0  0  0  0  0  0  0  0  0
   -2.0693   -1.1398   -1.4879 C   0  0  0  0  0  0  0  0  0  0  0  0
   -0.6114   -1.4664   -1.0695 C   0  0  0  0  0  0  0  0  0  0  0  0
    0.1904   -0.2227   -0.5518 C   0  0  1  0  0  0  0  0  0  0  0  0
   -0.6173    0.6242    0.4977 C   0  0  1  0  0  0  0  0  0  0  0  0
    0.1324    1.9258    0.8368 C   0  0  0  0  0  0  0  0  0  0  0  0
    1.5516    1.6366    1.3357 C   0  0  0  0  0  0  0  0  0  0  0  0
    2.3412    0.8228    0.2935 C   0  0  1  0  0  0  0  0  0  0  0  0
    3.8160    0.6736    0.7105 C   0  0  0  0  0  0  0  0  0  0  0  0
    4.5656   -0.1300   -0.3138 C   0  0  0  0  0  0  0  0  0  0  0  0
    5.6993    0.1949   -0.6324 O   0  0  0  0  0  0  0  0  0  0  0  0
    3.9663   -1.3927   -0.8652 C   0  0  0  0  0  0  0  0  0  0  0  0
    2.4741   -1.2136   -1.1967 C   0  0  0  0  0  0  0  0  0  0  0  0
    1.6511   -0.5461   -0.0494 C   0  0  2  0  0  0  0  0  0  0  0  0
    1.6227   -1.5105    1.1748 C   0  0  0  0  0  0  0  0  0  0  0  0
   -1.8037    1.4234   -1.0893 H   0  0  0  0  0  0  0  0  0  0  0  0
   -3.0516    1.6103    1.6808 H   0  0  0  0  0  0  0  0  0  0  0  0
   -2.6778    2.9252    0.4874 H   0  0  0  0  0  0  0  0  0  0  0  0
   -5.1596    1.5764    0.6017 H   0  0  0  0  0  0  0  0  0  0  0  0
   -4.4895    2.3355   -0.9167 H   0  0  0  0  0  0  0  0  0  0  0  0
   -3.5159   -0.7023    1.6974 H   0  0  0  0  0  0  0  0  0  0  0  0
   -2.0931   -1.6986    1.2763 H   0  0  0  0  0  0  0  0  0  0  0  0
   -3.6936   -2.1123    0.6043 H   0  0  0  0  0  0  0  0  0  0  0  0
   -2.0537   -0.5387   -2.4243 H   0  0  0  0  0  0  0  0  0  0  0  0
   -2.6108   -2.0848   -1.7112 H   0  0  0  0  0  0  0  0  0  0  0  0
   -0.1075   -1.8863   -1.9645 H   0  0  0  0  0  0  0  0  0  0  0  0
   -0.6277   -2.2695   -0.3086 H   0  0  0  0  0  0  0  0  0  0  0  0
    0.3087    0.4278   -1.4501 H   0  0  0  0  0  0  0  0  0  0  0  0
   -0.7534    0.0680    1.4446 H   0  0  0  0  0  0  0  0  0  0  0  0
   -0.4144    2.4767    1.6323 H   0  0  0  0  0  0  0  0  0  0  0  0
    0.1840    2.5830   -0.0597 H   0  0  0  0  0  0  0  0  0  0  0  0
    2.0629    2.6082    1.5124 H   0  0  0  0  0  0  0  0  0  0  0  0
    1.5128    1.1024    2.3088 H   0  0  0  0  0  0  0  0  0  0  0  0
    2.3530    1.4372   -0.6380 H   0  0  0  0  0  0  0  0  0  0  0  0
    3.9064    0.1872    1.7038 H   0  0  0  0  0  0  0  0  0  0  0  0
    4.2759    1.6833    0.7937 H   0  0  0  0  0  0  0  0  0  0  0  0
    4.5047   -1.6919   -1.7910 H   0  0  0  0  0  0  0  0  0  0  0  0
    4.1009   -2.2107   -0.1269 H   0  0  0  0  0  0  0  0  0  0  0  0
    2.3945   -0.5973   -2.1199 H   0  0  0  0  0  0  0  0  0  0  0  0
    2.0655   -2.2181   -1.4362 H   0  0  0  0  0  0  0  0  0  0  0  0
    0.9926   -1.1343    2.0015 H   0  0  0  0  0  0  0  0  0  0  0  0
    1.2444   -2.5115    0.8849 H   0  0  0  0  0  0  0  0  0  0  0  0
    2.6331   -1.6739    1.5959 H   0  0  0  0  0  0  0  0  0  0  0  0
  1  2  1  0
  2  3  1  0
  3  4  1  0
  4  5  2  0
  4  6  1  0
  6  7  1  1
  6  8  1  0
  8  9  1  0
  9 10  1  0
 10 11  1  0
 11 12  1  0
 12 13  1  0
 13 14  1  0
 14 15  1  0
 15 16  1  0
 16 17  2  0
 16 18  1  0
 18 19  1  0
 19 20  1  0
 20 21  1  1
  6  1  1  0
 20 10  1  0
 11  1  1  0
 20 14  1  0
  1 22  1  6
  2 23  1  0
  2 24  1  0
  3 25  1  0
  3 26  1  0
  7 27  1  0
  7 28  1  0
  7 29  1  0
  8 30  1  0
  8 31  1  0
  9 32  1  0
  9 33  1  0
 10 34  1  6
 11 35  1  1
 12 36  1  0
 12 37  1  0
 13 38  1  0
 13 39  1  0
 14 40  1  6
 15 41  1  0
 15 42  1  0
 18 43  1  0
 18 44  1  0
 19 45  1  0
 19 46  1  0
 21 47  1  0
 21 48  1  0
 21 49  1  0
M  END
$$$$
