
     RDKit          3D

 31 32  0  0  0  0  0  0  0  0999 V2000
   -4.6672    0.2485   -0.8187 C   0  0  0  0  0  0  0  0  0  0  0  0
   -3.7692   -0.3204    0.2762 C   0  0  0  0  0  0  0  0  0  0  0  0
   -2.3192   -0.4373   -0.1981 C   0  0  0  0  0  0  0  0  0  0  0  0
   -1.4892   -0.9848    0.8868 N   0  0  0  0  0  0  0  0  0  0  0  0
   -0.0323   -0.8233    0.6947 C   0  0  1  0  0  0  0  0  0  0  0  0
    0.4577   -1.2336   -0.7196 C   0  0  0  0  0  0  0  0  0  0  0  0
    1.9958   -1.2432   -0.7899 C   0  0  0  0  0  0  0  0  0  0  0  0
    2.5780    0.0045   -0.1893 C   0  0  0  0  0  0  0  0  0  0  0  0
    1.8743    0.7926    0.7171 C   0  0  0  0  0  0  0  0  0  0  0  0
    0.4271    0.6064    1.0594 C   0  0  0  0  0  0  0  0  0  0  0  0
    2.8587    2.0632    1.2118 S   0  0  0  0  0  0  0  0  0  0  0  0
    4.1539    1.5187    0.2805 C   0  0  0  0  0  0  0  0  0  0  0  0
    5.4253    2.1589    0.2219 N   0  0  0  0  0  0  0  0  0  0  0  0
    3.8588    0.3987   -0.4161 N   0  0  0  0  0  0  0  0  0  0  0  0
   -4.3250    1.2646   -1.1096 H   0  0  0  0  0  0  0  0  0  0  0  0
   -4.6540   -0.4129   -1.7111 H   0  0  0  0  0  0  0  0  0  0  0  0
   -5.7102    0.3190   -0.4444 H   0  0  0  0  0  0  0  0  0  0  0  0
   -4.1477   -1.3240    0.5689 H   0  0  0  0  0  0  0  0  0  0  0  0
   -3.8149    0.3453    1.1654 H   0  0  0  0  0  0  0  0  0  0  0  0
   -1.9665    0.5703   -0.5012 H   0  0  0  0  0  0  0  0  0  0  0  0
   -2.2805   -1.1093   -1.0849 H   0  0  0  0  0  0  0  0  0  0  0  0
   -1.6953   -2.0093    0.9625 H   0  0  0  0  0  0  0  0  0  0  0  0
    0.4684   -1.5065    1.4198 H   0  0  0  0  0  0  0  0  0  0  0  0
    0.0779   -2.2475   -0.9708 H   0  0  0  0  0  0  0  0  0  0  0  0
    0.0759   -0.5186   -1.4807 H   0  0  0  0  0  0  0  0  0  0  0  0
    2.3855   -2.1209   -0.2310 H   0  0  0  0  0  0  0  0  0  0  0  0
    2.3171   -1.3331   -1.8496 H   0  0  0  0  0  0  0  0  0  0  0  0
   -0.1533    1.3693    0.5032 H   0  0  0  0  0  0  0  0  0  0  0  0
    0.2789    0.7798    2.1467 H   0  0  0  0  0  0  0  0  0  0  0  0
    6.1846    1.7673   -0.3780 H   0  0  0  0  0  0  0  0  0  0  0  0
    5.6065    3.0235    0.7779 H   0  0  0  0  0  0  0  0  0  0  0  0
  1  2  1  0
  2  3  1  0
  3  4  1  0
  4  5  1  0
  5  6  1  0
  6  7  1  0
  7  8  1  0
  8  9  2  0
  9 10  1  0
  9 11  1  0
 11 12  1  0
 12 13  1  0
 12 14  2  0
 10  5  1  0
 14  8  1  0
  1 15  1  0
  1 16  1  0
  1 17  1  0
  2 18  1  0
  2 19  1  0
  3 20  1  0
  3 21  1  0
  4 22  1  0
  5 23  1  1
  6 24  1  0
  6 25  1  0
  7 26  1  0
  7 27  1  0
 10 28  1  0
 10 29  1  0
 13 30  1  0
 13 31  1  0
M  END
$$$$
