
     RDKit          3D

 35 37  0  0  0  0  0  0  0  0999 V2000
    1.8936    0.7035    3.7308 N   0  0  0  0  0  0  0  0  0  0  0  0
    0.9820    0.3507    2.6869 C   0  0  0  0  0  0  0  0  0  0  0  0
    1.3769   -0.0382    1.3995 C   0  0  0  0  0  0  0  0  0  0  0  0
   -0.0233   -0.3280    0.5011 S   0  0  0  0  0  0  0  0  0  0  0  0
   -1.0588    0.0864    1.7634 C   0  0  0  0  0  0  0  0  0  0  0  0
   -2.4910    0.0071    1.7332 N   0  0  0  0  0  0  0  0  0  0  0  0
   -3.2662   -0.0803    0.5273 C   0  0  0  0  0  0  0  0  0  0  0  0
   -4.4221   -0.8758    0.5065 C   0  0  0  0  0  0  0  0  0  0  0  0
   -5.2059   -0.9553   -0.6504 C   0  0  0  0  0  0  0  0  0  0  0  0
   -6.6390   -1.9666   -0.6717 Cl  0  0  0  0  0  0  0  0  0  0  0  0
   -4.8477   -0.2258   -1.7885 C   0  0  0  0  0  0  0  0  0  0  0  0
   -3.7130    0.5890   -1.7677 C   0  0  0  0  0  0  0  0  0  0  0  0
   -2.9283    0.6697   -0.6134 C   0  0  0  0  0  0  0  0  0  0  0  0
   -0.3649    0.4092    2.8755 N   0  0  0  0  0  4  0  0  0  0  0  0
    2.7519   -0.2805    0.9144 C   0  0  0  0  0  0  0  0  0  0  0  0
    3.6180   -0.7167    1.7197 O   0  0  0  0  0  0  0  0  0  0  0  0
    3.1274   -0.0695   -0.5041 C   0  0  0  0  0  0  0  0  0  0  0  0
    4.1484   -0.8441   -1.0845 C   0  0  0  0  0  0  0  0  0  0  0  0
    4.5172   -0.6451   -2.4186 C   0  0  0  0  0  0  0  0  0  0  0  0
    3.8793    0.3344   -3.1837 C   0  0  0  0  0  0  0  0  0  0  0  0
    4.2395    0.5266   -4.4766 F   0  0  0  0  0  0  0  0  0  0  0  0
    2.8751    1.1206   -2.6136 C   0  0  0  0  0  0  0  0  0  0  0  0
    2.5026    0.9251   -1.2802 C   0  0  0  0  0  0  0  0  0  0  0  0
    1.5308    0.9508    4.6780 H   0  0  0  0  0  0  0  0  0  0  0  0
    2.9188    0.7871    3.5601 H   0  0  0  0  0  0  0  0  0  0  0  0
   -2.9905   -0.0675    2.6480 H   0  0  0  0  0  0  0  0  0  0  0  0
   -4.7051   -1.4407    1.3861 H   0  0  0  0  0  0  0  0  0  0  0  0
   -5.4519   -0.2825   -2.6850 H   0  0  0  0  0  0  0  0  0  0  0  0
   -3.4461    1.1660   -2.6437 H   0  0  0  0  0  0  0  0  0  0  0  0
   -2.0738    1.3333   -0.6045 H   0  0  0  0  0  0  0  0  0  0  0  0
   -0.8138    0.6793    3.7792 H   0  0  0  0  0  0  0  0  0  0  0  0
    4.6526   -1.6112   -0.5098 H   0  0  0  0  0  0  0  0  0  0  0  0
    5.2986   -1.2515   -2.8583 H   0  0  0  0  0  0  0  0  0  0  0  0
    2.3881    1.8872   -3.2026 H   0  0  0  0  0  0  0  0  0  0  0  0
    1.7408    1.5644   -0.8529 H   0  0  0  0  0  0  0  0  0  0  0  0
  1  2  1  0
  2  3  2  0
  3  4  1  0
  4  5  1  0
  5  6  1  0
  6  7  1  0
  7  8  2  0
  8  9  1  0
  9 10  1  0
  9 11  2  0
 11 12  1  0
 12 13  2  0
  5 14  2  0
  3 15  1  0
 15 16  2  0
 15 17  1  0
 17 18  2  0
 18 19  1  0
 19 20  2  0
 20 21  1  0
 20 22  1  0
 22 23  2  0
 14  2  1  0
 23 17  1  0
 13  7  1  0
  1 24  1  0
  1 25  1  0
  6 26  1  0
  8 27  1  0
 11 28  1  0
 12 29  1  0
 13 30  1  0
 14 31  1  0
 18 32  1  0
 19 33  1  0
 22 34  1  0
 23 35  1  0
M  CHG  1  14   1
M  END
$$$$
