
     RDKit          3D

 69 73  0  0  0  0  0  0  0  0999 V2000
    9.8845    0.6763   -1.4983 C   0  0  0  0  0  0  0  0  0  0  0  0
    8.5072    0.6085   -0.9878 N   0  0  0  0  0  0  0  0  0  0  0  0
    8.3303    1.5316    0.1467 C   0  0  0  0  0  0  0  0  0  0  0  0
    6.8357    1.6561    0.4614 C   0  0  0  0  0  0  0  0  0  0  0  0
    6.1602    0.3611    0.3017 N   0  0  0  0  0  0  0  0  0  0  0  0
    6.9623   -0.8677    0.3531 C   0  0  0  0  0  0  0  0  0  0  0  0
    8.1610   -0.7841   -0.6154 C   0  0  0  0  0  0  0  0  0  0  0  0
    4.7254    0.3035    0.1759 C   0  0  0  0  0  0  0  0  0  0  0  0
    3.9035    1.0902    1.0001 C   0  0  0  0  0  0  0  0  0  0  0  0
    2.5127    1.0409    0.8687 C   0  0  0  0  0  0  0  0  0  0  0  0
    1.9184    0.1973   -0.0853 C   0  0  0  0  0  0  0  0  0  0  0  0
    0.4922    0.1487   -0.2573 N   0  0  0  0  0  0  0  0  0  0  0  0
   -0.4532    0.2376    0.8180 C   0  0  0  0  0  0  0  0  0  0  0  0
   -0.0452    0.0982    2.1244 N   0  0  0  0  0  0  0  0  0  0  0  0
   -0.9304    0.1462    3.1632 C   0  0  0  0  0  0  0  0  0  0  0  0
   -2.2664    0.3384    2.8539 C   0  0  0  0  0  0  0  0  0  0  0  0
   -3.4320    0.3921    3.5823 C   0  0  0  0  0  0  0  0  0  0  0  0
   -3.5320    0.2639    4.8320 O   0  0  0  0  0  0  0  0  0  0  0  0
   -4.4783    0.5602    2.7324 N   0  0  0  0  0  0  0  0  0  0  0  0
   -5.8941    0.4622    3.1025 C   0  0  0  0  0  0  0  0  0  0  0  0
   -6.3717   -0.9515    2.9274 C   0  0  0  0  0  0  0  0  0  0  0  0
   -7.0669   -1.3343    1.8525 C   0  0  0  0  0  0  0  0  0  0  0  0
   -3.9982    0.6010    1.4856 N   0  0  0  0  0  0  0  0  0  0  0  0
   -2.6603    0.4607    1.5588 C   0  0  0  0  0  0  0  0  0  0  0  0
   -1.7808    0.4067    0.5294 N   0  0  0  0  0  0  0  0  0  0  0  0
   -4.7663    0.6664    0.2769 C   0  0  0  0  0  0  0  0  0  0  0  0
   -4.6220   -0.3061   -0.6633 N   0  0  0  0  0  0  0  0  0  0  0  0
   -5.3186   -0.3009   -1.8351 C   0  0  0  0  0  0  0  0  0  0  0  0
   -6.1835    0.7731   -2.1086 C   0  0  0  0  0  0  0  0  0  0  0  0
   -6.3349    1.7923   -1.1674 C   0  0  0  0  0  0  0  0  0  0  0  0
   -5.6232    1.7451    0.0309 C   0  0  0  0  0  0  0  0  0  0  0  0
   -5.0796   -1.3952   -2.8667 C   0  0  0  0  0  0  0  0  0  0  0  0
   -4.6034   -2.7017   -2.1974 C   0  0  0  0  0  0  0  0  0  0  0  0
   -4.0089   -0.9148   -3.8552 C   0  0  0  0  0  0  0  0  0  0  0  0
   -6.2598   -1.6567   -3.5899 O   0  0  0  0  0  0  0  0  0  0  0  0
    2.7395   -0.5610   -0.9311 C   0  0  0  0  0  0  0  0  0  0  0  0
    4.1300   -0.5138   -0.7990 C   0  0  0  0  0  0  0  0  0  0  0  0
   10.6221    0.4370   -0.6999 H   0  0  0  0  0  0  0  0  0  0  0  0
   10.0163   -0.0371   -2.3404 H   0  0  0  0  0  0  0  0  0  0  0  0
   10.0942    1.6941   -1.8916 H   0  0  0  0  0  0  0  0  0  0  0  0
    8.7222    2.5431   -0.1026 H   0  0  0  0  0  0  0  0  0  0  0  0
    8.8786    1.1604    1.0430 H   0  0  0  0  0  0  0  0  0  0  0  0
    6.7025    2.0307    1.4986 H   0  0  0  0  0  0  0  0  0  0  0  0
    6.3864    2.3901   -0.2434 H   0  0  0  0  0  0  0  0  0  0  0  0
    6.3532   -1.7686    0.1255 H   0  0  0  0  0  0  0  0  0  0  0  0
    7.3415   -0.9922    1.3908 H   0  0  0  0  0  0  0  0  0  0  0  0
    9.0269   -1.3041   -0.1446 H   0  0  0  0  0  0  0  0  0  0  0  0
    7.9033   -1.3383   -1.5439 H   0  0  0  0  0  0  0  0  0  0  0  0
    4.3362    1.7392    1.7498 H   0  0  0  0  0  0  0  0  0  0  0  0
    1.9059    1.6801    1.4961 H   0  0  0  0  0  0  0  0  0  0  0  0
    0.1173   -0.0443   -1.2139 H   0  0  0  0  0  0  0  0  0  0  0  0
   -0.5953    0.0275    4.1848 H   0  0  0  0  0  0  0  0  0  0  0  0
   -6.5059    1.1692    2.5071 H   0  0  0  0  0  0  0  0  0  0  0  0
   -6.0282    0.7531    4.1663 H   0  0  0  0  0  0  0  0  0  0  0  0
   -6.0942   -1.6932    3.6705 H   0  0  0  0  0  0  0  0  0  0  0  0
   -7.3690   -2.3706    1.7432 H   0  0  0  0  0  0  0  0  0  0  0  0
   -7.3395   -0.6250    1.0772 H   0  0  0  0  0  0  0  0  0  0  0  0
   -6.7251    0.8282   -3.0444 H   0  0  0  0  0  0  0  0  0  0  0  0
   -6.9943    2.6256   -1.3727 H   0  0  0  0  0  0  0  0  0  0  0  0
   -5.7196    2.5499    0.7483 H   0  0  0  0  0  0  0  0  0  0  0  0
   -5.3371   -3.0339   -1.4315 H   0  0  0  0  0  0  0  0  0  0  0  0
   -4.5038   -3.5074   -2.9561 H   0  0  0  0  0  0  0  0  0  0  0  0
   -3.6168   -2.5618   -1.7046 H   0  0  0  0  0  0  0  0  0  0  0  0
   -3.0563   -0.6923   -3.3265 H   0  0  0  0  0  0  0  0  0  0  0  0
   -4.3483    0.0071   -4.3749 H   0  0  0  0  0  0  0  0  0  0  0  0
   -3.8150   -1.6932   -4.6243 H   0  0  0  0  0  0  0  0  0  0  0  0
   -6.9536   -1.9503   -2.9417 H   0  0  0  0  0  0  0  0  0  0  0  0
    2.2996   -1.1945   -1.6912 H   0  0  0  0  0  0  0  0  0  0  0  0
    4.7426   -1.0991   -1.4728 H   0  0  0  0  0  0  0  0  0  0  0  0
  1  2  1  0
  2  3  1  0
  3  4  1  0
  4  5  1  0
  5  6  1  0
  6  7  1  0
  5  8  1  0
  8  9  2  0
  9 10  1  0
 10 11  2  0
 11 12  1  0
 12 13  1  0
 13 14  2  0
 14 15  1  0
 15 16  2  0
 16 17  1  0
 17 18  2  0
 17 19  1  0
 19 20  1  0
 20 21  1  0
 21 22  2  3
 19 23  1  0
 23 24  1  0
 24 25  2  0
 23 26  1  0
 26 27  2  0
 27 28  1  0
 28 29  2  0
 29 30  1  0
 30 31  2  0
 28 32  1  0
 32 33  1  0
 32 34  1  0
 32 35  1  0
 11 36  1  0
 36 37  2  0
  7  2  1  0
 37  8  1  0
 25 13  1  0
 31 26  1  0
 24 16  1  0
  1 38  1  0
  1 39  1  0
  1 40  1  0
  3 41  1  0
  3 42  1  0
  4 43  1  0
  4 44  1  0
  6 45  1  0
  6 46  1  0
  7 47  1  0
  7 48  1  0
  9 49  1  0
 10 50  1  0
 12 51  1  0
 15 52  1  0
 20 53  1  0
 20 54  1  0
 21 55  1  0
 22 56  1  0
 22 57  1  0
 29 58  1  0
 30 59  1  0
 31 60  1  0
 33 61  1  0
 33 62  1  0
 33 63  1  0
 34 64  1  0
 34 65  1  0
 34 66  1  0
 35 67  1  0
 36 68  1  0
 37 69  1  0
M  END
$$$$
