
     RDKit          3D

 47 49  0  0  0  0  0  0  0  0999 V2000
    2.3604   -4.2004    0.6210 C   0  0  0  0  0  0  0  0  0  0  0  0
    1.3073   -3.1280    0.5537 C   0  0  0  0  0  0  0  0  0  0  0  0
    1.6234   -1.8240    0.1149 C   0  0  0  0  0  0  0  0  0  0  0  0
    2.9589   -1.5014   -0.3147 N   0  0  0  0  0  0  0  0  0  0  0  0
    3.6182   -0.2558   -0.0256 C   0  0  0  0  0  0  0  0  0  0  0  0
    4.6478    0.1956   -0.8609 C   0  0  0  0  0  0  0  0  0  0  0  0
    5.3129    1.4029   -0.5893 C   0  0  0  0  0  0  0  0  0  0  0  0
    4.9406    2.1238    0.5579 C   0  0  0  0  0  0  0  0  0  0  0  0
    3.9568    1.6582    1.3712 N   0  0  0  0  0  0  0  0  0  0  0  0
    3.2949    0.5015    1.1107 C   0  0  0  0  0  0  0  0  0  0  0  0
    6.3956    1.8771   -1.4860 C   0  0  0  0  0  0  0  0  0  0  0  0
    6.7820    3.2535   -1.5299 N   0  0  0  0  0  0  0  0  0  0  0  0
    6.9845    1.0561   -2.2400 O   0  0  0  0  0  0  0  0  0  0  0  0
    0.6083   -0.8536    0.0442 C   0  0  0  0  0  0  0  0  0  0  0  0
   -0.7092   -1.1543    0.4297 C   0  0  0  0  0  0  0  0  0  0  0  0
   -1.0102   -2.4571    0.8580 C   0  0  0  0  0  0  0  0  0  0  0  0
   -0.0138   -3.4329    0.9145 C   0  0  0  0  0  0  0  0  0  0  0  0
   -1.7659   -0.1159    0.3508 C   0  0  0  0  0  0  0  0  0  0  0  0
   -1.5727    0.9146   -0.3513 O   0  0  0  0  0  0  0  0  0  0  0  0
   -2.9844   -0.2460    1.1029 N   0  0  0  0  0  0  0  0  0  0  0  0
   -4.1933    0.4691    0.7933 C   0  0  0  0  0  0  0  0  0  0  0  0
   -5.0828    0.7963    1.8265 C   0  0  0  0  0  0  0  0  0  0  0  0
   -6.2787    1.4597    1.5461 C   0  0  0  0  0  0  0  0  0  0  0  0
   -6.6018    1.7996    0.2308 C   0  0  0  0  0  0  0  0  0  0  0  0
   -5.7231    1.4866   -0.8203 C   0  0  0  0  0  0  0  0  0  0  0  0
   -4.5331    0.7938   -0.5332 C   0  0  0  0  0  0  0  0  0  0  0  0
   -6.1003    1.7925   -2.2482 C   0  0  0  0  0  0  0  0  0  0  0  0
   -4.9696    2.0318   -3.0100 F   0  0  0  0  0  0  0  0  0  0  0  0
   -6.9096    2.9138   -2.3125 F   0  0  0  0  0  0  0  0  0  0  0  0
   -6.7821    0.7140   -2.7799 F   0  0  0  0  0  0  0  0  0  0  0  0
    2.0079   -5.0805    1.2001 H   0  0  0  0  0  0  0  0  0  0  0  0
    2.6178   -4.5337   -0.4061 H   0  0  0  0  0  0  0  0  0  0  0  0
    3.2722   -3.8101    1.1207 H   0  0  0  0  0  0  0  0  0  0  0  0
    3.4744   -2.2061   -0.8892 H   0  0  0  0  0  0  0  0  0  0  0  0
    4.9140   -0.3883   -1.7339 H   0  0  0  0  0  0  0  0  0  0  0  0
    5.4460    3.0389    0.8318 H   0  0  0  0  0  0  0  0  0  0  0  0
    2.5338    0.1658    1.8019 H   0  0  0  0  0  0  0  0  0  0  0  0
    6.2295    3.9962   -1.0492 H   0  0  0  0  0  0  0  0  0  0  0  0
    7.5861    3.5487   -2.1271 H   0  0  0  0  0  0  0  0  0  0  0  0
    0.8495    0.1374   -0.3200 H   0  0  0  0  0  0  0  0  0  0  0  0
   -2.0207   -2.7353    1.1269 H   0  0  0  0  0  0  0  0  0  0  0  0
   -0.2774   -4.4319    1.2395 H   0  0  0  0  0  0  0  0  0  0  0  0
   -2.9575   -0.7995    1.9889 H   0  0  0  0  0  0  0  0  0  0  0  0
   -4.8473    0.5371    2.8512 H   0  0  0  0  0  0  0  0  0  0  0  0
   -6.9607    1.7051    2.3500 H   0  0  0  0  0  0  0  0  0  0  0  0
   -7.5425    2.2986    0.0346 H   0  0  0  0  0  0  0  0  0  0  0  0
   -3.8861    0.4866   -1.3447 H   0  0  0  0  0  0  0  0  0  0  0  0
  1  2  1  0
  2  3  2  0
  3  4  1  0
  4  5  1  0
  5  6  2  0
  6  7  1  0
  7  8  2  0
  8  9  1  0
  9 10  2  0
  7 11  1  0
 11 12  1  0
 11 13  2  0
  3 14  1  0
 14 15  2  0
 15 16  1  0
 16 17  2  0
 15 18  1  0
 18 19  2  0
 18 20  1  0
 20 21  1  0
 21 22  2  0
 22 23  1  0
 23 24  2  0
 24 25  1  0
 25 26  2  0
 25 27  1  0
 27 28  1  0
 27 29  1  0
 27 30  1  0
 17  2  1  0
 26 21  1  0
 10  5  1  0
  1 31  1  0
  1 32  1  0
  1 33  1  0
  4 34  1  0
  6 35  1  0
  8 36  1  0
 10 37  1  0
 12 38  1  0
 12 39  1  0
 14 40  1  0
 16 41  1  0
 17 42  1  0
 20 43  1  0
 22 44  1  0
 23 45  1  0
 24 46  1  0
 26 47  1  0
M  END
$$$$
