
     RDKit          3D

 40 42  0  0  0  0  0  0  0  0999 V2000
    4.5209   -1.3866    0.2825 C   0  0  0  0  0  0  0  0  0  0  0  0
    4.7088   -0.1178    1.1060 C   0  0  0  0  0  0  0  0  0  0  0  0
    3.5045    0.7688    1.0017 C   0  0  0  0  0  0  0  0  0  0  0  0
    3.5244    1.7527    0.2135 O   0  0  0  0  0  0  0  0  0  0  0  0
    2.3294    0.4803    1.7727 N   0  0  0  0  0  0  0  0  0  0  0  0
    1.1566    1.3527    1.7754 C   0  0  0  0  0  0  0  0  0  0  0  0
    0.3140    1.1808    0.5025 C   0  0  0  0  0  0  0  0  0  0  0  0
   -0.3147   -0.2300    0.3920 C   0  0  2  0  0  0  0  0  0  0  0  0
    0.6162   -1.2302   -0.3443 C   0  0  0  0  0  0  0  0  0  0  0  0
    0.0254   -1.4670   -1.7470 C   0  0  0  0  0  0  0  0  0  0  0  0
   -1.3323   -0.8872   -1.6602 C   0  0  0  0  0  0  0  0  0  0  0  0
   -1.5266   -0.2117   -0.4739 C   0  0  0  0  0  0  0  0  0  0  0  0
   -2.7844    0.3321   -0.1953 C   0  0  0  0  0  0  0  0  0  0  0  0
   -3.7996    0.2109   -1.1064 C   0  0  0  0  0  0  0  0  0  0  0  0
   -4.9640    0.7778   -0.6380 O   0  0  0  0  0  0  0  0  0  0  0  0
   -4.7625    1.3073    0.6728 C   0  0  0  0  0  0  0  0  0  0  0  0
   -3.2802    1.0251    1.0243 C   0  0  0  0  0  0  0  0  0  0  0  0
   -3.6201   -0.4407   -2.3336 C   0  0  0  0  0  0  0  0  0  0  0  0
   -2.3601   -1.0054   -2.6144 C   0  0  0  0  0  0  0  0  0  0  0  0
    3.6632   -1.9759    0.6714 H   0  0  0  0  0  0  0  0  0  0  0  0
    4.3399   -1.1320   -0.7838 H   0  0  0  0  0  0  0  0  0  0  0  0
    5.4367   -2.0109    0.3485 H   0  0  0  0  0  0  0  0  0  0  0  0
    5.6089    0.4246    0.7434 H   0  0  0  0  0  0  0  0  0  0  0  0
    4.8782   -0.3893    2.1700 H   0  0  0  0  0  0  0  0  0  0  0  0
    2.3414   -0.3359    2.4251 H   0  0  0  0  0  0  0  0  0  0  0  0
    0.5287    1.1243    2.6642 H   0  0  0  0  0  0  0  0  0  0  0  0
    1.4814    2.4118    1.8682 H   0  0  0  0  0  0  0  0  0  0  0  0
    0.9210    1.4145   -0.3991 H   0  0  0  0  0  0  0  0  0  0  0  0
   -0.4867    1.9483    0.5423 H   0  0  0  0  0  0  0  0  0  0  0  0
   -0.5929   -0.6216    1.3956 H   0  0  0  0  0  0  0  0  0  0  0  0
    1.6600   -0.8664   -0.4323 H   0  0  0  0  0  0  0  0  0  0  0  0
    0.6341   -2.1919    0.2143 H   0  0  0  0  0  0  0  0  0  0  0  0
    0.6141   -0.9257   -2.5186 H   0  0  0  0  0  0  0  0  0  0  0  0
   -0.0211   -2.5514   -1.9854 H   0  0  0  0  0  0  0  0  0  0  0  0
   -5.4408    0.7986    1.3906 H   0  0  0  0  0  0  0  0  0  0  0  0
   -4.9667    2.3993    0.6710 H   0  0  0  0  0  0  0  0  0  0  0  0
   -3.1974    0.3581    1.9089 H   0  0  0  0  0  0  0  0  0  0  0  0
   -2.7296    1.9735    1.1937 H   0  0  0  0  0  0  0  0  0  0  0  0
   -4.4356   -0.5268   -3.0394 H   0  0  0  0  0  0  0  0  0  0  0  0
   -2.1926   -1.5372   -3.5420 H   0  0  0  0  0  0  0  0  0  0  0  0
  1  2  1  0
  2  3  1  0
  3  4  2  0
  3  5  1  0
  5  6  1  0
  6  7  1  0
  7  8  1  0
  8  9  1  0
  9 10  1  0
 10 11  1  0
 11 12  2  0
 12 13  1  0
 13 14  2  0
 14 15  1  0
 15 16  1  0
 16 17  1  0
 14 18  1  0
 18 19  2  0
 12  8  1  0
 17 13  1  0
 19 11  1  0
  1 20  1  0
  1 21  1  0
  1 22  1  0
  2 23  1  0
  2 24  1  0
  5 25  1  0
  6 26  1  0
  6 27  1  0
  7 28  1  0
  7 29  1  0
  8 30  1  1
  9 31  1  0
  9 32  1  0
 10 33  1  0
 10 34  1  0
 16 35  1  0
 16 36  1  0
 17 37  1  0
 17 38  1  0
 18 39  1  0
 19 40  1  0
M  END
$$$$
