
     RDKit          3D

 36 35  0  0  0  0  0  0  0  0999 V2000
    3.6618   -0.2364    0.1885 C   0  0  2  0  0  0  0  0  0  0  0  0
    4.5630    0.7130    0.6964 O   0  0  0  0  0  0  0  0  0  0  0  0
    4.2333   -1.6436    0.4139 C   0  0  0  0  0  0  0  0  0  0  0  0
    4.3790   -1.8977    1.7854 O   0  0  0  0  0  0  0  0  0  0  0  0
    3.4217    0.0326   -1.3079 C   0  0  0  0  0  0  0  0  0  0  0  0
    2.4752   -0.8762   -1.8343 O   0  0  0  0  0  0  0  0  0  0  0  0
    0.9455   -0.1257   -1.9466 P   0  0  0  0  0  5  0  0  0  0  0  0
   -0.2168   -1.3215   -2.2355 O   0  0  0  0  0  1  0  0  0  0  0  0
    0.9511    0.8456   -3.1060 O   0  0  0  0  0  0  0  0  0  0  0  0
    0.5910    0.7147   -0.5002 O   0  0  0  0  0  0  0  0  0  0  0  0
   -0.7810    1.0478   -0.4574 C   0  0  0  0  0  0  0  0  0  0  0  0
   -1.5240    0.0573    0.4663 C   0  0  0  0  0  0  0  0  0  0  0  0
   -3.0076    0.2326    0.5317 N   0  0  0  0  0  4  0  0  0  0  0  0
   -3.3729    1.6076    0.9486 C   0  0  0  0  0  0  0  0  0  0  0  0
   -3.5356   -0.7169    1.5419 C   0  0  0  0  0  0  0  0  0  0  0  0
   -3.6425   -0.0789   -0.7723 C   0  0  0  0  0  0  0  0  0  0  0  0
    2.6945   -0.1665    0.7369 H   0  0  0  0  0  0  0  0  0  0  0  0
    4.0517    1.5548    0.8235 H   0  0  0  0  0  0  0  0  0  0  0  0
    3.5364   -2.4010   -0.0038 H   0  0  0  0  0  0  0  0  0  0  0  0
    5.2106   -1.7564   -0.1103 H   0  0  0  0  0  0  0  0  0  0  0  0
    5.2327   -1.4759    2.0661 H   0  0  0  0  0  0  0  0  0  0  0  0
    3.1592    1.1051   -1.4680 H   0  0  0  0  0  0  0  0  0  0  0  0
    4.3781   -0.1181   -1.8532 H   0  0  0  0  0  0  0  0  0  0  0  0
   -0.8483    2.0635   -0.0169 H   0  0  0  0  0  0  0  0  0  0  0  0
   -1.2515    1.1212   -1.4618 H   0  0  0  0  0  0  0  0  0  0  0  0
   -1.2815   -0.9782    0.1380 H   0  0  0  0  0  0  0  0  0  0  0  0
   -1.0826    0.1668    1.4840 H   0  0  0  0  0  0  0  0  0  0  0  0
   -4.4675    1.6920    1.1338 H   0  0  0  0  0  0  0  0  0  0  0  0
   -2.8420    1.8945    1.8837 H   0  0  0  0  0  0  0  0  0  0  0  0
   -3.1240    2.3520    0.1616 H   0  0  0  0  0  0  0  0  0  0  0  0
   -3.2899   -1.7683    1.2697 H   0  0  0  0  0  0  0  0  0  0  0  0
   -3.1043   -0.5135    2.5481 H   0  0  0  0  0  0  0  0  0  0  0  0
   -4.6430   -0.6414    1.6310 H   0  0  0  0  0  0  0  0  0  0  0  0
   -3.3088   -1.0696   -1.1541 H   0  0  0  0  0  0  0  0  0  0  0  0
   -4.7518   -0.1037   -0.6809 H   0  0  0  0  0  0  0  0  0  0  0  0
   -3.4093    0.6883   -1.5398 H   0  0  0  0  0  0  0  0  0  0  0  0
  1  2  1  0
  1  3  1  0
  3  4  1  0
  1  5  1  0
  5  6  1  0
  6  7  1  0
  7  8  1  0
  7  9  2  0
  7 10  1  0
 10 11  1  0
 11 12  1  0
 12 13  1  0
 13 14  1  0
 13 15  1  0
 13 16  1  0
  1 17  1  1
  2 18  1  0
  3 19  1  0
  3 20  1  0
  4 21  1  0
  5 22  1  0
  5 23  1  0
 11 24  1  0
 11 25  1  0
 12 26  1  0
 12 27  1  0
 14 28  1  0
 14 29  1  0
 14 30  1  0
 15 31  1  0
 15 32  1  0
 15 33  1  0
 16 34  1  0
 16 35  1  0
 16 36  1  0
M  CHG  2   8  -1  13   1
M  END
$$$$
