
     RDKit          3D

 41 44  0  0  0  0  0  0  0  0999 V2000
    7.8766   -0.6829    0.0897 F   0  0  0  0  0  0  0  0  0  0  0  0
    7.0757   -0.8425   -1.0256 C   0  0  0  0  0  0  0  0  0  0  0  0
    7.5832   -1.8702   -1.8019 F   0  0  0  0  0  0  0  0  0  0  0  0
    7.1082    0.3210   -1.7747 F   0  0  0  0  0  0  0  0  0  0  0  0
    5.6669   -1.1517   -0.5849 C   0  0  0  0  0  0  0  0  0  0  0  0
    4.7675   -0.1097   -0.2960 C   0  0  0  0  0  0  0  0  0  0  0  0
    3.4645   -0.3868    0.1463 C   0  0  0  0  0  0  0  0  0  0  0  0
    2.5738    0.7024    0.4400 N   0  0  0  0  0  0  0  0  0  0  0  0
    1.1527    0.6444    0.2498 C   0  0  0  0  0  0  0  0  0  0  0  0
    0.5034   -0.3190   -0.4445 N   0  0  0  0  0  0  0  0  0  0  0  0
   -0.7629    0.0055   -0.4583 O   0  0  0  0  0  0  0  0  0  0  0  0
   -0.9572    1.1333    0.1869 C   0  0  0  0  0  0  0  0  0  0  0  0
   -2.1519    1.8354    0.3888 C   0  0  0  0  0  0  0  0  0  0  0  0
   -3.4337    1.3199   -0.1389 C   0  0  0  0  0  0  0  0  0  0  0  0
   -4.2110    2.1072   -0.7433 O   0  0  0  0  0  0  0  0  0  0  0  0
   -3.7741   -0.0709    0.0009 N   0  0  0  0  0  0  0  0  0  0  0  0
   -5.0364   -0.6352   -0.3927 C   0  0  0  0  0  0  0  0  0  0  0  0
   -6.2461    0.0582   -0.2374 C   0  0  0  0  0  0  0  0  0  0  0  0
   -7.4169   -0.5295   -0.5963 N   0  0  0  0  0  0  0  0  0  0  0  0
   -7.4407   -1.7903   -1.0999 C   0  0  0  0  0  0  0  0  0  0  0  0
   -6.2851   -2.4900   -1.2370 N   0  0  0  0  0  0  0  0  0  0  0  0
   -5.0923   -1.9429   -0.8873 C   0  0  0  0  0  0  0  0  0  0  0  0
   -2.0631    3.0664    1.0953 C   0  0  0  0  0  0  0  0  0  0  0  0
   -3.4918    4.0309    1.4534 Cl  0  0  0  0  0  0  0  0  0  0  0  0
   -0.8119    3.5300    1.5699 C   0  0  0  0  0  0  0  0  0  0  0  0
    0.3617    2.7891    1.3492 C   0  0  0  0  0  0  0  0  0  0  0  0
    0.2416    1.5922    0.6526 C   0  0  0  0  0  0  0  0  0  0  0  0
    3.0804   -1.7227    0.3539 C   0  0  0  0  0  0  0  0  0  0  0  0
    3.9774   -2.7612    0.0962 C   0  0  0  0  0  0  0  0  0  0  0  0
    5.2649   -2.4803   -0.3660 C   0  0  0  0  0  0  0  0  0  0  0  0
    5.0746    0.9215   -0.4219 H   0  0  0  0  0  0  0  0  0  0  0  0
    2.9912    1.6184    0.7207 H   0  0  0  0  0  0  0  0  0  0  0  0
   -3.0488   -0.7283    0.3650 H   0  0  0  0  0  0  0  0  0  0  0  0
   -6.2688    1.0494    0.1935 H   0  0  0  0  0  0  0  0  0  0  0  0
   -8.3819   -2.2413   -1.3825 H   0  0  0  0  0  0  0  0  0  0  0  0
   -4.1858   -2.5224   -1.0042 H   0  0  0  0  0  0  0  0  0  0  0  0
   -0.7529    4.4638    2.1142 H   0  0  0  0  0  0  0  0  0  0  0  0
    1.3191    3.1410    1.7100 H   0  0  0  0  0  0  0  0  0  0  0  0
    2.1022   -1.9642    0.7472 H   0  0  0  0  0  0  0  0  0  0  0  0
    3.6786   -3.7871    0.2692 H   0  0  0  0  0  0  0  0  0  0  0  0
    5.9491   -3.3007   -0.5422 H   0  0  0  0  0  0  0  0  0  0  0  0
  1  2  1  0
  2  3  1  0
  2  4  1  0
  2  5  1  0
  5  6  2  0
  6  7  1  0
  7  8  1  0
  8  9  1  0
  9 10  2  0
 10 11  1  0
 11 12  1  0
 12 13  2  0
 13 14  1  0
 14 15  2  0
 14 16  1  0
 16 17  1  0
 17 18  2  0
 18 19  1  0
 19 20  2  0
 20 21  1  0
 21 22  2  0
 13 23  1  0
 23 24  1  0
 23 25  2  0
 25 26  1  0
 26 27  2  0
  7 28  2  0
 28 29  1  0
 29 30  2  0
 30  5  1  0
 27  9  1  0
 27 12  1  0
 22 17  1  0
  6 31  1  0
  8 32  1  0
 16 33  1  0
 18 34  1  0
 20 35  1  0
 22 36  1  0
 25 37  1  0
 26 38  1  0
 28 39  1  0
 29 40  1  0
 30 41  1  0
M  END
$$$$
