
     RDKit          3D

 43 46  0  0  0  0  0  0  0  0999 V2000
   -1.8107    0.5442   -2.7533 C   0  0  0  0  0  0  0  0  0  0  0  0
   -1.7294    1.0156   -1.3062 C   0  0  0  0  0  0  0  0  0  0  0  0
   -1.2376   -0.0620   -0.4433 N   0  0  0  0  0  0  0  0  0  0  0  0
   -1.8717   -1.2023   -0.0414 C   0  0  0  0  0  0  0  0  0  0  0  0
   -3.2530   -1.4859   -0.2967 N   0  0  0  0  0  0  0  0  0  0  0  0
   -4.3159   -0.5631   -0.0083 C   0  0  0  0  0  0  0  0  0  0  0  0
   -4.2052    0.3407    1.0650 C   0  0  0  0  0  0  0  0  0  0  0  0
   -5.2485    1.2230    1.3570 C   0  0  0  0  0  0  0  0  0  0  0  0
   -6.4142    1.2067    0.5891 C   0  0  0  0  0  0  0  0  0  0  0  0
   -6.5403    0.3066   -0.4715 C   0  0  0  0  0  0  0  0  0  0  0  0
   -5.5002   -0.5815   -0.7716 C   0  0  0  0  0  0  0  0  0  0  0  0
   -5.6902   -1.6773   -2.1341 Cl  0  0  0  0  0  0  0  0  0  0  0  0
   -1.0477   -2.1145    0.5444 N   0  0  0  0  0  0  0  0  0  0  0  0
    0.1428   -1.4909    0.5118 C   0  0  0  0  0  0  0  0  0  0  0  0
    0.0344   -0.2811   -0.0828 C   0  0  0  0  0  0  0  0  0  0  0  0
    1.1070    0.5145   -0.3135 N   0  0  0  0  0  0  0  0  0  0  0  0
    2.3358    0.0816    0.1056 C   0  0  0  0  0  0  0  0  0  0  0  0
    3.4900    0.8963   -0.1389 N   0  0  0  0  0  0  0  0  0  0  0  0
    4.7903    0.6087    0.3989 C   0  0  0  0  0  0  0  0  0  0  0  0
    5.9169    0.6768   -0.4380 C   0  0  0  0  0  0  0  0  0  0  0  0
    5.7758    0.9788   -1.7532 F   0  0  0  0  0  0  0  0  0  0  0  0
    7.1919    0.4143    0.0735 C   0  0  0  0  0  0  0  0  0  0  0  0
    7.3541    0.0987    1.4245 C   0  0  0  0  0  0  0  0  0  0  0  0
    6.2430    0.0544    2.2700 C   0  0  0  0  0  0  0  0  0  0  0  0
    4.9645    0.3147    1.7657 C   0  0  0  0  0  0  0  0  0  0  0  0
    3.9089    0.3256    2.6180 F   0  0  0  0  0  0  0  0  0  0  0  0
    2.4621   -1.1468    0.7105 N   0  0  0  0  0  0  0  0  0  0  0  0
    1.3815   -1.9533    0.9257 C   0  0  0  0  0  0  0  0  0  0  0  0
   -2.1579    1.3781   -3.3987 H   0  0  0  0  0  0  0  0  0  0  0  0
   -2.5283   -0.2987   -2.8425 H   0  0  0  0  0  0  0  0  0  0  0  0
   -0.8101    0.2115   -3.1023 H   0  0  0  0  0  0  0  0  0  0  0  0
   -1.0462    1.8903   -1.2460 H   0  0  0  0  0  0  0  0  0  0  0  0
   -2.7268    1.3607   -0.9719 H   0  0  0  0  0  0  0  0  0  0  0  0
   -3.5007   -2.4620   -0.5734 H   0  0  0  0  0  0  0  0  0  0  0  0
   -3.3137    0.3593    1.6788 H   0  0  0  0  0  0  0  0  0  0  0  0
   -5.1543    1.9175    2.1817 H   0  0  0  0  0  0  0  0  0  0  0  0
   -7.2213    1.8910    0.8167 H   0  0  0  0  0  0  0  0  0  0  0  0
   -7.4474    0.3017   -1.0625 H   0  0  0  0  0  0  0  0  0  0  0  0
    3.4021    1.6677   -0.8385 H   0  0  0  0  0  0  0  0  0  0  0  0
    8.0557    0.4566   -0.5773 H   0  0  0  0  0  0  0  0  0  0  0  0
    8.3421   -0.1015    1.8185 H   0  0  0  0  0  0  0  0  0  0  0  0
    6.3749   -0.1709    3.3205 H   0  0  0  0  0  0  0  0  0  0  0  0
    1.4974   -2.9234    1.3901 H   0  0  0  0  0  0  0  0  0  0  0  0
  1  2  1  0
  2  3  1  0
  3  4  1  0
  4  5  1  0
  5  6  1  0
  6  7  2  0
  7  8  1  0
  8  9  2  0
  9 10  1  0
 10 11  2  0
 11 12  1  0
  4 13  2  0
 13 14  1  0
 14 15  2  0
 15 16  1  0
 16 17  2  0
 17 18  1  0
 18 19  1  0
 19 20  2  0
 20 21  1  0
 20 22  1  0
 22 23  2  0
 23 24  1  0
 24 25  2  0
 25 26  1  0
 17 27  1  0
 27 28  2  0
 15  3  1  0
 25 19  1  0
 11  6  1  0
 28 14  1  0
  1 29  1  0
  1 30  1  0
  1 31  1  0
  2 32  1  0
  2 33  1  0
  5 34  1  0
  7 35  1  0
  8 36  1  0
  9 37  1  0
 10 38  1  0
 18 39  1  0
 22 40  1  0
 23 41  1  0
 24 42  1  0
 28 43  1  0
M  END
$$$$
