
     RDKit          3D

 40 43  0  0  0  0  0  0  0  0999 V2000
   -1.7762   -0.8162   -0.4472 C   0  0  2  0  0  0  0  0  0  0  0  0
   -2.9291   -0.7602   -1.4523 C   0  0  0  0  0  0  0  0  0  0  0  0
   -4.1693   -0.9436   -0.5572 C   0  0  0  0  0  0  0  0  0  0  0  0
   -3.6950   -0.5285    0.8053 C   0  0  0  0  0  0  0  0  0  0  0  0
   -4.4107   -0.5130    1.7948 O   0  0  0  0  0  0  0  0  0  0  0  0
   -2.2742   -0.0704    0.7932 C   0  0  2  0  0  0  0  0  0  0  0  0
   -2.2799    1.4753    0.6392 C   0  0  0  0  0  0  0  0  0  0  0  0
   -1.3953   -0.5023    1.9923 C   0  0  0  0  0  0  0  0  0  0  0  0
    0.1077   -0.1950    1.7230 C   0  0  0  0  0  0  0  0  0  0  0  0
    0.6166   -0.7267    0.3479 C   0  0  2  0  0  0  0  0  0  0  0  0
    2.0341   -0.2769    0.0652 C   0  0  0  0  0  0  0  0  0  0  0  0
    2.3385    0.5674   -1.0241 C   0  0  0  0  0  0  0  0  0  0  0  0
    1.2687    1.0975   -1.9414 C   0  0  0  0  0  0  0  0  0  0  0  0
   -0.0650    0.4209   -1.7961 C   0  0  0  0  0  0  0  0  0  0  0  0
   -0.3699   -0.3800   -0.7603 C   0  0  0  0  0  0  0  0  0  0  0  0
    3.6682    0.9625   -1.2452 C   0  0  0  0  0  0  0  0  0  0  0  0
    4.6946    0.5063   -0.4146 C   0  0  0  0  0  0  0  0  0  0  0  0
    6.0062    0.9084   -0.6572 O   0  0  0  0  0  0  0  0  0  0  0  0
    4.3967   -0.3497    0.6501 C   0  0  0  0  0  0  0  0  0  0  0  0
    3.0777   -0.7407    0.8866 C   0  0  0  0  0  0  0  0  0  0  0  0
   -1.6899   -1.9035   -0.1983 H   0  0  0  0  0  0  0  0  0  0  0  0
   -2.9794    0.2250   -1.9621 H   0  0  0  0  0  0  0  0  0  0  0  0
   -2.8501   -1.5695   -2.2102 H   0  0  0  0  0  0  0  0  0  0  0  0
   -4.4823   -2.0096   -0.5355 H   0  0  0  0  0  0  0  0  0  0  0  0
   -5.0087   -0.3007   -0.8983 H   0  0  0  0  0  0  0  0  0  0  0  0
   -2.6473    1.9480    1.5752 H   0  0  0  0  0  0  0  0  0  0  0  0
   -1.2707    1.8797    0.4241 H   0  0  0  0  0  0  0  0  0  0  0  0
   -2.9471    1.8010   -0.1871 H   0  0  0  0  0  0  0  0  0  0  0  0
   -1.7205    0.0265    2.9144 H   0  0  0  0  0  0  0  0  0  0  0  0
   -1.5143   -1.5929    2.1773 H   0  0  0  0  0  0  0  0  0  0  0  0
    0.7033   -0.6554    2.5401 H   0  0  0  0  0  0  0  0  0  0  0  0
    0.2795    0.9009    1.7852 H   0  0  0  0  0  0  0  0  0  0  0  0
    0.6411   -1.8376    0.4134 H   0  0  0  0  0  0  0  0  0  0  0  0
    1.1332    2.1813   -1.7400 H   0  0  0  0  0  0  0  0  0  0  0  0
    1.6002    0.9816   -2.9957 H   0  0  0  0  0  0  0  0  0  0  0  0
   -0.8284    0.6934   -2.5155 H   0  0  0  0  0  0  0  0  0  0  0  0
    3.9082    1.6254   -2.0681 H   0  0  0  0  0  0  0  0  0  0  0  0
    6.7729    0.5948   -0.0734 H   0  0  0  0  0  0  0  0  0  0  0  0
    5.1864   -0.7133    1.2953 H   0  0  0  0  0  0  0  0  0  0  0  0
    2.8696   -1.4101    1.7119 H   0  0  0  0  0  0  0  0  0  0  0  0
  1  2  1  0
  2  3  1  0
  3  4  1  0
  4  5  2  0
  4  6  1  0
  6  7  1  6
  6  8  1  0
  8  9  1  0
  9 10  1  0
 10 11  1  0
 11 12  2  0
 12 13  1  0
 13 14  1  0
 14 15  2  0
 12 16  1  0
 16 17  2  0
 17 18  1  0
 17 19  1  0
 19 20  2  0
  6  1  1  0
 15 10  1  0
 15  1  1  0
 20 11  1  0
  1 21  1  1
  2 22  1  0
  2 23  1  0
  3 24  1  0
  3 25  1  0
  7 26  1  0
  7 27  1  0
  7 28  1  0
  8 29  1  0
  8 30  1  0
  9 31  1  0
  9 32  1  0
 10 33  1  1
 13 34  1  0
 13 35  1  0
 14 36  1  0
 16 37  1  0
 18 38  1  0
 19 39  1  0
 20 40  1  0
M  END
$$$$
