
     RDKit          3D

 51 53  0  0  0  0  0  0  0  0999 V2000
   -4.4672    0.7277    0.4493 C   0  0  0  0  0  0  0  0  0  0  0  0
   -3.5263    1.0359   -0.6598 N   0  0  0  0  0  4  0  0  0  0  0  0
   -3.8178    2.4188   -1.1146 C   0  0  0  0  0  0  0  0  0  0  0  0
   -3.7404    0.0868   -1.8084 C   0  0  0  0  0  0  0  0  0  0  0  0
   -2.6518   -0.9955   -1.9579 C   0  0  0  0  0  0  0  0  0  0  0  0
   -2.2084   -1.5250   -0.5991 C   0  0  0  0  0  0  0  0  0  0  0  0
   -1.6613   -0.3968    0.3033 C   0  0  0  0  0  0  0  0  0  0  0  0
   -2.1213    1.0061   -0.1590 C   0  0  0  0  0  0  0  0  0  0  0  0
   -0.2335   -0.4161    0.3163 O   0  0  0  0  0  0  0  0  0  0  0  0
    0.5275   -1.3806    0.9892 C   0  0  0  0  0  0  0  0  0  0  0  0
   -0.0404   -2.2861    1.6610 O   0  0  0  0  0  0  0  0  0  0  0  0
    2.0371   -1.2906    0.9543 C   0  0  0  0  0  0  0  0  0  0  0  0
    2.5659   -2.5037    1.4422 O   0  0  0  0  0  0  0  0  0  0  0  0
    2.4102   -0.1215    1.8744 C   0  0  0  0  0  0  0  0  0  0  0  0
    2.8619   -0.3429    3.1930 C   0  0  0  0  0  0  0  0  0  0  0  0
    3.1505    0.7340    4.0368 C   0  0  0  0  0  0  0  0  0  0  0  0
    2.9736    2.0440    3.5891 C   0  0  0  0  0  0  0  0  0  0  0  0
    2.4979    2.2816    2.2990 C   0  0  0  0  0  0  0  0  0  0  0  0
    2.2078    1.2101    1.4503 C   0  0  0  0  0  0  0  0  0  0  0  0
    2.5539   -1.0970   -0.4826 C   0  0  0  0  0  0  0  0  0  0  0  0
    3.8106   -0.4952   -0.7151 C   0  0  0  0  0  0  0  0  0  0  0  0
    4.3154   -0.3697   -2.0123 C   0  0  0  0  0  0  0  0  0  0  0  0
    3.5961   -0.8735   -3.0961 C   0  0  0  0  0  0  0  0  0  0  0  0
    2.3794   -1.5218   -2.8830 C   0  0  0  0  0  0  0  0  0  0  0  0
    1.8698   -1.6515   -1.5880 C   0  0  0  0  0  0  0  0  0  0  0  0
   -4.3747   -0.3243    0.7877 H   0  0  0  0  0  0  0  0  0  0  0  0
   -4.2850    1.3867    1.3278 H   0  0  0  0  0  0  0  0  0  0  0  0
   -5.5238    0.8736    0.1299 H   0  0  0  0  0  0  0  0  0  0  0  0
   -3.7137    3.1497   -0.2808 H   0  0  0  0  0  0  0  0  0  0  0  0
   -4.8549    2.4985   -1.5125 H   0  0  0  0  0  0  0  0  0  0  0  0
   -3.1204    2.7299   -1.9250 H   0  0  0  0  0  0  0  0  0  0  0  0
   -4.7264   -0.4260   -1.7268 H   0  0  0  0  0  0  0  0  0  0  0  0
   -3.7808    0.6224   -2.7850 H   0  0  0  0  0  0  0  0  0  0  0  0
   -3.0438   -1.8339   -2.5735 H   0  0  0  0  0  0  0  0  0  0  0  0
   -1.7714   -0.5731   -2.4912 H   0  0  0  0  0  0  0  0  0  0  0  0
   -1.4419   -2.3138   -0.7530 H   0  0  0  0  0  0  0  0  0  0  0  0
   -3.0725   -2.0193   -0.1053 H   0  0  0  0  0  0  0  0  0  0  0  0
   -2.0282   -0.5566    1.3421 H   0  0  0  0  0  0  0  0  0  0  0  0
   -1.9868    1.7174    0.6885 H   0  0  0  0  0  0  0  0  0  0  0  0
   -1.4307    1.3509   -0.9640 H   0  0  0  0  0  0  0  0  0  0  0  0
    3.5574   -2.4367    1.4186 H   0  0  0  0  0  0  0  0  0  0  0  0
    2.9875   -1.3456    3.5796 H   0  0  0  0  0  0  0  0  0  0  0  0
    3.5047    0.5515    5.0432 H   0  0  0  0  0  0  0  0  0  0  0  0
    3.1955    2.8752    4.2459 H   0  0  0  0  0  0  0  0  0  0  0  0
    2.3477    3.2975    1.9573 H   0  0  0  0  0  0  0  0  0  0  0  0
    1.8249    1.4194    0.4593 H   0  0  0  0  0  0  0  0  0  0  0  0
    4.4074   -0.1235    0.1079 H   0  0  0  0  0  0  0  0  0  0  0  0
    5.2719    0.1100   -2.1757 H   0  0  0  0  0  0  0  0  0  0  0  0
    3.9906   -0.7781   -4.0995 H   0  0  0  0  0  0  0  0  0  0  0  0
    1.8349   -1.9362   -3.7216 H   0  0  0  0  0  0  0  0  0  0  0  0
    0.9434   -2.1933   -1.4564 H   0  0  0  0  0  0  0  0  0  0  0  0
  1  2  1  0
  2  3  1  0
  2  4  1  0
  4  5  1  0
  5  6  1  0
  6  7  1  0
  7  8  1  0
  7  9  1  0
  9 10  1  0
 10 11  2  0
 10 12  1  0
 12 13  1  0
 12 14  1  0
 14 15  2  0
 15 16  1  0
 16 17  2  0
 17 18  1  0
 18 19  2  0
 12 20  1  0
 20 21  2  0
 21 22  1  0
 22 23  2  0
 23 24  1  0
 24 25  2  0
  8  2  1  0
 19 14  1  0
 25 20  1  0
  1 26  1  0
  1 27  1  0
  1 28  1  0
  3 29  1  0
  3 30  1  0
  3 31  1  0
  4 32  1  0
  4 33  1  0
  5 34  1  0
  5 35  1  0
  6 36  1  0
  6 37  1  0
  7 38  1  0
  8 39  1  0
  8 40  1  0
 13 41  1  0
 15 42  1  0
 16 43  1  0
 17 44  1  0
 18 45  1  0
 19 46  1  0
 21 47  1  0
 22 48  1  0
 23 49  1  0
 24 50  1  0
 25 51  1  0
M  CHG  1   2   1
M  END
$$$$
