
     RDKit          3D

 33 35  0  0  0  0  0  0  0  0999 V2000
    4.6733   -2.3807   -2.4963 O   0  0  0  0  0  0  0  0  0  0  0  0
    3.2856   -2.3537   -2.5895 C   0  0  0  0  0  0  0  0  0  0  0  0
    2.7317   -2.2019   -3.7110 O   0  0  0  0  0  0  0  0  0  0  0  0
    2.4548   -2.4574   -1.3501 C   0  0  0  0  0  0  0  0  0  0  0  0
    2.3301   -1.1365   -0.7132 N   0  0  0  0  0  0  0  0  0  0  0  0
    3.2313   -0.7794    0.2460 C   0  0  0  0  0  0  0  0  0  0  0  0
    3.1519    0.4623    0.8589 C   0  0  0  0  0  0  0  0  0  0  0  0
    2.1497    1.3432    0.4677 C   0  0  0  0  0  0  0  0  0  0  0  0
    2.0699    2.4660    1.0377 O   0  0  0  0  0  0  0  0  0  0  0  0
    1.2673    0.9913   -0.5217 N   0  0  0  0  0  0  0  0  0  0  0  0
    0.1927    1.9212   -0.9210 C   0  0  0  0  0  0  0  0  0  0  0  0
   -1.0415    1.6534   -0.1207 C   0  0  0  0  0  0  0  0  0  0  0  0
   -1.9730    0.7361   -0.4799 N   0  0  0  0  0  0  0  0  0  0  0  0
   -2.9518    0.6466    0.4560 C   0  0  0  0  0  0  0  0  0  0  0  0
   -4.0520   -0.2078    0.3672 C   0  0  0  0  0  0  0  0  0  0  0  0
   -4.9939   -0.2082    1.4123 C   0  0  0  0  0  0  0  0  0  0  0  0
   -6.3873   -1.2700    1.3297 Cl  0  0  0  0  0  0  0  0  0  0  0  0
   -4.8223    0.6397    2.5265 C   0  0  0  0  0  0  0  0  0  0  0  0
   -3.7101    1.4929    2.6047 C   0  0  0  0  0  0  0  0  0  0  0  0
   -2.7947    1.4745    1.5561 C   0  0  0  0  0  0  0  0  0  0  0  0
   -1.3836    2.3645    1.3789 S   0  0  0  0  0  0  0  0  0  0  0  0
    1.3551   -0.2520   -1.1030 C   0  0  0  0  0  0  0  0  0  0  0  0
    0.5320   -0.5852   -2.0026 O   0  0  0  0  0  0  0  0  0  0  0  0
    5.2512   -2.2947   -3.3238 H   0  0  0  0  0  0  0  0  0  0  0  0
    1.4528   -2.8732   -1.5954 H   0  0  0  0  0  0  0  0  0  0  0  0
    2.9280   -3.1862   -0.6554 H   0  0  0  0  0  0  0  0  0  0  0  0
    4.0184   -1.4610    0.5470 H   0  0  0  0  0  0  0  0  0  0  0  0
    3.8615    0.7351    1.6306 H   0  0  0  0  0  0  0  0  0  0  0  0
    0.5042    2.9791   -0.7822 H   0  0  0  0  0  0  0  0  0  0  0  0
   -0.0371    1.8191   -2.0039 H   0  0  0  0  0  0  0  0  0  0  0  0
   -4.1762   -0.8574   -0.4901 H   0  0  0  0  0  0  0  0  0  0  0  0
   -5.5491    0.6351    3.3286 H   0  0  0  0  0  0  0  0  0  0  0  0
   -3.5690    2.1451    3.4567 H   0  0  0  0  0  0  0  0  0  0  0  0
  1  2  1  0
  2  3  2  0
  2  4  1  0
  4  5  1  0
  5  6  1  0
  6  7  2  0
  7  8  1  0
  8  9  2  0
  8 10  1  0
 10 11  1  0
 11 12  1  0
 12 13  2  0
 13 14  1  0
 14 15  2  0
 15 16  1  0
 16 17  1  0
 16 18  2  0
 18 19  1  0
 19 20  2  0
 20 21  1  0
 10 22  1  0
 22 23  2  0
 22  5  1  0
 21 12  1  0
 20 14  1  0
  1 24  1  0
  4 25  1  0
  4 26  1  0
  6 27  1  0
  7 28  1  0
 11 29  1  0
 11 30  1  0
 15 31  1  0
 18 32  1  0
 19 33  1  0
M  END
$$$$
