
     RDKit          3D

 32 34  0  0  0  0  0  0  0  0999 V2000
    2.8366   -1.6020   -0.7779 N   0  0  0  0  0  0  0  0  0  0  0  0
    1.5665   -1.3687   -1.1870 C   0  0  0  0  0  0  0  0  0  0  0  0
    1.0257   -0.2606   -0.5243 C   0  0  0  0  0  0  0  0  0  0  0  0
   -0.3128    0.3987   -0.7554 C   0  0  2  0  0  0  0  0  0  0  0  0
   -0.8728    0.7976    0.4757 O   0  0  0  0  0  0  0  0  0  0  0  0
   -2.2734    0.6202    0.3975 C   0  0  2  0  0  0  0  0  0  0  0  0
   -2.7257   -0.3175    1.5265 C   0  0  0  0  0  0  0  0  0  0  0  0
   -2.3592    0.2055    2.7747 O   0  0  0  0  0  0  0  0  0  0  0  0
   -2.6354    0.0536   -0.9808 C   0  0  1  0  0  0  0  0  0  0  0  0
   -3.0623    1.0870   -1.8330 O   0  0  0  0  0  0  0  0  0  0  0  0
   -1.3190   -0.5070   -1.4530 C   0  0  1  0  0  0  0  0  0  0  0  0
   -1.1787   -0.4405   -2.8488 O   0  0  0  0  0  0  0  0  0  0  0  0
    2.0502    0.1926    0.2864 C   0  0  0  0  0  0  0  0  0  0  0  0
    3.1134   -0.6401    0.1176 C   0  0  0  0  0  0  0  0  0  0  0  0
    4.2968   -0.4002    0.8046 C   0  0  0  0  0  0  0  0  0  0  0  0
    5.2986   -1.1501    0.6673 O   0  0  0  0  0  0  0  0  0  0  0  0
    4.3475    0.6809    1.6357 N   0  0  0  0  0  0  0  0  0  0  0  0
    3.2692    1.5137    1.7863 C   0  0  0  0  0  0  0  0  0  0  0  0
    2.1087    1.2768    1.1022 N   0  0  0  0  0  0  0  0  0  0  0  0
    3.4743   -2.3573   -1.1146 H   0  0  0  0  0  0  0  0  0  0  0  0
    1.0675   -1.9616   -1.9421 H   0  0  0  0  0  0  0  0  0  0  0  0
   -0.1433    1.3106   -1.3714 H   0  0  0  0  0  0  0  0  0  0  0  0
   -2.7671    1.6062    0.5468 H   0  0  0  0  0  0  0  0  0  0  0  0
   -3.8289   -0.4677    1.4839 H   0  0  0  0  0  0  0  0  0  0  0  0
   -2.2405   -1.3097    1.4040 H   0  0  0  0  0  0  0  0  0  0  0  0
   -2.9930    0.9442    2.9705 H   0  0  0  0  0  0  0  0  0  0  0  0
   -3.4063   -0.7522   -0.9387 H   0  0  0  0  0  0  0  0  0  0  0  0
   -4.0073    1.2759   -1.5947 H   0  0  0  0  0  0  0  0  0  0  0  0
   -1.2174   -1.5585   -1.0919 H   0  0  0  0  0  0  0  0  0  0  0  0
   -1.7505   -1.1612   -3.2216 H   0  0  0  0  0  0  0  0  0  0  0  0
    3.3417    2.3673    2.4473 H   0  0  0  0  0  0  0  0  0  0  0  0
    1.2970    1.9242    1.2082 H   0  0  0  0  0  0  0  0  0  0  0  0
  1  2  1  0
  2  3  2  0
  3  4  1  0
  4  5  1  0
  5  6  1  0
  6  7  1  0
  7  8  1  0
  6  9  1  0
  9 10  1  0
  9 11  1  0
 11 12  1  0
  3 13  1  0
 13 14  2  0
 14 15  1  0
 15 16  2  0
 15 17  1  0
 17 18  2  0
 18 19  1  0
 14  1  1  0
 11  4  1  0
 19 13  1  0
  1 20  1  0
  2 21  1  0
  4 22  1  6
  6 23  1  1
  7 24  1  0
  7 25  1  0
  8 26  1  0
  9 27  1  1
 10 28  1  0
 11 29  1  1
 12 30  1  0
 18 31  1  0
 19 32  1  0
M  END
$$$$
