
     RDKit          3D

 23 25  0  0  0  0  0  0  0  0999 V2000
    4.9553    1.1804   -0.7783 Cl  0  0  0  0  0  0  0  0  0  0  0  0
    3.4199    0.4849   -0.2738 C   0  0  0  0  0  0  0  0  0  0  0  0
    3.4360   -0.6405    0.5544 C   0  0  0  0  0  0  0  0  0  0  0  0
    2.2418   -1.2226    0.9771 C   0  0  0  0  0  0  0  0  0  0  0  0
    1.0149   -0.6873    0.5773 C   0  0  0  0  0  0  0  0  0  0  0  0
   -0.1957   -1.3113    1.0307 N   0  0  0  0  0  0  0  0  0  0  0  0
   -1.3460   -0.8390    0.6776 C   0  0  0  0  0  0  0  0  0  0  0  0
   -2.5879   -1.3843    1.0730 N   0  0  0  0  0  0  0  0  0  0  0  0
   -3.5378   -0.5324    0.4416 C   0  0  0  0  0  0  0  0  0  0  0  0
   -4.7814   -0.6919    0.5530 O   0  0  0  0  0  0  0  0  0  0  0  0
   -2.8937    0.5620   -0.3607 C   0  0  0  0  0  0  0  0  0  0  0  0
   -1.4745    0.2958   -0.1581 N   0  0  0  0  0  0  0  0  0  0  0  0
   -0.3486    1.0465   -0.7051 C   0  0  0  0  0  0  0  0  0  0  0  0
    0.9803    0.4558   -0.2641 C   0  0  0  0  0  0  0  0  0  0  0  0
    2.1947    1.0393   -0.6877 C   0  0  0  0  0  0  0  0  0  0  0  0
    2.1869    2.4615   -1.7344 Cl  0  0  0  0  0  0  0  0  0  0  0  0
    4.3787   -1.0672    0.8730 H   0  0  0  0  0  0  0  0  0  0  0  0
    2.2704   -2.0944    1.6188 H   0  0  0  0  0  0  0  0  0  0  0  0
   -2.7667   -2.2132    1.6821 H   0  0  0  0  0  0  0  0  0  0  0  0
   -3.1564    0.4708   -1.4358 H   0  0  0  0  0  0  0  0  0  0  0  0
   -3.1635    1.5601    0.0443 H   0  0  0  0  0  0  0  0  0  0  0  0
   -0.4100    1.0277   -1.8141 H   0  0  0  0  0  0  0  0  0  0  0  0
   -0.4169    2.0994   -0.3579 H   0  0  0  0  0  0  0  0  0  0  0  0
  1  2  1  0
  2  3  2  0
  3  4  1  0
  4  5  2  0
  5  6  1  0
  6  7  2  0
  7  8  1  0
  8  9  1  0
  9 10  2  0
  9 11  1  0
 11 12  1  0
 12 13  1  0
 13 14  1  0
 14 15  2  0
 15 16  1  0
 15  2  1  0
 14  5  1  0
 12  7  1  0
  3 17  1  0
  4 18  1  0
  8 19  1  0
 11 20  1  0
 11 21  1  0
 13 22  1  0
 13 23  1  0
M  END
$$$$
