
     RDKit          3D

121123  0  0  0  0  0  0  0  0999 V2000
   -1.9645    2.3768   -0.1469 C   0  0  1  0  0  0  0  0  0  0  0  0
   -2.8157    3.6517    0.0911 C   0  0  0  0  0  0  0  0  0  0  0  0
   -2.5347    4.7551   -0.9538 C   0  0  1  0  0  0  0  0  0  0  0  0
   -3.0065    4.2422   -2.3479 C   0  0  0  0  0  0  0  0  0  0  0  0
   -3.2894    5.8946   -0.5359 O   0  0  0  0  0  0  0  0  0  0  0  0
   -3.3065    6.9492   -1.4806 C   0  0  0  0  0  0  0  0  0  0  0  0
   -0.9910    5.0528   -0.9465 C   0  0  1  0  0  0  0  0  0  0  0  0
   -0.6846    6.1769   -0.1555 O   0  0  0  0  0  0  0  0  0  0  0  0
   -0.1516    3.8355   -0.4617 C   0  0  2  0  0  0  0  0  0  0  0  0
    1.2656    3.8956   -1.0330 C   0  0  0  0  0  0  0  0  0  0  0  0
   -0.7581    2.6221   -0.8613 O   0  0  0  0  0  0  0  0  0  0  0  0
   -1.6843    1.7582    1.1010 O   0  0  0  0  0  0  0  0  0  0  0  0
   -1.4203    0.3598    0.9842 C   0  0  1  0  0  0  0  0  0  0  0  0
    0.0582    0.0247    1.4251 C   0  0  2  0  0  0  0  0  0  0  0  0
    0.5623    1.0659    2.4516 C   0  0  0  0  0  0  0  0  0  0  0  0
    1.1078   -0.1382    0.2436 C   0  0  1  0  0  0  0  0  0  0  0  0
    2.3868   -0.3958    0.8258 O   0  0  0  0  0  0  0  0  0  0  0  0
    3.2879    0.6978    0.7131 C   0  0  2  0  0  0  0  0  0  0  0  0
    3.6472    0.8772   -0.6440 O   0  0  0  0  0  0  0  0  0  0  0  0
    4.7383    1.7632   -0.8793 C   0  0  2  0  0  0  0  0  0  0  0  0
    5.8138    1.0004   -1.6532 C   0  0  0  0  0  0  0  0  0  0  0  0
    5.3197    2.5178    0.3562 C   0  0  0  0  0  0  0  0  0  0  0  0
    5.3749    1.6910    1.6686 C   0  0  1  0  0  0  0  0  0  0  0  0
    4.5296    0.3986    1.5718 C   0  0  1  0  0  0  0  0  0  0  0  0
    4.1291    0.0014    2.8597 O   0  0  0  0  0  0  0  0  0  0  0  0
    6.7697    1.5062    2.1641 N   0  0  0  0  0  0  0  0  0  0  0  0
    7.6433    0.6803    1.3133 C   0  0  0  0  0  0  0  0  0  0  0  0
    6.8220    1.0367    3.5590 C   0  0  0  0  0  0  0  0  0  0  0  0
    0.8293   -1.3006   -0.8208 C   0  0  1  0  0  0  0  0  0  0  0  0
    2.0916   -1.5348   -1.7095 C   0  0  0  0  0  0  0  0  0  0  0  0
    0.5372   -2.6390   -0.0571 C   0  0  0  0  0  0  0  0  0  0  0  0
    0.3262   -3.9407   -0.8918 C   0  0  1  0  0  0  0  0  0  0  0  0
    0.4363   -5.1502    0.0563 C   0  0  0  0  0  0  0  0  0  0  0  0
   -0.9576   -3.9462   -1.7428 C   0  0  0  0  0  0  0  0  0  0  0  0
   -0.9428   -3.3387   -2.8034 O   0  0  0  0  0  0  0  0  0  0  0  0
   -2.1953   -4.7878   -1.4165 C   0  0  2  0  0  0  0  0  0  0  0  0
   -2.1076   -6.0911   -2.2367 C   0  0  0  0  0  0  0  0  0  0  0  0
   -3.5785   -4.0963   -1.7181 C   0  0  1  0  0  0  0  0  0  0  0  0
   -4.6106   -5.0171   -1.4491 O   0  0  0  0  0  0  0  0  0  0  0  0
   -3.9228   -2.7268   -1.0112 C   0  0  2  0  0  0  0  0  0  0  0  0
   -5.0524   -2.0504   -1.8222 C   0  0  0  0  0  0  0  0  0  0  0  0
   -2.8310   -1.8663   -1.1047 O   0  0  0  0  0  0  0  0  0  0  0  0
   -4.4288   -2.8436    0.4838 C   0  0  1  0  0  0  0  0  0  0  0  0
   -3.6184   -3.7686    1.4213 C   0  0  0  0  0  0  0  0  0  0  0  0
   -4.0940   -3.6971    2.8714 C   0  0  0  0  0  0  0  0  0  0  0  0
   -4.7004   -1.5532    1.0724 O   0  0  0  0  0  0  0  0  0  0  0  0
   -3.8608   -0.4233    1.1599 C   0  0  0  0  0  0  0  0  0  0  0  0
   -4.3593    0.6936    0.8614 O   0  0  0  0  0  0  0  0  0  0  0  0
   -2.4846   -0.4541    1.8038 C   0  0  2  0  0  0  0  0  0  0  0  0
   -2.6060    0.0167    3.2621 C   0  0  0  0  0  0  0  0  0  0  0  0
   -0.3103   -1.0070   -1.6245 O   0  0  0  0  0  0  0  0  0  0  0  0
   -0.1033   -0.0605   -2.6580 C   0  0  0  0  0  0  0  0  0  0  0  0
   -2.5992    1.7227   -0.7880 H   0  0  0  0  0  0  0  0  0  0  0  0
   -3.8969    3.3888    0.0927 H   0  0  0  0  0  0  0  0  0  0  0  0
   -2.5898    4.0563    1.1035 H   0  0  0  0  0  0  0  0  0  0  0  0
   -2.7719    4.9714   -3.1511 H   0  0  0  0  0  0  0  0  0  0  0  0
   -4.1039    4.0694   -2.3410 H   0  0  0  0  0  0  0  0  0  0  0  0
   -2.5043    3.2953   -2.6325 H   0  0  0  0  0  0  0  0  0  0  0  0
   -2.3295    7.1047   -1.9860 H   0  0  0  0  0  0  0  0  0  0  0  0
   -3.5556    7.8907   -0.9500 H   0  0  0  0  0  0  0  0  0  0  0  0
   -4.1028    6.7735   -2.2343 H   0  0  0  0  0  0  0  0  0  0  0  0
   -0.6853    5.3009   -1.9874 H   0  0  0  0  0  0  0  0  0  0  0  0
   -0.9982    5.9905    0.7679 H   0  0  0  0  0  0  0  0  0  0  0  0
   -0.0524    3.8615    0.6483 H   0  0  0  0  0  0  0  0  0  0  0  0
    1.8759    3.0706   -0.6176 H   0  0  0  0  0  0  0  0  0  0  0  0
    1.2441    3.7966   -2.1393 H   0  0  0  0  0  0  0  0  0  0  0  0
    1.7514    4.8568   -0.7610 H   0  0  0  0  0  0  0  0  0  0  0  0
   -1.5430    0.0146   -0.0456 H   0  0  0  0  0  0  0  0  0  0  0  0
    0.0585   -0.9275    1.9931 H   0  0  0  0  0  0  0  0  0  0  0  0
    1.4889    0.7125    2.9487 H   0  0  0  0  0  0  0  0  0  0  0  0
    0.7584    2.0399    1.9604 H   0  0  0  0  0  0  0  0  0  0  0  0
   -0.1758    1.2459    3.2550 H   0  0  0  0  0  0  0  0  0  0  0  0
    1.0967    0.8278   -0.2996 H   0  0  0  0  0  0  0  0  0  0  0  0
    2.8126    1.6286    1.0913 H   0  0  0  0  0  0  0  0  0  0  0  0
    4.3682    2.5486   -1.5747 H   0  0  0  0  0  0  0  0  0  0  0  0
    5.3936    0.6443   -2.6179 H   0  0  0  0  0  0  0  0  0  0  0  0
    6.1500    0.1112   -1.0828 H   0  0  0  0  0  0  0  0  0  0  0  0
    6.6813    1.6567   -1.8775 H   0  0  0  0  0  0  0  0  0  0  0  0
    6.3109    2.9593    0.1169 H   0  0  0  0  0  0  0  0  0  0  0  0
    4.6573    3.3961    0.5317 H   0  0  0  0  0  0  0  0  0  0  0  0
    4.8550    2.3339    2.4182 H   0  0  0  0  0  0  0  0  0  0  0  0
    5.1017   -0.4164    1.0775 H   0  0  0  0  0  0  0  0  0  0  0  0
    3.9713   -0.9784    2.8281 H   0  0  0  0  0  0  0  0  0  0  0  0
    7.2884   -0.3680    1.2437 H   0  0  0  0  0  0  0  0  0  0  0  0
    8.6714    0.6617    1.7350 H   0  0  0  0  0  0  0  0  0  0  0  0
    7.7419    1.1244    0.3058 H   0  0  0  0  0  0  0  0  0  0  0  0
    6.1341    1.6262    4.2023 H   0  0  0  0  0  0  0  0  0  0  0  0
    7.8464    1.1799    3.9641 H   0  0  0  0  0  0  0  0  0  0  0  0
    6.5629   -0.0418    3.6318 H   0  0  0  0  0  0  0  0  0  0  0  0
    2.9211   -1.9885   -1.1256 H   0  0  0  0  0  0  0  0  0  0  0  0
    1.8579   -2.2012   -2.5647 H   0  0  0  0  0  0  0  0  0  0  0  0
    2.4602   -0.5902   -2.1527 H   0  0  0  0  0  0  0  0  0  0  0  0
   -0.3448   -2.5328    0.5953 H   0  0  0  0  0  0  0  0  0  0  0  0
    1.3915   -2.8104    0.6357 H   0  0  0  0  0  0  0  0  0  0  0  0
    1.1774   -4.0656   -1.5914 H   0  0  0  0  0  0  0  0  0  0  0  0
    0.3074   -6.1043   -0.4892 H   0  0  0  0  0  0  0  0  0  0  0  0
    1.4490   -5.1803    0.5129 H   0  0  0  0  0  0  0  0  0  0  0  0
   -0.3017   -5.0850    0.8834 H   0  0  0  0  0  0  0  0  0  0  0  0
   -2.1651   -5.0867   -0.3598 H   0  0  0  0  0  0  0  0  0  0  0  0
   -2.2577   -5.8848   -3.3184 H   0  0  0  0  0  0  0  0  0  0  0  0
   -2.8795   -6.8160   -1.9018 H   0  0  0  0  0  0  0  0  0  0  0  0
   -1.1221   -6.5834   -2.1218 H   0  0  0  0  0  0  0  0  0  0  0  0
   -3.5499   -3.8931   -2.8175 H   0  0  0  0  0  0  0  0  0  0  0  0
   -5.2758   -4.9480   -2.1828 H   0  0  0  0  0  0  0  0  0  0  0  0
   -5.2911   -1.0481   -1.4068 H   0  0  0  0  0  0  0  0  0  0  0  0
   -4.7437   -1.8999   -2.8793 H   0  0  0  0  0  0  0  0  0  0  0  0
   -5.9805   -2.6605   -1.8102 H   0  0  0  0  0  0  0  0  0  0  0  0
   -2.2044   -2.1408   -0.4003 H   0  0  0  0  0  0  0  0  0  0  0  0
   -5.4226   -3.3420    0.4269 H   0  0  0  0  0  0  0  0  0  0  0  0
   -3.7773   -4.8194    1.1010 H   0  0  0  0  0  0  0  0  0  0  0  0
   -2.5319   -3.5686    1.3757 H   0  0  0  0  0  0  0  0  0  0  0  0
   -3.5492   -4.4512    3.4777 H   0  0  0  0  0  0  0  0  0  0  0  0
   -3.8944   -2.6982    3.3029 H   0  0  0  0  0  0  0  0  0  0  0  0
   -5.1822   -3.9117    2.9326 H   0  0  0  0  0  0  0  0  0  0  0  0
   -2.1512   -1.5011    1.8435 H   0  0  0  0  0  0  0  0  0  0  0  0
   -3.4877   -0.4455    3.7535 H   0  0  0  0  0  0  0  0  0  0  0  0
   -2.7263    1.1188    3.3223 H   0  0  0  0  0  0  0  0  0  0  0  0
   -1.7141   -0.2959    3.8429 H   0  0  0  0  0  0  0  0  0  0  0  0
   -1.0836    0.3867   -2.9216 H   0  0  0  0  0  0  0  0  0  0  0  0
    0.2834   -0.5694   -3.5656 H   0  0  0  0  0  0  0  0  0  0  0  0
    0.5711    0.7731   -2.3809 H   0  0  0  0  0  0  0  0  0  0  0  0
  1  2  1  0
  2  3  1  0
  3  4  1  0
  3  5  1  1
  5  6  1  0
  3  7  1  0
  7  8  1  0
  7  9  1  0
  9 10  1  0
  9 11  1  0
  1 12  1  0
 12 13  1  0
 13 14  1  0
 14 15  1  0
 14 16  1  0
 16 17  1  0
 17 18  1  0
 18 19  1  0
 19 20  1  0
 20 21  1  0
 20 22  1  0
 22 23  1  0
 23 24  1  0
 24 25  1  0
 23 26  1  0
 26 27  1  0
 26 28  1  0
 16 29  1  0
 29 30  1  0
 29 31  1  0
 31 32  1  0
 32 33  1  0
 32 34  1  0
 34 35  2  0
 34 36  1  0
 36 37  1  0
 36 38  1  0
 38 39  1  0
 38 40  1  0
 40 41  1  0
 40 42  1  1
 40 43  1  0
 43 44  1  0
 44 45  1  0
 43 46  1  0
 46 47  1  0
 47 48  2  0
 47 49  1  0
 49 50  1  0
 29 51  1  6
 51 52  1  0
 11  1  1  0
 49 13  1  0
 24 18  1  0
  1 53  1  6
  2 54  1  0
  2 55  1  0
  4 56  1  0
  4 57  1  0
  4 58  1  0
  6 59  1  0
  6 60  1  0
  6 61  1  0
  7 62  1  6
  8 63  1  0
  9 64  1  1
 10 65  1  0
 10 66  1  0
 10 67  1  0
 13 68  1  6
 14 69  1  1
 15 70  1  0
 15 71  1  0
 15 72  1  0
 16 73  1  6
 18 74  1  1
 20 75  1  6
 21 76  1  0
 21 77  1  0
 21 78  1  0
 22 79  1  0
 22 80  1  0
 23 81  1  1
 24 82  1  6
 25 83  1  0
 27 84  1  0
 27 85  1  0
 27 86  1  0
 28 87  1  0
 28 88  1  0
 28 89  1  0
 30 90  1  0
 30 91  1  0
 30 92  1  0
 31 93  1  0
 31 94  1  0
 32 95  1  6
 33 96  1  0
 33 97  1  0
 33 98  1  0
 36 99  1  1
 37100  1  0
 37101  1  0
 37102  1  0
 38103  1  6
 39104  1  0
 41105  1  0
 41106  1  0
 41107  1  0
 42108  1  0
 43109  1  6
 44110  1  0
 44111  1  0
 45112  1  0
 45113  1  0
 45114  1  0
 49115  1  1
 50116  1  0
 50117  1  0
 50118  1  0
 52119  1  0
 52120  1  0
 52121  1  0
M  END
$$$$
