
     RDKit          3D

 49 50  0  0  0  0  0  0  0  0999 V2000
    2.3283    1.7762    2.7711 C   0  0  0  0  0  0  0  0  0  0  0  0
    3.3230    0.8029    2.1390 C   0  0  0  0  0  0  0  0  0  0  0  0
    2.6695   -0.1260    1.1042 C   0  0  0  0  0  0  0  0  0  0  0  0
    2.2228    0.6314   -0.1652 C   0  0  0  0  0  0  0  0  0  0  0  0
    1.8306   -0.2563   -1.2865 N   0  0  0  0  0  0  0  0  0  0  0  0
    2.9721   -0.9888   -1.8959 C   0  0  0  0  0  0  0  0  0  0  0  0
    2.8836   -2.5088   -1.6943 C   0  0  0  0  0  0  0  0  0  0  0  0
    1.5741   -3.0777   -2.2637 C   0  0  0  0  0  0  0  0  0  0  0  0
    0.3975   -2.0907   -2.1645 C   0  0  0  0  0  0  0  0  0  0  0  0
    0.6121   -1.0690   -1.0334 C   0  0  0  0  0  0  0  0  0  0  0  0
   -0.5980   -0.1776   -0.9303 C   0  0  0  0  0  0  0  0  0  0  0  0
   -0.9057    0.5714   -1.8981 O   0  0  0  0  0  0  0  0  0  0  0  0
   -1.3783   -0.1585    0.2729 N   0  0  0  0  0  0  0  0  0  0  0  0
   -2.5878    0.6065    0.3851 C   0  0  0  0  0  0  0  0  0  0  0  0
   -3.7334    0.2562   -0.3688 C   0  0  0  0  0  0  0  0  0  0  0  0
   -3.7299   -0.9257   -1.3014 C   0  0  0  0  0  0  0  0  0  0  0  0
   -4.8946    1.0371   -0.2621 C   0  0  0  0  0  0  0  0  0  0  0  0
   -4.9392    2.1238    0.6106 C   0  0  0  0  0  0  0  0  0  0  0  0
   -3.8247    2.4500    1.3826 C   0  0  0  0  0  0  0  0  0  0  0  0
   -2.6431    1.7001    1.2775 C   0  0  0  0  0  0  0  0  0  0  0  0
   -1.4436    2.0780    2.1030 C   0  0  0  0  0  0  0  0  0  0  0  0
    1.9697    2.5121    2.0222 H   0  0  0  0  0  0  0  0  0  0  0  0
    1.4622    1.2259    3.1959 H   0  0  0  0  0  0  0  0  0  0  0  0
    2.8282    2.3340    3.5907 H   0  0  0  0  0  0  0  0  0  0  0  0
    3.7585    0.1764    2.9475 H   0  0  0  0  0  0  0  0  0  0  0  0
    4.1555    1.3721    1.6713 H   0  0  0  0  0  0  0  0  0  0  0  0
    3.4149   -0.9018    0.8351 H   0  0  0  0  0  0  0  0  0  0  0  0
    1.8038   -0.6343    1.5780 H   0  0  0  0  0  0  0  0  0  0  0  0
    1.3741    1.3007    0.0862 H   0  0  0  0  0  0  0  0  0  0  0  0
    3.0431    1.3005   -0.5069 H   0  0  0  0  0  0  0  0  0  0  0  0
    2.9773   -0.7775   -2.9868 H   0  0  0  0  0  0  0  0  0  0  0  0
    3.9512   -0.6315   -1.5063 H   0  0  0  0  0  0  0  0  0  0  0  0
    3.7486   -3.0017   -2.1884 H   0  0  0  0  0  0  0  0  0  0  0  0
    2.9439   -2.7387   -0.6090 H   0  0  0  0  0  0  0  0  0  0  0  0
    1.7236   -3.3529   -3.3307 H   0  0  0  0  0  0  0  0  0  0  0  0
    1.3234   -4.0109   -1.7134 H   0  0  0  0  0  0  0  0  0  0  0  0
    0.2974   -1.5498   -3.1321 H   0  0  0  0  0  0  0  0  0  0  0  0
   -0.5443   -2.6584   -1.9950 H   0  0  0  0  0  0  0  0  0  0  0  0
    0.7199   -1.6481   -0.0918 H   0  0  0  0  0  0  0  0  0  0  0  0
   -0.9897   -0.6010    1.1357 H   0  0  0  0  0  0  0  0  0  0  0  0
   -3.3160   -0.6239   -2.2856 H   0  0  0  0  0  0  0  0  0  0  0  0
   -4.7597   -1.3133   -1.4542 H   0  0  0  0  0  0  0  0  0  0  0  0
   -3.1215   -1.7558   -0.8847 H   0  0  0  0  0  0  0  0  0  0  0  0
   -5.7735    0.7974   -0.8482 H   0  0  0  0  0  0  0  0  0  0  0  0
   -5.8432    2.7134    0.6921 H   0  0  0  0  0  0  0  0  0  0  0  0
   -3.8833    3.2947    2.0578 H   0  0  0  0  0  0  0  0  0  0  0  0
   -1.6217    3.0068    2.6855 H   0  0  0  0  0  0  0  0  0  0  0  0
   -0.5715    2.2507    1.4387 H   0  0  0  0  0  0  0  0  0  0  0  0
   -1.2061    1.2601    2.8148 H   0  0  0  0  0  0  0  0  0  0  0  0
  1  2  1  0
  2  3  1  0
  3  4  1  0
  4  5  1  0
  5  6  1  0
  6  7  1  0
  7  8  1  0
  8  9  1  0
  9 10  1  0
 10 11  1  0
 11 12  2  0
 11 13  1  0
 13 14  1  0
 14 15  2  0
 15 16  1  0
 15 17  1  0
 17 18  2  0
 18 19  1  0
 19 20  2  0
 20 21  1  0
 10  5  1  0
 20 14  1  0
  1 22  1  0
  1 23  1  0
  1 24  1  0
  2 25  1  0
  2 26  1  0
  3 27  1  0
  3 28  1  0
  4 29  1  0
  4 30  1  0
  6 31  1  0
  6 32  1  0
  7 33  1  0
  7 34  1  0
  8 35  1  0
  8 36  1  0
  9 37  1  0
  9 38  1  0
 10 39  1  0
 13 40  1  0
 16 41  1  0
 16 42  1  0
 16 43  1  0
 17 44  1  0
 18 45  1  0
 19 46  1  0
 21 47  1  0
 21 48  1  0
 21 49  1  0
M  END
$$$$
