
     RDKit          3D

 76 80  0  0  0  0  0  0  0  0999 V2000
   -3.6194   -1.6091    2.5235 C   0  0  1  0  0  0  0  0  0  0  0  0
   -3.3848   -0.1655    2.9873 C   0  0  0  0  0  0  0  0  0  0  0  0
   -2.1173   -0.0632    3.5916 O   0  0  0  0  0  0  0  0  0  0  0  0
   -1.8181    1.5732    3.9920 P   0  0  0  0  0  5  0  0  0  0  0  0
   -2.9021    2.6301    3.2293 O   0  0  0  0  0  1  0  0  0  0  0  0
   -1.9716    1.7323    5.4869 O   0  0  0  0  0  0  0  0  0  0  0  0
   -0.2305    2.0182    3.5656 O   0  0  0  0  0  0  0  0  0  0  0  0
    0.1056    1.3467    2.0369 P   0  0  0  0  0  5  0  0  0  0  0  0
   -1.2067    1.5448    0.9811 O   0  0  0  0  0  0  0  0  0  0  0  0
    0.4099   -0.1262    2.2004 O   0  0  0  0  0  0  0  0  0  0  0  0
    1.4784    2.1291    1.3953 O   0  0  0  0  0  0  0  0  0  0  0  0
    1.6760    1.6691    0.0782 C   0  0  0  0  0  0  0  0  0  0  0  0
    2.9793    2.2573   -0.4688 C   0  0  1  0  0  0  0  0  0  0  0  0
    4.0656    1.8205    0.3167 O   0  0  0  0  0  0  0  0  0  0  0  0
    5.1835    1.6700   -0.5370 C   0  0  1  0  0  0  0  0  0  0  0  0
    5.7982    0.3441   -0.3366 N   0  0  0  0  0  4  0  0  0  0  0  0
    5.0107   -0.7693   -0.2171 C   0  0  0  0  0  0  0  0  0  0  0  0
    5.5820   -2.0286   -0.0451 C   0  0  0  0  0  0  0  0  0  0  0  0
    6.9678   -2.1552   -0.0146 C   0  0  0  0  0  0  0  0  0  0  0  0
    7.7819   -1.0263   -0.1726 C   0  0  0  0  0  0  0  0  0  0  0  0
    7.1630    0.2287   -0.3278 C   0  0  0  0  0  0  0  0  0  0  0  0
    9.2583   -1.1776   -0.1430 C   0  0  0  0  0  0  0  0  0  0  0  0
    9.8157   -2.2560    0.5406 O   0  0  0  0  0  0  0  0  0  0  0  0
   10.0457   -0.3443   -0.7512 N   0  0  0  0  0  0  0  0  0  0  0  0
    4.7420    1.8472   -1.9983 C   0  0  2  0  0  0  0  0  0  0  0  0
    5.2398    3.0489   -2.5420 O   0  0  0  0  0  0  0  0  0  0  0  0
    3.2324    1.8365   -1.9129 C   0  0  2  0  0  0  0  0  0  0  0  0
    2.6522    2.7328   -2.8258 O   0  0  0  0  0  0  0  0  0  0  0  0
   -4.9365   -1.7205    2.0190 O   0  0  0  0  0  0  0  0  0  0  0  0
   -4.8542   -2.1279    0.6689 C   0  0  1  0  0  0  0  0  0  0  0  0
   -5.8392   -1.4085   -0.1462 N   0  0  0  0  0  0  0  0  0  0  0  0
   -6.4562   -1.8374   -1.2816 C   0  0  0  0  0  0  0  0  0  0  0  0
   -6.2529   -3.5887   -2.0213 Br  0  0  0  0  0  0  0  0  0  0  0  0
   -7.2247   -0.8849   -1.8778 N   0  0  0  0  0  0  0  0  0  0  0  0
   -7.0568    0.1781   -1.0705 C   0  0  0  0  0  0  0  0  0  0  0  0
   -7.5708    1.4648   -1.1868 C   0  0  0  0  0  0  0  0  0  0  0  0
   -8.4435    1.8326   -2.2551 N   0  0  0  0  0  0  0  0  0  0  0  0
   -7.2046    2.3811   -0.2411 N   0  0  0  0  0  0  0  0  0  0  0  0
   -6.3577    2.0481    0.7855 C   0  0  0  0  0  0  0  0  0  0  0  0
   -5.8569    0.7805    0.8870 N   0  0  0  0  0  0  0  0  0  0  0  0
   -6.2272   -0.1285   -0.0471 C   0  0  0  0  0  0  0  0  0  0  0  0
   -3.4433   -1.8675    0.1617 C   0  0  2  0  0  0  0  0  0  0  0  0
   -3.0865   -2.8193   -0.8222 O   0  0  0  0  0  0  0  0  0  0  0  0
   -1.9852   -2.1178   -1.9223 P   0  0  0  0  0  5  0  0  0  0  0  0
   -1.3652   -3.3316   -2.9246 O   0  0  0  0  0  0  0  0  0  0  0  0
   -0.7087   -1.3708   -1.0972 O   0  0  0  0  0  0  0  0  0  0  0  0
   -2.7023   -1.0924   -2.7718 O   0  0  0  0  0  0  0  0  0  0  0  0
   -2.6277   -2.0183    1.4239 C   0  0  2  0  0  0  0  0  0  0  0  0
   -2.1698   -3.3388    1.6090 O   0  0  0  0  0  0  0  0  0  0  0  0
   -3.5164   -2.2787    3.4061 H   0  0  0  0  0  0  0  0  0  0  0  0
   -3.4564    0.4937    2.0937 H   0  0  0  0  0  0  0  0  0  0  0  0
   -4.1796    0.1085    3.7176 H   0  0  0  0  0  0  0  0  0  0  0  0
   -1.2969    2.5249    0.8718 H   0  0  0  0  0  0  0  0  0  0  0  0
    1.7507    0.5574    0.0477 H   0  0  0  0  0  0  0  0  0  0  0  0
    0.8379    2.0027   -0.5737 H   0  0  0  0  0  0  0  0  0  0  0  0
    2.9242    3.3684   -0.4062 H   0  0  0  0  0  0  0  0  0  0  0  0
    5.9132    2.4664   -0.2641 H   0  0  0  0  0  0  0  0  0  0  0  0
    3.9316   -0.6908   -0.2512 H   0  0  0  0  0  0  0  0  0  0  0  0
    4.9524   -2.9028    0.0592 H   0  0  0  0  0  0  0  0  0  0  0  0
    7.4028   -3.1388    0.1134 H   0  0  0  0  0  0  0  0  0  0  0  0
    7.7719    1.1191   -0.4175 H   0  0  0  0  0  0  0  0  0  0  0  0
   10.8191   -2.3934    0.5749 H   0  0  0  0  0  0  0  0  0  0  0  0
    9.7057    0.4687   -1.3098 H   0  0  0  0  0  0  0  0  0  0  0  0
    5.0922    1.0063   -2.6375 H   0  0  0  0  0  0  0  0  0  0  0  0
    4.9270    3.8002   -1.9720 H   0  0  0  0  0  0  0  0  0  0  0  0
    2.8700    0.7971   -2.0995 H   0  0  0  0  0  0  0  0  0  0  0  0
    1.6853    2.5126   -2.8617 H   0  0  0  0  0  0  0  0  0  0  0  0
   -5.0761   -3.2180    0.6342 H   0  0  0  0  0  0  0  0  0  0  0  0
   -8.8117    2.8075   -2.3195 H   0  0  0  0  0  0  0  0  0  0  0  0
   -8.7258    1.1384   -2.9823 H   0  0  0  0  0  0  0  0  0  0  0  0
   -6.0817    2.7941    1.5179 H   0  0  0  0  0  0  0  0  0  0  0  0
   -3.3892   -0.8069   -0.1894 H   0  0  0  0  0  0  0  0  0  0  0  0
   -0.6818   -2.8769   -3.4789 H   0  0  0  0  0  0  0  0  0  0  0  0
   -0.2326   -2.1121   -0.6451 H   0  0  0  0  0  0  0  0  0  0  0  0
   -1.7436   -1.3501    1.3830 H   0  0  0  0  0  0  0  0  0  0  0  0
   -2.9594   -3.9379    1.6724 H   0  0  0  0  0  0  0  0  0  0  0  0
  1  2  1  0
  2  3  1  0
  3  4  1  0
  4  5  1  0
  4  6  2  0
  4  7  1  0
  7  8  1  0
  8  9  1  0
  8 10  2  0
  8 11  1  0
 11 12  1  0
 12 13  1  0
 13 14  1  0
 14 15  1  0
 15 16  1  0
 16 17  2  0
 17 18  1  0
 18 19  2  0
 19 20  1  0
 20 21  2  0
 20 22  1  0
 22 23  1  0
 22 24  2  3
 15 25  1  0
 25 26  1  0
 25 27  1  0
 27 28  1  0
  1 29  1  0
 29 30  1  0
 30 31  1  0
 31 32  1  0
 32 33  1  0
 32 34  2  0
 34 35  1  0
 35 36  2  0
 36 37  1  0
 36 38  1  0
 38 39  2  0
 39 40  1  0
 40 41  2  0
 30 42  1  0
 42 43  1  0
 43 44  1  0
 44 45  1  0
 44 46  1  0
 44 47  2  0
 42 48  1  0
 48 49  1  0
 48  1  1  0
 27 13  1  0
 41 31  1  0
 21 16  1  0
 41 35  1  0
  1 50  1  1
  2 51  1  0
  2 52  1  0
  9 53  1  0
 12 54  1  0
 12 55  1  0
 13 56  1  6
 15 57  1  1
 17 58  1  0
 18 59  1  0
 19 60  1  0
 21 61  1  0
 23 62  1  0
 24 63  1  0
 25 64  1  6
 26 65  1  0
 27 66  1  1
 28 67  1  0
 30 68  1  1
 37 69  1  0
 37 70  1  0
 39 71  1  0
 42 72  1  6
 45 73  1  0
 46 74  1  0
 48 75  1  6
 49 76  1  0
M  CHG  2   5  -1  16   1
M  END
$$$$
