
     RDKit          3D

 30 30  0  0  0  0  0  0  0  0999 V2000
    2.9977    1.5007    1.3191 C   0  0  0  0  0  0  0  0  0  0  0  0
    2.5383    0.1086    1.0335 C   0  0  0  0  0  0  0  0  0  0  0  0
    1.7479   -0.4610    1.8338 O   0  0  0  0  0  0  0  0  0  0  0  0
    2.9583   -0.5504   -0.1697 N   0  0  0  0  0  0  0  0  0  0  0  0
    2.4124   -1.8373   -0.6005 C   0  0  0  0  0  0  0  0  0  0  0  0
    1.3006   -1.6371   -1.6356 C   0  0  0  0  0  0  0  0  0  0  0  0
    0.1211   -0.9081   -1.0462 C   0  0  0  0  0  0  0  0  0  0  0  0
   -0.8282   -1.6030   -0.2803 C   0  0  0  0  0  0  0  0  0  0  0  0
   -1.8957   -0.9196    0.3092 C   0  0  0  0  0  0  0  0  0  0  0  0
   -2.0199    0.4669    0.1501 C   0  0  0  0  0  0  0  0  0  0  0  0
   -1.0747    1.1633   -0.6148 C   0  0  0  0  0  0  0  0  0  0  0  0
   -0.0077    0.4811   -1.2061 C   0  0  0  0  0  0  0  0  0  0  0  0
   -3.3692    1.3234    0.8879 S   0  0  0  0  0  6  0  0  0  0  0  0
   -4.7184    1.3090   -0.1925 N   0  0  0  0  0  0  0  0  0  0  0  0
   -3.7486    0.6560    2.1805 O   0  0  0  0  0  0  0  0  0  0  0  0
   -2.9740    2.7444    1.1771 O   0  0  0  0  0  0  0  0  0  0  0  0
    2.8082    1.7628    2.3816 H   0  0  0  0  0  0  0  0  0  0  0  0
    2.4480    2.2102    0.6662 H   0  0  0  0  0  0  0  0  0  0  0  0
    4.0862    1.5867    1.1188 H   0  0  0  0  0  0  0  0  0  0  0  0
    3.5800   -0.0348   -0.8329 H   0  0  0  0  0  0  0  0  0  0  0  0
    2.0323   -2.4201    0.2666 H   0  0  0  0  0  0  0  0  0  0  0  0
    3.2279   -2.4333   -1.0633 H   0  0  0  0  0  0  0  0  0  0  0  0
    1.7039   -1.0809   -2.5102 H   0  0  0  0  0  0  0  0  0  0  0  0
    0.9713   -2.6314   -2.0086 H   0  0  0  0  0  0  0  0  0  0  0  0
   -0.7376   -2.6725   -0.1357 H   0  0  0  0  0  0  0  0  0  0  0  0
   -2.6225   -1.4715    0.8915 H   0  0  0  0  0  0  0  0  0  0  0  0
   -1.1606    2.2336   -0.7516 H   0  0  0  0  0  0  0  0  0  0  0  0
    0.7233    1.0370   -1.7801 H   0  0  0  0  0  0  0  0  0  0  0  0
   -4.9869    0.3091   -0.3317 H   0  0  0  0  0  0  0  0  0  0  0  0
   -5.5136    1.7683    0.3054 H   0  0  0  0  0  0  0  0  0  0  0  0
  1  2  1  0
  2  3  2  0
  2  4  1  0
  4  5  1  0
  5  6  1  0
  6  7  1  0
  7  8  2  0
  8  9  1  0
  9 10  2  0
 10 11  1  0
 11 12  2  0
 10 13  1  0
 13 14  1  0
 13 15  2  0
 13 16  2  0
 12  7  1  0
  1 17  1  0
  1 18  1  0
  1 19  1  0
  4 20  1  0
  5 21  1  0
  5 22  1  0
  6 23  1  0
  6 24  1  0
  8 25  1  0
  9 26  1  0
 11 27  1  0
 12 28  1  0
 14 29  1  0
 14 30  1  0
M  END
$$$$
