
     RDKit          3D

 42 44  0  0  0  0  0  0  0  0999 V2000
   -2.3391   -0.3149    1.5881 O   0  0  0  0  0  0  0  0  0  0  0  0
   -2.3197   -0.8690    0.4548 C   0  0  0  0  0  0  0  0  0  0  0  0
   -3.4600   -1.6225    0.0111 N   0  0  0  0  0  0  0  0  0  0  0  0
   -4.6852   -1.7241    0.8009 C   0  0  0  0  0  0  0  0  0  0  0  0
   -5.4418   -0.4248    0.7585 C   0  0  0  0  0  0  0  0  0  0  0  0
   -6.0707   -0.0103   -0.4242 C   0  0  0  0  0  0  0  0  0  0  0  0
   -6.7544    1.2062   -0.4621 C   0  0  0  0  0  0  0  0  0  0  0  0
   -6.7998    2.0010    0.6848 C   0  0  0  0  0  0  0  0  0  0  0  0
   -6.1809    1.5898    1.8233 N   0  0  0  0  0  0  0  0  0  0  0  0
   -5.5089    0.4089    1.8855 C   0  0  0  0  0  0  0  0  0  0  0  0
   -1.1234   -0.7390   -0.4061 C   0  0  0  0  0  0  0  0  0  0  0  0
   -0.0003   -0.0128    0.0185 C   0  0  0  0  0  0  0  0  0  0  0  0
    1.1088    0.0834   -0.8357 C   0  0  0  0  0  0  0  0  0  0  0  0
    1.0653   -0.5291   -2.0493 N   0  0  0  0  0  0  0  0  0  0  0  0
   -0.0273   -1.2281   -2.4486 C   0  0  0  0  0  0  0  0  0  0  0  0
   -1.1066   -1.3282   -1.6319 N   0  0  0  0  0  0  0  0  0  0  0  0
    2.3189    0.8347   -0.4353 C   0  0  0  0  0  0  0  0  0  0  0  0
    2.3631    1.3952    0.6942 O   0  0  0  0  0  0  0  0  0  0  0  0
    3.4446    0.9323   -1.3231 N   0  0  0  0  0  0  0  0  0  0  0  0
    4.6827    1.6097   -0.9440 C   0  0  0  0  0  0  0  0  0  0  0  0
    5.4496    0.7776    0.0468 C   0  0  0  0  0  0  0  0  0  0  0  0
    5.5439    1.1623    1.3932 C   0  0  0  0  0  0  0  0  0  0  0  0
    6.2249    0.3874    2.2795 N   0  0  0  0  0  0  0  0  0  0  0  0
    6.8272   -0.7712    1.9009 C   0  0  0  0  0  0  0  0  0  0  0  0
    6.7547   -1.1955    0.5728 C   0  0  0  0  0  0  0  0  0  0  0  0
    6.0611   -0.4181   -0.3564 C   0  0  0  0  0  0  0  0  0  0  0  0
   -3.4257   -2.1254   -0.9040 H   0  0  0  0  0  0  0  0  0  0  0  0
   -5.3283   -2.5274    0.3802 H   0  0  0  0  0  0  0  0  0  0  0  0
   -4.4378   -2.0182    1.8443 H   0  0  0  0  0  0  0  0  0  0  0  0
   -6.0289   -0.6276   -1.3132 H   0  0  0  0  0  0  0  0  0  0  0  0
   -7.2429    1.5307   -1.3717 H   0  0  0  0  0  0  0  0  0  0  0  0
   -7.3257    2.9463    0.6695 H   0  0  0  0  0  0  0  0  0  0  0  0
   -5.0272    0.1226    2.8115 H   0  0  0  0  0  0  0  0  0  0  0  0
    0.0104    0.4658    0.9902 H   0  0  0  0  0  0  0  0  0  0  0  0
   -0.0380   -1.7059   -3.4185 H   0  0  0  0  0  0  0  0  0  0  0  0
    3.3898    0.5138   -2.2787 H   0  0  0  0  0  0  0  0  0  0  0  0
    4.4511    2.6183   -0.5370 H   0  0  0  0  0  0  0  0  0  0  0  0
    5.3112    1.7602   -1.8486 H   0  0  0  0  0  0  0  0  0  0  0  0
    5.0761    2.0750    1.7390 H   0  0  0  0  0  0  0  0  0  0  0  0
    7.3609   -1.3640    2.6317 H   0  0  0  0  0  0  0  0  0  0  0  0
    7.2298   -2.1187    0.2672 H   0  0  0  0  0  0  0  0  0  0  0  0
    5.9983   -0.7462   -1.3867 H   0  0  0  0  0  0  0  0  0  0  0  0
  1  2  2  0
  2  3  1  0
  3  4  1  0
  4  5  1  0
  5  6  2  0
  6  7  1  0
  7  8  2  0
  8  9  1  0
  9 10  2  0
  2 11  1  0
 11 12  2  0
 12 13  1  0
 13 14  2  0
 14 15  1  0
 15 16  2  0
 13 17  1  0
 17 18  2  0
 17 19  1  0
 19 20  1  0
 20 21  1  0
 21 22  2  0
 22 23  1  0
 23 24  2  0
 24 25  1  0
 25 26  2  0
 10  5  1  0
 16 11  1  0
 26 21  1  0
  3 27  1  0
  4 28  1  0
  4 29  1  0
  6 30  1  0
  7 31  1  0
  8 32  1  0
 10 33  1  0
 12 34  1  0
 15 35  1  0
 19 36  1  0
 20 37  1  0
 20 38  1  0
 22 39  1  0
 24 40  1  0
 25 41  1  0
 26 42  1  0
M  END
$$$$
