
     RDKit          3D

 25 25  0  0  0  0  0  0  0  0999 V2000
    1.4995   -0.7518    0.4159 C   0  0  1  0  0  0  0  0  0  0  0  0
    2.6337   -1.2958   -0.2114 O   0  0  0  0  0  0  0  0  0  0  0  0
    1.3430    0.7151    0.0600 C   0  0  0  0  0  0  0  0  0  0  0  0
    2.4865    1.5730    0.1366 N   0  0  0  0  0  0  0  0  0  0  0  0
    2.3773    2.8984   -0.1222 O   0  0  0  0  0  0  0  0  0  0  0  0
    0.1744    1.2391   -0.1807 N   0  0  0  0  0  0  0  0  0  0  0  0
   -1.0883    0.5025   -0.2902 C   0  0  2  0  0  0  0  0  0  0  0  0
   -2.2310    1.4055    0.2014 C   0  0  0  0  0  0  0  0  0  0  0  0
   -3.4815    0.8197   -0.0425 O   0  0  0  0  0  0  0  0  0  0  0  0
   -1.0217   -0.8289    0.4942 C   0  0  1  0  0  0  0  0  0  0  0  0
   -2.1665   -1.6148    0.2666 O   0  0  0  0  0  0  0  0  0  0  0  0
    0.2476   -1.5928    0.0858 C   0  0  2  0  0  0  0  0  0  0  0  0
    0.2969   -2.8148    0.7762 O   0  0  0  0  0  0  0  0  0  0  0  0
    1.6649   -0.7971    1.5144 H   0  0  0  0  0  0  0  0  0  0  0  0
    2.5106   -1.1926   -1.1918 H   0  0  0  0  0  0  0  0  0  0  0  0
    3.4154    1.1862    0.4172 H   0  0  0  0  0  0  0  0  0  0  0  0
    2.5694    2.9845   -1.0908 H   0  0  0  0  0  0  0  0  0  0  0  0
   -1.2542    0.2785   -1.3675 H   0  0  0  0  0  0  0  0  0  0  0  0
   -2.1255    1.5847    1.2929 H   0  0  0  0  0  0  0  0  0  0  0  0
   -2.1745    2.3963   -0.3052 H   0  0  0  0  0  0  0  0  0  0  0  0
   -3.6497    0.9041   -1.0173 H   0  0  0  0  0  0  0  0  0  0  0  0
   -0.9680   -0.6080    1.5840 H   0  0  0  0  0  0  0  0  0  0  0  0
   -2.2079   -1.8156   -0.7052 H   0  0  0  0  0  0  0  0  0  0  0  0
    0.2046   -1.7839   -1.0135 H   0  0  0  0  0  0  0  0  0  0  0  0
    0.9448   -3.3913    0.2928 H   0  0  0  0  0  0  0  0  0  0  0  0
  1  2  1  0
  1  3  1  0
  3  4  1  0
  4  5  1  0
  3  6  2  0
  6  7  1  0
  7  8  1  0
  8  9  1  0
  7 10  1  0
 10 11  1  0
 10 12  1  0
 12 13  1  0
 12  1  1  0
  1 14  1  1
  2 15  1  0
  4 16  1  0
  5 17  1  0
  7 18  1  6
  8 19  1  0
  8 20  1  0
  9 21  1  0
 10 22  1  1
 11 23  1  0
 12 24  1  6
 13 25  1  0
M  END
$$$$
