
     RDKit          3D

 28 28  0  0  0  0  0  0  0  0999 V2000
   -3.8543    1.5603   -1.3891 C   0  0  0  0  0  0  0  0  0  0  0  0
   -2.4528    1.2171   -0.9853 C   0  0  0  0  0  0  0  0  0  0  0  0
   -1.4160    1.7622   -1.6694 N   0  0  0  0  0  0  0  0  0  0  0  0
   -0.1252    1.4863   -1.3642 C   0  0  0  0  0  0  0  0  0  0  0  0
    0.1910    0.6186   -0.3077 C   0  0  0  0  0  0  0  0  0  0  0  0
    1.6460    0.3343   -0.0178 C   0  0  0  0  0  0  0  0  0  0  0  0
    1.9124   -1.0215   -0.2887 O   0  0  0  0  0  0  0  0  0  0  0  0
    3.5181   -1.3613    0.1729 P   0  0  0  0  0  5  0  0  0  0  0  0
    4.5936   -0.3323   -0.6357 O   0  0  0  0  0  0  0  0  0  0  0  0
    3.6932   -1.1724    1.8466 O   0  0  0  0  0  0  0  0  0  0  0  0
    3.8379   -2.7928   -0.1918 O   0  0  0  0  0  0  0  0  0  0  0  0
   -0.8682    0.0310    0.4370 C   0  0  0  0  0  0  0  0  0  0  0  0
   -0.5974   -0.9332    1.5774 C   0  0  0  0  0  0  0  0  0  0  0  0
   -0.9441   -2.2383    1.2021 O   0  0  0  0  0  0  0  0  0  0  0  0
   -2.2064    0.3302    0.0746 C   0  0  0  0  0  0  0  0  0  0  0  0
   -3.3013   -0.2365    0.7371 O   0  0  0  0  0  0  0  0  0  0  0  0
   -4.3826    0.6443   -1.7277 H   0  0  0  0  0  0  0  0  0  0  0  0
   -4.3979    2.0016   -0.5272 H   0  0  0  0  0  0  0  0  0  0  0  0
   -3.8528    2.2970   -2.2205 H   0  0  0  0  0  0  0  0  0  0  0  0
    0.6571    1.9483   -1.9527 H   0  0  0  0  0  0  0  0  0  0  0  0
    2.2960    0.9814   -0.6493 H   0  0  0  0  0  0  0  0  0  0  0  0
    1.8495    0.5971    1.0440 H   0  0  0  0  0  0  0  0  0  0  0  0
    4.3955   -0.4649   -1.5971 H   0  0  0  0  0  0  0  0  0  0  0  0
    4.0090   -0.2416    1.9680 H   0  0  0  0  0  0  0  0  0  0  0  0
   -1.1996   -0.6380    2.4616 H   0  0  0  0  0  0  0  0  0  0  0  0
    0.4529   -0.9135    1.9329 H   0  0  0  0  0  0  0  0  0  0  0  0
   -0.2342   -2.5529    0.5838 H   0  0  0  0  0  0  0  0  0  0  0  0
   -3.2196   -0.9109    1.4859 H   0  0  0  0  0  0  0  0  0  0  0  0
  1  2  1  0
  2  3  2  0
  3  4  1  0
  4  5  2  0
  5  6  1  0
  6  7  1  0
  7  8  1  0
  8  9  1  0
  8 10  1  0
  8 11  2  0
  5 12  1  0
 12 13  1  0
 13 14  1  0
 12 15  2  0
 15 16  1  0
 15  2  1  0
  1 17  1  0
  1 18  1  0
  1 19  1  0
  4 20  1  0
  6 21  1  0
  6 22  1  0
  9 23  1  0
 10 24  1  0
 13 25  1  0
 13 26  1  0
 14 27  1  0
 16 28  1  0
M  END
$$$$
