
     RDKit          3D

 27 28  0  0  0  0  0  0  0  0999 V2000
    5.3886   -0.5143    1.4064 O   0  0  0  0  0  0  0  0  0  0  0  0
    4.6124   -0.0251    0.3600 C   0  0  0  0  0  0  0  0  0  0  0  0
    5.1481    0.6704   -0.5439 O   0  0  0  0  0  0  0  0  0  0  0  0
    3.1729   -0.3182    0.3181 C   0  0  0  0  0  0  0  0  0  0  0  0
    2.6589   -1.0061    1.2414 O   0  0  0  0  0  0  0  0  0  0  0  0
    2.3623    0.1529   -0.7698 N   0  0  0  0  0  0  0  0  0  0  0  0
    0.9436   -0.0413   -0.8156 C   0  0  0  0  0  0  0  0  0  0  0  0
    0.0156    0.3006    0.1812 C   0  0  0  0  0  0  0  0  0  0  0  0
    0.3536    1.0266    1.4245 C   0  0  0  0  0  0  0  0  0  0  0  0
   -0.4593    0.9143    2.5482 O   0  0  0  0  0  0  0  0  0  0  0  0
    1.3769    1.7604    1.4735 O   0  0  0  0  0  0  0  0  0  0  0  0
   -1.2986   -0.0558   -0.1900 C   0  0  0  0  0  0  0  0  0  0  0  0
   -1.3722   -0.6738   -1.4258 C   0  0  0  0  0  0  0  0  0  0  0  0
   -2.6776   -1.0502   -2.0551 C   0  0  0  0  0  0  0  0  0  0  0  0
   -3.6852   -1.2045   -1.0662 O   0  0  0  0  0  0  0  0  0  0  0  0
   -3.7962   -0.0239   -0.2838 C   0  0  0  0  0  0  0  0  0  0  0  0
   -2.5530    0.1724    0.6077 C   0  0  0  0  0  0  0  0  0  0  0  0
    0.1506   -0.7426   -2.1263 S   0  0  0  0  0  0  0  0  0  0  0  0
    6.3818   -0.3202    1.4517 H   0  0  0  0  0  0  0  0  0  0  0  0
    2.8344    0.4561   -1.6507 H   0  0  0  0  0  0  0  0  0  0  0  0
   -0.2377    1.4113    3.4025 H   0  0  0  0  0  0  0  0  0  0  0  0
   -2.5535   -2.0148   -2.5896 H   0  0  0  0  0  0  0  0  0  0  0  0
   -2.9756   -0.2807   -2.8009 H   0  0  0  0  0  0  0  0  0  0  0  0
   -4.6912   -0.1124    0.3672 H   0  0  0  0  0  0  0  0  0  0  0  0
   -3.9533    0.8703   -0.9304 H   0  0  0  0  0  0  0  0  0  0  0  0
   -2.5820   -0.5554    1.4466 H   0  0  0  0  0  0  0  0  0  0  0  0
   -2.5643    1.2041    1.0192 H   0  0  0  0  0  0  0  0  0  0  0  0
  1  2  1  0
  2  3  2  0
  2  4  1  0
  4  5  2  0
  4  6  1  0
  6  7  1  0
  7  8  2  0
  8  9  1  0
  9 10  1  0
  9 11  2  0
  8 12  1  0
 12 13  2  0
 13 14  1  0
 14 15  1  0
 15 16  1  0
 16 17  1  0
 13 18  1  0
 18  7  1  0
 17 12  1  0
  1 19  1  0
  6 20  1  0
 10 21  1  0
 14 22  1  0
 14 23  1  0
 16 24  1  0
 16 25  1  0
 17 26  1  0
 17 27  1  0
M  END
$$$$
