
     RDKit          3D

 57 59  0  0  0  0  0  0  0  0999 V2000
   -6.3496    3.4395   -1.9428 C   0  0  0  0  0  0  0  0  0  0  0  0
   -5.6264    2.7098   -0.9593 O   0  0  0  0  0  0  0  0  0  0  0  0
   -6.2307    1.7579   -0.1332 C   0  0  0  0  0  0  0  0  0  0  0  0
   -7.4628    1.5069   -0.2344 O   0  0  0  0  0  0  0  0  0  0  0  0
   -5.3954    1.0057    0.8557 C   0  0  0  0  0  0  0  0  0  0  0  0
   -4.5456   -0.0668    0.1532 C   0  0  2  0  0  0  0  0  0  0  0  0
   -5.3893   -1.2074   -0.4642 C   0  0  0  0  0  0  0  0  0  0  0  0
   -4.7176   -2.5398   -0.0458 C   0  0  1  0  0  0  0  0  0  0  0  0
   -3.9971   -3.2314   -1.2188 C   0  0  0  0  0  0  0  0  0  0  0  0
   -3.1296   -2.3327   -1.9166 O   0  0  0  0  0  0  0  0  0  0  0  0
   -1.8492   -1.9309   -1.5041 C   0  0  0  0  0  0  0  0  0  0  0  0
   -1.2991   -0.7871   -2.0915 C   0  0  0  0  0  0  0  0  0  0  0  0
   -0.0377   -0.3250   -1.7077 C   0  0  0  0  0  0  0  0  0  0  0  0
    0.7045   -1.0086   -0.7290 C   0  0  0  0  0  0  0  0  0  0  0  0
    0.1590   -2.1685   -0.1516 C   0  0  0  0  0  0  0  0  0  0  0  0
   -1.1025   -2.6299   -0.5379 C   0  0  0  0  0  0  0  0  0  0  0  0
    2.0420   -0.5152   -0.3125 C   0  0  0  0  0  0  0  0  0  0  0  0
    2.9473   -0.0134   -1.2629 C   0  0  0  0  0  0  0  0  0  0  0  0
    4.2053    0.4515   -0.8698 C   0  0  0  0  0  0  0  0  0  0  0  0
    4.5901    0.4218    0.4828 C   0  0  0  0  0  0  0  0  0  0  0  0
    3.6801   -0.0729    1.4338 C   0  0  0  0  0  0  0  0  0  0  0  0
    2.4221   -0.5378    1.0401 C   0  0  0  0  0  0  0  0  0  0  0  0
    5.9274    0.9202    0.8949 C   0  0  0  0  0  0  0  0  0  0  0  0
    6.5125    0.4633    2.1234 N   0  0  0  0  0  0  0  0  0  0  0  0
    6.5294    1.7992    0.1423 N   0  0  0  0  0  0  0  0  0  0  0  0
    7.8522    2.3263    0.3062 C   0  0  0  0  0  0  0  0  0  0  0  0
    8.1492    3.4109   -0.2627 O   0  0  0  0  0  0  0  0  0  0  0  0
    8.8250    1.6179    1.0197 O   0  0  0  0  0  0  0  0  0  0  0  0
   10.1546    2.0950    1.1866 C   0  0  0  0  0  0  0  0  0  0  0  0
   -3.7807   -2.1918    1.0059 N   0  0  0  0  0  0  0  0  0  0  0  0
   -3.6740   -0.7895    1.1106 C   0  0  0  0  0  0  0  0  0  0  0  0
   -2.8664   -0.2278    1.8974 O   0  0  0  0  0  0  0  0  0  0  0  0
   -5.6572    4.1298   -2.4668 H   0  0  0  0  0  0  0  0  0  0  0  0
   -7.1540    4.0339   -1.4601 H   0  0  0  0  0  0  0  0  0  0  0  0
   -6.7919    2.7414   -2.6848 H   0  0  0  0  0  0  0  0  0  0  0  0
   -6.0455    0.5405    1.6299 H   0  0  0  0  0  0  0  0  0  0  0  0
   -4.7272    1.7312    1.3679 H   0  0  0  0  0  0  0  0  0  0  0  0
   -3.9031    0.3982   -0.6273 H   0  0  0  0  0  0  0  0  0  0  0  0
   -6.4266   -1.1941   -0.0622 H   0  0  0  0  0  0  0  0  0  0  0  0
   -5.4565   -1.0915   -1.5683 H   0  0  0  0  0  0  0  0  0  0  0  0
   -5.4813   -3.2356    0.3662 H   0  0  0  0  0  0  0  0  0  0  0  0
   -3.4566   -4.1384   -0.8791 H   0  0  0  0  0  0  0  0  0  0  0  0
   -4.7704   -3.5798   -1.9357 H   0  0  0  0  0  0  0  0  0  0  0  0
   -1.8622   -0.2415   -2.8382 H   0  0  0  0  0  0  0  0  0  0  0  0
    0.3477    0.5792   -2.1618 H   0  0  0  0  0  0  0  0  0  0  0  0
    0.7166   -2.7307    0.5870 H   0  0  0  0  0  0  0  0  0  0  0  0
   -1.4784   -3.5328   -0.0811 H   0  0  0  0  0  0  0  0  0  0  0  0
    2.6903    0.0025   -2.3146 H   0  0  0  0  0  0  0  0  0  0  0  0
    4.8834    0.8214   -1.6289 H   0  0  0  0  0  0  0  0  0  0  0  0
    3.9257   -0.0800    2.4875 H   0  0  0  0  0  0  0  0  0  0  0  0
    1.7368   -0.8944    1.7989 H   0  0  0  0  0  0  0  0  0  0  0  0
    7.1650    1.0626    2.6736 H   0  0  0  0  0  0  0  0  0  0  0  0
    6.2146   -0.4407    2.5516 H   0  0  0  0  0  0  0  0  0  0  0  0
   10.1444    3.0707    1.7171 H   0  0  0  0  0  0  0  0  0  0  0  0
   10.7310    1.3639    1.7896 H   0  0  0  0  0  0  0  0  0  0  0  0
   10.6443    2.2108    0.1965 H   0  0  0  0  0  0  0  0  0  0  0  0
   -3.2358   -2.8763    1.5761 H   0  0  0  0  0  0  0  0  0  0  0  0
  1  2  1  0
  2  3  1  0
  3  4  2  0
  3  5  1  0
  5  6  1  0
  6  7  1  0
  7  8  1  0
  8  9  1  0
  9 10  1  0
 10 11  1  0
 11 12  2  0
 12 13  1  0
 13 14  2  0
 14 15  1  0
 15 16  2  0
 14 17  1  0
 17 18  2  0
 18 19  1  0
 19 20  2  0
 20 21  1  0
 21 22  2  0
 20 23  1  0
 23 24  1  0
 23 25  2  0
 25 26  1  0
 26 27  2  0
 26 28  1  0
 28 29  1  0
  8 30  1  0
 30 31  1  0
 31 32  2  0
 31  6  1  0
 16 11  1  0
 22 17  1  0
  1 33  1  0
  1 34  1  0
  1 35  1  0
  5 36  1  0
  5 37  1  0
  6 38  1  6
  7 39  1  0
  7 40  1  0
  8 41  1  1
  9 42  1  0
  9 43  1  0
 12 44  1  0
 13 45  1  0
 15 46  1  0
 16 47  1  0
 18 48  1  0
 19 49  1  0
 21 50  1  0
 22 51  1  0
 24 52  1  0
 24 53  1  0
 29 54  1  0
 29 55  1  0
 29 56  1  0
 30 57  1  0
M  END
$$$$
