
     RDKit          3D

 12 11  0  0  0  0  0  0  0  0999 V2000
   -1.0310    0.7408   -0.4807 C   0  0  0  0  0  0  0  0  0  0  0  0
   -0.3433   -0.4115    0.2524 C   0  0  1  0  0  0  0  0  0  0  0  0
   -0.2554   -1.5321   -0.5872 O   0  0  0  0  0  0  0  0  0  0  0  0
    1.0357   -0.0019    0.6715 C   0  0  0  0  0  0  0  0  0  0  0  0
    2.0621    0.0513   -0.2672 O   0  0  0  0  0  0  0  0  0  0  0  0
    1.2602    0.3284    1.8668 O   0  0  0  0  0  0  0  0  0  0  0  0
   -2.0627    0.4443   -0.7659 H   0  0  0  0  0  0  0  0  0  0  0  0
   -1.0928    1.6333    0.1784 H   0  0  0  0  0  0  0  0  0  0  0  0
   -0.4692    1.0070   -1.4020 H   0  0  0  0  0  0  0  0  0  0  0  0
   -0.9359   -0.6675    1.1620 H   0  0  0  0  0  0  0  0  0  0  0  0
   -1.1635   -1.9320   -0.6278 H   0  0  0  0  0  0  0  0  0  0  0  0
    2.9957    0.3399   -0.0004 H   0  0  0  0  0  0  0  0  0  0  0  0
  1  2  1  0
  2  3  1  0
  2  4  1  0
  4  5  1  0
  4  6  2  0
  1  7  1  0
  1  8  1  0
  1  9  1  0
  2 10  1  1
  3 11  1  0
  5 12  1  0
M  END
$$$$
