
     RDKit          3D

 71 75  0  0  0  0  0  0  0  0999 V2000
   -1.5434   -0.4354    0.6774 C   0  0  2  0  0  0  0  0  0  0  0  0
   -0.7865   -0.6026    2.0088 C   0  0  0  0  0  0  0  0  0  0  0  0
    0.7039   -0.4676    1.8020 C   0  0  0  0  0  0  0  0  0  0  0  0
    1.5952   -1.2068    2.5945 C   0  0  0  0  0  0  0  0  0  0  0  0
    1.1341   -2.0637    3.5410 F   0  0  0  0  0  0  0  0  0  0  0  0
    2.9705   -1.0519    2.4364 C   0  0  0  0  0  0  0  0  0  0  0  0
    3.4846   -0.1813    1.4652 C   0  0  0  0  0  0  0  0  0  0  0  0
    4.9054   -0.0305    1.2959 N   0  0  0  0  0  0  0  0  0  0  0  0
    5.8385   -1.1197    1.3669 C   0  0  0  0  0  0  0  0  0  0  0  0
    5.4326   -2.3126    1.4107 O   0  0  0  0  0  0  0  0  0  0  0  0
    7.3113   -0.8450    1.3099 C   0  0  0  0  0  0  0  0  0  0  0  0
    7.6955   -0.3924   -0.0399 N   0  0  0  0  0  0  0  0  0  0  0  0
    7.6422   -1.4705   -1.0339 C   0  0  0  0  0  0  0  0  0  0  0  0
    8.6445   -1.1150   -2.1219 C   0  0  0  0  0  0  0  0  0  0  0  0
    9.5654   -0.0767   -1.5013 C   0  0  0  0  0  0  0  0  0  0  0  0
    9.0780    0.0903   -0.0712 C   0  0  0  0  0  0  0  0  0  0  0  0
    2.6034    0.5768    0.6722 C   0  0  0  0  0  0  0  0  0  0  0  0
    3.1519    1.3799   -0.3325 O   0  0  0  0  0  0  0  0  0  0  0  0
    1.2021    0.4748    0.8751 C   0  0  0  0  0  0  0  0  0  0  0  0
    0.2224    1.3457    0.1735 C   0  0  0  0  0  0  0  0  0  0  0  0
    0.5601    2.5067   -0.1835 O   0  0  0  0  0  0  0  0  0  0  0  0
   -1.1884    0.8832    0.0165 C   0  0  0  0  0  0  0  0  0  0  0  0
   -2.0732    1.5391   -0.7788 C   0  0  0  0  0  0  0  0  0  0  0  0
   -1.6425    2.6624   -1.4916 O   0  0  0  0  0  0  0  0  0  0  0  0
   -3.5422    1.1295   -0.9234 C   0  0  2  0  0  0  0  0  0  0  0  0
   -3.8448    1.1853   -2.3013 O   0  0  0  0  0  0  0  0  0  0  0  0
   -4.4016    2.1308   -0.1529 C   0  0  0  0  0  0  0  0  0  0  0  0
   -4.1922    3.3659   -0.3058 O   0  0  0  0  0  0  0  0  0  0  0  0
   -5.5246    1.6934    0.7180 C   0  0  0  0  0  0  0  0  0  0  0  0
   -6.1647    2.6864    1.6141 C   0  0  0  0  0  0  0  0  0  0  0  0
   -7.5821    2.7104    1.7970 N   0  0  0  0  0  0  0  0  0  0  0  0
   -5.4537    3.5437    2.2037 O   0  0  0  0  0  0  0  0  0  0  0  0
   -5.9083    0.4006    0.7378 C   0  0  0  0  0  0  0  0  0  0  0  0
   -6.8557   -0.0298    1.6695 O   0  0  0  0  0  0  0  0  0  0  0  0
   -5.3266   -0.6147   -0.2364 C   0  0  1  0  0  0  0  0  0  0  0  0
   -6.0720   -0.6083   -1.5325 N   0  0  0  0  0  0  0  0  0  0  0  0
   -7.5253   -0.7822   -1.3266 C   0  0  0  0  0  0  0  0  0  0  0  0
   -5.5998   -1.6774   -2.4383 C   0  0  0  0  0  0  0  0  0  0  0  0
   -3.8026   -0.3214   -0.4148 C   0  0  2  0  0  0  0  0  0  0  0  0
   -3.0492   -0.5750    0.9046 C   0  0  0  0  0  0  0  0  0  0  0  0
   -1.2187   -1.2526   -0.0061 H   0  0  0  0  0  0  0  0  0  0  0  0
   -1.1153    0.1716    2.7363 H   0  0  0  0  0  0  0  0  0  0  0  0
   -1.0292   -1.6017    2.4325 H   0  0  0  0  0  0  0  0  0  0  0  0
    3.6365   -1.6063    3.0847 H   0  0  0  0  0  0  0  0  0  0  0  0
    5.2761    0.9081    1.0238 H   0  0  0  0  0  0  0  0  0  0  0  0
    7.5343   -0.0446    2.0496 H   0  0  0  0  0  0  0  0  0  0  0  0
    7.8863   -1.7491    1.6152 H   0  0  0  0  0  0  0  0  0  0  0  0
    7.9236   -2.4531   -0.5893 H   0  0  0  0  0  0  0  0  0  0  0  0
    6.6174   -1.5460   -1.4575 H   0  0  0  0  0  0  0  0  0  0  0  0
    9.2144   -2.0144   -2.4428 H   0  0  0  0  0  0  0  0  0  0  0  0
    8.1193   -0.6832   -3.0022 H   0  0  0  0  0  0  0  0  0  0  0  0
    9.4769    0.8874   -2.0491 H   0  0  0  0  0  0  0  0  0  0  0  0
   10.6250   -0.4132   -1.5230 H   0  0  0  0  0  0  0  0  0  0  0  0
    9.1157    1.1582    0.2344 H   0  0  0  0  0  0  0  0  0  0  0  0
    9.7325   -0.5066    0.6065 H   0  0  0  0  0  0  0  0  0  0  0  0
    2.6122    1.7799   -1.0874 H   0  0  0  0  0  0  0  0  0  0  0  0
   -2.2594    3.1841   -2.1023 H   0  0  0  0  0  0  0  0  0  0  0  0
   -4.8092    1.3854   -2.4223 H   0  0  0  0  0  0  0  0  0  0  0  0
   -8.0133    3.3911    2.4611 H   0  0  0  0  0  0  0  0  0  0  0  0
   -8.2103    2.1061    1.2225 H   0  0  0  0  0  0  0  0  0  0  0  0
   -7.1589   -0.9951    1.7121 H   0  0  0  0  0  0  0  0  0  0  0  0
   -5.4241   -1.6240    0.2263 H   0  0  0  0  0  0  0  0  0  0  0  0
   -7.9551    0.0971   -0.8039 H   0  0  0  0  0  0  0  0  0  0  0  0
   -7.7411   -1.7063   -0.7457 H   0  0  0  0  0  0  0  0  0  0  0  0
   -8.0598   -0.8345   -2.3000 H   0  0  0  0  0  0  0  0  0  0  0  0
   -6.2853   -1.8069   -3.3042 H   0  0  0  0  0  0  0  0  0  0  0  0
   -5.5128   -2.6520   -1.9091 H   0  0  0  0  0  0  0  0  0  0  0  0
   -4.6255   -1.4029   -2.8884 H   0  0  0  0  0  0  0  0  0  0  0  0
   -3.3732   -1.0375   -1.1457 H   0  0  0  0  0  0  0  0  0  0  0  0
   -3.3757    0.1412    1.6904 H   0  0  0  0  0  0  0  0  0  0  0  0
   -3.2654   -1.6045    1.2668 H   0  0  0  0  0  0  0  0  0  0  0  0
  1  2  1  0
  2  3  1  0
  3  4  2  0
  4  5  1  0
  4  6  1  0
  6  7  2  0
  7  8  1  0
  8  9  1  0
  9 10  2  0
  9 11  1  0
 11 12  1  0
 12 13  1  0
 13 14  1  0
 14 15  1  0
 15 16  1  0
  7 17  1  0
 17 18  1  0
 17 19  2  0
 19 20  1  0
 20 21  2  0
 20 22  1  0
 22 23  2  0
 23 24  1  0
 23 25  1  0
 25 26  1  6
 25 27  1  0
 27 28  2  0
 27 29  1  0
 29 30  1  0
 30 31  1  0
 30 32  2  0
 29 33  2  0
 33 34  1  0
 33 35  1  0
 35 36  1  0
 36 37  1  0
 36 38  1  0
 35 39  1  0
 39 40  1  0
 22  1  1  0
 39 25  1  0
 40  1  1  0
 19  3  1  0
 16 12  1  0
  1 41  1  6
  2 42  1  0
  2 43  1  0
  6 44  1  0
  8 45  1  0
 11 46  1  0
 11 47  1  0
 13 48  1  0
 13 49  1  0
 14 50  1  0
 14 51  1  0
 15 52  1  0
 15 53  1  0
 16 54  1  0
 16 55  1  0
 18 56  1  0
 24 57  1  0
 26 58  1  0
 31 59  1  0
 31 60  1  0
 34 61  1  0
 35 62  1  1
 37 63  1  0
 37 64  1  0
 37 65  1  0
 38 66  1  0
 38 67  1  0
 38 68  1  0
 39 69  1  6
 40 70  1  0
 40 71  1  0
M  END
$$$$
