
     RDKit          3D

 45 48  0  0  0  0  0  0  0  0999 V2000
   -1.4923   -0.6115    0.1010 C   0  0  2  0  0  0  0  0  0  0  0  0
   -2.3814   -1.4789   -0.7798 C   0  0  0  0  0  0  0  0  0  0  0  0
   -3.7875   -0.8555   -0.6347 C   0  0  1  0  0  0  0  0  0  0  0  0
   -4.6589   -1.7292    0.0372 O   0  0  0  0  0  0  0  0  0  0  0  0
   -3.6120    0.4710    0.1519 C   0  0  1  0  0  0  0  0  0  0  0  0
   -3.9729    0.2852    1.5000 O   0  0  0  0  0  0  0  0  0  0  0  0
   -2.1057    0.7919    0.0152 C   0  0  2  0  0  0  0  0  0  0  0  0
   -1.8941    1.5032   -1.3592 C   0  0  0  0  0  0  0  0  0  0  0  0
   -1.4840    1.6533    1.1413 C   0  0  0  0  0  0  0  0  0  0  0  0
    0.0632    1.6868    1.0478 C   0  0  0  0  0  0  0  0  0  0  0  0
    0.7042    0.2672    0.9548 C   0  0  2  0  0  0  0  0  0  0  0  0
    2.2237    0.2766    0.7743 C   0  0  0  0  0  0  0  0  0  0  0  0
    2.8755   -0.8146    0.1348 C   0  0  0  0  0  0  0  0  0  0  0  0
    2.1107   -1.9353   -0.5358 C   0  0  0  0  0  0  0  0  0  0  0  0
    0.6367   -1.9995   -0.1284 C   0  0  0  0  0  0  0  0  0  0  0  0
    0.0273   -0.5923   -0.1545 C   0  0  1  0  0  0  0  0  0  0  0  0
    4.2765   -0.8313    0.0383 C   0  0  0  0  0  0  0  0  0  0  0  0
    5.0437    0.1860    0.6050 C   0  0  0  0  0  0  0  0  0  0  0  0
    6.4321    0.1419    0.4983 O   0  0  0  0  0  0  0  0  0  0  0  0
    4.4141    1.2351    1.2771 C   0  0  0  0  0  0  0  0  0  0  0  0
    3.0223    1.2750    1.3739 C   0  0  0  0  0  0  0  0  0  0  0  0
   -1.6357   -0.9987    1.1400 H   0  0  0  0  0  0  0  0  0  0  0  0
   -2.0438   -1.4352   -1.8383 H   0  0  0  0  0  0  0  0  0  0  0  0
   -2.3611   -2.5385   -0.4417 H   0  0  0  0  0  0  0  0  0  0  0  0
   -4.1954   -0.6244   -1.6470 H   0  0  0  0  0  0  0  0  0  0  0  0
   -4.8909   -2.4483   -0.6068 H   0  0  0  0  0  0  0  0  0  0  0  0
   -4.2521    1.2649   -0.3038 H   0  0  0  0  0  0  0  0  0  0  0  0
   -4.2249    1.1770    1.8563 H   0  0  0  0  0  0  0  0  0  0  0  0
   -2.2892    0.9023   -2.2038 H   0  0  0  0  0  0  0  0  0  0  0  0
   -2.4304    2.4764   -1.3642 H   0  0  0  0  0  0  0  0  0  0  0  0
   -0.8332    1.7225   -1.5810 H   0  0  0  0  0  0  0  0  0  0  0  0
   -1.7540    1.2418    2.1383 H   0  0  0  0  0  0  0  0  0  0  0  0
   -1.8822    2.6901    1.0935 H   0  0  0  0  0  0  0  0  0  0  0  0
    0.4138    2.1958    1.9691 H   0  0  0  0  0  0  0  0  0  0  0  0
    0.3893    2.3094    0.1889 H   0  0  0  0  0  0  0  0  0  0  0  0
    0.5160   -0.2256    1.9358 H   0  0  0  0  0  0  0  0  0  0  0  0
    2.1741   -1.7895   -1.6363 H   0  0  0  0  0  0  0  0  0  0  0  0
    2.5865   -2.9113   -0.2960 H   0  0  0  0  0  0  0  0  0  0  0  0
    0.5450   -2.4431    0.8879 H   0  0  0  0  0  0  0  0  0  0  0  0
    0.1071   -2.6662   -0.8421 H   0  0  0  0  0  0  0  0  0  0  0  0
    0.2352   -0.1582   -1.1557 H   0  0  0  0  0  0  0  0  0  0  0  0
    4.7757   -1.6421   -0.4791 H   0  0  0  0  0  0  0  0  0  0  0  0
    7.0176    0.8648    0.9003 H   0  0  0  0  0  0  0  0  0  0  0  0
    5.0040    2.0195    1.7342 H   0  0  0  0  0  0  0  0  0  0  0  0
    2.5875    2.0915    1.9288 H   0  0  0  0  0  0  0  0  0  0  0  0
  1  2  1  0
  2  3  1  0
  3  4  1  0
  3  5  1  0
  5  6  1  0
  5  7  1  0
  7  8  1  6
  7  9  1  0
  9 10  1  0
 10 11  1  0
 11 12  1  0
 12 13  2  0
 13 14  1  0
 14 15  1  0
 15 16  1  0
 13 17  1  0
 17 18  2  0
 18 19  1  0
 18 20  1  0
 20 21  2  0
  7  1  1  0
 16 11  1  0
 16  1  1  0
 21 12  1  0
  1 22  1  1
  2 23  1  0
  2 24  1  0
  3 25  1  6
  4 26  1  0
  5 27  1  6
  6 28  1  0
  8 29  1  0
  8 30  1  0
  8 31  1  0
  9 32  1  0
  9 33  1  0
 10 34  1  0
 10 35  1  0
 11 36  1  1
 14 37  1  0
 14 38  1  0
 15 39  1  0
 15 40  1  0
 16 41  1  6
 17 42  1  0
 19 43  1  0
 20 44  1  0
 21 45  1  0
M  END
$$$$
