
     RDKit          3D

 37 37  0  0  0  0  0  0  0  0999 V2000
   -3.2900   -2.2479    0.8502 C   0  0  0  0  0  0  0  0  0  0  0  0
   -2.8436   -0.8524    1.2828 C   0  0  0  0  0  0  0  0  0  0  0  0
   -2.9416    0.1161    0.1762 N   0  0  0  0  0  0  0  0  0  0  0  0
   -4.2632    0.4903   -0.3523 C   0  0  0  0  0  0  0  0  0  0  0  0
   -4.9695    1.4781    0.5734 C   0  0  0  0  0  0  0  0  0  0  0  0
   -1.7921    0.9073   -0.1979 C   0  0  0  0  0  0  0  0  0  0  0  0
   -1.9454    2.1322   -0.4620 O   0  0  0  0  0  0  0  0  0  0  0  0
   -0.4378    0.3098   -0.3058 C   0  0  0  0  0  0  0  0  0  0  0  0
    0.6566    1.0805   -0.1444 C   0  0  0  0  0  0  0  0  0  0  0  0
    2.0540    0.5967   -0.2416 C   0  0  0  0  0  0  0  0  0  0  0  0
    2.9929    1.3657   -0.9406 C   0  0  0  0  0  0  0  0  0  0  0  0
    4.3385    0.9611   -1.0383 C   0  0  0  0  0  0  0  0  0  0  0  0
    4.7430   -0.2296   -0.3909 C   0  0  0  0  0  0  0  0  0  0  0  0
    6.0725   -0.6502   -0.4587 O   0  0  0  0  0  0  0  0  0  0  0  0
    3.8068   -0.9868    0.3362 C   0  0  0  0  0  0  0  0  0  0  0  0
    4.2079   -2.1533    0.9865 O   0  0  0  0  0  0  0  0  0  0  0  0
    2.4740   -0.5685    0.4147 C   0  0  0  0  0  0  0  0  0  0  0  0
    5.2743    1.7661   -1.7882 N   0  0  0  0  0  4  0  0  0  0  0  0
    6.5390    1.3082   -2.0774 O   0  0  0  0  0  1  0  0  0  0  0  0
    4.9380    2.8889   -2.2190 O   0  0  0  0  0  0  0  0  0  0  0  0
   -0.3240   -1.0744   -0.7073 C   0  0  0  0  0  0  0  0  0  0  0  0
   -0.2283   -2.1812   -1.0321 N   0  0  0  0  0  0  0  0  0  0  0  0
   -4.3936   -2.2899    0.7446 H   0  0  0  0  0  0  0  0  0  0  0  0
   -2.9908   -2.9889    1.6212 H   0  0  0  0  0  0  0  0  0  0  0  0
   -2.8201   -2.5272   -0.1150 H   0  0  0  0  0  0  0  0  0  0  0  0
   -1.8008   -0.9169    1.6608 H   0  0  0  0  0  0  0  0  0  0  0  0
   -3.4666   -0.5147    2.1374 H   0  0  0  0  0  0  0  0  0  0  0  0
   -4.8998   -0.4086   -0.4824 H   0  0  0  0  0  0  0  0  0  0  0  0
   -4.1540    0.9490   -1.3595 H   0  0  0  0  0  0  0  0  0  0  0  0
   -4.3382    2.3757    0.7399 H   0  0  0  0  0  0  0  0  0  0  0  0
   -5.1942    1.0029    1.5505 H   0  0  0  0  0  0  0  0  0  0  0  0
   -5.9271    1.7984    0.1116 H   0  0  0  0  0  0  0  0  0  0  0  0
    0.5297    2.1423    0.0335 H   0  0  0  0  0  0  0  0  0  0  0  0
    2.6655    2.2766   -1.4272 H   0  0  0  0  0  0  0  0  0  0  0  0
    6.3993   -1.4948   -0.0051 H   0  0  0  0  0  0  0  0  0  0  0  0
    3.5551   -2.7175    1.5180 H   0  0  0  0  0  0  0  0  0  0  0  0
    1.7738   -1.1429    1.0082 H   0  0  0  0  0  0  0  0  0  0  0  0
  1  2  1  0
  2  3  1  0
  3  4  1  0
  4  5  1  0
  3  6  1  0
  6  7  2  0
  6  8  1  0
  8  9  2  0
  9 10  1  0
 10 11  2  0
 11 12  1  0
 12 13  2  0
 13 14  1  0
 13 15  1  0
 15 16  1  0
 15 17  2  0
 12 18  1  0
 18 19  1  0
 18 20  2  0
  8 21  1  0
 21 22  3  0
 17 10  1  0
  1 23  1  0
  1 24  1  0
  1 25  1  0
  2 26  1  0
  2 27  1  0
  4 28  1  0
  4 29  1  0
  5 30  1  0
  5 31  1  0
  5 32  1  0
  9 33  1  0
 11 34  1  0
 14 35  1  0
 16 36  1  0
 17 37  1  0
M  CHG  2  18   1  19  -1
M  END
$$$$
