
     RDKit          3D

 30 32  0  0  0  0  0  0  0  0999 V2000
    5.6889    1.2495   -0.0149 C   0  0  0  0  0  0  0  0  0  0  0  0
    5.5518    0.2708    1.5121 S   0  0  0  0  0  0  0  0  0  0  0  0
    3.8167   -0.0871    1.2569 C   0  0  0  0  0  0  0  0  0  0  0  0
    2.8215    0.7030    1.7380 N   0  0  0  0  0  0  0  0  0  0  0  0
    1.7142    0.0663    1.3157 C   0  0  0  0  0  0  0  0  0  0  0  0
    2.0457   -1.0529    0.6147 C   0  0  0  0  0  0  0  0  0  0  0  0
    3.3780   -1.1682    0.5690 N   0  0  0  0  0  0  0  0  0  0  0  0
    1.0856   -1.9019    0.0736 C   0  0  0  0  0  0  0  0  0  0  0  0
   -0.2693   -1.5653    0.2633 C   0  0  0  0  0  0  0  0  0  0  0  0
   -1.4996   -2.6699   -0.3343 Cl  0  0  0  0  0  0  0  0  0  0  0  0
   -0.6206   -0.3816    0.9766 C   0  0  0  0  0  0  0  0  0  0  0  0
   -1.9571   -0.0162    1.1768 O   0  0  0  0  0  0  0  0  0  0  0  0
   -2.8867    0.2045    0.1479 C   0  0  0  0  0  0  0  0  0  0  0  0
   -2.4767    0.4554   -1.1755 C   0  0  0  0  0  0  0  0  0  0  0  0
   -3.4238    0.6785   -2.1765 C   0  0  0  0  0  0  0  0  0  0  0  0
   -4.7849    0.6623   -1.8690 C   0  0  0  0  0  0  0  0  0  0  0  0
   -5.2077    0.4271   -0.5566 C   0  0  0  0  0  0  0  0  0  0  0  0
   -6.9319    0.4210   -0.2095 Cl  0  0  0  0  0  0  0  0  0  0  0  0
   -4.2578    0.2016    0.4563 C   0  0  0  0  0  0  0  0  0  0  0  0
   -4.7710   -0.0980    2.1146 Cl  0  0  0  0  0  0  0  0  0  0  0  0
    0.3889    0.4344    1.5259 C   0  0  0  0  0  0  0  0  0  0  0  0
    5.4444    0.6184   -0.8950 H   0  0  0  0  0  0  0  0  0  0  0  0
    4.9993    2.1186    0.0263 H   0  0  0  0  0  0  0  0  0  0  0  0
    6.7294    1.6202   -0.1159 H   0  0  0  0  0  0  0  0  0  0  0  0
    3.9468   -1.9143    0.1104 H   0  0  0  0  0  0  0  0  0  0  0  0
    1.3736   -2.7975   -0.4622 H   0  0  0  0  0  0  0  0  0  0  0  0
   -1.4263    0.4872   -1.4332 H   0  0  0  0  0  0  0  0  0  0  0  0
   -3.1018    0.8682   -3.1923 H   0  0  0  0  0  0  0  0  0  0  0  0
   -5.5118    0.8369   -2.6521 H   0  0  0  0  0  0  0  0  0  0  0  0
    0.1421    1.3289    2.0834 H   0  0  0  0  0  0  0  0  0  0  0  0
  1  2  1  0
  2  3  1  0
  3  4  2  0
  4  5  1  0
  5  6  2  0
  6  7  1  0
  6  8  1  0
  8  9  2  0
  9 10  1  0
  9 11  1  0
 11 12  1  0
 12 13  1  0
 13 14  2  0
 14 15  1  0
 15 16  2  0
 16 17  1  0
 17 18  1  0
 17 19  2  0
 19 20  1  0
 11 21  2  0
  7  3  1  0
 19 13  1  0
 21  5  1  0
  1 22  1  0
  1 23  1  0
  1 24  1  0
  7 25  1  0
  8 26  1  0
 14 27  1  0
 15 28  1  0
 16 29  1  0
 21 30  1  0
M  END
$$$$
