
     RDKit          3D

 24 25  0  0  0  0  0  0  0  0999 V2000
   -3.1848    1.4484    0.0794 N   0  0  0  0  0  0  0  0  0  0  0  0
   -2.3561    0.2829   -0.0596 C   0  0  0  0  0  0  0  0  0  0  0  0
   -2.9871   -0.9515   -0.2820 C   0  0  0  0  0  0  0  0  0  0  0  0
   -2.2433   -2.1174   -0.4510 C   0  0  0  0  0  0  0  0  0  0  0  0
   -0.8529   -2.0757   -0.3993 C   0  0  0  0  0  0  0  0  0  0  0  0
   -0.1898   -0.8628   -0.1680 C   0  0  0  0  0  0  0  0  0  0  0  0
    1.2124   -0.8383   -0.1097 C   0  0  0  0  0  0  0  0  0  0  0  0
    1.8911    0.3586    0.1366 C   0  0  0  0  0  0  0  0  0  0  0  0
    1.1666    1.5397    0.3169 C   0  0  0  0  0  0  0  0  0  0  0  0
   -0.2292    1.5328    0.2608 C   0  0  0  0  0  0  0  0  0  0  0  0
   -0.9354    0.3360    0.0105 C   0  0  0  0  0  0  0  0  0  0  0  0
    3.6514    0.3803    0.1943 S   0  0  0  0  0  6  0  0  0  0  0  0
    4.2642    0.6297   -1.3508 O   0  0  0  0  0  0  0  0  0  0  0  0
    4.1150    1.4894    1.0964 O   0  0  0  0  0  0  0  0  0  0  0  0
    4.1647   -0.9242    0.7371 O   0  0  0  0  0  0  0  0  0  0  0  0
   -2.8137    2.4204    0.1006 H   0  0  0  0  0  0  0  0  0  0  0  0
   -4.2249    1.3524    0.0956 H   0  0  0  0  0  0  0  0  0  0  0  0
   -4.0674   -1.0087   -0.3339 H   0  0  0  0  0  0  0  0  0  0  0  0
   -2.7483   -3.0586   -0.6265 H   0  0  0  0  0  0  0  0  0  0  0  0
   -0.2947   -2.9946   -0.5357 H   0  0  0  0  0  0  0  0  0  0  0  0
    1.7783   -1.7512   -0.2558 H   0  0  0  0  0  0  0  0  0  0  0  0
    1.6831    2.4730    0.5030 H   0  0  0  0  0  0  0  0  0  0  0  0
   -0.7278    2.4740    0.4250 H   0  0  0  0  0  0  0  0  0  0  0  0
    3.9288   -0.1346   -1.8845 H   0  0  0  0  0  0  0  0  0  0  0  0
  1  2  1  0
  2  3  2  0
  3  4  1  0
  4  5  2  0
  5  6  1  0
  6  7  2  0
  7  8  1  0
  8  9  2  0
  9 10  1  0
 10 11  2  0
  8 12  1  0
 12 13  1  0
 12 14  2  0
 12 15  2  0
 11  2  1  0
 11  6  1  0
  1 16  1  0
  1 17  1  0
  3 18  1  0
  4 19  1  0
  5 20  1  0
  7 21  1  0
  9 22  1  0
 10 23  1  0
 13 24  1  0
M  END
$$$$
