
     RDKit          3D

 53 54  0  0  0  0  0  0  0  0999 V2000
    3.3507   -0.1997   -0.5762 C   0  0  2  0  0  0  0  0  0  0  0  0
    3.1000   -1.3410    0.4384 C   0  0  0  0  0  0  0  0  0  0  0  0
    4.3581   -2.1829    0.7693 C   0  0  0  0  0  0  0  0  0  0  0  0
    5.3902   -1.3839    1.5806 C   0  0  0  0  0  0  0  0  0  0  0  0
    3.9529   -3.4424    1.5469 C   0  0  0  0  0  0  0  0  0  0  0  0
    2.1641    0.6548   -0.6966 N   0  0  0  0  0  0  0  0  0  0  0  0
    0.8885    0.2146   -1.1960 C   0  0  0  0  0  0  0  0  0  0  0  0
    0.7519   -0.9430   -1.6757 O   0  0  0  0  0  0  0  0  0  0  0  0
   -0.2953    1.1457   -1.1788 C   0  0  2  0  0  0  0  0  0  0  0  0
   -0.1058    2.1954   -2.2871 C   0  0  0  0  0  0  0  0  0  0  0  0
   -1.6211    3.1800   -2.5739 S   0  0  0  0  0  0  0  0  0  0  0  0
   -2.2928    3.1123   -0.8755 C   0  0  0  0  0  0  0  0  0  0  0  0
   -1.1813    3.0487    0.1784 C   0  0  0  0  0  0  0  0  0  0  0  0
   -0.4226    1.7754    0.1592 N   0  0  0  0  0  0  0  0  0  0  0  0
   -1.0457    0.6487    1.3522 S   0  0  0  0  0  6  0  0  0  0  0  0
   -0.9530    1.2726    2.7173 O   0  0  0  0  0  0  0  0  0  0  0  0
   -0.2124   -0.6025    1.3668 O   0  0  0  0  0  0  0  0  0  0  0  0
   -2.7241    0.2133    1.0307 C   0  0  0  0  0  0  0  0  0  0  0  0
   -3.0238   -0.8726    0.1969 C   0  0  0  0  0  0  0  0  0  0  0  0
   -4.3537   -1.2093   -0.0706 C   0  0  0  0  0  0  0  0  0  0  0  0
   -5.3995   -0.4572    0.4858 C   0  0  0  0  0  0  0  0  0  0  0  0
   -6.8264   -0.8407    0.2286 C   0  0  0  0  0  0  0  0  0  0  0  0
   -5.0983    0.6150    1.3394 C   0  0  0  0  0  0  0  0  0  0  0  0
   -3.7680    0.9508    1.6067 C   0  0  0  0  0  0  0  0  0  0  0  0
    3.7849   -0.6848   -1.9351 C   0  0  0  0  0  0  0  0  0  0  0  0
    4.6112    0.1188   -2.7142 O   0  0  0  0  0  0  0  0  0  0  0  0
    3.3765   -1.7872   -2.3913 O   0  0  0  0  0  0  0  0  0  0  0  0
    4.1701    0.4354   -0.1796 H   0  0  0  0  0  0  0  0  0  0  0  0
    2.3106   -2.0129    0.0385 H   0  0  0  0  0  0  0  0  0  0  0  0
    2.6990   -0.9024    1.3791 H   0  0  0  0  0  0  0  0  0  0  0  0
    4.8398   -2.5174   -0.1750 H   0  0  0  0  0  0  0  0  0  0  0  0
    5.8260   -0.5672    0.9703 H   0  0  0  0  0  0  0  0  0  0  0  0
    6.2299   -2.0426    1.8895 H   0  0  0  0  0  0  0  0  0  0  0  0
    4.9252   -0.9510    2.4921 H   0  0  0  0  0  0  0  0  0  0  0  0
    3.2470   -4.0550    0.9463 H   0  0  0  0  0  0  0  0  0  0  0  0
    3.4644   -3.1694    2.5072 H   0  0  0  0  0  0  0  0  0  0  0  0
    4.8460   -4.0670    1.7628 H   0  0  0  0  0  0  0  0  0  0  0  0
    2.2514    1.6465   -0.3781 H   0  0  0  0  0  0  0  0  0  0  0  0
   -1.2118    0.5625   -1.4184 H   0  0  0  0  0  0  0  0  0  0  0  0
    0.7270    2.8838   -2.0272 H   0  0  0  0  0  0  0  0  0  0  0  0
    0.1507    1.6946   -3.2458 H   0  0  0  0  0  0  0  0  0  0  0  0
   -2.9679    2.2382   -0.7900 H   0  0  0  0  0  0  0  0  0  0  0  0
   -2.9009    4.0260   -0.7087 H   0  0  0  0  0  0  0  0  0  0  0  0
   -1.6239    3.2399    1.1796 H   0  0  0  0  0  0  0  0  0  0  0  0
   -0.4726    3.8859    0.0018 H   0  0  0  0  0  0  0  0  0  0  0  0
   -2.2289   -1.4578   -0.2480 H   0  0  0  0  0  0  0  0  0  0  0  0
   -4.5678   -2.0548   -0.7128 H   0  0  0  0  0  0  0  0  0  0  0  0
   -6.9332   -1.3010   -0.7768 H   0  0  0  0  0  0  0  0  0  0  0  0
   -7.1570   -1.5696    0.9977 H   0  0  0  0  0  0  0  0  0  0  0  0
   -7.4855    0.0526    0.2686 H   0  0  0  0  0  0  0  0  0  0  0  0
   -5.8928    1.1925    1.7957 H   0  0  0  0  0  0  0  0  0  0  0  0
   -3.5537    1.7894    2.2564 H   0  0  0  0  0  0  0  0  0  0  0  0
    4.9036   -0.1776   -3.6376 H   0  0  0  0  0  0  0  0  0  0  0  0
  1  2  1  0
  2  3  1  0
  3  4  1  0
  3  5  1  0
  1  6  1  0
  6  7  1  0
  7  8  2  0
  7  9  1  0
  9 10  1  0
 10 11  1  0
 11 12  1  0
 12 13  1  0
 13 14  1  0
 14 15  1  0
 15 16  2  0
 15 17  2  0
 15 18  1  0
 18 19  2  0
 19 20  1  0
 20 21  2  0
 21 22  1  0
 21 23  1  0
 23 24  2  0
  1 25  1  0
 25 26  1  0
 25 27  2  0
 14  9  1  0
 24 18  1  0
  1 28  1  1
  2 29  1  0
  2 30  1  0
  3 31  1  0
  4 32  1  0
  4 33  1  0
  4 34  1  0
  5 35  1  0
  5 36  1  0
  5 37  1  0
  6 38  1  0
  9 39  1  6
 10 40  1  0
 10 41  1  0
 12 42  1  0
 12 43  1  0
 13 44  1  0
 13 45  1  0
 19 46  1  0
 20 47  1  0
 22 48  1  0
 22 49  1  0
 22 50  1  0
 23 51  1  0
 24 52  1  0
 26 53  1  0
M  END
$$$$
