
     RDKit          3D

 39 41  0  0  0  0  0  0  0  0999 V2000
    0.5743    2.8549   -1.6832 C   0  0  0  0  0  0  0  0  0  0  0  0
    1.6534    1.8800   -1.3120 C   0  0  0  0  0  0  0  0  0  0  0  0
    2.3159    1.3675   -2.2002 O   0  0  0  0  0  0  0  0  0  0  0  0
    1.9338    1.5392    0.1347 C   0  0  0  0  0  0  0  0  0  0  0  0
    1.3587    0.1683    0.5821 C   0  0  0  0  0  0  0  0  0  0  0  0
    2.1088   -1.0836    0.1121 C   0  0  0  0  0  0  0  0  0  0  0  0
    1.5954   -2.3481    0.4719 C   0  0  0  0  0  0  0  0  0  0  0  0
    2.2555   -3.5230    0.1032 C   0  0  0  0  0  0  0  0  0  0  0  0
    3.4531   -3.4584   -0.6080 C   0  0  0  0  0  0  0  0  0  0  0  0
    3.9990   -2.2184   -0.9397 C   0  0  0  0  0  0  0  0  0  0  0  0
    3.3436   -1.0385   -0.5736 C   0  0  0  0  0  0  0  0  0  0  0  0
   -0.1519    0.1088    0.3054 C   0  0  0  0  0  0  0  0  0  0  0  0
   -1.0972    0.6023    1.2441 C   0  0  0  0  0  0  0  0  0  0  0  0
   -0.7145    1.2166    2.4431 O   0  0  0  0  0  0  0  0  0  0  0  0
   -2.4693    0.4903    0.9626 C   0  0  0  0  0  0  0  0  0  0  0  0
   -2.8668   -0.0595   -0.2731 C   0  0  0  0  0  0  0  0  0  0  0  0
   -1.9589   -0.4578   -1.1515 O   0  0  0  0  0  0  0  0  0  0  0  0
   -0.6532   -0.3888   -0.9256 C   0  0  0  0  0  0  0  0  0  0  0  0
    0.1300   -0.7717   -1.8347 O   0  0  0  0  0  0  0  0  0  0  0  0
   -4.2263   -0.1779   -0.5840 C   0  0  0  0  0  0  0  0  0  0  0  0
   -5.1947    0.2506    0.3271 C   0  0  0  0  0  0  0  0  0  0  0  0
   -4.8089    0.8013    1.5516 C   0  0  0  0  0  0  0  0  0  0  0  0
   -3.4533    0.9242    1.8715 C   0  0  0  0  0  0  0  0  0  0  0  0
    0.0239    3.2107   -0.7871 H   0  0  0  0  0  0  0  0  0  0  0  0
    1.0241    3.7289   -2.1987 H   0  0  0  0  0  0  0  0  0  0  0  0
   -0.1501    2.3634   -2.3660 H   0  0  0  0  0  0  0  0  0  0  0  0
    1.4838    2.3258    0.7775 H   0  0  0  0  0  0  0  0  0  0  0  0
    3.0227    1.6024    0.3393 H   0  0  0  0  0  0  0  0  0  0  0  0
    1.5153    0.1234    1.6781 H   0  0  0  0  0  0  0  0  0  0  0  0
    0.6758   -2.4250    1.0390 H   0  0  0  0  0  0  0  0  0  0  0  0
    1.8402   -4.4847    0.3755 H   0  0  0  0  0  0  0  0  0  0  0  0
    3.9651   -4.3691   -0.8910 H   0  0  0  0  0  0  0  0  0  0  0  0
    4.9389   -2.1699   -1.4746 H   0  0  0  0  0  0  0  0  0  0  0  0
    3.8230   -0.1071   -0.8274 H   0  0  0  0  0  0  0  0  0  0  0  0
    0.2321    1.4764    2.6795 H   0  0  0  0  0  0  0  0  0  0  0  0
   -4.5321   -0.5998   -1.5332 H   0  0  0  0  0  0  0  0  0  0  0  0
   -6.2451    0.1579    0.0831 H   0  0  0  0  0  0  0  0  0  0  0  0
   -5.5619    1.1340    2.2544 H   0  0  0  0  0  0  0  0  0  0  0  0
   -3.1820    1.3544    2.8274 H   0  0  0  0  0  0  0  0  0  0  0  0
  1  2  1  0
  2  3  2  0
  2  4  1  0
  4  5  1  0
  5  6  1  0
  6  7  2  0
  7  8  1  0
  8  9  2  0
  9 10  1  0
 10 11  2  0
  5 12  1  0
 12 13  2  0
 13 14  1  0
 13 15  1  0
 15 16  2  0
 16 17  1  0
 17 18  1  0
 18 19  2  0
 16 20  1  0
 20 21  2  0
 21 22  1  0
 22 23  2  0
 11  6  1  0
 18 12  1  0
 23 15  1  0
  1 24  1  0
  1 25  1  0
  1 26  1  0
  4 27  1  0
  4 28  1  0
  5 29  1  0
  7 30  1  0
  8 31  1  0
  9 32  1  0
 10 33  1  0
 11 34  1  0
 14 35  1  0
 20 36  1  0
 21 37  1  0
 22 38  1  0
 23 39  1  0
M  END
$$$$
