
     RDKit          3D

 38 39  0  0  0  0  0  0  0  0999 V2000
   -1.2601   -1.7867    1.7130 C   0  0  2  0  0  0  0  0  0  0  0  0
   -2.5399   -1.4736    0.9133 C   0  0  0  0  0  0  0  0  0  0  0  0
   -2.4519   -0.1556    0.1891 C   0  0  0  0  0  0  0  0  0  0  0  0
   -2.1141   -0.1128   -1.1748 C   0  0  0  0  0  0  0  0  0  0  0  0
   -1.9749    1.1156   -1.8277 C   0  0  0  0  0  0  0  0  0  0  0  0
   -2.1763    2.3079   -1.1273 C   0  0  0  0  0  0  0  0  0  0  0  0
   -2.5191    2.2740    0.2271 C   0  0  0  0  0  0  0  0  0  0  0  0
   -2.6567    1.0478    0.8850 C   0  0  0  0  0  0  0  0  0  0  0  0
   -0.1488   -2.0029    0.8352 O   0  0  0  0  0  0  0  0  0  0  0  0
    0.6583   -1.0125    0.2495 C   0  0  0  0  0  0  0  0  0  0  0  0
    1.4432   -1.3742   -0.8516 C   0  0  0  0  0  0  0  0  0  0  0  0
    2.2396   -0.4272   -1.5011 C   0  0  0  0  0  0  0  0  0  0  0  0
    2.2624    0.9026   -1.0558 C   0  0  0  0  0  0  0  0  0  0  0  0
    3.1366    1.9187   -1.7401 C   0  0  0  0  0  0  0  0  0  0  0  0
    4.5257    1.9471   -1.1115 C   0  0  0  0  0  0  0  0  0  0  0  0
    1.5059    1.2626    0.0691 C   0  0  0  0  0  0  0  0  0  0  0  0
    0.7121    0.3145    0.7204 C   0  0  0  0  0  0  0  0  0  0  0  0
   -1.4769   -3.0316    2.5200 C   0  0  0  0  0  0  0  0  0  0  0  0
   -1.7858   -2.9344    3.8734 O   0  0  0  0  0  0  0  0  0  0  0  0
   -1.4181   -4.1642    1.9694 O   0  0  0  0  0  0  0  0  0  0  0  0
   -1.0469   -0.9698    2.4322 H   0  0  0  0  0  0  0  0  0  0  0  0
   -2.7360   -2.2945    0.1882 H   0  0  0  0  0  0  0  0  0  0  0  0
   -3.4106   -1.4403    1.6056 H   0  0  0  0  0  0  0  0  0  0  0  0
   -1.9388   -1.0283   -1.7261 H   0  0  0  0  0  0  0  0  0  0  0  0
   -1.7043    1.1432   -2.8753 H   0  0  0  0  0  0  0  0  0  0  0  0
   -2.0646    3.2580   -1.6335 H   0  0  0  0  0  0  0  0  0  0  0  0
   -2.6715    3.1982    0.7691 H   0  0  0  0  0  0  0  0  0  0  0  0
   -2.9075    1.0350    1.9384 H   0  0  0  0  0  0  0  0  0  0  0  0
    1.4237   -2.3936   -1.2155 H   0  0  0  0  0  0  0  0  0  0  0  0
    2.8354   -0.7299   -2.3533 H   0  0  0  0  0  0  0  0  0  0  0  0
    3.2283    1.6778   -2.8217 H   0  0  0  0  0  0  0  0  0  0  0  0
    2.6789    2.9291   -1.6644 H   0  0  0  0  0  0  0  0  0  0  0  0
    5.1533    2.7018   -1.6303 H   0  0  0  0  0  0  0  0  0  0  0  0
    5.0125    0.9529   -1.2072 H   0  0  0  0  0  0  0  0  0  0  0  0
    4.4569    2.2198   -0.0366 H   0  0  0  0  0  0  0  0  0  0  0  0
    1.5312    2.2790    0.4425 H   0  0  0  0  0  0  0  0  0  0  0  0
    0.1492    0.6331    1.5838 H   0  0  0  0  0  0  0  0  0  0  0  0
   -1.9503   -3.7649    4.4296 H   0  0  0  0  0  0  0  0  0  0  0  0
  1  2  1  0
  2  3  1  0
  3  4  2  0
  4  5  1  0
  5  6  2  0
  6  7  1  0
  7  8  2  0
  1  9  1  0
  9 10  1  0
 10 11  2  0
 11 12  1  0
 12 13  2  0
 13 14  1  0
 14 15  1  0
 13 16  1  0
 16 17  2  0
  1 18  1  0
 18 19  1  0
 18 20  2  0
  8  3  1  0
 17 10  1  0
  1 21  1  1
  2 22  1  0
  2 23  1  0
  4 24  1  0
  5 25  1  0
  6 26  1  0
  7 27  1  0
  8 28  1  0
 11 29  1  0
 12 30  1  0
 14 31  1  0
 14 32  1  0
 15 33  1  0
 15 34  1  0
 15 35  1  0
 16 36  1  0
 17 37  1  0
 19 38  1  0
M  END
$$$$
