
     RDKit          3D

 39 38  0  0  0  0  0  0  0  0999 V2000
    7.5070   -0.6214    0.7837 O   0  0  0  0  0  0  0  0  0  0  0  0
    6.3105   -0.7491    0.5812 C   0  0  0  0  0  0  0  0  0  0  0  0
    5.3646    0.3510    0.9692 C   0  0  0  0  0  0  0  0  0  0  0  0
    3.9103    0.0305    0.5972 C   0  0  0  0  0  0  0  0  0  0  0  0
    3.6761    0.0826   -0.9216 C   0  0  0  0  0  0  0  0  0  0  0  0
    2.2301   -0.1668   -1.2590 C   0  0  0  0  0  0  0  0  0  0  0  0
    1.2114    0.7083   -1.1015 C   0  0  0  0  0  0  0  0  0  0  0  0
   -0.1917    0.2399   -1.4039 C   0  0  0  0  0  0  0  0  0  0  0  0
   -0.8131   -0.4320   -0.1723 C   0  0  0  0  0  0  0  0  0  0  0  0
   -2.2212   -0.8875   -0.4489 C   0  0  0  0  0  0  0  0  0  0  0  0
   -3.3158   -0.0979   -0.5332 C   0  0  0  0  0  0  0  0  0  0  0  0
   -4.6437   -0.7471   -0.8569 C   0  0  0  0  0  0  0  0  0  0  0  0
   -5.2969   -1.3636    0.3878 C   0  0  0  0  0  0  0  0  0  0  0  0
   -5.6906   -0.3200    1.3920 C   0  0  0  0  0  0  0  0  0  0  0  0
   -6.5509    0.5037    1.1242 O   0  0  0  0  0  0  0  0  0  0  0  0
   -3.3230    1.3668   -0.2840 C   0  0  0  0  0  0  0  0  0  0  0  0
   -2.3264    1.9855    0.1707 O   0  0  0  0  0  0  0  0  0  0  0  0
    1.3601    2.0922   -0.5847 C   0  0  0  0  0  0  0  0  0  0  0  0
    2.4758    2.6666   -0.4916 O   0  0  0  0  0  0  0  0  0  0  0  0
    5.9466   -1.6643    0.1244 H   0  0  0  0  0  0  0  0  0  0  0  0
    5.6785    1.3004    0.4835 H   0  0  0  0  0  0  0  0  0  0  0  0
    5.4281    0.4941    2.0694 H   0  0  0  0  0  0  0  0  0  0  0  0
    3.6350   -0.9747    0.9869 H   0  0  0  0  0  0  0  0  0  0  0  0
    3.2546    0.7696    1.1038 H   0  0  0  0  0  0  0  0  0  0  0  0
    4.2783   -0.7190   -1.4003 H   0  0  0  0  0  0  0  0  0  0  0  0
    4.0272    1.0385   -1.3616 H   0  0  0  0  0  0  0  0  0  0  0  0
    2.0053   -1.1534   -1.6495 H   0  0  0  0  0  0  0  0  0  0  0  0
   -0.8109    1.1023   -1.7303 H   0  0  0  0  0  0  0  0  0  0  0  0
   -0.1846   -0.4785   -2.2542 H   0  0  0  0  0  0  0  0  0  0  0  0
   -0.2058   -1.3299    0.0762 H   0  0  0  0  0  0  0  0  0  0  0  0
   -0.7746    0.2254    0.7209 H   0  0  0  0  0  0  0  0  0  0  0  0
   -2.3454   -1.9546   -0.5985 H   0  0  0  0  0  0  0  0  0  0  0  0
   -4.4948   -1.5471   -1.6156 H   0  0  0  0  0  0  0  0  0  0  0  0
   -5.3378   -0.0112   -1.3195 H   0  0  0  0  0  0  0  0  0  0  0  0
   -4.5965   -2.0850    0.8617 H   0  0  0  0  0  0  0  0  0  0  0  0
   -6.2049   -1.9267    0.0826 H   0  0  0  0  0  0  0  0  0  0  0  0
   -5.2170   -0.3022    2.3680 H   0  0  0  0  0  0  0  0  0  0  0  0
   -4.2281    1.9285   -0.4746 H   0  0  0  0  0  0  0  0  0  0  0  0
    0.4739    2.6461   -0.3034 H   0  0  0  0  0  0  0  0  0  0  0  0
  1  2  2  0
  2  3  1  0
  3  4  1  0
  4  5  1  0
  5  6  1  0
  6  7  2  3
  7  8  1  0
  8  9  1  0
  9 10  1  0
 10 11  2  3
 11 12  1  0
 12 13  1  0
 13 14  1  0
 14 15  2  0
 11 16  1  0
 16 17  2  0
  7 18  1  0
 18 19  2  0
  2 20  1  0
  3 21  1  0
  3 22  1  0
  4 23  1  0
  4 24  1  0
  5 25  1  0
  5 26  1  0
  6 27  1  0
  8 28  1  0
  8 29  1  0
  9 30  1  0
  9 31  1  0
 10 32  1  0
 12 33  1  0
 12 34  1  0
 13 35  1  0
 13 36  1  0
 14 37  1  0
 16 38  1  0
 18 39  1  0
M  END
$$$$
