
     RDKit          3D

 66 71  0  0  0  0  0  0  0  0999 V2000
    0.7204   -5.6794   -2.6660 C   0  0  0  0  0  0  0  0  0  0  0  0
    1.5727   -4.6392   -1.9486 C   0  0  0  0  0  0  0  0  0  0  0  0
    0.9790   -3.3473   -2.0482 O   0  0  0  0  0  0  0  0  0  0  0  0
   -0.1289   -2.9509   -1.2906 C   0  0  0  0  0  0  0  0  0  0  0  0
   -0.7096   -3.7420   -0.3554 N   0  0  0  0  0  0  0  0  0  0  0  0
   -1.6735   -2.9526    0.1446 C   0  0  0  0  0  0  0  0  0  0  0  0
   -1.6896   -1.7328   -0.4856 C   0  0  0  0  0  0  0  0  0  0  0  0
   -0.6874   -1.7171   -1.3984 N   0  0  0  0  0  0  0  0  0  0  0  0
   -0.0390   -0.5835   -2.0709 C   0  0  0  0  0  0  0  0  0  0  0  0
    1.0541   -0.0237   -1.1992 C   0  0  0  0  0  0  0  0  0  0  0  0
    0.7457    0.8817   -0.1728 C   0  0  0  0  0  0  0  0  0  0  0  0
    1.7458    1.3445    0.6853 C   0  0  0  0  0  0  0  0  0  0  0  0
    3.0676    0.8952    0.5399 C   0  0  0  0  0  0  0  0  0  0  0  0
    3.3814    0.0043   -0.4975 C   0  0  0  0  0  0  0  0  0  0  0  0
    2.3804   -0.4577   -1.3564 C   0  0  0  0  0  0  0  0  0  0  0  0
    4.1228    1.3647    1.4656 C   0  0  0  0  0  0  0  0  0  0  0  0
    5.2212    2.0578    0.9283 C   0  0  0  0  0  0  0  0  0  0  0  0
    6.2040    2.5891    1.7640 C   0  0  0  0  0  0  0  0  0  0  0  0
    6.1033    2.4359    3.1456 C   0  0  0  0  0  0  0  0  0  0  0  0
    5.0270    1.7386    3.6972 C   0  0  0  0  0  0  0  0  0  0  0  0
    4.0313    1.1842    2.8721 C   0  0  0  0  0  0  0  0  0  0  0  0
    2.9498    0.3837    3.4978 C   0  0  0  0  0  0  0  0  0  0  0  0
    2.3626   -0.6864    2.9154 N   0  0  0  0  0  0  0  0  0  0  0  0
    1.4926   -1.1184    3.7816 O   0  0  0  0  0  0  0  0  0  0  0  0
    1.5367   -0.3639    4.8495 C   0  0  0  0  0  0  0  0  0  0  0  0
    0.8095   -0.5294    5.8634 O   0  0  0  0  0  0  0  0  0  0  0  0
    2.4515    0.6098    4.7313 N   0  0  0  0  0  0  0  0  0  0  0  0
   -2.6229   -0.7386   -0.1124 C   0  0  0  0  0  0  0  0  0  0  0  0
   -3.4657   -1.0185    0.9853 C   0  0  0  0  0  0  0  0  0  0  0  0
   -3.4113   -2.2647    1.6400 C   0  0  0  0  0  0  0  0  0  0  0  0
   -2.5176   -3.2547    1.2082 C   0  0  0  0  0  0  0  0  0  0  0  0
   -2.8723    0.4863   -0.8812 C   0  0  0  0  0  0  0  0  0  0  0  0
   -3.1142    0.4121   -2.1170 O   0  0  0  0  0  0  0  0  0  0  0  0
   -2.9306    1.7154   -0.2146 O   0  0  0  0  0  0  0  0  0  0  0  0
   -3.1942    2.9496   -0.8756 C   0  0  0  0  0  0  0  0  0  0  0  0
   -4.6278    3.0120   -1.3048 C   0  0  0  0  0  0  0  0  0  0  0  0
   -5.1243    3.2128   -2.5809 C   0  0  0  0  0  0  0  0  0  0  0  0
   -4.3451    3.4158   -3.8383 C   0  0  0  0  0  0  0  0  0  0  0  0
   -6.4347    3.1938   -2.5099 O   0  0  0  0  0  0  0  0  0  0  0  0
   -6.7226    2.9913   -1.2445 C   0  0  0  0  0  0  0  0  0  0  0  0
   -7.8974    2.9139   -0.7999 O   0  0  0  0  0  0  0  0  0  0  0  0
   -5.6510    2.8785   -0.4936 O   0  0  0  0  0  0  0  0  0  0  0  0
   -0.2738   -5.7678   -2.1807 H   0  0  0  0  0  0  0  0  0  0  0  0
    0.5823   -5.3880   -3.7287 H   0  0  0  0  0  0  0  0  0  0  0  0
    1.2255   -6.6674   -2.6262 H   0  0  0  0  0  0  0  0  0  0  0  0
    2.5734   -4.6054   -2.4285 H   0  0  0  0  0  0  0  0  0  0  0  0
    1.7111   -4.9209   -0.8822 H   0  0  0  0  0  0  0  0  0  0  0  0
    0.3841   -0.9246   -3.0411 H   0  0  0  0  0  0  0  0  0  0  0  0
   -0.7526    0.2136   -2.3294 H   0  0  0  0  0  0  0  0  0  0  0  0
   -0.2687    1.2254   -0.0300 H   0  0  0  0  0  0  0  0  0  0  0  0
    1.4883    2.0438    1.4714 H   0  0  0  0  0  0  0  0  0  0  0  0
    4.3970   -0.3493   -0.6271 H   0  0  0  0  0  0  0  0  0  0  0  0
    2.6394   -1.1612   -2.1376 H   0  0  0  0  0  0  0  0  0  0  0  0
    5.3049    2.2068   -0.1416 H   0  0  0  0  0  0  0  0  0  0  0  0
    7.0415    3.1275    1.3396 H   0  0  0  0  0  0  0  0  0  0  0  0
    6.8672    2.8496    3.7914 H   0  0  0  0  0  0  0  0  0  0  0  0
    4.9912    1.6078    4.7713 H   0  0  0  0  0  0  0  0  0  0  0  0
    2.6946    1.3587    5.4171 H   0  0  0  0  0  0  0  0  0  0  0  0
   -4.1995   -0.2898    1.3084 H   0  0  0  0  0  0  0  0  0  0  0  0
   -4.0759   -2.4660    2.4702 H   0  0  0  0  0  0  0  0  0  0  0  0
   -2.4710   -4.2161    1.7031 H   0  0  0  0  0  0  0  0  0  0  0  0
   -3.0025    3.7812   -0.1667 H   0  0  0  0  0  0  0  0  0  0  0  0
   -2.5066    3.0705   -1.7400 H   0  0  0  0  0  0  0  0  0  0  0  0
   -5.0376    3.5651   -4.6929 H   0  0  0  0  0  0  0  0  0  0  0  0
   -3.6979    4.3117   -3.7368 H   0  0  0  0  0  0  0  0  0  0  0  0
   -3.7141    2.5245   -4.0359 H   0  0  0  0  0  0  0  0  0  0  0  0
  1  2  1  0
  2  3  1  0
  3  4  1  0
  4  5  2  0
  5  6  1  0
  6  7  2  0
  7  8  1  0
  8  9  1  0
  9 10  1  0
 10 11  2  0
 11 12  1  0
 12 13  2  0
 13 14  1  0
 14 15  2  0
 13 16  1  0
 16 17  2  0
 17 18  1  0
 18 19  2  0
 19 20  1  0
 20 21  2  0
 21 22  1  0
 22 23  2  0
 23 24  1  0
 24 25  1  0
 25 26  2  0
 25 27  1  0
  7 28  1  0
 28 29  2  0
 29 30  1  0
 30 31  2  0
 28 32  1  0
 32 33  2  0
 32 34  1  0
 34 35  1  0
 35 36  1  0
 36 37  2  0
 37 38  1  0
 37 39  1  0
 39 40  1  0
 40 41  2  0
 40 42  1  0
  8  4  1  0
 15 10  1  0
 21 16  1  0
 27 22  1  0
 42 36  1  0
 31  6  1  0
  1 43  1  0
  1 44  1  0
  1 45  1  0
  2 46  1  0
  2 47  1  0
  9 48  1  0
  9 49  1  0
 11 50  1  0
 12 51  1  0
 14 52  1  0
 15 53  1  0
 17 54  1  0
 18 55  1  0
 19 56  1  0
 20 57  1  0
 27 58  1  0
 29 59  1  0
 30 60  1  0
 31 61  1  0
 35 62  1  0
 35 63  1  0
 38 64  1  0
 38 65  1  0
 38 66  1  0
M  END
$$$$
