
     RDKit          3D

 68 72  0  0  0  0  0  0  0  0999 V2000
    5.5681    2.3300   -0.9534 C   0  0  0  0  0  0  0  0  0  0  0  0
    6.1415    3.2972   -0.3120 N   0  0  0  0  0  0  0  0  0  0  0  0
    7.3054    3.8566   -0.7845 O   0  0  0  0  0  0  0  0  0  0  0  0
    4.3179    1.7191   -0.4588 C   0  0  0  0  0  0  0  0  0  0  0  0
    3.7299    0.6730   -1.1825 C   0  0  0  0  0  0  0  0  0  0  0  0
    2.5474    0.0775   -0.7367 C   0  0  0  0  0  0  0  0  0  0  0  0
    1.9170    0.5229    0.4446 C   0  0  0  0  0  0  0  0  0  0  0  0
    2.5224    1.5633    1.1728 C   0  0  0  0  0  0  0  0  0  0  0  0
    3.7046    2.1587    0.7258 C   0  0  0  0  0  0  0  0  0  0  0  0
    0.6361   -0.1113    0.9926 C   0  0  1  0  0  0  0  0  0  0  0  0
   -0.5468    0.9088    0.9845 C   0  0  0  0  0  0  0  0  0  0  0  0
   -1.4569    0.8085   -0.2616 C   0  0  1  0  0  0  0  0  0  0  0  0
   -0.6402    1.2246   -1.5312 C   0  0  0  0  0  0  0  0  0  0  0  0
   -1.9599   -0.6343   -0.3376 C   0  0  1  0  0  0  0  0  0  0  0  0
   -3.1177   -0.5858   -1.3273 C   0  0  0  0  0  0  0  0  0  0  0  0
   -3.7081    0.8276   -1.1970 C   0  0  0  0  0  0  0  0  0  0  0  0
   -2.7965    1.6444   -0.2242 C   0  0  1  0  0  0  0  0  0  0  0  0
   -3.4206    1.7125    1.2153 C   0  0  0  0  0  0  0  0  0  0  0  0
   -4.7588    2.1699    1.1765 O   0  0  0  0  0  0  0  0  0  0  0  0
   -5.2519    2.3062    2.4904 C   0  0  0  0  0  0  0  0  0  0  0  0
   -2.5147    2.9580   -0.7192 O   0  0  0  0  0  0  0  0  0  0  0  0
   -3.6454    3.8005   -0.8298 C   0  0  0  0  0  0  0  0  0  0  0  0
   -0.8464   -1.6697   -0.6067 C   0  0  2  0  0  0  0  0  0  0  0  0
   -1.4356   -3.0892   -0.5108 C   0  0  0  0  0  0  0  0  0  0  0  0
   -0.3687   -4.1246   -0.8307 C   0  0  0  0  0  0  0  0  0  0  0  0
    0.8605   -3.9072    0.0082 C   0  0  0  0  0  0  0  0  0  0  0  0
    1.7411   -4.9150    0.1184 C   0  0  0  0  0  0  0  0  0  0  0  0
    3.0200   -4.7424    0.8182 C   0  0  0  0  0  0  0  0  0  0  0  0
    3.7801   -5.7317    0.9911 O   0  0  0  0  0  0  0  0  0  0  0  0
    3.4584   -3.3765    1.2415 C   0  0  0  0  0  0  0  0  0  0  0  0
    2.2586   -2.5309    1.6735 C   0  0  0  0  0  0  0  0  0  0  0  0
    1.1358   -2.5738    0.6397 C   0  0  0  0  0  0  0  0  0  0  0  0
    0.3207   -1.5013    0.3854 C   0  0  0  0  0  0  0  0  0  0  0  0
    6.0137    1.9618   -1.8706 H   0  0  0  0  0  0  0  0  0  0  0  0
    7.7462    4.6125   -0.2760 H   0  0  0  0  0  0  0  0  0  0  0  0
    4.1887    0.3125   -2.0952 H   0  0  0  0  0  0  0  0  0  0  0  0
    2.1346   -0.7324   -1.3225 H   0  0  0  0  0  0  0  0  0  0  0  0
    2.0781    1.9131    2.0965 H   0  0  0  0  0  0  0  0  0  0  0  0
    4.1390    2.9596    1.3108 H   0  0  0  0  0  0  0  0  0  0  0  0
    0.8178   -0.2879    2.0765 H   0  0  0  0  0  0  0  0  0  0  0  0
   -1.1371    0.7042    1.9019 H   0  0  0  0  0  0  0  0  0  0  0  0
   -0.1846    1.9541    1.0925 H   0  0  0  0  0  0  0  0  0  0  0  0
   -0.1956    2.2333   -1.3916 H   0  0  0  0  0  0  0  0  0  0  0  0
    0.1910    0.5424   -1.7582 H   0  0  0  0  0  0  0  0  0  0  0  0
   -1.2774    1.2570   -2.4391 H   0  0  0  0  0  0  0  0  0  0  0  0
   -2.4005   -0.9152    0.6459 H   0  0  0  0  0  0  0  0  0  0  0  0
   -2.7525   -0.7561   -2.3641 H   0  0  0  0  0  0  0  0  0  0  0  0
   -3.8814   -1.3563   -1.0830 H   0  0  0  0  0  0  0  0  0  0  0  0
   -4.7603    0.7661   -0.8463 H   0  0  0  0  0  0  0  0  0  0  0  0
   -3.7212    1.2986   -2.2046 H   0  0  0  0  0  0  0  0  0  0  0  0
   -3.4078    0.7088    1.6893 H   0  0  0  0  0  0  0  0  0  0  0  0
   -2.7949    2.4034    1.8265 H   0  0  0  0  0  0  0  0  0  0  0  0
   -6.3061    2.6472    2.4380 H   0  0  0  0  0  0  0  0  0  0  0  0
   -5.2398    1.3331    3.0302 H   0  0  0  0  0  0  0  0  0  0  0  0
   -4.6787    3.0732    3.0570 H   0  0  0  0  0  0  0  0  0  0  0  0
   -4.5585    3.2789   -1.1857 H   0  0  0  0  0  0  0  0  0  0  0  0
   -3.4166    4.5940   -1.5701 H   0  0  0  0  0  0  0  0  0  0  0  0
   -3.8396    4.3055    0.1395 H   0  0  0  0  0  0  0  0  0  0  0  0
   -0.4585   -1.5464   -1.6402 H   0  0  0  0  0  0  0  0  0  0  0  0
   -1.8336   -3.2731    0.5124 H   0  0  0  0  0  0  0  0  0  0  0  0
   -2.2690   -3.2145   -1.2350 H   0  0  0  0  0  0  0  0  0  0  0  0
   -0.0904   -4.0537   -1.9049 H   0  0  0  0  0  0  0  0  0  0  0  0
   -0.7908   -5.1372   -0.6458 H   0  0  0  0  0  0  0  0  0  0  0  0
    1.5282   -5.8769   -0.3343 H   0  0  0  0  0  0  0  0  0  0  0  0
    3.9704   -2.8839    0.3865 H   0  0  0  0  0  0  0  0  0  0  0  0
    4.1784   -3.4524    2.0852 H   0  0  0  0  0  0  0  0  0  0  0  0
    1.8619   -2.9225    2.6351 H   0  0  0  0  0  0  0  0  0  0  0  0
    2.6496   -1.5159    1.8678 H   0  0  0  0  0  0  0  0  0  0  0  0
  1  2  2  0
  2  3  1  0
  1  4  1  0
  4  5  2  0
  5  6  1  0
  6  7  2  0
  7  8  1  0
  8  9  2  0
  7 10  1  0
 10 11  1  0
 11 12  1  0
 12 13  1  6
 12 14  1  0
 14 15  1  0
 15 16  1  0
 16 17  1  0
 17 18  1  0
 18 19  1  0
 19 20  1  0
 17 21  1  6
 21 22  1  0
 14 23  1  0
 23 24  1  0
 24 25  1  0
 25 26  1  0
 26 27  2  0
 27 28  1  0
 28 29  2  0
 28 30  1  0
 30 31  1  0
 31 32  1  0
 32 33  2  0
  9  4  1  0
 33 10  1  0
 17 12  1  0
 33 23  1  0
 32 26  1  0
  1 34  1  0
  3 35  1  0
  5 36  1  0
  6 37  1  0
  8 38  1  0
  9 39  1  0
 10 40  1  1
 11 41  1  0
 11 42  1  0
 13 43  1  0
 13 44  1  0
 13 45  1  0
 14 46  1  1
 15 47  1  0
 15 48  1  0
 16 49  1  0
 16 50  1  0
 18 51  1  0
 18 52  1  0
 20 53  1  0
 20 54  1  0
 20 55  1  0
 22 56  1  0
 22 57  1  0
 22 58  1  0
 23 59  1  6
 24 60  1  0
 24 61  1  0
 25 62  1  0
 25 63  1  0
 27 64  1  0
 30 65  1  0
 30 66  1  0
 31 67  1  0
 31 68  1  0
M  END
$$$$
