
     RDKit          3D

 61 65  0  0  0  0  0  0  0  0999 V2000
    2.1777    1.4142    2.6133 C   0  0  0  0  0  0  0  0  0  0  0  0
    3.2439    1.0262    1.6217 C   0  0  0  0  0  0  0  0  0  0  0  0
    4.5911    1.2077    1.9695 C   0  0  0  0  0  0  0  0  0  0  0  0
    5.6101    0.8815    1.0733 C   0  0  0  0  0  0  0  0  0  0  0  0
    5.3056    0.3537   -0.1912 C   0  0  0  0  0  0  0  0  0  0  0  0
    3.9587    0.1636   -0.5419 C   0  0  0  0  0  0  0  0  0  0  0  0
    2.9247    0.4748    0.3572 C   0  0  0  0  0  0  0  0  0  0  0  0
    1.5262    0.2176   -0.0552 C   0  0  0  0  0  0  0  0  0  0  0  0
    0.7231   -0.6777    0.6714 C   0  0  0  0  0  0  0  0  0  0  0  0
   -0.5974   -0.9208    0.2695 C   0  0  0  0  0  0  0  0  0  0  0  0
   -1.1179   -0.2759   -0.8690 C   0  0  0  0  0  0  0  0  0  0  0  0
   -0.3142    0.6046   -1.5994 C   0  0  0  0  0  0  0  0  0  0  0  0
    1.0028    0.8474   -1.1972 C   0  0  0  0  0  0  0  0  0  0  0  0
   -2.3988   -0.5147   -1.2535 N   0  0  0  0  0  0  0  0  0  0  0  0
   -3.1941   -1.3692   -0.5558 C   0  0  0  0  0  0  0  0  0  0  0  0
   -4.5428   -1.5914   -0.9868 N   0  0  0  0  0  0  0  0  0  0  0  0
   -5.4735   -2.4584   -0.2683 C   0  0  0  0  0  0  0  0  0  0  0  0
   -5.9686   -1.8209    1.0496 C   0  0  0  0  0  0  0  0  0  0  0  0
   -6.7557   -0.5731    0.9069 N   0  0  0  0  0  0  0  0  0  0  0  0
   -7.7827   -0.5966   -0.1466 C   0  0  0  0  0  0  0  0  0  0  0  0
   -8.6945    0.6419   -0.0093 C   0  0  0  0  0  0  0  0  0  0  0  0
   -8.1729    1.6091    0.8882 O   0  0  0  0  0  0  0  0  0  0  0  0
   -6.8222    1.8835    0.5723 C   0  0  0  0  0  0  0  0  0  0  0  0
   -5.9375    0.6533    0.8510 C   0  0  0  0  0  0  0  0  0  0  0  0
   -2.7039   -2.0031    0.5452 N   0  0  0  0  0  0  0  0  0  0  0  0
   -1.4302   -1.7983    0.9696 C   0  0  0  0  0  0  0  0  0  0  0  0
    6.3787    0.0160   -1.1575 C   0  0  0  0  0  0  0  0  0  0  0  0
    6.1134   -0.0204   -2.3907 O   0  0  0  0  0  0  0  0  0  0  0  0
    7.7108   -0.2821   -0.7132 N   0  0  0  0  0  0  0  0  0  0  0  0
    8.7961   -0.5014   -1.6643 C   0  0  0  0  0  0  0  0  0  0  0  0
   10.1361    0.0461   -1.2046 C   0  0  0  0  0  0  0  0  0  0  0  0
    9.3352    0.7858   -2.2646 C   0  0  0  0  0  0  0  0  0  0  0  0
    2.5590    2.1678    3.3350 H   0  0  0  0  0  0  0  0  0  0  0  0
    1.3046    1.8649    2.0963 H   0  0  0  0  0  0  0  0  0  0  0  0
    1.8507    0.5182    3.1801 H   0  0  0  0  0  0  0  0  0  0  0  0
    4.8567    1.6191    2.9358 H   0  0  0  0  0  0  0  0  0  0  0  0
    6.6339    1.0709    1.3668 H   0  0  0  0  0  0  0  0  0  0  0  0
    3.7094   -0.2540   -1.5108 H   0  0  0  0  0  0  0  0  0  0  0  0
    1.1291   -1.1879    1.5372 H   0  0  0  0  0  0  0  0  0  0  0  0
   -0.7070    1.1018   -2.4777 H   0  0  0  0  0  0  0  0  0  0  0  0
    1.6134    1.5342   -1.7706 H   0  0  0  0  0  0  0  0  0  0  0  0
   -4.8593   -1.1568   -1.8830 H   0  0  0  0  0  0  0  0  0  0  0  0
   -4.9697   -3.4219   -0.0373 H   0  0  0  0  0  0  0  0  0  0  0  0
   -6.3331   -2.7109   -0.9240 H   0  0  0  0  0  0  0  0  0  0  0  0
   -6.6097   -2.5701    1.5616 H   0  0  0  0  0  0  0  0  0  0  0  0
   -5.1060   -1.6522    1.7302 H   0  0  0  0  0  0  0  0  0  0  0  0
   -7.3046   -0.5770   -1.1511 H   0  0  0  0  0  0  0  0  0  0  0  0
   -8.3970   -1.5203   -0.0634 H   0  0  0  0  0  0  0  0  0  0  0  0
   -8.8734    1.1036   -1.0061 H   0  0  0  0  0  0  0  0  0  0  0  0
   -9.6838    0.3175    0.3777 H   0  0  0  0  0  0  0  0  0  0  0  0
   -6.7236    2.2018   -0.4916 H   0  0  0  0  0  0  0  0  0  0  0  0
   -6.4756    2.7352    1.1953 H   0  0  0  0  0  0  0  0  0  0  0  0
   -5.4274    0.7893    1.8295 H   0  0  0  0  0  0  0  0  0  0  0  0
   -5.1607    0.5909    0.0638 H   0  0  0  0  0  0  0  0  0  0  0  0
   -1.0734   -2.3180    1.8499 H   0  0  0  0  0  0  0  0  0  0  0  0
    7.8894   -0.4914    0.2941 H   0  0  0  0  0  0  0  0  0  0  0  0
    8.7771   -1.3990   -2.3181 H   0  0  0  0  0  0  0  0  0  0  0  0
   11.0155   -0.5023   -1.6031 H   0  0  0  0  0  0  0  0  0  0  0  0
   10.1395    0.5450   -0.2117 H   0  0  0  0  0  0  0  0  0  0  0  0
    8.8599    1.7223   -1.9011 H   0  0  0  0  0  0  0  0  0  0  0  0
    9.7388    0.6781   -3.2934 H   0  0  0  0  0  0  0  0  0  0  0  0
  1  2  1  0
  2  3  2  0
  3  4  1  0
  4  5  2  0
  5  6  1  0
  6  7  2  0
  7  8  1  0
  8  9  2  0
  9 10  1  0
 10 11  2  0
 11 12  1  0
 12 13  2  0
 11 14  1  0
 14 15  2  0
 15 16  1  0
 16 17  1  0
 17 18  1  0
 18 19  1  0
 19 20  1  0
 20 21  1  0
 21 22  1  0
 22 23  1  0
 23 24  1  0
 15 25  1  0
 25 26  2  0
  5 27  1  0
 27 28  2  0
 27 29  1  0
 29 30  1  0
 30 31  1  0
 31 32  1  0
  7  2  1  0
 13  8  1  0
 24 19  1  0
 32 30  1  0
 26 10  1  0
  1 33  1  0
  1 34  1  0
  1 35  1  0
  3 36  1  0
  4 37  1  0
  6 38  1  0
  9 39  1  0
 12 40  1  0
 13 41  1  0
 16 42  1  0
 17 43  1  0
 17 44  1  0
 18 45  1  0
 18 46  1  0
 20 47  1  0
 20 48  1  0
 21 49  1  0
 21 50  1  0
 23 51  1  0
 23 52  1  0
 24 53  1  0
 24 54  1  0
 26 55  1  0
 29 56  1  0
 30 57  1  0
 31 58  1  0
 31 59  1  0
 32 60  1  0
 32 61  1  0
M  END
$$$$
