
     RDKit          3D

 30 31  0  0  0  0  0  0  0  0999 V2000
   -6.2427   -0.1412   -0.1880 C   0  0  0  0  0  0  0  0  0  0  0  0
   -4.9144   -0.7556   -0.4733 C   0  0  0  0  0  0  0  0  0  0  0  0
   -3.7063   -0.3700    0.0652 C   0  0  0  0  0  0  0  0  0  0  0  0
   -2.8010   -1.2288   -0.5310 C   0  0  0  0  0  0  0  0  0  0  0  0
   -3.4534   -2.0596   -1.3692 N   0  0  0  0  0  0  0  0  0  0  0  0
   -4.7149   -1.7460   -1.3102 O   0  0  0  0  0  0  0  0  0  0  0  0
   -1.3432   -1.2687   -0.3211 C   0  0  0  0  0  0  0  0  0  0  0  0
   -0.6572   -2.1203   -0.9480 O   0  0  0  0  0  0  0  0  0  0  0  0
   -0.6942   -0.3613    0.5774 N   0  0  0  0  0  0  0  0  0  0  0  0
    0.7025   -0.3964    0.7298 N   0  0  0  0  0  0  0  0  0  0  0  0
    1.2634    0.7976    0.0969 C   0  0  0  0  0  0  0  0  0  0  0  0
    2.7647    0.7261    0.1209 C   0  0  0  0  0  0  0  0  0  0  0  0
    3.4545    0.0205   -0.8790 C   0  0  0  0  0  0  0  0  0  0  0  0
    4.8491   -0.0756   -0.8382 C   0  0  0  0  0  0  0  0  0  0  0  0
    5.5622    0.5215    0.2052 C   0  0  0  0  0  0  0  0  0  0  0  0
    4.8815    1.2117    1.2120 C   0  0  0  0  0  0  0  0  0  0  0  0
    3.4869    1.3102    1.1749 C   0  0  0  0  0  0  0  0  0  0  0  0
   -6.3728   -0.0161    0.9075 H   0  0  0  0  0  0  0  0  0  0  0  0
   -7.0527   -0.7938   -0.5757 H   0  0  0  0  0  0  0  0  0  0  0  0
   -6.3062    0.8508   -0.6815 H   0  0  0  0  0  0  0  0  0  0  0  0
   -3.5268    0.4205    0.7809 H   0  0  0  0  0  0  0  0  0  0  0  0
   -1.2457    0.3658    1.0862 H   0  0  0  0  0  0  0  0  0  0  0  0
    0.9017   -0.3514    1.7567 H   0  0  0  0  0  0  0  0  0  0  0  0
    0.9122    1.7142    0.6233 H   0  0  0  0  0  0  0  0  0  0  0  0
    0.9165    0.8642   -0.9588 H   0  0  0  0  0  0  0  0  0  0  0  0
    2.9127   -0.4546   -1.6876 H   0  0  0  0  0  0  0  0  0  0  0  0
    5.3767   -0.6161   -1.6134 H   0  0  0  0  0  0  0  0  0  0  0  0
    6.6414    0.4450    0.2361 H   0  0  0  0  0  0  0  0  0  0  0  0
    5.4342    1.6675    2.0233 H   0  0  0  0  0  0  0  0  0  0  0  0
    2.9711    1.8397    1.9664 H   0  0  0  0  0  0  0  0  0  0  0  0
  1  2  1  0
  2  3  2  0
  3  4  1  0
  4  5  2  0
  5  6  1  0
  4  7  1  0
  7  8  2  0
  7  9  1  0
  9 10  1  0
 10 11  1  0
 11 12  1  0
 12 13  2  0
 13 14  1  0
 14 15  2  0
 15 16  1  0
 16 17  2  0
  6  2  1  0
 17 12  1  0
  1 18  1  0
  1 19  1  0
  1 20  1  0
  3 21  1  0
  9 22  1  0
 10 23  1  0
 11 24  1  0
 11 25  1  0
 13 26  1  0
 14 27  1  0
 15 28  1  0
 16 29  1  0
 17 30  1  0
M  END
$$$$
