
     RDKit          3D

 34 36  0  0  0  0  0  0  0  0999 V2000
    3.8942   -3.9178   -1.6369 N   0  0  0  0  0  0  0  0  0  0  0  0
    2.7073   -3.2517   -1.2133 C   0  0  0  0  0  0  0  0  0  0  0  0
    2.7327   -1.9202   -0.9491 N   0  0  0  0  0  0  0  0  0  0  0  0
    1.6199   -1.2538   -0.5413 C   0  0  0  0  0  0  0  0  0  0  0  0
    0.3987   -1.9610   -0.4073 C   0  0  0  0  0  0  0  0  0  0  0  0
    0.4099   -3.3335   -0.6690 C   0  0  0  0  0  0  0  0  0  0  0  0
    1.5521   -3.9488   -1.0666 N   0  0  0  0  0  0  0  0  0  0  0  0
   -0.8486   -1.3517   -0.0345 N   0  0  0  0  0  0  0  0  0  0  0  0
   -1.0167   -0.0922    0.0212 N   0  0  0  0  0  0  0  0  0  0  0  0
   -2.2604    0.5023    0.4051 C   0  0  0  0  0  0  0  0  0  0  0  0
   -3.3878   -0.2784    0.7207 C   0  0  0  0  0  0  0  0  0  0  0  0
   -4.5854    0.3390    1.0962 C   0  0  0  0  0  0  0  0  0  0  0  0
   -4.6654    1.7331    1.1600 C   0  0  0  0  0  0  0  0  0  0  0  0
   -3.5476    2.5124    0.8484 C   0  0  0  0  0  0  0  0  0  0  0  0
   -2.3488    1.8987    0.4723 C   0  0  0  0  0  0  0  0  0  0  0  0
    1.7506    0.1833   -0.2388 C   0  0  0  0  0  0  0  0  0  0  0  0
    1.7308    0.6586    1.0891 C   0  0  0  0  0  0  0  0  0  0  0  0
    1.5828   -0.4404    2.4563 Cl  0  0  0  0  0  0  0  0  0  0  0  0
    1.8293    2.0328    1.3376 C   0  0  0  0  0  0  0  0  0  0  0  0
    1.9587    2.9340    0.2762 C   0  0  0  0  0  0  0  0  0  0  0  0
    2.0733    4.6548    0.5955 Cl  0  0  0  0  0  0  0  0  0  0  0  0
    1.9992    2.4629   -1.0392 C   0  0  0  0  0  0  0  0  0  0  0  0
    1.9008    1.0930   -1.2962 C   0  0  0  0  0  0  0  0  0  0  0  0
    4.7866   -3.3875   -1.7490 H   0  0  0  0  0  0  0  0  0  0  0  0
    3.8822   -4.9421   -1.8391 H   0  0  0  0  0  0  0  0  0  0  0  0
   -0.4989   -3.9132   -0.5703 H   0  0  0  0  0  0  0  0  0  0  0  0
   -3.3434   -1.3590    0.6772 H   0  0  0  0  0  0  0  0  0  0  0  0
   -5.4515   -0.2634    1.3382 H   0  0  0  0  0  0  0  0  0  0  0  0
   -5.5928    2.2092    1.4511 H   0  0  0  0  0  0  0  0  0  0  0  0
   -3.6098    3.5918    0.8990 H   0  0  0  0  0  0  0  0  0  0  0  0
   -1.4862    2.5094    0.2346 H   0  0  0  0  0  0  0  0  0  0  0  0
    1.8052    2.4004    2.3558 H   0  0  0  0  0  0  0  0  0  0  0  0
    2.1034    3.1572   -1.8632 H   0  0  0  0  0  0  0  0  0  0  0  0
    1.9255    0.7417   -2.3207 H   0  0  0  0  0  0  0  0  0  0  0  0
  1  2  1  0
  2  3  2  0
  3  4  1  0
  4  5  2  0
  5  6  1  0
  6  7  2  0
  5  8  1  0
  8  9  2  0
  9 10  1  0
 10 11  2  0
 11 12  1  0
 12 13  2  0
 13 14  1  0
 14 15  2  0
  4 16  1  0
 16 17  2  0
 17 18  1  0
 17 19  1  0
 19 20  2  0
 20 21  1  0
 20 22  1  0
 22 23  2  0
  7  2  1  0
 15 10  1  0
 23 16  1  0
  1 24  1  0
  1 25  1  0
  6 26  1  0
 11 27  1  0
 12 28  1  0
 13 29  1  0
 14 30  1  0
 15 31  1  0
 19 32  1  0
 22 33  1  0
 23 34  1  0
M  END
$$$$
