
     RDKit          3D

 38 38  0  0  0  0  0  0  0  0999 V2000
    3.8578   -0.3164    0.0586 C   0  0  0  0  0  0  0  0  0  0  0  0
    3.0267    0.8228    0.0761 O   0  0  0  0  0  0  0  0  0  0  0  0
    2.3620    0.9389    1.3232 C   0  0  0  0  0  0  0  0  0  0  0  0
    0.8922    1.2942    1.0666 C   0  0  0  0  0  0  0  0  0  0  0  0
    0.2458    0.2596    0.2611 N   0  0  0  0  0  0  0  0  0  0  0  0
   -0.1730   -1.0001    0.8106 C   0  0  0  0  0  0  0  0  0  0  0  0
    0.1041   -1.2877    2.0071 O   0  0  0  0  0  0  0  0  0  0  0  0
   -0.8986   -1.9868   -0.0200 C   0  0  0  0  0  0  0  0  0  0  0  0
   -0.5809   -3.3502    0.1069 C   0  0  0  0  0  0  0  0  0  0  0  0
   -1.2351   -4.3064   -0.6715 C   0  0  0  0  0  0  0  0  0  0  0  0
   -2.2187   -3.9147   -1.5786 C   0  0  0  0  0  0  0  0  0  0  0  0
   -2.5607   -2.5667   -1.7032 C   0  0  0  0  0  0  0  0  0  0  0  0
   -1.9146   -1.5896   -0.9185 C   0  0  0  0  0  0  0  0  0  0  0  0
   -2.2756   -0.2341   -0.9890 O   0  0  0  0  0  0  0  0  0  0  0  0
   -3.2667    0.2997   -1.8611 C   0  0  0  0  0  0  0  0  0  0  0  0
   -3.3469    1.7753   -1.6613 C   0  0  0  0  0  0  0  0  0  0  0  0
   -4.2687    2.3045   -0.7638 O   0  0  0  0  0  0  0  0  0  0  0  0
   -2.5497    2.5380   -2.2698 O   0  0  0  0  0  0  0  0  0  0  0  0
    3.0234    2.0500    2.1338 C   0  0  0  0  0  0  0  0  0  0  0  0
    2.8860    3.8462    1.0701 Hg  0  0  0  0  0  2  0  0  0  0  0  0
    2.7439    5.5436    0.0521 O   0  0  0  0  0  0  0  0  0  0  0  0
    4.6074   -0.2817    0.8804 H   0  0  0  0  0  0  0  0  0  0  0  0
    4.4101   -0.3381   -0.9031 H   0  0  0  0  0  0  0  0  0  0  0  0
    3.2513   -1.2470    0.1228 H   0  0  0  0  0  0  0  0  0  0  0  0
    2.3871    0.0057    1.9372 H   0  0  0  0  0  0  0  0  0  0  0  0
    0.8368    2.2623    0.5211 H   0  0  0  0  0  0  0  0  0  0  0  0
    0.3448    1.4165    2.0270 H   0  0  0  0  0  0  0  0  0  0  0  0
    0.1154    0.4460   -0.7585 H   0  0  0  0  0  0  0  0  0  0  0  0
    0.1882   -3.6733    0.7980 H   0  0  0  0  0  0  0  0  0  0  0  0
   -0.9763   -5.3528   -0.5734 H   0  0  0  0  0  0  0  0  0  0  0  0
   -2.7232   -4.6583   -2.1821 H   0  0  0  0  0  0  0  0  0  0  0  0
   -3.3377   -2.2963   -2.4046 H   0  0  0  0  0  0  0  0  0  0  0  0
   -4.2544   -0.1559   -1.6339 H   0  0  0  0  0  0  0  0  0  0  0  0
   -2.9971    0.0840   -2.9178 H   0  0  0  0  0  0  0  0  0  0  0  0
   -4.3228    3.3033   -0.6032 H   0  0  0  0  0  0  0  0  0  0  0  0
    4.0942    1.8124    2.3066 H   0  0  0  0  0  0  0  0  0  0  0  0
    2.5212    2.1661    3.1181 H   0  0  0  0  0  0  0  0  0  0  0  0
    2.0022    5.3872   -0.5850 H   0  0  0  0  0  0  0  0  0  0  0  0
  1  2  1  0
  2  3  1  0
  3  4  1  0
  4  5  1  0
  5  6  1  0
  6  7  2  0
  6  8  1  0
  8  9  2  0
  9 10  1  0
 10 11  2  0
 11 12  1  0
 12 13  2  0
 13 14  1  0
 14 15  1  0
 15 16  1  0
 16 17  1  0
 16 18  2  0
  3 19  1  0
 19 20  1  0
 20 21  1  0
 13  8  1  0
  1 22  1  0
  1 23  1  0
  1 24  1  0
  3 25  1  0
  4 26  1  0
  4 27  1  0
  5 28  1  0
  9 29  1  0
 10 30  1  0
 11 31  1  0
 12 32  1  0
 15 33  1  0
 15 34  1  0
 17 35  1  0
 19 36  1  0
 19 37  1  0
 21 38  1  0
M  END
$$$$
