
     RDKit          3D

 55 59  0  0  0  0  0  0  0  0999 V2000
    3.1982   -2.2944    2.7490 C   0  0  0  0  0  0  0  0  0  0  0  0
    2.8959   -1.9772    1.2843 C   0  0  0  0  0  0  0  0  0  0  0  0
    3.0881   -3.2360    0.4304 C   0  0  0  0  0  0  0  0  0  0  0  0
    1.5126   -1.5063    1.1860 N   0  0  0  0  0  0  0  0  0  0  0  0
    0.8771   -0.8510    0.2476 C   0  0  0  0  0  0  0  0  0  0  0  0
   -0.4976   -0.6479    0.4609 C   0  0  0  0  0  0  0  0  0  0  0  0
   -1.3074   -0.0009   -0.4912 C   0  0  0  0  0  0  0  0  0  0  0  0
   -2.6566    0.2071   -0.3195 N   0  0  0  0  0  0  0  0  0  0  0  0
   -3.3038   -0.2405    0.8883 C   0  0  0  0  0  0  0  0  0  0  0  0
   -3.8623   -1.5252    0.9532 C   0  0  0  0  0  0  0  0  0  0  0  0
   -4.4864   -1.9597    2.1264 C   0  0  0  0  0  0  0  0  0  0  0  0
   -4.5547   -1.1134    3.2391 C   0  0  0  0  0  0  0  0  0  0  0  0
   -5.3374   -1.6598    4.7105 Cl  0  0  0  0  0  0  0  0  0  0  0  0
   -3.9978    0.1692    3.1769 C   0  0  0  0  0  0  0  0  0  0  0  0
   -3.3733    0.6055    2.0046 C   0  0  0  0  0  0  0  0  0  0  0  0
   -3.3860    0.8446   -1.3041 C   0  0  0  0  0  0  0  0  0  0  0  0
   -2.7427    1.2855   -2.4934 C   0  0  0  0  0  0  0  0  0  0  0  0
   -3.4731    1.9328   -3.4968 C   0  0  0  0  0  0  0  0  0  0  0  0
   -4.8414    2.1527   -3.3413 C   0  0  0  0  0  0  0  0  0  0  0  0
   -5.4901    1.7283   -2.1826 C   0  0  0  0  0  0  0  0  0  0  0  0
   -4.7759    1.0809   -1.1713 C   0  0  0  0  0  0  0  0  0  0  0  0
   -1.4139    1.0866   -2.6706 N   0  0  0  0  0  0  0  0  0  0  0  0
   -0.6660    0.4661   -1.7328 C   0  0  0  0  0  0  0  0  0  0  0  0
    0.6975    0.2809   -1.9224 C   0  0  0  0  0  0  0  0  0  0  0  0
    1.4800   -0.3535   -0.9486 C   0  0  0  0  0  0  0  0  0  0  0  0
    2.8906   -0.4062   -1.1867 N   0  0  0  0  0  0  0  0  0  0  0  0
    3.7686    0.6892   -0.8653 C   0  0  0  0  0  0  0  0  0  0  0  0
    5.0856    0.6837   -1.3519 C   0  0  0  0  0  0  0  0  0  0  0  0
    5.9611    1.7281   -1.0399 C   0  0  0  0  0  0  0  0  0  0  0  0
    5.5310    2.7867   -0.2343 C   0  0  0  0  0  0  0  0  0  0  0  0
    6.6312    4.0955    0.1575 Cl  0  0  0  0  0  0  0  0  0  0  0  0
    4.2238    2.7990    0.2612 C   0  0  0  0  0  0  0  0  0  0  0  0
    3.3456    1.7564   -0.0489 C   0  0  0  0  0  0  0  0  0  0  0  0
    3.0748   -1.3787    3.3659 H   0  0  0  0  0  0  0  0  0  0  0  0
    4.2451   -2.6506    2.8585 H   0  0  0  0  0  0  0  0  0  0  0  0
    2.5075   -3.0762    3.1326 H   0  0  0  0  0  0  0  0  0  0  0  0
    3.6096   -1.1877    0.9877 H   0  0  0  0  0  0  0  0  0  0  0  0
    2.4663   -4.0697    0.8219 H   0  0  0  0  0  0  0  0  0  0  0  0
    4.1549   -3.5451    0.4420 H   0  0  0  0  0  0  0  0  0  0  0  0
    2.7873   -3.0543   -0.6199 H   0  0  0  0  0  0  0  0  0  0  0  0
   -0.9311   -1.0204    1.3813 H   0  0  0  0  0  0  0  0  0  0  0  0
   -3.8110   -2.1836    0.0954 H   0  0  0  0  0  0  0  0  0  0  0  0
   -4.9154   -2.9526    2.1700 H   0  0  0  0  0  0  0  0  0  0  0  0
   -4.0479    0.8271    4.0351 H   0  0  0  0  0  0  0  0  0  0  0  0
   -2.9431    1.5980    1.9614 H   0  0  0  0  0  0  0  0  0  0  0  0
   -2.9794    2.2673   -4.4010 H   0  0  0  0  0  0  0  0  0  0  0  0
   -5.4004    2.6538   -4.1210 H   0  0  0  0  0  0  0  0  0  0  0  0
   -6.5522    1.9016   -2.0665 H   0  0  0  0  0  0  0  0  0  0  0  0
   -5.3219    0.7704   -0.2907 H   0  0  0  0  0  0  0  0  0  0  0  0
    1.1655    0.6529   -2.8265 H   0  0  0  0  0  0  0  0  0  0  0  0
    3.2338   -1.1393   -1.8472 H   0  0  0  0  0  0  0  0  0  0  0  0
    5.4343   -0.1315   -1.9733 H   0  0  0  0  0  0  0  0  0  0  0  0
    6.9733    1.7123   -1.4233 H   0  0  0  0  0  0  0  0  0  0  0  0
    3.8877    3.6145    0.8890 H   0  0  0  0  0  0  0  0  0  0  0  0
    2.3418    1.7847    0.3542 H   0  0  0  0  0  0  0  0  0  0  0  0
  1  2  1  0
  2  3  1  0
  2  4  1  0
  4  5  2  3
  5  6  1  0
  6  7  2  0
  7  8  1  0
  8  9  1  0
  9 10  2  0
 10 11  1  0
 11 12  2  0
 12 13  1  0
 12 14  1  0
 14 15  2  0
  8 16  1  0
 16 17  2  0
 17 18  1  0
 18 19  2  0
 19 20  1  0
 20 21  2  0
 17 22  1  0
 22 23  2  0
 23 24  1  0
 24 25  2  0
 25 26  1  0
 26 27  1  0
 27 28  2  0
 28 29  1  0
 29 30  2  0
 30 31  1  0
 30 32  1  0
 32 33  2  0
 25  5  1  0
 33 27  1  0
 23  7  1  0
 15  9  1  0
 21 16  1  0
  1 34  1  0
  1 35  1  0
  1 36  1  0
  2 37  1  0
  3 38  1  0
  3 39  1  0
  3 40  1  0
  6 41  1  0
 10 42  1  0
 11 43  1  0
 14 44  1  0
 15 45  1  0
 18 46  1  0
 19 47  1  0
 20 48  1  0
 21 49  1  0
 24 50  1  0
 26 51  1  0
 28 52  1  0
 29 53  1  0
 32 54  1  0
 33 55  1  0
M  END
$$$$
