
     RDKit          3D

 60 62  0  0  0  0  0  0  0  0999 V2000
    1.6717   -1.4981   -0.8474 C   0  0  1  0  0  0  0  0  0  0  0  0
    0.2673   -2.1581   -0.8238 C   0  0  0  0  0  0  0  0  0  0  0  0
   -0.8661   -1.1595   -0.5397 C   0  0  1  0  0  0  0  0  0  0  0  0
   -0.4777    0.2281   -1.0807 C   0  0  0  0  0  0  0  0  0  0  0  0
    0.6879    0.7876   -0.3552 N   0  0  0  0  0  0  0  0  0  0  0  0
    0.2716    1.6127    0.8038 C   0  0  0  0  0  0  0  0  0  0  0  0
   -0.0376    3.0456    0.3534 C   0  0  0  0  0  0  0  0  0  0  0  0
   -0.4553    3.9174    1.5342 C   0  0  0  0  0  0  0  0  0  0  0  0
    1.7313   -0.2132    0.0159 C   0  0  2  0  0  0  0  0  0  0  0  0
    3.1085    0.4475   -0.1644 C   0  0  0  0  0  0  0  0  0  0  0  0
    4.2643   -0.5086   -0.0066 C   0  0  0  0  0  0  0  0  0  0  0  0
    5.5422    0.0283    0.2144 C   0  0  0  0  0  0  0  0  0  0  0  0
    6.6535   -0.8051    0.3168 C   0  0  0  0  0  0  0  0  0  0  0  0
    6.5035   -2.1849    0.2031 C   0  0  0  0  0  0  0  0  0  0  0  0
    5.2434   -2.7470   -0.0227 C   0  0  0  0  0  0  0  0  0  0  0  0
    5.1543   -4.1403   -0.0810 O   0  0  0  0  0  0  0  0  0  0  0  0
    4.1096   -1.9074   -0.1711 C   0  0  0  0  0  0  0  0  0  0  0  0
    2.7406   -2.5129   -0.3939 C   0  0  0  0  0  0  0  0  0  0  0  0
   -2.1173   -1.6582   -1.1397 N   0  0  0  0  0  0  0  0  0  0  0  0
   -3.4998   -1.2650   -0.1568 S   0  0  0  0  0  6  0  0  0  0  0  0
   -3.3485   -1.9548    1.1722 O   0  0  0  0  0  0  0  0  0  0  0  0
   -4.7343   -1.8015   -0.8274 O   0  0  0  0  0  0  0  0  0  0  0  0
   -3.6113    0.4784    0.0465 N   0  0  0  0  0  0  0  0  0  0  0  0
   -3.7244    0.8745    1.4660 C   0  0  0  0  0  0  0  0  0  0  0  0
   -5.0884    0.5519    2.0939 C   0  0  0  0  0  0  0  0  0  0  0  0
   -4.6520    1.0929   -0.8021 C   0  0  0  0  0  0  0  0  0  0  0  0
   -4.2105    1.1510   -2.2620 C   0  0  0  0  0  0  0  0  0  0  0  0
    1.8957   -1.2116   -1.9012 H   0  0  0  0  0  0  0  0  0  0  0  0
    0.1017   -2.6490   -1.8088 H   0  0  0  0  0  0  0  0  0  0  0  0
    0.2103   -2.9602   -0.0549 H   0  0  0  0  0  0  0  0  0  0  0  0
   -0.9675   -1.0866    0.5668 H   0  0  0  0  0  0  0  0  0  0  0  0
   -0.2221    0.1505   -2.1602 H   0  0  0  0  0  0  0  0  0  0  0  0
   -1.3453    0.9131   -1.0292 H   0  0  0  0  0  0  0  0  0  0  0  0
   -0.6138    1.1706    1.3121 H   0  0  0  0  0  0  0  0  0  0  0  0
    1.0824    1.6731    1.5641 H   0  0  0  0  0  0  0  0  0  0  0  0
    0.8672    3.4848   -0.1201 H   0  0  0  0  0  0  0  0  0  0  0  0
   -0.8575    3.0498   -0.3950 H   0  0  0  0  0  0  0  0  0  0  0  0
   -0.6732    4.9462    1.1779 H   0  0  0  0  0  0  0  0  0  0  0  0
    0.3612    3.9675    2.2858 H   0  0  0  0  0  0  0  0  0  0  0  0
   -1.3697    3.5058    2.0122 H   0  0  0  0  0  0  0  0  0  0  0  0
    1.6136   -0.5241    1.0814 H   0  0  0  0  0  0  0  0  0  0  0  0
    3.1694    0.8972   -1.1798 H   0  0  0  0  0  0  0  0  0  0  0  0
    3.2117    1.2723    0.5736 H   0  0  0  0  0  0  0  0  0  0  0  0
    5.6781    1.0993    0.3051 H   0  0  0  0  0  0  0  0  0  0  0  0
    7.6338   -0.3804    0.4910 H   0  0  0  0  0  0  0  0  0  0  0  0
    7.3710   -2.8252    0.3027 H   0  0  0  0  0  0  0  0  0  0  0  0
    4.2807   -4.6419   -0.1699 H   0  0  0  0  0  0  0  0  0  0  0  0
    2.8028   -3.2986   -1.1774 H   0  0  0  0  0  0  0  0  0  0  0  0
    2.4295   -2.9897    0.5613 H   0  0  0  0  0  0  0  0  0  0  0  0
   -2.2585   -1.2544   -2.0937 H   0  0  0  0  0  0  0  0  0  0  0  0
   -3.5411    1.9674    1.5542 H   0  0  0  0  0  0  0  0  0  0  0  0
   -2.9215    0.3848    2.0575 H   0  0  0  0  0  0  0  0  0  0  0  0
   -5.0453    0.7522    3.1851 H   0  0  0  0  0  0  0  0  0  0  0  0
   -5.8817    1.1955    1.6601 H   0  0  0  0  0  0  0  0  0  0  0  0
   -5.3624   -0.5119    1.9446 H   0  0  0  0  0  0  0  0  0  0  0  0
   -4.8364    2.1417   -0.4785 H   0  0  0  0  0  0  0  0  0  0  0  0
   -5.6157    0.5450   -0.7203 H   0  0  0  0  0  0  0  0  0  0  0  0
   -4.1237    0.1315   -2.6889 H   0  0  0  0  0  0  0  0  0  0  0  0
   -4.9651    1.7099   -2.8545 H   0  0  0  0  0  0  0  0  0  0  0  0
   -3.2355    1.6743   -2.3487 H   0  0  0  0  0  0  0  0  0  0  0  0
  1  2  1  0
  2  3  1  0
  3  4  1  0
  4  5  1  0
  5  6  1  0
  6  7  1  0
  7  8  1  0
  5  9  1  0
  9 10  1  0
 10 11  1  0
 11 12  2  0
 12 13  1  0
 13 14  2  0
 14 15  1  0
 15 16  1  0
 15 17  2  0
 17 18  1  0
  3 19  1  0
 19 20  1  0
 20 21  2  0
 20 22  2  0
 20 23  1  0
 23 24  1  0
 24 25  1  0
 23 26  1  0
 26 27  1  0
  9  1  1  0
 17 11  1  0
 18  1  1  0
  1 28  1  6
  2 29  1  0
  2 30  1  0
  3 31  1  1
  4 32  1  0
  4 33  1  0
  6 34  1  0
  6 35  1  0
  7 36  1  0
  7 37  1  0
  8 38  1  0
  8 39  1  0
  8 40  1  0
  9 41  1  1
 10 42  1  0
 10 43  1  0
 12 44  1  0
 13 45  1  0
 14 46  1  0
 16 47  1  0
 18 48  1  0
 18 49  1  0
 19 50  1  0
 24 51  1  0
 24 52  1  0
 25 53  1  0
 25 54  1  0
 25 55  1  0
 26 56  1  0
 26 57  1  0
 27 58  1  0
 27 59  1  0
 27 60  1  0
M  END
$$$$
