
     RDKit          3D

 68 69  0  0  0  0  0  0  0  0999 V2000
    5.6286    1.0813   -0.7451 C   0  0  2  0  0  0  0  0  0  0  0  0
    6.5993    0.2422   -1.6058 C   0  0  0  0  0  0  0  0  0  0  0  0
    7.8829    0.9921   -1.9996 C   0  0  0  0  0  0  0  0  0  0  0  0
    8.7323    1.3095   -0.8077 C   0  0  0  0  0  0  0  0  0  0  0  0
    8.7161    2.5909   -0.2657 O   0  0  0  0  0  0  0  0  0  0  0  0
    9.4394    0.4105   -0.2788 O   0  0  0  0  0  0  0  0  0  0  0  0
    4.4912    0.2611   -0.3141 N   0  0  0  0  0  0  0  0  0  0  0  0
    3.5798    0.7024    0.7069 C   0  0  0  0  0  0  0  0  0  0  0  0
    3.8541    1.7315    1.3837 O   0  0  0  0  0  0  0  0  0  0  0  0
    2.3286   -0.0407    0.9903 C   0  0  0  0  0  0  0  0  0  0  0  0
    1.7141   -0.8302    0.0046 C   0  0  0  0  0  0  0  0  0  0  0  0
    0.5302   -1.5193    0.2809 C   0  0  0  0  0  0  0  0  0  0  0  0
   -0.0719   -1.4371    1.5516 C   0  0  0  0  0  0  0  0  0  0  0  0
    0.5358   -0.6257    2.5274 C   0  0  0  0  0  0  0  0  0  0  0  0
    1.7192    0.0631    2.2507 C   0  0  0  0  0  0  0  0  0  0  0  0
   -1.3761   -2.1614    1.8869 C   0  0  1  0  0  0  0  0  0  0  0  0
   -2.6178   -1.4270    1.3081 C   0  0  0  0  0  0  0  0  0  0  0  0
   -2.6744   -1.2973   -0.2259 C   0  0  0  0  0  0  0  0  0  0  0  0
   -4.0352   -0.7891   -0.7438 C   0  0  0  0  0  0  0  0  0  0  0  0
   -4.5350    0.5674   -0.1735 C   0  0  0  0  0  0  0  0  0  0  0  0
   -3.6669    1.7371   -0.6110 C   0  0  0  0  0  0  0  0  0  0  0  0
   -2.2983    1.7087   -0.3607 O   0  0  0  0  0  0  0  0  0  0  0  0
   -4.1824    2.8118   -1.1312 N   0  0  0  0  0  0  0  0  0  0  0  0
   -5.6058    2.9830   -1.4055 C   0  0  2  0  0  0  0  0  0  0  0  0
   -5.9456    4.3991   -1.2913 N   0  0  0  0  0  0  0  0  0  0  0  0
   -6.4018    2.1905   -0.4579 N   0  0  0  0  0  0  0  0  0  0  0  0
   -6.0214    0.7748   -0.5769 C   0  0  2  0  0  0  0  0  0  0  0  0
   -6.8850   -0.0484    0.2739 N   0  0  0  0  0  0  0  0  0  0  0  0
   -1.3549   -3.7169    1.6573 C   0  0  0  0  0  0  0  0  0  0  0  0
   -2.6008   -4.2629    2.0351 O   0  0  0  0  0  0  0  0  0  0  0  0
   -1.1422   -4.0002    0.2979 O   0  0  0  0  0  0  0  0  0  0  0  0
   -0.2301   -4.4001    2.4844 C   0  0  0  0  0  0  0  0  0  0  0  0
    1.0167   -4.0558    1.9928 F   0  0  0  0  0  0  0  0  0  0  0  0
   -0.3617   -5.7758    2.4064 F   0  0  0  0  0  0  0  0  0  0  0  0
   -0.3019   -4.0310    3.8168 F   0  0  0  0  0  0  0  0  0  0  0  0
    5.1265    2.2755   -1.5083 C   0  0  0  0  0  0  0  0  0  0  0  0
    5.5420    3.5527   -1.1454 O   0  0  0  0  0  0  0  0  0  0  0  0
    4.3438    2.1228   -2.4848 O   0  0  0  0  0  0  0  0  0  0  0  0
    6.1733    1.4279    0.1602 H   0  0  0  0  0  0  0  0  0  0  0  0
    6.8793   -0.6786   -1.0475 H   0  0  0  0  0  0  0  0  0  0  0  0
    6.0804   -0.0841   -2.5341 H   0  0  0  0  0  0  0  0  0  0  0  0
    8.4700    0.3549   -2.6957 H   0  0  0  0  0  0  0  0  0  0  0  0
    7.6340    1.9280   -2.5439 H   0  0  0  0  0  0  0  0  0  0  0  0
    9.2740    2.8175    0.5488 H   0  0  0  0  0  0  0  0  0  0  0  0
    4.3685   -0.6918   -0.7249 H   0  0  0  0  0  0  0  0  0  0  0  0
    2.1271   -0.8963   -0.9931 H   0  0  0  0  0  0  0  0  0  0  0  0
    0.0845   -2.0963   -0.5147 H   0  0  0  0  0  0  0  0  0  0  0  0
    0.0944   -0.5222    3.5108 H   0  0  0  0  0  0  0  0  0  0  0  0
    2.1629    0.6720    3.0287 H   0  0  0  0  0  0  0  0  0  0  0  0
   -1.5199   -2.0533    2.9859 H   0  0  0  0  0  0  0  0  0  0  0  0
   -2.6229   -0.4050    1.7443 H   0  0  0  0  0  0  0  0  0  0  0  0
   -3.5415   -1.9313    1.6656 H   0  0  0  0  0  0  0  0  0  0  0  0
   -1.8640   -0.6400   -0.5914 H   0  0  0  0  0  0  0  0  0  0  0  0
   -2.5142   -2.2893   -0.6900 H   0  0  0  0  0  0  0  0  0  0  0  0
   -4.7884   -1.5756   -0.5162 H   0  0  0  0  0  0  0  0  0  0  0  0
   -3.9782   -0.7145   -1.8523 H   0  0  0  0  0  0  0  0  0  0  0  0
   -4.4977    0.5417    0.9353 H   0  0  0  0  0  0  0  0  0  0  0  0
   -1.7015    2.4878   -0.6125 H   0  0  0  0  0  0  0  0  0  0  0  0
   -5.8095    2.6517   -2.4501 H   0  0  0  0  0  0  0  0  0  0  0  0
   -6.9489    4.5226   -1.5597 H   0  0  0  0  0  0  0  0  0  0  0  0
   -5.8552    4.6851   -0.2888 H   0  0  0  0  0  0  0  0  0  0  0  0
   -7.4070    2.2786   -0.7388 H   0  0  0  0  0  0  0  0  0  0  0  0
   -6.1648    0.4448   -1.6342 H   0  0  0  0  0  0  0  0  0  0  0  0
   -7.8593   -0.0099   -0.1048 H   0  0  0  0  0  0  0  0  0  0  0  0
   -6.9122    0.3663    1.2343 H   0  0  0  0  0  0  0  0  0  0  0  0
   -2.7379   -4.0797    3.0014 H   0  0  0  0  0  0  0  0  0  0  0  0
   -1.3163   -4.9678    0.1577 H   0  0  0  0  0  0  0  0  0  0  0  0
    5.2197    4.3676   -1.6534 H   0  0  0  0  0  0  0  0  0  0  0  0
  1  2  1  0
  2  3  1  0
  3  4  1  0
  4  5  1  0
  4  6  2  0
  1  7  1  0
  7  8  1  0
  8  9  2  0
  8 10  1  0
 10 11  2  0
 11 12  1  0
 12 13  2  0
 13 14  1  0
 14 15  2  0
 13 16  1  0
 16 17  1  0
 17 18  1  0
 18 19  1  0
 19 20  1  0
 20 21  1  0
 21 22  1  0
 21 23  2  0
 23 24  1  0
 24 25  1  0
 24 26  1  0
 26 27  1  0
 27 28  1  0
 16 29  1  0
 29 30  1  0
 29 31  1  0
 29 32  1  0
 32 33  1  0
 32 34  1  0
 32 35  1  0
  1 36  1  0
 36 37  1  0
 36 38  2  0
 15 10  1  0
 27 20  1  0
  1 39  1  1
  2 40  1  0
  2 41  1  0
  3 42  1  0
  3 43  1  0
  5 44  1  0
  7 45  1  0
 11 46  1  0
 12 47  1  0
 14 48  1  0
 15 49  1  0
 16 50  1  1
 17 51  1  0
 17 52  1  0
 18 53  1  0
 18 54  1  0
 19 55  1  0
 19 56  1  0
 20 57  1  0
 22 58  1  0
 24 59  1  6
 25 60  1  0
 25 61  1  0
 26 62  1  0
 27 63  1  6
 28 64  1  0
 28 65  1  0
 30 66  1  0
 31 67  1  0
 37 68  1  0
M  END
$$$$
