
     RDKit          3D

 82 85  0  0  0  0  0  0  0  0999 V2000
   -8.2938    1.9940    2.0411 C   0  0  0  0  0  0  0  0  0  0  0  0
   -7.6376    1.0636    1.0117 C   0  0  0  0  0  0  0  0  0  0  0  0
   -6.1106    1.1770    1.1148 C   0  0  0  0  0  0  0  0  0  0  0  0
   -8.1408   -0.3878    1.2249 C   0  0  0  0  0  0  0  0  0  0  0  0
   -7.7280   -1.4171    0.1429 C   0  0  1  0  0  0  0  0  0  0  0  0
   -7.9198   -0.8703   -1.2082 N   0  0  0  0  0  0  0  0  0  0  0  0
   -9.1975   -0.8467   -1.8632 C   0  0  0  0  0  0  0  0  0  0  0  0
   -9.3275   -0.2058   -3.1347 N   0  0  0  0  0  0  0  0  0  0  0  0
  -10.2300   -1.3997   -1.3082 N   0  0  0  0  0  0  0  0  0  0  0  0
   -6.3233   -1.9396    0.3479 C   0  0  0  0  0  0  0  0  0  0  0  0
   -5.4294   -1.7347   -0.5193 O   0  0  0  0  0  0  0  0  0  0  0  0
   -6.0125   -2.7014    1.5242 N   0  0  0  0  0  0  0  0  0  0  0  0
   -4.6585   -3.1639    1.8161 C   0  0  0  0  0  0  0  0  0  0  0  0
   -3.7962   -2.0015    2.2269 C   0  0  0  0  0  0  0  0  0  0  0  0
   -4.1485   -1.3122    3.2224 O   0  0  0  0  0  0  0  0  0  0  0  0
   -2.6134   -1.6326    1.4918 N   0  0  0  0  0  0  0  0  0  0  0  0
   -2.3056   -0.2016    1.3454 C   0  0  0  0  0  0  0  0  0  0  0  0
   -1.1447    0.0306    0.3743 C   0  0  0  0  0  0  0  0  0  0  0  0
    0.0541   -0.8435    0.7757 C   0  0  0  0  0  0  0  0  0  0  0  0
   -0.3018   -2.3471    0.9155 C   0  0  0  0  0  0  0  0  0  0  0  0
   -1.8063   -2.6455    0.7933 C   0  0  0  0  0  0  0  0  0  0  0  0
    1.2504   -0.6185   -0.1266 C   0  0  0  0  0  0  0  0  0  0  0  0
    2.4766   -0.1554    0.3105 C   0  0  0  0  0  0  0  0  0  0  0  0
    3.2628   -0.1068   -0.8283 C   0  0  0  0  0  0  0  0  0  0  0  0
    2.5447   -0.5328   -1.8861 N   0  0  0  0  0  0  0  0  0  0  0  0
    1.3329   -0.8513   -1.4595 N   0  0  0  0  0  0  0  0  0  0  0  0
    0.2785   -1.2847   -2.3710 C   0  0  0  0  0  0  0  0  0  0  0  0
    4.6874    0.3058   -0.8914 C   0  0  0  0  0  0  0  0  0  0  0  0
    5.5077    0.0846    0.2274 C   0  0  0  0  0  0  0  0  0  0  0  0
    6.8563    0.4359    0.2070 C   0  0  0  0  0  0  0  0  0  0  0  0
    7.4215    1.0225   -0.9363 C   0  0  0  0  0  0  0  0  0  0  0  0
    8.7766    1.3860   -0.9924 O   0  0  0  0  0  0  0  0  0  0  0  0
    9.7086    1.2034    0.0690 C   0  0  0  0  0  0  0  0  0  0  0  0
   11.0447    1.7077   -0.3617 C   0  0  0  0  0  0  0  0  0  0  0  0
   11.9539    1.0182   -1.1404 C   0  0  0  0  0  0  0  0  0  0  0  0
   13.0223    1.8729   -1.3120 C   0  0  0  0  0  0  0  0  0  0  0  0
   12.6906    3.0294   -0.6300 C   0  0  0  0  0  0  0  0  0  0  0  0
   11.5064    2.9034   -0.0765 O   0  0  0  0  0  0  0  0  0  0  0  0
   13.5160    4.2368   -0.5240 C   0  0  0  0  0  0  0  0  0  0  0  0
   13.0489    5.3302    0.1978 O   0  0  0  0  0  0  0  0  0  0  0  0
   14.6443    4.2878   -1.0830 O   0  0  0  0  0  0  0  0  0  0  0  0
    6.6135    1.2575   -2.0588 C   0  0  0  0  0  0  0  0  0  0  0  0
    7.3344    2.0072   -3.4835 Cl  0  0  0  0  0  0  0  0  0  0  0  0
    5.2485    0.9061   -2.0448 C   0  0  0  0  0  0  0  0  0  0  0  0
    4.2549    1.2872   -3.4561 Cl  0  0  0  0  0  0  0  0  0  0  0  0
   -7.9779    3.0452    1.8687 H   0  0  0  0  0  0  0  0  0  0  0  0
   -9.4002    1.9529    1.9482 H   0  0  0  0  0  0  0  0  0  0  0  0
   -8.0089    1.6984    3.0740 H   0  0  0  0  0  0  0  0  0  0  0  0
   -7.9494    1.4194    0.0056 H   0  0  0  0  0  0  0  0  0  0  0  0
   -5.7408    0.6924    2.0431 H   0  0  0  0  0  0  0  0  0  0  0  0
   -5.6286    0.7099    0.2343 H   0  0  0  0  0  0  0  0  0  0  0  0
   -5.7991    2.2434    1.1224 H   0  0  0  0  0  0  0  0  0  0  0  0
   -7.8292   -0.7467    2.2303 H   0  0  0  0  0  0  0  0  0  0  0  0
   -9.2530   -0.3646    1.2392 H   0  0  0  0  0  0  0  0  0  0  0  0
   -8.3878   -2.3050    0.2608 H   0  0  0  0  0  0  0  0  0  0  0  0
   -7.1376   -0.3457   -1.6613 H   0  0  0  0  0  0  0  0  0  0  0  0
  -10.2472   -0.1749   -3.6286 H   0  0  0  0  0  0  0  0  0  0  0  0
   -8.5008    0.2425   -3.5879 H   0  0  0  0  0  0  0  0  0  0  0  0
  -11.1690   -1.3938   -1.7653 H   0  0  0  0  0  0  0  0  0  0  0  0
   -6.7787   -2.9509    2.1894 H   0  0  0  0  0  0  0  0  0  0  0  0
   -4.2582   -3.6900    0.9255 H   0  0  0  0  0  0  0  0  0  0  0  0
   -4.6898   -3.8934    2.6535 H   0  0  0  0  0  0  0  0  0  0  0  0
   -3.2002    0.3349    0.9632 H   0  0  0  0  0  0  0  0  0  0  0  0
   -2.0443    0.2216    2.3398 H   0  0  0  0  0  0  0  0  0  0  0  0
   -1.4907   -0.2086   -0.6509 H   0  0  0  0  0  0  0  0  0  0  0  0
   -0.8557    1.1041    0.3979 H   0  0  0  0  0  0  0  0  0  0  0  0
    0.3498   -0.4939    1.7921 H   0  0  0  0  0  0  0  0  0  0  0  0
    0.0424   -2.7001    1.9130 H   0  0  0  0  0  0  0  0  0  0  0  0
    0.2420   -2.9661    0.1694 H   0  0  0  0  0  0  0  0  0  0  0  0
   -1.9851   -3.6556    1.2214 H   0  0  0  0  0  0  0  0  0  0  0  0
   -2.1026   -2.6679   -0.2770 H   0  0  0  0  0  0  0  0  0  0  0  0
    2.7516    0.1212    1.3200 H   0  0  0  0  0  0  0  0  0  0  0  0
    0.7284   -1.7679   -3.2640 H   0  0  0  0  0  0  0  0  0  0  0  0
   -0.3896   -2.0218   -1.8870 H   0  0  0  0  0  0  0  0  0  0  0  0
   -0.3093   -0.4051   -2.7058 H   0  0  0  0  0  0  0  0  0  0  0  0
    5.1108   -0.3830    1.1197 H   0  0  0  0  0  0  0  0  0  0  0  0
    7.4529    0.2414    1.0877 H   0  0  0  0  0  0  0  0  0  0  0  0
    9.3760    1.7703    0.9650 H   0  0  0  0  0  0  0  0  0  0  0  0
    9.7865    0.1243    0.3240 H   0  0  0  0  0  0  0  0  0  0  0  0
   11.8494    0.0176   -1.5388 H   0  0  0  0  0  0  0  0  0  0  0  0
   13.9283    1.6756   -1.8700 H   0  0  0  0  0  0  0  0  0  0  0  0
   13.6047    6.1729    0.2822 H   0  0  0  0  0  0  0  0  0  0  0  0
  1  2  1  0
  2  3  1  0
  2  4  1  0
  4  5  1  0
  5  6  1  0
  6  7  1  0
  7  8  1  0
  7  9  2  3
  5 10  1  0
 10 11  2  0
 10 12  1  0
 12 13  1  0
 13 14  1  0
 14 15  2  0
 14 16  1  0
 16 17  1  0
 17 18  1  0
 18 19  1  0
 19 20  1  0
 20 21  1  0
 19 22  1  0
 22 23  2  0
 23 24  1  0
 24 25  2  0
 25 26  1  0
 26 27  1  0
 24 28  1  0
 28 29  2  0
 29 30  1  0
 30 31  2  0
 31 32  1  0
 32 33  1  0
 33 34  1  0
 34 35  2  0
 35 36  1  0
 36 37  2  0
 37 38  1  0
 37 39  1  0
 39 40  1  0
 39 41  2  0
 31 42  1  0
 42 43  1  0
 42 44  2  0
 44 45  1  0
 21 16  1  0
 26 22  1  0
 44 28  1  0
 38 34  1  0
  1 46  1  0
  1 47  1  0
  1 48  1  0
  2 49  1  0
  3 50  1  0
  3 51  1  0
  3 52  1  0
  4 53  1  0
  4 54  1  0
  5 55  1  6
  6 56  1  0
  8 57  1  0
  8 58  1  0
  9 59  1  0
 12 60  1  0
 13 61  1  0
 13 62  1  0
 17 63  1  0
 17 64  1  0
 18 65  1  0
 18 66  1  0
 19 67  1  0
 20 68  1  0
 20 69  1  0
 21 70  1  0
 21 71  1  0
 23 72  1  0
 27 73  1  0
 27 74  1  0
 27 75  1  0
 29 76  1  0
 30 77  1  0
 33 78  1  0
 33 79  1  0
 35 80  1  0
 36 81  1  0
 40 82  1  0
M  END
$$$$
