
     RDKit          3D

 32 33  0  0  0  0  0  0  0  0999 V2000
    2.9725    1.5743    0.9431 C   0  0  0  0  0  0  0  0  0  0  0  0
    3.5528    0.9061   -0.3075 C   0  0  0  0  0  0  0  0  0  0  0  0
    2.6431   -0.1746   -0.9220 C   0  0  2  0  0  0  0  0  0  0  0  0
    1.0428    0.5216   -1.4706 S   0  0  0  0  0  0  0  0  0  0  0  0
    0.0447   -0.5273   -0.3279 C   0  0  0  0  0  0  0  0  0  0  0  0
   -0.9897   -1.3413   -1.1446 C   0  0  0  0  0  0  0  0  0  0  0  0
   -2.3257   -0.5961   -1.2361 C   0  0  0  0  0  0  0  0  0  0  0  0
   -2.9421   -0.4154    0.1010 N   0  0  0  0  0  0  0  0  0  0  0  0
   -3.9343    0.6701    0.0634 C   0  0  0  0  0  0  0  0  0  0  0  0
   -1.9661   -0.2191    1.2054 C   0  0  0  0  0  0  0  0  0  0  0  0
   -0.6388    0.3837    0.7225 C   0  0  0  0  0  0  0  0  0  0  0  0
    0.9581   -1.4436    0.3414 N   0  0  0  0  0  0  0  0  0  0  0  0
    2.3258   -1.2652    0.0319 C   0  0  0  0  0  0  0  0  0  0  0  0
    3.2153   -2.0020    0.5348 O   0  0  0  0  0  0  0  0  0  0  0  0
    3.6989    2.3184    1.3321 H   0  0  0  0  0  0  0  0  0  0  0  0
    2.7831    0.8242    1.7393 H   0  0  0  0  0  0  0  0  0  0  0  0
    2.0279    2.1054    0.7041 H   0  0  0  0  0  0  0  0  0  0  0  0
    4.5323    0.4499   -0.0459 H   0  0  0  0  0  0  0  0  0  0  0  0
    3.7472    1.6889   -1.0723 H   0  0  0  0  0  0  0  0  0  0  0  0
    3.1508   -0.6123   -1.8078 H   0  0  0  0  0  0  0  0  0  0  0  0
   -0.6062   -1.5540   -2.1662 H   0  0  0  0  0  0  0  0  0  0  0  0
   -1.1782   -2.3247   -0.6592 H   0  0  0  0  0  0  0  0  0  0  0  0
   -3.0190   -1.1852   -1.8744 H   0  0  0  0  0  0  0  0  0  0  0  0
   -2.1522    0.3835   -1.7388 H   0  0  0  0  0  0  0  0  0  0  0  0
   -3.4400    1.6566   -0.0789 H   0  0  0  0  0  0  0  0  0  0  0  0
   -4.6581    0.5027   -0.7636 H   0  0  0  0  0  0  0  0  0  0  0  0
   -4.5155    0.6867    1.0102 H   0  0  0  0  0  0  0  0  0  0  0  0
   -2.3823    0.4219    2.0151 H   0  0  0  0  0  0  0  0  0  0  0  0
   -1.7612   -1.2063    1.6726 H   0  0  0  0  0  0  0  0  0  0  0  0
    0.0345    0.5464    1.5924 H   0  0  0  0  0  0  0  0  0  0  0  0
   -0.8556    1.3839    0.2872 H   0  0  0  0  0  0  0  0  0  0  0  0
    0.6351   -2.1571    1.0334 H   0  0  0  0  0  0  0  0  0  0  0  0
  1  2  1  0
  2  3  1  0
  3  4  1  0
  4  5  1  0
  5  6  1  0
  6  7  1  0
  7  8  1  0
  8  9  1  0
  8 10  1  0
 10 11  1  0
  5 12  1  0
 12 13  1  0
 13 14  2  0
 13  3  1  0
 11  5  1  0
  1 15  1  0
  1 16  1  0
  1 17  1  0
  2 18  1  0
  2 19  1  0
  3 20  1  6
  6 21  1  0
  6 22  1  0
  7 23  1  0
  7 24  1  0
  9 25  1  0
  9 26  1  0
  9 27  1  0
 10 28  1  0
 10 29  1  0
 11 30  1  0
 11 31  1  0
 12 32  1  0
M  END
$$$$
