
     RDKit          3D

 59 62  0  0  0  0  0  0  0  0999 V2000
    0.0994   -1.3924   -0.7001 C   0  0  2  0  0  0  0  0  0  0  0  0
    0.4861   -2.8384   -0.9879 C   0  0  0  0  0  0  0  0  0  0  0  0
    2.0254   -2.8495   -0.9150 C   0  0  0  0  0  0  0  0  0  0  0  0
    2.4713   -1.4407   -0.4181 C   0  0  2  0  0  0  0  0  0  0  0  0
    2.7761   -0.6951   -1.5814 O   0  0  0  0  0  0  0  0  0  0  0  0
    3.7101   -1.5348    0.4967 C   0  0  0  0  0  0  0  0  0  0  0  0
    3.7960   -2.4364    1.3185 O   0  0  0  0  0  0  0  0  0  0  0  0
    4.8401   -0.5424    0.4295 C   0  0  0  0  0  0  0  0  0  0  0  0
    4.3748    0.7349    0.8497 O   0  0  0  0  0  0  0  0  0  0  0  0
    5.1838    1.8734    0.8498 C   0  0  0  0  0  0  0  0  0  0  0  0
    4.6154    3.1753    1.3016 C   0  0  0  0  0  0  0  0  0  0  0  0
    6.3965    1.8030    0.5115 O   0  0  0  0  0  0  0  0  0  0  0  0
    1.1694   -0.8950    0.2828 C   0  0  2  0  0  0  0  0  0  0  0  0
    1.0366   -1.5424    1.7034 C   0  0  0  0  0  0  0  0  0  0  0  0
    1.0411    0.6542    0.3846 C   0  0  0  0  0  0  0  0  0  0  0  0
   -0.3930    1.1523    0.7210 C   0  0  2  0  0  0  0  0  0  0  0  0
   -0.6260    1.0968    2.1057 O   0  0  0  0  0  0  0  0  0  0  0  0
   -1.5118    0.4832   -0.1677 C   0  0  1  0  0  0  0  0  0  0  0  0
   -1.3576   -1.0764   -0.2733 C   0  0  1  0  0  0  0  0  0  0  0  0
   -2.3404   -1.6536   -1.3186 C   0  0  0  0  0  0  0  0  0  0  0  0
   -3.7854   -1.2615   -1.0235 C   0  0  0  0  0  0  0  0  0  0  0  0
   -3.8909    0.2385   -0.9284 C   0  0  0  0  0  0  0  0  0  0  0  0
   -4.7496    0.8941   -1.7258 C   0  0  0  0  0  0  0  0  0  0  0  0
   -4.8283    2.3539   -1.7040 C   0  0  0  0  0  0  0  0  0  0  0  0
   -5.6527    2.9556   -2.4414 O   0  0  0  0  0  0  0  0  0  0  0  0
   -3.9324    3.1103   -0.8336 C   0  0  0  0  0  0  0  0  0  0  0  0
   -3.0759    2.4793   -0.0297 C   0  0  0  0  0  0  0  0  0  0  0  0
   -2.9975    0.9567    0.0952 C   0  0  2  0  0  0  0  0  0  0  0  0
   -3.5312    0.5987    1.5019 C   0  0  0  0  0  0  0  0  0  0  0  0
    0.2485   -0.8553   -1.6692 H   0  0  0  0  0  0  0  0  0  0  0  0
    0.0530   -3.5161   -0.2198 H   0  0  0  0  0  0  0  0  0  0  0  0
    0.1341   -3.1551   -1.9940 H   0  0  0  0  0  0  0  0  0  0  0  0
    2.4576   -3.0740   -1.9155 H   0  0  0  0  0  0  0  0  0  0  0  0
    2.3434   -3.6664   -0.2320 H   0  0  0  0  0  0  0  0  0  0  0  0
    3.1019    0.2027   -1.3233 H   0  0  0  0  0  0  0  0  0  0  0  0
    5.6717   -0.8649    1.0943 H   0  0  0  0  0  0  0  0  0  0  0  0
    5.2342   -0.4886   -0.6080 H   0  0  0  0  0  0  0  0  0  0  0  0
    3.5172    3.1853    1.1381 H   0  0  0  0  0  0  0  0  0  0  0  0
    5.0705    4.0106    0.7287 H   0  0  0  0  0  0  0  0  0  0  0  0
    4.8242    3.3145    2.3825 H   0  0  0  0  0  0  0  0  0  0  0  0
    1.3104   -2.6165    1.6980 H   0  0  0  0  0  0  0  0  0  0  0  0
    1.7034   -1.0262    2.4265 H   0  0  0  0  0  0  0  0  0  0  0  0
    0.0214   -1.5303    2.1180 H   0  0  0  0  0  0  0  0  0  0  0  0
    1.3006    1.1224   -0.5868 H   0  0  0  0  0  0  0  0  0  0  0  0
    1.7589    1.0502    1.1342 H   0  0  0  0  0  0  0  0  0  0  0  0
   -0.3810    2.2328    0.4638 H   0  0  0  0  0  0  0  0  0  0  0  0
   -1.0632    0.2407    2.3214 H   0  0  0  0  0  0  0  0  0  0  0  0
   -1.2889    0.8607   -1.1946 H   0  0  0  0  0  0  0  0  0  0  0  0
   -1.5918   -1.5567    0.6956 H   0  0  0  0  0  0  0  0  0  0  0  0
   -2.2764   -2.7632   -1.3210 H   0  0  0  0  0  0  0  0  0  0  0  0
   -2.0709   -1.2950   -2.3374 H   0  0  0  0  0  0  0  0  0  0  0  0
   -4.1149   -1.7234   -0.0690 H   0  0  0  0  0  0  0  0  0  0  0  0
   -4.4358   -1.6714   -1.8276 H   0  0  0  0  0  0  0  0  0  0  0  0
   -5.3802    0.3531   -2.4216 H   0  0  0  0  0  0  0  0  0  0  0  0
   -3.9680    4.1928   -0.8377 H   0  0  0  0  0  0  0  0  0  0  0  0
   -2.4691    3.0898    0.6267 H   0  0  0  0  0  0  0  0  0  0  0  0
   -3.1133    1.2650    2.2848 H   0  0  0  0  0  0  0  0  0  0  0  0
   -4.6345    0.7342    1.5376 H   0  0  0  0  0  0  0  0  0  0  0  0
   -3.3123   -0.4532    1.7745 H   0  0  0  0  0  0  0  0  0  0  0  0
  1  2  1  0
  2  3  1  0
  3  4  1  0
  4  5  1  6
  4  6  1  0
  6  7  2  0
  6  8  1  0
  8  9  1  0
  9 10  1  0
 10 11  1  0
 10 12  2  0
  4 13  1  0
 13 14  1  1
 13 15  1  0
 15 16  1  0
 16 17  1  0
 16 18  1  0
 18 19  1  0
 19 20  1  0
 20 21  1  0
 21 22  1  0
 22 23  2  0
 23 24  1  0
 24 25  2  0
 24 26  1  0
 26 27  2  0
 27 28  1  0
 28 29  1  1
 13  1  1  0
 28 18  1  0
 19  1  1  0
 28 22  1  0
  1 30  1  6
  2 31  1  0
  2 32  1  0
  3 33  1  0
  3 34  1  0
  5 35  1  0
  8 36  1  0
  8 37  1  0
 11 38  1  0
 11 39  1  0
 11 40  1  0
 14 41  1  0
 14 42  1  0
 14 43  1  0
 15 44  1  0
 15 45  1  0
 16 46  1  6
 17 47  1  0
 18 48  1  6
 19 49  1  1
 20 50  1  0
 20 51  1  0
 21 52  1  0
 21 53  1  0
 23 54  1  0
 26 55  1  0
 27 56  1  0
 29 57  1  0
 29 58  1  0
 29 59  1  0
M  END
$$$$
