
     RDKit          3D

 58 61  0  0  0  0  0  0  0  0999 V2000
    5.8250    1.3129    0.9557 C   0  0  1  0  0  0  0  0  0  0  0  0
    5.5025    0.1996    1.9119 C   0  0  0  0  0  0  0  0  0  0  0  0
    6.7505   -0.6609    1.8776 C   0  0  0  0  0  0  0  0  0  0  0  0
    7.8309    0.0914    1.3730 O   0  0  0  0  0  0  0  0  0  0  0  0
    7.3385    1.3633    1.0211 C   0  0  0  0  0  0  0  0  0  0  0  0
    5.4146    0.9806   -0.3737 O   0  0  0  0  0  0  0  0  0  0  0  0
    4.0919    1.0090   -0.8443 C   0  0  0  0  0  0  0  0  0  0  0  0
    3.8524    0.6243   -2.1682 C   0  0  0  0  0  0  0  0  0  0  0  0
    2.5551    0.6307   -2.6878 C   0  0  0  0  0  0  0  0  0  0  0  0
    1.4725    1.0262   -1.8870 C   0  0  0  0  0  0  0  0  0  0  0  0
    0.0677    1.0060   -2.4318 C   0  0  0  0  0  0  0  0  0  0  0  0
   -0.6760   -0.2170   -1.9453 C   0  0  0  0  0  0  0  0  0  0  0  0
   -0.6282   -1.4415   -2.6440 C   0  0  0  0  0  0  0  0  0  0  0  0
    0.2463   -1.6230   -4.1608 Cl  0  0  0  0  0  0  0  0  0  0  0  0
   -1.2866   -2.5598   -2.1297 C   0  0  0  0  0  0  0  0  0  0  0  0
   -1.9975   -2.4750   -0.9337 C   0  0  0  0  0  0  0  0  0  0  0  0
   -2.0894   -1.2611   -0.2310 C   0  0  0  0  0  0  0  0  0  0  0  0
   -1.3911   -0.1439   -0.7357 C   0  0  0  0  0  0  0  0  0  0  0  0
   -2.8640   -1.2566    1.0873 C   0  0  2  0  0  0  0  0  0  0  0  0
   -4.1040   -1.9502    0.9746 O   0  0  0  0  0  0  0  0  0  0  0  0
   -5.1752   -1.1846    0.4290 C   0  0  2  0  0  0  0  0  0  0  0  0
   -5.1006   -1.0363   -1.1029 C   0  0  0  0  0  0  0  0  0  0  0  0
   -4.9872   -2.3004   -1.6958 O   0  0  0  0  0  0  0  0  0  0  0  0
   -5.4203    0.1491    1.1698 C   0  0  1  0  0  0  0  0  0  0  0  0
   -5.9595   -0.1304    2.4378 O   0  0  0  0  0  0  0  0  0  0  0  0
   -4.1241    0.9641    1.3217 C   0  0  2  0  0  0  0  0  0  0  0  0
   -3.7488    1.5299    0.0937 O   0  0  0  0  0  0  0  0  0  0  0  0
   -2.9937    0.0770    1.8737 C   0  0  1  0  0  0  0  0  0  0  0  0
   -3.2606   -0.2307    3.2205 O   0  0  0  0  0  0  0  0  0  0  0  0
    1.7098    1.4155   -0.5591 C   0  0  0  0  0  0  0  0  0  0  0  0
    3.0075    1.4088   -0.0400 C   0  0  0  0  0  0  0  0  0  0  0  0
    5.3900    2.2873    1.2706 H   0  0  0  0  0  0  0  0  0  0  0  0
    5.3565    0.6140    2.9341 H   0  0  0  0  0  0  0  0  0  0  0  0
    4.5999   -0.3772    1.6152 H   0  0  0  0  0  0  0  0  0  0  0  0
    6.5852   -1.5369    1.2137 H   0  0  0  0  0  0  0  0  0  0  0  0
    6.9954   -1.0310    2.8961 H   0  0  0  0  0  0  0  0  0  0  0  0
    7.7699    1.6772    0.0464 H   0  0  0  0  0  0  0  0  0  0  0  0
    7.6582    2.0961    1.7944 H   0  0  0  0  0  0  0  0  0  0  0  0
    4.6777    0.3167   -2.7979 H   0  0  0  0  0  0  0  0  0  0  0  0
    2.3987    0.3309   -3.7158 H   0  0  0  0  0  0  0  0  0  0  0  0
   -0.4633    1.9283   -2.1084 H   0  0  0  0  0  0  0  0  0  0  0  0
    0.0741    1.0458   -3.5419 H   0  0  0  0  0  0  0  0  0  0  0  0
   -1.2447   -3.5046   -2.6570 H   0  0  0  0  0  0  0  0  0  0  0  0
   -2.4870   -3.3641   -0.5556 H   0  0  0  0  0  0  0  0  0  0  0  0
   -1.3878    0.7949   -0.2078 H   0  0  0  0  0  0  0  0  0  0  0  0
   -2.2313   -1.8942    1.7438 H   0  0  0  0  0  0  0  0  0  0  0  0
   -6.0937   -1.7892    0.6009 H   0  0  0  0  0  0  0  0  0  0  0  0
   -6.0337   -0.5502   -1.4660 H   0  0  0  0  0  0  0  0  0  0  0  0
   -4.2507   -0.3956   -1.4118 H   0  0  0  0  0  0  0  0  0  0  0  0
   -4.9079   -2.1418   -2.6723 H   0  0  0  0  0  0  0  0  0  0  0  0
   -6.1637    0.7478    0.5918 H   0  0  0  0  0  0  0  0  0  0  0  0
   -6.3782    0.7081    2.7663 H   0  0  0  0  0  0  0  0  0  0  0  0
   -4.2998    1.7924    2.0485 H   0  0  0  0  0  0  0  0  0  0  0  0
   -4.3762    2.2784   -0.0851 H   0  0  0  0  0  0  0  0  0  0  0  0
   -2.0295    0.6306    1.8416 H   0  0  0  0  0  0  0  0  0  0  0  0
   -3.0594    0.5833    3.7532 H   0  0  0  0  0  0  0  0  0  0  0  0
    0.8895    1.7246    0.0762 H   0  0  0  0  0  0  0  0  0  0  0  0
    3.1532    1.7115    0.9873 H   0  0  0  0  0  0  0  0  0  0  0  0
  1  2  1  0
  2  3  1  0
  3  4  1  0
  4  5  1  0
  1  6  1  0
  6  7  1  0
  7  8  2  0
  8  9  1  0
  9 10  2  0
 10 11  1  0
 11 12  1  0
 12 13  2  0
 13 14  1  0
 13 15  1  0
 15 16  2  0
 16 17  1  0
 17 18  2  0
 17 19  1  0
 19 20  1  0
 20 21  1  0
 21 22  1  0
 22 23  1  0
 21 24  1  0
 24 25  1  0
 24 26  1  0
 26 27  1  0
 26 28  1  0
 28 29  1  0
 10 30  1  0
 30 31  2  0
  5  1  1  0
 31  7  1  0
 18 12  1  0
 28 19  1  0
  1 32  1  1
  2 33  1  0
  2 34  1  0
  3 35  1  0
  3 36  1  0
  5 37  1  0
  5 38  1  0
  8 39  1  0
  9 40  1  0
 11 41  1  0
 11 42  1  0
 15 43  1  0
 16 44  1  0
 18 45  1  0
 19 46  1  1
 21 47  1  6
 22 48  1  0
 22 49  1  0
 23 50  1  0
 24 51  1  6
 25 52  1  0
 26 53  1  1
 27 54  1  0
 28 55  1  1
 29 56  1  0
 30 57  1  0
 31 58  1  0
M  END
$$$$
