
     RDKit          3D

 43 47  0  0  0  0  0  0  0  0999 V2000
   -1.5192    0.9557   -0.2996 C   0  0  1  0  0  0  0  0  0  0  0  0
   -1.0921    1.5426   -1.6279 C   0  0  0  0  0  0  0  0  0  0  0  0
   -0.1458    2.4923   -1.6529 C   0  0  0  0  0  0  0  0  0  0  0  0
    0.4358    3.0216   -0.3566 C   0  0  2  0  0  0  0  0  0  0  0  0
    1.5602    3.8306   -0.5945 O   0  0  0  0  0  0  0  0  0  0  0  0
    0.7571    1.8905    0.6601 C   0  0  2  0  0  0  0  0  0  0  0  0
    2.0203    1.2786    0.3667 O   0  0  0  0  0  0  0  0  0  0  0  0
    1.8405   -0.0112   -0.0863 C   0  0  0  0  0  0  0  0  0  0  0  0
    0.5285   -0.3706   -0.0272 C   0  0  0  0  0  0  0  0  0  0  0  0
    0.0394   -1.4408   -0.7798 C   0  0  0  0  0  0  0  0  0  0  0  0
   -1.4201   -1.4698   -1.1746 C   0  0  0  0  0  0  0  0  0  0  0  0
   -2.2729   -0.4122   -0.4180 C   0  0  1  0  0  0  0  0  0  0  0  0
   -2.6036   -0.9966    0.9164 N   0  0  0  0  0  0  0  0  0  0  0  0
   -4.0190   -1.3894    0.9993 C   0  0  0  0  0  0  0  0  0  0  0  0
   -2.2316   -0.1669    2.0815 C   0  0  0  0  0  0  0  0  0  0  0  0
   -0.7528    0.2666    2.0295 C   0  0  0  0  0  0  0  0  0  0  0  0
   -0.2909    0.7112    0.6065 C   0  0  2  0  0  0  0  0  0  0  0  0
    0.9750   -2.3031   -1.3815 C   0  0  0  0  0  0  0  0  0  0  0  0
    2.3555   -2.0275   -1.2885 C   0  0  0  0  0  0  0  0  0  0  0  0
    2.8032   -0.8359   -0.6685 C   0  0  0  0  0  0  0  0  0  0  0  0
    4.1481   -0.4418   -0.6472 O   0  0  0  0  0  0  0  0  0  0  0  0
    5.2094   -1.1952   -1.2235 C   0  0  0  0  0  0  0  0  0  0  0  0
   -2.1883    1.7085    0.1727 H   0  0  0  0  0  0  0  0  0  0  0  0
   -1.4979    1.1624   -2.5602 H   0  0  0  0  0  0  0  0  0  0  0  0
    0.2055    2.8751   -2.6065 H   0  0  0  0  0  0  0  0  0  0  0  0
   -0.3456    3.6647    0.1037 H   0  0  0  0  0  0  0  0  0  0  0  0
    2.2101    3.2974   -1.1232 H   0  0  0  0  0  0  0  0  0  0  0  0
    0.8240    2.3497    1.6696 H   0  0  0  0  0  0  0  0  0  0  0  0
   -1.8311   -2.4884   -1.0028 H   0  0  0  0  0  0  0  0  0  0  0  0
   -1.4875   -1.2718   -2.2660 H   0  0  0  0  0  0  0  0  0  0  0  0
   -3.1956   -0.2268   -1.0165 H   0  0  0  0  0  0  0  0  0  0  0  0
   -4.2695   -2.0891    0.1730 H   0  0  0  0  0  0  0  0  0  0  0  0
   -4.6821   -0.4983    0.9361 H   0  0  0  0  0  0  0  0  0  0  0  0
   -4.2156   -1.9234    1.9538 H   0  0  0  0  0  0  0  0  0  0  0  0
   -2.8837    0.7339    2.1406 H   0  0  0  0  0  0  0  0  0  0  0  0
   -2.3879   -0.7462    3.0183 H   0  0  0  0  0  0  0  0  0  0  0  0
   -0.6404    1.0974    2.7581 H   0  0  0  0  0  0  0  0  0  0  0  0
   -0.1175   -0.5655    2.4080 H   0  0  0  0  0  0  0  0  0  0  0  0
    0.6374   -3.1468   -1.9702 H   0  0  0  0  0  0  0  0  0  0  0  0
    3.0533   -2.7010   -1.7670 H   0  0  0  0  0  0  0  0  0  0  0  0
    5.2747   -2.1932   -0.7409 H   0  0  0  0  0  0  0  0  0  0  0  0
    5.0468   -1.3093   -2.3161 H   0  0  0  0  0  0  0  0  0  0  0  0
    6.1659   -0.6578   -1.0605 H   0  0  0  0  0  0  0  0  0  0  0  0
  1  2  1  0
  2  3  2  0
  3  4  1  0
  4  5  1  0
  4  6  1  0
  6  7  1  0
  7  8  1  0
  8  9  2  0
  9 10  1  0
 10 11  1  0
 11 12  1  0
 12 13  1  0
 13 14  1  0
 13 15  1  0
 15 16  1  0
 17 16  1  1
 10 18  2  0
 18 19  1  0
 19 20  2  0
 20 21  1  0
 21 22  1  0
 12  1  1  0
 17  1  1  0
 17  6  1  0
 20  8  1  0
 17  9  1  0
  1 23  1  1
  2 24  1  0
  3 25  1  0
  4 26  1  1
  5 27  1  0
  6 28  1  1
 11 29  1  0
 11 30  1  0
 12 31  1  6
 14 32  1  0
 14 33  1  0
 14 34  1  0
 15 35  1  0
 15 36  1  0
 16 37  1  0
 16 38  1  0
 18 39  1  0
 19 40  1  0
 22 41  1  0
 22 42  1  0
 22 43  1  0
M  END
$$$$
