
     RDKit          3D

 35 38  0  0  0  0  0  0  0  0999 V2000
    1.8387    2.5971   -1.3683 O   0  0  0  0  0  0  0  0  0  0  0  0
    0.7594    1.9340   -0.8228 N   0  0  0  0  0  0  0  0  0  0  0  0
   -0.4325    2.4638   -0.4931 C   0  0  0  0  0  0  0  0  0  0  0  0
   -0.8967    3.7657   -0.6746 C   0  0  0  0  0  0  0  0  0  0  0  0
   -2.2076    4.0490   -0.2527 C   0  0  0  0  0  0  0  0  0  0  0  0
   -2.9969    3.0291    0.3253 C   0  0  0  0  0  0  0  0  0  0  0  0
   -2.4946    1.7678    0.4828 N   0  0  0  0  0  0  0  0  0  0  0  0
   -1.2238    1.5104    0.0826 C   0  0  0  0  0  0  0  0  0  0  0  0
   -0.5156    0.3229    0.1227 C   0  0  0  0  0  0  0  0  0  0  0  0
    0.7303    0.6286   -0.4518 C   0  0  0  0  0  0  0  0  0  0  0  0
    1.8885   -0.2831   -0.5773 C   0  0  0  0  0  0  0  0  0  0  0  0
    2.2665   -1.1102    0.4917 C   0  0  0  0  0  0  0  0  0  0  0  0
    3.3638   -1.9624    0.3489 C   0  0  0  0  0  0  0  0  0  0  0  0
    4.0629   -1.9850   -0.8166 N   0  0  0  0  0  0  0  0  0  0  0  0
    3.7233   -1.1905   -1.8661 C   0  0  0  0  0  0  0  0  0  0  0  0
    2.6324   -0.3237   -1.7654 C   0  0  0  0  0  0  0  0  0  0  0  0
   -1.0141   -0.9858    0.6008 C   0  0  0  0  0  0  0  0  0  0  0  0
   -0.7459   -2.1605   -0.1235 C   0  0  0  0  0  0  0  0  0  0  0  0
   -1.2208   -3.3942    0.3312 C   0  0  0  0  0  0  0  0  0  0  0  0
   -1.9722   -3.4657    1.5073 C   0  0  0  0  0  0  0  0  0  0  0  0
   -2.4321   -4.6630    1.9466 F   0  0  0  0  0  0  0  0  0  0  0  0
   -2.2519   -2.3019    2.2286 C   0  0  0  0  0  0  0  0  0  0  0  0
   -1.7783   -1.0660    1.7774 C   0  0  0  0  0  0  0  0  0  0  0  0
    1.7930    3.5822   -1.5962 H   0  0  0  0  0  0  0  0  0  0  0  0
   -0.2843    4.5335   -1.1270 H   0  0  0  0  0  0  0  0  0  0  0  0
   -2.6130    5.0449   -0.3750 H   0  0  0  0  0  0  0  0  0  0  0  0
   -4.0074    3.2461    0.6444 H   0  0  0  0  0  0  0  0  0  0  0  0
    1.7251   -1.0898    1.4292 H   0  0  0  0  0  0  0  0  0  0  0  0
    3.6617   -2.6044    1.1670 H   0  0  0  0  0  0  0  0  0  0  0  0
    4.2990   -1.2335   -2.7810 H   0  0  0  0  0  0  0  0  0  0  0  0
    2.3615    0.2941   -2.6124 H   0  0  0  0  0  0  0  0  0  0  0  0
   -0.1816   -2.1223   -1.0467 H   0  0  0  0  0  0  0  0  0  0  0  0
   -1.0092   -4.2942   -0.2317 H   0  0  0  0  0  0  0  0  0  0  0  0
   -2.8339   -2.3564    3.1396 H   0  0  0  0  0  0  0  0  0  0  0  0
   -1.9933   -0.1767    2.3563 H   0  0  0  0  0  0  0  0  0  0  0  0
  1  2  1  0
  2  3  1  0
  3  4  2  0
  4  5  1  0
  5  6  2  0
  6  7  1  0
  7  8  2  0
  8  9  1  0
  9 10  2  0
 10 11  1  0
 11 12  2  0
 12 13  1  0
 13 14  2  0
 14 15  1  0
 15 16  2  0
  9 17  1  0
 17 18  2  0
 18 19  1  0
 19 20  2  0
 20 21  1  0
 20 22  1  0
 22 23  2  0
 10  2  1  0
 16 11  1  0
 23 17  1  0
  8  3  1  0
  1 24  1  0
  4 25  1  0
  5 26  1  0
  6 27  1  0
 12 28  1  0
 13 29  1  0
 15 30  1  0
 16 31  1  0
 18 32  1  0
 19 33  1  0
 22 34  1  0
 23 35  1  0
M  END
$$$$
