
     RDKit          3D

 38 38  0  0  0  0  0  0  0  0999 V2000
    1.2446   -0.2963   -0.9670 C   0  0  2  0  0  0  0  0  0  0  0  0
    1.2710    0.8653   -1.7601 O   0  0  0  0  0  0  0  0  0  0  0  0
    0.2671   -0.1433    0.2179 C   0  0  0  0  0  0  0  0  0  0  0  0
   -1.1270   -0.0239   -0.2690 N   0  0  0  0  0  0  0  0  0  0  0  0
   -1.4993    1.3663   -0.5981 C   0  0  0  0  0  0  0  0  0  0  0  0
   -2.6335    1.7820    0.3283 C   0  0  1  0  0  0  0  0  0  0  0  0
   -3.5523    2.6183   -0.3239 O   0  0  0  0  0  0  0  0  0  0  0  0
   -3.2804    0.4738    0.7179 C   0  0  2  0  0  0  0  0  0  0  0  0
   -3.8714    0.5770    1.9870 O   0  0  0  0  0  0  0  0  0  0  0  0
   -2.1107   -0.5139    0.7192 C   0  0  1  0  0  0  0  0  0  0  0  0
   -2.5764   -1.9283    0.3461 C   0  0  0  0  0  0  0  0  0  0  0  0
   -1.5065   -2.8269    0.4415 O   0  0  0  0  0  0  0  0  0  0  0  0
    2.6654   -0.6811   -0.4892 C   0  0  0  0  0  0  0  0  0  0  0  0
    3.6139   -0.9102   -1.6700 C   0  0  0  0  0  0  0  0  0  0  0  0
    4.8589   -1.3443   -1.1970 O   0  0  0  0  0  0  0  0  0  0  0  0
    3.1865    0.3152    0.3426 O   0  0  0  0  0  0  0  0  0  0  0  0
    4.3393    0.4443    1.0149 S   0  0  0  0  0  4  0  0  0  0  0  0
    2.3882   -0.4368    3.0547 O   0  0  0  0  0  1  0  0  0  0  0  0
    3.0899    2.2288    1.3535 O   0  0  0  0  0  1  0  0  0  0  0  0
    3.0898    2.2289    1.3535 O   0  0  0  0  0  1  0  0  0  0  0  0
    0.8664   -1.1290   -1.6005 H   0  0  0  0  0  0  0  0  0  0  0  0
    1.6198    1.6061   -1.1992 H   0  0  0  0  0  0  0  0  0  0  0  0
    0.3740   -1.0551    0.8471 H   0  0  0  0  0  0  0  0  0  0  0  0
    0.5482    0.7194    0.8630 H   0  0  0  0  0  0  0  0  0  0  0  0
   -1.8447    1.3892   -1.6547 H   0  0  0  0  0  0  0  0  0  0  0  0
   -0.6597    2.0894   -0.5030 H   0  0  0  0  0  0  0  0  0  0  0  0
   -2.2157    2.2843    1.2334 H   0  0  0  0  0  0  0  0  0  0  0  0
   -3.1114    3.5034   -0.4120 H   0  0  0  0  0  0  0  0  0  0  0  0
   -4.0420    0.1959   -0.0508 H   0  0  0  0  0  0  0  0  0  0  0  0
   -4.4464   -0.2245    2.0961 H   0  0  0  0  0  0  0  0  0  0  0  0
   -1.6768   -0.5337    1.7480 H   0  0  0  0  0  0  0  0  0  0  0  0
   -3.3859   -2.2472    1.0402 H   0  0  0  0  0  0  0  0  0  0  0  0
   -2.9747   -1.9305   -0.6940 H   0  0  0  0  0  0  0  0  0  0  0  0
   -1.8666   -3.7133    0.1782 H   0  0  0  0  0  0  0  0  0  0  0  0
    2.6034   -1.6270    0.0927 H   0  0  0  0  0  0  0  0  0  0  0  0
    3.7420    0.0365   -2.2417 H   0  0  0  0  0  0  0  0  0  0  0  0
    3.1854   -1.6840   -2.3461 H   0  0  0  0  0  0  0  0  0  0  0  0
    5.4281   -1.4747   -1.9995 H   0  0  0  0  0  0  0  0  0  0  0  0
  1  2  1  0
  1  3  1  0
  3  4  1  0
  4  5  1  0
  5  6  1  0
  6  7  1  0
  6  8  1  0
  8  9  1  0
  8 10  1  0
 10 11  1  0
 11 12  1  0
  1 13  1  0
 13 14  1  0
 14 15  1  0
 13 16  1  0
 16 17  1  0
 17 18  1  0
 17 19  1  0
 17 20  1  0
 10  4  1  0
  1 21  1  6
  2 22  1  0
  3 23  1  0
  3 24  1  0
  5 25  1  0
  5 26  1  0
  6 27  1  1
  7 28  1  0
  8 29  1  6
  9 30  1  0
 10 31  1  1
 11 32  1  0
 11 33  1  0
 12 34  1  0
 13 35  1  0
 14 36  1  0
 14 37  1  0
 15 38  1  0
M  CHG  3  18  -1  19  -1  20  -1
M  END
$$$$
