
     RDKit          3D

102107  0  0  0  0  0  0  0  0999 V2000
    8.0201    1.7269   -5.7980 O   0  0  0  0  0  0  0  0  0  0  0  0
    6.6399    1.8527   -5.9200 C   0  0  0  0  0  0  0  0  0  0  0  0
    6.0357    1.2779   -6.8648 O   0  0  0  0  0  0  0  0  0  0  0  0
    5.8699    2.6314   -4.9010 C   0  0  0  0  0  0  0  0  0  0  0  0
    5.4599    1.7286   -3.7338 C   0  0  0  0  0  0  0  0  0  0  0  0
    4.6798    2.5214   -2.6744 C   0  0  0  0  0  0  0  0  0  0  0  0
    4.1349    1.6279   -1.5493 C   0  0  0  0  0  0  0  0  0  0  0  0
    5.2364    1.1449   -0.5905 C   0  0  0  0  0  0  0  0  0  0  0  0
    4.6765    0.2849    0.5503 C   0  0  0  0  0  0  0  0  0  0  0  0
    3.8808    1.1113    1.5336 C   0  0  0  0  0  0  0  0  0  0  0  0
    2.5404    1.0792    1.6617 C   0  0  0  0  0  0  0  0  0  0  0  0
    1.6309    0.1859    0.8558 C   0  0  2  0  0  0  0  0  0  0  0  0
    0.2914    0.5965    1.0154 O   0  0  0  0  0  0  0  0  0  0  0  0
   -0.2348   -0.4334    2.4130 Fe  0  0  2  0  0  4  0  0  0  0  0  0
    1.3071   -1.3991    2.5276 O   0  0  0  0  0  0  0  0  0  0  0  0
    1.8334   -1.2285    1.2785 N   0  0  0  0  0  0  0  0  0  0  0  0
    1.2276   -2.2617    0.4087 C   0  0  0  0  0  0  0  0  0  0  0  0
    1.3530   -2.0407   -1.1204 C   0  0  0  0  0  0  0  0  0  0  0  0
    0.1406   -1.2788   -1.7007 C   0  0  0  0  0  0  0  0  0  0  0  0
   -0.0969   -1.5500   -3.2023 C   0  0  0  0  0  0  0  0  0  0  0  0
   -1.5897   -1.4443   -3.6218 C   0  0  1  0  0  0  0  0  0  0  0  0
   -2.4523   -2.4814   -3.0255 N   0  0  0  0  0  0  0  0  0  0  0  0
   -1.9898   -3.6645   -2.3581 C   0  0  0  0  0  0  0  0  0  0  0  0
   -1.2213   -4.4610   -2.9599 O   0  0  0  0  0  0  0  0  0  0  0  0
   -2.4418   -3.9949   -0.9519 C   0  0  2  0  0  0  0  0  0  0  0  0
   -3.7153   -4.7910   -0.8864 C   0  0  0  0  0  0  0  0  0  0  0  0
   -4.3082   -4.4932    0.3525 O   0  0  0  0  0  0  0  0  0  0  0  0
   -3.6925   -3.3096    0.8372 C   0  0  2  0  0  0  0  0  0  0  0  0
   -2.7232   -2.8245   -0.1468 N   0  0  0  0  0  0  0  0  0  0  0  0
   -3.0088   -3.5421    2.1770 C   0  0  0  0  0  0  0  0  0  0  0  0
   -3.3669   -4.6437    2.9802 C   0  0  0  0  0  0  0  0  0  0  0  0
   -2.7539   -4.8508    4.2186 C   0  0  0  0  0  0  0  0  0  0  0  0
   -1.7880   -3.9571    4.6813 C   0  0  0  0  0  0  0  0  0  0  0  0
   -1.4396   -2.8459    3.9129 C   0  0  0  0  0  0  0  0  0  0  0  0
   -2.0517   -2.6234    2.6744 C   0  0  0  0  0  0  0  0  0  0  0  0
   -1.6954   -1.4990    1.9337 O   0  0  0  0  0  0  0  0  0  0  0  0
   -2.1502   -0.0919   -3.2643 C   0  0  0  0  0  0  0  0  0  0  0  0
   -2.3307    0.7803   -4.1568 O   0  0  0  0  0  0  0  0  0  0  0  0
   -2.4794    0.1700   -1.9307 O   0  0  0  0  0  0  0  0  0  0  0  0
   -3.2801    1.2662   -1.5091 C   0  0  0  0  0  0  0  0  0  0  0  0
   -3.4514    1.1869    0.0126 C   0  0  0  0  0  0  0  0  0  0  0  0
   -4.5228    2.1110    0.5384 C   0  0  0  0  0  0  0  0  0  0  0  0
   -5.5370    2.3430   -0.1738 O   0  0  0  0  0  0  0  0  0  0  0  0
   -4.5110    2.6049    1.8908 N   0  0  0  0  0  0  0  0  0  0  0  0
   -3.3140    2.9623    2.6674 C   0  0  2  0  0  0  0  0  0  0  0  0
   -2.4872    4.0095    1.8970 C   0  0  0  0  0  0  0  0  0  0  0  0
   -1.6672    4.9197    2.8251 C   0  0  0  0  0  0  0  0  0  0  0  0
   -0.8986    4.1633    3.9171 C   0  0  0  0  0  0  0  0  0  0  0  0
   -0.2476    2.8855    3.3828 C   0  0  0  0  0  0  0  0  0  0  0  0
   -1.1420    1.7244    3.4647 N   0  0  0  0  0  0  0  0  0  0  0  0
   -0.6049    0.5665    3.9273 O   0  0  0  0  0  0  0  0  0  0  0  0
   -2.5409    1.7209    3.0915 C   0  0  0  0  0  0  0  0  0  0  0  0
   -3.1879    0.6459    3.2208 O   0  0  0  0  0  0  0  0  0  0  0  0
    8.5541    1.1893   -6.4703 H   0  0  0  0  0  0  0  0  0  0  0  0
    4.9657    3.0693   -5.3779 H   0  0  0  0  0  0  0  0  0  0  0  0
    6.5037    3.4650   -4.5278 H   0  0  0  0  0  0  0  0  0  0  0  0
    6.3753    1.2934   -3.2789 H   0  0  0  0  0  0  0  0  0  0  0  0
    4.8251    0.8995   -4.1181 H   0  0  0  0  0  0  0  0  0  0  0  0
    5.3252    3.3188   -2.2448 H   0  0  0  0  0  0  0  0  0  0  0  0
    3.8142    3.0177   -3.1658 H   0  0  0  0  0  0  0  0  0  0  0  0
    3.6024    0.7556   -1.9876 H   0  0  0  0  0  0  0  0  0  0  0  0
    3.3934    2.2242   -0.9750 H   0  0  0  0  0  0  0  0  0  0  0  0
    5.9677    0.5257   -1.1510 H   0  0  0  0  0  0  0  0  0  0  0  0
    5.7821    2.0172   -0.1675 H   0  0  0  0  0  0  0  0  0  0  0  0
    4.0977   -0.5639    0.1340 H   0  0  0  0  0  0  0  0  0  0  0  0
    5.5310   -0.1605    1.1030 H   0  0  0  0  0  0  0  0  0  0  0  0
    4.4333    1.8138    2.1512 H   0  0  0  0  0  0  0  0  0  0  0  0
    2.0961    1.7473    2.3861 H   0  0  0  0  0  0  0  0  0  0  0  0
    1.9150    0.3367   -0.1991 H   0  0  0  0  0  0  0  0  0  0  0  0
    0.1701   -2.4446    0.6809 H   0  0  0  0  0  0  0  0  0  0  0  0
    1.7466   -3.2171    0.6415 H   0  0  0  0  0  0  0  0  0  0  0  0
    1.3874   -3.0510   -1.5836 H   0  0  0  0  0  0  0  0  0  0  0  0
    2.3079   -1.5417   -1.3877 H   0  0  0  0  0  0  0  0  0  0  0  0
    0.2652   -0.1863   -1.5670 H   0  0  0  0  0  0  0  0  0  0  0  0
   -0.7618   -1.5575   -1.1319 H   0  0  0  0  0  0  0  0  0  0  0  0
    0.4939   -0.8127   -3.7893 H   0  0  0  0  0  0  0  0  0  0  0  0
    0.2899   -2.5457   -3.5006 H   0  0  0  0  0  0  0  0  0  0  0  0
   -1.6359   -1.5643   -4.7265 H   0  0  0  0  0  0  0  0  0  0  0  0
   -3.4873   -2.3375   -3.0647 H   0  0  0  0  0  0  0  0  0  0  0  0
   -1.6305   -4.5701   -0.4497 H   0  0  0  0  0  0  0  0  0  0  0  0
   -3.5054   -5.8797   -0.9556 H   0  0  0  0  0  0  0  0  0  0  0  0
   -4.4148   -4.4979   -1.7002 H   0  0  0  0  0  0  0  0  0  0  0  0
   -4.4851   -2.5440    0.9999 H   0  0  0  0  0  0  0  0  0  0  0  0
   -3.2195   -2.1027   -0.7180 H   0  0  0  0  0  0  0  0  0  0  0  0
   -4.1202   -5.3492    2.6545 H   0  0  0  0  0  0  0  0  0  0  0  0
   -3.0309   -5.7055    4.8222 H   0  0  0  0  0  0  0  0  0  0  0  0
   -1.3146   -4.1212    5.6407 H   0  0  0  0  0  0  0  0  0  0  0  0
   -0.6987   -2.1522    4.2866 H   0  0  0  0  0  0  0  0  0  0  0  0
   -2.7885    2.2247   -1.7839 H   0  0  0  0  0  0  0  0  0  0  0  0
   -4.2665    1.1986   -2.0171 H   0  0  0  0  0  0  0  0  0  0  0  0
   -2.4701    1.4026    0.4755 H   0  0  0  0  0  0  0  0  0  0  0  0
   -3.7350    0.1504    0.2937 H   0  0  0  0  0  0  0  0  0  0  0  0
   -5.4323    2.8946    2.2915 H   0  0  0  0  0  0  0  0  0  0  0  0
   -3.6730    3.4386    3.6071 H   0  0  0  0  0  0  0  0  0  0  0  0
   -1.8252    3.5184    1.1538 H   0  0  0  0  0  0  0  0  0  0  0  0
   -3.1728    4.6662    1.3171 H   0  0  0  0  0  0  0  0  0  0  0  0
   -2.3439    5.6552    3.3125 H   0  0  0  0  0  0  0  0  0  0  0  0
   -0.9464    5.4949    2.2036 H   0  0  0  0  0  0  0  0  0  0  0  0
   -0.1070    4.8377    4.3109 H   0  0  0  0  0  0  0  0  0  0  0  0
   -1.5693    3.9223    4.7706 H   0  0  0  0  0  0  0  0  0  0  0  0
    0.1012    3.0246    2.3381 H   0  0  0  0  0  0  0  0  0  0  0  0
    0.6551    2.6838    3.9996 H   0  0  0  0  0  0  0  0  0  0  0  0
  1  2  1  0
  2  3  2  0
  2  4  1  0
  4  5  1  0
  5  6  1  0
  6  7  1  0
  7  8  1  0
  8  9  1  0
  9 10  1  0
 10 11  2  0
 11 12  1  0
 12 13  1  0
 14 13  1  6
 14 15  1  0
 15 16  1  0
 16 17  1  0
 17 18  1  0
 18 19  1  0
 19 20  1  0
 20 21  1  0
 21 22  1  0
 22 23  1  0
 23 24  2  0
 23 25  1  0
 25 26  1  0
 26 27  1  0
 27 28  1  0
 28 29  1  0
 28 30  1  0
 30 31  2  0
 31 32  1  0
 32 33  2  0
 33 34  1  0
 34 35  2  0
 35 36  1  0
 21 37  1  0
 37 38  2  0
 37 39  1  0
 39 40  1  0
 40 41  1  0
 41 42  1  0
 42 43  2  0
 42 44  1  0
 44 45  1  0
 45 46  1  0
 46 47  1  0
 47 48  1  0
 48 49  1  0
 49 50  1  0
 50 51  1  0
 50 52  1  0
 52 53  2  0
 16 12  1  0
 29 25  1  0
 35 30  1  0
 52 45  1  0
 36 14  1  0
 51 14  1  0
  1 54  1  0
  4 55  1  0
  4 56  1  0
  5 57  1  0
  5 58  1  0
  6 59  1  0
  6 60  1  0
  7 61  1  0
  7 62  1  0
  8 63  1  0
  8 64  1  0
  9 65  1  0
  9 66  1  0
 10 67  1  0
 11 68  1  0
 12 69  1  6
 17 70  1  0
 17 71  1  0
 18 72  1  0
 18 73  1  0
 19 74  1  0
 19 75  1  0
 20 76  1  0
 20 77  1  0
 21 78  1  6
 22 79  1  0
 25 80  1  1
 26 81  1  0
 26 82  1  0
 28 83  1  1
 29 84  1  0
 31 85  1  0
 32 86  1  0
 33 87  1  0
 34 88  1  0
 40 89  1  0
 40 90  1  0
 41 91  1  0
 41 92  1  0
 44 93  1  0
 45 94  1  1
 46 95  1  0
 46 96  1  0
 47 97  1  0
 47 98  1  0
 48 99  1  0
 48100  1  0
 49101  1  0
 49102  1  0
M  END
$$$$
