
     RDKit          3D

 29 28  0  0  0  0  0  0  0  0999 V2000
    0.2701    2.6634   -0.6271 O   0  0  0  0  0  0  0  0  0  0  0  0
    0.5845    1.7276    0.3732 C   0  0  2  0  0  0  0  0  0  0  0  0
    1.7302    0.8220   -0.1178 C   0  0  0  0  0  0  0  0  0  0  0  0
    2.1343   -0.0489    0.9116 O   0  0  0  0  0  0  0  0  0  0  0  0
    3.2123   -1.2055    0.2694 P   0  0  0  0  0  5  0  0  0  0  0  0
    2.3394   -2.4463   -0.4850 O   0  0  0  0  0  0  0  0  0  0  0  0
    4.2872   -0.4954   -0.8329 O   0  0  0  0  0  0  0  0  0  0  0  0
    4.0110   -1.8006    1.4057 O   0  0  0  0  0  0  0  0  0  0  0  0
   -0.7093    0.9703    0.7874 C   0  0  2  0  0  0  0  0  0  0  0  0
   -0.5373    0.3553    2.0426 O   0  0  0  0  0  0  0  0  0  0  0  0
   -1.2460   -0.0360   -0.2778 C   0  0  2  0  0  0  0  0  0  0  0  0
   -1.3786    0.5793   -1.5369 O   0  0  0  0  0  0  0  0  0  0  0  0
   -2.5835   -0.6839    0.1566 C   0  0  1  0  0  0  0  0  0  0  0  0
   -3.5692    0.3043    0.3159 O   0  0  0  0  0  0  0  0  0  0  0  0
   -3.0399   -1.6954   -0.8612 C   0  0  0  0  0  0  0  0  0  0  0  0
   -2.3875   -2.7078   -1.0615 O   0  0  0  0  0  0  0  0  0  0  0  0
    0.9902    3.3473   -0.6238 H   0  0  0  0  0  0  0  0  0  0  0  0
    0.9452    2.2773    1.2752 H   0  0  0  0  0  0  0  0  0  0  0  0
    1.3986    0.2778   -1.0294 H   0  0  0  0  0  0  0  0  0  0  0  0
    2.5857    1.4764   -0.3983 H   0  0  0  0  0  0  0  0  0  0  0  0
    1.9165   -2.0266   -1.2752 H   0  0  0  0  0  0  0  0  0  0  0  0
    3.8179   -0.5161   -1.7046 H   0  0  0  0  0  0  0  0  0  0  0  0
   -1.4898    1.7500    0.9294 H   0  0  0  0  0  0  0  0  0  0  0  0
   -0.0723   -0.5095    1.9055 H   0  0  0  0  0  0  0  0  0  0  0  0
   -0.5043   -0.8574   -0.3828 H   0  0  0  0  0  0  0  0  0  0  0  0
   -2.0187    1.3317   -1.4391 H   0  0  0  0  0  0  0  0  0  0  0  0
   -2.4278   -1.2151    1.1244 H   0  0  0  0  0  0  0  0  0  0  0  0
   -4.2986   -0.1006    0.8548 H   0  0  0  0  0  0  0  0  0  0  0  0
   -3.9601   -1.5375   -1.4150 H   0  0  0  0  0  0  0  0  0  0  0  0
  1  2  1  0
  2  3  1  0
  3  4  1  0
  4  5  1  0
  5  6  1  0
  5  7  1  0
  5  8  2  0
  2  9  1  0
  9 10  1  0
  9 11  1  0
 11 12  1  0
 11 13  1  0
 13 14  1  0
 13 15  1  0
 15 16  2  0
  1 17  1  0
  2 18  1  1
  3 19  1  0
  3 20  1  0
  6 21  1  0
  7 22  1  0
  9 23  1  1
 10 24  1  0
 11 25  1  6
 12 26  1  0
 13 27  1  1
 14 28  1  0
 15 29  1  0
M  END
$$$$
