
     RDKit          3D

 91 95  0  0  0  0  0  0  0  0999 V2000
    4.7254    0.4272    1.4783 C   0  0  1  0  0  0  0  0  0  0  0  0
    3.6731    1.3115    2.1587 C   0  0  0  0  0  0  0  0  0  0  0  0
    2.4695    1.5924    1.2422 C   0  0  0  0  0  0  0  0  0  0  0  0
    1.9588    0.3643    0.3869 C   0  0  1  0  0  0  0  0  0  0  0  0
    2.3889    0.5878   -1.0940 C   0  0  0  0  0  0  0  0  0  0  0  0
    2.5612   -0.9632    0.9913 C   0  0  1  0  0  0  0  0  0  0  0  0
    1.9603   -2.2346    0.3435 C   0  0  0  0  0  0  0  0  0  0  0  0
    0.4325   -2.2895    0.5065 C   0  0  0  0  0  0  0  0  0  0  0  0
   -0.3089   -1.0341   -0.0498 C   0  0  2  0  0  0  0  0  0  0  0  0
   -0.2161   -1.0583   -1.6247 C   0  0  0  0  0  0  0  0  0  0  0  0
    0.3752    0.2744    0.5098 C   0  0  2  0  0  0  0  0  0  0  0  0
   -0.4104    1.4877    0.0194 C   0  0  0  0  0  0  0  0  0  0  0  0
    0.1224    2.6279   -0.0366 O   0  0  0  0  0  0  0  0  0  0  0  0
   -1.8381    1.3617   -0.3538 C   0  0  0  0  0  0  0  0  0  0  0  0
   -2.5315    0.2042   -0.2444 C   0  0  0  0  0  0  0  0  0  0  0  0
   -4.0185    0.2357   -0.5954 C   0  0  2  0  0  0  0  0  0  0  0  0
   -4.8260    0.9581    0.5084 C   0  0  0  0  0  0  0  0  0  0  0  0
   -6.2730    1.3184    0.0322 C   0  0  2  0  0  0  0  0  0  0  0  0
   -7.1985    1.3425    1.2701 C   0  0  0  0  0  0  0  0  0  0  0  0
   -6.8021    0.2785   -1.0026 C   0  0  0  0  0  0  0  0  0  0  0  0
   -6.2164   -1.1201   -0.7634 C   0  0  0  0  0  0  0  0  0  0  0  0
   -4.6569   -1.1582   -0.9385 C   0  0  1  0  0  0  0  0  0  0  0  0
   -4.3523   -1.5120   -2.4163 C   0  0  0  0  0  0  0  0  0  0  0  0
   -4.1067   -2.2687   -0.0074 C   0  0  0  0  0  0  0  0  0  0  0  0
   -2.5760   -2.3530    0.0147 C   0  0  0  0  0  0  0  0  0  0  0  0
   -1.8600   -1.0147    0.4033 C   0  0  1  0  0  0  0  0  0  0  0  0
   -2.0471   -0.8324    1.9482 C   0  0  0  0  0  0  0  0  0  0  0  0
   -6.3068    2.6927   -0.6192 C   0  0  0  0  0  0  0  0  0  0  0  0
   -7.5189    3.3645   -0.7611 O   0  0  0  0  0  0  0  0  0  0  0  0
   -5.2605    3.2074   -1.1006 O   0  0  0  0  0  0  0  0  0  0  0  0
    4.1437   -0.9983    1.1467 C   0  0  0  0  0  0  0  0  0  0  0  0
    4.8496   -1.5855   -0.1043 C   0  0  0  0  0  0  0  0  0  0  0  0
    4.5048   -1.9334    2.3360 C   0  0  0  0  0  0  0  0  0  0  0  0
    5.2246    1.0803    0.3081 O   0  0  0  0  0  0  0  0  0  0  0  0
    6.0736    2.1920    0.3315 C   0  0  0  0  0  0  0  0  0  0  0  0
    6.5764    2.6002    1.4137 O   0  0  0  0  0  0  0  0  0  0  0  0
    6.4199    2.8741   -0.9554 C   0  0  0  0  0  0  0  0  0  0  0  0
    7.6526    2.2460   -1.6138 C   0  0  0  0  0  0  0  0  0  0  0  0
    7.3926    0.8385   -2.0580 C   0  0  0  0  0  0  0  0  0  0  0  0
    8.0081   -0.2211   -1.3995 O   0  0  0  0  0  0  0  0  0  0  0  0
    6.6106    0.6131   -3.0202 O   0  0  0  0  0  0  0  0  0  0  0  0
    5.5806    0.3219    2.1845 H   0  0  0  0  0  0  0  0  0  0  0  0
    3.3245    0.8188    3.0925 H   0  0  0  0  0  0  0  0  0  0  0  0
    4.1294    2.2772    2.4652 H   0  0  0  0  0  0  0  0  0  0  0  0
    1.6697    1.9797    1.9099 H   0  0  0  0  0  0  0  0  0  0  0  0
    2.7316    2.4491    0.5819 H   0  0  0  0  0  0  0  0  0  0  0  0
    3.4158    0.9777   -1.1797 H   0  0  0  0  0  0  0  0  0  0  0  0
    2.3612   -0.3331   -1.6984 H   0  0  0  0  0  0  0  0  0  0  0  0
    1.7506    1.3465   -1.5888 H   0  0  0  0  0  0  0  0  0  0  0  0
    2.1697   -0.9883    2.0354 H   0  0  0  0  0  0  0  0  0  0  0  0
    2.2515   -2.3253   -0.7191 H   0  0  0  0  0  0  0  0  0  0  0  0
    2.3663   -3.1388    0.8404 H   0  0  0  0  0  0  0  0  0  0  0  0
    0.0642   -3.2050   -0.0049 H   0  0  0  0  0  0  0  0  0  0  0  0
    0.2316   -2.4280    1.5850 H   0  0  0  0  0  0  0  0  0  0  0  0
    0.6072   -1.6879   -2.0080 H   0  0  0  0  0  0  0  0  0  0  0  0
   -1.1126   -1.4552   -2.1172 H   0  0  0  0  0  0  0  0  0  0  0  0
   -0.0985   -0.0478   -2.0616 H   0  0  0  0  0  0  0  0  0  0  0  0
    0.2250    0.2599    1.6058 H   0  0  0  0  0  0  0  0  0  0  0  0
   -2.3314    2.2477   -0.7371 H   0  0  0  0  0  0  0  0  0  0  0  0
   -4.1067    0.8661   -1.5102 H   0  0  0  0  0  0  0  0  0  0  0  0
   -4.2987    1.8746    0.8547 H   0  0  0  0  0  0  0  0  0  0  0  0
   -4.8692    0.2886    1.3938 H   0  0  0  0  0  0  0  0  0  0  0  0
   -7.2176    0.3508    1.7703 H   0  0  0  0  0  0  0  0  0  0  0  0
   -6.8421    2.0967    2.0050 H   0  0  0  0  0  0  0  0  0  0  0  0
   -8.2430    1.5966    0.9882 H   0  0  0  0  0  0  0  0  0  0  0  0
   -6.5394    0.5880   -2.0387 H   0  0  0  0  0  0  0  0  0  0  0  0
   -7.9126    0.2211   -0.9710 H   0  0  0  0  0  0  0  0  0  0  0  0
   -6.7095   -1.8431   -1.4505 H   0  0  0  0  0  0  0  0  0  0  0  0
   -6.5143   -1.4329    0.2613 H   0  0  0  0  0  0  0  0  0  0  0  0
   -4.8819   -0.8190   -3.1041 H   0  0  0  0  0  0  0  0  0  0  0  0
   -4.6808   -2.5468   -2.6536 H   0  0  0  0  0  0  0  0  0  0  0  0
   -3.2736   -1.4291   -2.6395 H   0  0  0  0  0  0  0  0  0  0  0  0
   -4.5058   -3.2553   -0.3327 H   0  0  0  0  0  0  0  0  0  0  0  0
   -4.4810   -2.1264    1.0265 H   0  0  0  0  0  0  0  0  0  0  0  0
   -2.2489   -2.7616   -0.9568 H   0  0  0  0  0  0  0  0  0  0  0  0
   -2.2957   -3.1415    0.7477 H   0  0  0  0  0  0  0  0  0  0  0  0
   -1.4638   -1.5593    2.5418 H   0  0  0  0  0  0  0  0  0  0  0  0
   -1.7984    0.1930    2.2910 H   0  0  0  0  0  0  0  0  0  0  0  0
   -3.1002   -0.9693    2.2537 H   0  0  0  0  0  0  0  0  0  0  0  0
   -7.5627    4.2681   -1.2169 H   0  0  0  0  0  0  0  0  0  0  0  0
    5.9523   -1.5311    0.0190 H   0  0  0  0  0  0  0  0  0  0  0  0
    4.5838   -1.0381   -1.0282 H   0  0  0  0  0  0  0  0  0  0  0  0
    4.5915   -2.6552   -0.2526 H   0  0  0  0  0  0  0  0  0  0  0  0
    4.0686   -1.5567    3.2859 H   0  0  0  0  0  0  0  0  0  0  0  0
    5.6069   -1.9952    2.4704 H   0  0  0  0  0  0  0  0  0  0  0  0
    4.1406   -2.9681    2.1756 H   0  0  0  0  0  0  0  0  0  0  0  0
    5.5506    2.8240   -1.6467 H   0  0  0  0  0  0  0  0  0  0  0  0
    6.6248    3.9482   -0.7555 H   0  0  0  0  0  0  0  0  0  0  0  0
    7.9363    2.8523   -2.5008 H   0  0  0  0  0  0  0  0  0  0  0  0
    8.5097    2.2657   -0.9057 H   0  0  0  0  0  0  0  0  0  0  0  0
    7.8452   -1.1777   -1.6901 H   0  0  0  0  0  0  0  0  0  0  0  0
  1  2  1  0
  2  3  1  0
  3  4  1  0
  4  5  1  6
  4  6  1  0
  6  7  1  0
  7  8  1  0
  8  9  1  0
  9 10  1  6
  9 11  1  0
 11 12  1  0
 12 13  2  0
 12 14  1  0
 14 15  2  0
 15 16  1  0
 16 17  1  0
 17 18  1  0
 18 19  1  1
 18 20  1  0
 20 21  1  0
 21 22  1  0
 22 23  1  6
 22 24  1  0
 24 25  1  0
 25 26  1  0
 26 27  1  1
 18 28  1  0
 28 29  1  0
 28 30  2  0
  6 31  1  0
 31 32  1  0
 31 33  1  0
  1 34  1  0
 34 35  1  0
 35 36  2  0
 35 37  1  0
 37 38  1  0
 38 39  1  0
 39 40  1  0
 39 41  2  0
 31  1  1  0
 11  4  1  0
 26 15  1  0
 26  9  1  0
 22 16  1  0
  1 42  1  1
  2 43  1  0
  2 44  1  0
  3 45  1  0
  3 46  1  0
  5 47  1  0
  5 48  1  0
  5 49  1  0
  6 50  1  1
  7 51  1  0
  7 52  1  0
  8 53  1  0
  8 54  1  0
 10 55  1  0
 10 56  1  0
 10 57  1  0
 11 58  1  1
 14 59  1  0
 16 60  1  6
 17 61  1  0
 17 62  1  0
 19 63  1  0
 19 64  1  0
 19 65  1  0
 20 66  1  0
 20 67  1  0
 21 68  1  0
 21 69  1  0
 23 70  1  0
 23 71  1  0
 23 72  1  0
 24 73  1  0
 24 74  1  0
 25 75  1  0
 25 76  1  0
 27 77  1  0
 27 78  1  0
 27 79  1  0
 29 80  1  0
 32 81  1  0
 32 82  1  0
 32 83  1  0
 33 84  1  0
 33 85  1  0
 33 86  1  0
 37 87  1  0
 37 88  1  0
 38 89  1  0
 38 90  1  0
 40 91  1  0
M  END
$$$$
