
     RDKit          3D

160165  0  0  0  0  0  0  0  0999 V2000
   -0.2229    5.3974   -1.7878 C   0  0  0  0  0  0  0  0  0  0  0  0
   -0.5271    4.8591   -3.1924 C   0  0  0  0  0  0  0  0  0  0  0  0
   -0.4264    5.9964   -4.2170 C   0  0  0  0  0  0  0  0  0  0  0  0
   -1.9198    4.1854   -3.2801 C   0  0  0  0  0  0  0  0  0  0  0  0
   -2.0356    2.9053   -2.4182 C   0  0  0  0  0  0  0  0  0  0  0  0
   -2.4188    3.2168   -1.0336 N   0  0  0  0  0  0  0  0  0  0  0  0
   -2.4669    2.2068   -0.0140 C   0  0  0  0  0  0  0  0  0  0  0  0
   -2.2302    1.0042   -0.3028 O   0  0  0  0  0  0  0  0  0  0  0  0
   -2.7952    2.5631    1.4041 C   0  0  0  0  0  0  0  0  0  0  0  0
   -1.6745    2.2224    2.2774 N   0  0  0  0  0  0  0  0  0  0  0  0
   -0.4201    2.9200    2.2002 C   0  0  0  0  0  0  0  0  0  0  0  0
   -0.3690    4.0328    1.6083 O   0  0  0  0  0  0  0  0  0  0  0  0
    0.8495    2.3758    2.8225 C   0  0  0  0  0  0  0  0  0  0  0  0
    1.9709    2.2407    1.7701 C   0  0  0  0  0  0  0  0  0  0  0  0
    1.7337    1.1054    0.8017 C   0  0  0  0  0  0  0  0  0  0  0  0
    2.2807   -0.1580    1.0599 C   0  0  0  0  0  0  0  0  0  0  0  0
    2.0797   -1.2166    0.1712 C   0  0  0  0  0  0  0  0  0  0  0  0
    1.3163   -1.0259   -0.9830 C   0  0  0  0  0  0  0  0  0  0  0  0
    1.1237   -2.0871   -1.8643 O   0  0  0  0  0  0  0  0  0  0  0  0
    0.7507    0.2291   -1.2405 C   0  0  0  0  0  0  0  0  0  0  0  0
    0.9530    1.2883   -0.3485 C   0  0  0  0  0  0  0  0  0  0  0  0
    0.6340    1.0894    3.4985 N   0  0  0  0  0  0  0  0  0  0  0  0
    1.3279    0.7211    4.7005 C   0  0  0  0  0  0  0  0  0  0  0  0
    2.0082    1.5776    5.3292 O   0  0  0  0  0  0  0  0  0  0  0  0
    1.2730   -0.6981    5.2047 C   0  0  0  0  0  0  0  0  0  0  0  0
    0.6802   -0.7523    6.6163 C   0  0  0  0  0  0  0  0  0  0  0  0
    0.5776   -2.0861    7.0328 O   0  0  0  0  0  0  0  0  0  0  0  0
    2.6236   -1.2670    5.1996 N   0  0  0  0  0  0  0  0  0  0  0  0
    3.1250   -2.0353    4.0965 C   0  0  0  0  0  0  0  0  0  0  0  0
    2.3251   -2.5263    3.2536 O   0  0  0  0  0  0  0  0  0  0  0  0
    4.6073   -2.2684    3.9416 C   0  0  0  0  0  0  0  0  0  0  0  0
    5.0280   -3.6854    4.3821 C   0  0  0  0  0  0  0  0  0  0  0  0
    4.2796   -4.7891    3.6844 C   0  0  0  0  0  0  0  0  0  0  0  0
    4.6107   -5.3823    2.4694 C   0  0  0  0  0  0  0  0  0  0  0  0
    3.6932   -6.3183    2.1353 N   0  0  0  0  0  0  0  0  0  0  0  0
    2.7858   -6.3211    3.1272 C   0  0  0  0  0  0  0  0  0  0  0  0
    1.6466   -7.1185    3.2281 C   0  0  0  0  0  0  0  0  0  0  0  0
    0.8263   -6.9536    4.3593 C   0  0  0  0  0  0  0  0  0  0  0  0
    1.1557   -6.0018    5.3498 C   0  0  0  0  0  0  0  0  0  0  0  0
    2.3107   -5.2097    5.2206 C   0  0  0  0  0  0  0  0  0  0  0  0
    3.1085   -5.4008    4.0913 C   0  0  0  0  0  0  0  0  0  0  0  0
    5.0171   -1.9997    2.5574 N   0  0  0  0  0  0  0  0  0  0  0  0
    5.5689   -0.7371    2.1458 C   0  0  0  0  0  0  0  0  0  0  0  0
    5.9094    0.1171    3.0097 O   0  0  0  0  0  0  0  0  0  0  0  0
    5.7931   -0.4470    0.6817 C   0  0  0  0  0  0  0  0  0  0  0  0
    7.2654   -0.7057    0.3260 C   0  0  0  0  0  0  0  0  0  0  0  0
    7.5092   -0.5481   -1.1449 C   0  0  0  0  0  0  0  0  0  0  0  0
    8.0852    0.5353   -1.7687 C   0  0  0  0  0  0  0  0  0  0  0  0
    8.0596    0.3407   -3.1023 N   0  0  0  0  0  0  0  0  0  0  0  0
    7.4619   -0.8611   -3.2538 C   0  0  0  0  0  0  0  0  0  0  0  0
    7.1126   -1.4230   -2.0816 N   0  0  0  0  0  0  0  0  0  0  0  0
    5.4277    0.9443    0.3778 N   0  0  0  0  0  0  0  0  0  0  0  0
    4.7871    1.3355   -0.8483 C   0  0  0  0  0  0  0  0  0  0  0  0
    4.4731    0.4646   -1.7053 O   0  0  0  0  0  0  0  0  0  0  0  0
    4.5795    2.7988   -1.1493 C   0  0  0  0  0  0  0  0  0  0  0  0
    3.2786    3.1021   -1.9417 C   0  0  0  0  0  0  0  0  0  0  0  0
    3.6736    3.9686   -3.1471 C   0  0  0  0  0  0  0  0  0  0  0  0
    5.1483    3.9728   -3.0918 C   0  0  0  0  0  0  0  0  0  0  0  0
    5.8819    4.5402   -3.9431 O   0  0  0  0  0  0  0  0  0  0  0  0
    5.6667    3.2917   -1.9721 N   0  0  0  0  0  0  0  0  0  0  0  0
   -3.0283    1.9468   -3.0248 C   0  0  0  0  0  0  0  0  0  0  0  0
   -2.6121    1.0292   -3.7833 O   0  0  0  0  0  0  0  0  0  0  0  0
   -4.4306    2.0670   -2.7450 N   0  0  0  0  0  0  0  0  0  0  0  0
   -5.3384    0.9268   -2.9037 C   0  0  0  0  0  0  0  0  0  0  0  0
   -6.8085    1.3867   -2.8932 C   0  0  0  0  0  0  0  0  0  0  0  0
   -7.1427    2.2574   -4.1138 C   0  0  0  0  0  0  0  0  0  0  0  0
   -8.5917    2.7627   -4.1073 C   0  0  0  0  0  0  0  0  0  0  0  0
   -9.5359    1.6787   -4.3857 N   0  0  0  0  0  0  0  0  0  0  0  0
  -10.1733    0.9332   -3.5270 C   0  0  0  0  0  0  0  0  0  0  0  0
  -10.0392    1.1113   -2.1103 N   0  0  0  0  0  0  0  0  0  0  0  0
  -11.0431   -0.0872   -4.0169 N   0  0  0  0  0  0  0  0  0  0  0  0
   -5.0980   -0.0549   -1.7779 C   0  0  0  0  0  0  0  0  0  0  0  0
   -5.2378    0.3447   -0.5892 O   0  0  0  0  0  0  0  0  0  0  0  0
   -4.7027   -1.4204   -2.0218 N   0  0  0  0  0  0  0  0  0  0  0  0
   -4.6839   -2.0502   -3.3335 C   0  0  0  0  0  0  0  0  0  0  0  0
   -4.2605   -3.4950   -3.0973 C   0  0  0  0  0  0  0  0  0  0  0  0
   -4.4346   -3.7414   -1.6016 C   0  0  0  0  0  0  0  0  0  0  0  0
   -4.4014   -2.3593   -0.9486 C   0  0  0  0  0  0  0  0  0  0  0  0
   -3.0428   -2.0640   -0.3647 C   0  0  0  0  0  0  0  0  0  0  0  0
   -2.0445   -1.9647   -1.1299 O   0  0  0  0  0  0  0  0  0  0  0  0
   -2.8832   -1.9076    1.0531 N   0  0  0  0  0  0  0  0  0  0  0  0
   -1.5857   -1.6557    1.6755 C   0  0  0  0  0  0  0  0  0  0  0  0
   -0.8244   -2.9367    1.8259 C   0  0  0  0  0  0  0  0  0  0  0  0
   -0.7695   -3.6042    3.0860 N   0  0  0  0  0  0  0  0  0  0  0  0
   -0.2480   -3.4438    0.8274 O   0  0  0  0  0  0  0  0  0  0  0  0
   -0.1345    4.5632   -1.0643 H   0  0  0  0  0  0  0  0  0  0  0  0
    0.7484    5.9369   -1.7841 H   0  0  0  0  0  0  0  0  0  0  0  0
   -1.0208    6.0935   -1.4518 H   0  0  0  0  0  0  0  0  0  0  0  0
    0.2525    4.1081   -3.4518 H   0  0  0  0  0  0  0  0  0  0  0  0
   -0.5939    5.6061   -5.2436 H   0  0  0  0  0  0  0  0  0  0  0  0
    0.5862    6.4528   -4.1875 H   0  0  0  0  0  0  0  0  0  0  0  0
   -1.1820    6.7830   -4.0039 H   0  0  0  0  0  0  0  0  0  0  0  0
   -2.7202    4.9094   -3.0101 H   0  0  0  0  0  0  0  0  0  0  0  0
   -2.0880    3.9112   -4.3462 H   0  0  0  0  0  0  0  0  0  0  0  0
   -1.0465    2.4026   -2.4053 H   0  0  0  0  0  0  0  0  0  0  0  0
   -2.6675    4.1972   -0.7711 H   0  0  0  0  0  0  0  0  0  0  0  0
   -3.0330    3.6439    1.5012 H   0  0  0  0  0  0  0  0  0  0  0  0
   -3.6948    1.9894    1.7145 H   0  0  0  0  0  0  0  0  0  0  0  0
   -1.8164    1.4609    2.9768 H   0  0  0  0  0  0  0  0  0  0  0  0
    1.1761    3.1338    3.5675 H   0  0  0  0  0  0  0  0  0  0  0  0
    2.0891    3.1938    1.2099 H   0  0  0  0  0  0  0  0  0  0  0  0
    2.9364    2.0793    2.2988 H   0  0  0  0  0  0  0  0  0  0  0  0
    2.8683   -0.3126    1.9498 H   0  0  0  0  0  0  0  0  0  0  0  0
    2.5170   -2.1846    0.3795 H   0  0  0  0  0  0  0  0  0  0  0  0
    0.5715   -1.9813   -2.7073 H   0  0  0  0  0  0  0  0  0  0  0  0
    0.1575    0.3810   -2.1319 H   0  0  0  0  0  0  0  0  0  0  0  0
    0.5168    2.2538   -0.5603 H   0  0  0  0  0  0  0  0  0  0  0  0
    0.1550    0.3294    2.9673 H   0  0  0  0  0  0  0  0  0  0  0  0
    0.6052   -1.2971    4.5475 H   0  0  0  0  0  0  0  0  0  0  0  0
    1.3271   -0.1869    7.3250 H   0  0  0  0  0  0  0  0  0  0  0  0
   -0.3323   -0.2886    6.6084 H   0  0  0  0  0  0  0  0  0  0  0  0
    0.1901   -2.0604    7.9461 H   0  0  0  0  0  0  0  0  0  0  0  0
    3.2987   -0.9451    5.9302 H   0  0  0  0  0  0  0  0  0  0  0  0
    5.1419   -1.5685    4.6198 H   0  0  0  0  0  0  0  0  0  0  0  0
    6.1162   -3.8138    4.1949 H   0  0  0  0  0  0  0  0  0  0  0  0
    4.8800   -3.7836    5.4792 H   0  0  0  0  0  0  0  0  0  0  0  0
    5.4733   -5.1394    1.8627 H   0  0  0  0  0  0  0  0  0  0  0  0
    3.6921   -6.9138    1.2775 H   0  0  0  0  0  0  0  0  0  0  0  0
    1.3996   -7.8414    2.4615 H   0  0  0  0  0  0  0  0  0  0  0  0
   -0.0662   -7.5558    4.4680 H   0  0  0  0  0  0  0  0  0  0  0  0
    0.5136   -5.8784    6.2120 H   0  0  0  0  0  0  0  0  0  0  0  0
    2.5643   -4.4751    5.9737 H   0  0  0  0  0  0  0  0  0  0  0  0
    4.7454   -2.6821    1.8151 H   0  0  0  0  0  0  0  0  0  0  0  0
    5.1538   -1.1398    0.0915 H   0  0  0  0  0  0  0  0  0  0  0  0
    7.9218   -0.0074    0.8907 H   0  0  0  0  0  0  0  0  0  0  0  0
    7.5419   -1.7429    0.6165 H   0  0  0  0  0  0  0  0  0  0  0  0
    8.4858    1.4174   -1.2872 H   0  0  0  0  0  0  0  0  0  0  0  0
    7.2753   -1.3182   -4.2165 H   0  0  0  0  0  0  0  0  0  0  0  0
    6.6229   -2.3338   -1.9370 H   0  0  0  0  0  0  0  0  0  0  0  0
    5.7893    1.7017    1.0011 H   0  0  0  0  0  0  0  0  0  0  0  0
    4.5621    3.3760   -0.1988 H   0  0  0  0  0  0  0  0  0  0  0  0
    2.5549    3.6502   -1.3004 H   0  0  0  0  0  0  0  0  0  0  0  0
    2.7839    2.1781   -2.3090 H   0  0  0  0  0  0  0  0  0  0  0  0
    3.2851    5.0040   -3.0367 H   0  0  0  0  0  0  0  0  0  0  0  0
    3.3198    3.5203   -4.1003 H   0  0  0  0  0  0  0  0  0  0  0  0
    6.6771    3.2640   -1.7093 H   0  0  0  0  0  0  0  0  0  0  0  0
   -4.7688    2.9239   -2.2504 H   0  0  0  0  0  0  0  0  0  0  0  0
   -5.1465    0.4527   -3.8879 H   0  0  0  0  0  0  0  0  0  0  0  0
   -7.4574    0.4845   -2.9064 H   0  0  0  0  0  0  0  0  0  0  0  0
   -7.0158    1.9563   -1.9607 H   0  0  0  0  0  0  0  0  0  0  0  0
   -6.9613    1.6807   -5.0475 H   0  0  0  0  0  0  0  0  0  0  0  0
   -6.4705    3.1425   -4.1269 H   0  0  0  0  0  0  0  0  0  0  0  0
   -8.8381    3.3079   -3.1734 H   0  0  0  0  0  0  0  0  0  0  0  0
   -8.6865    3.5047   -4.9281 H   0  0  0  0  0  0  0  0  0  0  0  0
   -9.4321    1.8399   -1.6805 H   0  0  0  0  0  0  0  0  0  0  0  0
  -10.5669    0.4881   -1.4600 H   0  0  0  0  0  0  0  0  0  0  0  0
  -11.1611   -0.2362   -5.0439 H   0  0  0  0  0  0  0  0  0  0  0  0
  -11.5703   -0.6988   -3.3553 H   0  0  0  0  0  0  0  0  0  0  0  0
   -3.9524   -1.5427   -3.9984 H   0  0  0  0  0  0  0  0  0  0  0  0
   -5.7011   -2.0137   -3.7809 H   0  0  0  0  0  0  0  0  0  0  0  0
   -3.1893   -3.6203   -3.3698 H   0  0  0  0  0  0  0  0  0  0  0  0
   -4.8743   -4.2012   -3.6976 H   0  0  0  0  0  0  0  0  0  0  0  0
   -3.6520   -4.4281   -1.2085 H   0  0  0  0  0  0  0  0  0  0  0  0
   -5.4300   -4.2060   -1.4253 H   0  0  0  0  0  0  0  0  0  0  0  0
   -5.1868   -2.3036   -0.1625 H   0  0  0  0  0  0  0  0  0  0  0  0
   -3.7236   -1.9686    1.6709 H   0  0  0  0  0  0  0  0  0  0  0  0
   -0.9993   -0.9322    1.0710 H   0  0  0  0  0  0  0  0  0  0  0  0
   -1.7455   -1.1993    2.6754 H   0  0  0  0  0  0  0  0  0  0  0  0
   -0.2383   -4.4969    3.1815 H   0  0  0  0  0  0  0  0  0  0  0  0
   -1.2488   -3.2085    3.9249 H   0  0  0  0  0  0  0  0  0  0  0  0
  1  2  1  0
  2  3  1  0
  2  4  1  0
  4  5  1  0
  5  6  1  0
  6  7  1  0
  7  8  2  0
  7  9  1  0
  9 10  1  0
 10 11  1  0
 11 12  2  0
 11 13  1  0
 13 14  1  0
 14 15  1  0
 15 16  2  0
 16 17  1  0
 17 18  2  0
 18 19  1  0
 18 20  1  0
 20 21  2  0
 13 22  1  0
 22 23  1  0
 23 24  2  0
 23 25  1  0
 25 26  1  0
 26 27  1  0
 25 28  1  0
 28 29  1  0
 29 30  2  0
 29 31  1  0
 31 32  1  0
 32 33  1  0
 33 34  2  0
 34 35  1  0
 35 36  1  0
 36 37  2  0
 37 38  1  0
 38 39  2  0
 39 40  1  0
 40 41  2  0
 31 42  1  0
 42 43  1  0
 43 44  2  0
 43 45  1  0
 45 46  1  0
 46 47  1  0
 47 48  2  0
 48 49  1  0
 49 50  2  0
 50 51  1  0
 45 52  1  0
 52 53  1  0
 53 54  2  0
 53 55  1  0
 55 56  1  0
 56 57  1  0
 57 58  1  0
 58 59  2  0
 58 60  1  0
  5 61  1  0
 61 62  2  0
 61 63  1  0
 63 64  1  0
 64 65  1  0
 65 66  1  0
 66 67  1  0
 67 68  1  0
 68 69  2  3
 69 70  1  0
 69 71  1  0
 64 72  1  0
 72 73  2  0
 72 74  1  0
 74 75  1  0
 75 76  1  0
 76 77  1  0
 77 78  1  0
 78 79  1  0
 79 80  2  0
 79 81  1  0
 81 82  1  0
 82 83  1  0
 83 84  1  0
 83 85  2  0
 21 15  1  0
 41 33  1  0
 51 47  1  0
 60 55  1  0
 78 74  1  0
 41 36  1  0
  1 86  1  0
  1 87  1  0
  1 88  1  0
  2 89  1  0
  3 90  1  0
  3 91  1  0
  3 92  1  0
  4 93  1  0
  4 94  1  0
  5 95  1  0
  6 96  1  0
  9 97  1  0
  9 98  1  0
 10 99  1  0
 13100  1  0
 14101  1  0
 14102  1  0
 16103  1  0
 17104  1  0
 19105  1  0
 20106  1  0
 21107  1  0
 22108  1  0
 25109  1  0
 26110  1  0
 26111  1  0
 27112  1  0
 28113  1  0
 31114  1  0
 32115  1  0
 32116  1  0
 34117  1  0
 35118  1  0
 37119  1  0
 38120  1  0
 39121  1  0
 40122  1  0
 42123  1  0
 45124  1  0
 46125  1  0
 46126  1  0
 48127  1  0
 50128  1  0
 51129  1  0
 52130  1  0
 55131  1  0
 56132  1  0
 56133  1  0
 57134  1  0
 57135  1  0
 60136  1  0
 63137  1  0
 64138  1  0
 65139  1  0
 65140  1  0
 66141  1  0
 66142  1  0
 67143  1  0
 67144  1  0
 70145  1  0
 70146  1  0
 71147  1  0
 71148  1  0
 75149  1  0
 75150  1  0
 76151  1  0
 76152  1  0
 77153  1  0
 77154  1  0
 78155  1  0
 81156  1  0
 82157  1  0
 82158  1  0
 84159  1  0
 84160  1  0
M  END
$$$$
