
     RDKit          3D

 32 34  0  0  0  0  0  0  0  0999 V2000
   -4.5905    2.5289   -0.1063 O   0  0  0  0  0  0  0  0  0  0  0  0
   -3.6297    1.5219   -0.0471 C   0  0  0  0  0  0  0  0  0  0  0  0
   -2.2813    1.8610    0.0860 C   0  0  0  0  0  0  0  0  0  0  0  0
   -1.3049    0.8623    0.1469 C   0  0  0  0  0  0  0  0  0  0  0  0
   -1.6672   -0.4991    0.0880 C   0  0  0  0  0  0  0  0  0  0  0  0
   -3.0283   -0.8268   -0.0619 C   0  0  0  0  0  0  0  0  0  0  0  0
   -4.0013    0.1747   -0.1228 C   0  0  0  0  0  0  0  0  0  0  0  0
   -0.6353   -1.6199    0.1110 C   0  0  1  0  0  0  0  0  0  0  0  0
   -0.0450   -1.8667   -1.2872 C   0  0  0  0  0  0  0  0  0  0  0  0
    0.8893   -0.8492   -1.6374 O   0  0  0  0  0  0  0  0  0  0  0  0
    1.8090   -0.3435   -0.7151 C   0  0  0  0  0  0  0  0  0  0  0  0
    1.6456   -0.5919    0.6614 C   0  0  0  0  0  0  0  0  0  0  0  0
    0.4863   -1.4217    1.1607 C   0  0  0  0  0  0  0  0  0  0  0  0
    2.5815   -0.0777    1.5709 C   0  0  0  0  0  0  0  0  0  0  0  0
    3.6533    0.6963    1.1166 C   0  0  0  0  0  0  0  0  0  0  0  0
    3.8016    0.9601   -0.2518 C   0  0  0  0  0  0  0  0  0  0  0  0
    4.8626    1.7350   -0.7147 O   0  0  0  0  0  0  0  0  0  0  0  0
    2.8771    0.4404   -1.1637 C   0  0  0  0  0  0  0  0  0  0  0  0
   -5.5762    2.3151   -0.2036 H   0  0  0  0  0  0  0  0  0  0  0  0
   -1.9881    2.9019    0.1393 H   0  0  0  0  0  0  0  0  0  0  0  0
   -0.2747    1.1663    0.2433 H   0  0  0  0  0  0  0  0  0  0  0  0
   -3.3394   -1.8616   -0.1344 H   0  0  0  0  0  0  0  0  0  0  0  0
   -5.0432   -0.0979   -0.2330 H   0  0  0  0  0  0  0  0  0  0  0  0
   -1.1633   -2.5554    0.4046 H   0  0  0  0  0  0  0  0  0  0  0  0
    0.4797   -2.8468   -1.2927 H   0  0  0  0  0  0  0  0  0  0  0  0
   -0.8496   -1.9088   -2.0521 H   0  0  0  0  0  0  0  0  0  0  0  0
    0.8885   -2.4190    1.4438 H   0  0  0  0  0  0  0  0  0  0  0  0
    0.0604   -0.9664    2.0818 H   0  0  0  0  0  0  0  0  0  0  0  0
    2.4768   -0.2713    2.6313 H   0  0  0  0  0  0  0  0  0  0  0  0
    4.3663    1.0923    1.8285 H   0  0  0  0  0  0  0  0  0  0  0  0
    5.5491    2.1258   -0.0800 H   0  0  0  0  0  0  0  0  0  0  0  0
    2.9907    0.6417   -2.2215 H   0  0  0  0  0  0  0  0  0  0  0  0
  1  2  1  0
  2  3  2  0
  3  4  1  0
  4  5  2  0
  5  6  1  0
  6  7  2  0
  5  8  1  0
  8  9  1  0
  9 10  1  0
 10 11  1  0
 11 12  2  0
 12 13  1  0
 12 14  1  0
 14 15  2  0
 15 16  1  0
 16 17  1  0
 16 18  2  0
  7  2  1  0
 13  8  1  0
 18 11  1  0
  1 19  1  0
  3 20  1  0
  4 21  1  0
  6 22  1  0
  7 23  1  0
  8 24  1  1
  9 25  1  0
  9 26  1  0
 13 27  1  0
 13 28  1  0
 14 29  1  0
 15 30  1  0
 17 31  1  0
 18 32  1  0
M  END
$$$$
