
     RDKit          3D

 27 29  0  0  0  0  0  0  0  0999 V2000
   -5.3944    0.4532    0.8923 F   0  0  0  0  0  0  0  0  0  0  0  0
   -4.1430    0.2194    0.4258 C   0  0  0  0  0  0  0  0  0  0  0  0
   -3.0326    0.5584    1.2033 C   0  0  0  0  0  0  0  0  0  0  0  0
   -1.7416    0.3181    0.7241 C   0  0  0  0  0  0  0  0  0  0  0  0
   -1.5495   -0.2662   -0.5435 C   0  0  0  0  0  0  0  0  0  0  0  0
   -2.6740   -0.6029   -1.3167 C   0  0  0  0  0  0  0  0  0  0  0  0
   -3.9634   -0.3606   -0.8328 C   0  0  0  0  0  0  0  0  0  0  0  0
   -0.1600   -0.5337   -1.0785 C   0  0  0  0  0  0  0  0  0  0  0  0
    0.6777    0.7167   -1.1103 C   0  0  0  0  0  0  0  0  0  0  0  0
    0.4142    1.7413   -1.7940 O   0  0  0  0  0  0  0  0  0  0  0  0
    1.8460    0.5690   -0.2526 C   0  0  0  0  0  0  0  0  0  0  0  0
    2.8711    1.4768    0.0158 C   0  0  0  0  0  0  0  0  0  0  0  0
    3.8947    1.0824    0.8944 C   0  0  0  0  0  0  0  0  0  0  0  0
    3.8743   -0.1992    1.4822 C   0  0  0  0  0  0  0  0  0  0  0  0
    2.8302   -1.0952    1.1953 C   0  0  0  0  0  0  0  0  0  0  0  0
    1.8262   -0.6797    0.3200 C   0  0  0  0  0  0  0  0  0  0  0  0
    0.6442   -1.3951   -0.1419 C   0  0  0  0  0  0  0  0  0  0  0  0
    0.3457   -2.5744    0.1851 O   0  0  0  0  0  0  0  0  0  0  0  0
   -3.1711    1.0076    2.1783 H   0  0  0  0  0  0  0  0  0  0  0  0
   -0.8920    0.5869    1.3396 H   0  0  0  0  0  0  0  0  0  0  0  0
   -2.5544   -1.0531   -2.2943 H   0  0  0  0  0  0  0  0  0  0  0  0
   -4.8235   -0.6232   -1.4353 H   0  0  0  0  0  0  0  0  0  0  0  0
   -0.1798   -0.9968   -2.0891 H   0  0  0  0  0  0  0  0  0  0  0  0
    2.8792    2.4590   -0.4387 H   0  0  0  0  0  0  0  0  0  0  0  0
    4.7024    1.7661    1.1211 H   0  0  0  0  0  0  0  0  0  0  0  0
    4.6664   -0.4946    2.1578 H   0  0  0  0  0  0  0  0  0  0  0  0
    2.8070   -2.0803    1.6429 H   0  0  0  0  0  0  0  0  0  0  0  0
  1  2  1  0
  2  3  2  0
  3  4  1  0
  4  5  2  0
  5  6  1  0
  6  7  2  0
  5  8  1  0
  8  9  1  0
  9 10  2  0
  9 11  1  0
 11 12  2  0
 12 13  1  0
 13 14  2  0
 14 15  1  0
 15 16  2  0
 16 17  1  0
 17 18  2  0
  7  2  1  0
 17  8  1  0
 16 11  1  0
  3 19  1  0
  4 20  1  0
  6 21  1  0
  7 22  1  0
  8 23  1  0
 12 24  1  0
 13 25  1  0
 14 26  1  0
 15 27  1  0
M  END
$$$$
