
     RDKit          3D

 42 44  0  0  0  0  0  0  0  0999 V2000
   -3.1614   -0.2508   -0.6450 C   0  0  1  0  0  0  0  0  0  0  0  0
   -3.5174   -0.5229    0.8253 C   0  0  0  0  0  0  0  0  0  0  0  0
   -4.5652   -1.6337    0.9306 C   0  0  0  0  0  0  0  0  0  0  0  0
   -5.7875   -1.3063    0.0622 C   0  0  0  0  0  0  0  0  0  0  0  0
   -5.4044   -1.0777   -1.3384 N   0  0  0  0  0  0  0  0  0  0  0  0
   -4.4462    0.0317   -1.4502 C   0  0  0  0  0  0  0  0  0  0  0  0
   -2.2385    0.8855   -0.7385 N   0  0  0  0  0  0  0  0  0  0  0  0
   -0.8491    0.7736   -0.3920 C   0  0  0  0  0  0  0  0  0  0  0  0
   -0.3789   -0.3391   -0.0321 O   0  0  0  0  0  0  0  0  0  0  0  0
    0.0251    1.9618   -0.4423 C   0  0  0  0  0  0  0  0  0  0  0  0
   -0.4342    3.2139   -0.6428 N   0  0  0  0  0  0  0  0  0  0  0  0
    0.6000    4.0403   -0.6057 N   0  0  0  0  0  0  0  0  0  0  0  0
    1.7323    3.3499   -0.3829 C   0  0  0  0  0  0  0  0  0  0  0  0
    1.4001    2.0152   -0.2623 C   0  0  0  0  0  0  0  0  0  0  0  0
    2.3006    0.9041   -0.1261 N   0  0  0  0  0  0  0  0  0  0  0  0
    3.5815    0.9880    0.5221 C   0  0  0  0  0  0  0  0  0  0  0  0
    3.9771    2.0812    1.0100 O   0  0  0  0  0  0  0  0  0  0  0  0
    4.4519   -0.2043    0.6285 C   0  0  0  0  0  0  0  0  0  0  0  0
    3.9136   -1.4673    0.9503 C   0  0  0  0  0  0  0  0  0  0  0  0
    2.5914   -1.6157    1.2184 F   0  0  0  0  0  0  0  0  0  0  0  0
    4.7499   -2.5842    1.0483 C   0  0  0  0  0  0  0  0  0  0  0  0
    6.1235   -2.4554    0.8351 C   0  0  0  0  0  0  0  0  0  0  0  0
    6.6686   -1.2070    0.5298 C   0  0  0  0  0  0  0  0  0  0  0  0
    5.8418   -0.0834    0.4304 C   0  0  0  0  0  0  0  0  0  0  0  0
    6.3960    1.1153    0.1160 F   0  0  0  0  0  0  0  0  0  0  0  0
   -2.6731   -1.1521   -1.0797 H   0  0  0  0  0  0  0  0  0  0  0  0
   -3.9142    0.4049    1.2941 H   0  0  0  0  0  0  0  0  0  0  0  0
   -2.6092   -0.8293    1.3869 H   0  0  0  0  0  0  0  0  0  0  0  0
   -4.8824   -1.7440    1.9898 H   0  0  0  0  0  0  0  0  0  0  0  0
   -4.1214   -2.5986    0.6005 H   0  0  0  0  0  0  0  0  0  0  0  0
   -6.3090   -0.4087    0.4625 H   0  0  0  0  0  0  0  0  0  0  0  0
   -6.5037   -2.1547    0.1095 H   0  0  0  0  0  0  0  0  0  0  0  0
   -4.9636   -1.9490   -1.7179 H   0  0  0  0  0  0  0  0  0  0  0  0
   -4.9240    0.9736   -1.0987 H   0  0  0  0  0  0  0  0  0  0  0  0
   -4.1823    0.1728   -2.5208 H   0  0  0  0  0  0  0  0  0  0  0  0
   -2.5915    1.7996   -1.1029 H   0  0  0  0  0  0  0  0  0  0  0  0
    0.5305    5.0720   -0.7474 H   0  0  0  0  0  0  0  0  0  0  0  0
    2.7196    3.7903   -0.3567 H   0  0  0  0  0  0  0  0  0  0  0  0
    2.0187   -0.0055   -0.5518 H   0  0  0  0  0  0  0  0  0  0  0  0
    4.3335   -3.5512    1.3000 H   0  0  0  0  0  0  0  0  0  0  0  0
    6.7669   -3.3223    0.9130 H   0  0  0  0  0  0  0  0  0  0  0  0
    7.7345   -1.1105    0.3679 H   0  0  0  0  0  0  0  0  0  0  0  0
  1  2  1  0
  2  3  1  0
  3  4  1  0
  4  5  1  0
  5  6  1  0
  1  7  1  0
  7  8  1  0
  8  9  2  0
  8 10  1  0
 10 11  2  0
 11 12  1  0
 12 13  1  0
 13 14  2  0
 14 15  1  0
 15 16  1  0
 16 17  2  0
 16 18  1  0
 18 19  2  0
 19 20  1  0
 19 21  1  0
 21 22  2  0
 22 23  1  0
 23 24  2  0
 24 25  1  0
  6  1  1  0
 14 10  1  0
 24 18  1  0
  1 26  1  6
  2 27  1  0
  2 28  1  0
  3 29  1  0
  3 30  1  0
  4 31  1  0
  4 32  1  0
  5 33  1  0
  6 34  1  0
  6 35  1  0
  7 36  1  0
 12 37  1  0
 13 38  1  0
 15 39  1  0
 21 40  1  0
 22 41  1  0
 23 42  1  0
M  END
$$$$
