
     RDKit          3D

 49 50  0  0  0  0  0  0  0  0999 V2000
   -0.9672   -3.3189    2.2086 C   0  0  0  0  0  0  0  0  0  0  0  0
   -1.1497   -2.1171    1.4709 O   0  0  0  0  0  0  0  0  0  0  0  0
   -1.1955   -2.0883    0.0715 C   0  0  0  0  0  0  0  0  0  0  0  0
   -1.0781   -3.1625   -0.5835 O   0  0  0  0  0  0  0  0  0  0  0  0
   -1.3201   -0.7640   -0.6675 C   0  0  0  0  0  0  0  0  0  0  0  0
   -1.8233    0.3415    0.3192 C   0  0  0  0  0  0  0  0  0  0  0  0
   -2.0492    1.7118   -0.2931 C   0  0  0  0  0  0  0  0  0  0  0  0
   -1.1955    2.7813    0.0304 C   0  0  0  0  0  0  0  0  0  0  0  0
   -1.4021    4.0481   -0.5235 C   0  0  0  0  0  0  0  0  0  0  0  0
   -2.4799    4.2690   -1.3832 C   0  0  0  0  0  0  0  0  0  0  0  0
   -3.3647    3.2284   -1.6727 C   0  0  0  0  0  0  0  0  0  0  0  0
   -3.1614    1.9607   -1.1197 C   0  0  0  0  0  0  0  0  0  0  0  0
    0.0633   -0.4013   -1.3028 C   0  0  0  0  0  0  0  0  0  0  0  0
    1.2103   -0.2407   -0.3220 C   0  0  0  0  0  0  0  0  0  0  0  0
    1.7562    1.0280   -0.0729 C   0  0  0  0  0  0  0  0  0  0  0  0
    2.8127    1.1839    0.8278 C   0  0  0  0  0  0  0  0  0  0  0  0
    3.3673    0.0722    1.4786 C   0  0  0  0  0  0  0  0  0  0  0  0
    4.4510    0.2701    2.4043 N   0  0  0  0  0  0  0  0  0  0  0  0
    5.2102   -1.0093    3.2963 S   0  0  0  0  0  6  0  0  0  0  0  0
    5.8988   -2.1101    2.2280 O   0  0  0  0  0  0  0  0  0  0  0  0
    6.2878   -0.4274    4.1673 O   0  0  0  0  0  0  0  0  0  0  0  0
    4.1905   -1.6945    4.1625 O   0  0  0  0  0  0  0  0  0  0  0  0
    2.8578   -1.2065    1.1896 C   0  0  0  0  0  0  0  0  0  0  0  0
    1.8018   -1.3605    0.2872 C   0  0  0  0  0  0  0  0  0  0  0  0
   -2.3527   -0.9552   -1.7685 C   0  0  0  0  0  0  0  0  0  0  0  0
   -3.4554   -1.5121   -1.5028 O   0  0  0  0  0  0  0  0  0  0  0  0
   -2.1118   -0.4671   -3.0587 O   0  0  0  0  0  0  0  0  0  0  0  0
   -3.0666   -0.5663   -4.1078 C   0  0  0  0  0  0  0  0  0  0  0  0
    0.0052   -3.7843    1.9413 H   0  0  0  0  0  0  0  0  0  0  0  0
   -0.9669   -3.0842    3.2927 H   0  0  0  0  0  0  0  0  0  0  0  0
   -1.7952   -4.0269    1.9930 H   0  0  0  0  0  0  0  0  0  0  0  0
   -2.7818    0.0129    0.7797 H   0  0  0  0  0  0  0  0  0  0  0  0
   -1.1026    0.4332    1.1617 H   0  0  0  0  0  0  0  0  0  0  0  0
   -0.3829    2.6442    0.7304 H   0  0  0  0  0  0  0  0  0  0  0  0
   -0.7326    4.8618   -0.2762 H   0  0  0  0  0  0  0  0  0  0  0  0
   -2.6407    5.2510   -1.8089 H   0  0  0  0  0  0  0  0  0  0  0  0
   -4.2155    3.4065   -2.3177 H   0  0  0  0  0  0  0  0  0  0  0  0
   -3.8829    1.1827   -1.3267 H   0  0  0  0  0  0  0  0  0  0  0  0
    0.3491   -1.1907   -2.0336 H   0  0  0  0  0  0  0  0  0  0  0  0
   -0.0423    0.5330   -1.8975 H   0  0  0  0  0  0  0  0  0  0  0  0
    1.3810    1.8990   -0.5923 H   0  0  0  0  0  0  0  0  0  0  0  0
    3.2065    2.1756    1.0119 H   0  0  0  0  0  0  0  0  0  0  0  0
    4.8068    1.2383    2.5701 H   0  0  0  0  0  0  0  0  0  0  0  0
    6.2698   -2.8263    2.8029 H   0  0  0  0  0  0  0  0  0  0  0  0
    3.2727   -2.0931    1.6464 H   0  0  0  0  0  0  0  0  0  0  0  0
    1.4586   -2.3597    0.0572 H   0  0  0  0  0  0  0  0  0  0  0  0
   -2.6452   -0.1120   -5.0277 H   0  0  0  0  0  0  0  0  0  0  0  0
   -3.9937   -0.0216   -3.8299 H   0  0  0  0  0  0  0  0  0  0  0  0
   -3.3024   -1.6329   -4.3077 H   0  0  0  0  0  0  0  0  0  0  0  0
  1  2  1  0
  2  3  1  0
  3  4  2  0
  3  5  1  0
  5  6  1  0
  6  7  1  0
  7  8  2  0
  8  9  1  0
  9 10  2  0
 10 11  1  0
 11 12  2  0
  5 13  1  0
 13 14  1  0
 14 15  2  0
 15 16  1  0
 16 17  2  0
 17 18  1  0
 18 19  1  0
 19 20  1  0
 19 21  2  0
 19 22  2  0
 17 23  1  0
 23 24  2  0
  5 25  1  0
 25 26  2  0
 25 27  1  0
 27 28  1  0
 12  7  1  0
 24 14  1  0
  1 29  1  0
  1 30  1  0
  1 31  1  0
  6 32  1  0
  6 33  1  0
  8 34  1  0
  9 35  1  0
 10 36  1  0
 11 37  1  0
 12 38  1  0
 13 39  1  0
 13 40  1  0
 15 41  1  0
 16 42  1  0
 18 43  1  0
 20 44  1  0
 23 45  1  0
 24 46  1  0
 28 47  1  0
 28 48  1  0
 28 49  1  0
M  END
$$$$
