
     RDKit          3D

 33 35  0  0  0  0  0  0  0  0999 V2000
    6.5721    1.0445   -0.3487 N   0  0  0  0  0  0  0  0  0  0  0  0
    5.8427    0.0490    0.8615 S   0  0  0  0  0  6  0  0  0  0  0  0
    6.4808   -1.3118    0.8423 O   0  0  0  0  0  0  0  0  0  0  0  0
    6.0559    0.6623    2.2175 O   0  0  0  0  0  0  0  0  0  0  0  0
    4.1182   -0.0955    0.5388 C   0  0  0  0  0  0  0  0  0  0  0  0
    3.2264    0.8584    1.0431 C   0  0  0  0  0  0  0  0  0  0  0  0
    1.8580    0.7531    0.7781 C   0  0  0  0  0  0  0  0  0  0  0  0
    1.3604   -0.3061   -0.0007 C   0  0  0  0  0  0  0  0  0  0  0  0
    2.2636   -1.2574   -0.5108 C   0  0  0  0  0  0  0  0  0  0  0  0
    3.6318   -1.1495   -0.2441 C   0  0  0  0  0  0  0  0  0  0  0  0
   -0.0941   -0.3966   -0.2676 C   0  0  0  0  0  0  0  0  0  0  0  0
   -0.7478   -1.3588   -1.0207 C   0  0  0  0  0  0  0  0  0  0  0  0
   -2.0843   -1.0243   -0.9868 C   0  0  0  0  0  0  0  0  0  0  0  0
   -2.1703    0.1166   -0.2079 C   0  0  0  0  0  0  0  0  0  0  0  0
   -0.9709    0.4674    0.1943 O   0  0  0  0  0  0  0  0  0  0  0  0
   -3.3763    0.9033    0.1111 C   0  0  0  0  0  0  0  0  0  0  0  0
   -4.6101    0.3966    0.2659 C   0  0  0  0  0  0  0  0  0  0  0  0
   -5.0209   -1.3622    0.2646 S   0  0  0  0  0  0  0  0  0  0  0  0
   -6.6965   -0.9076    0.7209 C   0  0  0  0  0  0  0  0  0  0  0  0
   -7.5955   -1.7659    0.9178 O   0  0  0  0  0  0  0  0  0  0  0  0
   -6.9503    0.4829    0.8493 N   0  0  0  0  0  0  0  0  0  0  0  0
   -5.7718    1.2234    0.5971 C   0  0  0  0  0  0  0  0  0  0  0  0
   -5.7457    2.4816    0.6623 O   0  0  0  0  0  0  0  0  0  0  0  0
    7.5770    1.1575   -0.0867 H   0  0  0  0  0  0  0  0  0  0  0  0
    6.1325    1.9891   -0.2722 H   0  0  0  0  0  0  0  0  0  0  0  0
    3.5894    1.6857    1.6396 H   0  0  0  0  0  0  0  0  0  0  0  0
    1.1888    1.5029    1.1817 H   0  0  0  0  0  0  0  0  0  0  0  0
    1.9219   -2.0852   -1.1162 H   0  0  0  0  0  0  0  0  0  0  0  0
    4.3109   -1.8879   -0.6511 H   0  0  0  0  0  0  0  0  0  0  0  0
   -0.3168   -2.1959   -1.5518 H   0  0  0  0  0  0  0  0  0  0  0  0
   -2.8807   -1.5331   -1.5111 H   0  0  0  0  0  0  0  0  0  0  0  0
   -3.2259    1.9641    0.2707 H   0  0  0  0  0  0  0  0  0  0  0  0
   -7.8726    0.8994    1.1070 H   0  0  0  0  0  0  0  0  0  0  0  0
  1  2  1  0
  2  3  2  0
  2  4  2  0
  2  5  1  0
  5  6  2  0
  6  7  1  0
  7  8  2  0
  8  9  1  0
  9 10  2  0
  8 11  1  0
 11 12  2  0
 12 13  1  0
 13 14  2  0
 14 15  1  0
 14 16  1  0
 16 17  2  0
 17 18  1  0
 18 19  1  0
 19 20  2  0
 19 21  1  0
 21 22  1  0
 22 23  2  0
 10  5  1  0
 15 11  1  0
 22 17  1  0
  1 24  1  0
  1 25  1  0
  6 26  1  0
  7 27  1  0
  9 28  1  0
 10 29  1  0
 12 30  1  0
 13 31  1  0
 16 32  1  0
 21 33  1  0
M  END
$$$$
