
     RDKit          3D

 29 29  0  0  0  0  0  0  0  0999 V2000
   -2.1928   -2.6455    0.5417 O   0  0  0  0  0  0  0  0  0  0  0  0
   -1.5765   -1.3864    0.5087 C   0  0  1  0  0  0  0  0  0  0  0  0
   -0.9166   -1.2204   -0.7352 O   0  0  0  0  0  0  0  0  0  0  0  0
   -0.0576   -0.0812   -0.7441 C   0  0  2  0  0  0  0  0  0  0  0  0
    1.3636   -0.4845   -0.3226 C   0  0  0  0  0  0  0  0  0  0  0  0
    2.2444    0.5907   -0.5524 O   0  0  0  0  0  0  0  0  0  0  0  0
    3.7881    0.1661    0.0368 P   0  0  0  0  0  5  0  0  0  0  0  0
    4.8857    1.3814   -0.3868 O   0  0  0  0  0  0  0  0  0  0  0  0
    4.3056   -1.2950   -0.6480 O   0  0  0  0  0  0  0  0  0  0  0  0
    3.7499    0.0419    1.5446 O   0  0  0  0  0  0  0  0  0  0  0  0
   -0.5995    1.1251    0.0864 C   0  0  1  0  0  0  0  0  0  0  0  0
   -0.1452    2.3494   -0.4375 O   0  0  0  0  0  0  0  0  0  0  0  0
   -2.1405    1.0744    0.1303 C   0  0  2  0  0  0  0  0  0  0  0  0
   -2.6669    2.1594    0.8538 O   0  0  0  0  0  0  0  0  0  0  0  0
   -2.6340   -0.2729    0.7135 C   0  0  1  0  0  0  0  0  0  0  0  0
   -3.8454   -0.6190    0.0882 O   0  0  0  0  0  0  0  0  0  0  0  0
   -1.4623   -3.3167    0.5031 H   0  0  0  0  0  0  0  0  0  0  0  0
   -0.8442   -1.3421    1.3503 H   0  0  0  0  0  0  0  0  0  0  0  0
    0.0038    0.2408   -1.8069 H   0  0  0  0  0  0  0  0  0  0  0  0
    1.3548   -0.7766    0.7518 H   0  0  0  0  0  0  0  0  0  0  0  0
    1.6656   -1.3625   -0.9366 H   0  0  0  0  0  0  0  0  0  0  0  0
    4.4863    2.2164   -0.0343 H   0  0  0  0  0  0  0  0  0  0  0  0
    3.9351   -2.0025   -0.0621 H   0  0  0  0  0  0  0  0  0  0  0  0
   -0.2250    1.0485    1.1317 H   0  0  0  0  0  0  0  0  0  0  0  0
   -0.5347    2.4545   -1.3447 H   0  0  0  0  0  0  0  0  0  0  0  0
   -2.5074    1.1607   -0.9175 H   0  0  0  0  0  0  0  0  0  0  0  0
   -2.2799    2.1287    1.7678 H   0  0  0  0  0  0  0  0  0  0  0  0
   -2.7955   -0.1580    1.8124 H   0  0  0  0  0  0  0  0  0  0  0  0
   -4.3586   -1.1747    0.7315 H   0  0  0  0  0  0  0  0  0  0  0  0
  1  2  1  0
  2  3  1  0
  3  4  1  0
  4  5  1  0
  5  6  1  0
  6  7  1  0
  7  8  1  0
  7  9  1  0
  7 10  2  0
  4 11  1  0
 11 12  1  0
 11 13  1  0
 13 14  1  0
 13 15  1  0
 15 16  1  0
 15  2  1  0
  1 17  1  0
  2 18  1  1
  4 19  1  6
  5 20  1  0
  5 21  1  0
  8 22  1  0
  9 23  1  0
 11 24  1  1
 12 25  1  0
 13 26  1  6
 14 27  1  0
 15 28  1  1
 16 29  1  0
M  END
$$$$
