
     RDKit          3D

 34 36  0  0  0  0  0  0  0  0999 V2000
   -5.3877   -0.3055   -1.6912 C   0  0  0  0  0  0  0  0  0  0  0  0
   -4.4257    0.2065   -0.6599 C   0  0  0  0  0  0  0  0  0  0  0  0
   -4.8986    0.9008    0.4622 C   0  0  0  0  0  0  0  0  0  0  0  0
   -4.0062    1.3503    1.4365 C   0  0  0  0  0  0  0  0  0  0  0  0
   -2.6382    1.0994    1.3066 C   0  0  0  0  0  0  0  0  0  0  0  0
   -2.1451    0.3856    0.1987 C   0  0  0  0  0  0  0  0  0  0  0  0
   -3.0528   -0.0621   -0.7798 C   0  0  0  0  0  0  0  0  0  0  0  0
   -0.6928    0.1086    0.0648 C   0  0  0  0  0  0  0  0  0  0  0  0
    0.3307    0.8308    0.6844 C   0  0  0  0  0  0  0  0  0  0  0  0
    1.4979    0.2235    0.2780 C   0  0  0  0  0  0  0  0  0  0  0  0
    1.1571   -0.8123   -0.5466 C   0  0  0  0  0  0  0  0  0  0  0  0
   -0.1758   -0.8964   -0.6872 N   0  0  0  0  0  0  0  0  0  0  0  0
    2.1211   -1.6307   -1.1286 C   0  0  0  0  0  0  0  0  0  0  0  0
    3.4724   -1.3604   -0.8472 C   0  0  0  0  0  0  0  0  0  0  0  0
    3.8375   -0.2861    0.0076 C   0  0  0  0  0  0  0  0  0  0  0  0
    2.8246    0.5213    0.5790 C   0  0  0  0  0  0  0  0  0  0  0  0
    5.2691   -0.0129    0.2889 C   0  0  0  0  0  0  0  0  0  0  0  0
    6.2523   -0.2041   -0.7317 N   0  0  0  0  0  0  0  0  0  0  0  0
    5.6529    0.3934    1.4593 N   0  0  0  0  0  0  0  0  0  0  0  0
   -5.7009   -1.3363   -1.4240 H   0  0  0  0  0  0  0  0  0  0  0  0
   -6.2876    0.3435   -1.7467 H   0  0  0  0  0  0  0  0  0  0  0  0
   -4.9133   -0.3195   -2.6956 H   0  0  0  0  0  0  0  0  0  0  0  0
   -5.9573    1.0955    0.5820 H   0  0  0  0  0  0  0  0  0  0  0  0
   -4.3763    1.8894    2.2991 H   0  0  0  0  0  0  0  0  0  0  0  0
   -1.9727    1.4464    2.0859 H   0  0  0  0  0  0  0  0  0  0  0  0
   -2.6987   -0.6024   -1.6480 H   0  0  0  0  0  0  0  0  0  0  0  0
    0.2411    1.6927    1.3322 H   0  0  0  0  0  0  0  0  0  0  0  0
   -0.6932   -1.6104   -1.2461 H   0  0  0  0  0  0  0  0  0  0  0  0
    1.8408   -2.4512   -1.7765 H   0  0  0  0  0  0  0  0  0  0  0  0
    4.2303   -2.0000   -1.2810 H   0  0  0  0  0  0  0  0  0  0  0  0
    3.0598    1.3627    1.2185 H   0  0  0  0  0  0  0  0  0  0  0  0
    7.2645   -0.0533   -0.5231 H   0  0  0  0  0  0  0  0  0  0  0  0
    5.9778   -0.4415   -1.7104 H   0  0  0  0  0  0  0  0  0  0  0  0
    4.9927    0.5345    2.2559 H   0  0  0  0  0  0  0  0  0  0  0  0
  1  2  1  0
  2  3  2  0
  3  4  1  0
  4  5  2  0
  5  6  1  0
  6  7  2  0
  6  8  1  0
  8  9  2  0
  9 10  1  0
 10 11  2  0
 11 12  1  0
 11 13  1  0
 13 14  2  0
 14 15  1  0
 15 16  2  0
 15 17  1  0
 17 18  1  0
 17 19  2  3
  7  2  1  0
 12  8  1  0
 16 10  1  0
  1 20  1  0
  1 21  1  0
  1 22  1  0
  3 23  1  0
  4 24  1  0
  5 25  1  0
  7 26  1  0
  9 27  1  0
 12 28  1  0
 13 29  1  0
 14 30  1  0
 16 31  1  0
 18 32  1  0
 18 33  1  0
 19 34  1  0
M  END
$$$$
