
     RDKit          3D

 27 29  0  0  0  0  0  0  0  0999 V2000
    0.4352    0.8220    0.0022 N   0  0  0  0  0  0  0  0  0  0  0  0
   -0.6932   -0.0554    0.1345 C   0  0  0  0  0  0  0  0  0  0  0  0
   -0.7416   -1.2794    0.8025 C   0  0  0  0  0  0  0  0  0  0  0  0
   -2.0049   -1.7667    0.7880 N   0  0  0  0  0  0  0  0  0  0  0  0
   -2.7402   -0.8524    0.1329 C   0  0  0  0  0  0  0  0  0  0  0  0
   -4.0750   -0.9180   -0.1002 N   0  0  0  0  0  0  0  0  0  0  0  0
   -4.6829    0.1084   -0.7686 C   0  0  0  0  0  0  0  0  0  0  0  0
   -3.9337    1.2247   -1.2065 C   0  0  0  0  0  0  0  0  0  0  0  0
   -2.5516    1.2822   -0.9544 C   0  0  0  0  0  0  0  0  0  0  0  0
   -1.9822    0.2101   -0.2740 C   0  0  0  0  0  0  0  0  0  0  0  0
    1.8005    0.4000    0.1495 C   0  0  0  0  0  0  0  0  0  0  0  0
    2.7422    1.2873    0.6934 C   0  0  0  0  0  0  0  0  0  0  0  0
    4.0815    0.9061    0.8212 C   0  0  0  0  0  0  0  0  0  0  0  0
    4.4936   -0.3581    0.3919 C   0  0  0  0  0  0  0  0  0  0  0  0
    3.5685   -1.2395   -0.1737 C   0  0  0  0  0  0  0  0  0  0  0  0
    2.2283   -0.8617   -0.3027 C   0  0  0  0  0  0  0  0  0  0  0  0
    0.2475    1.8388   -0.1486 H   0  0  0  0  0  0  0  0  0  0  0  0
    0.0855   -1.7705    1.2976 H   0  0  0  0  0  0  0  0  0  0  0  0
   -2.3402   -2.6574    1.2174 H   0  0  0  0  0  0  0  0  0  0  0  0
   -5.7465    0.0655   -0.9613 H   0  0  0  0  0  0  0  0  0  0  0  0
   -4.4226    2.0334   -1.7337 H   0  0  0  0  0  0  0  0  0  0  0  0
   -1.9588    2.1267   -1.2805 H   0  0  0  0  0  0  0  0  0  0  0  0
    2.4347    2.2705    1.0269 H   0  0  0  0  0  0  0  0  0  0  0  0
    4.8003    1.5918    1.2510 H   0  0  0  0  0  0  0  0  0  0  0  0
    5.5309   -0.6514    0.4894 H   0  0  0  0  0  0  0  0  0  0  0  0
    3.8916   -2.2125   -0.5205 H   0  0  0  0  0  0  0  0  0  0  0  0
    1.5334   -1.5444   -0.7737 H   0  0  0  0  0  0  0  0  0  0  0  0
  1  2  1  0
  2  3  2  0
  3  4  1  0
  4  5  1  0
  5  6  2  0
  6  7  1  0
  7  8  2  0
  8  9  1  0
  9 10  2  0
  1 11  1  0
 11 12  2  0
 12 13  1  0
 13 14  2  0
 14 15  1  0
 15 16  2  0
 10  2  1  0
 16 11  1  0
 10  5  1  0
  1 17  1  0
  3 18  1  0
  4 19  1  0
  7 20  1  0
  8 21  1  0
  9 22  1  0
 12 23  1  0
 13 24  1  0
 14 25  1  0
 15 26  1  0
 16 27  1  0
M  END
$$$$
