
     RDKit          2D

140145  0  0  0  0  0  0  0  0999 V2000
    3.0000   -0.0000    0.0000 C   0  0  0  0  0  0  0  0  0  0  0  0
    1.5000    0.0000    0.0000 N   0  0  0  0  0  0  0  0  0  0  0  0
    0.7500   -1.2990    0.0000 C   0  0  0  0  0  0  0  0  0  0  0  0
   -0.7500   -1.2990    0.0000 C   0  0  0  0  0  0  0  0  0  0  0  0
   -0.4895   -2.7762    0.0000 C   0  0  0  0  0  0  0  0  0  0  0  0
   -1.6386   -3.7404    0.0000 C   0  0  0  0  0  0  0  0  0  0  0  0
   -1.3781   -5.2176    0.0000 C   0  0  0  0  0  0  0  0  0  0  0  0
    0.0314   -5.7307    0.0000 C   0  0  0  0  0  0  0  0  0  0  0  0
    1.1805   -4.7665    0.0000 C   0  0  0  0  0  0  0  0  0  0  0  0
    0.9200   -3.2893    0.0000 C   0  0  0  0  0  0  0  0  0  0  0  0
   -2.5272   -6.1818    0.0000 S   0  0  0  0  0  6  0  0  0  0  0  0
   -1.5630   -7.3309    0.0000 O   0  0  0  0  0  0  0  0  0  0  0  0
   -3.4914   -5.0328    0.0000 O   0  0  0  0  0  0  0  0  0  0  0  0
   -3.6763   -7.1460    0.0000 N   0  0  0  0  0  0  0  0  0  0  0  0
   -5.0858   -6.6330    0.0000 C   0  0  0  0  0  0  0  0  0  0  0  0
   -6.4953   -6.1199    0.0000 C   0  0  0  0  0  0  0  0  0  0  0  0
   -7.9049   -5.6069    0.0000 O   0  0  0  0  0  0  0  0  0  0  0  0
   -9.0539   -6.5711    0.0000 C   0  0  0  0  0  0  0  0  0  0  0  0
  -10.2030   -7.5353    0.0000 C   0  0  0  0  0  0  0  0  0  0  0  0
  -11.3521   -8.4995    0.0000 O   0  0  0  0  0  0  0  0  0  0  0  0
  -12.7616   -7.9864    0.0000 C   0  0  0  0  0  0  0  0  0  0  0  0
  -14.1712   -7.4734    0.0000 C   0  0  0  0  0  0  0  0  0  0  0  0
  -15.5807   -6.9604    0.0000 N   0  0  0  0  0  0  0  0  0  0  0  0
  -16.7298   -7.9245    0.0000 C   0  0  0  0  0  0  0  0  0  0  0  0
  -16.4693   -9.4018    0.0000 O   0  0  0  0  0  0  0  0  0  0  0  0
  -18.1393   -7.4115    0.0000 N   0  0  0  0  0  0  0  0  0  0  0  0
  -19.2884   -8.3757    0.0000 C   0  0  0  0  0  0  0  0  0  0  0  0
  -20.4374   -9.3399    0.0000 C   0  0  0  0  0  0  0  0  0  0  0  0
  -21.5865  -10.3041    0.0000 C   0  0  0  0  0  0  0  0  0  0  0  0
  -22.7356  -11.2682    0.0000 C   0  0  0  0  0  0  0  0  0  0  0  0
  -23.8846  -12.2324    0.0000 N   0  0  0  0  0  0  0  0  0  0  0  0
  -25.2942  -11.7194    0.0000 C   0  0  0  0  0  0  0  0  0  0  0  0
  -25.5546  -10.2422    0.0000 O   0  0  0  0  0  0  0  0  0  0  0  0
  -26.4432  -12.6836    0.0000 N   0  0  0  0  0  0  0  0  0  0  0  0
  -27.8528  -12.1705    0.0000 C   0  0  0  0  0  0  0  0  0  0  0  0
  -29.2623  -11.6575    0.0000 C   0  0  0  0  0  0  0  0  0  0  0  0
  -30.6719  -11.1445    0.0000 O   0  0  0  0  0  0  0  0  0  0  0  0
  -31.8209  -12.1087    0.0000 C   0  0  0  0  0  0  0  0  0  0  0  0
  -32.9700  -13.0729    0.0000 C   0  0  0  0  0  0  0  0  0  0  0  0
  -34.1191  -14.0370    0.0000 O   0  0  0  0  0  0  0  0  0  0  0  0
  -35.5286  -13.5240    0.0000 C   0  0  0  0  0  0  0  0  0  0  0  0
  -36.9381  -13.0110    0.0000 C   0  0  0  0  0  0  0  0  0  0  0  0
  -38.3477  -12.4979    0.0000 N   0  0  0  0  0  0  0  0  0  0  0  0
  -39.4967  -13.4621    0.0000 S   0  0  0  0  0  6  0  0  0  0  0  0
  -38.5326  -14.6112    0.0000 O   0  0  0  0  0  0  0  0  0  0  0  0
  -40.4609  -12.3131    0.0000 O   0  0  0  0  0  0  0  0  0  0  0  0
  -40.6458  -14.4263    0.0000 C   0  0  0  0  0  0  0  0  0  0  0  0
  -42.0553  -13.9133    0.0000 C   0  0  0  0  0  0  0  0  0  0  0  0
  -43.2044  -14.8775    0.0000 C   0  0  0  0  0  0  0  0  0  0  0  0
  -42.9439  -16.3547    0.0000 C   0  0  0  0  0  0  0  0  0  0  0  0
  -41.5344  -16.8677    0.0000 C   0  0  0  0  0  0  0  0  0  0  0  0
  -40.3853  -15.9035    0.0000 C   0  0  0  0  0  0  0  0  0  0  0  0
  -44.6139  -14.3644    0.0000 C   0  0  0  0  0  0  0  0  0  0  0  0
  -44.8744  -15.8416    0.0000 C   0  0  0  0  0  0  0  0  0  0  0  0
  -46.2840  -16.3547    0.0000 N   0  0  0  0  0  0  0  0  0  0  0  0
  -46.5444  -17.8319    0.0000 C   0  0  0  0  0  0  0  0  0  0  0  0
  -47.4330  -15.3905    0.0000 C   0  0  0  0  0  0  0  0  0  0  0  0
  -47.1726  -13.9133    0.0000 C   0  0  0  0  0  0  0  0  0  0  0  0
  -45.7630  -13.4002    0.0000 C   0  0  0  0  0  0  0  0  0  0  0  0
  -45.5025  -11.9230    0.0000 C   0  0  0  0  0  0  0  0  0  0  0  0
  -46.6516  -10.9589    0.0000 C   0  0  0  0  0  0  0  0  0  0  0  0
  -46.3911   -9.4816    0.0000 Cl  0  0  0  0  0  0  0  0  0  0  0  0
  -48.0611  -11.4719    0.0000 C   0  0  0  0  0  0  0  0  0  0  0  0
  -48.3216  -12.9491    0.0000 C   0  0  0  0  0  0  0  0  0  0  0  0
  -49.7312  -13.4621    0.0000 Cl  0  0  0  0  0  0  0  0  0  0  0  0
   -1.5000    0.0000    0.0000 C   0  0  0  0  0  0  0  0  0  0  0  0
   -0.7500    1.2990    0.0000 C   0  0  0  0  0  0  0  0  0  0  0  0
    0.7500    1.2990    0.0000 C   0  0  0  0  0  0  0  0  0  0  0  0
   -1.5000    2.5981    0.0000 C   0  0  0  0  0  0  0  0  0  0  0  0
   -0.7500    3.8971    0.0000 Cl  0  0  0  0  0  0  0  0  0  0  0  0
   -3.0000    2.5981    0.0000 C   0  0  0  0  0  0  0  0  0  0  0  0
   -3.7500    1.2990    0.0000 C   0  0  0  0  0  0  0  0  0  0  0  0
   -5.2500    1.2990    0.0000 Cl  0  0  0  0  0  0  0  0  0  0  0  0
   -3.0000    0.0000    0.0000 C   0  0  0  0  0  0  0  0  0  0  0  0
    4.5000   -0.0000    0.0000 H   0  0  0  0  0  0  0  0  0  0  0  0
    3.1828   -1.4888    0.0000 H   0  0  0  0  0  0  0  0  0  0  0  0
    3.1828    1.4888    0.0000 H   0  0  0  0  0  0  0  0  0  0  0  0
    1.8917   -1.7146    0.0000 H   0  0  0  0  0  0  0  0  0  0  0  0
    0.8263   -2.3899    0.0000 H   0  0  0  0  0  0  0  0  0  0  0  0
   -2.1595   -1.8121    0.0000 H   0  0  0  0  0  0  0  0  0  0  0  0
   -3.0481   -3.2274    0.0000 H   0  0  0  0  0  0  0  0  0  0  0  0
    0.2919   -7.2079    0.0000 H   0  0  0  0  0  0  0  0  0  0  0  0
    2.5900   -5.2795    0.0000 H   0  0  0  0  0  0  0  0  0  0  0  0
    1.9390   -2.6276    0.0000 H   0  0  0  0  0  0  0  0  0  0  0  0
   -3.4158   -8.6232    0.0000 H   0  0  0  0  0  0  0  0  0  0  0  0
   -4.5728   -5.2234    0.0000 H   0  0  0  0  0  0  0  0  0  0  0  0
   -5.5988   -8.0425    0.0000 H   0  0  0  0  0  0  0  0  0  0  0  0
   -5.9823   -4.7104    0.0000 H   0  0  0  0  0  0  0  0  0  0  0  0
   -7.0084   -7.5295    0.0000 H   0  0  0  0  0  0  0  0  0  0  0  0
   -8.0898   -7.7202    0.0000 H   0  0  0  0  0  0  0  0  0  0  0  0
  -10.0181   -5.4220    0.0000 H   0  0  0  0  0  0  0  0  0  0  0  0
   -9.2388   -8.6843    0.0000 H   0  0  0  0  0  0  0  0  0  0  0  0
  -11.1672   -6.3862    0.0000 H   0  0  0  0  0  0  0  0  0  0  0  0
  -12.2486   -6.5769    0.0000 H   0  0  0  0  0  0  0  0  0  0  0  0
  -13.2746   -9.3960    0.0000 H   0  0  0  0  0  0  0  0  0  0  0  0
  -13.6581   -6.0639    0.0000 H   0  0  0  0  0  0  0  0  0  0  0  0
  -14.6842   -8.8829    0.0000 H   0  0  0  0  0  0  0  0  0  0  0  0
  -15.8412   -5.4832    0.0000 H   0  0  0  0  0  0  0  0  0  0  0  0
  -18.3998   -5.9343    0.0000 H   0  0  0  0  0  0  0  0  0  0  0  0
  -18.3242   -9.5248    0.0000 H   0  0  0  0  0  0  0  0  0  0  0  0
  -20.2525   -7.2266    0.0000 H   0  0  0  0  0  0  0  0  0  0  0  0
  -19.4732  -10.4889    0.0000 H   0  0  0  0  0  0  0  0  0  0  0  0
  -21.4016   -8.1908    0.0000 H   0  0  0  0  0  0  0  0  0  0  0  0
  -22.5507   -9.1550    0.0000 H   0  0  0  0  0  0  0  0  0  0  0  0
  -20.6223  -11.4531    0.0000 H   0  0  0  0  0  0  0  0  0  0  0  0
  -21.7714  -12.4173    0.0000 H   0  0  0  0  0  0  0  0  0  0  0  0
  -23.6997  -10.1192    0.0000 H   0  0  0  0  0  0  0  0  0  0  0  0
  -23.6242  -13.7096    0.0000 H   0  0  0  0  0  0  0  0  0  0  0  0
  -26.1828  -14.1608    0.0000 H   0  0  0  0  0  0  0  0  0  0  0  0
  -27.3397  -10.7610    0.0000 H   0  0  0  0  0  0  0  0  0  0  0  0
  -28.3658  -13.5801    0.0000 H   0  0  0  0  0  0  0  0  0  0  0  0
  -28.7493  -10.2480    0.0000 H   0  0  0  0  0  0  0  0  0  0  0  0
  -29.7753  -13.0671    0.0000 H   0  0  0  0  0  0  0  0  0  0  0  0
  -30.8567  -13.2577    0.0000 H   0  0  0  0  0  0  0  0  0  0  0  0
  -32.7851  -10.9596    0.0000 H   0  0  0  0  0  0  0  0  0  0  0  0
  -32.0058  -14.2219    0.0000 H   0  0  0  0  0  0  0  0  0  0  0  0
  -33.9342  -11.9238    0.0000 H   0  0  0  0  0  0  0  0  0  0  0  0
  -35.0156  -12.1145    0.0000 H   0  0  0  0  0  0  0  0  0  0  0  0
  -36.0416  -14.9335    0.0000 H   0  0  0  0  0  0  0  0  0  0  0  0
  -36.4251  -11.6014    0.0000 H   0  0  0  0  0  0  0  0  0  0  0  0
  -37.4512  -14.4205    0.0000 H   0  0  0  0  0  0  0  0  0  0  0  0
  -38.6081  -11.0207    0.0000 H   0  0  0  0  0  0  0  0  0  0  0  0
  -42.3158  -12.4361    0.0000 H   0  0  0  0  0  0  0  0  0  0  0  0
  -43.7725  -17.2433    0.0000 H   0  0  0  0  0  0  0  0  0  0  0  0
  -41.2739  -18.3449    0.0000 H   0  0  0  0  0  0  0  0  0  0  0  0
  -38.9758  -16.4165    0.0000 H   0  0  0  0  0  0  0  0  0  0  0  0
  -43.8639  -13.0654    0.0000 H   0  0  0  0  0  0  0  0  0  0  0  0
  -44.6634  -17.0382    0.0000 H   0  0  0  0  0  0  0  0  0  0  0  0
  -43.8134  -16.1062    0.0000 H   0  0  0  0  0  0  0  0  0  0  0  0
  -46.8049  -19.3091    0.0000 H   0  0  0  0  0  0  0  0  0  0  0  0
  -48.0424  -17.7534    0.0000 H   0  0  0  0  0  0  0  0  0  0  0  0
  -45.1100  -18.2705    0.0000 H   0  0  0  0  0  0  0  0  0  0  0  0
  -48.8426  -14.8775    0.0000 H   0  0  0  0  0  0  0  0  0  0  0  0
  -48.3358  -16.5884    0.0000 H   0  0  0  0  0  0  0  0  0  0  0  0
  -44.0930  -11.4100    0.0000 H   0  0  0  0  0  0  0  0  0  0  0  0
  -49.2102  -10.5077    0.0000 H   0  0  0  0  0  0  0  0  0  0  0  0
    0.4895    2.7762    0.0000 H   0  0  0  0  0  0  0  0  0  0  0  0
    2.0865    1.9801    0.0000 H   0  0  0  0  0  0  0  0  0  0  0  0
   -3.7500    3.8971    0.0000 H   0  0  0  0  0  0  0  0  0  0  0  0
   -3.7500   -1.2990    0.0000 H   0  0  0  0  0  0  0  0  0  0  0  0
  1  2  1  0
  2  3  1  0
  3  4  1  0
  4  5  1  0
  5  6  2  0
  6  7  1  0
  7  8  2  0
  8  9  1  0
  9 10  2  0
  7 11  1  0
 11 12  2  0
 11 13  2  0
 11 14  1  0
 14 15  1  0
 15 16  1  0
 16 17  1  0
 17 18  1  0
 18 19  1  0
 19 20  1  0
 20 21  1  0
 21 22  1  0
 22 23  1  0
 23 24  1  0
 24 25  2  0
 24 26  1  0
 26 27  1  0
 27 28  1  0
 28 29  1  0
 29 30  1  0
 30 31  1  0
 31 32  1  0
 32 33  2  0
 32 34  1  0
 34 35  1  0
 35 36  1  0
 36 37  1  0
 37 38  1  0
 38 39  1  0
 39 40  1  0
 40 41  1  0
 41 42  1  0
 42 43  1  0
 43 44  1  0
 44 45  2  0
 44 46  2  0
 44 47  1  0
 47 48  2  0
 48 49  1  0
 49 50  2  0
 50 51  1  0
 51 52  2  0
 49 53  1  0
 53 54  1  0
 54 55  1  0
 55 56  1  0
 55 57  1  0
 57 58  1  0
 58 59  2  0
 59 60  1  0
 60 61  2  0
 61 62  1  0
 61 63  1  0
 63 64  2  0
 64 65  1  0
  4 66  1  0
 66 67  2  0
 67 68  1  0
 67 69  1  0
 69 70  1  0
 69 71  2  0
 71 72  1  0
 72 73  1  0
 72 74  2  0
 68  2  1  0
 10  5  1  0
 52 47  1  0
 59 53  1  0
 74 66  1  0
 64 58  1  0
  1 75  1  0
  1 76  1  0
  1 77  1  0
  3 78  1  0
  3 79  1  0
  4 80  1  6
  6 81  1  0
  8 82  1  0
  9 83  1  0
 10 84  1  0
 14 85  1  0
 15 86  1  0
 15 87  1  0
 16 88  1  0
 16 89  1  0
 18 90  1  0
 18 91  1  0
 19 92  1  0
 19 93  1  0
 21 94  1  0
 21 95  1  0
 22 96  1  0
 22 97  1  0
 23 98  1  0
 26 99  1  0
 27100  1  0
 27101  1  0
 28102  1  0
 28103  1  0
 29104  1  0
 29105  1  0
 30106  1  0
 30107  1  0
 31108  1  0
 34109  1  0
 35110  1  0
 35111  1  0
 36112  1  0
 36113  1  0
 38114  1  0
 38115  1  0
 39116  1  0
 39117  1  0
 41118  1  0
 41119  1  0
 42120  1  0
 42121  1  0
 43122  1  0
 48123  1  0
 50124  1  0
 51125  1  0
 52126  1  0
 53127  1  1
 54128  1  0
 54129  1  0
 56130  1  0
 56131  1  0
 56132  1  0
 57133  1  0
 57134  1  0
 60135  1  0
 63136  1  0
 68137  1  0
 68138  1  0
 71139  1  0
 74140  1  0
M  END
$$$$
