
     RDKit          3D

 46 49  0  0  0  0  0  0  0  0999 V2000
   -1.1815   -0.3395   -0.9482 C   0  0  2  0  0  0  0  0  0  0  0  0
   -1.8004   -0.1363   -2.3264 C   0  0  0  0  0  0  0  0  0  0  0  0
   -3.3148   -0.0339   -2.0602 C   0  0  0  0  0  0  0  0  0  0  0  0
   -3.5080    0.0037   -0.5165 C   0  0  1  0  0  0  0  0  0  0  0  0
   -4.5005    0.9325   -0.1467 O   0  0  0  0  0  0  0  0  0  0  0  0
   -3.9089   -1.3408   -0.0316 C   0  0  0  0  0  0  0  0  0  0  0  0
   -4.2370   -2.4335    0.3591 C   0  0  0  0  0  0  0  0  0  0  0  0
   -2.1027    0.4330    0.0102 C   0  0  2  0  0  0  0  0  0  0  0  0
   -1.9701    1.9890   -0.1203 C   0  0  0  0  0  0  0  0  0  0  0  0
   -1.7390    0.0184    1.4601 C   0  0  0  0  0  0  0  0  0  0  0  0
   -0.2382    0.2559    1.7663 C   0  0  0  0  0  0  0  0  0  0  0  0
    0.7117   -0.3905    0.7110 C   0  0  2  0  0  0  0  0  0  0  0  0
    2.1972   -0.1095    0.9486 C   0  0  0  0  0  0  0  0  0  0  0  0
    3.1117   -0.1256   -0.1413 C   0  0  0  0  0  0  0  0  0  0  0  0
    2.6569   -0.2490   -1.5795 C   0  0  0  0  0  0  0  0  0  0  0  0
    1.2149   -0.7412   -1.7254 C   0  0  0  0  0  0  0  0  0  0  0  0
    0.3067    0.0059   -0.7403 C   0  0  1  0  0  0  0  0  0  0  0  0
    4.4834    0.0611    0.0955 C   0  0  0  0  0  0  0  0  0  0  0  0
    4.9698    0.2145    1.3934 C   0  0  0  0  0  0  0  0  0  0  0  0
    6.3359    0.3935    1.5997 O   0  0  0  0  0  0  0  0  0  0  0  0
    4.0848    0.1826    2.4723 C   0  0  0  0  0  0  0  0  0  0  0  0
    2.7169    0.0092    2.2564 C   0  0  0  0  0  0  0  0  0  0  0  0
   -1.2801   -1.4319   -0.7338 H   0  0  0  0  0  0  0  0  0  0  0  0
   -1.5727   -0.9943   -2.9959 H   0  0  0  0  0  0  0  0  0  0  0  0
   -1.4205    0.7990   -2.7926 H   0  0  0  0  0  0  0  0  0  0  0  0
   -3.8527   -0.8879   -2.5299 H   0  0  0  0  0  0  0  0  0  0  0  0
   -3.7029    0.8998   -2.5239 H   0  0  0  0  0  0  0  0  0  0  0  0
   -5.3347    0.6920   -0.6305 H   0  0  0  0  0  0  0  0  0  0  0  0
   -4.5240   -3.3924    0.7021 H   0  0  0  0  0  0  0  0  0  0  0  0
   -2.2190    2.3436   -1.1415 H   0  0  0  0  0  0  0  0  0  0  0  0
   -2.6642    2.4913    0.5866 H   0  0  0  0  0  0  0  0  0  0  0  0
   -0.9608    2.3693    0.1201 H   0  0  0  0  0  0  0  0  0  0  0  0
   -2.3611    0.5855    2.1861 H   0  0  0  0  0  0  0  0  0  0  0  0
   -1.9443   -1.0609    1.6251 H   0  0  0  0  0  0  0  0  0  0  0  0
   -0.0554   -0.1982    2.7618 H   0  0  0  0  0  0  0  0  0  0  0  0
   -0.0238    1.3406    1.8607 H   0  0  0  0  0  0  0  0  0  0  0  0
    0.5888   -1.4927    0.8142 H   0  0  0  0  0  0  0  0  0  0  0  0
    3.3261   -0.9483   -2.1268 H   0  0  0  0  0  0  0  0  0  0  0  0
    2.7465    0.7501   -2.0594 H   0  0  0  0  0  0  0  0  0  0  0  0
    0.8885   -0.5578   -2.7714 H   0  0  0  0  0  0  0  0  0  0  0  0
    1.1699   -1.8374   -1.5398 H   0  0  0  0  0  0  0  0  0  0  0  0
    0.4695    1.0921   -0.9018 H   0  0  0  0  0  0  0  0  0  0  0  0
    5.1795    0.0852   -0.7346 H   0  0  0  0  0  0  0  0  0  0  0  0
    6.7209    0.5066    2.5303 H   0  0  0  0  0  0  0  0  0  0  0  0
    4.4572    0.2842    3.4839 H   0  0  0  0  0  0  0  0  0  0  0  0
    2.0806   -0.0373    3.1262 H   0  0  0  0  0  0  0  0  0  0  0  0
  1  2  1  0
  2  3  1  0
  3  4  1  0
  4  5  1  0
  4  6  1  1
  6  7  3  0
  4  8  1  0
  8  9  1  1
  8 10  1  0
 10 11  1  0
 11 12  1  0
 12 13  1  0
 13 14  2  0
 14 15  1  0
 15 16  1  0
 16 17  1  0
 14 18  1  0
 18 19  2  0
 19 20  1  0
 19 21  1  0
 21 22  2  0
  8  1  1  0
 17 12  1  0
 17  1  1  0
 22 13  1  0
  1 23  1  1
  2 24  1  0
  2 25  1  0
  3 26  1  0
  3 27  1  0
  5 28  1  0
  7 29  1  0
  9 30  1  0
  9 31  1  0
  9 32  1  0
 10 33  1  0
 10 34  1  0
 11 35  1  0
 11 36  1  0
 12 37  1  6
 15 38  1  0
 15 39  1  0
 16 40  1  0
 16 41  1  0
 17 42  1  1
 18 43  1  0
 20 44  1  0
 21 45  1  0
 22 46  1  0
M  END
$$$$
