
     RDKit          3D

 84 88  0  0  0  0  0  0  0  0999 V2000
   -4.8876    3.7490    1.3731 C   0  0  0  0  0  0  0  0  0  0  0  0
   -5.8951    2.8999    0.6647 C   0  0  0  0  0  0  0  0  0  0  0  0
   -6.9405    3.4883   -0.0541 C   0  0  0  0  0  0  0  0  0  0  0  0
   -7.8631    2.6828   -0.7411 C   0  0  0  0  0  0  0  0  0  0  0  0
   -8.9819    3.3421   -1.5064 C   0  0  0  0  0  0  0  0  0  0  0  0
   -7.7112    1.2748   -0.7029 C   0  0  0  0  0  0  0  0  0  0  0  0
   -8.5861    0.4006   -1.3783 C   0  0  0  0  0  0  0  0  0  0  0  0
   -8.3865   -0.9804   -1.3228 C   0  0  0  0  0  0  0  0  0  0  0  0
   -7.3196   -1.5122   -0.5970 C   0  0  0  0  0  0  0  0  0  0  0  0
   -6.4369   -0.6614    0.0900 C   0  0  0  0  0  0  0  0  0  0  0  0
   -5.3536   -1.1510    0.8331 O   0  0  0  0  0  0  0  0  0  0  0  0
   -4.8952   -2.4995    0.8233 C   0  0  0  0  0  0  0  0  0  0  0  0
   -3.6080   -2.5715    1.6118 C   0  0  0  0  0  0  0  0  0  0  0  0
   -3.5470   -3.2317    2.8615 C   0  0  0  0  0  0  0  0  0  0  0  0
   -4.9265   -4.0797    3.5567 Cl  0  0  0  0  0  0  0  0  0  0  0  0
   -2.3631   -3.2170    3.6017 C   0  0  0  0  0  0  0  0  0  0  0  0
   -1.2441   -2.5323    3.1360 C   0  0  0  0  0  0  0  0  0  0  0  0
   -1.2825   -1.8577    1.9104 C   0  0  0  0  0  0  0  0  0  0  0  0
   -2.4596   -1.8931    1.1324 C   0  0  0  0  0  0  0  0  0  0  0  0
   -2.5057   -1.0745   -0.4379 Cl  0  0  0  0  0  0  0  0  0  0  0  0
    0.1269   -0.9224    1.3939 S   0  0  0  0  0  6  0  0  0  0  0  0
    1.1716   -0.9328    2.4756 O   0  0  0  0  0  0  0  0  0  0  0  0
    0.6993   -1.5451    0.1512 O   0  0  0  0  0  0  0  0  0  0  0  0
   -0.3884    0.7173    1.0674 N   0  0  0  0  0  0  0  0  0  0  0  0
   -0.7476    1.4564    2.2754 C   0  0  0  0  0  0  0  0  0  0  0  0
   -0.5677    2.9369    1.9613 C   0  0  0  0  0  0  0  0  0  0  0  0
    0.1695    3.0022    0.6289 C   0  0  0  0  0  0  0  0  0  0  0  0
    0.5248    1.5572    0.2774 C   0  0  1  0  0  0  0  0  0  0  0  0
    2.0026    1.2834    0.4974 C   0  0  0  0  0  0  0  0  0  0  0  0
    2.6803    0.8178   -0.4590 O   0  0  0  0  0  0  0  0  0  0  0  0
    2.6414    1.5763    1.7508 N   0  0  0  0  0  0  0  0  0  0  0  0
    4.0922    1.5238    1.9323 C   0  0  0  0  0  0  0  0  0  0  0  0
    4.5220    0.2097    2.6010 C   0  0  0  0  0  0  0  0  0  0  0  0
    4.4556   -1.0019    1.6596 C   0  0  0  0  0  0  0  0  0  0  0  0
    5.4536   -0.9167    0.5920 N   0  0  0  0  0  0  0  0  0  0  0  0
    5.4879   -1.8818   -0.4713 C   0  0  0  0  0  0  0  0  0  0  0  0
    4.5639   -2.7362   -0.5650 O   0  0  0  0  0  0  0  0  0  0  0  0
    6.5780   -1.8791   -1.4765 C   0  0  0  0  0  0  0  0  0  0  0  0
    6.3564   -2.4231   -2.7532 C   0  0  0  0  0  0  0  0  0  0  0  0
    7.3748   -2.4302   -3.7104 C   0  0  0  0  0  0  0  0  0  0  0  0
    8.6414   -1.9043   -3.4088 C   0  0  0  0  0  0  0  0  0  0  0  0
    8.8678   -1.3701   -2.1287 C   0  0  0  0  0  0  0  0  0  0  0  0
    7.8486   -1.3605   -1.1718 C   0  0  0  0  0  0  0  0  0  0  0  0
    9.7173   -1.9126   -4.4319 C   0  0  0  0  0  0  0  0  0  0  0  0
    9.4021   -1.6917   -5.8091 N   0  0  0  0  0  0  0  0  0  0  0  0
   10.9523   -2.1281   -4.0993 N   0  0  0  0  0  0  0  0  0  0  0  0
   -6.6334    0.7266    0.0357 C   0  0  0  0  0  0  0  0  0  0  0  0
   -5.7672    1.5488    0.6852 N   0  0  0  0  0  0  0  0  0  0  0  0
   -4.2278    4.2421    0.6288 H   0  0  0  0  0  0  0  0  0  0  0  0
   -4.2629    3.1276    2.0497 H   0  0  0  0  0  0  0  0  0  0  0  0
   -5.4011    4.5247    1.9797 H   0  0  0  0  0  0  0  0  0  0  0  0
   -7.0305    4.5681   -0.0773 H   0  0  0  0  0  0  0  0  0  0  0  0
   -8.9470    4.4487   -1.4159 H   0  0  0  0  0  0  0  0  0  0  0  0
   -8.9035    3.0841   -2.5834 H   0  0  0  0  0  0  0  0  0  0  0  0
   -9.9611    2.9984   -1.1118 H   0  0  0  0  0  0  0  0  0  0  0  0
   -9.4231    0.7717   -1.9543 H   0  0  0  0  0  0  0  0  0  0  0  0
   -9.0632   -1.6431   -1.8469 H   0  0  0  0  0  0  0  0  0  0  0  0
   -7.1924   -2.5858   -0.5716 H   0  0  0  0  0  0  0  0  0  0  0  0
   -5.6848   -3.1602    1.2315 H   0  0  0  0  0  0  0  0  0  0  0  0
   -4.7021   -2.8255   -0.2216 H   0  0  0  0  0  0  0  0  0  0  0  0
   -2.3141   -3.7244    4.5570 H   0  0  0  0  0  0  0  0  0  0  0  0
   -0.3498   -2.5213    3.7450 H   0  0  0  0  0  0  0  0  0  0  0  0
   -0.1032    1.1743    3.1360 H   0  0  0  0  0  0  0  0  0  0  0  0
   -1.8052    1.2413    2.5404 H   0  0  0  0  0  0  0  0  0  0  0  0
   -1.5565    3.4396    1.8795 H   0  0  0  0  0  0  0  0  0  0  0  0
    0.0227    3.4352    2.7611 H   0  0  0  0  0  0  0  0  0  0  0  0
   -0.5111    3.4173   -0.1474 H   0  0  0  0  0  0  0  0  0  0  0  0
    1.0616    3.6642    0.6944 H   0  0  0  0  0  0  0  0  0  0  0  0
    0.2977    1.3911   -0.7992 H   0  0  0  0  0  0  0  0  0  0  0  0
    2.0646    1.8799    2.5648 H   0  0  0  0  0  0  0  0  0  0  0  0
    4.6186    1.6788    0.9667 H   0  0  0  0  0  0  0  0  0  0  0  0
    4.3914    2.3647    2.5946 H   0  0  0  0  0  0  0  0  0  0  0  0
    3.8719    0.0207    3.4829 H   0  0  0  0  0  0  0  0  0  0  0  0
    5.5630    0.3166    2.9763 H   0  0  0  0  0  0  0  0  0  0  0  0
    3.4421   -1.0853    1.2190 H   0  0  0  0  0  0  0  0  0  0  0  0
    4.6434   -1.9232    2.2516 H   0  0  0  0  0  0  0  0  0  0  0  0
    6.1275   -0.1191    0.5811 H   0  0  0  0  0  0  0  0  0  0  0  0
    5.3903   -2.8365   -3.0157 H   0  0  0  0  0  0  0  0  0  0  0  0
    7.1749   -2.8655   -4.6814 H   0  0  0  0  0  0  0  0  0  0  0  0
    9.8290   -0.9452   -1.8689 H   0  0  0  0  0  0  0  0  0  0  0  0
    8.0691   -0.9650   -0.1895 H   0  0  0  0  0  0  0  0  0  0  0  0
   10.1513   -1.7385   -6.5353 H   0  0  0  0  0  0  0  0  0  0  0  0
    8.4372   -1.4285   -6.1080 H   0  0  0  0  0  0  0  0  0  0  0  0
   11.2509   -2.3176   -3.1168 H   0  0  0  0  0  0  0  0  0  0  0  0
  1  2  1  0
  2  3  2  0
  3  4  1  0
  4  5  1  0
  4  6  2  0
  6  7  1  0
  7  8  2  0
  8  9  1  0
  9 10  2  0
 10 11  1  0
 11 12  1  0
 12 13  1  0
 13 14  2  0
 14 15  1  0
 14 16  1  0
 16 17  2  0
 17 18  1  0
 18 19  2  0
 19 20  1  0
 18 21  1  0
 21 22  2  0
 21 23  2  0
 21 24  1  0
 24 25  1  0
 25 26  1  0
 26 27  1  0
 27 28  1  0
 28 29  1  0
 29 30  2  0
 29 31  1  0
 31 32  1  0
 32 33  1  0
 33 34  1  0
 34 35  1  0
 35 36  1  0
 36 37  2  0
 36 38  1  0
 38 39  2  0
 39 40  1  0
 40 41  2  0
 41 42  1  0
 42 43  2  0
 41 44  1  0
 44 45  1  0
 44 46  2  3
 10 47  1  0
 47 48  2  0
 48  2  1  0
 47  6  1  0
 19 13  1  0
 28 24  1  0
 43 38  1  0
  1 49  1  0
  1 50  1  0
  1 51  1  0
  3 52  1  0
  5 53  1  0
  5 54  1  0
  5 55  1  0
  7 56  1  0
  8 57  1  0
  9 58  1  0
 12 59  1  0
 12 60  1  0
 16 61  1  0
 17 62  1  0
 25 63  1  0
 25 64  1  0
 26 65  1  0
 26 66  1  0
 27 67  1  0
 27 68  1  0
 28 69  1  6
 31 70  1  0
 32 71  1  0
 32 72  1  0
 33 73  1  0
 33 74  1  0
 34 75  1  0
 34 76  1  0
 35 77  1  0
 39 78  1  0
 40 79  1  0
 42 80  1  0
 43 81  1  0
 45 82  1  0
 45 83  1  0
 46 84  1  0
M  END
$$$$
