
     RDKit          3D

139144  0  0  0  0  0  0  0  0999 V2000
   -8.0240   -0.7133   -7.5977 C   0  0  0  0  0  0  0  0  0  0  0  0
   -8.8402   -0.7477   -6.4313 O   0  0  0  0  0  0  0  0  0  0  0  0
   -8.5315   -0.1014   -5.2236 C   0  0  0  0  0  0  0  0  0  0  0  0
   -7.3642    0.6603   -5.0610 C   0  0  0  0  0  0  0  0  0  0  0  0
   -7.0817    1.2939   -3.8422 C   0  0  0  0  0  0  0  0  0  0  0  0
   -7.9419    1.1244   -2.7337 C   0  0  0  0  0  0  0  0  0  0  0  0
   -9.1392    0.4068   -2.9324 C   0  0  0  0  0  0  0  0  0  0  0  0
   -9.4274   -0.2209   -4.1575 C   0  0  0  0  0  0  0  0  0  0  0  0
  -10.5989   -0.9703   -4.3540 O   0  0  0  0  0  0  0  0  0  0  0  0
  -11.5701   -1.2313   -3.3457 C   0  0  0  0  0  0  0  0  0  0  0  0
   -7.6626    1.8508   -1.4003 C   0  0  1  0  0  0  0  0  0  0  0  0
   -8.1970    1.0388   -0.1583 C   0  0  0  0  0  0  0  0  0  0  0  0
   -9.6095    1.3993    0.2567 C   0  0  0  0  0  0  0  0  0  0  0  0
  -10.5909    0.4014    0.3843 C   0  0  0  0  0  0  0  0  0  0  0  0
  -11.8927    0.7228    0.8168 C   0  0  0  0  0  0  0  0  0  0  0  0
  -12.8992   -0.2483    0.9405 O   0  0  0  0  0  0  0  0  0  0  0  0
  -12.7243   -1.6341    0.6646 C   0  0  0  0  0  0  0  0  0  0  0  0
  -12.2075    2.0503    1.1439 C   0  0  0  0  0  0  0  0  0  0  0  0
  -13.5150    2.3422    1.5639 O   0  0  0  0  0  0  0  0  0  0  0  0
  -13.9749    3.6401    1.9264 C   0  0  0  0  0  0  0  0  0  0  0  0
  -11.2141    3.0421    1.0517 C   0  0  0  0  0  0  0  0  0  0  0  0
   -9.9261    2.7151    0.6266 C   0  0  0  0  0  0  0  0  0  0  0  0
   -6.2105    2.2603   -1.2574 N   0  0  1  0  0  4  0  0  0  0  0  0
   -6.0745    3.2321   -0.1314 C   0  0  0  0  0  0  0  0  0  0  0  0
   -5.3388    1.0595   -0.9996 C   0  0  0  0  0  0  0  0  0  0  0  0
   -3.8189    1.3415   -0.9575 C   0  0  0  0  0  0  0  0  0  0  0  0
   -3.0731    0.0858   -0.6324 C   0  0  0  0  0  0  0  0  0  0  0  0
   -2.6871   -0.6721   -1.5640 O   0  0  0  0  0  0  0  0  0  0  0  0
   -2.8624   -0.2606    0.7070 O   0  0  0  0  0  0  0  0  0  0  0  0
   -2.1469   -1.4254    1.1132 C   0  0  0  0  0  0  0  0  0  0  0  0
   -0.6404   -1.2220    0.9274 C   0  0  0  0  0  0  0  0  0  0  0  0
    0.1457   -2.4442    1.4240 C   0  0  0  0  0  0  0  0  0  0  0  0
    1.6502   -2.3395    1.1301 C   0  0  0  0  0  0  0  0  0  0  0  0
    2.3506   -1.2855    1.9970 C   0  0  0  0  0  0  0  0  0  0  0  0
    3.7567   -1.3013    1.7600 O   0  0  0  0  0  0  0  0  0  0  0  0
    4.6151   -2.2766    2.2798 C   0  0  0  0  0  0  0  0  0  0  0  0
    4.1835   -3.1677    3.0613 O   0  0  0  0  0  0  0  0  0  0  0  0
    6.0716   -2.2234    1.9456 C   0  0  0  0  0  0  0  0  0  0  0  0
    6.7970   -1.2306    2.8880 C   0  0  0  0  0  0  0  0  0  0  0  0
    8.2969   -1.2250    2.8005 N   0  0  1  0  0  4  0  0  0  0  0  0
    8.7736   -0.1453    3.7154 C   0  0  0  0  0  0  0  0  0  0  0  0
    8.8384   -2.5253    3.3784 C   0  0  0  0  0  0  0  0  0  0  0  0
    9.9657   -3.1767    2.5625 C   0  0  0  0  0  0  0  0  0  0  0  0
    9.5007   -3.3303    1.1512 C   0  0  0  0  0  0  0  0  0  0  0  0
    8.8598   -2.2386    0.5574 C   0  0  0  0  0  0  0  0  0  0  0  0
    8.3225   -2.3904   -0.7392 C   0  0  0  0  0  0  0  0  0  0  0  0
    8.4602   -3.6063   -1.4376 C   0  0  0  0  0  0  0  0  0  0  0  0
    7.9362   -3.7887   -2.7278 O   0  0  0  0  0  0  0  0  0  0  0  0
    7.2173   -2.7993   -3.4574 C   0  0  0  0  0  0  0  0  0  0  0  0
    9.1366   -4.6794   -0.8406 C   0  0  0  0  0  0  0  0  0  0  0  0
    9.2659   -5.8735   -1.5678 O   0  0  0  0  0  0  0  0  0  0  0  0
    9.9215   -7.0435   -1.0891 C   0  0  0  0  0  0  0  0  0  0  0  0
    9.6538   -4.5370    0.4586 C   0  0  0  0  0  0  0  0  0  0  0  0
    8.8050   -0.9479    1.3882 C   0  0  1  0  0  0  0  0  0  0  0  0
    8.1403    0.2492    0.6139 C   0  0  0  0  0  0  0  0  0  0  0  0
    8.3962    1.6237    1.1819 C   0  0  0  0  0  0  0  0  0  0  0  0
    9.7030    2.1319    1.2583 C   0  0  0  0  0  0  0  0  0  0  0  0
    9.9445    3.4159    1.7843 C   0  0  0  0  0  0  0  0  0  0  0  0
   11.2408    3.9442    1.8932 O   0  0  0  0  0  0  0  0  0  0  0  0
   12.4275    3.2563    1.5107 C   0  0  0  0  0  0  0  0  0  0  0  0
    8.8663    4.2035    2.2162 C   0  0  0  0  0  0  0  0  0  0  0  0
    9.1381    5.4780    2.7385 O   0  0  0  0  0  0  0  0  0  0  0  0
    8.1469    6.3825    3.2150 C   0  0  0  0  0  0  0  0  0  0  0  0
    7.5551    3.7028    2.1135 C   0  0  0  0  0  0  0  0  0  0  0  0
    7.3236    2.4282    1.5947 C   0  0  0  0  0  0  0  0  0  0  0  0
   -5.8104    2.9915   -2.4978 C   0  0  0  0  0  0  0  0  0  0  0  0
   -5.8267    2.1081   -3.7467 C   0  0  0  0  0  0  0  0  0  0  0  0
   -7.0273   -1.1519   -7.3795 H   0  0  0  0  0  0  0  0  0  0  0  0
   -7.9128    0.3321   -7.9553 H   0  0  0  0  0  0  0  0  0  0  0  0
   -8.5080   -1.3118   -8.3963 H   0  0  0  0  0  0  0  0  0  0  0  0
   -6.6701    0.7750   -5.8834 H   0  0  0  0  0  0  0  0  0  0  0  0
   -9.8603    0.3414   -2.1421 H   0  0  0  0  0  0  0  0  0  0  0  0
  -12.3736   -1.8663   -3.7713 H   0  0  0  0  0  0  0  0  0  0  0  0
  -12.0201   -0.2801   -2.9905 H   0  0  0  0  0  0  0  0  0  0  0  0
  -11.0997   -1.7731   -2.4983 H   0  0  0  0  0  0  0  0  0  0  0  0
   -8.2718    2.7792   -1.4814 H   0  0  0  0  0  0  0  0  0  0  0  0
   -8.1094   -0.0507   -0.3650 H   0  0  0  0  0  0  0  0  0  0  0  0
   -7.5871    1.1997    0.7473 H   0  0  0  0  0  0  0  0  0  0  0  0
  -10.3365   -0.6213    0.1400 H   0  0  0  0  0  0  0  0  0  0  0  0
  -13.6781   -2.1654    0.8599 H   0  0  0  0  0  0  0  0  0  0  0  0
  -12.4500   -1.7793   -0.4004 H   0  0  0  0  0  0  0  0  0  0  0  0
  -11.9391   -2.0593    1.3247 H   0  0  0  0  0  0  0  0  0  0  0  0
  -13.3975    4.0210    2.7951 H   0  0  0  0  0  0  0  0  0  0  0  0
  -13.8750    4.3348    1.0658 H   0  0  0  0  0  0  0  0  0  0  0  0
  -15.0452    3.5789    2.2110 H   0  0  0  0  0  0  0  0  0  0  0  0
  -11.4249    4.0694    1.3153 H   0  0  0  0  0  0  0  0  0  0  0  0
   -9.1737    3.4919    0.5928 H   0  0  0  0  0  0  0  0  0  0  0  0
   -5.1073    3.7792   -0.1704 H   0  0  0  0  0  0  0  0  0  0  0  0
   -6.1029    2.7420    0.8630 H   0  0  0  0  0  0  0  0  0  0  0  0
   -6.8705    4.0081   -0.1631 H   0  0  0  0  0  0  0  0  0  0  0  0
   -5.5981    0.5948   -0.0245 H   0  0  0  0  0  0  0  0  0  0  0  0
   -5.5272    0.2686   -1.7582 H   0  0  0  0  0  0  0  0  0  0  0  0
   -3.5796    2.0937   -0.1787 H   0  0  0  0  0  0  0  0  0  0  0  0
   -3.4497    1.7187   -1.9323 H   0  0  0  0  0  0  0  0  0  0  0  0
   -2.3605   -1.6071    2.1881 H   0  0  0  0  0  0  0  0  0  0  0  0
   -2.4990   -2.3097    0.5377 H   0  0  0  0  0  0  0  0  0  0  0  0
   -0.4213   -1.0527   -0.1488 H   0  0  0  0  0  0  0  0  0  0  0  0
   -0.3352   -0.3185    1.4964 H   0  0  0  0  0  0  0  0  0  0  0  0
   -0.2408   -3.3517    0.9101 H   0  0  0  0  0  0  0  0  0  0  0  0
   -0.0157   -2.5810    2.5159 H   0  0  0  0  0  0  0  0  0  0  0  0
    2.1085   -3.3318    1.3294 H   0  0  0  0  0  0  0  0  0  0  0  0
    1.8133   -2.1069    0.0552 H   0  0  0  0  0  0  0  0  0  0  0  0
    2.1441   -1.4596    3.0759 H   0  0  0  0  0  0  0  0  0  0  0  0
    1.9729   -0.2768    1.7321 H   0  0  0  0  0  0  0  0  0  0  0  0
    6.4891   -3.2477    2.0071 H   0  0  0  0  0  0  0  0  0  0  0  0
    6.1530   -1.9013    0.8916 H   0  0  0  0  0  0  0  0  0  0  0  0
    6.3874   -0.2156    2.6882 H   0  0  0  0  0  0  0  0  0  0  0  0
    6.4919   -1.4680    3.9348 H   0  0  0  0  0  0  0  0  0  0  0  0
    8.2822    0.8249    3.5304 H   0  0  0  0  0  0  0  0  0  0  0  0
    9.8765   -0.0128    3.6499 H   0  0  0  0  0  0  0  0  0  0  0  0
    8.5224   -0.3683    4.7776 H   0  0  0  0  0  0  0  0  0  0  0  0
    8.0459   -3.2926    3.5040 H   0  0  0  0  0  0  0  0  0  0  0  0
    9.2296   -2.4135    4.4159 H   0  0  0  0  0  0  0  0  0  0  0  0
   10.2203   -4.1622    3.0108 H   0  0  0  0  0  0  0  0  0  0  0  0
   10.8765   -2.5406    2.5916 H   0  0  0  0  0  0  0  0  0  0  0  0
    7.7786   -1.5855   -1.2044 H   0  0  0  0  0  0  0  0  0  0  0  0
    6.2968   -2.5121   -2.9065 H   0  0  0  0  0  0  0  0  0  0  0  0
    6.9250   -3.2170   -4.4425 H   0  0  0  0  0  0  0  0  0  0  0  0
    7.8578   -1.9079   -3.6257 H   0  0  0  0  0  0  0  0  0  0  0  0
   10.9871   -6.8213   -0.8693 H   0  0  0  0  0  0  0  0  0  0  0  0
    9.4125   -7.4202   -0.1768 H   0  0  0  0  0  0  0  0  0  0  0  0
    9.8766   -7.8293   -1.8706 H   0  0  0  0  0  0  0  0  0  0  0  0
   10.1607   -5.3613    0.9418 H   0  0  0  0  0  0  0  0  0  0  0  0
    9.8779   -0.6592    1.4599 H   0  0  0  0  0  0  0  0  0  0  0  0
    7.0550    0.0853    0.4672 H   0  0  0  0  0  0  0  0  0  0  0  0
    8.5793    0.2917   -0.4056 H   0  0  0  0  0  0  0  0  0  0  0  0
   10.5250    1.5242    0.9065 H   0  0  0  0  0  0  0  0  0  0  0  0
   12.5327    2.3201    2.0988 H   0  0  0  0  0  0  0  0  0  0  0  0
   13.3040    3.9045    1.7152 H   0  0  0  0  0  0  0  0  0  0  0  0
   12.4020    3.0257    0.4247 H   0  0  0  0  0  0  0  0  0  0  0  0
    7.5915    5.9285    4.0627 H   0  0  0  0  0  0  0  0  0  0  0  0
    7.4457    6.6470    2.3954 H   0  0  0  0  0  0  0  0  0  0  0  0
    8.6427    7.3088    3.5707 H   0  0  0  0  0  0  0  0  0  0  0  0
    6.7061    4.2915    2.4326 H   0  0  0  0  0  0  0  0  0  0  0  0
    6.3055    2.0657    1.5257 H   0  0  0  0  0  0  0  0  0  0  0  0
   -6.5022    3.8484   -2.6757 H   0  0  0  0  0  0  0  0  0  0  0  0
   -4.7996    3.4460   -2.4051 H   0  0  0  0  0  0  0  0  0  0  0  0
   -5.7397    2.7641   -4.6406 H   0  0  0  0  0  0  0  0  0  0  0  0
   -4.9505    1.4266   -3.7538 H   0  0  0  0  0  0  0  0  0  0  0  0
  1  2  1  0
  2  3  1  0
  3  4  2  0
  4  5  1  0
  5  6  2  0
  6  7  1  0
  7  8  2  0
  8  9  1  0
  9 10  1  0
  6 11  1  0
 11 12  1  0
 12 13  1  0
 13 14  2  0
 14 15  1  0
 15 16  1  0
 16 17  1  0
 15 18  2  0
 18 19  1  0
 19 20  1  0
 18 21  1  0
 21 22  2  0
 11 23  1  0
 23 24  1  1
 23 25  1  0
 25 26  1  0
 26 27  1  0
 27 28  2  0
 27 29  1  0
 29 30  1  0
 30 31  1  0
 31 32  1  0
 32 33  1  0
 33 34  1  0
 34 35  1  0
 35 36  1  0
 36 37  2  0
 36 38  1  0
 38 39  1  0
 40 39  1  6
 40 41  1  0
 40 42  1  0
 42 43  1  0
 43 44  1  0
 44 45  2  0
 45 46  1  0
 46 47  2  0
 47 48  1  0
 48 49  1  0
 47 50  1  0
 50 51  1  0
 51 52  1  0
 50 53  2  0
 45 54  1  0
 54 55  1  0
 55 56  1  0
 56 57  2  0
 57 58  1  0
 58 59  1  0
 59 60  1  0
 58 61  2  0
 61 62  1  0
 62 63  1  0
 61 64  1  0
 64 65  2  0
 23 66  1  0
 66 67  1  0
  8  3  1  0
 22 13  1  0
 54 40  1  0
 65 56  1  0
 67  5  1  0
 53 44  1  0
  1 68  1  0
  1 69  1  0
  1 70  1  0
  4 71  1  0
  7 72  1  0
 10 73  1  0
 10 74  1  0
 10 75  1  0
 11 76  1  6
 12 77  1  0
 12 78  1  0
 14 79  1  0
 17 80  1  0
 17 81  1  0
 17 82  1  0
 20 83  1  0
 20 84  1  0
 20 85  1  0
 21 86  1  0
 22 87  1  0
 24 88  1  0
 24 89  1  0
 24 90  1  0
 25 91  1  0
 25 92  1  0
 26 93  1  0
 26 94  1  0
 30 95  1  0
 30 96  1  0
 31 97  1  0
 31 98  1  0
 32 99  1  0
 32100  1  0
 33101  1  0
 33102  1  0
 34103  1  0
 34104  1  0
 38105  1  0
 38106  1  0
 39107  1  0
 39108  1  0
 41109  1  0
 41110  1  0
 41111  1  0
 42112  1  0
 42113  1  0
 43114  1  0
 43115  1  0
 46116  1  0
 49117  1  0
 49118  1  0
 49119  1  0
 52120  1  0
 52121  1  0
 52122  1  0
 53123  1  0
 54124  1  1
 55125  1  0
 55126  1  0
 57127  1  0
 60128  1  0
 60129  1  0
 60130  1  0
 63131  1  0
 63132  1  0
 63133  1  0
 64134  1  0
 65135  1  0
 66136  1  0
 66137  1  0
 67138  1  0
 67139  1  0
M  CHG  2  23   1  40   1
M  END
$$$$
