
     RDKit          3D

 57 60  0  0  0  0  0  0  0  0999 V2000
    0.6178    0.6249    0.9295 C   0  0  2  0  0  0  0  0  0  0  0  0
    1.5006    1.8033    1.3124 C   0  0  0  0  0  0  0  0  0  0  0  0
    2.9008    1.1725    1.4914 C   0  0  2  0  0  0  0  0  0  0  0  0
    4.0067    2.1456    1.0555 C   0  0  0  0  0  0  0  0  0  0  0  0
    2.8421   -0.2609    0.8119 C   0  0  2  0  0  0  0  0  0  0  0  0
    2.7125   -1.2046    1.8558 O   0  0  0  0  0  0  0  0  0  0  0  0
    4.0344   -0.6836   -0.0718 C   0  0  0  0  0  0  0  0  0  0  0  0
    4.6573    0.1404   -0.7235 O   0  0  0  0  0  0  0  0  0  0  0  0
    4.4051   -2.1369   -0.2465 C   0  0  0  0  0  0  0  0  0  0  0  0
    4.3053   -2.5010   -1.5968 O   0  0  0  0  0  0  0  0  0  0  0  0
    1.4980   -0.2237    0.0009 C   0  0  2  0  0  0  0  0  0  0  0  0
    1.7328    0.4454   -1.3977 C   0  0  0  0  0  0  0  0  0  0  0  0
    0.7997   -1.6000   -0.1871 C   0  0  0  0  0  0  0  0  0  0  0  0
   -0.6603   -1.4720   -0.7111 C   0  0  2  0  0  0  0  0  0  0  0  0
   -0.6560   -1.1182   -2.0679 O   0  0  0  0  0  0  0  0  0  0  0  0
   -1.5320   -0.4796    0.1452 C   0  0  1  0  0  0  0  0  0  0  0  0
   -1.6490   -1.0787    1.3966 F   0  0  0  0  0  0  0  0  0  0  0  0
   -0.7977    0.8980    0.3640 C   0  0  1  0  0  0  0  0  0  0  0  0
   -1.5976    1.7991    1.3317 C   0  0  0  0  0  0  0  0  0  0  0  0
   -3.0217    2.0360    0.8333 C   0  0  0  0  0  0  0  0  0  0  0  0
   -3.7024    0.7149    0.5793 C   0  0  0  0  0  0  0  0  0  0  0  0
   -4.8788    0.4540    1.1720 C   0  0  0  0  0  0  0  0  0  0  0  0
   -5.5403   -0.8373    0.9920 C   0  0  0  0  0  0  0  0  0  0  0  0
   -6.6524   -1.0615    1.5381 O   0  0  0  0  0  0  0  0  0  0  0  0
   -4.8950   -1.8713    0.1881 C   0  0  0  0  0  0  0  0  0  0  0  0
   -3.7306   -1.6323   -0.4162 C   0  0  0  0  0  0  0  0  0  0  0  0
   -3.0165   -0.2788   -0.3745 C   0  0  2  0  0  0  0  0  0  0  0  0
   -3.1154    0.3119   -1.8039 C   0  0  0  0  0  0  0  0  0  0  0  0
    0.4636    0.0589    1.8806 H   0  0  0  0  0  0  0  0  0  0  0  0
    1.1550    2.2745    2.2587 H   0  0  0  0  0  0  0  0  0  0  0  0
    1.4859    2.5695    0.5063 H   0  0  0  0  0  0  0  0  0  0  0  0
    3.0511    1.0372    2.5872 H   0  0  0  0  0  0  0  0  0  0  0  0
    5.0064    1.7049    1.2537 H   0  0  0  0  0  0  0  0  0  0  0  0
    3.9170    2.4212   -0.0145 H   0  0  0  0  0  0  0  0  0  0  0  0
    3.9323    3.0807    1.6510 H   0  0  0  0  0  0  0  0  0  0  0  0
    3.5607   -1.2036    2.3742 H   0  0  0  0  0  0  0  0  0  0  0  0
    5.4400   -2.3032    0.1293 H   0  0  0  0  0  0  0  0  0  0  0  0
    3.7318   -2.7989    0.3344 H   0  0  0  0  0  0  0  0  0  0  0  0
    5.1337   -2.1827   -2.0422 H   0  0  0  0  0  0  0  0  0  0  0  0
    0.8077    0.7455   -1.9161 H   0  0  0  0  0  0  0  0  0  0  0  0
    2.2617   -0.2572   -2.0761 H   0  0  0  0  0  0  0  0  0  0  0  0
    2.3472    1.3622   -1.3218 H   0  0  0  0  0  0  0  0  0  0  0  0
    0.7571   -2.1468    0.7794 H   0  0  0  0  0  0  0  0  0  0  0  0
    1.3931   -2.2347   -0.8803 H   0  0  0  0  0  0  0  0  0  0  0  0
   -1.1089   -2.4868   -0.6129 H   0  0  0  0  0  0  0  0  0  0  0  0
   -0.3650   -1.9188   -2.5781 H   0  0  0  0  0  0  0  0  0  0  0  0
   -0.7131    1.4536   -0.5877 H   0  0  0  0  0  0  0  0  0  0  0  0
   -1.6355    1.3407    2.3449 H   0  0  0  0  0  0  0  0  0  0  0  0
   -1.0981    2.7874    1.4254 H   0  0  0  0  0  0  0  0  0  0  0  0
   -3.5655    2.6424    1.5909 H   0  0  0  0  0  0  0  0  0  0  0  0
   -2.9981    2.6288   -0.1057 H   0  0  0  0  0  0  0  0  0  0  0  0
   -5.3466    1.1879    1.8177 H   0  0  0  0  0  0  0  0  0  0  0  0
   -5.3690   -2.8389    0.0781 H   0  0  0  0  0  0  0  0  0  0  0  0
   -3.3226   -2.4208   -1.0352 H   0  0  0  0  0  0  0  0  0  0  0  0
   -4.1536    0.6590   -2.0005 H   0  0  0  0  0  0  0  0  0  0  0  0
   -2.8946   -0.4448   -2.5846 H   0  0  0  0  0  0  0  0  0  0  0  0
   -2.4412    1.1771   -1.9534 H   0  0  0  0  0  0  0  0  0  0  0  0
  1  2  1  0
  2  3  1  0
  3  4  1  0
  3  5  1  0
  5  6  1  1
  5  7  1  0
  7  8  2  0
  7  9  1  0
  9 10  1  0
  5 11  1  0
 11 12  1  6
 11 13  1  0
 13 14  1  0
 14 15  1  0
 14 16  1  0
 16 17  1  1
 16 18  1  0
 18 19  1  0
 19 20  1  0
 20 21  1  0
 21 22  2  0
 22 23  1  0
 23 24  2  0
 23 25  1  0
 25 26  2  0
 26 27  1  0
 27 28  1  6
 11  1  1  0
 27 16  1  0
 18  1  1  0
 27 21  1  0
  1 29  1  1
  2 30  1  0
  2 31  1  0
  3 32  1  1
  4 33  1  0
  4 34  1  0
  4 35  1  0
  6 36  1  0
  9 37  1  0
  9 38  1  0
 10 39  1  0
 12 40  1  0
 12 41  1  0
 12 42  1  0
 13 43  1  0
 13 44  1  0
 14 45  1  6
 15 46  1  0
 18 47  1  6
 19 48  1  0
 19 49  1  0
 20 50  1  0
 20 51  1  0
 22 52  1  0
 25 53  1  0
 26 54  1  0
 28 55  1  0
 28 56  1  0
 28 57  1  0
M  END
$$$$
