
     RDKit          3D

 54 58  0  0  0  0  0  0  0  0999 V2000
    7.4677    2.3863    0.0490 C   0  0  0  0  0  0  0  0  0  0  0  0
    6.0474    2.1976   -0.2847 N   0  0  0  0  0  0  0  0  0  0  0  0
    5.8017    0.8560   -0.8715 C   0  0  0  0  0  0  0  0  0  0  0  0
    5.2295   -0.1376    0.1544 C   0  0  0  0  0  0  0  0  0  0  0  0
    3.9685    0.3441    0.7628 N   0  0  0  0  0  0  0  0  0  0  0  0
    3.8294    1.8161    0.7717 C   0  0  0  0  0  0  0  0  0  0  0  0
    5.1956    2.4998    0.8889 C   0  0  0  0  0  0  0  0  0  0  0  0
    2.8755   -0.2102    0.0675 N   0  0  0  0  0  0  0  0  0  0  0  0
    1.9056   -1.0015    0.7581 C   0  0  0  0  0  0  0  0  0  0  0  0
    2.0305   -1.2025    1.9967 O   0  0  0  0  0  0  0  0  0  0  0  0
    0.7784   -1.5294    0.0440 N   0  0  0  0  0  0  0  0  0  0  0  0
   -0.1518   -2.4703    0.6049 C   0  0  0  0  0  0  0  0  0  0  0  0
    0.2760   -3.5227    1.4463 C   0  0  0  0  0  0  0  0  0  0  0  0
   -0.6515   -4.4411    1.9802 C   0  0  0  0  0  0  0  0  0  0  0  0
   -2.0169   -4.3376    1.6722 C   0  0  0  0  0  0  0  0  0  0  0  0
   -2.4184   -3.3244    0.8067 C   0  0  0  0  0  0  0  0  0  0  0  0
   -1.5154   -2.4078    0.2864 C   0  0  0  0  0  0  0  0  0  0  0  0
   -2.2789   -1.3995   -0.4612 C   0  0  0  0  0  0  0  0  0  0  0  0
   -1.8451   -0.3059   -0.9082 O   0  0  0  0  0  0  0  0  0  0  0  0
   -3.6760   -1.8259   -0.4076 C   0  0  0  0  0  0  0  0  0  0  0  0
   -4.8395   -1.1304   -0.1500 C   0  0  0  0  0  0  0  0  0  0  0  0
   -5.5612   -1.8498    0.7400 N   0  0  0  0  0  0  0  0  0  0  0  0
   -4.8836   -2.9322    1.1040 N   0  0  0  0  0  0  0  0  0  0  0  0
   -3.7568   -2.9440    0.3694 C   0  0  0  0  0  0  0  0  0  0  0  0
   -5.1570    0.2511   -0.5474 C   0  0  0  0  0  0  0  0  0  0  0  0
   -4.9324    0.8568   -1.7903 C   0  0  0  0  0  0  0  0  0  0  0  0
   -4.3285    0.1707   -2.9765 C   0  0  0  0  0  0  0  0  0  0  0  0
   -5.3465    2.1508   -1.8712 N   0  0  0  0  0  0  0  0  0  0  0  0
   -5.9000    2.5816   -0.7169 C   0  0  0  0  0  0  0  0  0  0  0  0
   -6.5069    3.9324   -0.5501 C   0  0  0  0  0  0  0  0  0  0  0  0
   -5.9337    1.3673    0.4443 S   0  0  0  0  0  0  0  0  0  0  0  0
    7.6297    3.3952    0.4869 H   0  0  0  0  0  0  0  0  0  0  0  0
    7.8132    1.6149    0.7726 H   0  0  0  0  0  0  0  0  0  0  0  0
    8.0856    2.3243   -0.8723 H   0  0  0  0  0  0  0  0  0  0  0  0
    5.0734    0.9650   -1.7034 H   0  0  0  0  0  0  0  0  0  0  0  0
    6.7242    0.4251   -1.3222 H   0  0  0  0  0  0  0  0  0  0  0  0
    5.9774   -0.2861    0.9625 H   0  0  0  0  0  0  0  0  0  0  0  0
    5.0880   -1.1305   -0.3294 H   0  0  0  0  0  0  0  0  0  0  0  0
    3.3298    2.1837   -0.1542 H   0  0  0  0  0  0  0  0  0  0  0  0
    3.1993    2.1109    1.6379 H   0  0  0  0  0  0  0  0  0  0  0  0
    5.6753    2.1641    1.8375 H   0  0  0  0  0  0  0  0  0  0  0  0
    5.0447    3.5990    0.9519 H   0  0  0  0  0  0  0  0  0  0  0  0
    2.7585   -0.0344   -0.9574 H   0  0  0  0  0  0  0  0  0  0  0  0
    0.5972   -1.1652   -0.9179 H   0  0  0  0  0  0  0  0  0  0  0  0
    1.3248   -3.6450    1.6820 H   0  0  0  0  0  0  0  0  0  0  0  0
   -0.3079   -5.2328    2.6332 H   0  0  0  0  0  0  0  0  0  0  0  0
   -2.7355   -5.0295    2.0919 H   0  0  0  0  0  0  0  0  0  0  0  0
   -6.4672   -1.5616    1.1717 H   0  0  0  0  0  0  0  0  0  0  0  0
   -4.7754    0.5745   -3.9092 H   0  0  0  0  0  0  0  0  0  0  0  0
   -4.5240   -0.9212   -2.9477 H   0  0  0  0  0  0  0  0  0  0  0  0
   -3.2358    0.3549   -3.0016 H   0  0  0  0  0  0  0  0  0  0  0  0
   -6.3999    4.2684    0.5024 H   0  0  0  0  0  0  0  0  0  0  0  0
   -7.5840    3.8883   -0.8132 H   0  0  0  0  0  0  0  0  0  0  0  0
   -5.9972    4.6620   -1.2138 H   0  0  0  0  0  0  0  0  0  0  0  0
  1  2  1  0
  2  3  1  0
  3  4  1  0
  4  5  1  0
  5  6  1  0
  6  7  1  0
  5  8  1  0
  8  9  1  0
  9 10  2  0
  9 11  1  0
 11 12  1  0
 12 13  2  0
 13 14  1  0
 14 15  2  0
 15 16  1  0
 16 17  2  0
 17 18  1  0
 18 19  2  0
 18 20  1  0
 20 21  2  0
 21 22  1  0
 22 23  1  0
 23 24  2  0
 21 25  1  0
 25 26  2  0
 26 27  1  0
 26 28  1  0
 28 29  2  0
 29 30  1  0
 29 31  1  0
  7  2  1  0
 17 12  1  0
 24 20  1  0
 31 25  1  0
 24 16  1  0
  1 32  1  0
  1 33  1  0
  1 34  1  0
  3 35  1  0
  3 36  1  0
  4 37  1  0
  4 38  1  0
  6 39  1  0
  6 40  1  0
  7 41  1  0
  7 42  1  0
  8 43  1  0
 11 44  1  0
 13 45  1  0
 14 46  1  0
 15 47  1  0
 22 48  1  0
 27 49  1  0
 27 50  1  0
 27 51  1  0
 30 52  1  0
 30 53  1  0
 30 54  1  0
M  END
$$$$
