
     RDKit          3D

 31 32  0  0  0  0  0  0  0  0999 V2000
    2.9031    2.7523    0.1138 N   0  0  0  0  0  0  0  0  0  0  0  0
    2.8722    1.3308    0.2386 C   0  0  0  0  0  0  0  0  0  0  0  0
    1.6908    0.7048    0.5311 N   0  0  0  0  0  0  0  0  0  0  0  0
    1.6955   -0.6446    0.6449 C   0  0  0  0  0  0  0  0  0  0  0  0
    2.8094   -1.3883    0.4708 C   0  0  0  0  0  0  0  0  0  0  0  0
    2.5292   -2.6996    0.6006 N   0  0  0  0  0  0  0  0  0  0  0  0
    1.1920   -2.6949    0.8624 C   0  0  0  0  0  0  0  0  0  0  0  0
    0.6586   -1.4473    0.9060 N   0  0  0  0  0  0  0  0  0  0  0  0
   -0.7415   -1.0762    1.0700 C   0  0  0  0  0  0  0  0  0  0  0  0
   -1.2921   -0.7905   -0.1989 O   0  0  0  0  0  0  0  0  0  0  0  0
   -2.5767   -0.2027   -0.0748 C   0  0  0  0  0  0  0  0  0  0  0  0
   -3.4702   -0.7577   -1.1942 C   0  0  0  0  0  0  0  0  0  0  0  0
   -4.7919   -0.3094   -1.0470 O   0  0  0  0  0  0  0  0  0  0  0  0
   -2.4501    1.3279   -0.1609 C   0  0  0  0  0  0  0  0  0  0  0  0
   -1.8274    1.7003   -1.3601 O   0  0  0  0  0  0  0  0  0  0  0  0
    4.0135   -0.7686    0.1712 C   0  0  0  0  0  0  0  0  0  0  0  0
    5.0669   -1.4383    0.0002 O   0  0  0  0  0  0  0  0  0  0  0  0
    4.0228    0.5956    0.0629 N   0  0  0  0  0  0  0  0  0  0  0  0
    3.7939    3.2491   -0.1094 H   0  0  0  0  0  0  0  0  0  0  0  0
    2.0310    3.3115    0.2441 H   0  0  0  0  0  0  0  0  0  0  0  0
    0.6143   -3.5987    1.0074 H   0  0  0  0  0  0  0  0  0  0  0  0
   -1.2933   -1.9201    1.5421 H   0  0  0  0  0  0  0  0  0  0  0  0
   -0.7953   -0.1936    1.7476 H   0  0  0  0  0  0  0  0  0  0  0  0
   -3.0782   -0.4599    0.8909 H   0  0  0  0  0  0  0  0  0  0  0  0
   -3.0615   -0.4911   -2.1969 H   0  0  0  0  0  0  0  0  0  0  0  0
   -3.4737   -1.8667   -1.1280 H   0  0  0  0  0  0  0  0  0  0  0  0
   -4.8844    0.5068   -1.6042 H   0  0  0  0  0  0  0  0  0  0  0  0
   -1.8465    1.6946    0.6985 H   0  0  0  0  0  0  0  0  0  0  0  0
   -3.4557    1.7988   -0.0923 H   0  0  0  0  0  0  0  0  0  0  0  0
   -1.7735    2.6911   -1.3464 H   0  0  0  0  0  0  0  0  0  0  0  0
    4.9188    1.0848   -0.1616 H   0  0  0  0  0  0  0  0  0  0  0  0
  1  2  1  0
  2  3  2  0
  3  4  1  0
  4  5  2  0
  5  6  1  0
  6  7  2  0
  7  8  1  0
  8  9  1  0
  9 10  1  0
 10 11  1  0
 11 12  1  0
 12 13  1  0
 11 14  1  0
 14 15  1  0
  5 16  1  0
 16 17  2  0
 16 18  1  0
 18  2  1  0
  8  4  1  0
  1 19  1  0
  1 20  1  0
  7 21  1  0
  9 22  1  0
  9 23  1  0
 11 24  1  0
 12 25  1  0
 12 26  1  0
 13 27  1  0
 14 28  1  0
 14 29  1  0
 15 30  1  0
 18 31  1  0
M  END
$$$$
