
     RDKit          3D

 31 32  0  0  0  0  0  0  0  0999 V2000
   -1.5268    0.8602    1.0188 C   0  0  1  0  0  0  0  0  0  0  0  0
   -1.9703    1.2734    2.4325 C   0  0  0  0  0  0  0  0  0  0  0  0
   -3.2504    1.8465    2.4187 O   0  0  0  0  0  0  0  0  0  0  0  0
   -0.1644    0.4738    1.0877 O   0  0  0  0  0  0  0  0  0  0  0  0
    0.3534    0.2296   -0.2076 C   0  0  1  0  0  0  0  0  0  0  0  0
    1.8265   -0.0207   -0.0931 C   0  0  0  0  0  0  0  0  0  0  0  0
    2.3933   -0.8118    0.8390 N   0  0  0  0  0  0  0  0  0  0  0  0
    3.6945   -0.7979    0.5956 N   0  0  0  0  0  0  0  0  0  0  0  0
    3.8686    0.0015   -0.4737 C   0  0  0  0  0  0  0  0  0  0  0  0
    5.1895    0.2759   -1.1067 C   0  0  0  0  0  0  0  0  0  0  0  0
    2.7263    0.4765   -0.9073 O   0  0  0  0  0  0  0  0  0  0  0  0
   -0.3407   -0.9902   -0.8446 C   0  0  2  0  0  0  0  0  0  0  0  0
    0.1610   -1.1893   -2.1424 O   0  0  0  0  0  0  0  0  0  0  0  0
   -1.8595   -0.7451   -0.9037 C   0  0  1  0  0  0  0  0  0  0  0  0
   -2.5198   -1.9206   -1.2986 O   0  0  0  0  0  0  0  0  0  0  0  0
   -2.3854   -0.3082    0.4753 C   0  0  2  0  0  0  0  0  0  0  0  0
   -3.7251    0.0983    0.3567 O   0  0  0  0  0  0  0  0  0  0  0  0
   -1.6414    1.7522    0.3581 H   0  0  0  0  0  0  0  0  0  0  0  0
   -1.2385    1.9980    2.8579 H   0  0  0  0  0  0  0  0  0  0  0  0
   -1.9807    0.3854    3.1001 H   0  0  0  0  0  0  0  0  0  0  0  0
   -3.1489    2.7609    2.0455 H   0  0  0  0  0  0  0  0  0  0  0  0
    0.2178    1.1258   -0.8579 H   0  0  0  0  0  0  0  0  0  0  0  0
    5.1467    1.2315   -1.6698 H   0  0  0  0  0  0  0  0  0  0  0  0
    5.4433   -0.5489   -1.8042 H   0  0  0  0  0  0  0  0  0  0  0  0
    5.9744    0.3514   -0.3253 H   0  0  0  0  0  0  0  0  0  0  0  0
   -0.1397   -1.8867   -0.2088 H   0  0  0  0  0  0  0  0  0  0  0  0
    0.0304   -2.1492   -2.3588 H   0  0  0  0  0  0  0  0  0  0  0  0
   -2.0687    0.0750   -1.6331 H   0  0  0  0  0  0  0  0  0  0  0  0
   -2.4825   -1.9548   -2.2901 H   0  0  0  0  0  0  0  0  0  0  0  0
   -2.3051   -1.1663    1.1855 H   0  0  0  0  0  0  0  0  0  0  0  0
   -4.2779   -0.7263    0.3545 H   0  0  0  0  0  0  0  0  0  0  0  0
  1  2  1  0
  2  3  1  0
  1  4  1  0
  4  5  1  0
  5  6  1  0
  6  7  2  0
  7  8  1  0
  8  9  2  0
  9 10  1  0
  9 11  1  0
  5 12  1  0
 12 13  1  0
 12 14  1  0
 14 15  1  0
 14 16  1  0
 16 17  1  0
 16  1  1  0
 11  6  1  0
  1 18  1  6
  2 19  1  0
  2 20  1  0
  3 21  1  0
  5 22  1  6
 10 23  1  0
 10 24  1  0
 10 25  1  0
 12 26  1  1
 13 27  1  0
 14 28  1  6
 15 29  1  0
 16 30  1  1
 17 31  1  0
M  END
$$$$
