
     RDKit          3D

 39 38  0  0  0  0  0  0  0  0999 V2000
    5.5344   -1.3651    0.8339 C   0  0  0  0  0  0  0  0  0  0  0  0
    4.3556   -0.4610    1.1826 C   0  0  0  0  0  0  0  0  0  0  0  0
    4.1511    0.6195    0.1109 C   0  0  0  0  0  0  0  0  0  0  0  0
    3.0961    1.6678    0.5088 C   0  0  0  0  0  0  0  0  0  0  0  0
    1.6780    1.1129    0.7366 C   0  0  0  0  0  0  0  0  0  0  0  0
    1.0750    0.4744   -0.5267 C   0  0  0  0  0  0  0  0  0  0  0  0
   -0.3885    0.0457   -0.3281 C   0  0  0  0  0  0  0  0  0  0  0  0
   -1.3680    1.2278   -0.4345 C   0  0  0  0  0  0  0  0  0  0  0  0
   -2.8239    0.8122   -0.1687 C   0  0  0  0  0  0  0  0  0  0  0  0
   -3.4065   -0.0619   -1.2934 C   0  0  0  0  0  0  0  0  0  0  0  0
   -4.9306   -0.2367   -1.1778 C   0  0  0  0  0  0  0  0  0  0  0  0
   -5.3608   -1.0641    0.0379 C   0  0  0  0  0  0  0  0  0  0  0  0
   -4.7988   -2.3459   -0.0232 O   0  0  0  0  0  0  0  0  0  0  0  0
    5.3607   -1.8652   -0.1428 H   0  0  0  0  0  0  0  0  0  0  0  0
    6.4732   -0.7736    0.7819 H   0  0  0  0  0  0  0  0  0  0  0  0
    5.6496   -2.1443    1.6166 H   0  0  0  0  0  0  0  0  0  0  0  0
    3.4455   -1.0923    1.2635 H   0  0  0  0  0  0  0  0  0  0  0  0
    4.5475    0.0159    2.1684 H   0  0  0  0  0  0  0  0  0  0  0  0
    3.8821    0.1489   -0.8583 H   0  0  0  0  0  0  0  0  0  0  0  0
    5.1128    1.1556   -0.0458 H   0  0  0  0  0  0  0  0  0  0  0  0
    3.4301    2.1756    1.4399 H   0  0  0  0  0  0  0  0  0  0  0  0
    3.0536    2.4453   -0.2850 H   0  0  0  0  0  0  0  0  0  0  0  0
    1.0429    1.9629    1.0612 H   0  0  0  0  0  0  0  0  0  0  0  0
    1.6816    0.3782    1.5692 H   0  0  0  0  0  0  0  0  0  0  0  0
    1.1522    1.1748   -1.3871 H   0  0  0  0  0  0  0  0  0  0  0  0
    1.6577   -0.4370   -0.7786 H   0  0  0  0  0  0  0  0  0  0  0  0
   -0.6319   -0.6939   -1.1201 H   0  0  0  0  0  0  0  0  0  0  0  0
   -0.5041   -0.4626    0.6544 H   0  0  0  0  0  0  0  0  0  0  0  0
   -1.2886    1.6960   -1.4401 H   0  0  0  0  0  0  0  0  0  0  0  0
   -1.0992    2.0007    0.3151 H   0  0  0  0  0  0  0  0  0  0  0  0
   -2.8793    0.2750    0.8022 H   0  0  0  0  0  0  0  0  0  0  0  0
   -3.4322    1.7388   -0.0786 H   0  0  0  0  0  0  0  0  0  0  0  0
   -3.1937    0.4186   -2.2733 H   0  0  0  0  0  0  0  0  0  0  0  0
   -2.9191   -1.0597   -1.2959 H   0  0  0  0  0  0  0  0  0  0  0  0
   -5.2988   -0.7433   -2.0965 H   0  0  0  0  0  0  0  0  0  0  0  0
   -5.4194    0.7608   -1.1332 H   0  0  0  0  0  0  0  0  0  0  0  0
   -6.4705   -1.1471    0.0350 H   0  0  0  0  0  0  0  0  0  0  0  0
   -5.0576   -0.5552    0.9787 H   0  0  0  0  0  0  0  0  0  0  0  0
   -5.1084   -2.8211    0.7912 H   0  0  0  0  0  0  0  0  0  0  0  0
  1  2  1  0
  2  3  1  0
  3  4  1  0
  4  5  1  0
  5  6  1  0
  6  7  1  0
  7  8  1  0
  8  9  1  0
  9 10  1  0
 10 11  1  0
 11 12  1  0
 12 13  1  0
  1 14  1  0
  1 15  1  0
  1 16  1  0
  2 17  1  0
  2 18  1  0
  3 19  1  0
  3 20  1  0
  4 21  1  0
  4 22  1  0
  5 23  1  0
  5 24  1  0
  6 25  1  0
  6 26  1  0
  7 27  1  0
  7 28  1  0
  8 29  1  0
  8 30  1  0
  9 31  1  0
  9 32  1  0
 10 33  1  0
 10 34  1  0
 11 35  1  0
 11 36  1  0
 12 37  1  0
 12 38  1  0
 13 39  1  0
M  END
$$$$
