
     RDKit          3D

 52 56  0  0  0  0  0  0  0  0999 V2000
    1.9384    2.1999    1.4550 N   0  0  0  0  0  0  0  0  0  0  0  0
    2.3493    0.8047    1.6389 C   0  0  2  0  0  0  0  0  0  0  0  0
    1.5052    0.1201    2.7347 C   0  0  0  0  0  0  0  0  0  0  0  0
    0.1220    0.0975    2.3791 O   0  0  0  0  0  0  0  0  0  0  0  0
   -0.4569   -0.7375    1.4092 C   0  0  0  0  0  0  0  0  0  0  0  0
    0.2481   -1.7710    0.7674 C   0  0  0  0  0  0  0  0  0  0  0  0
   -0.3717   -2.5440   -0.1618 N   0  0  0  0  0  0  0  0  0  0  0  0
   -1.6739   -2.3576   -0.5003 C   0  0  0  0  0  0  0  0  0  0  0  0
   -2.4271   -1.3426    0.1113 C   0  0  0  0  0  0  0  0  0  0  0  0
   -1.7987   -0.5356    1.0741 C   0  0  0  0  0  0  0  0  0  0  0  0
   -3.8513   -1.1272   -0.2512 C   0  0  0  0  0  0  0  0  0  0  0  0
   -4.3632    0.1766   -0.3892 C   0  0  0  0  0  0  0  0  0  0  0  0
   -5.7084    0.3813   -0.7311 C   0  0  0  0  0  0  0  0  0  0  0  0
   -6.5555   -0.7293   -0.9381 C   0  0  0  0  0  0  0  0  0  0  0  0
   -6.0479   -2.0274   -0.8015 C   0  0  0  0  0  0  0  0  0  0  0  0
   -4.7070   -2.2242   -0.4615 C   0  0  0  0  0  0  0  0  0  0  0  0
   -7.8972   -0.5082   -1.2792 C   0  0  0  0  0  0  0  0  0  0  0  0
   -8.3670    0.7613   -1.4079 N   0  0  0  0  0  0  0  0  0  0  0  0
   -7.5688    1.8447   -1.2144 C   0  0  0  0  0  0  0  0  0  0  0  0
   -6.2249    1.6764   -0.8729 C   0  0  0  0  0  0  0  0  0  0  0  0
    3.8477    0.7277    1.9918 C   0  0  0  0  0  0  0  0  0  0  0  0
    4.7698    1.4378    0.9776 C   0  0  0  0  0  0  0  0  0  0  0  0
    6.2036    1.3498    1.4512 C   0  0  0  0  0  0  0  0  0  0  0  0
    6.9878    0.6848    0.6596 N   0  0  0  0  0  0  0  0  0  0  0  0
    6.1983    0.2801   -0.4425 C   0  0  0  0  0  0  0  0  0  0  0  0
    6.6490   -0.3841   -1.5822 C   0  0  0  0  0  0  0  0  0  0  0  0
    5.7373   -0.5992   -2.6289 C   0  0  0  0  0  0  0  0  0  0  0  0
    4.4149   -0.1222   -2.5277 C   0  0  0  0  0  0  0  0  0  0  0  0
    3.9925    0.5575   -1.3725 C   0  0  0  0  0  0  0  0  0  0  0  0
    4.9026    0.7109   -0.3225 C   0  0  0  0  0  0  0  0  0  0  0  0
    0.9523    2.2209    1.1074 H   0  0  0  0  0  0  0  0  0  0  0  0
    1.9609    2.6950    2.3764 H   0  0  0  0  0  0  0  0  0  0  0  0
    2.1862    0.2560    0.6910 H   0  0  0  0  0  0  0  0  0  0  0  0
    1.6096    0.6853    3.6854 H   0  0  0  0  0  0  0  0  0  0  0  0
    1.8659   -0.9118    2.9341 H   0  0  0  0  0  0  0  0  0  0  0  0
    1.2838   -1.9726    0.9974 H   0  0  0  0  0  0  0  0  0  0  0  0
   -2.1137   -2.9917   -1.2589 H   0  0  0  0  0  0  0  0  0  0  0  0
   -2.3527    0.2459    1.5795 H   0  0  0  0  0  0  0  0  0  0  0  0
   -3.7115    1.0313   -0.2485 H   0  0  0  0  0  0  0  0  0  0  0  0
   -6.6875   -2.8887   -0.9540 H   0  0  0  0  0  0  0  0  0  0  0  0
   -4.3426   -3.2372   -0.3451 H   0  0  0  0  0  0  0  0  0  0  0  0
   -8.5703   -1.3404   -1.4435 H   0  0  0  0  0  0  0  0  0  0  0  0
   -7.9782    2.8398   -1.3260 H   0  0  0  0  0  0  0  0  0  0  0  0
   -5.5983    2.5471   -0.7209 H   0  0  0  0  0  0  0  0  0  0  0  0
    3.9997    1.1956    2.9902 H   0  0  0  0  0  0  0  0  0  0  0  0
    4.1468   -0.3415    2.0774 H   0  0  0  0  0  0  0  0  0  0  0  0
    4.4870    2.5002    0.8186 H   0  0  0  0  0  0  0  0  0  0  0  0
    6.5582    1.7818    2.3778 H   0  0  0  0  0  0  0  0  0  0  0  0
    7.6776   -0.7098   -1.6660 H   0  0  0  0  0  0  0  0  0  0  0  0
    6.0585   -1.1113   -3.5265 H   0  0  0  0  0  0  0  0  0  0  0  0
    3.7265   -0.2642   -3.3507 H   0  0  0  0  0  0  0  0  0  0  0  0
    2.9946    0.9695   -1.3167 H   0  0  0  0  0  0  0  0  0  0  0  0
  1  2  1  0
  2  3  1  0
  3  4  1  0
  4  5  1  0
  5  6  2  0
  6  7  1  0
  7  8  2  0
  8  9  1  0
  9 10  2  0
  9 11  1  0
 11 12  2  0
 12 13  1  0
 13 14  2  0
 14 15  1  0
 15 16  2  0
 14 17  1  0
 17 18  2  0
 18 19  1  0
 19 20  2  0
  2 21  1  0
 21 22  1  0
 22 23  1  0
 23 24  2  0
 24 25  1  0
 25 26  2  0
 26 27  1  0
 27 28  2  0
 28 29  1  0
 29 30  2  0
 10  5  1  0
 16 11  1  0
 30 22  1  0
 20 13  1  0
 30 25  1  0
  1 31  1  0
  1 32  1  0
  2 33  1  6
  3 34  1  0
  3 35  1  0
  6 36  1  0
  8 37  1  0
 10 38  1  0
 12 39  1  0
 15 40  1  0
 16 41  1  0
 17 42  1  0
 19 43  1  0
 20 44  1  0
 21 45  1  0
 21 46  1  0
 22 47  1  0
 23 48  1  0
 26 49  1  0
 27 50  1  0
 28 51  1  0
 29 52  1  0
M  END
$$$$
