
     RDKit          3D

 73 77  0  0  0  0  0  0  0  0999 V2000
    1.8843   -2.5619   -0.3067 C   0  0  0  0  0  0  0  0  0  0  0  0
    2.7083   -1.3089   -0.0139 C   0  0  2  0  0  0  0  0  0  0  0  0
    2.9715   -0.6422   -1.2337 O   0  0  0  0  0  0  0  0  0  0  0  0
    3.4489    0.6822   -1.0061 C   0  0  1  0  0  0  0  0  0  0  0  0
    2.3835    1.5459   -0.6517 O   0  0  0  0  0  0  0  0  0  0  0  0
    1.4858    1.7087   -1.7332 C   0  0  0  0  0  0  0  0  0  0  0  0
    0.1862    2.3429   -1.2230 C   0  0  1  0  0  0  0  0  0  0  0  0
   -0.2459    1.6011   -0.0955 O   0  0  0  0  0  0  0  0  0  0  0  0
   -1.5331    2.0166    0.3221 C   0  0  1  0  0  0  0  0  0  0  0  0
   -1.9548    1.1888    1.4062 O   0  0  0  0  0  0  0  0  0  0  0  0
   -1.8379   -0.2073    1.3802 C   0  0  0  0  0  0  0  0  0  0  0  0
   -2.5502   -1.0005    0.4609 C   0  0  0  0  0  0  0  0  0  0  0  0
   -2.3127   -2.3053    0.3985 O   0  0  0  0  0  0  0  0  0  0  0  0
   -1.4687   -2.9344    1.2081 C   0  0  0  0  0  0  0  0  0  0  0  0
   -1.2741   -4.3067    1.0350 C   0  0  0  0  0  0  0  0  0  0  0  0
   -0.3946   -5.0052    1.8585 C   0  0  0  0  0  0  0  0  0  0  0  0
   -0.1994   -6.3694    1.6547 O   0  0  0  0  0  0  0  0  0  0  0  0
    0.2768   -4.3348    2.8842 C   0  0  0  0  0  0  0  0  0  0  0  0
    0.0795   -2.9657    3.1021 C   0  0  0  0  0  0  0  0  0  0  0  0
    0.7351   -2.4085    4.2039 O   0  0  0  0  0  0  0  0  0  0  0  0
   -0.7758   -2.2305    2.2276 C   0  0  0  0  0  0  0  0  0  0  0  0
   -0.9536   -0.8276    2.2698 C   0  0  0  0  0  0  0  0  0  0  0  0
   -0.2947   -0.1016    3.0593 O   0  0  0  0  0  0  0  0  0  0  0  0
   -3.5669   -0.4337   -0.4491 C   0  0  0  0  0  0  0  0  0  0  0  0
   -3.5952   -0.8323   -1.7943 C   0  0  0  0  0  0  0  0  0  0  0  0
   -4.5549   -0.3074   -2.6721 C   0  0  0  0  0  0  0  0  0  0  0  0
   -4.5666   -0.6963   -4.0106 O   0  0  0  0  0  0  0  0  0  0  0  0
   -5.5053    0.6130   -2.1980 C   0  0  0  0  0  0  0  0  0  0  0  0
   -6.4702    1.1551   -3.0463 O   0  0  0  0  0  0  0  0  0  0  0  0
   -5.4915    0.9942   -0.8526 C   0  0  0  0  0  0  0  0  0  0  0  0
   -4.5352    0.4699    0.0202 C   0  0  0  0  0  0  0  0  0  0  0  0
   -1.4905    3.4772    0.8107 C   0  0  2  0  0  0  0  0  0  0  0  0
   -2.7651    3.9023    1.2262 O   0  0  0  0  0  0  0  0  0  0  0  0
   -0.9339    4.3986   -0.2934 C   0  0  1  0  0  0  0  0  0  0  0  0
   -0.7051    5.6835    0.2250 O   0  0  0  0  0  0  0  0  0  0  0  0
    0.3861    3.8276   -0.8420 C   0  0  2  0  0  0  0  0  0  0  0  0
    0.7804    4.5586   -1.9754 O   0  0  0  0  0  0  0  0  0  0  0  0
    4.5415    0.7445    0.0993 C   0  0  2  0  0  0  0  0  0  0  0  0
    5.5397    1.6627   -0.2673 O   0  0  0  0  0  0  0  0  0  0  0  0
    5.1526   -0.6474    0.3413 C   0  0  2  0  0  0  0  0  0  0  0  0
    5.8364   -1.0600   -0.8159 O   0  0  0  0  0  0  0  0  0  0  0  0
    4.0393   -1.6684    0.6952 C   0  0  1  0  0  0  0  0  0  0  0  0
    3.8234   -1.6837    2.0837 O   0  0  0  0  0  0  0  0  0  0  0  0
    1.7188   -3.1383    0.6262 H   0  0  0  0  0  0  0  0  0  0  0  0
    2.4088   -3.2090   -1.0418 H   0  0  0  0  0  0  0  0  0  0  0  0
    0.8973   -2.2727   -0.7267 H   0  0  0  0  0  0  0  0  0  0  0  0
    2.0855   -0.6650    0.6531 H   0  0  0  0  0  0  0  0  0  0  0  0
    3.9167    1.0295   -1.9571 H   0  0  0  0  0  0  0  0  0  0  0  0
    1.2113    0.7309   -2.1914 H   0  0  0  0  0  0  0  0  0  0  0  0
    1.9445    2.3441   -2.5228 H   0  0  0  0  0  0  0  0  0  0  0  0
   -0.5605    2.2715   -2.0495 H   0  0  0  0  0  0  0  0  0  0  0  0
   -2.2602    1.9207   -0.5143 H   0  0  0  0  0  0  0  0  0  0  0  0
   -1.8019   -4.8308    0.2476 H   0  0  0  0  0  0  0  0  0  0  0  0
    0.4323   -6.9072    2.2367 H   0  0  0  0  0  0  0  0  0  0  0  0
    0.9424   -4.8867    3.5363 H   0  0  0  0  0  0  0  0  0  0  0  0
    0.4840   -1.5355    4.6421 H   0  0  0  0  0  0  0  0  0  0  0  0
   -2.8616   -1.5381   -2.1654 H   0  0  0  0  0  0  0  0  0  0  0  0
   -3.8919   -1.3577   -4.3771 H   0  0  0  0  0  0  0  0  0  0  0  0
   -6.5221    0.9105   -4.0279 H   0  0  0  0  0  0  0  0  0  0  0  0
   -6.2270    1.6966   -0.4816 H   0  0  0  0  0  0  0  0  0  0  0  0
   -4.5535    0.7670    1.0612 H   0  0  0  0  0  0  0  0  0  0  0  0
   -0.8086    3.5285    1.6886 H   0  0  0  0  0  0  0  0  0  0  0  0
   -3.3752    3.8341    0.4455 H   0  0  0  0  0  0  0  0  0  0  0  0
   -1.6661    4.4534   -1.1348 H   0  0  0  0  0  0  0  0  0  0  0  0
   -1.5867    6.1380    0.2665 H   0  0  0  0  0  0  0  0  0  0  0  0
    1.1717    3.8905   -0.0509 H   0  0  0  0  0  0  0  0  0  0  0  0
    1.2164    5.3875   -1.6462 H   0  0  0  0  0  0  0  0  0  0  0  0
    4.0673    1.0799    1.0532 H   0  0  0  0  0  0  0  0  0  0  0  0
    6.0601    1.8646    0.5539 H   0  0  0  0  0  0  0  0  0  0  0  0
    5.8762   -0.5711    1.1873 H   0  0  0  0  0  0  0  0  0  0  0  0
    6.4560   -1.7853   -0.5402 H   0  0  0  0  0  0  0  0  0  0  0  0
    4.3739   -2.6817    0.3660 H   0  0  0  0  0  0  0  0  0  0  0  0
    4.5689   -2.2014    2.4863 H   0  0  0  0  0  0  0  0  0  0  0  0
  1  2  1  0
  2  3  1  0
  3  4  1  0
  4  5  1  0
  5  6  1  0
  6  7  1  0
  7  8  1  0
  8  9  1  0
  9 10  1  0
 10 11  1  0
 11 12  2  0
 12 13  1  0
 13 14  1  0
 14 15  2  0
 15 16  1  0
 16 17  1  0
 16 18  2  0
 18 19  1  0
 19 20  1  0
 19 21  2  0
 21 22  1  0
 22 23  2  0
 12 24  1  0
 24 25  2  0
 25 26  1  0
 26 27  1  0
 26 28  2  0
 28 29  1  0
 28 30  1  0
 30 31  2  0
  9 32  1  0
 32 33  1  0
 32 34  1  0
 34 35  1  0
 34 36  1  0
 36 37  1  0
  4 38  1  0
 38 39  1  0
 38 40  1  0
 40 41  1  0
 40 42  1  0
 42 43  1  0
 42  2  1  0
 36  7  1  0
 22 11  1  0
 31 24  1  0
 21 14  1  0
  1 44  1  0
  1 45  1  0
  1 46  1  0
  2 47  1  1
  4 48  1  6
  6 49  1  0
  6 50  1  0
  7 51  1  6
  9 52  1  6
 15 53  1  0
 17 54  1  0
 18 55  1  0
 20 56  1  0
 25 57  1  0
 27 58  1  0
 29 59  1  0
 30 60  1  0
 31 61  1  0
 32 62  1  1
 33 63  1  0
 34 64  1  6
 35 65  1  0
 36 66  1  1
 37 67  1  0
 38 68  1  1
 39 69  1  0
 40 70  1  1
 41 71  1  0
 42 72  1  6
 43 73  1  0
M  END
$$$$
