
     RDKit          3D

146151  0  0  0  0  0  0  0  0999 V2000
   -5.4006   -0.5808   -3.6739 N   0  0  0  0  0  0  0  0  0  0  0  0
   -4.3412   -0.1713   -2.7523 C   0  0  0  0  0  0  0  0  0  0  0  0
   -4.2052   -1.1191   -1.5482 C   0  0  0  0  0  0  0  0  0  0  0  0
   -5.4297   -1.0697   -0.6169 C   0  0  0  0  0  0  0  0  0  0  0  0
   -5.2614   -1.9294    0.6490 C   0  0  0  0  0  0  0  0  0  0  0  0
   -4.2415   -1.3810    1.6684 C   0  0  0  0  0  0  0  0  0  0  0  0
   -4.0433   -2.3767    2.7288 N   0  0  0  0  0  0  0  0  0  0  0  0
   -3.0802   -3.4390    2.6311 C   0  0  0  0  0  0  0  0  0  0  0  0
   -3.4152   -4.5964    3.0036 O   0  0  0  0  0  0  0  0  0  0  0  0
   -1.6751   -3.2009    2.1128 C   0  0  0  0  0  0  0  0  0  0  0  0
   -1.5289   -3.7203    0.6627 C   0  0  0  0  0  0  0  0  0  0  0  0
   -1.6298   -5.2209    0.5472 C   0  0  0  0  0  0  0  0  0  0  0  0
   -0.7238   -6.1567    1.0438 C   0  0  0  0  0  0  0  0  0  0  0  0
   -1.1265   -7.4125    0.7487 N   0  0  0  0  0  0  0  0  0  0  0  0
   -2.2707   -7.2828    0.0573 C   0  0  0  0  0  0  0  0  0  0  0  0
   -3.0482   -8.3065   -0.4824 C   0  0  0  0  0  0  0  0  0  0  0  0
   -4.2010   -7.9471   -1.2030 C   0  0  0  0  0  0  0  0  0  0  0  0
   -4.5410   -6.5877   -1.3749 C   0  0  0  0  0  0  0  0  0  0  0  0
   -3.7357   -5.5760   -0.8219 C   0  0  0  0  0  0  0  0  0  0  0  0
   -2.6073   -5.9610   -0.0957 C   0  0  0  0  0  0  0  0  0  0  0  0
   -0.6841   -3.8157    3.0122 N   0  0  0  0  0  0  0  0  0  0  0  0
    0.7119   -3.4662    3.1004 C   0  0  0  0  0  0  0  0  0  0  0  0
    1.4081   -4.0238    3.9920 O   0  0  0  0  0  0  0  0  0  0  0  0
    1.3889   -2.4880    2.1561 C   0  0  0  0  0  0  0  0  0  0  0  0
    2.2838   -3.2310    1.1362 C   0  0  0  0  0  0  0  0  0  0  0  0
    3.5229   -3.8407    1.7486 C   0  0  0  0  0  0  0  0  0  0  0  0
    4.6748   -3.0609    1.9445 C   0  0  0  0  0  0  0  0  0  0  0  0
    5.8208   -3.6226    2.5139 C   0  0  0  0  0  0  0  0  0  0  0  0
    5.8301   -4.9683    2.8934 C   0  0  0  0  0  0  0  0  0  0  0  0
    6.9787   -5.5152    3.4609 O   0  0  0  0  0  0  0  0  0  0  0  0
    4.6855   -5.7531    2.6990 C   0  0  0  0  0  0  0  0  0  0  0  0
    3.5386   -5.1933    2.1282 C   0  0  0  0  0  0  0  0  0  0  0  0
    2.1609   -1.4933    2.9162 N   0  0  0  0  0  0  0  0  0  0  0  0
    2.5643   -0.1971    2.4345 C   0  0  0  0  0  0  0  0  0  0  0  0
    3.1620    0.5722    3.2345 O   0  0  0  0  0  0  0  0  0  0  0  0
    2.3247    0.2725    1.0097 C   0  0  0  0  0  0  0  0  0  0  0  0
    1.7258    1.6885    0.9619 C   0  0  0  0  0  0  0  0  0  0  0  0
    0.0390    1.7009    1.6671 S   0  0  0  0  0  0  0  0  0  0  0  0
   -0.9223    1.1451   -0.1618 S   0  0  0  0  0  0  0  0  0  0  0  0
   -1.2043    2.8654   -0.7189 C   0  0  0  0  0  0  0  0  0  0  0  0
   -2.5774    3.3910   -0.2694 C   0  0  0  0  0  0  0  0  0  0  0  0
   -2.6511    3.4802    1.1939 N   0  0  0  0  0  0  0  0  0  0  0  0
   -3.8946    3.6171    1.8972 C   0  0  0  0  0  0  0  0  0  0  0  0
   -4.1382    4.7118    2.4711 O   0  0  0  0  0  0  0  0  0  0  0  0
   -4.8628    2.4617    2.0985 C   0  0  0  0  0  0  0  0  0  0  0  0
   -4.2915    1.1716    1.6863 N   0  0  0  0  0  0  0  0  0  0  0  0
   -4.7200   -0.0752    2.2587 C   0  0  0  0  0  0  0  0  0  0  0  0
   -5.5471   -0.0826    3.2116 O   0  0  0  0  0  0  0  0  0  0  0  0
   -6.2529    2.6853    1.4315 C   0  0  0  0  0  0  0  0  0  0  0  0
   -6.1629    3.0567   -0.0544 C   0  0  0  0  0  0  0  0  0  0  0  0
   -7.0917    3.7297    2.1844 C   0  0  0  0  0  0  0  0  0  0  0  0
   -2.8365    4.7408   -0.8858 C   0  0  0  0  0  0  0  0  0  0  0  0
   -3.6628    4.8363   -1.8340 O   0  0  0  0  0  0  0  0  0  0  0  0
   -2.1293    5.9044   -0.4291 N   0  0  0  0  0  0  0  0  0  0  0  0
   -2.4401    7.2473   -0.9297 C   0  0  0  0  0  0  0  0  0  0  0  0
   -1.3106    8.2423   -0.5582 C   0  0  0  0  0  0  0  0  0  0  0  0
   -1.5466    9.6386   -1.1524 C   0  0  0  0  0  0  0  0  0  0  0  0
   -0.0617    7.7514   -0.9793 O   0  0  0  0  0  0  0  0  0  0  0  0
   -3.7669    7.6932   -0.3694 C   0  0  0  0  0  0  0  0  0  0  0  0
   -4.6674    8.1045   -1.1488 O   0  0  0  0  0  0  0  0  0  0  0  0
   -4.0118    7.6651    1.0375 N   0  0  0  0  0  0  0  0  0  0  0  0
    3.5596    0.1898    0.2185 N   0  0  0  0  0  0  0  0  0  0  0  0
    4.7523    0.9601    0.4595 C   0  0  0  0  0  0  0  0  0  0  0  0
    4.7910    1.8026    1.3956 O   0  0  0  0  0  0  0  0  0  0  0  0
    5.9773    0.7779   -0.4066 C   0  0  0  0  0  0  0  0  0  0  0  0
    5.6672    1.1165   -1.8763 C   0  0  0  0  0  0  0  0  0  0  0  0
    6.9200    1.1099   -2.7147 C   0  0  0  0  0  0  0  0  0  0  0  0
    7.3062   -0.0521   -3.4023 C   0  0  0  0  0  0  0  0  0  0  0  0
    8.4887   -0.0698   -4.1571 C   0  0  0  0  0  0  0  0  0  0  0  0
    8.8781   -1.2267   -4.8502 C   0  0  0  0  0  0  0  0  0  0  0  0
   10.0589   -1.2325   -5.5984 C   0  0  0  0  0  0  0  0  0  0  0  0
   10.8582   -0.0879   -5.6601 C   0  0  0  0  0  0  0  0  0  0  0  0
   10.4828    1.0705   -4.9736 C   0  0  0  0  0  0  0  0  0  0  0  0
    9.2995    1.0896   -4.2188 C   0  0  0  0  0  0  0  0  0  0  0  0
    8.9140    2.2436   -3.5221 C   0  0  0  0  0  0  0  0  0  0  0  0
    7.7350    2.2513   -2.7724 C   0  0  0  0  0  0  0  0  0  0  0  0
    6.5089   -0.5825   -0.2860 N   0  0  0  0  0  0  0  0  0  0  0  0
   -6.3301   -0.4120   -3.2271 H   0  0  0  0  0  0  0  0  0  0  0  0
   -5.3133   -1.6039   -3.8731 H   0  0  0  0  0  0  0  0  0  0  0  0
   -4.5301    0.8669   -2.4024 H   0  0  0  0  0  0  0  0  0  0  0  0
   -3.3777   -0.1617   -3.3057 H   0  0  0  0  0  0  0  0  0  0  0  0
   -4.0445   -2.1593   -1.9050 H   0  0  0  0  0  0  0  0  0  0  0  0
   -3.2950   -0.8106   -0.9972 H   0  0  0  0  0  0  0  0  0  0  0  0
   -6.3109   -1.4629   -1.1667 H   0  0  0  0  0  0  0  0  0  0  0  0
   -5.6607   -0.0242   -0.3355 H   0  0  0  0  0  0  0  0  0  0  0  0
   -6.2524   -2.0196    1.1465 H   0  0  0  0  0  0  0  0  0  0  0  0
   -4.9651   -2.9548    0.3502 H   0  0  0  0  0  0  0  0  0  0  0  0
   -3.2772   -1.1932    1.1633 H   0  0  0  0  0  0  0  0  0  0  0  0
   -4.8423   -2.5416    3.3832 H   0  0  0  0  0  0  0  0  0  0  0  0
   -1.5089   -2.1051    2.1234 H   0  0  0  0  0  0  0  0  0  0  0  0
   -0.5559   -3.4056    0.2401 H   0  0  0  0  0  0  0  0  0  0  0  0
   -2.3013   -3.2388    0.0278 H   0  0  0  0  0  0  0  0  0  0  0  0
    0.1849   -5.9335    1.5845 H   0  0  0  0  0  0  0  0  0  0  0  0
   -0.6362   -8.3003    0.9972 H   0  0  0  0  0  0  0  0  0  0  0  0
   -2.7721   -9.3454   -0.3559 H   0  0  0  0  0  0  0  0  0  0  0  0
   -4.8262   -8.7170   -1.6359 H   0  0  0  0  0  0  0  0  0  0  0  0
   -5.4231   -6.3217   -1.9426 H   0  0  0  0  0  0  0  0  0  0  0  0
   -3.9810   -4.5374   -0.9787 H   0  0  0  0  0  0  0  0  0  0  0  0
   -1.0081   -4.5533    3.6789 H   0  0  0  0  0  0  0  0  0  0  0  0
    0.6040   -1.9541    1.5976 H   0  0  0  0  0  0  0  0  0  0  0  0
    1.6908   -4.0232    0.6307 H   0  0  0  0  0  0  0  0  0  0  0  0
    2.5897   -2.5321    0.3316 H   0  0  0  0  0  0  0  0  0  0  0  0
    4.6858   -2.0187    1.6571 H   0  0  0  0  0  0  0  0  0  0  0  0
    6.7023   -3.0113    2.6601 H   0  0  0  0  0  0  0  0  0  0  0  0
    7.0170   -6.4868    3.7462 H   0  0  0  0  0  0  0  0  0  0  0  0
    4.6837   -6.7960    2.9893 H   0  0  0  0  0  0  0  0  0  0  0  0
    2.6632   -5.8137    1.9851 H   0  0  0  0  0  0  0  0  0  0  0  0
    2.4417   -1.7244    3.8967 H   0  0  0  0  0  0  0  0  0  0  0  0
    1.5822   -0.3794    0.5145 H   0  0  0  0  0  0  0  0  0  0  0  0
    2.3427    2.3999    1.5478 H   0  0  0  0  0  0  0  0  0  0  0  0
    1.7059    2.0573   -0.0859 H   0  0  0  0  0  0  0  0  0  0  0  0
   -1.1680    2.8579   -1.8295 H   0  0  0  0  0  0  0  0  0  0  0  0
   -0.3894    3.5340   -0.3676 H   0  0  0  0  0  0  0  0  0  0  0  0
   -3.3445    2.6873   -0.6462 H   0  0  0  0  0  0  0  0  0  0  0  0
   -1.8247    3.8987    1.6777 H   0  0  0  0  0  0  0  0  0  0  0  0
   -5.0229    2.4078    3.1986 H   0  0  0  0  0  0  0  0  0  0  0  0
   -3.6626    1.1196    0.8598 H   0  0  0  0  0  0  0  0  0  0  0  0
   -6.8163    1.7279    1.4951 H   0  0  0  0  0  0  0  0  0  0  0  0
   -7.1816    3.1133   -0.4937 H   0  0  0  0  0  0  0  0  0  0  0  0
   -5.6721    4.0432   -0.1854 H   0  0  0  0  0  0  0  0  0  0  0  0
   -5.5997    2.2873   -0.6154 H   0  0  0  0  0  0  0  0  0  0  0  0
   -7.1592    3.4708    3.2624 H   0  0  0  0  0  0  0  0  0  0  0  0
   -8.1243    3.7523    1.7750 H   0  0  0  0  0  0  0  0  0  0  0  0
   -6.6566    4.7454    2.0813 H   0  0  0  0  0  0  0  0  0  0  0  0
   -1.3967    5.7903    0.3074 H   0  0  0  0  0  0  0  0  0  0  0  0
   -2.5073    7.2042   -2.0406 H   0  0  0  0  0  0  0  0  0  0  0  0
   -1.2721    8.3469    0.5482 H   0  0  0  0  0  0  0  0  0  0  0  0
   -0.6872   10.2991   -0.9101 H   0  0  0  0  0  0  0  0  0  0  0  0
   -1.6517    9.5810   -2.2569 H   0  0  0  0  0  0  0  0  0  0  0  0
   -2.4639   10.0951   -0.7245 H   0  0  0  0  0  0  0  0  0  0  0  0
   -0.0969    7.6485   -1.9667 H   0  0  0  0  0  0  0  0  0  0  0  0
   -3.2768    7.3359    1.7018 H   0  0  0  0  0  0  0  0  0  0  0  0
   -4.9350    7.9707    1.4173 H   0  0  0  0  0  0  0  0  0  0  0  0
    3.5599   -0.4774   -0.5848 H   0  0  0  0  0  0  0  0  0  0  0  0
    6.7610    1.4859   -0.0524 H   0  0  0  0  0  0  0  0  0  0  0  0
    5.1963    2.1231   -1.9323 H   0  0  0  0  0  0  0  0  0  0  0  0
    4.9319    0.3950   -2.2942 H   0  0  0  0  0  0  0  0  0  0  0  0
    6.6865   -0.9400   -3.3455 H   0  0  0  0  0  0  0  0  0  0  0  0
    8.2710   -2.1235   -4.8138 H   0  0  0  0  0  0  0  0  0  0  0  0
   10.3552   -2.1265   -6.1317 H   0  0  0  0  0  0  0  0  0  0  0  0
   11.7715   -0.0987   -6.2410 H   0  0  0  0  0  0  0  0  0  0  0  0
   11.1154    1.9482   -5.0317 H   0  0  0  0  0  0  0  0  0  0  0  0
    9.5252    3.1377   -3.5543 H   0  0  0  0  0  0  0  0  0  0  0  0
    7.4568    3.1484   -2.2331 H   0  0  0  0  0  0  0  0  0  0  0  0
    6.7359   -0.7672    0.7184 H   0  0  0  0  0  0  0  0  0  0  0  0
    5.7836   -1.2763   -0.5797 H   0  0  0  0  0  0  0  0  0  0  0  0
  1  2  1  0
  2  3  1  0
  3  4  1  0
  4  5  1  0
  5  6  1  0
  6  7  1  0
  7  8  1  0
  8  9  2  0
  8 10  1  0
 10 11  1  0
 11 12  1  0
 12 13  2  0
 13 14  1  0
 14 15  1  0
 15 16  2  0
 16 17  1  0
 17 18  2  0
 18 19  1  0
 19 20  2  0
 10 21  1  0
 21 22  1  0
 22 23  2  0
 22 24  1  0
 24 25  1  0
 25 26  1  0
 26 27  2  0
 27 28  1  0
 28 29  2  0
 29 30  1  0
 29 31  1  0
 31 32  2  0
 24 33  1  0
 33 34  1  0
 34 35  2  0
 34 36  1  0
 36 37  1  0
 37 38  1  0
 38 39  1  0
 39 40  1  0
 40 41  1  0
 41 42  1  0
 42 43  1  0
 43 44  2  0
 43 45  1  0
 45 46  1  0
 46 47  1  0
 47 48  2  0
 45 49  1  0
 49 50  1  0
 49 51  1  0
 41 52  1  0
 52 53  2  0
 52 54  1  0
 54 55  1  0
 55 56  1  0
 56 57  1  0
 56 58  1  0
 55 59  1  0
 59 60  2  0
 59 61  1  0
 36 62  1  0
 62 63  1  0
 63 64  2  0
 63 65  1  0
 65 66  1  0
 66 67  1  0
 67 68  2  0
 68 69  1  0
 69 70  2  0
 70 71  1  0
 71 72  2  0
 72 73  1  0
 73 74  2  0
 74 75  1  0
 75 76  2  0
 65 77  1  0
 47  6  1  0
 76 67  1  0
 20 12  1  0
 32 26  1  0
 74 69  1  0
 20 15  1  0
  1 78  1  0
  1 79  1  0
  2 80  1  0
  2 81  1  0
  3 82  1  0
  3 83  1  0
  4 84  1  0
  4 85  1  0
  5 86  1  0
  5 87  1  0
  6 88  1  0
  7 89  1  0
 10 90  1  0
 11 91  1  0
 11 92  1  0
 13 93  1  0
 14 94  1  0
 16 95  1  0
 17 96  1  0
 18 97  1  0
 19 98  1  0
 21 99  1  0
 24100  1  0
 25101  1  0
 25102  1  0
 27103  1  0
 28104  1  0
 30105  1  0
 31106  1  0
 32107  1  0
 33108  1  0
 36109  1  0
 37110  1  0
 37111  1  0
 40112  1  0
 40113  1  0
 41114  1  0
 42115  1  0
 45116  1  0
 46117  1  0
 49118  1  0
 50119  1  0
 50120  1  0
 50121  1  0
 51122  1  0
 51123  1  0
 51124  1  0
 54125  1  0
 55126  1  0
 56127  1  0
 57128  1  0
 57129  1  0
 57130  1  0
 58131  1  0
 61132  1  0
 61133  1  0
 62134  1  0
 65135  1  0
 66136  1  0
 66137  1  0
 68138  1  0
 70139  1  0
 71140  1  0
 72141  1  0
 73142  1  0
 75143  1  0
 76144  1  0
 77145  1  0
 77146  1  0
M  END
$$$$
