
     RDKit          3D

 22 23  0  0  0  0  0  0  0  0999 V2000
    3.1929   -1.2037   -0.5202 C   0  0  0  0  0  0  0  0  0  0  0  0
    1.9377   -0.4451   -0.2284 C   0  0  0  0  0  0  0  0  0  0  0  0
    0.7377   -0.9531   -0.6130 N   0  0  0  0  0  0  0  0  0  0  0  0
   -0.4186   -0.2808   -0.3774 C   0  0  0  0  0  0  0  0  0  0  0  0
   -0.3890    0.9578    0.2720 C   0  0  0  0  0  0  0  0  0  0  0  0
   -1.6788    1.7085    0.4771 C   0  0  0  0  0  0  0  0  0  0  0  0
   -2.9649    0.6592    1.2585 S   0  0  0  0  0  0  0  0  0  0  0  0
   -2.6774   -0.9454    0.3978 C   0  0  0  0  0  0  0  0  0  0  0  0
   -1.7307   -0.8648   -0.8003 C   0  0  0  0  0  0  0  0  0  0  0  0
    0.8622    1.4787    0.6442 C   0  0  0  0  0  0  0  0  0  0  0  0
    0.9474    2.6023    1.2099 O   0  0  0  0  0  0  0  0  0  0  0  0
    1.9950    0.7674    0.3900 N   0  0  0  0  0  0  0  0  0  0  0  0
    2.9563   -2.2333   -0.8630 H   0  0  0  0  0  0  0  0  0  0  0  0
    3.8150   -1.2683    0.3970 H   0  0  0  0  0  0  0  0  0  0  0  0
    3.7651   -0.6808   -1.3145 H   0  0  0  0  0  0  0  0  0  0  0  0
   -2.0525    2.0651   -0.5059 H   0  0  0  0  0  0  0  0  0  0  0  0
   -1.5324    2.5986    1.1233 H   0  0  0  0  0  0  0  0  0  0  0  0
   -3.6584   -1.3375    0.0564 H   0  0  0  0  0  0  0  0  0  0  0  0
   -2.2678   -1.6658    1.1380 H   0  0  0  0  0  0  0  0  0  0  0  0
   -2.1811   -0.2349   -1.5973 H   0  0  0  0  0  0  0  0  0  0  0  0
   -1.5799   -1.8853   -1.2147 H   0  0  0  0  0  0  0  0  0  0  0  0
    2.9223    1.1614    0.6704 H   0  0  0  0  0  0  0  0  0  0  0  0
  1  2  1  0
  2  3  2  0
  3  4  1  0
  4  5  2  0
  5  6  1  0
  6  7  1  0
  7  8  1  0
  8  9  1  0
  5 10  1  0
 10 11  2  0
 10 12  1  0
 12  2  1  0
  9  4  1  0
  1 13  1  0
  1 14  1  0
  1 15  1  0
  6 16  1  0
  6 17  1  0
  8 18  1  0
  8 19  1  0
  9 20  1  0
  9 21  1  0
 12 22  1  0
M  END
$$$$
