
     RDKit          3D

 55 58  0  0  0  0  0  0  0  0999 V2000
    4.1749   -0.6250   -0.9107 C   0  0  0  0  0  0  0  0  0  0  0  0
    3.9179    0.8512   -0.5293 C   0  0  0  0  0  0  0  0  0  0  0  0
    2.5067    1.1514   -0.2046 N   0  0  0  0  0  0  0  0  0  0  0  0
    1.5595    0.9715   -1.3339 C   0  0  0  0  0  0  0  0  0  0  0  0
    0.5871   -0.1949   -1.1054 C   0  0  0  0  0  0  0  0  0  0  0  0
   -0.2291   -0.0133    0.1959 C   0  0  0  0  0  0  0  0  0  0  0  0
    0.5561    0.7654    1.2735 C   0  0  0  0  0  0  0  0  0  0  0  0
    2.0667    0.5946    1.0946 C   0  0  0  0  0  0  0  0  0  0  0  0
   -1.4256    0.6978   -0.0858 O   0  0  0  0  0  0  0  0  0  0  0  0
   -2.5264   -0.1765   -0.2848 C   0  0  0  0  0  0  0  0  0  0  0  0
   -3.6086    0.5417   -1.0581 C   0  0  0  0  0  0  0  0  0  0  0  0
   -3.8974    1.8974   -0.8101 C   0  0  0  0  0  0  0  0  0  0  0  0
   -4.9268    2.5394   -1.5050 C   0  0  0  0  0  0  0  0  0  0  0  0
   -5.6846    1.8350   -2.4434 C   0  0  0  0  0  0  0  0  0  0  0  0
   -5.4178    0.4854   -2.6855 C   0  0  0  0  0  0  0  0  0  0  0  0
   -4.3896   -0.1615   -1.9934 C   0  0  0  0  0  0  0  0  0  0  0  0
   -3.0932   -0.6477    1.0391 C   0  0  0  0  0  0  0  0  0  0  0  0
   -3.6171   -1.9472    1.1541 C   0  0  0  0  0  0  0  0  0  0  0  0
   -4.1668   -2.3829    2.3636 C   0  0  0  0  0  0  0  0  0  0  0  0
   -4.2069   -1.5242    3.4648 C   0  0  0  0  0  0  0  0  0  0  0  0
   -3.7015   -0.2262    3.3574 C   0  0  0  0  0  0  0  0  0  0  0  0
   -3.1517    0.2145    2.1501 C   0  0  0  0  0  0  0  0  0  0  0  0
    5.6240   -0.8561   -1.3592 C   0  0  0  0  0  0  0  0  0  0  0  0
    6.5897   -0.6829   -0.2269 C   0  0  0  0  0  0  0  0  0  0  0  0
    7.3597    0.4041   -0.0374 N   0  0  0  0  0  0  0  0  0  0  0  0
    8.0137    0.1636    1.0910 N   0  0  0  0  0  0  0  0  0  0  0  0
    7.6572   -1.0156    1.5792 N   0  0  0  0  0  0  0  0  0  0  0  0
    6.7654   -1.5605    0.7723 N   0  0  0  0  0  0  0  0  0  0  0  0
    3.5145   -0.9202   -1.7516 H   0  0  0  0  0  0  0  0  0  0  0  0
    3.9548   -1.2985   -0.0571 H   0  0  0  0  0  0  0  0  0  0  0  0
    4.2369    1.5070   -1.3690 H   0  0  0  0  0  0  0  0  0  0  0  0
    4.5554    1.1246    0.3397 H   0  0  0  0  0  0  0  0  0  0  0  0
    2.0893    0.8286   -2.3012 H   0  0  0  0  0  0  0  0  0  0  0  0
    0.9682    1.9059   -1.4440 H   0  0  0  0  0  0  0  0  0  0  0  0
   -0.0934   -0.2852   -1.9796 H   0  0  0  0  0  0  0  0  0  0  0  0
    1.1686   -1.1402   -1.0453 H   0  0  0  0  0  0  0  0  0  0  0  0
   -0.4238   -1.0301    0.6174 H   0  0  0  0  0  0  0  0  0  0  0  0
    0.2555    0.4120    2.2841 H   0  0  0  0  0  0  0  0  0  0  0  0
    0.3163    1.8505    1.2140 H   0  0  0  0  0  0  0  0  0  0  0  0
    2.3108   -0.4844    1.1814 H   0  0  0  0  0  0  0  0  0  0  0  0
    2.5871    1.1319    1.9166 H   0  0  0  0  0  0  0  0  0  0  0  0
   -2.2076   -1.0586   -0.8921 H   0  0  0  0  0  0  0  0  0  0  0  0
   -3.3285    2.4581   -0.0793 H   0  0  0  0  0  0  0  0  0  0  0  0
   -5.1396    3.5831   -1.3126 H   0  0  0  0  0  0  0  0  0  0  0  0
   -6.4820    2.3336   -2.9791 H   0  0  0  0  0  0  0  0  0  0  0  0
   -6.0110   -0.0615   -3.4069 H   0  0  0  0  0  0  0  0  0  0  0  0
   -4.2045   -1.2112   -2.1852 H   0  0  0  0  0  0  0  0  0  0  0  0
   -3.6008   -2.6223    0.3076 H   0  0  0  0  0  0  0  0  0  0  0  0
   -4.5644   -3.3862    2.4461 H   0  0  0  0  0  0  0  0  0  0  0  0
   -4.6334   -1.8631    4.4000 H   0  0  0  0  0  0  0  0  0  0  0  0
   -3.7382    0.4401    4.2096 H   0  0  0  0  0  0  0  0  0  0  0  0
   -2.7702    1.2255    2.0842 H   0  0  0  0  0  0  0  0  0  0  0  0
    5.7201   -1.8922   -1.7493 H   0  0  0  0  0  0  0  0  0  0  0  0
    5.8836   -0.1611   -2.1870 H   0  0  0  0  0  0  0  0  0  0  0  0
    6.3008   -2.4848    0.9127 H   0  0  0  0  0  0  0  0  0  0  0  0
  1  2  1  0
  2  3  1  0
  3  4  1  0
  4  5  1  0
  5  6  1  0
  6  7  1  0
  7  8  1  0
  6  9  1  0
  9 10  1  0
 10 11  1  0
 11 12  2  0
 12 13  1  0
 13 14  2  0
 14 15  1  0
 15 16  2  0
 10 17  1  0
 17 18  2  0
 18 19  1  0
 19 20  2  0
 20 21  1  0
 21 22  2  0
  1 23  1  0
 23 24  1  0
 24 25  2  0
 25 26  1  0
 26 27  2  0
 27 28  1  0
  8  3  1  0
 16 11  1  0
 22 17  1  0
 28 24  1  0
  1 29  1  0
  1 30  1  0
  2 31  1  0
  2 32  1  0
  4 33  1  0
  4 34  1  0
  5 35  1  0
  5 36  1  0
  6 37  1  0
  7 38  1  0
  7 39  1  0
  8 40  1  0
  8 41  1  0
 10 42  1  0
 12 43  1  0
 13 44  1  0
 14 45  1  0
 15 46  1  0
 16 47  1  0
 18 48  1  0
 19 49  1  0
 20 50  1  0
 21 51  1  0
 22 52  1  0
 23 53  1  0
 23 54  1  0
 28 55  1  0
M  END
$$$$
