
     RDKit          3D

 50 54  0  0  0  0  0  0  0  0999 V2000
   -1.6552   -0.4411    0.9248 C   0  0  2  0  0  0  0  0  0  0  0  0
   -2.2716   -1.6104    0.1123 C   0  0  0  0  0  0  0  0  0  0  0  0
   -3.3251   -1.2501   -0.9037 C   0  0  0  0  0  0  0  0  0  0  0  0
   -4.6875   -1.3180   -0.5690 C   0  0  0  0  0  0  0  0  0  0  0  0
   -5.6578   -0.9930   -1.5181 C   0  0  0  0  0  0  0  0  0  0  0  0
   -5.2596   -0.6175   -2.8019 C   0  0  0  0  0  0  0  0  0  0  0  0
   -3.9390   -0.5797   -3.1213 N   0  0  0  0  0  0  0  0  0  0  0  0
   -2.9740   -0.8884   -2.2142 C   0  0  0  0  0  0  0  0  0  0  0  0
   -2.6474    0.3663    1.7013 N   0  0  0  0  0  0  0  0  0  0  0  0
   -1.9109    1.0127    2.8206 C   0  0  0  0  0  0  0  0  0  0  0  0
   -0.7058    1.8362    2.2808 C   0  0  0  0  0  0  0  0  0  0  0  0
   -0.7875    1.9142    0.7361 C   0  0  0  0  0  0  0  0  0  0  0  0
   -2.1781    2.4553    0.3732 C   0  0  0  0  0  0  0  0  0  0  0  0
   -3.2497    1.4616    0.8857 C   0  0  0  0  0  0  0  0  0  0  0  0
   -0.6796    0.4892    0.1309 C   0  0  1  0  0  0  0  0  0  0  0  0
    0.7079    0.0064    0.1812 N   0  0  0  0  0  0  0  0  0  0  0  0
    1.7165    0.5006   -0.7130 C   0  0  0  0  0  0  0  0  0  0  0  0
    1.4198    1.3465   -1.6001 O   0  0  0  0  0  0  0  0  0  0  0  0
    3.1021    0.0202   -0.6037 C   0  0  0  0  0  0  0  0  0  0  0  0
    4.1632    0.4194   -1.4146 C   0  0  0  0  0  0  0  0  0  0  0  0
    5.2403   -0.2898   -0.9363 C   0  0  0  0  0  0  0  0  0  0  0  0
    4.7877   -1.0556    0.1051 C   0  0  0  0  0  0  0  0  0  0  0  0
    3.5060   -0.8613    0.2946 O   0  0  0  0  0  0  0  0  0  0  0  0
    5.6368   -1.9005    0.8161 C   0  0  0  0  0  0  0  0  0  0  0  0
    6.9898   -1.9469    0.4309 C   0  0  0  0  0  0  0  0  0  0  0  0
    7.4557   -1.1560   -0.6441 C   0  0  0  0  0  0  0  0  0  0  0  0
    6.5726   -0.3120   -1.3430 C   0  0  0  0  0  0  0  0  0  0  0  0
   -1.0382   -0.9946    1.6710 H   0  0  0  0  0  0  0  0  0  0  0  0
   -1.4489   -2.1540   -0.4025 H   0  0  0  0  0  0  0  0  0  0  0  0
   -2.7054   -2.3410    0.8309 H   0  0  0  0  0  0  0  0  0  0  0  0
   -4.9952   -1.6058    0.4287 H   0  0  0  0  0  0  0  0  0  0  0  0
   -6.7084   -1.0316   -1.2610 H   0  0  0  0  0  0  0  0  0  0  0  0
   -6.0011   -0.3634   -3.5474 H   0  0  0  0  0  0  0  0  0  0  0  0
   -1.9370   -0.8666   -2.5213 H   0  0  0  0  0  0  0  0  0  0  0  0
   -1.5555    0.2427    3.5404 H   0  0  0  0  0  0  0  0  0  0  0  0
   -2.5948    1.6757    3.3968 H   0  0  0  0  0  0  0  0  0  0  0  0
   -0.7207    2.8599    2.7145 H   0  0  0  0  0  0  0  0  0  0  0  0
    0.2505    1.3560    2.5826 H   0  0  0  0  0  0  0  0  0  0  0  0
    0.0001    2.5886    0.3364 H   0  0  0  0  0  0  0  0  0  0  0  0
   -2.3287    3.4552    0.8369 H   0  0  0  0  0  0  0  0  0  0  0  0
   -2.2655    2.5812   -0.7286 H   0  0  0  0  0  0  0  0  0  0  0  0
   -4.0009    2.0093    1.4967 H   0  0  0  0  0  0  0  0  0  0  0  0
   -3.8138    1.0645    0.0269 H   0  0  0  0  0  0  0  0  0  0  0  0
   -0.9929    0.5291   -0.9325 H   0  0  0  0  0  0  0  0  0  0  0  0
    0.9775   -0.7444    0.8557 H   0  0  0  0  0  0  0  0  0  0  0  0
    4.1472    1.1260   -2.2342 H   0  0  0  0  0  0  0  0  0  0  0  0
    5.2683   -2.5011    1.6374 H   0  0  0  0  0  0  0  0  0  0  0  0
    7.6777   -2.5923    0.9613 H   0  0  0  0  0  0  0  0  0  0  0  0
    8.4981   -1.1996   -0.9317 H   0  0  0  0  0  0  0  0  0  0  0  0
    6.9181    0.2981   -2.1677 H   0  0  0  0  0  0  0  0  0  0  0  0
  1  2  1  0
  2  3  1  0
  3  4  2  0
  4  5  1  0
  5  6  2  0
  6  7  1  0
  7  8  2  0
  1  9  1  0
  9 10  1  0
 10 11  1  0
 11 12  1  0
 12 13  1  0
 13 14  1  0
 12 15  1  0
 15 16  1  0
 16 17  1  0
 17 18  2  0
 17 19  1  0
 19 20  2  0
 20 21  1  0
 21 22  2  0
 22 23  1  0
 22 24  1  0
 24 25  2  0
 25 26  1  0
 26 27  2  0
 15  1  1  0
 23 19  1  0
  8  3  1  0
 14  9  1  0
 27 21  1  0
  1 28  1  1
  2 29  1  0
  2 30  1  0
  4 31  1  0
  5 32  1  0
  6 33  1  0
  8 34  1  0
 10 35  1  0
 10 36  1  0
 11 37  1  0
 11 38  1  0
 12 39  1  0
 13 40  1  0
 13 41  1  0
 14 42  1  0
 14 43  1  0
 15 44  1  6
 16 45  1  0
 20 46  1  0
 24 47  1  0
 25 48  1  0
 26 49  1  0
 27 50  1  0
M  END
$$$$
