
     RDKit          3D

 37 39  0  0  0  0  0  0  0  0999 V2000
   -5.7056    1.1634    1.0606 C   0  0  0  0  0  0  0  0  0  0  0  0
   -4.8419    0.1679    0.5215 O   0  0  0  0  0  0  0  0  0  0  0  0
   -3.4675    0.3442    0.2943 C   0  0  0  0  0  0  0  0  0  0  0  0
   -2.8113    1.5525    0.5924 C   0  0  0  0  0  0  0  0  0  0  0  0
   -1.4425    1.6939    0.3509 C   0  0  0  0  0  0  0  0  0  0  0  0
   -0.8218    2.8610    0.6618 N   0  0  0  0  0  0  0  0  0  0  0  0
    0.5063    3.0262    0.4450 C   0  0  0  0  0  0  0  0  0  0  0  0
    1.2373    2.0214   -0.0990 N   0  0  0  0  0  0  0  0  0  0  0  0
    0.6761    0.8263   -0.4307 C   0  0  0  0  0  0  0  0  0  0  0  0
    1.4896   -0.1817   -1.0556 N   0  0  0  0  0  0  0  0  0  0  0  0
    2.8899   -0.3534   -0.7751 C   0  0  0  0  0  0  0  0  0  0  0  0
    3.4303   -0.0267    0.4832 C   0  0  0  0  0  0  0  0  0  0  0  0
    4.7949   -0.2221    0.7410 C   0  0  0  0  0  0  0  0  0  0  0  0
    5.3368    0.1049    1.9821 O   0  0  0  0  0  0  0  0  0  0  0  0
    5.6214   -0.7539   -0.2534 C   0  0  0  0  0  0  0  0  0  0  0  0
    5.0884   -1.0986   -1.4977 C   0  0  0  0  0  0  0  0  0  0  0  0
    3.7284   -0.9058   -1.7560 C   0  0  0  0  0  0  0  0  0  0  0  0
   -0.7047    0.6281   -0.2064 C   0  0  0  0  0  0  0  0  0  0  0  0
   -1.3589   -0.5855   -0.4873 C   0  0  0  0  0  0  0  0  0  0  0  0
   -2.7393   -0.7283   -0.2427 C   0  0  0  0  0  0  0  0  0  0  0  0
   -3.4248   -1.9229   -0.5178 O   0  0  0  0  0  0  0  0  0  0  0  0
   -2.8250   -3.0934   -1.0636 C   0  0  0  0  0  0  0  0  0  0  0  0
   -5.7217    2.0545    0.3981 H   0  0  0  0  0  0  0  0  0  0  0  0
   -6.7338    0.7529    1.1283 H   0  0  0  0  0  0  0  0  0  0  0  0
   -5.3695    1.4495    2.0796 H   0  0  0  0  0  0  0  0  0  0  0  0
   -3.3551    2.3869    1.0155 H   0  0  0  0  0  0  0  0  0  0  0  0
    0.9823    3.9631    0.6992 H   0  0  0  0  0  0  0  0  0  0  0  0
    1.0801   -0.7287   -1.8459 H   0  0  0  0  0  0  0  0  0  0  0  0
    2.7945    0.3598    1.2691 H   0  0  0  0  0  0  0  0  0  0  0  0
    4.7655    0.4915    2.7244 H   0  0  0  0  0  0  0  0  0  0  0  0
    6.6754   -0.9065   -0.0590 H   0  0  0  0  0  0  0  0  0  0  0  0
    5.7296   -1.5171   -2.2627 H   0  0  0  0  0  0  0  0  0  0  0  0
    3.3286   -1.1787   -2.7246 H   0  0  0  0  0  0  0  0  0  0  0  0
   -0.8019   -1.4232   -0.8782 H   0  0  0  0  0  0  0  0  0  0  0  0
   -2.0364   -3.4728   -0.3800 H   0  0  0  0  0  0  0  0  0  0  0  0
   -2.3928   -2.8712   -2.0622 H   0  0  0  0  0  0  0  0  0  0  0  0
   -3.6009   -3.8775   -1.1795 H   0  0  0  0  0  0  0  0  0  0  0  0
  1  2  1  0
  2  3  1  0
  3  4  2  0
  4  5  1  0
  5  6  2  0
  6  7  1  0
  7  8  2  0
  8  9  1  0
  9 10  1  0
 10 11  1  0
 11 12  2  0
 12 13  1  0
 13 14  1  0
 13 15  2  0
 15 16  1  0
 16 17  2  0
  9 18  2  0
 18 19  1  0
 19 20  2  0
 20 21  1  0
 21 22  1  0
 20  3  1  0
 18  5  1  0
 17 11  1  0
  1 23  1  0
  1 24  1  0
  1 25  1  0
  4 26  1  0
  7 27  1  0
 10 28  1  0
 12 29  1  0
 14 30  1  0
 15 31  1  0
 16 32  1  0
 17 33  1  0
 19 34  1  0
 22 35  1  0
 22 36  1  0
 22 37  1  0
M  END
$$$$
