
     RDKit          3D

 34 35  0  0  0  0  0  0  0  0999 V2000
    5.7779   -0.6010    1.6714 N   0  0  0  0  0  0  0  0  0  0  0  0
    5.4868    0.6584    0.5239 S   0  0  0  0  0  6  0  0  0  0  0  0
    5.8903    1.9794    1.1165 O   0  0  0  0  0  0  0  0  0  0  0  0
    6.3103    0.4130   -0.7093 O   0  0  0  0  0  0  0  0  0  0  0  0
    3.7772    0.6910    0.1026 C   0  0  0  0  0  0  0  0  0  0  0  0
    2.8838    1.4745    0.8427 C   0  0  0  0  0  0  0  0  0  0  0  0
    1.5247    1.4910    0.5169 C   0  0  0  0  0  0  0  0  0  0  0  0
    1.0349    0.7125   -0.5473 C   0  0  0  0  0  0  0  0  0  0  0  0
    1.9397   -0.0695   -1.2889 C   0  0  0  0  0  0  0  0  0  0  0  0
    3.2988   -0.0831   -0.9614 C   0  0  0  0  0  0  0  0  0  0  0  0
   -0.4090    0.7433   -0.8829 C   0  0  0  0  0  0  0  0  0  0  0  0
   -1.0952    1.7519   -0.5607 O   0  0  0  0  0  0  0  0  0  0  0  0
   -1.0418   -0.3611   -1.5511 N   0  0  0  0  0  0  0  0  0  0  0  0
   -2.4435   -0.3244   -1.9625 C   0  0  0  0  0  0  0  0  0  0  0  0
   -3.3422   -0.4986   -0.7685 C   0  0  0  0  0  0  0  0  0  0  0  0
   -3.4099   -1.7407   -0.1160 C   0  0  0  0  0  0  0  0  0  0  0  0
   -4.2285   -1.9035    1.0059 C   0  0  0  0  0  0  0  0  0  0  0  0
   -4.9816   -0.8280    1.4859 C   0  0  0  0  0  0  0  0  0  0  0  0
   -5.7740   -0.9872    2.5744 F   0  0  0  0  0  0  0  0  0  0  0  0
   -4.9158    0.4124    0.8444 C   0  0  0  0  0  0  0  0  0  0  0  0
   -4.0985    0.5791   -0.2780 C   0  0  0  0  0  0  0  0  0  0  0  0
    5.1573   -0.4160    2.4911 H   0  0  0  0  0  0  0  0  0  0  0  0
    5.4460   -1.4914    1.2375 H   0  0  0  0  0  0  0  0  0  0  0  0
    3.2374    2.0706    1.6743 H   0  0  0  0  0  0  0  0  0  0  0  0
    0.8535    2.1031    1.1068 H   0  0  0  0  0  0  0  0  0  0  0  0
    1.6089   -0.6537   -2.1368 H   0  0  0  0  0  0  0  0  0  0  0  0
    3.9779   -0.6952   -1.5413 H   0  0  0  0  0  0  0  0  0  0  0  0
   -0.5183   -1.2524   -1.6974 H   0  0  0  0  0  0  0  0  0  0  0  0
   -2.6545    0.6266   -2.4986 H   0  0  0  0  0  0  0  0  0  0  0  0
   -2.6367   -1.1509   -2.6805 H   0  0  0  0  0  0  0  0  0  0  0  0
   -2.8275   -2.5800   -0.4758 H   0  0  0  0  0  0  0  0  0  0  0  0
   -4.2769   -2.8635    1.5036 H   0  0  0  0  0  0  0  0  0  0  0  0
   -5.4967    1.2462    1.2172 H   0  0  0  0  0  0  0  0  0  0  0  0
   -4.0546    1.5471   -0.7615 H   0  0  0  0  0  0  0  0  0  0  0  0
  1  2  1  0
  2  3  2  0
  2  4  2  0
  2  5  1  0
  5  6  2  0
  6  7  1  0
  7  8  2  0
  8  9  1  0
  9 10  2  0
  8 11  1  0
 11 12  2  0
 11 13  1  0
 13 14  1  0
 14 15  1  0
 15 16  2  0
 16 17  1  0
 17 18  2  0
 18 19  1  0
 18 20  1  0
 20 21  2  0
 10  5  1  0
 21 15  1  0
  1 22  1  0
  1 23  1  0
  6 24  1  0
  7 25  1  0
  9 26  1  0
 10 27  1  0
 13 28  1  0
 14 29  1  0
 14 30  1  0
 16 31  1  0
 17 32  1  0
 20 33  1  0
 21 34  1  0
M  END
$$$$
