
     RDKit          3D

 50 52  0  0  0  0  0  0  0  0999 V2000
    5.8990   -0.9329    3.0380 C   0  0  1  0  0  0  0  0  0  0  0  0
    5.7214   -2.0088    4.0161 N   0  0  0  0  0  0  0  0  0  0  0  0
    4.8890   -1.0779    1.8930 C   0  0  0  0  0  0  0  0  0  0  0  0
    5.1778   -2.6366    0.9800 S   0  0  0  0  0  0  0  0  0  0  0  0
    3.7577   -2.4584   -0.1568 C   0  0  0  0  0  0  0  0  0  0  0  0
    2.5009   -3.0763    0.4553 C   0  0  0  0  0  0  0  0  0  0  0  0
    1.3423   -2.9430   -0.4860 C   0  0  0  0  0  0  0  0  0  0  0  0
    0.9857   -3.9381   -1.1732 O   0  0  0  0  0  0  0  0  0  0  0  0
    0.6477   -1.6903   -0.5936 N   0  0  0  0  0  0  0  0  0  0  0  0
   -0.3158   -1.3879   -1.6173 C   0  0  0  0  0  0  0  0  0  0  0  0
   -1.3960   -0.5439   -1.3153 C   0  0  0  0  0  0  0  0  0  0  0  0
   -2.3454   -0.2131   -2.3018 C   0  0  0  0  0  0  0  0  0  0  0  0
   -2.1744   -0.7068   -3.6143 C   0  0  0  0  0  0  0  0  0  0  0  0
   -1.0865   -1.5294   -3.9192 C   0  0  0  0  0  0  0  0  0  0  0  0
   -0.1607   -1.8661   -2.9299 C   0  0  0  0  0  0  0  0  0  0  0  0
   -3.0591   -0.3710   -4.5879 N   0  0  0  0  0  0  0  0  0  0  0  0
   -4.1164    0.4355   -4.3230 C   0  0  0  0  0  0  0  0  0  0  0  0
   -4.3094    0.9161   -3.0691 N   0  0  0  0  0  0  0  0  0  0  0  0
   -3.4571    0.6206   -2.0494 C   0  0  0  0  0  0  0  0  0  0  0  0
   -3.7430    1.1142   -0.7291 N   0  0  0  0  0  0  0  0  0  0  0  0
   -4.4042    2.3668   -0.4789 C   0  0  0  0  0  0  0  0  0  0  0  0
   -4.2803    3.4514   -1.3681 C   0  0  0  0  0  0  0  0  0  0  0  0
   -4.9154    4.6662   -1.0918 C   0  0  0  0  0  0  0  0  0  0  0  0
   -5.6681    4.8141    0.0759 C   0  0  0  0  0  0  0  0  0  0  0  0
   -5.7810    3.7494    0.9733 C   0  0  0  0  0  0  0  0  0  0  0  0
   -5.1470    2.5331    0.7012 C   0  0  0  0  0  0  0  0  0  0  0  0
    5.7532    0.4127    3.6981 C   0  0  0  0  0  0  0  0  0  0  0  0
    4.5456    0.7751    4.2886 O   0  0  0  0  0  0  0  0  0  0  0  0
    6.7266    1.2127    3.7203 O   0  0  0  0  0  0  0  0  0  0  0  0
    6.9230   -1.0116    2.6078 H   0  0  0  0  0  0  0  0  0  0  0  0
    4.7897   -1.9091    4.4823 H   0  0  0  0  0  0  0  0  0  0  0  0
    6.4541   -1.9119    4.7568 H   0  0  0  0  0  0  0  0  0  0  0  0
    5.0077   -0.2270    1.1875 H   0  0  0  0  0  0  0  0  0  0  0  0
    3.8547   -1.0624    2.2975 H   0  0  0  0  0  0  0  0  0  0  0  0
    4.0062   -2.9940   -1.0980 H   0  0  0  0  0  0  0  0  0  0  0  0
    3.5861   -1.3893   -0.4081 H   0  0  0  0  0  0  0  0  0  0  0  0
    2.2513   -2.5717    1.4121 H   0  0  0  0  0  0  0  0  0  0  0  0
    2.6846   -4.1509    0.6743 H   0  0  0  0  0  0  0  0  0  0  0  0
    0.7978   -0.9850    0.1633 H   0  0  0  0  0  0  0  0  0  0  0  0
   -1.4768   -0.1516   -0.3107 H   0  0  0  0  0  0  0  0  0  0  0  0
   -0.9486   -1.8993   -4.9279 H   0  0  0  0  0  0  0  0  0  0  0  0
    0.6933   -2.4722   -3.2011 H   0  0  0  0  0  0  0  0  0  0  0  0
   -4.8108    0.6913   -5.1114 H   0  0  0  0  0  0  0  0  0  0  0  0
   -3.5816    0.4778    0.0834 H   0  0  0  0  0  0  0  0  0  0  0  0
   -3.6790    3.3677   -2.2638 H   0  0  0  0  0  0  0  0  0  0  0  0
   -4.8179    5.4959   -1.7801 H   0  0  0  0  0  0  0  0  0  0  0  0
   -6.1578    5.7556    0.2886 H   0  0  0  0  0  0  0  0  0  0  0  0
   -6.3583    3.8669    1.8813 H   0  0  0  0  0  0  0  0  0  0  0  0
   -5.2411    1.7165    1.4060 H   0  0  0  0  0  0  0  0  0  0  0  0
    4.4362    1.6771    4.7364 H   0  0  0  0  0  0  0  0  0  0  0  0
  1  2  1  0
  1  3  1  0
  3  4  1  0
  4  5  1  0
  5  6  1  0
  6  7  1  0
  7  8  2  0
  7  9  1  0
  9 10  1  0
 10 11  2  0
 11 12  1  0
 12 13  2  0
 13 14  1  0
 14 15  2  0
 13 16  1  0
 16 17  2  0
 17 18  1  0
 18 19  2  0
 19 20  1  0
 20 21  1  0
 21 22  2  0
 22 23  1  0
 23 24  2  0
 24 25  1  0
 25 26  2  0
  1 27  1  0
 27 28  1  0
 27 29  2  0
 15 10  1  0
 26 21  1  0
 19 12  1  0
  1 30  1  6
  2 31  1  0
  2 32  1  0
  3 33  1  0
  3 34  1  0
  5 35  1  0
  5 36  1  0
  6 37  1  0
  6 38  1  0
  9 39  1  0
 11 40  1  0
 14 41  1  0
 15 42  1  0
 17 43  1  0
 20 44  1  0
 22 45  1  0
 23 46  1  0
 24 47  1  0
 25 48  1  0
 26 49  1  0
 28 50  1  0
M  END
$$$$
