
     RDKit          3D

 46 50  0  0  0  0  0  0  0  0999 V2000
   -0.9369   -2.0288    3.1490 C   0  0  0  0  0  0  0  0  0  0  0  0
   -1.2129   -1.4085    1.8984 O   0  0  0  0  0  0  0  0  0  0  0  0
   -2.0557   -1.9456    0.9125 C   0  0  0  0  0  0  0  0  0  0  0  0
   -2.7536   -3.1550    1.0990 C   0  0  0  0  0  0  0  0  0  0  0  0
   -3.5811   -3.6539    0.0891 C   0  0  0  0  0  0  0  0  0  0  0  0
   -3.7236   -2.9547   -1.1109 C   0  0  0  0  0  0  0  0  0  0  0  0
   -3.0368   -1.7550   -1.3064 C   0  0  0  0  0  0  0  0  0  0  0  0
   -2.1966   -1.2506   -0.3030 C   0  0  0  0  0  0  0  0  0  0  0  0
   -1.4969   -0.0083   -0.5113 N   0  0  0  0  0  0  0  0  0  0  0  0
   -2.0004    1.1415    0.0447 C   0  0  0  0  0  0  0  0  0  0  0  0
   -3.0761    1.0890    0.7029 O   0  0  0  0  0  0  0  0  0  0  0  0
   -1.3200    2.3721   -0.1169 C   0  0  0  0  0  0  0  0  0  0  0  0
   -1.7610    3.6083    0.4344 C   0  0  0  0  0  0  0  0  0  0  0  0
   -3.2272    3.7856    1.3986 Cl  0  0  0  0  0  0  0  0  0  0  0  0
   -1.0090    4.7712    0.2216 C   0  0  0  0  0  0  0  0  0  0  0  0
    0.1679    4.7318   -0.5243 C   0  0  0  0  0  0  0  0  0  0  0  0
    0.6088    3.5285   -1.0695 C   0  0  0  0  0  0  0  0  0  0  0  0
   -0.1261    2.3560   -0.8719 C   0  0  0  0  0  0  0  0  0  0  0  0
    0.3256    1.1978   -1.4047 N   0  0  0  0  0  0  0  0  0  0  0  0
   -0.3340    0.0247   -1.2408 C   0  0  0  0  0  0  0  0  0  0  0  0
    0.3010   -1.2203   -1.8120 C   0  0  0  0  0  0  0  0  0  0  0  0
    1.0727   -2.2522   -0.5120 S   0  0  0  0  0  0  0  0  0  0  0  0
    2.1680   -0.9680    0.0961 C   0  0  0  0  0  0  0  0  0  0  0  0
    3.4012   -0.7158   -0.4891 C   0  0  0  0  0  0  0  0  0  0  0  0
    3.9944   -1.3228   -1.5322 N   0  0  0  0  0  0  0  0  0  0  0  0
    5.1617   -0.6309   -1.6508 C   0  0  0  0  0  0  0  0  0  0  0  0
    5.3024    0.3626   -0.7370 N   0  0  0  0  0  0  0  0  0  0  0  0
    4.1783    0.2850   -0.0200 C   0  0  0  0  0  0  0  0  0  0  0  0
    3.8105    1.0720    1.0191 N   0  0  0  0  0  0  0  0  0  0  0  0
    2.6013    0.8278    1.6093 C   0  0  0  0  0  0  0  0  0  0  0  0
    1.7940   -0.1813    1.1491 N   0  0  0  0  0  0  0  0  0  0  0  0
   -1.8727   -2.1358    3.7370 H   0  0  0  0  0  0  0  0  0  0  0  0
   -0.2289   -1.3932    3.7191 H   0  0  0  0  0  0  0  0  0  0  0  0
   -0.4700   -3.0231    2.9861 H   0  0  0  0  0  0  0  0  0  0  0  0
   -2.6637   -3.7157    2.0192 H   0  0  0  0  0  0  0  0  0  0  0  0
   -4.1148   -4.5837    0.2382 H   0  0  0  0  0  0  0  0  0  0  0  0
   -4.3676   -3.3423   -1.8897 H   0  0  0  0  0  0  0  0  0  0  0  0
   -3.1531   -1.2162   -2.2383 H   0  0  0  0  0  0  0  0  0  0  0  0
   -1.3380    5.7147    0.6390 H   0  0  0  0  0  0  0  0  0  0  0  0
    0.7403    5.6373   -0.6795 H   0  0  0  0  0  0  0  0  0  0  0  0
    1.5261    3.5074   -1.6453 H   0  0  0  0  0  0  0  0  0  0  0  0
    1.0794   -0.9429   -2.5551 H   0  0  0  0  0  0  0  0  0  0  0  0
   -0.4561   -1.8243   -2.3516 H   0  0  0  0  0  0  0  0  0  0  0  0
    5.9050   -0.8513   -2.4055 H   0  0  0  0  0  0  0  0  0  0  0  0
    6.0973    1.0302   -0.6259 H   0  0  0  0  0  0  0  0  0  0  0  0
    2.2767    1.4370    2.4414 H   0  0  0  0  0  0  0  0  0  0  0  0
  1  2  1  0
  2  3  1  0
  3  4  2  0
  4  5  1  0
  5  6  2  0
  6  7  1  0
  7  8  2  0
  8  9  1  0
  9 10  1  0
 10 11  2  0
 10 12  1  0
 12 13  2  0
 13 14  1  0
 13 15  1  0
 15 16  2  0
 16 17  1  0
 17 18  2  0
 18 19  1  0
 19 20  2  0
 20 21  1  0
 21 22  1  0
 22 23  1  0
 23 24  2  0
 24 25  1  0
 25 26  2  0
 26 27  1  0
 27 28  1  0
 28 29  2  0
 29 30  1  0
 30 31  2  0
  8  3  1  0
 20  9  1  0
 31 23  1  0
 18 12  1  0
 28 24  1  0
  1 32  1  0
  1 33  1  0
  1 34  1  0
  4 35  1  0
  5 36  1  0
  6 37  1  0
  7 38  1  0
 15 39  1  0
 16 40  1  0
 17 41  1  0
 21 42  1  0
 21 43  1  0
 26 44  1  0
 27 45  1  0
 30 46  1  0
M  END
$$$$
