
     RDKit          3D

 42 46  0  0  0  0  0  0  0  0999 V2000
    6.1966   -0.3130    2.5637 N   0  0  0  0  0  0  0  0  0  0  0  0
    5.5519    0.6096    1.9205 C   0  0  0  0  0  0  0  0  0  0  0  0
    5.7535    1.9850    2.2698 N   0  0  0  0  0  0  0  0  0  0  0  0
    4.6275    0.2283    0.8234 C   0  0  0  0  0  0  0  0  0  0  0  0
    3.5508    1.0738    0.4586 C   0  0  0  0  0  0  0  0  0  0  0  0
    2.7162    0.6588   -0.5756 C   0  0  0  0  0  0  0  0  0  0  0  0
    2.8976   -0.5211   -1.2293 C   0  0  0  0  0  0  0  0  0  0  0  0
    3.9325   -1.3888   -0.9001 C   0  0  0  0  0  0  0  0  0  0  0  0
    4.8031   -1.0074    0.1378 C   0  0  0  0  0  0  0  0  0  0  0  0
    1.9469   -0.6925   -2.1655 N   0  0  0  0  0  0  0  0  0  0  0  0
    0.2105   -1.5498   -4.2373 Zn  0  0  0  0  0  2  0  0  0  0  0  0
   -1.7326   -1.0557   -2.2415 N   0  0  0  0  0  0  0  0  0  0  0  0
   -1.2286    0.1985   -2.0932 C   0  0  0  0  0  0  0  0  0  0  0  0
   -0.0338    0.6886   -2.8455 C   0  0  0  0  0  0  0  0  0  0  0  0
    1.2031    0.4394   -2.0445 C   0  0  0  0  0  0  0  0  0  0  0  0
    1.6413    1.2800   -1.0749 N   0  0  0  0  0  4  0  0  0  0  0  0
   -1.8617    0.9333   -1.1456 N   0  0  0  0  0  4  0  0  0  0  0  0
   -2.8129    0.1114   -0.6870 C   0  0  0  0  0  0  0  0  0  0  0  0
   -2.7358   -1.0772   -1.3456 C   0  0  0  0  0  0  0  0  0  0  0  0
   -3.6086   -2.1239   -1.0716 C   0  0  0  0  0  0  0  0  0  0  0  0
   -4.5870   -1.9197   -0.0808 C   0  0  0  0  0  0  0  0  0  0  0  0
   -4.6708   -0.6836    0.6213 C   0  0  0  0  0  0  0  0  0  0  0  0
   -3.7620    0.3553    0.3018 C   0  0  0  0  0  0  0  0  0  0  0  0
   -5.7118   -0.4865    1.6610 C   0  0  0  0  0  0  0  0  0  0  0  0
   -5.5278    0.4646    2.7172 N   0  0  0  0  0  0  0  0  0  0  0  0
   -6.7975   -1.1939    1.6214 N   0  0  0  0  0  0  0  0  0  0  0  0
    6.8598   -0.0847    3.3376 H   0  0  0  0  0  0  0  0  0  0  0  0
    6.3545    2.2428    3.0841 H   0  0  0  0  0  0  0  0  0  0  0  0
    5.3763    2.7587    1.6803 H   0  0  0  0  0  0  0  0  0  0  0  0
    3.3499    2.0049    0.9711 H   0  0  0  0  0  0  0  0  0  0  0  0
    4.0638   -2.3275   -1.4227 H   0  0  0  0  0  0  0  0  0  0  0  0
    5.6174   -1.6710    0.4003 H   0  0  0  0  0  0  0  0  0  0  0  0
    0.0379    0.1626   -3.8215 H   0  0  0  0  0  0  0  0  0  0  0  0
   -0.1375    1.7762   -3.0465 H   0  0  0  0  0  0  0  0  0  0  0  0
    1.2280    2.1919   -0.7770 H   0  0  0  0  0  0  0  0  0  0  0  0
   -1.6486    1.9079   -0.8363 H   0  0  0  0  0  0  0  0  0  0  0  0
   -3.5382   -3.0649   -1.6017 H   0  0  0  0  0  0  0  0  0  0  0  0
   -5.2701   -2.7285    0.1464 H   0  0  0  0  0  0  0  0  0  0  0  0
   -3.8021    1.3239    0.7816 H   0  0  0  0  0  0  0  0  0  0  0  0
   -6.2906    0.6449    3.4074 H   0  0  0  0  0  0  0  0  0  0  0  0
   -4.6108    0.9374    2.8723 H   0  0  0  0  0  0  0  0  0  0  0  0
   -7.5504   -1.0886    2.3376 H   0  0  0  0  0  0  0  0  0  0  0  0
  1  2  2  3
  2  3  1  0
  2  4  1  0
  4  5  2  0
  5  6  1  0
  6  7  2  0
  7  8  1  0
  8  9  2  0
  7 10  1  0
 10 11  1  0
 11 12  1  0
 12 13  1  0
 13 14  1  0
 14 15  1  0
 15 16  2  0
 13 17  2  0
 17 18  1  0
 18 19  2  0
 19 20  1  0
 20 21  2  0
 21 22  1  0
 22 23  2  0
 22 24  1  0
 24 25  1  0
 24 26  2  3
  9  4  1  0
 15 10  1  0
 23 18  1  0
 16  6  1  0
 19 12  1  0
  1 27  1  0
  3 28  1  0
  3 29  1  0
  5 30  1  0
  8 31  1  0
  9 32  1  0
 14 33  1  0
 14 34  1  0
 16 35  1  0
 17 36  1  0
 20 37  1  0
 21 38  1  0
 23 39  1  0
 25 40  1  0
 25 41  1  0
 26 42  1  0
M  CHG  2  16   1  17   1
M  END
$$$$
