
     RDKit          3D

 28 27  0  0  0  0  0  0  0  0999 V2000
   -0.0970    1.2108    1.3632 N   0  0  0  0  0  0  0  0  0  0  0  0
   -0.1512    0.2546    0.2423 C   0  0  0  0  0  0  0  0  0  0  0  0
   -0.8413    0.9483   -0.9792 C   0  0  0  0  0  0  0  0  0  0  0  0
   -0.3211    2.3533   -1.3406 C   0  0  0  0  0  0  0  0  0  0  0  0
   -0.7673    3.3124   -0.4195 O   0  0  0  0  0  0  0  0  0  0  0  0
   -1.0364   -0.9566    0.6893 C   0  0  0  0  0  0  0  0  0  0  0  0
   -1.2050   -2.0761   -0.3534 C   0  0  0  0  0  0  0  0  0  0  0  0
   -1.9874   -3.1108    0.1782 O   0  0  0  0  0  0  0  0  0  0  0  0
    1.2963   -0.1947   -0.1569 C   0  0  0  0  0  0  0  0  0  0  0  0
    2.0507   -0.9910    0.9212 C   0  0  0  0  0  0  0  0  0  0  0  0
    3.3511   -1.2781    0.4829 O   0  0  0  0  0  0  0  0  0  0  0  0
    0.6747    1.9010    1.2143 H   0  0  0  0  0  0  0  0  0  0  0  0
    0.1223    0.7159    2.2578 H   0  0  0  0  0  0  0  0  0  0  0  0
   -0.7176    0.3114   -1.8815 H   0  0  0  0  0  0  0  0  0  0  0  0
   -1.9362    1.0291   -0.7990 H   0  0  0  0  0  0  0  0  0  0  0  0
   -0.6782    2.6225   -2.3610 H   0  0  0  0  0  0  0  0  0  0  0  0
    0.7857    2.3732   -1.3778 H   0  0  0  0  0  0  0  0  0  0  0  0
   -1.7270    3.4735   -0.6166 H   0  0  0  0  0  0  0  0  0  0  0  0
   -0.6272   -1.4059    1.6193 H   0  0  0  0  0  0  0  0  0  0  0  0
   -2.0474   -0.5792    0.9601 H   0  0  0  0  0  0  0  0  0  0  0  0
   -0.2177   -2.5021   -0.6218 H   0  0  0  0  0  0  0  0  0  0  0  0
   -1.6786   -1.6892   -1.2821 H   0  0  0  0  0  0  0  0  0  0  0  0
   -2.9282   -2.7936    0.1631 H   0  0  0  0  0  0  0  0  0  0  0  0
    1.2654   -0.8026   -1.0863 H   0  0  0  0  0  0  0  0  0  0  0  0
    1.9091    0.6992   -0.3957 H   0  0  0  0  0  0  0  0  0  0  0  0
    2.0917   -0.4257    1.8782 H   0  0  0  0  0  0  0  0  0  0  0  0
    1.5389   -1.9558    1.1116 H   0  0  0  0  0  0  0  0  0  0  0  0
    3.8791   -0.4440    0.5899 H   0  0  0  0  0  0  0  0  0  0  0  0
  1  2  1  0
  2  3  1  0
  3  4  1  0
  4  5  1  0
  2  6  1  0
  6  7  1  0
  7  8  1  0
  2  9  1  0
  9 10  1  0
 10 11  1  0
  1 12  1  0
  1 13  1  0
  3 14  1  0
  3 15  1  0
  4 16  1  0
  4 17  1  0
  5 18  1  0
  6 19  1  0
  6 20  1  0
  7 21  1  0
  7 22  1  0
  8 23  1  0
  9 24  1  0
  9 25  1  0
 10 26  1  0
 10 27  1  0
 11 28  1  0
M  END
$$$$
