
     RDKit          3D

 48 51  0  0  0  0  0  0  0  0999 V2000
    4.4041   -1.4005    2.3005 C   0  0  0  0  0  0  0  0  0  0  0  0
    3.9907   -1.2933    0.8925 N   0  0  0  0  0  0  0  0  0  0  0  0
    2.8085   -2.1494    0.6242 C   0  0  0  0  0  0  0  0  0  0  0  0
    1.9452   -1.6128   -0.5218 C   0  0  0  0  0  0  0  0  0  0  0  0
    1.3659   -0.2395   -0.1310 C   0  0  1  0  0  0  0  0  0  0  0  0
    2.4110    0.6603    0.6072 C   0  0  2  0  0  0  0  0  0  0  0  0
    2.3698    1.9918    0.1605 O   0  0  0  0  0  0  0  0  0  0  0  0
    3.8506    0.1239    0.4717 C   0  0  0  0  0  0  0  0  0  0  0  0
    0.6574    0.4280   -1.3186 C   0  0  0  0  0  0  0  0  0  0  0  0
    1.3770    0.8506   -2.4595 C   0  0  0  0  0  0  0  0  0  0  0  0
    2.7579    0.6818   -2.5311 O   0  0  0  0  0  0  0  0  0  0  0  0
    0.7120    1.4510   -3.5330 C   0  0  0  0  0  0  0  0  0  0  0  0
   -0.6698    1.6508   -3.5052 C   0  0  0  0  0  0  0  0  0  0  0  0
   -1.2934    2.2560   -4.5975 O   0  0  0  0  0  0  0  0  0  0  0  0
   -1.4134    1.2406   -2.3791 C   0  0  0  0  0  0  0  0  0  0  0  0
   -0.7453    0.6265   -1.2883 C   0  0  0  0  0  0  0  0  0  0  0  0
   -1.4439    0.2333   -0.2246 O   0  0  0  0  0  0  0  0  0  0  0  0
   -2.7598    0.3756   -0.1126 C   0  0  0  0  0  0  0  0  0  0  0  0
   -3.4824    0.9891   -1.1404 C   0  0  0  0  0  0  0  0  0  0  0  0
   -2.8101    1.4201   -2.2820 C   0  0  0  0  0  0  0  0  0  0  0  0
   -3.4697    1.9687   -3.2059 O   0  0  0  0  0  0  0  0  0  0  0  0
   -3.4225   -0.0853    1.1252 C   0  0  0  0  0  0  0  0  0  0  0  0
   -2.8668    0.2904    2.3600 C   0  0  0  0  0  0  0  0  0  0  0  0
   -3.4599   -0.1147    3.5580 C   0  0  0  0  0  0  0  0  0  0  0  0
   -4.6062   -0.9100    3.5370 C   0  0  0  0  0  0  0  0  0  0  0  0
   -5.1554   -1.3125    2.3179 C   0  0  0  0  0  0  0  0  0  0  0  0
   -4.5698   -0.9132    1.1096 C   0  0  0  0  0  0  0  0  0  0  0  0
   -5.2518   -1.5456   -0.3862 Cl  0  0  0  0  0  0  0  0  0  0  0  0
    3.6551   -0.9273    2.9728 H   0  0  0  0  0  0  0  0  0  0  0  0
    5.3893   -0.9084    2.4476 H   0  0  0  0  0  0  0  0  0  0  0  0
    4.5252   -2.4682    2.5855 H   0  0  0  0  0  0  0  0  0  0  0  0
    3.1626   -3.1675    0.3552 H   0  0  0  0  0  0  0  0  0  0  0  0
    2.1646   -2.2497    1.5290 H   0  0  0  0  0  0  0  0  0  0  0  0
    2.5643   -1.5535   -1.4410 H   0  0  0  0  0  0  0  0  0  0  0  0
    1.1135   -2.3235   -0.7218 H   0  0  0  0  0  0  0  0  0  0  0  0
    0.6052   -0.4729    0.6453 H   0  0  0  0  0  0  0  0  0  0  0  0
    2.1789    0.6479    1.6992 H   0  0  0  0  0  0  0  0  0  0  0  0
    1.5417    2.3930    0.5341 H   0  0  0  0  0  0  0  0  0  0  0  0
    4.1840    0.2049   -0.5816 H   0  0  0  0  0  0  0  0  0  0  0  0
    4.5387    0.7843    1.0467 H   0  0  0  0  0  0  0  0  0  0  0  0
    3.2929    0.9801   -3.3384 H   0  0  0  0  0  0  0  0  0  0  0  0
    1.2783    1.7692   -4.3996 H   0  0  0  0  0  0  0  0  0  0  0  0
   -0.7708    2.5554   -5.4125 H   0  0  0  0  0  0  0  0  0  0  0  0
   -4.5501    1.1487   -1.0473 H   0  0  0  0  0  0  0  0  0  0  0  0
   -1.9794    0.9112    2.3956 H   0  0  0  0  0  0  0  0  0  0  0  0
   -3.0299    0.1887    4.5039 H   0  0  0  0  0  0  0  0  0  0  0  0
   -5.0630   -1.2248    4.4664 H   0  0  0  0  0  0  0  0  0  0  0  0
   -6.0311   -1.9493    2.3134 H   0  0  0  0  0  0  0  0  0  0  0  0
  1  2  1  0
  2  3  1  0
  3  4  1  0
  4  5  1  0
  5  6  1  0
  6  7  1  0
  6  8  1  0
  5  9  1  0
  9 10  2  0
 10 11  1  0
 10 12  1  0
 12 13  2  0
 13 14  1  0
 13 15  1  0
 15 16  2  0
 16 17  1  0
 17 18  1  0
 18 19  2  0
 19 20  1  0
 20 21  2  0
 18 22  1  0
 22 23  2  0
 23 24  1  0
 24 25  2  0
 25 26  1  0
 26 27  2  0
 27 28  1  0
  8  2  1  0
 16  9  1  0
 27 22  1  0
 20 15  1  0
  1 29  1  0
  1 30  1  0
  1 31  1  0
  3 32  1  0
  3 33  1  0
  4 34  1  0
  4 35  1  0
  5 36  1  1
  6 37  1  1
  7 38  1  0
  8 39  1  0
  8 40  1  0
 11 41  1  0
 12 42  1  0
 14 43  1  0
 19 44  1  0
 23 45  1  0
 24 46  1  0
 25 47  1  0
 26 48  1  0
M  END
$$$$
