
     RDKit          3D

 43 45  0  0  0  0  0  0  0  0999 V2000
   -1.8550    0.4702   -1.3325 C   0  0  1  0  0  0  0  0  0  0  0  0
   -1.9924   -1.3446   -1.1964 S   0  0  0  0  0  0  0  0  0  0  0  0
   -3.8248   -1.2754   -1.0757 C   0  0  0  0  0  0  0  0  0  0  0  0
   -4.3358   -0.4757    0.1179 C   0  0  0  0  0  0  0  0  0  0  0  0
   -5.6160   -0.9456    0.7635 C   0  0  0  0  0  0  0  0  0  0  0  0
   -3.7117    0.6712    0.5004 C   0  0  0  0  0  0  0  0  0  0  0  0
   -2.5130    1.0387   -0.1845 N   0  0  0  0  0  0  0  0  0  0  0  0
   -1.2586    1.7561    0.1438 C   0  0  0  0  0  0  0  0  0  0  0  0
   -0.8925    2.5495    1.0497 O   0  0  0  0  0  0  0  0  0  0  0  0
   -0.5865    1.0941   -1.0206 C   0  0  1  0  0  0  0  0  0  0  0  0
    0.4605    0.1650   -0.5881 N   0  0  0  0  0  0  0  0  0  0  0  0
    1.3126   -0.4985   -1.5328 C   0  0  0  0  0  0  0  0  0  0  0  0
    1.1781   -0.2813   -2.7678 O   0  0  0  0  0  0  0  0  0  0  0  0
    2.3789   -1.4506   -1.0622 C   0  0  2  0  0  0  0  0  0  0  0  0
    1.7796   -2.4982   -0.2333 N   0  0  0  0  0  0  0  0  0  0  0  0
    3.4482   -0.6827   -0.3035 C   0  0  0  0  0  0  0  0  0  0  0  0
    4.3595    0.0401   -0.9913 C   0  0  0  0  0  0  0  0  0  0  0  0
    5.4456    0.8070   -0.2781 C   0  0  0  0  0  0  0  0  0  0  0  0
    4.9735    1.2873    1.0698 C   0  0  0  0  0  0  0  0  0  0  0  0
    4.0736    0.5787    1.7675 C   0  0  0  0  0  0  0  0  0  0  0  0
    3.5179   -0.7109    1.2165 C   0  0  0  0  0  0  0  0  0  0  0  0
   -4.1627    1.5344    1.6202 C   0  0  0  0  0  0  0  0  0  0  0  0
   -3.7513    2.8629    1.6637 O   0  0  0  0  0  0  0  0  0  0  0  0
   -4.8893    1.0875    2.5475 O   0  0  0  0  0  0  0  0  0  0  0  0
   -2.3016    0.8556   -2.2764 H   0  0  0  0  0  0  0  0  0  0  0  0
   -4.2320   -0.8292   -2.0078 H   0  0  0  0  0  0  0  0  0  0  0  0
   -4.1885   -2.3229   -1.0225 H   0  0  0  0  0  0  0  0  0  0  0  0
   -5.4170   -1.2774    1.8038 H   0  0  0  0  0  0  0  0  0  0  0  0
   -6.3701   -0.1303    0.7590 H   0  0  0  0  0  0  0  0  0  0  0  0
   -6.0563   -1.8044    0.2148 H   0  0  0  0  0  0  0  0  0  0  0  0
   -0.2331    1.8343   -1.7715 H   0  0  0  0  0  0  0  0  0  0  0  0
    0.6003   -0.0154    0.4319 H   0  0  0  0  0  0  0  0  0  0  0  0
    2.8511   -1.9374   -1.9476 H   0  0  0  0  0  0  0  0  0  0  0  0
    2.5251   -3.1926    0.0052 H   0  0  0  0  0  0  0  0  0  0  0  0
    1.0779   -3.0158   -0.8120 H   0  0  0  0  0  0  0  0  0  0  0  0
    4.3308    0.0677   -2.0772 H   0  0  0  0  0  0  0  0  0  0  0  0
    5.7589    1.6748   -0.8959 H   0  0  0  0  0  0  0  0  0  0  0  0
    6.3208    0.1389   -0.1345 H   0  0  0  0  0  0  0  0  0  0  0  0
    5.3789    2.2045    1.4855 H   0  0  0  0  0  0  0  0  0  0  0  0
    3.7533    0.9269    2.7447 H   0  0  0  0  0  0  0  0  0  0  0  0
    4.1835   -1.5441    1.5260 H   0  0  0  0  0  0  0  0  0  0  0  0
    2.5146   -0.8833    1.6582 H   0  0  0  0  0  0  0  0  0  0  0  0
   -4.0348    3.4713    2.4224 H   0  0  0  0  0  0  0  0  0  0  0  0
  1  2  1  0
  2  3  1  0
  3  4  1  0
  4  5  1  0
  4  6  2  0
  6  7  1  0
  7  8  1  0
  8  9  2  0
  8 10  1  0
 10 11  1  0
 11 12  1  0
 12 13  2  0
 12 14  1  0
 14 15  1  0
 14 16  1  0
 16 17  2  0
 17 18  1  0
 18 19  1  0
 19 20  2  0
 20 21  1  0
  6 22  1  0
 22 23  1  0
 22 24  2  0
  7  1  1  0
 21 16  1  0
 10  1  1  0
  1 25  1  6
  3 26  1  0
  3 27  1  0
  5 28  1  0
  5 29  1  0
  5 30  1  0
 10 31  1  6
 11 32  1  0
 14 33  1  6
 15 34  1  0
 15 35  1  0
 17 36  1  0
 18 37  1  0
 18 38  1  0
 19 39  1  0
 20 40  1  0
 21 41  1  0
 21 42  1  0
 23 43  1  0
M  END
$$$$
