
     RDKit          3D

 68 71  0  0  0  0  0  0  0  0999 V2000
    1.0606    0.9112    0.8087 C   0  0  1  0  0  0  0  0  0  0  0  0
    1.0738    2.3333    0.1868 C   0  0  0  0  0  0  0  0  0  0  0  0
   -0.3479    2.5892   -0.3468 C   0  0  0  0  0  0  0  0  0  0  0  0
   -1.1520    1.3852    0.1287 C   0  0  1  0  0  0  0  0  0  0  0  0
   -2.4683    1.0299   -0.5908 C   0  0  2  0  0  0  0  0  0  0  0  0
   -3.4201    2.2491   -0.6503 C   0  0  0  0  0  0  0  0  0  0  0  0
   -4.7717    1.8770   -1.2716 C   0  0  0  0  0  0  0  0  0  0  0  0
   -5.3528    0.7221   -0.4956 C   0  0  0  0  0  0  0  0  0  0  0  0
   -6.3372    0.9785    0.3879 C   0  0  0  0  0  0  0  0  0  0  0  0
   -6.6809    0.0383    1.4626 C   0  0  0  0  0  0  0  0  0  0  0  0
   -7.6497    0.2880    2.2277 O   0  0  0  0  0  0  0  0  0  0  0  0
   -5.8281   -1.1639    1.7053 C   0  0  0  0  0  0  0  0  0  0  0  0
   -5.2777   -1.6709    0.3748 C   0  0  0  0  0  0  0  0  0  0  0  0
   -4.5265   -0.5707   -0.4474 C   0  0  1  0  0  0  0  0  0  0  0  0
   -4.3710   -1.1403   -1.8837 C   0  0  0  0  0  0  0  0  0  0  0  0
   -3.1340   -0.1738    0.1778 C   0  0  1  0  0  0  0  0  0  0  0  0
   -2.1441   -1.3658    0.3660 C   0  0  0  0  0  0  0  0  0  0  0  0
   -0.7751   -0.9354    0.9492 C   0  0  0  0  0  0  0  0  0  0  0  0
   -0.1494    0.2209    0.1364 C   0  0  2  0  0  0  0  0  0  0  0  0
    0.2494   -0.2803   -1.2908 C   0  0  0  0  0  0  0  0  0  0  0  0
    2.3640    0.1283    0.7331 C   0  0  0  0  0  0  0  0  0  0  0  0
    2.4335   -0.9400    1.3234 O   0  0  0  0  0  0  0  0  0  0  0  0
    3.5676    0.6233   -0.0268 C   0  0  0  0  0  0  0  0  0  0  0  0
    4.6646   -0.2712    0.1374 O   0  0  0  0  0  0  0  0  0  0  0  0
    5.9088   -0.0633   -0.4692 C   0  0  0  0  0  0  0  0  0  0  0  0
    6.1025    0.9682   -1.1715 O   0  0  0  0  0  0  0  0  0  0  0  0
    7.0433   -1.0433   -0.2415 C   0  0  0  0  0  0  0  0  0  0  0  0
    7.7278   -1.3675   -1.5842 C   0  0  0  0  0  0  0  0  0  0  0  0
    6.5113   -2.3533    0.3752 C   0  0  0  0  0  0  0  0  0  0  0  0
    8.0648   -0.4090    0.7189 C   0  0  0  0  0  0  0  0  0  0  0  0
    0.8382    1.0387    1.8939 H   0  0  0  0  0  0  0  0  0  0  0  0
    1.7830    2.4246   -0.6610 H   0  0  0  0  0  0  0  0  0  0  0  0
    1.3465    3.0871    0.9573 H   0  0  0  0  0  0  0  0  0  0  0  0
   -0.7639    3.5355    0.0629 H   0  0  0  0  0  0  0  0  0  0  0  0
   -0.3464    2.6433   -1.4577 H   0  0  0  0  0  0  0  0  0  0  0  0
   -1.4296    1.6190    1.1869 H   0  0  0  0  0  0  0  0  0  0  0  0
   -2.2367    0.7556   -1.6365 H   0  0  0  0  0  0  0  0  0  0  0  0
   -3.5866    2.6513    0.3739 H   0  0  0  0  0  0  0  0  0  0  0  0
   -2.9621    3.0552   -1.2630 H   0  0  0  0  0  0  0  0  0  0  0  0
   -5.4398    2.7662   -1.2561 H   0  0  0  0  0  0  0  0  0  0  0  0
   -4.6376    1.5999   -2.3375 H   0  0  0  0  0  0  0  0  0  0  0  0
   -6.8486    1.9339    0.3719 H   0  0  0  0  0  0  0  0  0  0  0  0
   -6.4344   -1.9662    2.1794 H   0  0  0  0  0  0  0  0  0  0  0  0
   -5.0009   -0.9023    2.3973 H   0  0  0  0  0  0  0  0  0  0  0  0
   -6.1485   -2.0386   -0.2153 H   0  0  0  0  0  0  0  0  0  0  0  0
   -4.6433   -2.5626    0.5486 H   0  0  0  0  0  0  0  0  0  0  0  0
   -5.3688   -1.2501   -2.3615 H   0  0  0  0  0  0  0  0  0  0  0  0
   -3.9004   -2.1457   -1.8634 H   0  0  0  0  0  0  0  0  0  0  0  0
   -3.7621   -0.5013   -2.5489 H   0  0  0  0  0  0  0  0  0  0  0  0
   -3.3447    0.1972    1.2063 H   0  0  0  0  0  0  0  0  0  0  0  0
   -2.5709   -2.0988    1.0796 H   0  0  0  0  0  0  0  0  0  0  0  0
   -1.9882   -1.9002   -0.5916 H   0  0  0  0  0  0  0  0  0  0  0  0
   -0.0921   -1.8119    0.9569 H   0  0  0  0  0  0  0  0  0  0  0  0
   -0.9209   -0.6231    2.0071 H   0  0  0  0  0  0  0  0  0  0  0  0
    0.9858   -1.1078   -1.2151 H   0  0  0  0  0  0  0  0  0  0  0  0
    0.7111    0.5253   -1.8976 H   0  0  0  0  0  0  0  0  0  0  0  0
   -0.6057   -0.6791   -1.8672 H   0  0  0  0  0  0  0  0  0  0  0  0
    3.3131    0.6925   -1.1061 H   0  0  0  0  0  0  0  0  0  0  0  0
    3.8552    1.6262    0.3556 H   0  0  0  0  0  0  0  0  0  0  0  0
    8.5490   -2.1023   -1.4386 H   0  0  0  0  0  0  0  0  0  0  0  0
    8.1643   -0.4519   -2.0390 H   0  0  0  0  0  0  0  0  0  0  0  0
    6.9949   -1.7988   -2.3003 H   0  0  0  0  0  0  0  0  0  0  0  0
    6.0418   -2.1622    1.3647 H   0  0  0  0  0  0  0  0  0  0  0  0
    5.7520   -2.8183   -0.2906 H   0  0  0  0  0  0  0  0  0  0  0  0
    7.3378   -3.0818    0.5230 H   0  0  0  0  0  0  0  0  0  0  0  0
    7.5855   -0.1636    1.6915 H   0  0  0  0  0  0  0  0  0  0  0  0
    8.4799    0.5283    0.2886 H   0  0  0  0  0  0  0  0  0  0  0  0
    8.9086   -1.1068    0.9106 H   0  0  0  0  0  0  0  0  0  0  0  0
  1  2  1  0
  2  3  1  0
  3  4  1  0
  4  5  1  0
  5  6  1  0
  6  7  1  0
  7  8  1  0
  8  9  2  0
  9 10  1  0
 10 11  2  0
 10 12  1  0
 12 13  1  0
 13 14  1  0
 14 15  1  6
 14 16  1  0
 16 17  1  0
 17 18  1  0
 18 19  1  0
 19 20  1  6
  1 21  1  0
 21 22  2  0
 21 23  1  0
 23 24  1  0
 24 25  1  0
 25 26  2  0
 25 27  1  0
 27 28  1  0
 27 29  1  0
 27 30  1  0
 19  1  1  0
 19  4  1  0
 16  5  1  0
 14  8  1  0
  1 31  1  1
  2 32  1  0
  2 33  1  0
  3 34  1  0
  3 35  1  0
  4 36  1  1
  5 37  1  6
  6 38  1  0
  6 39  1  0
  7 40  1  0
  7 41  1  0
  9 42  1  0
 12 43  1  0
 12 44  1  0
 13 45  1  0
 13 46  1  0
 15 47  1  0
 15 48  1  0
 15 49  1  0
 16 50  1  1
 17 51  1  0
 17 52  1  0
 18 53  1  0
 18 54  1  0
 20 55  1  0
 20 56  1  0
 20 57  1  0
 23 58  1  0
 23 59  1  0
 28 60  1  0
 28 61  1  0
 28 62  1  0
 29 63  1  0
 29 64  1  0
 29 65  1  0
 30 66  1  0
 30 67  1  0
 30 68  1  0
M  END
$$$$
