
     RDKit          3D

 90 91  0  0  0  0  0  0  0  0999 V2000
    4.0018    1.3831   -0.1007 C   0  0  2  0  0  0  0  0  0  0  0  0
    5.0448    2.1895    0.3826 O   0  0  0  0  0  0  0  0  0  0  0  0
    4.0045    0.1114    0.6394 N   0  0  0  0  0  0  0  0  0  0  0  0
    2.8487   -0.7456    0.3022 C   0  0  1  0  0  0  0  0  0  0  0  0
    3.3206   -2.2188    0.3591 C   0  0  0  0  0  0  0  0  0  0  0  0
    2.2906   -3.1955   -0.1521 C   0  0  0  0  0  0  0  0  0  0  0  0
    2.0136   -3.2741   -1.5278 C   0  0  0  0  0  0  0  0  0  0  0  0
    1.0470   -4.1661   -2.0024 C   0  0  0  0  0  0  0  0  0  0  0  0
    0.3553   -4.9896   -1.1102 C   0  0  0  0  0  0  0  0  0  0  0  0
    0.6266   -4.9204    0.2586 C   0  0  0  0  0  0  0  0  0  0  0  0
    1.5884   -4.0265    0.7384 C   0  0  0  0  0  0  0  0  0  0  0  0
    1.6143   -0.4322    1.2198 C   0  0  2  0  0  0  0  0  0  0  0  0
    1.5702   -1.3072    2.3212 O   0  0  0  0  0  0  0  0  0  0  0  0
    0.3604   -0.4992    0.4363 N   0  0  0  0  0  0  0  0  0  0  0  0
   -0.8796   -0.4801    1.2482 C   0  0  1  0  0  0  0  0  0  0  0  0
   -1.0985    0.8889    1.9525 C   0  0  0  0  0  0  0  0  0  0  0  0
   -1.1675    2.0831    1.0253 C   0  0  0  0  0  0  0  0  0  0  0  0
   -0.0491    2.9096    0.8428 C   0  0  0  0  0  0  0  0  0  0  0  0
   -0.1090    4.0415    0.0086 C   0  0  0  0  0  0  0  0  0  0  0  0
    1.0918    4.9014   -0.1301 C   0  0  0  0  0  0  0  0  0  0  0  0
    1.2234    5.7752   -1.2059 O   0  0  0  0  0  0  0  0  0  0  0  0
    2.0147    4.8417    0.7273 O   0  0  0  0  0  0  0  0  0  0  0  0
   -1.3163    4.3481   -0.6590 C   0  0  0  0  0  0  0  0  0  0  0  0
   -1.3716    5.4758   -1.4985 O   0  0  0  0  0  0  0  0  0  0  0  0
   -2.5316    5.9509   -2.1818 C   0  0  0  0  0  0  0  0  0  0  0  0
   -3.5015    6.5571   -1.2180 C   0  0  0  0  0  0  0  0  0  0  0  0
   -4.8305    6.1460   -1.2185 O   0  0  0  0  0  0  0  0  0  0  0  0
   -3.1193    7.4537   -0.4194 O   0  0  0  0  0  0  0  0  0  0  0  0
   -2.4418    3.5275   -0.4525 C   0  0  0  0  0  0  0  0  0  0  0  0
   -2.3717    2.4236    0.3962 C   0  0  0  0  0  0  0  0  0  0  0  0
   -2.1273   -0.8955    0.3943 C   0  0  1  0  0  0  0  0  0  0  0  0
   -2.1542   -0.2020   -0.8291 O   0  0  0  0  0  0  0  0  0  0  0  0
   -2.2161   -2.3498    0.1362 N   0  0  0  0  0  0  0  0  0  0  0  0
   -2.4768   -3.1471    1.3428 C   0  0  0  0  0  0  0  0  0  0  0  0
   -3.1085   -4.4849    0.9427 C   0  0  0  0  0  0  0  0  0  0  0  0
   -3.1819   -5.4883    2.1076 C   0  0  0  0  0  0  0  0  0  0  0  0
   -4.0454   -5.0336    3.2973 C   0  0  0  0  0  0  0  0  0  0  0  0
   -5.5125   -4.8238    2.9248 C   0  0  0  0  0  0  0  0  0  0  0  0
    4.2457    1.1069   -1.4734 O   0  0  0  0  0  0  0  0  0  0  0  0
    3.6549    2.0241   -2.3951 C   0  0  0  0  0  0  0  0  0  0  0  0
    4.0289    3.4957   -2.1005 C   0  0  0  0  0  0  0  0  0  0  0  0
    4.2258    1.6658   -3.7779 C   0  0  0  0  0  0  0  0  0  0  0  0
    2.1190    1.8525   -2.4638 C   0  0  0  0  0  0  0  0  0  0  0  0
    3.0297    1.8974    0.0713 H   0  0  0  0  0  0  0  0  0  0  0  0
    4.7345    2.5783    1.2420 H   0  0  0  0  0  0  0  0  0  0  0  0
    4.0279    0.2984    1.6697 H   0  0  0  0  0  0  0  0  0  0  0  0
    2.5513   -0.5601   -0.7536 H   0  0  0  0  0  0  0  0  0  0  0  0
    4.2323   -2.3232   -0.2697 H   0  0  0  0  0  0  0  0  0  0  0  0
    3.6334   -2.4810    1.3934 H   0  0  0  0  0  0  0  0  0  0  0  0
    2.5421   -2.6411   -2.2299 H   0  0  0  0  0  0  0  0  0  0  0  0
    0.8343   -4.2189   -3.0622 H   0  0  0  0  0  0  0  0  0  0  0  0
   -0.3932   -5.6788   -1.4790 H   0  0  0  0  0  0  0  0  0  0  0  0
    0.0881   -5.5565    0.9489 H   0  0  0  0  0  0  0  0  0  0  0  0
    1.7844   -3.9841    1.8023 H   0  0  0  0  0  0  0  0  0  0  0  0
    1.7125    0.6073    1.5943 H   0  0  0  0  0  0  0  0  0  0  0  0
    2.2644   -1.0004    2.9610 H   0  0  0  0  0  0  0  0  0  0  0  0
    0.3784   -1.3877   -0.1068 H   0  0  0  0  0  0  0  0  0  0  0  0
   -0.7962   -1.2184    2.0707 H   0  0  0  0  0  0  0  0  0  0  0  0
   -2.0362    0.8428    2.5487 H   0  0  0  0  0  0  0  0  0  0  0  0
   -0.2964    1.0458    2.7053 H   0  0  0  0  0  0  0  0  0  0  0  0
    0.8684    2.6840    1.3674 H   0  0  0  0  0  0  0  0  0  0  0  0
    2.0473    6.3558   -1.3070 H   0  0  0  0  0  0  0  0  0  0  0  0
   -2.2198    6.7342   -2.9035 H   0  0  0  0  0  0  0  0  0  0  0  0
   -3.0039    5.1301   -2.7628 H   0  0  0  0  0  0  0  0  0  0  0  0
   -5.4996    6.5509   -0.5747 H   0  0  0  0  0  0  0  0  0  0  0  0
   -3.3858    3.7391   -0.9330 H   0  0  0  0  0  0  0  0  0  0  0  0
   -3.2632    1.8322    0.5610 H   0  0  0  0  0  0  0  0  0  0  0  0
   -3.0453   -0.5951    0.9454 H   0  0  0  0  0  0  0  0  0  0  0  0
   -1.4646   -0.5972   -1.4229 H   0  0  0  0  0  0  0  0  0  0  0  0
   -1.3472   -2.7020   -0.3244 H   0  0  0  0  0  0  0  0  0  0  0  0
   -1.5239   -3.3431    1.8822 H   0  0  0  0  0  0  0  0  0  0  0  0
   -3.1742   -2.6110    2.0224 H   0  0  0  0  0  0  0  0  0  0  0  0
   -2.4929   -4.9455    0.1398 H   0  0  0  0  0  0  0  0  0  0  0  0
   -4.1186   -4.3111    0.5151 H   0  0  0  0  0  0  0  0  0  0  0  0
   -2.1519   -5.6901    2.4744 H   0  0  0  0  0  0  0  0  0  0  0  0
   -3.5810   -6.4512    1.7206 H   0  0  0  0  0  0  0  0  0  0  0  0
   -3.9955   -5.8212    4.0801 H   0  0  0  0  0  0  0  0  0  0  0  0
   -3.6354   -4.1046    3.7463 H   0  0  0  0  0  0  0  0  0  0  0  0
   -6.1061   -4.6507    3.8471 H   0  0  0  0  0  0  0  0  0  0  0  0
   -5.6270   -3.9345    2.2708 H   0  0  0  0  0  0  0  0  0  0  0  0
   -5.9150   -5.7207    2.4078 H   0  0  0  0  0  0  0  0  0  0  0  0
    3.5794    3.8464   -1.1519 H   0  0  0  0  0  0  0  0  0  0  0  0
    5.1321    3.6066   -2.0290 H   0  0  0  0  0  0  0  0  0  0  0  0
    3.6589    4.1634   -2.9085 H   0  0  0  0  0  0  0  0  0  0  0  0
    3.8136    2.3293   -4.5692 H   0  0  0  0  0  0  0  0  0  0  0  0
    5.3328    1.7662   -3.7762 H   0  0  0  0  0  0  0  0  0  0  0  0
    3.9784    0.6135   -4.0371 H   0  0  0  0  0  0  0  0  0  0  0  0
    1.6145    2.1980   -1.5413 H   0  0  0  0  0  0  0  0  0  0  0  0
    1.6981    2.4490   -3.3019 H   0  0  0  0  0  0  0  0  0  0  0  0
    1.8555    0.7866   -2.6303 H   0  0  0  0  0  0  0  0  0  0  0  0
  1  2  1  0
  1  3  1  0
  3  4  1  0
  4  5  1  0
  5  6  1  0
  6  7  2  0
  7  8  1  0
  8  9  2  0
  9 10  1  0
 10 11  2  0
  4 12  1  0
 12 13  1  0
 12 14  1  0
 14 15  1  0
 15 16  1  0
 16 17  1  0
 17 18  2  0
 18 19  1  0
 19 20  1  0
 20 21  1  0
 20 22  2  0
 19 23  2  0
 23 24  1  0
 24 25  1  0
 25 26  1  0
 26 27  1  0
 26 28  2  0
 23 29  1  0
 29 30  2  0
 15 31  1  0
 31 32  1  0
 31 33  1  0
 33 34  1  0
 34 35  1  0
 35 36  1  0
 36 37  1  0
 37 38  1  0
  1 39  1  0
 39 40  1  0
 40 41  1  0
 40 42  1  0
 40 43  1  0
 11  6  1  0
 30 17  1  0
  1 44  1  6
  2 45  1  0
  3 46  1  0
  4 47  1  6
  5 48  1  0
  5 49  1  0
  7 50  1  0
  8 51  1  0
  9 52  1  0
 10 53  1  0
 11 54  1  0
 12 55  1  1
 13 56  1  0
 14 57  1  0
 15 58  1  1
 16 59  1  0
 16 60  1  0
 18 61  1  0
 21 62  1  0
 25 63  1  0
 25 64  1  0
 27 65  1  0
 29 66  1  0
 30 67  1  0
 31 68  1  1
 32 69  1  0
 33 70  1  0
 34 71  1  0
 34 72  1  0
 35 73  1  0
 35 74  1  0
 36 75  1  0
 36 76  1  0
 37 77  1  0
 37 78  1  0
 38 79  1  0
 38 80  1  0
 38 81  1  0
 41 82  1  0
 41 83  1  0
 41 84  1  0
 42 85  1  0
 42 86  1  0
 42 87  1  0
 43 88  1  0
 43 89  1  0
 43 90  1  0
M  END
$$$$
