
     RDKit          3D

 40 42  0  0  0  0  0  0  0  0999 V2000
    4.5676    3.5772    0.2159 C   0  0  0  0  0  0  0  0  0  0  0  0
    3.2932    2.9819    0.4421 O   0  0  0  0  0  0  0  0  0  0  0  0
    2.9943    1.6232    0.2444 C   0  0  0  0  0  0  0  0  0  0  0  0
    3.9225    0.7356   -0.1941 C   0  0  0  0  0  0  0  0  0  0  0  0
    3.5917   -0.6942   -0.4033 C   0  0  0  0  0  0  0  0  0  0  0  0
    4.4639   -1.4885   -0.8426 O   0  0  0  0  0  0  0  0  0  0  0  0
    2.2216   -1.1429   -0.0955 C   0  0  0  0  0  0  0  0  0  0  0  0
    1.2820   -0.2527    0.3492 C   0  0  0  0  0  0  0  0  0  0  0  0
    0.0965   -0.9526    0.5058 C   0  0  0  0  0  0  0  0  0  0  0  0
   -1.2320   -0.3930    0.9192 C   0  0  0  0  0  0  0  0  0  0  0  0
   -1.9089    0.1037   -0.2312 O   0  0  0  0  0  0  0  0  0  0  0  0
   -3.1768    0.7023   -0.2087 C   0  0  0  0  0  0  0  0  0  0  0  0
   -3.7229    1.1490   -1.4190 C   0  0  0  0  0  0  0  0  0  0  0  0
   -4.9839    1.7526   -1.4481 C   0  0  0  0  0  0  0  0  0  0  0  0
   -5.7096    1.9144   -0.2653 C   0  0  0  0  0  0  0  0  0  0  0  0
   -5.1751    1.4728    0.9478 C   0  0  0  0  0  0  0  0  0  0  0  0
   -3.9141    0.8685    0.9809 C   0  0  0  0  0  0  0  0  0  0  0  0
    0.3727   -2.2578    0.0939 C   0  0  0  0  0  0  0  0  0  0  0  0
   -0.6215   -3.3829    0.0283 C   0  0  0  0  0  0  0  0  0  0  0  0
    1.6862   -2.3767   -0.2329 N   0  0  0  0  0  0  0  0  0  0  0  0
    2.3728   -3.5775   -0.7125 C   0  0  0  0  0  0  0  0  0  0  0  0
    1.6076    1.1722    0.5298 C   0  0  0  0  0  0  0  0  0  0  0  0
    0.7346    1.9980    0.9064 O   0  0  0  0  0  0  0  0  0  0  0  0
    4.8581    3.4648   -0.8501 H   0  0  0  0  0  0  0  0  0  0  0  0
    4.5097    4.6587    0.4553 H   0  0  0  0  0  0  0  0  0  0  0  0
    5.3304    3.1086    0.8730 H   0  0  0  0  0  0  0  0  0  0  0  0
    4.9336    1.0536   -0.4091 H   0  0  0  0  0  0  0  0  0  0  0  0
   -1.0848    0.4231    1.6564 H   0  0  0  0  0  0  0  0  0  0  0  0
   -1.8410   -1.1816    1.4087 H   0  0  0  0  0  0  0  0  0  0  0  0
   -3.1670    1.0275   -2.3401 H   0  0  0  0  0  0  0  0  0  0  0  0
   -5.3981    2.0948   -2.3876 H   0  0  0  0  0  0  0  0  0  0  0  0
   -6.6856    2.3818   -0.2886 H   0  0  0  0  0  0  0  0  0  0  0  0
   -5.7383    1.5986    1.8635 H   0  0  0  0  0  0  0  0  0  0  0  0
   -3.5234    0.5355    1.9326 H   0  0  0  0  0  0  0  0  0  0  0  0
   -0.4662   -3.9750   -0.8970 H   0  0  0  0  0  0  0  0  0  0  0  0
   -0.4966   -4.0398    0.9138 H   0  0  0  0  0  0  0  0  0  0  0  0
   -1.6618   -3.0005    0.0005 H   0  0  0  0  0  0  0  0  0  0  0  0
    1.7861   -4.4919   -0.4897 H   0  0  0  0  0  0  0  0  0  0  0  0
    3.3506   -3.6870   -0.1993 H   0  0  0  0  0  0  0  0  0  0  0  0
    2.5321   -3.5041   -1.8085 H   0  0  0  0  0  0  0  0  0  0  0  0
  1  2  1  0
  2  3  1  0
  3  4  2  0
  4  5  1  0
  5  6  2  0
  5  7  1  0
  7  8  2  0
  8  9  1  0
  9 10  1  0
 10 11  1  0
 11 12  1  0
 12 13  2  0
 13 14  1  0
 14 15  2  0
 15 16  1  0
 16 17  2  0
  9 18  2  0
 18 19  1  0
 18 20  1  0
 20 21  1  0
  8 22  1  0
 22 23  2  0
 22  3  1  0
 20  7  1  0
 17 12  1  0
  1 24  1  0
  1 25  1  0
  1 26  1  0
  4 27  1  0
 10 28  1  0
 10 29  1  0
 13 30  1  0
 14 31  1  0
 15 32  1  0
 16 33  1  0
 17 34  1  0
 19 35  1  0
 19 36  1  0
 19 37  1  0
 21 38  1  0
 21 39  1  0
 21 40  1  0
M  END
$$$$
