
     RDKit          3D

 46 48  0  0  0  0  0  0  0  0999 V2000
   -1.9707   -2.8542   -1.2639 C   0  0  0  0  0  0  0  0  0  0  0  0
   -2.5709   -2.3380    0.0532 C   0  0  0  0  0  0  0  0  0  0  0  0
   -1.4542   -1.9464    1.0647 C   0  0  0  0  0  0  0  0  0  0  0  0
   -1.5304   -0.4877    1.5350 C   0  0  0  0  0  0  0  0  0  0  0  0
   -1.7828    0.4036    0.3979 N   0  0  0  0  0  0  0  0  0  0  0  0
   -2.8786    0.1283   -0.5379 C   0  0  0  0  0  0  0  0  0  0  0  0
   -3.5799   -1.1962   -0.2062 C   0  0  0  0  0  0  0  0  0  0  0  0
   -1.0121    1.6052    0.2458 C   0  0  0  0  0  0  0  0  0  0  0  0
   -1.6076    2.8486    0.4970 C   0  0  0  0  0  0  0  0  0  0  0  0
   -0.8601    4.0234    0.3944 C   0  0  0  0  0  0  0  0  0  0  0  0
    0.4906    3.9717    0.0226 C   0  0  0  0  0  0  0  0  0  0  0  0
    1.3014    5.2357   -0.0610 C   0  0  0  0  0  0  0  0  0  0  0  0
    1.8178    5.5598    1.2005 O   0  0  0  0  0  0  0  0  0  0  0  0
    1.0930    2.7279   -0.2196 C   0  0  0  0  0  0  0  0  0  0  0  0
    0.3501    1.5405   -0.1084 C   0  0  0  0  0  0  0  0  0  0  0  0
    0.9491    0.2740   -0.4244 N   0  0  0  0  0  0  0  0  0  0  0  0
    2.2266   -0.1409    0.0863 C   0  0  0  0  0  0  0  0  0  0  0  0
    2.8609    0.6009    0.8842 O   0  0  0  0  0  0  0  0  0  0  0  0
    2.8034   -1.4471   -0.2755 C   0  0  0  0  0  0  0  0  0  0  0  0
    2.2598   -2.3903   -1.1341 C   0  0  0  0  0  0  0  0  0  0  0  0
    3.1521   -3.4416   -1.1530 C   0  0  0  0  0  0  0  0  0  0  0  0
    4.1778   -3.0722   -0.3095 C   0  0  0  0  0  0  0  0  0  0  0  0
    3.9483   -1.8851    0.1988 O   0  0  0  0  0  0  0  0  0  0  0  0
    5.3416   -3.8613   -0.0155 C   0  0  0  0  0  0  0  0  0  0  0  0
    6.2791   -4.4969    0.2213 N   0  0  0  0  0  0  0  0  0  0  0  0
   -2.7775   -3.1756   -1.9565 H   0  0  0  0  0  0  0  0  0  0  0  0
   -1.3184   -3.7315   -1.0659 H   0  0  0  0  0  0  0  0  0  0  0  0
   -1.3645   -2.0673   -1.7592 H   0  0  0  0  0  0  0  0  0  0  0  0
   -3.1468   -3.1838    0.4914 H   0  0  0  0  0  0  0  0  0  0  0  0
   -0.4458   -2.1187    0.6288 H   0  0  0  0  0  0  0  0  0  0  0  0
   -1.5202   -2.6045    1.9585 H   0  0  0  0  0  0  0  0  0  0  0  0
   -2.3541   -0.3756    2.2728 H   0  0  0  0  0  0  0  0  0  0  0  0
   -0.5812   -0.2177    2.0487 H   0  0  0  0  0  0  0  0  0  0  0  0
   -3.6237    0.9515   -0.4978 H   0  0  0  0  0  0  0  0  0  0  0  0
   -2.4728    0.0824   -1.5713 H   0  0  0  0  0  0  0  0  0  0  0  0
   -4.2746   -1.4677   -1.0307 H   0  0  0  0  0  0  0  0  0  0  0  0
   -4.2010   -1.0526    0.7053 H   0  0  0  0  0  0  0  0  0  0  0  0
   -2.6483    2.9039    0.7903 H   0  0  0  0  0  0  0  0  0  0  0  0
   -1.3344    4.9739    0.6051 H   0  0  0  0  0  0  0  0  0  0  0  0
    0.6599    6.0729   -0.4100 H   0  0  0  0  0  0  0  0  0  0  0  0
    2.1256    5.1294   -0.8030 H   0  0  0  0  0  0  0  0  0  0  0  0
    2.5781    4.9420    1.3630 H   0  0  0  0  0  0  0  0  0  0  0  0
    2.1331    2.6865   -0.5187 H   0  0  0  0  0  0  0  0  0  0  0  0
    0.3671   -0.4131   -0.9501 H   0  0  0  0  0  0  0  0  0  0  0  0
    1.3322   -2.3338   -1.6862 H   0  0  0  0  0  0  0  0  0  0  0  0
    3.0627   -4.3621   -1.7149 H   0  0  0  0  0  0  0  0  0  0  0  0
  1  2  1  0
  2  3  1  0
  3  4  1  0
  4  5  1  0
  5  6  1  0
  6  7  1  0
  5  8  1  0
  8  9  2  0
  9 10  1  0
 10 11  2  0
 11 12  1  0
 12 13  1  0
 11 14  1  0
 14 15  2  0
 15 16  1  0
 16 17  1  0
 17 18  2  0
 17 19  1  0
 19 20  2  0
 20 21  1  0
 21 22  2  0
 22 23  1  0
 22 24  1  0
 24 25  3  0
  7  2  1  0
 15  8  1  0
 23 19  1  0
  1 26  1  0
  1 27  1  0
  1 28  1  0
  2 29  1  0
  3 30  1  0
  3 31  1  0
  4 32  1  0
  4 33  1  0
  6 34  1  0
  6 35  1  0
  7 36  1  0
  7 37  1  0
  9 38  1  0
 10 39  1  0
 12 40  1  0
 12 41  1  0
 13 42  1  0
 14 43  1  0
 16 44  1  0
 20 45  1  0
 21 46  1  0
M  END
$$$$
