
     RDKit          3D

 53 56  0  0  0  0  0  0  0  0999 V2000
   -4.4453    0.7495    1.6900 C   0  0  0  0  0  0  0  0  0  0  0  0
   -3.6570    1.5003    0.6219 C   0  0  0  0  0  0  0  0  0  0  0  0
   -3.7115    0.7729   -0.6977 C   0  0  0  0  0  0  0  0  0  0  0  0
   -4.7000    1.1047   -1.5700 N   0  0  0  0  0  0  0  0  0  0  0  0
   -4.8438    0.4671   -2.7585 C   0  0  0  0  0  0  0  0  0  0  0  0
   -5.8893    0.8467   -3.6500 N   0  0  0  0  0  0  0  0  0  0  0  0
   -3.9933   -0.5340   -3.0965 N   0  0  0  0  0  0  0  0  0  0  0  0
   -2.9898   -0.9233   -2.2678 C   0  0  0  0  0  0  0  0  0  0  0  0
   -2.1184   -1.9785   -2.6893 N   0  0  0  0  0  0  0  0  0  0  0  0
   -2.8217   -0.2758   -1.0255 C   0  0  0  0  0  0  0  0  0  0  0  0
   -1.7505   -0.6916   -0.0974 C   0  0  0  0  0  0  0  0  0  0  0  0
   -0.5693    0.0737    0.0010 C   0  0  0  0  0  0  0  0  0  0  0  0
    0.4240   -0.3547    0.8864 C   0  0  0  0  0  0  0  0  0  0  0  0
    0.2628   -1.5066    1.6305 C   0  0  0  0  0  0  0  0  0  0  0  0
   -0.8862   -2.2891    1.5479 C   0  0  0  0  0  0  0  0  0  0  0  0
   -1.9019   -1.8707    0.6723 C   0  0  0  0  0  0  0  0  0  0  0  0
    1.4217   -1.6653    2.3556 C   0  0  0  0  0  0  0  0  0  0  0  0
    1.8239   -2.6594    3.2456 C   0  0  0  0  0  0  0  0  0  0  0  0
    3.1078   -2.5535    3.8078 C   0  0  0  0  0  0  0  0  0  0  0  0
    3.9528   -1.4749    3.4671 C   0  0  0  0  0  0  0  0  0  0  0  0
    3.5234   -0.4864    2.5627 C   0  0  0  0  0  0  0  0  0  0  0  0
    2.2387   -0.6026    2.0213 C   0  0  0  0  0  0  0  0  0  0  0  0
    1.6295    0.2198    1.1296 N   0  0  0  0  0  0  0  0  0  0  0  0
    2.1940    1.4091    0.4849 C   0  0  0  0  0  0  0  0  0  0  0  0
    2.9250    1.0134   -0.8001 C   0  0  0  0  0  0  0  0  0  0  0  0
    3.5274    2.2374   -1.4958 C   0  0  0  0  0  0  0  0  0  0  0  0
    4.1327    1.8552   -2.7168 O   0  0  0  0  0  0  0  0  0  0  0  0
    5.5199    1.6675   -2.5417 C   0  0  0  0  0  0  0  0  0  0  0  0
   -4.4127    1.3176    2.6434 H   0  0  0  0  0  0  0  0  0  0  0  0
   -4.0075   -0.2557    1.8629 H   0  0  0  0  0  0  0  0  0  0  0  0
   -5.5059    0.6377    1.3785 H   0  0  0  0  0  0  0  0  0  0  0  0
   -2.6098    1.6419    0.9600 H   0  0  0  0  0  0  0  0  0  0  0  0
   -4.0956    2.5146    0.5010 H   0  0  0  0  0  0  0  0  0  0  0  0
   -6.0061    0.3593   -4.5660 H   0  0  0  0  0  0  0  0  0  0  0  0
   -6.5481    1.6157   -3.3952 H   0  0  0  0  0  0  0  0  0  0  0  0
   -2.2766   -2.4460   -3.6094 H   0  0  0  0  0  0  0  0  0  0  0  0
   -1.3047   -2.2920   -2.1160 H   0  0  0  0  0  0  0  0  0  0  0  0
   -0.4408    0.9653   -0.5986 H   0  0  0  0  0  0  0  0  0  0  0  0
   -0.9946   -3.1934    2.1324 H   0  0  0  0  0  0  0  0  0  0  0  0
   -2.8055   -2.4617    0.5882 H   0  0  0  0  0  0  0  0  0  0  0  0
    1.1749   -3.4890    3.4941 H   0  0  0  0  0  0  0  0  0  0  0  0
    3.4532   -3.3078    4.5028 H   0  0  0  0  0  0  0  0  0  0  0  0
    4.9413   -1.4097    3.9027 H   0  0  0  0  0  0  0  0  0  0  0  0
    4.1798    0.3311    2.2979 H   0  0  0  0  0  0  0  0  0  0  0  0
    2.8942    1.9203    1.1793 H   0  0  0  0  0  0  0  0  0  0  0  0
    1.3850    2.1350    0.2555 H   0  0  0  0  0  0  0  0  0  0  0  0
    2.2107    0.5149   -1.4912 H   0  0  0  0  0  0  0  0  0  0  0  0
    3.7322    0.2914   -0.5516 H   0  0  0  0  0  0  0  0  0  0  0  0
    2.7069    2.9473   -1.7349 H   0  0  0  0  0  0  0  0  0  0  0  0
    4.2189    2.7769   -0.8043 H   0  0  0  0  0  0  0  0  0  0  0  0
    5.9474    1.2815   -3.4897 H   0  0  0  0  0  0  0  0  0  0  0  0
    6.0225    2.6332   -2.3132 H   0  0  0  0  0  0  0  0  0  0  0  0
    5.7352    0.9205   -1.7460 H   0  0  0  0  0  0  0  0  0  0  0  0
  1  2  1  0
  2  3  1  0
  3  4  2  0
  4  5  1  0
  5  6  1  0
  5  7  2  0
  7  8  1  0
  8  9  1  0
  8 10  2  0
 10 11  1  0
 11 12  2  0
 12 13  1  0
 13 14  2  0
 14 15  1  0
 15 16  2  0
 14 17  1  0
 17 18  2  0
 18 19  1  0
 19 20  2  0
 20 21  1  0
 21 22  2  0
 22 23  1  0
 23 24  1  0
 24 25  1  0
 25 26  1  0
 26 27  1  0
 27 28  1  0
 10  3  1  0
 16 11  1  0
 22 17  1  0
 23 13  1  0
  1 29  1  0
  1 30  1  0
  1 31  1  0
  2 32  1  0
  2 33  1  0
  6 34  1  0
  6 35  1  0
  9 36  1  0
  9 37  1  0
 12 38  1  0
 15 39  1  0
 16 40  1  0
 18 41  1  0
 19 42  1  0
 20 43  1  0
 21 44  1  0
 24 45  1  0
 24 46  1  0
 25 47  1  0
 25 48  1  0
 26 49  1  0
 26 50  1  0
 28 51  1  0
 28 52  1  0
 28 53  1  0
M  END
$$$$
