
     RDKit          3D

 51 54  0  0  0  0  0  0  0  0999 V2000
   -3.9871   -0.0219   -0.7887 C   0  0  1  0  0  0  0  0  0  0  0  0
   -5.0619   -0.7812   -0.2977 O   0  0  0  0  0  0  0  0  0  0  0  0
   -4.1458    1.4657   -0.4080 C   0  0  0  0  0  0  0  0  0  0  0  0
   -2.7447    1.9764   -0.0267 C   0  0  0  0  0  0  0  0  0  0  0  0
   -1.8163    0.8384   -0.4287 C   0  0  1  0  0  0  0  0  0  0  0  0
   -0.3964    0.7877    0.1766 C   0  0  2  0  0  0  0  0  0  0  0  0
    0.3667    2.1021   -0.1508 C   0  0  0  0  0  0  0  0  0  0  0  0
    1.8975    1.9394   -0.1926 C   0  0  0  0  0  0  0  0  0  0  0  0
    2.3599    0.7984    0.7285 C   0  0  2  0  0  0  0  0  0  0  0  0
    3.8882    0.8533    0.9770 C   0  0  0  0  0  0  0  0  0  0  0  0
    4.6514    0.1874   -0.1227 C   0  0  0  0  0  0  0  0  0  0  0  0
    5.6181    0.7350   -0.6305 O   0  0  0  0  0  0  0  0  0  0  0  0
    4.2439   -1.1855   -0.5453 C   0  0  0  0  0  0  0  0  0  0  0  0
    2.7573   -1.1803   -0.9037 C   0  0  0  0  0  0  0  0  0  0  0  0
    1.8273   -0.6013    0.2167 C   0  0  1  0  0  0  0  0  0  0  0  0
    1.8271   -1.5716    1.4299 C   0  0  0  0  0  0  0  0  0  0  0  0
    0.3667   -0.4475   -0.4042 C   0  0  1  0  0  0  0  0  0  0  0  0
   -0.4779   -1.7679   -0.3927 C   0  0  0  0  0  0  0  0  0  0  0  0
   -1.9212   -1.5903   -0.9150 C   0  0  0  0  0  0  0  0  0  0  0  0
   -2.6300   -0.4334   -0.1791 C   0  0  2  0  0  0  0  0  0  0  0  0
   -2.8170   -0.7759    1.3345 C   0  0  0  0  0  0  0  0  0  0  0  0
   -3.9509   -0.0978   -1.9021 H   0  0  0  0  0  0  0  0  0  0  0  0
   -4.9897   -1.6757   -0.7218 H   0  0  0  0  0  0  0  0  0  0  0  0
   -4.8368    1.5861    0.4553 H   0  0  0  0  0  0  0  0  0  0  0  0
   -4.5504    2.0405   -1.2695 H   0  0  0  0  0  0  0  0  0  0  0  0
   -2.6799    2.1664    1.0670 H   0  0  0  0  0  0  0  0  0  0  0  0
   -2.4963    2.9115   -0.5744 H   0  0  0  0  0  0  0  0  0  0  0  0
   -1.6784    0.9467   -1.5340 H   0  0  0  0  0  0  0  0  0  0  0  0
   -0.4585    0.6969    1.2811 H   0  0  0  0  0  0  0  0  0  0  0  0
    0.1024    2.8611    0.6181 H   0  0  0  0  0  0  0  0  0  0  0  0
    0.0469    2.5131   -1.1338 H   0  0  0  0  0  0  0  0  0  0  0  0
    2.3600    2.9026    0.1154 H   0  0  0  0  0  0  0  0  0  0  0  0
    2.2262    1.7345   -1.2347 H   0  0  0  0  0  0  0  0  0  0  0  0
    1.9004    1.0094    1.7221 H   0  0  0  0  0  0  0  0  0  0  0  0
    4.2287    1.9047    1.1010 H   0  0  0  0  0  0  0  0  0  0  0  0
    4.1300    0.3332    1.9279 H   0  0  0  0  0  0  0  0  0  0  0  0
    4.8344   -1.5075   -1.4310 H   0  0  0  0  0  0  0  0  0  0  0  0
    4.4440   -1.9038    0.2772 H   0  0  0  0  0  0  0  0  0  0  0  0
    2.4514   -2.2188   -1.1553 H   0  0  0  0  0  0  0  0  0  0  0  0
    2.6499   -0.5835   -1.8363 H   0  0  0  0  0  0  0  0  0  0  0  0
    1.0464   -1.2766    2.1635 H   0  0  0  0  0  0  0  0  0  0  0  0
    1.6483   -2.6204    1.1117 H   0  0  0  0  0  0  0  0  0  0  0  0
    2.8002   -1.5659    1.9606 H   0  0  0  0  0  0  0  0  0  0  0  0
    0.4807   -0.2098   -1.4871 H   0  0  0  0  0  0  0  0  0  0  0  0
   -0.5433   -2.1983    0.6245 H   0  0  0  0  0  0  0  0  0  0  0  0
    0.0285   -2.5276   -1.0256 H   0  0  0  0  0  0  0  0  0  0  0  0
   -2.4863   -2.5366   -0.7704 H   0  0  0  0  0  0  0  0  0  0  0  0
   -1.8856   -1.3916   -2.0092 H   0  0  0  0  0  0  0  0  0  0  0  0
   -3.3779   -1.7286    1.4420 H   0  0  0  0  0  0  0  0  0  0  0  0
   -1.8602   -0.9030    1.8742 H   0  0  0  0  0  0  0  0  0  0  0  0
   -3.3900    0.0117    1.8663 H   0  0  0  0  0  0  0  0  0  0  0  0
  1  2  1  0
  1  3  1  0
  3  4  1  0
  4  5  1  0
  5  6  1  0
  6  7  1  0
  7  8  1  0
  8  9  1  0
  9 10  1  0
 10 11  1  0
 11 12  2  0
 11 13  1  0
 13 14  1  0
 14 15  1  0
 15 16  1  1
 15 17  1  0
 17 18  1  0
 18 19  1  0
 19 20  1  0
 20 21  1  1
 20  1  1  0
 20  5  1  0
 17  6  1  0
 15  9  1  0
  1 22  1  6
  2 23  1  0
  3 24  1  0
  3 25  1  0
  4 26  1  0
  4 27  1  0
  5 28  1  6
  6 29  1  1
  7 30  1  0
  7 31  1  0
  8 32  1  0
  8 33  1  0
  9 34  1  1
 10 35  1  0
 10 36  1  0
 13 37  1  0
 13 38  1  0
 14 39  1  0
 14 40  1  0
 16 41  1  0
 16 42  1  0
 16 43  1  0
 17 44  1  6
 18 45  1  0
 18 46  1  0
 19 47  1  0
 19 48  1  0
 21 49  1  0
 21 50  1  0
 21 51  1  0
M  END
$$$$
