
     RDKit          3D

 61 64  0  0  0  0  0  0  0  0999 V2000
   -5.6614    0.5951   -1.8590 C   0  0  0  0  0  0  0  0  0  0  0  0
   -5.8425   -0.6524   -0.9896 C   0  0  0  0  0  0  0  0  0  0  0  0
   -6.6475   -1.7397   -1.7147 C   0  0  0  0  0  0  0  0  0  0  0  0
   -6.4157   -0.2969    0.3273 N   0  0  0  0  0  0  0  0  0  0  0  0
   -7.7101   -0.0391    0.6665 C   0  0  0  0  0  0  0  0  0  0  0  0
   -8.8849   -0.0683   -0.2620 C   0  0  0  0  0  0  0  0  0  0  0  0
   -7.8670    0.2263    1.9806 N   0  0  0  0  0  0  0  0  0  0  0  0
   -6.6268    0.1582    2.4926 C   0  0  0  0  0  0  0  0  0  0  0  0
   -5.7321   -0.1433    1.4888 C   0  0  0  0  0  0  0  0  0  0  0  0
   -4.2632   -0.2113    1.6646 C   0  0  0  0  0  0  0  0  0  0  0  0
   -3.4369    0.2521    0.6887 N   0  0  0  0  0  0  0  0  0  0  0  0
   -2.0850    0.2261    0.8271 C   0  0  0  0  0  0  0  0  0  0  0  0
   -1.2579    0.7459   -0.2235 N   0  0  0  0  0  0  0  0  0  0  0  0
    0.1667    0.5674   -0.2947 C   0  0  0  0  0  0  0  0  0  0  0  0
    0.7756   -0.6326    0.1085 C   0  0  0  0  0  0  0  0  0  0  0  0
    2.1604   -0.7919    0.0071 C   0  0  0  0  0  0  0  0  0  0  0  0
    2.9641    0.2399   -0.5114 C   0  0  0  0  0  0  0  0  0  0  0  0
    2.3459    1.4281   -0.9403 C   0  0  0  0  0  0  0  0  0  0  0  0
    0.9610    1.5855   -0.8383 C   0  0  0  0  0  0  0  0  0  0  0  0
    4.3957    0.0753   -0.6205 N   0  0  0  0  0  0  0  0  0  0  0  0
    5.0974    0.5879   -1.8081 C   0  0  0  0  0  0  0  0  0  0  0  0
    6.4845   -0.0431   -1.9619 C   0  0  0  0  0  0  0  0  0  0  0  0
    7.2352    0.0557   -0.7022 N   0  0  0  0  0  0  0  0  0  0  0  0
    6.5440   -0.1616    0.5793 C   0  0  0  0  0  0  0  0  0  0  0  0
    5.1286   -0.7152    0.3791 C   0  0  0  0  0  0  0  0  0  0  0  0
    8.6661    0.2515   -0.7323 C   0  0  0  0  0  0  0  0  0  0  0  0
    9.2964    0.1048   -1.8157 O   0  0  0  0  0  0  0  0  0  0  0  0
    9.4375    0.5775    0.5202 C   0  0  0  0  0  0  0  0  0  0  0  0
   10.6914    1.1240    0.2100 O   0  0  0  0  0  0  0  0  0  0  0  0
   -1.5371   -0.2426    1.9810 N   0  0  0  0  0  0  0  0  0  0  0  0
   -2.3192   -0.7053    2.9894 C   0  0  0  0  0  0  0  0  0  0  0  0
   -3.7065   -0.6974    2.8547 C   0  0  0  0  0  0  0  0  0  0  0  0
   -5.0427    1.3449   -1.3226 H   0  0  0  0  0  0  0  0  0  0  0  0
   -6.6377    1.0574   -2.1068 H   0  0  0  0  0  0  0  0  0  0  0  0
   -5.1440    0.3275   -2.8048 H   0  0  0  0  0  0  0  0  0  0  0  0
   -4.8388   -1.1009   -0.8375 H   0  0  0  0  0  0  0  0  0  0  0  0
   -6.0139   -2.2158   -2.4936 H   0  0  0  0  0  0  0  0  0  0  0  0
   -6.9631   -2.5271   -0.9976 H   0  0  0  0  0  0  0  0  0  0  0  0
   -7.5369   -1.3234   -2.2282 H   0  0  0  0  0  0  0  0  0  0  0  0
   -9.1574   -1.1185   -0.4925 H   0  0  0  0  0  0  0  0  0  0  0  0
   -9.7593    0.4151    0.2226 H   0  0  0  0  0  0  0  0  0  0  0  0
   -8.6666    0.4896   -1.1929 H   0  0  0  0  0  0  0  0  0  0  0  0
   -6.3905    0.3508    3.5308 H   0  0  0  0  0  0  0  0  0  0  0  0
   -1.7145    1.3561   -0.9390 H   0  0  0  0  0  0  0  0  0  0  0  0
    0.1807   -1.4587    0.4747 H   0  0  0  0  0  0  0  0  0  0  0  0
    2.6002   -1.7327    0.3114 H   0  0  0  0  0  0  0  0  0  0  0  0
    2.9335    2.2418   -1.3435 H   0  0  0  0  0  0  0  0  0  0  0  0
    0.5058    2.5097   -1.1722 H   0  0  0  0  0  0  0  0  0  0  0  0
    5.2109    1.6897   -1.7197 H   0  0  0  0  0  0  0  0  0  0  0  0
    4.5046    0.3638   -2.7218 H   0  0  0  0  0  0  0  0  0  0  0  0
    6.3817   -1.1134   -2.2437 H   0  0  0  0  0  0  0  0  0  0  0  0
    7.0155    0.4846   -2.7839 H   0  0  0  0  0  0  0  0  0  0  0  0
    7.1141   -0.8872    1.1989 H   0  0  0  0  0  0  0  0  0  0  0  0
    6.4819    0.8029    1.1277 H   0  0  0  0  0  0  0  0  0  0  0  0
    5.1854   -1.7721    0.0394 H   0  0  0  0  0  0  0  0  0  0  0  0
    4.6028   -0.6881    1.3587 H   0  0  0  0  0  0  0  0  0  0  0  0
    8.8636    1.2883    1.1554 H   0  0  0  0  0  0  0  0  0  0  0  0
    9.5917   -0.3573    1.0981 H   0  0  0  0  0  0  0  0  0  0  0  0
   10.5288    2.0589   -0.0827 H   0  0  0  0  0  0  0  0  0  0  0  0
   -1.8632   -1.0767    3.8973 H   0  0  0  0  0  0  0  0  0  0  0  0
   -4.3294   -1.0696    3.6583 H   0  0  0  0  0  0  0  0  0  0  0  0
  1  2  1  0
  2  3  1  0
  2  4  1  0
  4  5  1  0
  5  6  1  0
  5  7  2  0
  7  8  1  0
  8  9  2  0
  9 10  1  0
 10 11  2  0
 11 12  1  0
 12 13  1  0
 13 14  1  0
 14 15  2  0
 15 16  1  0
 16 17  2  0
 17 18  1  0
 18 19  2  0
 17 20  1  0
 20 21  1  0
 21 22  1  0
 22 23  1  0
 23 24  1  0
 24 25  1  0
 23 26  1  0
 26 27  2  0
 26 28  1  0
 28 29  1  0
 12 30  2  0
 30 31  1  0
 31 32  2  0
  9  4  1  0
 32 10  1  0
 19 14  1  0
 25 20  1  0
  1 33  1  0
  1 34  1  0
  1 35  1  0
  2 36  1  0
  3 37  1  0
  3 38  1  0
  3 39  1  0
  6 40  1  0
  6 41  1  0
  6 42  1  0
  8 43  1  0
 13 44  1  0
 15 45  1  0
 16 46  1  0
 18 47  1  0
 19 48  1  0
 21 49  1  0
 21 50  1  0
 22 51  1  0
 22 52  1  0
 24 53  1  0
 24 54  1  0
 25 55  1  0
 25 56  1  0
 28 57  1  0
 28 58  1  0
 29 59  1  0
 31 60  1  0
 32 61  1  0
M  END
$$$$
