
     RDKit          3D

 36 38  0  0  0  0  0  0  0  0999 V2000
   -4.3313    2.3366    0.9357 N   0  0  0  0  0  0  0  0  0  0  0  0
   -3.7937    1.1293    0.3965 C   0  0  0  0  0  0  0  0  0  0  0  0
   -2.4397    1.0161    0.2014 N   0  0  0  0  0  0  0  0  0  0  0  0
   -1.8684   -0.1174   -0.3122 C   0  0  0  0  0  0  0  0  0  0  0  0
   -0.4882   -0.2176   -0.5044 O   0  0  0  0  0  0  0  0  0  0  0  0
    0.4124    0.8370   -0.1784 C   0  0  0  0  0  0  0  0  0  0  0  0
    1.8540    0.4133   -0.4955 C   0  0  0  0  0  0  0  0  0  0  0  0
    2.8206    1.5937   -0.2720 C   0  0  0  0  0  0  0  0  0  0  0  0
    4.2702    1.1833   -0.5599 C   0  0  0  0  0  0  0  0  0  0  0  0
    4.6814   -0.0205    0.2954 C   0  0  0  0  0  0  0  0  0  0  0  0
    3.7270   -1.2001    0.0769 C   0  0  0  0  0  0  0  0  0  0  0  0
    2.2759   -0.7959    0.3658 C   0  0  0  0  0  0  0  0  0  0  0  0
   -2.7070   -1.1766   -0.6399 C   0  0  0  0  0  0  0  0  0  0  0  0
   -2.3787   -2.3763   -1.1520 N   0  0  0  0  0  0  0  0  0  0  0  0
   -3.5856   -2.9929   -1.2627 C   0  0  0  0  0  0  0  0  0  0  0  0
   -4.6245   -2.2293   -0.8446 N   0  0  0  0  0  0  0  0  0  0  0  0
   -4.0489   -1.0862   -0.4551 C   0  0  0  0  0  0  0  0  0  0  0  0
   -4.6479    0.0562    0.0651 C   0  0  0  0  0  0  0  0  0  0  0  0
   -3.6985    3.1301    1.1808 H   0  0  0  0  0  0  0  0  0  0  0  0
   -5.3583    2.4438    1.0922 H   0  0  0  0  0  0  0  0  0  0  0  0
    0.3175    1.0900    0.9009 H   0  0  0  0  0  0  0  0  0  0  0  0
    0.1488    1.7356   -0.7786 H   0  0  0  0  0  0  0  0  0  0  0  0
    1.8975    0.1202   -1.5690 H   0  0  0  0  0  0  0  0  0  0  0  0
    2.5472    2.4343   -0.9465 H   0  0  0  0  0  0  0  0  0  0  0  0
    2.7431    1.9567    0.7771 H   0  0  0  0  0  0  0  0  0  0  0  0
    4.9445    2.0382   -0.3375 H   0  0  0  0  0  0  0  0  0  0  0  0
    4.3806    0.9316   -1.6377 H   0  0  0  0  0  0  0  0  0  0  0  0
    5.7137   -0.3285    0.0231 H   0  0  0  0  0  0  0  0  0  0  0  0
    4.6814    0.2666    1.3701 H   0  0  0  0  0  0  0  0  0  0  0  0
    4.0164   -2.0350    0.7508 H   0  0  0  0  0  0  0  0  0  0  0  0
    3.8128   -1.5611   -0.9717 H   0  0  0  0  0  0  0  0  0  0  0  0
    1.6165   -1.6636    0.1471 H   0  0  0  0  0  0  0  0  0  0  0  0
    2.1715   -0.5498    1.4461 H   0  0  0  0  0  0  0  0  0  0  0  0
   -3.7041   -3.9971   -1.6478 H   0  0  0  0  0  0  0  0  0  0  0  0
   -5.6384   -2.4788   -0.8309 H   0  0  0  0  0  0  0  0  0  0  0  0
   -5.7196    0.1142    0.2071 H   0  0  0  0  0  0  0  0  0  0  0  0
  1  2  1  0
  2  3  2  0
  3  4  1  0
  4  5  1  0
  5  6  1  0
  6  7  1  0
  7  8  1  0
  8  9  1  0
  9 10  1  0
 10 11  1  0
 11 12  1  0
  4 13  2  0
 13 14  1  0
 14 15  2  0
 15 16  1  0
 16 17  1  0
 17 18  2  0
 18  2  1  0
 12  7  1  0
 17 13  1  0
  1 19  1  0
  1 20  1  0
  6 21  1  0
  6 22  1  0
  7 23  1  0
  8 24  1  0
  8 25  1  0
  9 26  1  0
  9 27  1  0
 10 28  1  0
 10 29  1  0
 11 30  1  0
 11 31  1  0
 12 32  1  0
 12 33  1  0
 15 34  1  0
 16 35  1  0
 18 36  1  0
M  END
$$$$
