
     RDKit          2D

197194  0  0  0  0  0  0  0  0999 V2000
    0.0000   20.0836    0.0000 O   0  0  0  0  0  0  0  0  0  0  0  0
    0.0000   21.8336    0.0000 Na  0  0  0  0  0 15  0  0  0  0  0  0
   19.4856   11.2500    0.0000 C   0  0  0  0  0  0  0  0  0  0  0  0
   18.1865   10.5000    0.0000 C   0  0  0  0  0  0  0  0  0  0  0  0
   16.8875    9.7500    0.0000 C   0  0  0  0  0  0  0  0  0  0  0  0
   15.5885    9.0000    0.0000 C   0  0  0  0  0  0  0  0  0  0  0  0
   14.2894    8.2500    0.0000 C   0  0  0  0  0  0  0  0  0  0  0  0
   12.9904    7.5000    0.0000 C   0  0  0  0  0  0  0  0  0  0  0  0
   11.6913    6.7500    0.0000 C   0  0  0  0  0  0  0  0  0  0  0  0
   10.3923    6.0000    0.0000 C   0  0  0  0  0  0  0  0  0  0  0  0
    9.0933    5.2500    0.0000 C   0  0  0  0  0  0  0  0  0  0  0  0
    7.7942    4.5000    0.0000 C   0  0  0  0  0  0  0  0  0  0  0  0
    6.4952    3.7500    0.0000 C   0  0  0  0  0  0  0  0  0  0  0  0
    5.1962    3.0000    0.0000 C   0  0  0  0  0  0  0  0  0  0  0  0
    3.8971    2.2500    0.0000 C   0  0  0  0  0  0  0  0  0  0  0  0
    2.5981    1.5000    0.0000 C   0  0  0  0  0  0  0  0  0  0  0  0
    1.2990    0.7500    0.0000 C   0  0  0  0  0  0  0  0  0  0  0  0
    0.0000    0.0000    0.0000 C   0  0  0  0  0  0  0  0  0  0  0  0
   -1.2990    0.7500    0.0000 O   0  0  0  0  0  0  0  0  0  0  0  0
   -0.0000   -1.5000    0.0000 O   0  0  0  0  0  0  0  0  0  0  0  0
   -1.2990   -2.2500    0.0000 C   0  0  0  0  0  0  0  0  0  0  0  0
   -2.5981   -3.0000    0.0000 C   0  0  0  0  0  0  0  0  0  0  0  0
   -3.8971   -3.7500    0.0000 C   0  0  0  0  0  0  0  0  0  0  0  0
   -5.1962   -4.5000    0.0000 O   0  0  0  0  0  0  0  0  0  0  0  0
   -6.4952   -3.7500    0.0000 P   0  0  0  0  0  5  0  0  0  0  0  0
   -6.0154   -3.1134    0.0000 O   0  0  0  0  0  1  0  0  0  0  0  0
   -7.2452   -5.0490    0.0000 O   0  0  0  0  0  0  0  0  0  0  0  0
   -7.7942   -3.0000    0.0000 O   0  0  0  0  0  0  0  0  0  0  0  0
   -9.0933   -3.7500    0.0000 C   0  0  0  0  0  0  0  0  0  0  0  0
  -10.3923   -4.5000    0.0000 C   0  0  0  0  0  0  0  0  0  0  0  0
  -11.6913   -5.2500    0.0000 N   0  0  0  0  0  0  0  0  0  0  0  0
  -12.9904   -4.5000    0.0000 C   0  0  0  0  0  0  0  0  0  0  0  0
  -12.9904   -3.0000    0.0000 O   0  0  0  0  0  0  0  0  0  0  0  0
  -14.2894   -5.2500    0.0000 C   0  0  0  0  0  0  0  0  0  0  0  0
  -15.5885   -6.0000    0.0000 C   0  0  0  0  0  0  0  0  0  0  0  0
  -15.0394   -3.9510    0.0000 N   0  0  0  0  0  0  0  0  0  0  0  0
  -16.5394   -3.9510    0.0000 C   0  0  0  0  0  0  0  0  0  0  0  0
  -17.2894   -5.2500    0.0000 O   0  0  0  0  0  0  0  0  0  0  0  0
  -17.2894   -2.6519    0.0000 C   0  0  0  0  0  0  0  0  0  0  0  0
  -18.0394   -1.3529    0.0000 C   0  0  0  0  0  0  0  0  0  0  0  0
  -18.7894   -0.0538    0.0000 C   0  0  0  0  0  0  0  0  0  0  0  0
  -17.4904    0.6962    0.0000 N   0  0  0  0  0  0  0  0  0  0  0  0
  -17.4904    2.1962    0.0000 C   0  0  0  0  0  0  0  0  0  0  0  0
  -16.1913    2.9462    0.0000 O   0  0  0  0  0  0  0  0  0  0  0  0
  -18.7894    2.9462    0.0000 C   0  0  0  0  0  0  0  0  0  0  0  0
  -20.0885    3.6962    0.0000 C   0  0  0  0  0  0  0  0  0  0  0  0
  -18.0394    4.2452    0.0000 N   0  0  0  0  0  0  0  0  0  0  0  0
  -18.7894    5.5442    0.0000 C   0  0  0  0  0  0  0  0  0  0  0  0
  -20.2782    5.3614    0.0000 O   0  0  0  0  0  0  0  0  0  0  0  0
  -18.0394    6.8433    0.0000 C   0  0  0  0  0  0  0  0  0  0  0  0
  -17.2894    8.1423    0.0000 C   0  0  0  0  0  0  0  0  0  0  0  0
  -19.3385    7.5933    0.0000 O   0  0  0  0  0  0  0  0  0  0  0  0
  -19.3385    9.0933    0.0000 C   0  0  0  0  0  0  0  0  0  0  0  0
  -17.8385    9.0933    0.0000 C   0  0  0  0  0  0  0  0  0  0  0  0
  -17.8385   10.5933    0.0000 O   0  0  0  0  0  0  0  0  0  0  0  0
  -16.3385    9.0933    0.0000 C   0  0  0  0  0  0  0  0  0  0  0  0
  -16.3385   10.5933    0.0000 O   0  0  0  0  0  0  0  0  0  0  0  0
  -14.8385    9.0933    0.0000 C   0  0  0  0  0  0  0  0  0  0  0  0
  -13.3385    9.0933    0.0000 O   0  0  0  0  0  0  0  0  0  0  0  0
  -20.8385    9.0933    0.0000 C   0  0  0  0  0  0  0  0  0  0  0  0
  -20.8385    7.5933    0.0000 N   0  0  0  0  0  0  0  0  0  0  0  0
  -22.1375    6.8433    0.0000 C   0  0  0  0  0  0  0  0  0  0  0  0
  -22.1375    5.3433    0.0000 C   0  0  0  0  0  0  0  0  0  0  0  0
  -23.5183    7.4293    0.0000 O   0  0  0  0  0  0  0  0  0  0  0  0
  -22.3385    9.0933    0.0000 C   0  0  0  0  0  0  0  0  0  0  0  0
  -23.0885   10.3923    0.0000 O   0  0  0  0  0  0  0  0  0  0  0  0
  -19.5394    1.2452    0.0000 C   0  0  0  0  0  0  0  0  0  0  0  0
  -21.0394    1.2452    0.0000 N   0  0  0  0  0  0  0  0  0  0  0  0
  -19.2682    2.1912    0.0000 O   0  0  0  0  0  0  0  0  0  0  0  0
   -3.3481   -1.7010    0.0000 O   0  0  0  0  0  0  0  0  0  0  0  0
   -4.8481   -1.7010    0.0000 C   0  0  0  0  0  0  0  0  0  0  0  0
   -5.1941   -2.5163    0.0000 O   0  0  0  0  0  0  0  0  0  0  0  0
   -5.5981   -0.4019    0.0000 C   0  0  0  0  0  0  0  0  0  0  0  0
   -6.3481    0.8971    0.0000 C   0  0  0  0  0  0  0  0  0  0  0  0
   -7.0981    2.1962    0.0000 C   0  0  0  0  0  0  0  0  0  0  0  0
   -7.8481    3.4952    0.0000 C   0  0  0  0  0  0  0  0  0  0  0  0
   -8.5981    4.7942    0.0000 C   0  0  0  0  0  0  0  0  0  0  0  0
   -9.3481    6.0933    0.0000 C   0  0  0  0  0  0  0  0  0  0  0  0
  -10.0981    7.3923    0.0000 C   0  0  0  0  0  0  0  0  0  0  0  0
  -10.8481    8.6913    0.0000 C   0  0  0  0  0  0  0  0  0  0  0  0
  -11.5981    9.9904    0.0000 C   0  0  0  0  0  0  0  0  0  0  0  0
  -12.3481   11.2894    0.0000 C   0  0  0  0  0  0  0  0  0  0  0  0
  -13.0981   12.5885    0.0000 C   0  0  0  0  0  0  0  0  0  0  0  0
  -13.8481   13.8875    0.0000 C   0  0  0  0  0  0  0  0  0  0  0  0
  -14.5981   15.1865    0.0000 C   0  0  0  0  0  0  0  0  0  0  0  0
  -15.3481   16.4856    0.0000 C   0  0  0  0  0  0  0  0  0  0  0  0
  -16.0981   17.7846    0.0000 C   0  0  0  0  0  0  0  0  0  0  0  0
    1.2990   20.8336    0.0000 H   0  0  0  0  0  0  0  0  0  0  0  0
   -1.2990   20.8336    0.0000 H   0  0  0  0  0  0  0  0  0  0  0  0
   20.7846   12.0000    0.0000 H   0  0  0  0  0  0  0  0  0  0  0  0
   20.2356    9.9510    0.0000 H   0  0  0  0  0  0  0  0  0  0  0  0
   18.7356   12.5490    0.0000 H   0  0  0  0  0  0  0  0  0  0  0  0
   18.9365    9.2010    0.0000 H   0  0  0  0  0  0  0  0  0  0  0  0
   17.4365   11.7990    0.0000 H   0  0  0  0  0  0  0  0  0  0  0  0
   16.1375   11.0490    0.0000 H   0  0  0  0  0  0  0  0  0  0  0  0
   17.6375    8.4510    0.0000 H   0  0  0  0  0  0  0  0  0  0  0  0
   16.3385    7.7010    0.0000 H   0  0  0  0  0  0  0  0  0  0  0  0
   14.8385   10.2990    0.0000 H   0  0  0  0  0  0  0  0  0  0  0  0
   13.5394    9.5490    0.0000 H   0  0  0  0  0  0  0  0  0  0  0  0
   15.0394    6.9510    0.0000 H   0  0  0  0  0  0  0  0  0  0  0  0
   13.7404    6.2010    0.0000 H   0  0  0  0  0  0  0  0  0  0  0  0
   12.2404    8.7990    0.0000 H   0  0  0  0  0  0  0  0  0  0  0  0
   10.9413    8.0490    0.0000 H   0  0  0  0  0  0  0  0  0  0  0  0
   12.4413    5.4510    0.0000 H   0  0  0  0  0  0  0  0  0  0  0  0
   11.1423    4.7010    0.0000 H   0  0  0  0  0  0  0  0  0  0  0  0
    9.6423    7.2990    0.0000 H   0  0  0  0  0  0  0  0  0  0  0  0
    8.3433    6.5490    0.0000 H   0  0  0  0  0  0  0  0  0  0  0  0
    9.8433    3.9510    0.0000 H   0  0  0  0  0  0  0  0  0  0  0  0
    8.5442    3.2010    0.0000 H   0  0  0  0  0  0  0  0  0  0  0  0
    7.0442    5.7990    0.0000 H   0  0  0  0  0  0  0  0  0  0  0  0
    5.7452    5.0490    0.0000 H   0  0  0  0  0  0  0  0  0  0  0  0
    7.2452    2.4510    0.0000 H   0  0  0  0  0  0  0  0  0  0  0  0
    5.9462    1.7010    0.0000 H   0  0  0  0  0  0  0  0  0  0  0  0
    4.4462    4.2990    0.0000 H   0  0  0  0  0  0  0  0  0  0  0  0
    3.1471    3.5490    0.0000 H   0  0  0  0  0  0  0  0  0  0  0  0
    4.6471    0.9510    0.0000 H   0  0  0  0  0  0  0  0  0  0  0  0
    3.3481    0.2010    0.0000 H   0  0  0  0  0  0  0  0  0  0  0  0
    1.8481    2.7990    0.0000 H   0  0  0  0  0  0  0  0  0  0  0  0
    2.0490   -0.5490    0.0000 H   0  0  0  0  0  0  0  0  0  0  0  0
    0.5490    2.0490    0.0000 H   0  0  0  0  0  0  0  0  0  0  0  0
   -2.0490   -0.9510    0.0000 H   0  0  0  0  0  0  0  0  0  0  0  0
   -0.5490   -3.5490    0.0000 H   0  0  0  0  0  0  0  0  0  0  0  0
   -1.8481   -4.2990    0.0000 H   0  0  0  0  0  0  0  0  0  0  0  0
   -3.1471   -5.0490    0.0000 H   0  0  0  0  0  0  0  0  0  0  0  0
   -4.9392   -2.6710    0.0000 H   0  0  0  0  0  0  0  0  0  0  0  0
   -8.3433   -5.0490    0.0000 H   0  0  0  0  0  0  0  0  0  0  0  0
   -9.8433   -2.4510    0.0000 H   0  0  0  0  0  0  0  0  0  0  0  0
   -9.6423   -5.7990    0.0000 H   0  0  0  0  0  0  0  0  0  0  0  0
  -11.1423   -3.2010    0.0000 H   0  0  0  0  0  0  0  0  0  0  0  0
  -11.6913   -6.7500    0.0000 H   0  0  0  0  0  0  0  0  0  0  0  0
  -13.5394   -6.5490    0.0000 H   0  0  0  0  0  0  0  0  0  0  0  0
  -16.8875   -6.7500    0.0000 H   0  0  0  0  0  0  0  0  0  0  0  0
  -14.8385   -7.2990    0.0000 H   0  0  0  0  0  0  0  0  0  0  0  0
  -16.6305   -4.9210    0.0000 H   0  0  0  0  0  0  0  0  0  0  0  0
  -14.2894   -2.6519    0.0000 H   0  0  0  0  0  0  0  0  0  0  0  0
  -18.5885   -3.4019    0.0000 H   0  0  0  0  0  0  0  0  0  0  0  0
  -15.9904   -1.9019    0.0000 H   0  0  0  0  0  0  0  0  0  0  0  0
  -16.6586   -0.7668    0.0000 H   0  0  0  0  0  0  0  0  0  0  0  0
  -19.3385   -2.1029    0.0000 H   0  0  0  0  0  0  0  0  0  0  0  0
  -20.0885   -0.8038    0.0000 H   0  0  0  0  0  0  0  0  0  0  0  0
  -16.1096    0.1101    0.0000 H   0  0  0  0  0  0  0  0  0  0  0  0
  -19.8315    1.8672    0.0000 H   0  0  0  0  0  0  0  0  0  0  0  0
  -21.3875    4.4462    0.0000 H   0  0  0  0  0  0  0  0  0  0  0  0
  -20.8385    2.3971    0.0000 H   0  0  0  0  0  0  0  0  0  0  0  0
  -19.6751    5.1381    0.0000 H   0  0  0  0  0  0  0  0  0  0  0  0
  -16.5394    4.2452    0.0000 H   0  0  0  0  0  0  0  0  0  0  0  0
  -16.7404    6.0933    0.0000 H   0  0  0  0  0  0  0  0  0  0  0  0
  -16.2474    9.2213    0.0000 H   0  0  0  0  0  0  0  0  0  0  0  0
  -16.0915    7.2396    0.0000 H   0  0  0  0  0  0  0  0  0  0  0  0
  -18.0842    9.4145    0.0000 H   0  0  0  0  0  0  0  0  0  0  0  0
  -19.3385   10.5933    0.0000 H   0  0  0  0  0  0  0  0  0  0  0  0
  -17.1341    7.7689    0.0000 H   0  0  0  0  0  0  0  0  0  0  0  0
  -16.7595   11.6353    0.0000 H   0  0  0  0  0  0  0  0  0  0  0  0
  -16.1556    7.6045    0.0000 H   0  0  0  0  0  0  0  0  0  0  0  0
  -15.2595   11.6353    0.0000 H   0  0  0  0  0  0  0  0  0  0  0  0
  -14.8385    7.5933    0.0000 H   0  0  0  0  0  0  0  0  0  0  0  0
  -14.6556   10.5821    0.0000 H   0  0  0  0  0  0  0  0  0  0  0  0
  -12.5885   10.3923    0.0000 H   0  0  0  0  0  0  0  0  0  0  0  0
  -20.8385   10.5933    0.0000 H   0  0  0  0  0  0  0  0  0  0  0  0
  -19.7595    6.5512    0.0000 H   0  0  0  0  0  0  0  0  0  0  0  0
  -22.1375    3.8433    0.0000 H   0  0  0  0  0  0  0  0  0  0  0  0
  -23.6375    5.3433    0.0000 H   0  0  0  0  0  0  0  0  0  0  0  0
  -20.6487    5.1604    0.0000 H   0  0  0  0  0  0  0  0  0  0  0  0
  -23.2412    7.8953    0.0000 H   0  0  0  0  0  0  0  0  0  0  0  0
  -21.7894    2.5442    0.0000 H   0  0  0  0  0  0  0  0  0  0  0  0
  -21.7894   -0.0538    0.0000 H   0  0  0  0  0  0  0  0  0  0  0  0
   -6.8971   -1.1519    0.0000 H   0  0  0  0  0  0  0  0  0  0  0  0
   -4.2990    0.3481    0.0000 H   0  0  0  0  0  0  0  0  0  0  0  0
   -5.0490    1.6471    0.0000 H   0  0  0  0  0  0  0  0  0  0  0  0
   -7.6471    0.1471    0.0000 H   0  0  0  0  0  0  0  0  0  0  0  0
   -8.3971    1.4462    0.0000 H   0  0  0  0  0  0  0  0  0  0  0  0
   -5.7990    2.9462    0.0000 H   0  0  0  0  0  0  0  0  0  0  0  0
   -6.5490    4.2452    0.0000 H   0  0  0  0  0  0  0  0  0  0  0  0
   -9.1471    2.7452    0.0000 H   0  0  0  0  0  0  0  0  0  0  0  0
   -9.8971    4.0442    0.0000 H   0  0  0  0  0  0  0  0  0  0  0  0
   -7.2990    5.5442    0.0000 H   0  0  0  0  0  0  0  0  0  0  0  0
   -8.0490    6.8433    0.0000 H   0  0  0  0  0  0  0  0  0  0  0  0
  -10.6471    5.3433    0.0000 H   0  0  0  0  0  0  0  0  0  0  0  0
  -11.3971    6.6423    0.0000 H   0  0  0  0  0  0  0  0  0  0  0  0
   -8.7990    8.1423    0.0000 H   0  0  0  0  0  0  0  0  0  0  0  0
   -9.5490    9.4413    0.0000 H   0  0  0  0  0  0  0  0  0  0  0  0
  -12.1471    7.9413    0.0000 H   0  0  0  0  0  0  0  0  0  0  0  0
  -12.6770    8.9483    0.0000 H   0  0  0  0  0  0  0  0  0  0  0  0
  -10.2990   10.7404    0.0000 H   0  0  0  0  0  0  0  0  0  0  0  0
  -11.0490   12.0394    0.0000 H   0  0  0  0  0  0  0  0  0  0  0  0
  -13.6471   10.5394    0.0000 H   0  0  0  0  0  0  0  0  0  0  0  0
  -14.4788   12.0024    0.0000 H   0  0  0  0  0  0  0  0  0  0  0  0
  -11.7990   13.3385    0.0000 H   0  0  0  0  0  0  0  0  0  0  0  0
  -12.5490   14.6375    0.0000 H   0  0  0  0  0  0  0  0  0  0  0  0
  -15.1471   13.1375    0.0000 H   0  0  0  0  0  0  0  0  0  0  0  0
  -15.8971   14.4365    0.0000 H   0  0  0  0  0  0  0  0  0  0  0  0
  -13.2990   15.9365    0.0000 H   0  0  0  0  0  0  0  0  0  0  0  0
  -14.0490   17.2356    0.0000 H   0  0  0  0  0  0  0  0  0  0  0  0
  -16.6471   15.7356    0.0000 H   0  0  0  0  0  0  0  0  0  0  0  0
  -16.8481   19.0836    0.0000 H   0  0  0  0  0  0  0  0  0  0  0  0
  -17.3971   17.0346    0.0000 H   0  0  0  0  0  0  0  0  0  0  0  0
  -14.7990   18.5346    0.0000 H   0  0  0  0  0  0  0  0  0  0  0  0
  3  4  1  0
  4  5  1  0
  5  6  1  0
  6  7  1  0
  7  8  1  0
  8  9  1  0
  9 10  1  0
 10 11  1  0
 11 12  1  0
 12 13  1  0
 13 14  1  0
 14 15  1  0
 15 16  1  0
 16 17  1  0
 17 18  1  0
 18 19  2  0
 18 20  1  0
 20 21  1  0
 21 22  1  0
 22 23  1  0
 23 24  1  0
 24 25  1  0
 25 26  1  0
 25 27  2  0
 25 28  1  0
 28 29  1  0
 29 30  1  0
 30 31  1  0
 31 32  1  0
 32 33  2  0
 32 34  1  0
 34 35  1  0
 34 36  1  0
 36 37  1  0
 37 38  2  0
 37 39  1  0
 39 40  1  0
 40 41  1  0
 41 42  1  0
 42 43  1  0
 43 44  2  0
 43 45  1  0
 45 46  1  0
 45 47  1  0
 47 48  1  0
 48 49  2  0
 48 50  1  0
 50 51  1  0
 50 52  1  0
 52 53  1  0
 53 54  1  0
 54 55  1  0
 54 56  1  0
 56 57  1  0
 56 58  1  0
 58 59  1  0
 53 60  1  0
 60 61  1  0
 61 62  1  0
 62 63  1  0
 62 64  2  0
 60 65  1  0
 65 66  2  0
 41 67  1  0
 67 68  1  0
 67 69  2  0
 22 70  1  0
 70 71  1  0
 71 72  2  0
 71 73  1  0
 73 74  1  0
 74 75  1  0
 75 76  1  0
 76 77  1  0
 77 78  1  0
 78 79  1  0
 79 80  1  0
 80 81  1  0
 81 82  1  0
 82 83  1  0
 83 84  1  0
 84 85  1  0
 85 86  1  0
 86 87  1  0
  1 88  1  0
  1 89  1  0
  3 90  1  0
  3 91  1  0
  3 92  1  0
  4 93  1  0
  4 94  1  0
  5 95  1  0
  5 96  1  0
  6 97  1  0
  6 98  1  0
  7 99  1  0
  7100  1  0
  8101  1  0
  8102  1  0
  9103  1  0
  9104  1  0
 10105  1  0
 10106  1  0
 11107  1  0
 11108  1  0
 12109  1  0
 12110  1  0
 13111  1  0
 13112  1  0
 14113  1  0
 14114  1  0
 15115  1  0
 15116  1  0
 16117  1  0
 16118  1  0
 17119  1  0
 17120  1  0
 21121  1  0
 21122  1  0
 22123  1  1
 23124  1  0
 23125  1  0
 29126  1  0
 29127  1  0
 30128  1  0
 30129  1  0
 31130  1  0
 34131  1  1
 35132  1  0
 35133  1  0
 35134  1  0
 36135  1  0
 39136  1  0
 39137  1  0
 40138  1  0
 40139  1  0
 41140  1  1
 42141  1  0
 45142  1  1
 46143  1  0
 46144  1  0
 46145  1  0
 47146  1  0
 50147  1  1
 51148  1  0
 51149  1  0
 51150  1  0
 53151  1  1
 54152  1  1
 55153  1  0
 56154  1  1
 57155  1  0
 58156  1  0
 58157  1  0
 59158  1  0
 60159  1  6
 61160  1  0
 63161  1  0
 63162  1  0
 63163  1  0
 65164  1  0
 68165  1  0
 68166  1  0
 73167  1  0
 73168  1  0
 74169  1  0
 74170  1  0
 75171  1  0
 75172  1  0
 76173  1  0
 76174  1  0
 77175  1  0
 77176  1  0
 78177  1  0
 78178  1  0
 79179  1  0
 79180  1  0
 80181  1  0
 80182  1  0
 81183  1  0
 81184  1  0
 82185  1  0
 82186  1  0
 83187  1  0
 83188  1  0
 84189  1  0
 84190  1  0
 85191  1  0
 85192  1  0
 86193  1  0
 86194  1  0
 87195  1  0
 87196  1  0
 87197  1  0
M  CHG  2   2   1  26  -1
M  END
$$$$
