
     RDKit          3D

 30 32  0  0  0  0  0  0  0  0999 V2000
   -2.1848    1.3255   -0.5037 C   0  0  1  0  0  0  0  0  0  0  0  0
   -3.3030    0.6106    0.2701 C   0  0  0  0  0  0  0  0  0  0  0  0
   -3.6303    1.3265    1.4307 O   0  0  0  0  0  0  0  0  0  0  0  0
   -1.0342    1.4178    0.3133 O   0  0  0  0  0  0  0  0  0  0  0  0
    0.0071    0.6915   -0.3048 C   0  0  1  0  0  0  0  0  0  0  0  0
    0.7035   -0.1291    0.6871 N   0  0  0  0  0  0  0  0  0  0  0  0
    0.1667   -0.8227    1.7259 C   0  0  0  0  0  0  0  0  0  0  0  0
    1.0805   -1.5678    2.4083 N   0  0  0  0  0  0  0  0  0  0  0  0
    2.2219   -1.3176    1.7409 C   0  0  0  0  0  0  0  0  0  0  0  0
    3.4953   -1.8186    1.9627 C   0  0  0  0  0  0  0  0  0  0  0  0
    4.4881   -1.4223    1.1117 N   0  0  0  0  0  0  0  0  0  0  0  0
    4.2376   -0.5616    0.0722 C   0  0  0  0  0  0  0  0  0  0  0  0
    2.9765   -0.0758   -0.1377 N   0  0  0  0  0  0  0  0  0  0  0  0
    1.9977   -0.4686    0.7131 C   0  0  0  0  0  0  0  0  0  0  0  0
   -0.5803   -0.1795   -1.4086 C   0  0  2  0  0  0  0  0  0  0  0  0
    0.3030   -0.3168   -2.4914 O   0  0  0  0  0  0  0  0  0  0  0  0
   -1.8266    0.5777   -1.7950 C   0  0  2  0  0  0  0  0  0  0  0  0
   -1.5945    1.4757   -2.8571 O   0  0  0  0  0  0  0  0  0  0  0  0
   -2.5371    2.3531   -0.7446 H   0  0  0  0  0  0  0  0  0  0  0  0
   -2.9978   -0.4304    0.5256 H   0  0  0  0  0  0  0  0  0  0  0  0
   -4.2106    0.5506   -0.3678 H   0  0  0  0  0  0  0  0  0  0  0  0
   -2.9595    1.0779    2.1190 H   0  0  0  0  0  0  0  0  0  0  0  0
    0.7207    1.4262   -0.7419 H   0  0  0  0  0  0  0  0  0  0  0  0
   -0.8845   -0.8001    1.9815 H   0  0  0  0  0  0  0  0  0  0  0  0
    3.7011   -2.5025    2.7752 H   0  0  0  0  0  0  0  0  0  0  0  0
    5.0426   -0.2669   -0.5866 H   0  0  0  0  0  0  0  0  0  0  0  0
   -0.8736   -1.1810   -1.0120 H   0  0  0  0  0  0  0  0  0  0  0  0
    0.9977   -0.9654   -2.2054 H   0  0  0  0  0  0  0  0  0  0  0  0
   -2.6253   -0.1305   -2.1093 H   0  0  0  0  0  0  0  0  0  0  0  0
   -0.8979    2.1239   -2.5715 H   0  0  0  0  0  0  0  0  0  0  0  0
  1  2  1  0
  2  3  1  0
  1  4  1  0
  4  5  1  0
  5  6  1  0
  6  7  1  0
  7  8  2  0
  8  9  1  0
  9 10  2  0
 10 11  1  0
 11 12  2  0
 12 13  1  0
 13 14  2  0
  5 15  1  0
 15 16  1  0
 15 17  1  0
 17 18  1  0
 17  1  1  0
 14  6  1  0
 14  9  1  0
  1 19  1  6
  2 20  1  0
  2 21  1  0
  3 22  1  0
  5 23  1  6
  7 24  1  0
 10 25  1  0
 12 26  1  0
 15 27  1  1
 16 28  1  0
 17 29  1  6
 18 30  1  0
M  END
$$$$
