
     RDKit          3D

 56 58  0  0  0  0  0  0  0  0999 V2000
    4.4103    0.5269    0.0566 C   0  0  2  0  0  0  0  0  0  0  0  0
    4.9401    1.9826    0.0152 C   0  0  0  0  0  0  0  0  0  0  0  0
    6.1674    2.1574   -1.3327 S   0  0  0  0  0  0  0  0  0  0  0  0
    6.4313    0.4085   -1.2313 C   0  0  0  0  0  0  0  0  0  0  0  0
    7.4559   -0.1495   -1.7026 O   0  0  0  0  0  0  0  0  0  0  0  0
    5.4412   -0.3158   -0.5305 N   0  0  0  0  0  0  0  0  0  0  0  0
    3.0581    0.3394   -0.6902 C   0  0  1  0  0  0  0  0  0  0  0  0
    3.2413    0.6266   -2.0608 O   0  0  0  0  0  0  0  0  0  0  0  0
    2.5832   -1.1502   -0.5441 C   0  0  0  0  0  0  0  0  0  0  0  0
    1.0610   -1.2262   -0.4003 C   0  0  1  0  0  0  0  0  0  0  0  0
    0.4486   -0.1759   -1.3164 C   0  0  0  0  0  0  0  0  0  0  0  0
    0.8198    1.2247   -0.7628 C   0  0  1  0  0  0  0  0  0  0  0  0
   -0.2288    1.7154    0.2689 C   0  0  0  0  0  0  0  0  0  0  0  0
   -1.6086    2.0469   -0.3458 C   0  0  0  0  0  0  0  0  0  0  0  0
   -2.7346    2.3134    0.6918 C   0  0  2  0  0  0  0  0  0  0  0  0
   -2.6531    3.7590    1.2045 C   0  0  0  0  0  0  0  0  0  0  0  0
   -2.7817    1.3504    1.8769 C   0  0  0  0  0  0  0  0  0  0  0  0
   -3.0248    0.0242    1.8175 C   0  0  0  0  0  0  0  0  0  0  0  0
   -3.0945   -0.7696    0.5403 C   0  0  0  0  0  0  0  0  0  0  0  0
   -3.4163   -2.2548    0.7831 C   0  0  0  0  0  0  0  0  0  0  0  0
   -3.0637   -3.1010   -0.4327 C   0  0  0  0  0  0  0  0  0  0  0  0
   -4.1758   -3.5878   -1.3219 C   0  0  0  0  0  0  0  0  0  0  0  0
   -1.7911   -3.3911   -0.7927 C   0  0  0  0  0  0  0  0  0  0  0  0
   -0.5895   -2.9922   -0.0365 C   0  0  0  0  0  0  0  0  0  0  0  0
   -0.5746   -3.0497    1.2223 O   0  0  0  0  0  0  0  0  0  0  0  0
    0.5358   -2.5148   -0.7172 O   0  0  0  0  0  0  0  0  0  0  0  0
    2.0967    1.2311   -0.1122 O   0  0  0  0  0  0  0  0  0  0  0  0
    4.2733    0.2403    1.1233 H   0  0  0  0  0  0  0  0  0  0  0  0
    4.1291    2.7294   -0.1132 H   0  0  0  0  0  0  0  0  0  0  0  0
    5.4583    2.2085    0.9719 H   0  0  0  0  0  0  0  0  0  0  0  0
    5.4550   -1.3565   -0.4417 H   0  0  0  0  0  0  0  0  0  0  0  0
    3.2885    1.6125   -2.1615 H   0  0  0  0  0  0  0  0  0  0  0  0
    3.0313   -1.6366    0.3505 H   0  0  0  0  0  0  0  0  0  0  0  0
    2.9068   -1.7379   -1.4316 H   0  0  0  0  0  0  0  0  0  0  0  0
    0.8205   -0.9856    0.6606 H   0  0  0  0  0  0  0  0  0  0  0  0
    0.8599   -0.2927   -2.3435 H   0  0  0  0  0  0  0  0  0  0  0  0
   -0.6305   -0.3416   -1.4388 H   0  0  0  0  0  0  0  0  0  0  0  0
    0.8436    1.9519   -1.6042 H   0  0  0  0  0  0  0  0  0  0  0  0
    0.1604    2.6357    0.7557 H   0  0  0  0  0  0  0  0  0  0  0  0
   -0.3324    0.9514    1.0653 H   0  0  0  0  0  0  0  0  0  0  0  0
   -1.4910    2.9350   -1.0048 H   0  0  0  0  0  0  0  0  0  0  0  0
   -1.9608    1.2522   -1.0246 H   0  0  0  0  0  0  0  0  0  0  0  0
   -3.7066    2.2257    0.1575 H   0  0  0  0  0  0  0  0  0  0  0  0
   -1.7047    3.9271    1.7581 H   0  0  0  0  0  0  0  0  0  0  0  0
   -2.7074    4.4757    0.3574 H   0  0  0  0  0  0  0  0  0  0  0  0
   -3.5058    3.9733    1.8843 H   0  0  0  0  0  0  0  0  0  0  0  0
   -2.6888    1.7763    2.8733 H   0  0  0  0  0  0  0  0  0  0  0  0
   -3.1092   -0.5097    2.7605 H   0  0  0  0  0  0  0  0  0  0  0  0
   -2.1022   -0.7077    0.0769 H   0  0  0  0  0  0  0  0  0  0  0  0
   -3.8515   -0.3314   -0.1453 H   0  0  0  0  0  0  0  0  0  0  0  0
   -2.8950   -2.6443    1.6807 H   0  0  0  0  0  0  0  0  0  0  0  0
   -4.5001   -2.3390    1.0135 H   0  0  0  0  0  0  0  0  0  0  0  0
   -4.1695   -4.6979   -1.3563 H   0  0  0  0  0  0  0  0  0  0  0  0
   -5.1703   -3.2554   -0.9580 H   0  0  0  0  0  0  0  0  0  0  0  0
   -4.0368   -3.1914   -2.3502 H   0  0  0  0  0  0  0  0  0  0  0  0
   -1.6177   -3.8952   -1.7364 H   0  0  0  0  0  0  0  0  0  0  0  0
  1  2  1  0
  2  3  1  0
  3  4  1  0
  4  5  2  0
  4  6  1  0
  1  7  1  0
  7  8  1  6
  7  9  1  0
  9 10  1  0
 10 11  1  0
 11 12  1  0
 12 13  1  0
 13 14  1  0
 14 15  1  0
 15 16  1  0
 15 17  1  0
 17 18  2  0
 18 19  1  0
 19 20  1  0
 20 21  1  0
 21 22  1  0
 21 23  2  0
 23 24  1  0
 24 25  2  0
 24 26  1  0
 12 27  1  0
  6  1  1  0
 27  7  1  0
 26 10  1  0
  1 28  1  1
  2 29  1  0
  2 30  1  0
  6 31  1  0
  8 32  1  0
  9 33  1  0
  9 34  1  0
 10 35  1  1
 11 36  1  0
 11 37  1  0
 12 38  1  6
 13 39  1  0
 13 40  1  0
 14 41  1  0
 14 42  1  0
 15 43  1  6
 16 44  1  0
 16 45  1  0
 16 46  1  0
 17 47  1  0
 18 48  1  0
 19 49  1  0
 19 50  1  0
 20 51  1  0
 20 52  1  0
 22 53  1  0
 22 54  1  0
 22 55  1  0
 23 56  1  0
M  END
$$$$
