
     RDKit          3D

 45 47  0  0  0  0  0  0  0  0999 V2000
    5.5431   -1.0426    0.8288 C   0  0  0  0  0  0  0  0  0  0  0  0
    4.6825   -1.5755   -0.3111 C   0  0  0  0  0  0  0  0  0  0  0  0
    3.6434   -0.6618   -0.6089 O   0  0  0  0  0  0  0  0  0  0  0  0
    2.4460   -1.0427    0.0385 C   0  0  0  0  0  0  0  0  0  0  0  0
    1.4015    0.0234   -0.1506 C   0  0  0  0  0  0  0  0  0  0  0  0
    1.7150    1.2438   -0.6406 N   0  0  0  0  0  0  0  0  0  0  0  0
    0.5633    1.9237   -0.5413 C   0  0  0  0  0  0  0  0  0  0  0  0
   -0.4280    1.1529    0.0115 C   0  0  0  0  0  0  0  0  0  0  0  0
    0.1004   -0.0821    0.2520 N   0  0  0  0  0  0  0  0  0  0  0  0
   -0.5156   -1.2974    0.8123 C   0  0  0  0  0  0  0  0  0  0  0  0
   -1.3710   -2.0711   -0.2337 C   0  0  0  0  0  0  0  0  0  0  0  0
   -2.2483   -3.0997    0.5064 C   0  0  0  0  0  0  0  0  0  0  0  0
   -0.4599   -2.8045   -1.2371 C   0  0  0  0  0  0  0  0  0  0  0  0
   -2.1928   -1.1702   -0.9369 O   0  0  0  0  0  0  0  0  0  0  0  0
   -1.7126    1.7176    0.2605 C   0  0  0  0  0  0  0  0  0  0  0  0
   -2.7982    1.0466    0.8656 C   0  0  0  0  0  0  0  0  0  0  0  0
   -4.0198    1.6942    1.0637 C   0  0  0  0  0  0  0  0  0  0  0  0
   -4.1895    3.0188    0.6723 C   0  0  0  0  0  0  0  0  0  0  0  0
   -3.1366    3.7114    0.0807 C   0  0  0  0  0  0  0  0  0  0  0  0
   -1.8977    3.0843   -0.1282 C   0  0  0  0  0  0  0  0  0  0  0  0
   -0.8734    3.7973   -0.6977 N   0  0  0  0  0  0  0  0  0  0  0  0
    0.3578    3.2476   -0.9049 C   0  0  0  0  0  0  0  0  0  0  0  0
    1.3202    3.9425   -1.4265 N   0  0  0  0  0  0  0  0  0  0  0  0
    4.9470   -0.9715    1.7625 H   0  0  0  0  0  0  0  0  0  0  0  0
    6.3989   -1.7282    1.0036 H   0  0  0  0  0  0  0  0  0  0  0  0
    5.9356   -0.0363    0.5701 H   0  0  0  0  0  0  0  0  0  0  0  0
    5.3236   -1.6708   -1.2128 H   0  0  0  0  0  0  0  0  0  0  0  0
    4.3233   -2.6042   -0.0688 H   0  0  0  0  0  0  0  0  0  0  0  0
    2.6080   -1.1680    1.1327 H   0  0  0  0  0  0  0  0  0  0  0  0
    2.0784   -1.9951   -0.3941 H   0  0  0  0  0  0  0  0  0  0  0  0
   -1.0752   -1.0453    1.7321 H   0  0  0  0  0  0  0  0  0  0  0  0
    0.2704   -1.9795    1.2000 H   0  0  0  0  0  0  0  0  0  0  0  0
   -2.8488   -3.6954   -0.2143 H   0  0  0  0  0  0  0  0  0  0  0  0
   -2.9505   -2.5830    1.1952 H   0  0  0  0  0  0  0  0  0  0  0  0
   -1.6181   -3.7976    1.0991 H   0  0  0  0  0  0  0  0  0  0  0  0
   -1.0682   -3.3923   -1.9577 H   0  0  0  0  0  0  0  0  0  0  0  0
    0.2230   -3.5065   -0.7125 H   0  0  0  0  0  0  0  0  0  0  0  0
    0.1392   -2.0735   -1.8198 H   0  0  0  0  0  0  0  0  0  0  0  0
   -2.7506   -1.6894   -1.5741 H   0  0  0  0  0  0  0  0  0  0  0  0
   -2.7566    0.0282    1.1845 H   0  0  0  0  0  0  0  0  0  0  0  0
   -4.8431    1.1620    1.5232 H   0  0  0  0  0  0  0  0  0  0  0  0
   -5.1403    3.5115    0.8299 H   0  0  0  0  0  0  0  0  0  0  0  0
   -3.2859    4.7434   -0.2124 H   0  0  0  0  0  0  0  0  0  0  0  0
   -1.0340    4.7944   -0.9720 H   0  0  0  0  0  0  0  0  0  0  0  0
    1.1945    4.9406   -1.7082 H   0  0  0  0  0  0  0  0  0  0  0  0
  1  2  1  0
  2  3  1  0
  3  4  1  0
  4  5  1  0
  5  6  2  0
  6  7  1  0
  7  8  2  0
  8  9  1  0
  9 10  1  0
 10 11  1  0
 11 12  1  0
 11 13  1  0
 11 14  1  0
  8 15  1  0
 15 16  2  0
 16 17  1  0
 17 18  2  0
 18 19  1  0
 19 20  2  0
 20 21  1  0
 21 22  1  0
 22 23  2  3
  9  5  1  0
 20 15  1  0
 22  7  1  0
  1 24  1  0
  1 25  1  0
  1 26  1  0
  2 27  1  0
  2 28  1  0
  4 29  1  0
  4 30  1  0
 10 31  1  0
 10 32  1  0
 12 33  1  0
 12 34  1  0
 12 35  1  0
 13 36  1  0
 13 37  1  0
 13 38  1  0
 14 39  1  0
 16 40  1  0
 17 41  1  0
 18 42  1  0
 19 43  1  0
 21 44  1  0
 23 45  1  0
M  END
$$$$
