
     RDKit          3D

 58 62  0  0  0  0  0  0  0  0999 V2000
   -3.0166   -0.2993    6.2816 C   0  0  0  0  0  0  0  0  0  0  0  0
   -3.1404   -0.8185    4.9197 C   0  0  0  0  0  0  0  0  0  0  0  0
   -3.2432   -1.2451    3.7971 C   0  0  0  0  0  0  0  0  0  0  0  0
   -3.3678   -1.7505    2.4553 C   0  0  0  0  0  0  0  0  0  0  0  0
   -2.7860   -2.8263    2.1535 O   0  0  0  0  0  0  0  0  0  0  0  0
   -4.1369   -1.0405    1.4674 N   0  0  0  0  0  0  0  0  0  0  0  0
   -5.0025    0.0831    1.7863 C   0  0  0  0  0  0  0  0  0  0  0  0
   -5.8848    0.2850    0.5619 C   0  0  0  0  0  0  0  0  0  0  0  0
   -5.1925   -0.4512   -0.5820 C   0  0  0  0  0  0  0  0  0  0  0  0
   -4.2575   -1.4670    0.0789 C   0  0  1  0  0  0  0  0  0  0  0  0
   -2.9145   -1.4915   -0.6098 C   0  0  0  0  0  0  0  0  0  0  0  0
   -1.8635   -0.7353   -0.2155 N   0  0  0  0  0  0  0  0  0  0  0  0
   -0.8831   -1.0054   -1.1086 C   0  0  0  0  0  0  0  0  0  0  0  0
   -1.3706   -1.8993   -2.0564 C   0  0  0  0  0  0  0  0  0  0  0  0
   -2.6346   -2.2028   -1.7210 N   0  0  0  0  0  0  0  0  0  0  0  0
   -3.4030   -3.0702   -2.4299 C   0  0  0  0  0  0  0  0  0  0  0  0
   -2.8360   -3.6682   -3.5607 C   0  0  0  0  0  0  0  0  0  0  0  0
   -1.5659   -3.3352   -3.9349 N   0  0  0  0  0  0  0  0  0  0  0  0
   -0.8096   -2.4479   -3.2247 C   0  0  0  0  0  0  0  0  0  0  0  0
    0.4585   -2.0414   -3.7424 N   0  0  0  0  0  0  0  0  0  0  0  0
    0.4909   -0.5033   -0.9377 C   0  0  0  0  0  0  0  0  0  0  0  0
    1.5783   -1.3887   -0.9176 C   0  0  0  0  0  0  0  0  0  0  0  0
    2.8747   -0.9095   -0.7105 C   0  0  0  0  0  0  0  0  0  0  0  0
    3.1038    0.4613   -0.4929 C   0  0  0  0  0  0  0  0  0  0  0  0
    2.0064    1.3418   -0.4955 C   0  0  0  0  0  0  0  0  0  0  0  0
    0.7107    0.8604   -0.7041 C   0  0  0  0  0  0  0  0  0  0  0  0
    4.4836    0.9626   -0.2805 C   0  0  0  0  0  0  0  0  0  0  0  0
    5.4638    0.2389   -0.6081 O   0  0  0  0  0  0  0  0  0  0  0  0
    4.7164    2.2387    0.3395 N   0  0  0  0  0  0  0  0  0  0  0  0
    5.9413    2.9788    0.2187 C   0  0  0  0  0  0  0  0  0  0  0  0
    6.7453    2.8919   -0.9318 C   0  0  0  0  0  0  0  0  0  0  0  0
    7.9137    3.6527   -1.0115 C   0  0  0  0  0  0  0  0  0  0  0  0
    8.2660    4.4989    0.0403 C   0  0  0  0  0  0  0  0  0  0  0  0
    7.4353    4.5779    1.1592 C   0  0  0  0  0  0  0  0  0  0  0  0
    6.3020    3.8288    1.2202 N   0  0  0  0  0  0  0  0  0  0  0  0
   -3.9238   -0.5645    6.8624 H   0  0  0  0  0  0  0  0  0  0  0  0
   -2.9086    0.8043    6.2481 H   0  0  0  0  0  0  0  0  0  0  0  0
   -2.1235   -0.7437    6.7672 H   0  0  0  0  0  0  0  0  0  0  0  0
   -4.3832    0.9858    1.9784 H   0  0  0  0  0  0  0  0  0  0  0  0
   -5.6279   -0.1441    2.6772 H   0  0  0  0  0  0  0  0  0  0  0  0
   -6.0138    1.3647    0.3306 H   0  0  0  0  0  0  0  0  0  0  0  0
   -6.8834   -0.1702    0.7432 H   0  0  0  0  0  0  0  0  0  0  0  0
   -5.9333   -0.9577   -1.2384 H   0  0  0  0  0  0  0  0  0  0  0  0
   -4.6241    0.2880   -1.1908 H   0  0  0  0  0  0  0  0  0  0  0  0
   -4.7184   -2.4784    0.0583 H   0  0  0  0  0  0  0  0  0  0  0  0
   -4.4184   -3.3006   -2.1356 H   0  0  0  0  0  0  0  0  0  0  0  0
   -3.4068   -4.3727   -4.1505 H   0  0  0  0  0  0  0  0  0  0  0  0
    0.8929   -1.1329   -3.4747 H   0  0  0  0  0  0  0  0  0  0  0  0
    0.8798   -2.5617   -4.5435 H   0  0  0  0  0  0  0  0  0  0  0  0
    1.4223   -2.4513   -1.0588 H   0  0  0  0  0  0  0  0  0  0  0  0
    3.6964   -1.6147   -0.7060 H   0  0  0  0  0  0  0  0  0  0  0  0
    2.1450    2.4054   -0.3530 H   0  0  0  0  0  0  0  0  0  0  0  0
   -0.1208    1.5548   -0.6976 H   0  0  0  0  0  0  0  0  0  0  0  0
    4.0049    2.5967    1.0154 H   0  0  0  0  0  0  0  0  0  0  0  0
    6.4645    2.2655   -1.7677 H   0  0  0  0  0  0  0  0  0  0  0  0
    8.5405    3.5930   -1.8919 H   0  0  0  0  0  0  0  0  0  0  0  0
    9.1684    5.0939   -0.0145 H   0  0  0  0  0  0  0  0  0  0  0  0
    7.6895    5.2368    1.9786 H   0  0  0  0  0  0  0  0  0  0  0  0
  1  2  1  0
  2  3  3  0
  3  4  1  0
  4  5  2  0
  4  6  1  0
  6  7  1  0
  7  8  1  0
  8  9  1  0
  9 10  1  0
 10 11  1  0
 11 12  2  0
 12 13  1  0
 13 14  2  0
 14 15  1  0
 15 16  1  0
 16 17  2  0
 17 18  1  0
 18 19  2  0
 19 20  1  0
 13 21  1  0
 21 22  2  0
 22 23  1  0
 23 24  2  0
 24 25  1  0
 25 26  2  0
 24 27  1  0
 27 28  2  0
 27 29  1  0
 29 30  1  0
 30 31  2  0
 31 32  1  0
 32 33  2  0
 33 34  1  0
 34 35  2  0
 10  6  1  0
 15 11  1  0
 26 21  1  0
 35 30  1  0
 19 14  1  0
  1 36  1  0
  1 37  1  0
  1 38  1  0
  7 39  1  0
  7 40  1  0
  8 41  1  0
  8 42  1  0
  9 43  1  0
  9 44  1  0
 10 45  1  1
 16 46  1  0
 17 47  1  0
 20 48  1  0
 20 49  1  0
 22 50  1  0
 23 51  1  0
 25 52  1  0
 26 53  1  0
 29 54  1  0
 31 55  1  0
 32 56  1  0
 33 57  1  0
 34 58  1  0
M  END
$$$$
