
     RDKit          3D

 54 57  0  0  0  0  0  0  0  0999 V2000
   -5.8851   -0.5977    0.1384 C   0  0  0  0  0  0  0  0  0  0  0  0
   -4.7928   -1.1934   -0.7449 C   0  0  0  0  0  0  0  0  0  0  0  0
   -3.6755   -0.2042   -0.9933 C   0  0  0  0  0  0  0  0  0  0  0  0
   -3.6150    0.3044   -2.1042 O   0  0  0  0  0  0  0  0  0  0  0  0
   -2.6548    0.2482    0.0666 C   0  0  1  0  0  0  0  0  0  0  0  0
   -2.9796    1.7397    0.3627 C   0  0  0  0  0  0  0  0  0  0  0  0
   -2.7105   -0.5359    1.4157 C   0  0  0  0  0  0  0  0  0  0  0  0
   -1.2698   -0.6560    1.9408 C   0  0  0  0  0  0  0  0  0  0  0  0
   -0.3974    0.0878    0.9336 C   0  0  1  0  0  0  0  0  0  0  0  0
    1.0679   -0.3709    0.8123 C   0  0  2  0  0  0  0  0  0  0  0  0
    1.8337   -0.1082    2.1173 C   0  0  0  0  0  0  0  0  0  0  0  0
    3.2384   -0.6914    2.0100 C   0  0  0  0  0  0  0  0  0  0  0  0
    3.9317   -0.2106    0.7604 C   0  0  0  0  0  0  0  0  0  0  0  0
    5.2704   -0.2892    0.7062 C   0  0  0  0  0  0  0  0  0  0  0  0
    6.0193    0.2439   -0.4361 C   0  0  0  0  0  0  0  0  0  0  0  0
    7.2586    0.0392   -0.5287 O   0  0  0  0  0  0  0  0  0  0  0  0
    5.3234    1.1150   -1.4315 C   0  0  0  0  0  0  0  0  0  0  0  0
    3.9044    0.6074   -1.7005 C   0  0  0  0  0  0  0  0  0  0  0  0
    3.1410    0.2920   -0.4156 C   0  0  0  0  0  0  0  0  0  0  0  0
    1.7757    0.3125   -0.3674 C   0  0  0  0  0  0  0  0  0  0  0  0
    0.9661    0.8622   -1.5537 C   0  0  0  0  0  0  0  0  0  0  0  0
   -0.5482    1.0794   -1.3190 C   0  0  0  0  0  0  0  0  0  0  0  0
   -1.1656    0.0102   -0.3931 C   0  0  2  0  0  0  0  0  0  0  0  0
   -1.0375   -1.3963   -1.0744 C   0  0  0  0  0  0  0  0  0  0  0  0
   -6.7232   -1.3205    0.2283 H   0  0  0  0  0  0  0  0  0  0  0  0
   -6.2734    0.3412   -0.3110 H   0  0  0  0  0  0  0  0  0  0  0  0
   -5.5012   -0.3828    1.1555 H   0  0  0  0  0  0  0  0  0  0  0  0
   -5.2558   -1.4705   -1.7177 H   0  0  0  0  0  0  0  0  0  0  0  0
   -4.4095   -2.1399   -0.3155 H   0  0  0  0  0  0  0  0  0  0  0  0
   -2.3094    2.1766    1.1297 H   0  0  0  0  0  0  0  0  0  0  0  0
   -4.0185    1.8332    0.7471 H   0  0  0  0  0  0  0  0  0  0  0  0
   -2.9190    2.3591   -0.5571 H   0  0  0  0  0  0  0  0  0  0  0  0
   -3.0983   -1.5645    1.2937 H   0  0  0  0  0  0  0  0  0  0  0  0
   -3.3515   -0.0318    2.1722 H   0  0  0  0  0  0  0  0  0  0  0  0
   -1.1791   -0.2011    2.9514 H   0  0  0  0  0  0  0  0  0  0  0  0
   -0.9711   -1.7260    2.0025 H   0  0  0  0  0  0  0  0  0  0  0  0
   -0.3576    1.1490    1.2715 H   0  0  0  0  0  0  0  0  0  0  0  0
    1.0866   -1.4694    0.6396 H   0  0  0  0  0  0  0  0  0  0  0  0
    1.8951    0.9855    2.3143 H   0  0  0  0  0  0  0  0  0  0  0  0
    1.3175   -0.5888    2.9761 H   0  0  0  0  0  0  0  0  0  0  0  0
    3.1820   -1.8017    1.9876 H   0  0  0  0  0  0  0  0  0  0  0  0
    3.8144   -0.3916    2.9133 H   0  0  0  0  0  0  0  0  0  0  0  0
    5.8257   -0.7243    1.5296 H   0  0  0  0  0  0  0  0  0  0  0  0
    5.8941    1.1369   -2.3854 H   0  0  0  0  0  0  0  0  0  0  0  0
    5.2770    2.1495   -1.0277 H   0  0  0  0  0  0  0  0  0  0  0  0
    3.4087    1.3772   -2.3213 H   0  0  0  0  0  0  0  0  0  0  0  0
    3.9616   -0.3233   -2.3055 H   0  0  0  0  0  0  0  0  0  0  0  0
    1.1052    0.1834   -2.4227 H   0  0  0  0  0  0  0  0  0  0  0  0
    1.3653    1.8585   -1.8378 H   0  0  0  0  0  0  0  0  0  0  0  0
   -1.0733    1.0905   -2.2981 H   0  0  0  0  0  0  0  0  0  0  0  0
   -0.6684    2.0911   -0.8758 H   0  0  0  0  0  0  0  0  0  0  0  0
    0.0081   -1.6647   -1.3207 H   0  0  0  0  0  0  0  0  0  0  0  0
   -1.5849   -1.4172   -2.0394 H   0  0  0  0  0  0  0  0  0  0  0  0
   -1.4462   -2.2017   -0.4298 H   0  0  0  0  0  0  0  0  0  0  0  0
  1  2  1  0
  2  3  1  0
  3  4  2  0
  3  5  1  0
  5  6  1  1
  5  7  1  0
  7  8  1  0
  8  9  1  0
  9 10  1  0
 10 11  1  0
 11 12  1  0
 12 13  1  0
 13 14  2  0
 14 15  1  0
 15 16  2  0
 15 17  1  0
 17 18  1  0
 18 19  1  0
 19 20  2  0
 20 21  1  0
 21 22  1  0
 22 23  1  0
 23 24  1  6
 23  5  1  0
 23  9  1  0
 20 10  1  0
 19 13  1  0
  1 25  1  0
  1 26  1  0
  1 27  1  0
  2 28  1  0
  2 29  1  0
  6 30  1  0
  6 31  1  0
  6 32  1  0
  7 33  1  0
  7 34  1  0
  8 35  1  0
  8 36  1  0
  9 37  1  1
 10 38  1  6
 11 39  1  0
 11 40  1  0
 12 41  1  0
 12 42  1  0
 14 43  1  0
 17 44  1  0
 17 45  1  0
 18 46  1  0
 18 47  1  0
 21 48  1  0
 21 49  1  0
 22 50  1  0
 22 51  1  0
 24 52  1  0
 24 53  1  0
 24 54  1  0
M  END
$$$$
