
     RDKit          2D

229234  0  0  0  0  0  0  0  0999 V2000
   23.7199    8.7726    0.0000 C   0  0  0  0  0  0  0  0  0  0  0  0
   22.2933    9.2361    0.0000 C   0  0  0  0  0  0  0  0  0  0  0  0
   20.8667    9.6997    0.0000 C   0  0  0  0  0  0  0  0  0  0  0  0
   19.4401   10.1632    0.0000 C   0  0  0  0  0  0  0  0  0  0  0  0
   18.0136   10.6267    0.0000 C   0  0  0  0  0  0  0  0  0  0  0  0
   18.4771   12.0533    0.0000 N   0  0  0  0  0  0  0  0  0  0  0  0
   19.9443   12.3652    0.0000 C   0  0  0  0  0  0  0  0  0  0  0  0
   20.6128   11.7841    0.0000 O   0  0  0  0  0  0  0  0  0  0  0  0
   20.4078   13.7917    0.0000 C   0  0  0  0  0  0  0  0  0  0  0  0
   20.8714   15.2183    0.0000 C   0  0  0  0  0  0  0  0  0  0  0  0
   21.3349   16.6449    0.0000 O   0  0  0  0  0  0  0  0  0  0  0  0
   21.8344   13.3282    0.0000 N   0  0  0  0  0  0  0  0  0  0  0  0
   22.9491   14.3319    0.0000 C   0  0  0  0  0  0  0  0  0  0  0  0
   22.7445   15.2946    0.0000 O   0  0  0  0  0  0  0  0  0  0  0  0
   24.3757   13.8684    0.0000 C   0  0  0  0  0  0  0  0  0  0  0  0
   25.8023   13.4049    0.0000 C   0  0  0  0  0  0  0  0  0  0  0  0
   27.2289   12.9413    0.0000 C   0  0  0  0  0  0  0  0  0  0  0  0
   27.5408   11.4741    0.0000 C   0  0  0  0  0  0  0  0  0  0  0  0
   28.9673   11.0106    0.0000 C   0  0  0  0  0  0  0  0  0  0  0  0
   30.0821   12.0143    0.0000 C   0  0  0  0  0  0  0  0  0  0  0  0
   31.5086   11.5508    0.0000 O   0  0  0  0  0  0  0  0  0  0  0  0
   29.7702   13.4815    0.0000 C   0  0  0  0  0  0  0  0  0  0  0  0
   28.3436   13.9450    0.0000 C   0  0  0  0  0  0  0  0  0  0  0  0
   24.8392   15.2950    0.0000 N   0  0  0  0  0  0  0  0  0  0  0  0
   26.3065   15.6068    0.0000 C   0  0  0  0  0  0  0  0  0  0  0  0
   27.3102   14.4921    0.0000 O   0  0  0  0  0  0  0  0  0  0  0  0
   26.7700   17.0334    0.0000 C   0  0  0  0  0  0  0  0  0  0  0  0
   27.2335   18.4600    0.0000 C   0  0  0  0  0  0  0  0  0  0  0  0
   27.6970   19.8866    0.0000 O   0  0  0  0  0  0  0  0  0  0  0  0
   28.1966   16.5699    0.0000 N   0  0  0  0  0  0  0  0  0  0  0  0
   29.3113   17.5736    0.0000 C   0  0  0  0  0  0  0  0  0  0  0  0
   30.7379   17.1101    0.0000 C   0  0  0  0  0  0  0  0  0  0  0  0
   28.9994   19.0408    0.0000 O   0  0  0  0  0  0  0  0  0  0  0  0
   16.5870   11.0902    0.0000 C   0  0  0  0  0  0  0  0  0  0  0  0
   16.4563   12.5845    0.0000 O   0  0  0  0  0  0  0  0  0  0  0  0
   15.4723   10.0865    0.0000 N   0  0  0  0  0  0  0  0  0  0  0  0
   14.0457   10.5501    0.0000 C   0  0  0  0  0  0  0  0  0  0  0  0
   14.5092   11.9766    0.0000 C   0  0  0  0  0  0  0  0  0  0  0  0
   14.9727   13.4032    0.0000 C   0  0  0  0  0  0  0  0  0  0  0  0
   15.4362   14.8298    0.0000 C   0  0  0  0  0  0  0  0  0  0  0  0
   16.9035   15.1417    0.0000 O   0  0  0  0  0  0  0  0  0  0  0  0
   14.4325   15.9445    0.0000 O   0  0  0  0  0  0  0  0  0  0  0  0
   13.5821    9.1235    0.0000 C   0  0  0  0  0  0  0  0  0  0  0  0
   14.5858    8.0088    0.0000 O   0  0  0  0  0  0  0  0  0  0  0  0
   12.1149    8.8116    0.0000 N   0  0  0  0  0  0  0  0  0  0  0  0
   11.6514    7.3850    0.0000 C   0  0  0  0  0  0  0  0  0  0  0  0
   13.0780    6.9215    0.0000 C   0  0  0  0  0  0  0  0  0  0  0  0
   14.5046    6.4580    0.0000 C   0  0  0  0  0  0  0  0  0  0  0  0
   15.7181    7.3396    0.0000 C   0  0  0  0  0  0  0  0  0  0  0  0
   16.9316    6.4580    0.0000 N   0  0  0  0  0  0  0  0  0  0  0  0
   16.4681    5.0314    0.0000 C   0  0  0  0  0  0  0  0  0  0  0  0
   14.9681    5.0314    0.0000 N   0  0  0  0  0  0  0  0  0  0  0  0
   10.2248    7.8485    0.0000 C   0  0  0  0  0  0  0  0  0  0  0  0
    9.9129    9.3158    0.0000 O   0  0  0  0  0  0  0  0  0  0  0  0
    9.1101    6.8449    0.0000 N   0  0  0  0  0  0  0  0  0  0  0  0
    7.6835    7.3084    0.0000 C   0  0  0  0  0  0  0  0  0  0  0  0
    8.1470    8.7350    0.0000 C   0  0  0  0  0  0  0  0  0  0  0  0
    8.6106   10.1615    0.0000 C   0  0  0  0  0  0  0  0  0  0  0  0
   10.0778   10.4734    0.0000 C   0  0  0  0  0  0  0  0  0  0  0  0
   10.5413   11.9000    0.0000 C   0  0  0  0  0  0  0  0  0  0  0  0
    9.5376   13.0147    0.0000 C   0  0  0  0  0  0  0  0  0  0  0  0
    8.0704   12.7028    0.0000 C   0  0  0  0  0  0  0  0  0  0  0  0
    7.6069   11.2763    0.0000 C   0  0  0  0  0  0  0  0  0  0  0  0
    7.2200    5.8818    0.0000 C   0  0  0  0  0  0  0  0  0  0  0  0
    8.3521    4.8977    0.0000 O   0  0  0  0  0  0  0  0  0  0  0  0
    5.7528    5.5699    0.0000 N   0  0  0  0  0  0  0  0  0  0  0  0
    5.2892    4.1433    0.0000 C   0  0  0  0  0  0  0  0  0  0  0  0
    6.7158    3.6798    0.0000 C   0  0  0  0  0  0  0  0  0  0  0  0
    8.1424    3.2163    0.0000 C   0  0  0  0  0  0  0  0  0  0  0  0
    9.5690    2.7528    0.0000 C   0  0  0  0  0  0  0  0  0  0  0  0
   10.9956    2.2892    0.0000 N   0  0  0  0  0  0  0  0  0  0  0  0
   12.1103    3.2929    0.0000 C   0  0  0  0  0  0  0  0  0  0  0  0
   11.7984    4.7602    0.0000 N   0  0  0  0  0  0  0  0  0  0  0  0
   13.5369    2.8294    0.0000 N   0  0  0  0  0  0  0  0  0  0  0  0
    3.8627    4.6069    0.0000 C   0  0  0  0  0  0  0  0  0  0  0  0
    3.5508    6.0741    0.0000 O   0  0  0  0  0  0  0  0  0  0  0  0
    2.7479    3.6032    0.0000 N   0  0  0  0  0  0  0  0  0  0  0  0
    1.3213    4.0667    0.0000 C   0  0  0  0  0  0  0  0  0  0  0  0
    1.7849    5.4933    0.0000 C   0  0  0  0  0  0  0  0  0  0  0  0
    2.2484    6.9199    0.0000 C   0  0  0  0  0  0  0  0  0  0  0  0
    3.6750    7.3834    0.0000 C   0  0  0  0  0  0  0  0  0  0  0  0
    3.6750    8.8834    0.0000 N   0  0  0  0  0  0  0  0  0  0  0  0
    2.2484    9.3469    0.0000 C   0  0  0  0  0  0  0  0  0  0  0  0
    1.6383   10.7172    0.0000 C   0  0  0  0  0  0  0  0  0  0  0  0
    0.1465   10.8740    0.0000 C   0  0  0  0  0  0  0  0  0  0  0  0
   -0.7352    9.6605    0.0000 C   0  0  0  0  0  0  0  0  0  0  0  0
   -0.1251    8.2902    0.0000 C   0  0  0  0  0  0  0  0  0  0  0  0
    1.3667    8.1334    0.0000 C   0  0  0  0  0  0  0  0  0  0  0  0
    0.8578    2.6401    0.0000 C   0  0  0  0  0  0  0  0  0  0  0  0
    1.8615    1.5254    0.0000 O   0  0  0  0  0  0  0  0  0  0  0  0
   -0.6094    2.3282    0.0000 N   0  0  0  0  0  0  0  0  0  0  0  0
   -1.0729    0.9017    0.0000 C   0  0  0  0  0  0  0  0  0  0  0  0
   -1.5364   -0.5249    0.0000 C   0  0  0  0  0  0  0  0  0  0  0  0
   -2.6258   -0.6202    0.0000 O   0  0  0  0  0  0  0  0  0  0  0  0
   -0.5328   -1.6396    0.0000 N   0  0  0  0  0  0  0  0  0  0  0  0
   -0.9963   -3.0662    0.0000 C   0  0  0  0  0  0  0  0  0  0  0  0
    0.4303   -3.5298    0.0000 C   0  0  0  0  0  0  0  0  0  0  0  0
    1.8569   -3.9933    0.0000 C   0  0  0  0  0  0  0  0  0  0  0  0
    3.2835   -4.4568    0.0000 C   0  0  0  0  0  0  0  0  0  0  0  0
    4.7101   -4.9203    0.0000 C   0  0  0  0  0  0  0  0  0  0  0  0
    6.1366   -5.3839    0.0000 N   0  0  0  0  0  0  0  0  0  0  0  0
   -2.4229   -2.6027    0.0000 C   0  0  0  0  0  0  0  0  0  0  0  0
   -2.7789   -1.5688    0.0000 O   0  0  0  0  0  0  0  0  0  0  0  0
   -3.5376   -3.6064    0.0000 N   0  0  0  0  0  0  0  0  0  0  0  0
   -3.3808   -5.0982    0.0000 C   0  0  0  0  0  0  0  0  0  0  0  0
   -4.7511   -5.7083    0.0000 C   0  0  0  0  0  0  0  0  0  0  0  0
   -5.7548   -4.5936    0.0000 C   0  0  0  0  0  0  0  0  0  0  0  0
   -5.0048   -3.2945    0.0000 C   0  0  0  0  0  0  0  0  0  0  0  0
   -6.3751   -2.6844    0.0000 C   0  0  0  0  0  0  0  0  0  0  0  0
   -7.2598   -3.3272    0.0000 O   0  0  0  0  0  0  0  0  0  0  0  0
   -6.5319   -1.1926    0.0000 N   0  0  0  0  0  0  0  0  0  0  0  0
   -7.9022   -0.5825    0.0000 C   0  0  0  0  0  0  0  0  0  0  0  0
   -7.2921    0.7878    0.0000 C   0  0  0  0  0  0  0  0  0  0  0  0
   -6.6820    2.1581    0.0000 C   0  0  0  0  0  0  0  0  0  0  0  0
   -8.6624    1.3979    0.0000 C   0  0  0  0  0  0  0  0  0  0  0  0
   -8.5123   -1.9529    0.0000 C   0  0  0  0  0  0  0  0  0  0  0  0
  -10.0041   -2.1096    0.0000 N   0  0  0  0  0  0  0  0  0  0  0  0
   -8.1028   -2.9668    0.0000 O   0  0  0  0  0  0  0  0  0  0  0  0
   25.1465    8.3091    0.0000 H   0  0  0  0  0  0  0  0  0  0  0  0
   24.1834   10.1992    0.0000 H   0  0  0  0  0  0  0  0  0  0  0  0
   23.2564    7.3460    0.0000 H   0  0  0  0  0  0  0  0  0  0  0  0
   22.7568   10.6627    0.0000 H   0  0  0  0  0  0  0  0  0  0  0  0
   21.8298    7.8095    0.0000 H   0  0  0  0  0  0  0  0  0  0  0  0
   21.3802   10.8008    0.0000 H   0  0  0  0  0  0  0  0  0  0  0  0
   20.4032    8.2731    0.0000 H   0  0  0  0  0  0  0  0  0  0  0  0
   20.0197   11.0905    0.0000 H   0  0  0  0  0  0  0  0  0  0  0  0
   18.9766    8.7366    0.0000 H   0  0  0  0  0  0  0  0  0  0  0  0
   17.5500    9.2001    0.0000 H   0  0  0  0  0  0  0  0  0  0  0  0
   17.4734   13.1680    0.0000 H   0  0  0  0  0  0  0  0  0  0  0  0
   18.9812   14.2553    0.0000 H   0  0  0  0  0  0  0  0  0  0  0  0
   21.8531   15.1497    0.0000 H   0  0  0  0  0  0  0  0  0  0  0  0
   19.4448   15.6819    0.0000 H   0  0  0  0  0  0  0  0  0  0  0  0
   20.3312   17.7596    0.0000 H   0  0  0  0  0  0  0  0  0  0  0  0
   22.1463   11.8610    0.0000 H   0  0  0  0  0  0  0  0  0  0  0  0
   23.9122   12.4418    0.0000 H   0  0  0  0  0  0  0  0  0  0  0  0
   26.5972   14.6769    0.0000 H   0  0  0  0  0  0  0  0  0  0  0  0
   25.3388   11.9783    0.0000 H   0  0  0  0  0  0  0  0  0  0  0  0
   26.4260   10.4704    0.0000 H   0  0  0  0  0  0  0  0  0  0  0  0
   29.2792    9.5434    0.0000 H   0  0  0  0  0  0  0  0  0  0  0  0
   32.6234   12.5545    0.0000 H   0  0  0  0  0  0  0  0  0  0  0  0
   30.8849   14.4852    0.0000 H   0  0  0  0  0  0  0  0  0  0  0  0
   28.2129   15.4393    0.0000 H   0  0  0  0  0  0  0  0  0  0  0  0
   23.8355   16.4097    0.0000 H   0  0  0  0  0  0  0  0  0  0  0  0
   25.3434   17.4969    0.0000 H   0  0  0  0  0  0  0  0  0  0  0  0
   25.8069   18.9235    0.0000 H   0  0  0  0  0  0  0  0  0  0  0  0
   28.7299   18.3555    0.0000 H   0  0  0  0  0  0  0  0  0  0  0  0
   29.1643   20.1985    0.0000 H   0  0  0  0  0  0  0  0  0  0  0  0
   28.6850   15.1516    0.0000 H   0  0  0  0  0  0  0  0  0  0  0  0
   32.1645   16.6465    0.0000 H   0  0  0  0  0  0  0  0  0  0  0  0
   31.2014   18.5367    0.0000 H   0  0  0  0  0  0  0  0  0  0  0  0
   30.2743   15.6835    0.0000 H   0  0  0  0  0  0  0  0  0  0  0  0
   15.9606    8.6683    0.0000 H   0  0  0  0  0  0  0  0  0  0  0  0
   12.6191   11.0136    0.0000 H   0  0  0  0  0  0  0  0  0  0  0  0
   16.0055   11.8721    0.0000 H   0  0  0  0  0  0  0  0  0  0  0  0
   13.0826   12.4402    0.0000 H   0  0  0  0  0  0  0  0  0  0  0  0
   13.5461   13.8668    0.0000 H   0  0  0  0  0  0  0  0  0  0  0  0
   16.4452   13.1171    0.0000 H   0  0  0  0  0  0  0  0  0  0  0  0
   17.3670   16.5683    0.0000 H   0  0  0  0  0  0  0  0  0  0  0  0
   10.9828    9.7957    0.0000 H   0  0  0  0  0  0  0  0  0  0  0  0
   11.1879    5.9584    0.0000 H   0  0  0  0  0  0  0  0  0  0  0  0
   12.7918    5.4490    0.0000 H   0  0  0  0  0  0  0  0  0  0  0  0
   13.8729    8.1935    0.0000 H   0  0  0  0  0  0  0  0  0  0  0  0
   15.9009    8.8285    0.0000 H   0  0  0  0  0  0  0  0  0  0  0  0
   17.3498    3.8179    0.0000 H   0  0  0  0  0  0  0  0  0  0  0  0
   14.2409    3.7194    0.0000 H   0  0  0  0  0  0  0  0  0  0  0  0
    9.4220    5.3776    0.0000 H   0  0  0  0  0  0  0  0  0  0  0  0
    6.2569    7.7719    0.0000 H   0  0  0  0  0  0  0  0  0  0  0  0
    6.7204    9.1985    0.0000 H   0  0  0  0  0  0  0  0  0  0  0  0
    9.6434    8.6304    0.0000 H   0  0  0  0  0  0  0  0  0  0  0  0
   10.9381    9.2447    0.0000 H   0  0  0  0  0  0  0  0  0  0  0  0
   12.0085   12.2119    0.0000 H   0  0  0  0  0  0  0  0  0  0  0  0
   10.0011   14.4413    0.0000 H   0  0  0  0  0  0  0  0  0  0  0  0
    7.0667   13.8176    0.0000 H   0  0  0  0  0  0  0  0  0  0  0  0
    6.1396   10.9644    0.0000 H   0  0  0  0  0  0  0  0  0  0  0  0
    4.8924    6.7987    0.0000 H   0  0  0  0  0  0  0  0  0  0  0  0
    4.8257    2.7168    0.0000 H   0  0  0  0  0  0  0  0  0  0  0  0
    6.2523    2.2532    0.0000 H   0  0  0  0  0  0  0  0  0  0  0  0
    7.5108    4.9518    0.0000 H   0  0  0  0  0  0  0  0  0  0  0  0
    7.6789    1.7897    0.0000 H   0  0  0  0  0  0  0  0  0  0  0  0
    8.7764    4.5757    0.0000 H   0  0  0  0  0  0  0  0  0  0  0  0
    9.1055    1.3262    0.0000 H   0  0  0  0  0  0  0  0  0  0  0  0
   10.0325    4.1793    0.0000 H   0  0  0  0  0  0  0  0  0  0  0  0
   11.3074    0.8220    0.0000 H   0  0  0  0  0  0  0  0  0  0  0  0
   13.0272    5.6205    0.0000 H   0  0  0  0  0  0  0  0  0  0  0  0
   10.3718    5.2237    0.0000 H   0  0  0  0  0  0  0  0  0  0  0  0
   14.7656    3.6897    0.0000 H   0  0  0  0  0  0  0  0  0  0  0  0
    3.0598    2.1359    0.0000 H   0  0  0  0  0  0  0  0  0  0  0  0
   -0.1052    4.5302    0.0000 H   0  0  0  0  0  0  0  0  0  0  0  0
    3.2812    5.3887    0.0000 H   0  0  0  0  0  0  0  0  0  0  0  0
    0.3583    5.9568    0.0000 H   0  0  0  0  0  0  0  0  0  0  0  0
    4.9869    6.6562    0.0000 H   0  0  0  0  0  0  0  0  0  0  0  0
    4.8885    9.7651    0.0000 H   0  0  0  0  0  0  0  0  0  0  0  0
    2.5200   11.9308    0.0000 H   0  0  0  0  0  0  0  0  0  0  0  0
   -0.4636   12.2443    0.0000 H   0  0  0  0  0  0  0  0  0  0  0  0
   -2.2269    9.8173    0.0000 H   0  0  0  0  0  0  0  0  0  0  0  0
   -1.0067    7.0767    0.0000 H   0  0  0  0  0  0  0  0  0  0  0  0
   -1.6131    3.4430    0.0000 H   0  0  0  0  0  0  0  0  0  0  0  0
    0.3537    0.4381    0.0000 H   0  0  0  0  0  0  0  0  0  0  0  0
   -2.4995    1.3652    0.0000 H   0  0  0  0  0  0  0  0  0  0  0  0
    0.8855   -1.1513    0.0000 H   0  0  0  0  0  0  0  0  0  0  0  0
   -1.2825   -4.5387    0.0000 H   0  0  0  0  0  0  0  0  0  0  0  0
   -0.0332   -4.9563    0.0000 H   0  0  0  0  0  0  0  0  0  0  0  0
    1.0643   -2.1703    0.0000 H   0  0  0  0  0  0  0  0  0  0  0  0
    1.3934   -5.4199    0.0000 H   0  0  0  0  0  0  0  0  0  0  0  0
    2.3204   -2.5667    0.0000 H   0  0  0  0  0  0  0  0  0  0  0  0
    3.7470   -3.0302    0.0000 H   0  0  0  0  0  0  0  0  0  0  0  0
    2.8200   -5.8834    0.0000 H   0  0  0  0  0  0  0  0  0  0  0  0
    4.2465   -6.3469    0.0000 H   0  0  0  0  0  0  0  0  0  0  0  0
    5.1736   -3.4937    0.0000 H   0  0  0  0  0  0  0  0  0  0  0  0
    7.2514   -4.3802    0.0000 H   0  0  0  0  0  0  0  0  0  0  0  0
    6.4485   -6.8511    0.0000 H   0  0  0  0  0  0  0  0  0  0  0  0
   -1.8865   -4.9675    0.0000 H   0  0  0  0  0  0  0  0  0  0  0  0
   -2.9173   -6.5248    0.0000 H   0  0  0  0  0  0  0  0  0  0  0  0
   -4.0011   -7.0073    0.0000 H   0  0  0  0  0  0  0  0  0  0  0  0
   -5.9646   -6.5900    0.0000 H   0  0  0  0  0  0  0  0  0  0  0  0
   -6.7585   -5.7083    0.0000 H   0  0  0  0  0  0  0  0  0  0  0  0
   -7.1456   -4.0317    0.0000 H   0  0  0  0  0  0  0  0  0  0  0  0
   -4.5413   -1.8679    0.0000 H   0  0  0  0  0  0  0  0  0  0  0  0
   -5.2200   -0.4655    0.0000 H   0  0  0  0  0  0  0  0  0  0  0  0
   -9.3367   -0.1440    0.0000 H   0  0  0  0  0  0  0  0  0  0  0  0
   -5.8577    0.3493    0.0000 H   0  0  0  0  0  0  0  0  0  0  0  0
   -6.0719    3.5284    0.0000 H   0  0  0  0  0  0  0  0  0  0  0  0
   -7.9678    2.9307    0.0000 H   0  0  0  0  0  0  0  0  0  0  0  0
   -5.3117    1.5480    0.0000 H   0  0  0  0  0  0  0  0  0  0  0  0
  -10.0328    2.0080    0.0000 H   0  0  0  0  0  0  0  0  0  0  0  0
   -8.2239    2.8324    0.0000 H   0  0  0  0  0  0  0  0  0  0  0  0
   -9.4350    0.1122    0.0000 H   0  0  0  0  0  0  0  0  0  0  0  0
  -10.6142   -3.4800    0.0000 H   0  0  0  0  0  0  0  0  0  0  0  0
  -10.8858   -0.8961    0.0000 H   0  0  0  0  0  0  0  0  0  0  0  0
  1  2  1  0
  2  3  1  0
  3  4  1  0
  4  5  1  0
  5  6  1  0
  6  7  1  0
  7  8  2  0
  7  9  1  0
  9 10  1  0
 10 11  1  0
  9 12  1  0
 12 13  1  0
 13 14  2  0
 13 15  1  0
 15 16  1  0
 16 17  1  0
 17 18  2  0
 18 19  1  0
 19 20  2  0
 20 21  1  0
 20 22  1  0
 22 23  2  0
 15 24  1  0
 24 25  1  0
 25 26  2  0
 25 27  1  0
 27 28  1  0
 28 29  1  0
 27 30  1  0
 30 31  1  0
 31 32  1  0
 31 33  2  0
  5 34  1  0
 34 35  2  0
 34 36  1  0
 36 37  1  0
 37 38  1  0
 38 39  1  0
 39 40  1  0
 40 41  1  0
 40 42  2  0
 37 43  1  0
 43 44  2  0
 43 45  1  0
 45 46  1  0
 46 47  1  0
 47 48  1  0
 48 49  2  0
 49 50  1  0
 50 51  2  0
 51 52  1  0
 46 53  1  0
 53 54  2  0
 53 55  1  0
 55 56  1  0
 56 57  1  0
 57 58  1  0
 58 59  2  0
 59 60  1  0
 60 61  2  0
 61 62  1  0
 62 63  2  0
 56 64  1  0
 64 65  2  0
 64 66  1  0
 66 67  1  0
 67 68  1  0
 68 69  1  0
 69 70  1  0
 70 71  1  0
 71 72  1  0
 72 73  1  0
 72 74  2  3
 67 75  1  0
 75 76  2  0
 75 77  1  0
 77 78  1  0
 78 79  1  0
 79 80  1  0
 80 81  2  0
 81 82  1  0
 82 83  1  0
 83 84  2  0
 84 85  1  0
 85 86  2  0
 86 87  1  0
 87 88  2  0
 78 89  1  0
 89 90  2  0
 89 91  1  0
 91 92  1  0
 92 93  1  0
 93 94  2  0
 93 95  1  0
 95 96  1  0
 96 97  1  0
 97 98  1  0
 98 99  1  0
 99100  1  0
100101  1  0
 96102  1  0
102103  2  0
102104  1  0
104105  1  0
105106  1  0
106107  1  0
107108  1  0
108109  1  0
109110  2  0
109111  1  0
111112  1  0
112113  1  0
113114  1  0
113115  1  0
112116  1  0
116117  1  0
116118  2  0
 23 17  1  0
 52 48  1  0
 63 58  1  0
 88 80  1  0
108104  1  0
 88 83  1  0
  1119  1  0
  1120  1  0
  1121  1  0
  2122  1  0
  2123  1  0
  3124  1  0
  3125  1  0
  4126  1  0
  4127  1  0
  5128  1  6
  6129  1  0
  9130  1  1
 10131  1  0
 10132  1  0
 11133  1  0
 12134  1  0
 15135  1  6
 16136  1  0
 16137  1  0
 18138  1  0
 19139  1  0
 21140  1  0
 22141  1  0
 23142  1  0
 24143  1  0
 27144  1  1
 28145  1  0
 28146  1  0
 29147  1  0
 30148  1  0
 32149  1  0
 32150  1  0
 32151  1  0
 36152  1  0
 37153  1  1
 38154  1  0
 38155  1  0
 39156  1  0
 39157  1  0
 41158  1  0
 45159  1  0
 46160  1  6
 47161  1  0
 47162  1  0
 49163  1  0
 51164  1  0
 52165  1  0
 55166  1  0
 56167  1  6
 57168  1  0
 57169  1  0
 59170  1  0
 60171  1  0
 61172  1  0
 62173  1  0
 63174  1  0
 66175  1  0
 67176  1  6
 68177  1  0
 68178  1  0
 69179  1  0
 69180  1  0
 70181  1  0
 70182  1  0
 71183  1  0
 73184  1  0
 73185  1  0
 74186  1  0
 77187  1  0
 78188  1  1
 79189  1  0
 79190  1  0
 81191  1  0
 82192  1  0
 84193  1  0
 85194  1  0
 86195  1  0
 87196  1  0
 91197  1  0
 92198  1  0
 92199  1  0
 95200  1  0
 96201  1  6
 97202  1  0
 97203  1  0
 98204  1  0
 98205  1  0
 99206  1  0
 99207  1  0
100208  1  0
100209  1  0
101210  1  0
101211  1  0
105212  1  0
105213  1  0
106214  1  0
106215  1  0
107216  1  0
107217  1  0
108218  1  6
111219  1  0
112220  1  1
113221  1  0
114222  1  0
114223  1  0
114224  1  0
115225  1  0
115226  1  0
115227  1  0
117228  1  0
117229  1  0
M  END
$$$$
