
     RDKit          3D

 56 59  0  0  0  0  0  0  0  0999 V2000
    2.9238   -1.0451    1.5372 C   0  0  2  0  0  0  0  0  0  0  0  0
    3.4428   -2.4751    1.7306 C   0  0  0  0  0  0  0  0  0  0  0  0
    1.4742   -0.8772    2.0554 C   0  0  0  0  0  0  0  0  0  0  0  0
    0.6597   -0.5791    0.8003 C   0  0  1  0  0  0  0  0  0  0  0  0
   -0.7377    0.0650    0.9388 C   0  0  2  0  0  0  0  0  0  0  0  0
   -1.6165   -0.7756    1.8894 C   0  0  0  0  0  0  0  0  0  0  0  0
   -3.0355   -0.2193    1.9850 C   0  0  2  0  0  0  0  0  0  0  0  0
   -3.7747   -1.0315    2.8314 F   0  0  0  0  0  0  0  0  0  0  0  0
   -3.6393   -0.1296    0.5990 C   0  0  0  0  0  0  0  0  0  0  0  0
   -4.8144   -0.7271    0.3289 C   0  0  0  0  0  0  0  0  0  0  0  0
   -5.3831   -0.6982   -1.0175 C   0  0  0  0  0  0  0  0  0  0  0  0
   -6.4932   -1.2456   -1.2486 O   0  0  0  0  0  0  0  0  0  0  0  0
   -4.6487   -0.0458   -2.0961 C   0  0  0  0  0  0  0  0  0  0  0  0
   -3.4885    0.5632   -1.8535 C   0  0  0  0  0  0  0  0  0  0  0  0
   -2.8717    0.6862   -0.4586 C   0  0  1  0  0  0  0  0  0  0  0  0
   -2.9722    2.1795   -0.0615 C   0  0  0  0  0  0  0  0  0  0  0  0
   -1.3875    0.1432   -0.4901 C   0  0  1  0  0  0  0  0  0  0  0  0
   -0.4407    0.8077   -1.5557 C   0  0  1  0  0  0  0  0  0  0  0  0
   -0.4095    2.2020   -1.4082 O   0  0  0  0  0  0  0  0  0  0  0  0
    1.0051    0.2349   -1.5265 C   0  0  0  0  0  0  0  0  0  0  0  0
    1.6090    0.2192   -0.1019 C   0  0  1  0  0  0  0  0  0  0  0  0
    1.8754    1.6752    0.4033 C   0  0  0  0  0  0  0  0  0  0  0  0
    2.8915   -0.6393    0.0343 C   0  0  1  0  0  0  0  0  0  0  0  0
    4.1741    0.0207   -0.4486 C   0  0  0  0  0  0  0  0  0  0  0  0
    4.7350    0.8603    0.2409 O   0  0  0  0  0  0  0  0  0  0  0  0
    4.7890   -0.3606   -1.7680 C   0  0  0  0  0  0  0  0  0  0  0  0
    4.9393    0.7735   -2.5772 O   0  0  0  0  0  0  0  0  0  0  0  0
    3.5811   -0.3608    2.1183 H   0  0  0  0  0  0  0  0  0  0  0  0
    3.4798   -2.7208    2.8131 H   0  0  0  0  0  0  0  0  0  0  0  0
    2.7807   -3.2068    1.2195 H   0  0  0  0  0  0  0  0  0  0  0  0
    4.4688   -2.5643    1.3147 H   0  0  0  0  0  0  0  0  0  0  0  0
    1.4122   -0.0232    2.7652 H   0  0  0  0  0  0  0  0  0  0  0  0
    1.0945   -1.7894    2.5667 H   0  0  0  0  0  0  0  0  0  0  0  0
    0.4877   -1.5785    0.3268 H   0  0  0  0  0  0  0  0  0  0  0  0
   -0.6440    1.0731    1.3850 H   0  0  0  0  0  0  0  0  0  0  0  0
   -1.1735   -0.7736    2.9087 H   0  0  0  0  0  0  0  0  0  0  0  0
   -1.6606   -1.8308    1.5374 H   0  0  0  0  0  0  0  0  0  0  0  0
   -3.0054    0.7942    2.4380 H   0  0  0  0  0  0  0  0  0  0  0  0
   -5.3568   -1.2681    1.0938 H   0  0  0  0  0  0  0  0  0  0  0  0
   -5.0539   -0.0504   -3.1006 H   0  0  0  0  0  0  0  0  0  0  0  0
   -3.0174    1.0752   -2.6824 H   0  0  0  0  0  0  0  0  0  0  0  0
   -2.3528    2.4226    0.8238 H   0  0  0  0  0  0  0  0  0  0  0  0
   -2.6719    2.8517   -0.8914 H   0  0  0  0  0  0  0  0  0  0  0  0
   -4.0259    2.4386    0.1819 H   0  0  0  0  0  0  0  0  0  0  0  0
   -1.4815   -0.9151   -0.8321 H   0  0  0  0  0  0  0  0  0  0  0  0
   -0.8410    0.5644   -2.5659 H   0  0  0  0  0  0  0  0  0  0  0  0
   -0.0721    2.5788   -2.2627 H   0  0  0  0  0  0  0  0  0  0  0  0
    0.9743   -0.8008   -1.9323 H   0  0  0  0  0  0  0  0  0  0  0  0
    1.6565    0.8218   -2.2090 H   0  0  0  0  0  0  0  0  0  0  0  0
    2.4934    2.2283   -0.3354 H   0  0  0  0  0  0  0  0  0  0  0  0
    0.9568    2.2669    0.5558 H   0  0  0  0  0  0  0  0  0  0  0  0
    2.4163    1.6831    1.3718 H   0  0  0  0  0  0  0  0  0  0  0  0
    2.7411   -1.5648   -0.5689 H   0  0  0  0  0  0  0  0  0  0  0  0
    4.1802   -1.1285   -2.2961 H   0  0  0  0  0  0  0  0  0  0  0  0
    5.7912   -0.7994   -1.5801 H   0  0  0  0  0  0  0  0  0  0  0  0
    4.0366    0.9952   -2.9257 H   0  0  0  0  0  0  0  0  0  0  0  0
  1  2  1  0
  1  3  1  0
  3  4  1  0
  4  5  1  0
  5  6  1  0
  6  7  1  0
  7  8  1  0
  7  9  1  0
  9 10  2  0
 10 11  1  0
 11 12  2  0
 11 13  1  0
 13 14  2  0
 14 15  1  0
 15 16  1  1
 15 17  1  0
 17 18  1  0
 18 19  1  0
 18 20  1  0
 20 21  1  0
 21 22  1  1
 21 23  1  0
 23 24  1  0
 24 25  2  0
 24 26  1  0
 26 27  1  0
 23  1  1  0
 21  4  1  0
 17  5  1  0
 15  9  1  0
  1 28  1  1
  2 29  1  0
  2 30  1  0
  2 31  1  0
  3 32  1  0
  3 33  1  0
  4 34  1  6
  5 35  1  1
  6 36  1  0
  6 37  1  0
  7 38  1  1
 10 39  1  0
 13 40  1  0
 14 41  1  0
 16 42  1  0
 16 43  1  0
 16 44  1  0
 17 45  1  6
 18 46  1  6
 19 47  1  0
 20 48  1  0
 20 49  1  0
 22 50  1  0
 22 51  1  0
 22 52  1  0
 23 53  1  6
 26 54  1  0
 26 55  1  0
 27 56  1  0
M  END
$$$$
