
     RDKit          3D

 41 43  0  0  0  0  0  0  0  0999 V2000
    2.4230    0.1854    1.7682 C   0  0  1  0  0  0  0  0  0  0  0  0
    2.1663    1.5307    2.0760 O   0  0  0  0  0  0  0  0  0  0  0  0
    1.1523   -0.4716    1.3261 C   0  0  0  0  0  0  0  0  0  0  0  0
    0.8697   -1.6296    1.7390 O   0  0  0  0  0  0  0  0  0  0  0  0
    0.3160    0.1875    0.4174 O   0  0  0  0  0  0  0  0  0  0  0  0
   -0.9143   -0.3554   -0.0608 C   0  0  1  0  0  0  0  0  0  0  0  0
   -1.9840   -0.3403    1.0653 C   0  0  0  0  0  0  0  0  0  0  0  0
   -3.4332   -0.3785    0.5057 C   0  0  2  0  0  0  0  0  0  0  0  0
   -3.6400   -1.6328   -0.3560 C   0  0  0  0  0  0  0  0  0  0  0  0
   -3.2648   -1.1781   -1.7760 C   0  0  0  0  0  0  0  0  0  0  0  0
   -2.8749    0.2975   -1.6057 C   0  0  2  0  0  0  0  0  0  0  0  0
   -1.3519    0.4262   -1.3254 C   0  0  0  0  0  0  0  0  0  0  0  0
   -3.6619    0.7109   -0.4436 N   0  0  0  0  0  0  0  0  0  0  0  0
   -3.4446    2.0805    0.0526 C   0  0  0  0  0  0  0  0  0  0  0  0
    3.4557    0.0776    0.6695 C   0  0  0  0  0  0  0  0  0  0  0  0
    4.4709   -0.8919    0.7474 C   0  0  0  0  0  0  0  0  0  0  0  0
    5.4098   -1.0155   -0.2815 C   0  0  0  0  0  0  0  0  0  0  0  0
    5.3386   -0.1807   -1.3996 C   0  0  0  0  0  0  0  0  0  0  0  0
    4.3260    0.7772   -1.4931 C   0  0  0  0  0  0  0  0  0  0  0  0
    3.3851    0.9052   -0.4669 C   0  0  0  0  0  0  0  0  0  0  0  0
    2.7852   -0.3302    2.6890 H   0  0  0  0  0  0  0  0  0  0  0  0
    2.9674    1.8721    2.5536 H   0  0  0  0  0  0  0  0  0  0  0  0
   -0.7433   -1.4118   -0.3677 H   0  0  0  0  0  0  0  0  0  0  0  0
   -1.8293   -1.2190    1.7281 H   0  0  0  0  0  0  0  0  0  0  0  0
   -1.8514    0.5529    1.7107 H   0  0  0  0  0  0  0  0  0  0  0  0
   -4.1727   -0.3408    1.3354 H   0  0  0  0  0  0  0  0  0  0  0  0
   -4.7098   -1.9355   -0.3277 H   0  0  0  0  0  0  0  0  0  0  0  0
   -3.0179   -2.4916   -0.0210 H   0  0  0  0  0  0  0  0  0  0  0  0
   -2.4421   -1.7935   -2.2017 H   0  0  0  0  0  0  0  0  0  0  0  0
   -4.1509   -1.2575   -2.4434 H   0  0  0  0  0  0  0  0  0  0  0  0
   -3.1574    0.8887   -2.5041 H   0  0  0  0  0  0  0  0  0  0  0  0
   -1.0758    1.4974   -1.2323 H   0  0  0  0  0  0  0  0  0  0  0  0
   -0.7842    0.0441   -2.2019 H   0  0  0  0  0  0  0  0  0  0  0  0
   -2.4060    2.2652    0.3888 H   0  0  0  0  0  0  0  0  0  0  0  0
   -3.6872    2.8069   -0.7512 H   0  0  0  0  0  0  0  0  0  0  0  0
   -4.1286    2.2767    0.9049 H   0  0  0  0  0  0  0  0  0  0  0  0
    4.5352   -1.5530    1.6027 H   0  0  0  0  0  0  0  0  0  0  0  0
    6.1912   -1.7615   -0.2133 H   0  0  0  0  0  0  0  0  0  0  0  0
    6.0655   -0.2791   -2.1955 H   0  0  0  0  0  0  0  0  0  0  0  0
    4.2678    1.4189   -2.3627 H   0  0  0  0  0  0  0  0  0  0  0  0
    2.6008    1.6463   -0.5590 H   0  0  0  0  0  0  0  0  0  0  0  0
  1  2  1  0
  1  3  1  0
  3  4  2  0
  3  5  1  0
  5  6  1  0
  6  7  1  0
  7  8  1  0
  8  9  1  0
  9 10  1  0
 10 11  1  0
 11 12  1  0
 11 13  1  0
 13 14  1  0
  1 15  1  0
 15 16  2  0
 16 17  1  0
 17 18  2  0
 18 19  1  0
 19 20  2  0
 12  6  1  0
 20 15  1  0
 13  8  1  0
  1 21  1  1
  2 22  1  0
  6 23  1  6
  7 24  1  0
  7 25  1  0
  8 26  1  1
  9 27  1  0
  9 28  1  0
 10 29  1  0
 10 30  1  0
 11 31  1  6
 12 32  1  0
 12 33  1  0
 14 34  1  0
 14 35  1  0
 14 36  1  0
 16 37  1  0
 17 38  1  0
 18 39  1  0
 19 40  1  0
 20 41  1  0
M  END
$$$$
