
     RDKit          3D

 36 35  0  0  0  0  0  0  0  0999 V2000
    1.4302   -1.1167   -1.1287 C   0  0  2  0  0  0  0  0  0  0  0  0
    2.3269   -0.8296    0.0916 C   0  0  0  0  0  0  0  0  0  0  0  0
    2.6362    0.6311    0.2081 C   0  0  0  0  0  0  0  0  0  0  0  0
    2.0199    1.3376    1.0522 O   0  0  0  0  0  0  0  0  0  0  0  0
    3.5813    1.2040   -0.6476 O   0  0  0  0  0  0  0  0  0  0  0  0
    3.9022    2.5891   -0.6155 C   0  0  0  0  0  0  0  0  0  0  0  0
    0.2025   -0.3044   -1.1178 N   0  0  0  0  0  0  0  0  0  0  0  0
   -0.7552   -0.2665   -0.0492 C   0  0  0  0  0  0  0  0  0  0  0  0
   -0.6278   -1.0245    0.9495 O   0  0  0  0  0  0  0  0  0  0  0  0
   -1.8323    0.6274   -0.1412 O   0  0  0  0  0  0  0  0  0  0  0  0
   -2.8626    0.8206    0.8397 C   0  0  0  0  0  0  0  0  0  0  0  0
   -2.2585    1.3044    2.1721 C   0  0  0  0  0  0  0  0  0  0  0  0
   -3.8057    1.9064    0.2996 C   0  0  0  0  0  0  0  0  0  0  0  0
   -3.6658   -0.4778    1.0466 C   0  0  0  0  0  0  0  0  0  0  0  0
    1.1231   -2.5956   -1.2472 C   0  0  0  0  0  0  0  0  0  0  0  0
    2.1701   -3.5554   -1.7303 C   0  0  0  0  0  0  0  0  0  0  0  0
    0.0268   -3.0324   -0.9306 O   0  0  0  0  0  0  0  0  0  0  0  0
    2.0085   -0.8344   -2.0375 H   0  0  0  0  0  0  0  0  0  0  0  0
    1.8556   -1.1937    1.0285 H   0  0  0  0  0  0  0  0  0  0  0  0
    3.2870   -1.3783   -0.0201 H   0  0  0  0  0  0  0  0  0  0  0  0
    4.6740    2.8024   -1.3832 H   0  0  0  0  0  0  0  0  0  0  0  0
    2.9974    3.1939   -0.8370 H   0  0  0  0  0  0  0  0  0  0  0  0
    4.3023    2.8637    0.3835 H   0  0  0  0  0  0  0  0  0  0  0  0
    0.0302    0.3227   -1.9358 H   0  0  0  0  0  0  0  0  0  0  0  0
   -3.0625    1.5771    2.8895 H   0  0  0  0  0  0  0  0  0  0  0  0
   -1.6182    2.1962    2.0010 H   0  0  0  0  0  0  0  0  0  0  0  0
   -1.6384    0.5163    2.6458 H   0  0  0  0  0  0  0  0  0  0  0  0
   -3.2470    2.8519    0.1290 H   0  0  0  0  0  0  0  0  0  0  0  0
   -4.2461    1.5870   -0.6695 H   0  0  0  0  0  0  0  0  0  0  0  0
   -4.6329    2.1085    1.0144 H   0  0  0  0  0  0  0  0  0  0  0  0
   -4.0307   -0.8623    0.0701 H   0  0  0  0  0  0  0  0  0  0  0  0
   -4.5422   -0.2942    1.7052 H   0  0  0  0  0  0  0  0  0  0  0  0
   -3.0477   -1.2659    1.5227 H   0  0  0  0  0  0  0  0  0  0  0  0
    2.3824   -4.3034   -0.9380 H   0  0  0  0  0  0  0  0  0  0  0  0
    1.8037   -4.0794   -2.6377 H   0  0  0  0  0  0  0  0  0  0  0  0
    3.1131   -3.0260   -1.9822 H   0  0  0  0  0  0  0  0  0  0  0  0
  1  2  1  0
  2  3  1  0
  3  4  2  0
  3  5  1  0
  5  6  1  0
  1  7  1  0
  7  8  1  0
  8  9  2  0
  8 10  1  0
 10 11  1  0
 11 12  1  0
 11 13  1  0
 11 14  1  0
  1 15  1  0
 15 16  1  0
 15 17  2  0
  1 18  1  6
  2 19  1  0
  2 20  1  0
  6 21  1  0
  6 22  1  0
  6 23  1  0
  7 24  1  0
 12 25  1  0
 12 26  1  0
 12 27  1  0
 13 28  1  0
 13 29  1  0
 13 30  1  0
 14 31  1  0
 14 32  1  0
 14 33  1  0
 16 34  1  0
 16 35  1  0
 16 36  1  0
M  END
$$$$
