
     RDKit          3D

 28 28  0  0  0  0  0  0  0  0999 V2000
    4.2390    0.7435   -1.5027 O   0  0  0  0  0  0  0  0  0  0  0  0
    3.9641   -0.0407   -0.6084 C   0  0  0  0  0  0  0  0  0  0  0  0
    3.2251    0.4248    0.6122 C   0  0  0  0  0  0  0  0  0  0  0  0
    1.8065    0.9079    0.2797 C   0  0  0  0  0  0  0  0  0  0  0  0
    0.8903   -0.2470   -0.1644 C   0  0  0  0  0  0  0  0  0  0  0  0
   -0.5246    0.2379   -0.5582 C   0  0  0  0  0  0  0  0  0  0  0  0
   -1.2620    0.8794    0.6451 C   0  0  0  0  0  0  0  0  0  0  0  0
   -2.7838    0.7686    0.4870 C   0  0  0  0  0  0  0  0  0  0  0  0
   -3.2444   -0.6334    0.4262 N   0  0  0  0  0  0  0  0  0  0  0  0
   -2.2604   -1.5788   -0.1381 C   0  0  0  0  0  0  0  0  0  0  0  0
   -1.3523   -0.9158   -1.1816 C   0  0  0  0  0  0  0  0  0  0  0  0
    4.2678   -1.0788   -0.6941 H   0  0  0  0  0  0  0  0  0  0  0  0
    3.1758   -0.4028    1.3526 H   0  0  0  0  0  0  0  0  0  0  0  0
    3.7949    1.2586    1.0760 H   0  0  0  0  0  0  0  0  0  0  0  0
    1.8511    1.6858   -0.5140 H   0  0  0  0  0  0  0  0  0  0  0  0
    1.3872    1.3806    1.1934 H   0  0  0  0  0  0  0  0  0  0  0  0
    0.8164   -1.0007    0.6503 H   0  0  0  0  0  0  0  0  0  0  0  0
    1.3539   -0.7437   -1.0445 H   0  0  0  0  0  0  0  0  0  0  0  0
   -0.4077    1.0157   -1.3466 H   0  0  0  0  0  0  0  0  0  0  0  0
   -0.9809    1.9518    0.7278 H   0  0  0  0  0  0  0  0  0  0  0  0
   -0.9748    0.3780    1.5959 H   0  0  0  0  0  0  0  0  0  0  0  0
   -3.0963    1.2922   -0.4423 H   0  0  0  0  0  0  0  0  0  0  0  0
   -3.2782    1.2896    1.3365 H   0  0  0  0  0  0  0  0  0  0  0  0
   -3.4759   -0.9504    1.3970 H   0  0  0  0  0  0  0  0  0  0  0  0
   -1.6313   -2.0100    0.6734 H   0  0  0  0  0  0  0  0  0  0  0  0
   -2.8086   -2.4174   -0.6176 H   0  0  0  0  0  0  0  0  0  0  0  0
   -0.6973   -1.6850   -1.6455 H   0  0  0  0  0  0  0  0  0  0  0  0
   -1.9937   -0.5098   -1.9950 H   0  0  0  0  0  0  0  0  0  0  0  0
  1  2  2  0
  2  3  1  0
  3  4  1  0
  4  5  1  0
  5  6  1  0
  6  7  1  0
  7  8  1  0
  8  9  1  0
  9 10  1  0
 10 11  1  0
 11  6  1  0
  2 12  1  0
  3 13  1  0
  3 14  1  0
  4 15  1  0
  4 16  1  0
  5 17  1  0
  5 18  1  0
  6 19  1  0
  7 20  1  0
  7 21  1  0
  8 22  1  0
  8 23  1  0
  9 24  1  0
 10 25  1  0
 10 26  1  0
 11 27  1  0
 11 28  1  0
M  END
$$$$
