
     RDKit          3D

 34 34  0  0  0  0  0  0  0  0999 V2000
   -1.6659    1.0833    1.8510 C   0  0  0  0  0  0  0  0  0  0  0  0
   -1.8922    0.8530    0.3597 C   0  0  0  0  0  0  0  0  0  0  0  0
   -1.1527   -0.3489   -0.0887 N   0  0  0  0  0  0  0  0  0  0  0  0
   -1.8941   -1.6069    0.1728 C   0  0  0  0  0  0  0  0  0  0  0  0
   -0.9469   -2.6797    0.6965 C   0  0  0  0  0  0  0  0  0  0  0  0
   -0.6274   -0.2508   -1.4783 C   0  0  0  0  0  0  0  0  0  0  0  0
   -1.7272    0.0804   -2.5166 C   0  0  0  0  0  0  0  0  0  0  0  0
    0.5168    0.7512   -1.5303 C   0  0  0  0  0  0  0  0  0  0  0  0
    0.5118    1.6590   -2.4079 O   0  0  0  0  0  0  0  0  0  0  0  0
    1.6383    0.7089   -0.5574 C   0  0  0  0  0  0  0  0  0  0  0  0
    2.0212   -0.4919    0.0687 C   0  0  0  0  0  0  0  0  0  0  0  0
    3.0696   -0.5069    0.9936 C   0  0  0  0  0  0  0  0  0  0  0  0
    3.7517    0.6724    1.2992 C   0  0  0  0  0  0  0  0  0  0  0  0
    3.3899    1.8685    0.6764 C   0  0  0  0  0  0  0  0  0  0  0  0
    2.3419    1.8885   -0.2490 C   0  0  0  0  0  0  0  0  0  0  0  0
   -0.5791    1.1890    2.0560 H   0  0  0  0  0  0  0  0  0  0  0  0
   -2.0663    0.2378    2.4475 H   0  0  0  0  0  0  0  0  0  0  0  0
   -2.1819    2.0143    2.1673 H   0  0  0  0  0  0  0  0  0  0  0  0
   -1.5310    1.7659   -0.1622 H   0  0  0  0  0  0  0  0  0  0  0  0
   -2.9808    0.7580    0.1471 H   0  0  0  0  0  0  0  0  0  0  0  0
   -2.4044   -1.9911   -0.7340 H   0  0  0  0  0  0  0  0  0  0  0  0
   -2.6844   -1.4622    0.9423 H   0  0  0  0  0  0  0  0  0  0  0  0
   -1.5308   -3.5662    1.0228 H   0  0  0  0  0  0  0  0  0  0  0  0
   -0.2461   -3.0008   -0.1013 H   0  0  0  0  0  0  0  0  0  0  0  0
   -0.3710   -2.2918    1.5636 H   0  0  0  0  0  0  0  0  0  0  0  0
   -0.1977   -1.2318   -1.7775 H   0  0  0  0  0  0  0  0  0  0  0  0
   -2.5636   -0.6443   -2.4742 H   0  0  0  0  0  0  0  0  0  0  0  0
   -1.3005    0.0313   -3.5413 H   0  0  0  0  0  0  0  0  0  0  0  0
   -2.1386    1.0998   -2.3629 H   0  0  0  0  0  0  0  0  0  0  0  0
    1.5294   -1.4227   -0.1676 H   0  0  0  0  0  0  0  0  0  0  0  0
    3.3567   -1.4356    1.4696 H   0  0  0  0  0  0  0  0  0  0  0  0
    4.5633    0.6585    2.0152 H   0  0  0  0  0  0  0  0  0  0  0  0
    3.9203    2.7821    0.9122 H   0  0  0  0  0  0  0  0  0  0  0  0
    2.0718    2.8294   -0.7122 H   0  0  0  0  0  0  0  0  0  0  0  0
  1  2  1  0
  2  3  1  0
  3  4  1  0
  4  5  1  0
  3  6  1  0
  6  7  1  0
  6  8  1  0
  8  9  2  0
  8 10  1  0
 10 11  2  0
 11 12  1  0
 12 13  2  0
 13 14  1  0
 14 15  2  0
 15 10  1  0
  1 16  1  0
  1 17  1  0
  1 18  1  0
  2 19  1  0
  2 20  1  0
  4 21  1  0
  4 22  1  0
  5 23  1  0
  5 24  1  0
  5 25  1  0
  6 26  1  0
  7 27  1  0
  7 28  1  0
  7 29  1  0
 11 30  1  0
 12 31  1  0
 13 32  1  0
 14 33  1  0
 15 34  1  0
M  END
$$$$
