
     RDKit          3D

 61 63  0  0  0  0  0  0  0  0999 V2000
   -1.6660    0.9238    2.0045 C   0  0  0  0  0  0  0  0  0  0  0  0
   -1.1869    0.2198    0.8802 O   0  0  0  0  0  0  0  0  0  0  0  0
   -0.8792    1.1139   -0.1796 C   0  0  1  0  0  0  0  0  0  0  0  0
    0.6382    1.3604   -0.2239 C   0  0  0  0  0  0  0  0  0  0  0  0
    1.3647    0.0976   -0.4842 N   0  0  0  0  0  0  0  0  0  0  0  0
    2.8280    0.3049   -0.4061 C   0  0  0  0  0  0  0  0  0  0  0  0
    3.3105    0.1574    1.0442 C   0  0  0  0  0  0  0  0  0  0  0  0
    4.8286    0.3022    1.1553 C   0  0  0  0  0  0  0  0  0  0  0  0
    5.4732   -0.7751    0.4788 O   0  0  0  0  0  0  0  0  0  0  0  0
    6.8633   -0.9371    0.3890 C   0  0  0  0  0  0  0  0  0  0  0  0
    7.7697   -0.0348    0.9809 C   0  0  0  0  0  0  0  0  0  0  0  0
    9.1478   -0.2423    0.8610 C   0  0  0  0  0  0  0  0  0  0  0  0
    9.6323   -1.3458    0.1533 C   0  0  0  0  0  0  0  0  0  0  0  0
   10.9685   -1.5447    0.0384 F   0  0  0  0  0  0  0  0  0  0  0  0
    8.7384   -2.2441   -0.4358 C   0  0  0  0  0  0  0  0  0  0  0  0
    7.3602   -2.0398   -0.3178 C   0  0  0  0  0  0  0  0  0  0  0  0
    0.9861   -0.4365   -1.8089 C   0  0  0  0  0  0  0  0  0  0  0  0
   -0.5127   -0.7519   -1.8504 C   0  0  0  0  0  0  0  0  0  0  0  0
   -1.3432    0.4999   -1.5167 C   0  0  1  0  0  0  0  0  0  0  0  0
   -2.7704    0.1658   -1.4547 N   0  0  0  0  0  0  0  0  0  0  0  0
   -3.7910    1.1749   -1.4101 C   0  0  0  0  0  0  0  0  0  0  0  0
   -3.5144    2.3612   -1.7381 O   0  0  0  0  0  0  0  0  0  0  0  0
   -5.1771    0.8345   -1.0148 C   0  0  0  0  0  0  0  0  0  0  0  0
   -6.2480    1.4780   -1.6551 C   0  0  0  0  0  0  0  0  0  0  0  0
   -7.5709    1.1803   -1.3166 C   0  0  0  0  0  0  0  0  0  0  0  0
   -8.8605    2.0168   -2.1735 Cl  0  0  0  0  0  0  0  0  0  0  0  0
   -7.8416    0.2302   -0.3152 C   0  0  0  0  0  0  0  0  0  0  0  0
   -9.1869   -0.1006    0.0529 N   0  0  0  0  0  0  0  0  0  0  0  0
   -6.7756   -0.4008    0.3409 C   0  0  0  0  0  0  0  0  0  0  0  0
   -5.4402   -0.1001    0.0091 C   0  0  0  0  0  0  0  0  0  0  0  0
   -4.3634   -0.6903    0.6921 O   0  0  0  0  0  0  0  0  0  0  0  0
   -4.4896   -1.6310    1.7531 C   0  0  0  0  0  0  0  0  0  0  0  0
   -2.6441    1.4042    1.7808 H   0  0  0  0  0  0  0  0  0  0  0  0
   -0.9301    1.6822    2.3519 H   0  0  0  0  0  0  0  0  0  0  0  0
   -1.8259    0.2029    2.8321 H   0  0  0  0  0  0  0  0  0  0  0  0
   -1.3834    2.1062   -0.0787 H   0  0  0  0  0  0  0  0  0  0  0  0
    0.9466    1.7917    0.7513 H   0  0  0  0  0  0  0  0  0  0  0  0
    0.8680    2.1177   -1.0088 H   0  0  0  0  0  0  0  0  0  0  0  0
    3.1180    1.3027   -0.8084 H   0  0  0  0  0  0  0  0  0  0  0  0
    3.3656   -0.4573   -1.0144 H   0  0  0  0  0  0  0  0  0  0  0  0
    2.8406    0.9345    1.6823 H   0  0  0  0  0  0  0  0  0  0  0  0
    3.0081   -0.8381    1.4365 H   0  0  0  0  0  0  0  0  0  0  0  0
    5.1114    0.2841    2.2302 H   0  0  0  0  0  0  0  0  0  0  0  0
    5.1457    1.2727    0.7146 H   0  0  0  0  0  0  0  0  0  0  0  0
    7.4209    0.8264    1.5341 H   0  0  0  0  0  0  0  0  0  0  0  0
    9.8397    0.4538    1.3176 H   0  0  0  0  0  0  0  0  0  0  0  0
    9.1121   -3.0993   -0.9842 H   0  0  0  0  0  0  0  0  0  0  0  0
    6.6746   -2.7404   -0.7774 H   0  0  0  0  0  0  0  0  0  0  0  0
    1.5313   -1.3860   -2.0065 H   0  0  0  0  0  0  0  0  0  0  0  0
    1.2455    0.2858   -2.6169 H   0  0  0  0  0  0  0  0  0  0  0  0
   -0.7827   -1.1170   -2.8651 H   0  0  0  0  0  0  0  0  0  0  0  0
   -0.7333   -1.5628   -1.1212 H   0  0  0  0  0  0  0  0  0  0  0  0
   -1.1844    1.2410   -2.3328 H   0  0  0  0  0  0  0  0  0  0  0  0
   -3.0642   -0.8373   -1.4797 H   0  0  0  0  0  0  0  0  0  0  0  0
   -6.0551    2.2051   -2.4351 H   0  0  0  0  0  0  0  0  0  0  0  0
  -10.0112    0.3440   -0.4066 H   0  0  0  0  0  0  0  0  0  0  0  0
   -9.3745   -0.8060    0.8001 H   0  0  0  0  0  0  0  0  0  0  0  0
   -6.9975   -1.1197    1.1179 H   0  0  0  0  0  0  0  0  0  0  0  0
   -5.0357   -1.1741    2.6052 H   0  0  0  0  0  0  0  0  0  0  0  0
   -5.0209   -2.5388    1.3975 H   0  0  0  0  0  0  0  0  0  0  0  0
   -3.4770   -1.9248    2.0973 H   0  0  0  0  0  0  0  0  0  0  0  0
  1  2  1  0
  2  3  1  0
  3  4  1  0
  4  5  1  0
  5  6  1  0
  6  7  1  0
  7  8  1  0
  8  9  1  0
  9 10  1  0
 10 11  2  0
 11 12  1  0
 12 13  2  0
 13 14  1  0
 13 15  1  0
 15 16  2  0
  5 17  1  0
 17 18  1  0
 18 19  1  0
 19 20  1  0
 20 21  1  0
 21 22  2  0
 21 23  1  0
 23 24  2  0
 24 25  1  0
 25 26  1  0
 25 27  2  0
 27 28  1  0
 27 29  1  0
 29 30  2  0
 30 31  1  0
 31 32  1  0
 19  3  1  0
 30 23  1  0
 16 10  1  0
  1 33  1  0
  1 34  1  0
  1 35  1  0
  3 36  1  1
  4 37  1  0
  4 38  1  0
  6 39  1  0
  6 40  1  0
  7 41  1  0
  7 42  1  0
  8 43  1  0
  8 44  1  0
 11 45  1  0
 12 46  1  0
 15 47  1  0
 16 48  1  0
 17 49  1  0
 17 50  1  0
 18 51  1  0
 18 52  1  0
 19 53  1  6
 20 54  1  0
 24 55  1  0
 28 56  1  0
 28 57  1  0
 29 58  1  0
 32 59  1  0
 32 60  1  0
 32 61  1  0
M  END
$$$$
