
     RDKit          3D

 54 57  0  0  0  0  0  0  0  0999 V2000
    2.9876   -0.7063    0.9261 C   0  0  1  0  0  0  0  0  0  0  0  0
    3.3005   -1.5190   -0.3526 C   0  0  0  0  0  0  0  0  0  0  0  0
    2.0462   -1.4450   -1.2427 C   0  0  0  0  0  0  0  0  0  0  0  0
    1.0999   -0.5114   -0.4914 C   0  0  1  0  0  0  0  0  0  0  0  0
   -0.4182   -0.5955   -0.7551 C   0  0  2  0  0  0  0  0  0  0  0  0
   -0.7093   -0.5227   -2.2762 C   0  0  0  0  0  0  0  0  0  0  0  0
   -2.2091   -0.4272   -2.5740 C   0  0  0  0  0  0  0  0  0  0  0  0
   -2.7719    0.7438   -1.8114 C   0  0  0  0  0  0  0  0  0  0  0  0
   -3.0102    1.8908   -2.4759 C   0  0  0  0  0  0  0  0  0  0  0  0
   -3.1781    3.1717   -1.7768 C   0  0  0  0  0  0  0  0  0  0  0  0
   -3.4629    4.2096   -2.4310 O   0  0  0  0  0  0  0  0  0  0  0  0
   -2.9228    3.2622   -0.3072 C   0  0  0  0  0  0  0  0  0  0  0  0
   -3.3236    1.9491    0.3617 C   0  0  0  0  0  0  0  0  0  0  0  0
   -2.6538    0.6913   -0.2840 C   0  0  1  0  0  0  0  0  0  0  0  0
   -3.4506   -0.5384    0.2345 C   0  0  0  0  0  0  0  0  0  0  0  0
   -1.1057    0.5900    0.0231 C   0  0  1  0  0  0  0  0  0  0  0  0
   -0.7074    0.6206    1.5394 C   0  0  1  0  0  0  0  0  0  0  0  0
   -1.3785   -0.3866    2.2481 O   0  0  0  0  0  0  0  0  0  0  0  0
    0.8310    0.5002    1.7623 C   0  0  0  0  0  0  0  0  0  0  0  0
    1.4410   -0.6982    0.9927 C   0  0  2  0  0  0  0  0  0  0  0  0
    0.9233   -2.0187    1.5814 C   0  0  0  0  0  0  0  0  0  0  0  0
    1.0622   -3.0827    0.9989 O   0  0  0  0  0  0  0  0  0  0  0  0
    3.7202   -1.2115    2.1609 C   0  0  0  0  0  0  0  0  0  0  0  0
    3.1436   -1.2821    3.2362 O   0  0  0  0  0  0  0  0  0  0  0  0
    5.2014   -1.4814    2.1159 C   0  0  0  0  0  0  0  0  0  0  0  0
    5.9004   -0.3034    1.8213 O   0  0  0  0  0  0  0  0  0  0  0  0
    3.3396    0.3368    0.7536 H   0  0  0  0  0  0  0  0  0  0  0  0
    3.5112   -2.5836   -0.1092 H   0  0  0  0  0  0  0  0  0  0  0  0
    4.1827   -1.0913   -0.8773 H   0  0  0  0  0  0  0  0  0  0  0  0
    2.2957   -1.0330   -2.2451 H   0  0  0  0  0  0  0  0  0  0  0  0
    1.5949   -2.4516   -1.3757 H   0  0  0  0  0  0  0  0  0  0  0  0
    1.4170    0.5167   -0.7977 H   0  0  0  0  0  0  0  0  0  0  0  0
   -0.7921   -1.5709   -0.3840 H   0  0  0  0  0  0  0  0  0  0  0  0
   -0.3091   -1.4297   -2.7784 H   0  0  0  0  0  0  0  0  0  0  0  0
   -0.1983    0.3626   -2.7167 H   0  0  0  0  0  0  0  0  0  0  0  0
   -2.3606   -0.3190   -3.6706 H   0  0  0  0  0  0  0  0  0  0  0  0
   -2.7160   -1.3675   -2.2736 H   0  0  0  0  0  0  0  0  0  0  0  0
   -3.0088    1.9028   -3.5596 H   0  0  0  0  0  0  0  0  0  0  0  0
   -1.8500    3.4818   -0.1272 H   0  0  0  0  0  0  0  0  0  0  0  0
   -3.5219    4.0912    0.1283 H   0  0  0  0  0  0  0  0  0  0  0  0
   -3.1197    2.0069    1.4499 H   0  0  0  0  0  0  0  0  0  0  0  0
   -4.4307    1.8625    0.2688 H   0  0  0  0  0  0  0  0  0  0  0  0
   -4.4512   -0.5765   -0.2491 H   0  0  0  0  0  0  0  0  0  0  0  0
   -3.6321   -0.4743    1.3275 H   0  0  0  0  0  0  0  0  0  0  0  0
   -2.9479   -1.5022    0.0311 H   0  0  0  0  0  0  0  0  0  0  0  0
   -0.6582    1.5181   -0.4001 H   0  0  0  0  0  0  0  0  0  0  0  0
   -1.0001    1.6125    1.9517 H   0  0  0  0  0  0  0  0  0  0  0  0
   -1.3592   -0.1293    3.2069 H   0  0  0  0  0  0  0  0  0  0  0  0
    1.0467    0.4090    2.8490 H   0  0  0  0  0  0  0  0  0  0  0  0
    1.3087    1.4465    1.4237 H   0  0  0  0  0  0  0  0  0  0  0  0
    0.4520   -2.0313    2.5580 H   0  0  0  0  0  0  0  0  0  0  0  0
    5.5522   -1.9041    3.0852 H   0  0  0  0  0  0  0  0  0  0  0  0
    5.4223   -2.2350    1.3327 H   0  0  0  0  0  0  0  0  0  0  0  0
    5.8775    0.2527    2.6437 H   0  0  0  0  0  0  0  0  0  0  0  0
  1  2  1  0
  2  3  1  0
  3  4  1  0
  4  5  1  0
  5  6  1  0
  6  7  1  0
  7  8  1  0
  8  9  2  0
  9 10  1  0
 10 11  2  0
 10 12  1  0
 12 13  1  0
 13 14  1  0
 14 15  1  1
 14 16  1  0
 16 17  1  0
 17 18  1  0
 17 19  1  0
 19 20  1  0
 20 21  1  1
 21 22  2  0
  1 23  1  0
 23 24  2  0
 23 25  1  0
 25 26  1  0
 20  1  1  0
 20  4  1  0
 16  5  1  0
 14  8  1  0
  1 27  1  6
  2 28  1  0
  2 29  1  0
  3 30  1  0
  3 31  1  0
  4 32  1  6
  5 33  1  1
  6 34  1  0
  6 35  1  0
  7 36  1  0
  7 37  1  0
  9 38  1  0
 12 39  1  0
 12 40  1  0
 13 41  1  0
 13 42  1  0
 15 43  1  0
 15 44  1  0
 15 45  1  0
 16 46  1  6
 17 47  1  1
 18 48  1  0
 19 49  1  0
 19 50  1  0
 21 51  1  0
 25 52  1  0
 25 53  1  0
 26 54  1  0
M  END
$$$$
