
     RDKit          3D

 32 34  0  0  0  0  0  0  0  0999 V2000
    2.1603   -0.5445    0.8967 C   0  0  1  0  0  0  0  0  0  0  0  0
    3.2730    0.3005    1.5353 C   0  0  0  0  0  0  0  0  0  0  0  0
    3.7712    1.3149    0.6077 N   0  0  0  0  0  0  0  0  0  0  0  0
    0.8716    0.2717    0.6851 C   0  0  0  0  0  0  0  0  0  0  0  0
   -0.1043   -0.5495   -0.0293 N   0  0  0  0  0  0  0  0  0  0  0  0
    0.3537   -1.3259   -1.1808 C   0  0  0  0  0  0  0  0  0  0  0  0
    1.6815   -2.0103   -0.8418 C   0  0  0  0  0  0  0  0  0  0  0  0
    2.6186   -1.0760   -0.3364 O   0  0  0  0  0  0  0  0  0  0  0  0
   -1.4988   -0.2530    0.1051 C   0  0  0  0  0  0  0  0  0  0  0  0
   -2.3223   -0.9766    0.9952 C   0  0  0  0  0  0  0  0  0  0  0  0
   -1.6059   -2.3936    2.0630 Br  0  0  0  0  0  0  0  0  0  0  0  0
   -3.6972   -0.6496    1.0989 C   0  0  0  0  0  0  0  0  0  0  0  0
   -4.2337    0.3597    0.3469 N   0  0  0  0  0  0  0  0  0  0  0  0
   -3.4243    1.0410   -0.5003 C   0  0  0  0  0  0  0  0  0  0  0  0
   -2.1012    0.7629   -0.6333 C   0  0  0  0  0  0  0  0  0  0  0  0
   -1.6377    1.6625   -1.5705 C   0  0  0  0  0  0  0  0  0  0  0  0
   -2.6790    2.4392   -1.9650 N   0  0  0  0  0  0  0  0  0  0  0  0
   -3.7677    2.0535   -1.3068 N   0  0  0  0  0  0  0  0  0  0  0  0
    1.9391   -1.3695    1.6150 H   0  0  0  0  0  0  0  0  0  0  0  0
    4.1092   -0.3791    1.8130 H   0  0  0  0  0  0  0  0  0  0  0  0
    2.9058    0.7803    2.4706 H   0  0  0  0  0  0  0  0  0  0  0  0
    4.6885    1.6587    0.9737 H   0  0  0  0  0  0  0  0  0  0  0  0
    3.1251    2.1363    0.6374 H   0  0  0  0  0  0  0  0  0  0  0  0
    0.4618    0.5810    1.6721 H   0  0  0  0  0  0  0  0  0  0  0  0
    1.0768    1.1816    0.0826 H   0  0  0  0  0  0  0  0  0  0  0  0
   -0.3992   -2.0990   -1.4495 H   0  0  0  0  0  0  0  0  0  0  0  0
    0.4956   -0.6475   -2.0496 H   0  0  0  0  0  0  0  0  0  0  0  0
    1.5162   -2.8429   -0.1204 H   0  0  0  0  0  0  0  0  0  0  0  0
    2.0960   -2.4607   -1.7681 H   0  0  0  0  0  0  0  0  0  0  0  0
   -4.3331   -1.2006    1.7788 H   0  0  0  0  0  0  0  0  0  0  0  0
   -0.6256    1.7539   -1.9413 H   0  0  0  0  0  0  0  0  0  0  0  0
   -4.7141    2.4806   -1.4148 H   0  0  0  0  0  0  0  0  0  0  0  0
  1  2  1  0
  2  3  1  0
  1  4  1  0
  4  5  1  0
  5  6  1  0
  6  7  1  0
  7  8  1  0
  5  9  1  0
  9 10  2  0
 10 11  1  0
 10 12  1  0
 12 13  2  0
 13 14  1  0
 14 15  2  0
 15 16  1  0
 16 17  2  0
 17 18  1  0
  8  1  1  0
 15  9  1  0
 18 14  1  0
  1 19  1  1
  2 20  1  0
  2 21  1  0
  3 22  1  0
  3 23  1  0
  4 24  1  0
  4 25  1  0
  6 26  1  0
  6 27  1  0
  7 28  1  0
  7 29  1  0
 12 30  1  0
 16 31  1  0
 18 32  1  0
M  END
$$$$
