
     RDKit          3D

 45 47  0  0  0  0  0  0  0  0999 V2000
   -4.9025   -2.8979   -0.2415 C   0  0  0  0  0  0  0  0  0  0  0  0
   -4.2413   -1.5674   -0.5830 C   0  0  0  0  0  0  0  0  0  0  0  0
   -2.8002   -1.6352   -0.3527 N   0  0  0  0  0  0  0  0  0  0  0  0
   -1.8988   -2.2551   -1.2827 C   0  0  0  0  0  0  0  0  0  0  0  0
   -2.3518   -2.9382   -2.2404 O   0  0  0  0  0  0  0  0  0  0  0  0
   -0.4387   -2.1457   -1.1152 C   0  0  0  0  0  0  0  0  0  0  0  0
    0.4123   -3.1159   -1.5060 N   0  0  0  0  0  0  0  0  0  0  0  0
    1.6390   -2.7381   -1.1854 N   0  0  0  0  0  0  0  0  0  0  0  0
    1.6012   -1.5300   -0.5932 C   0  0  0  0  0  0  0  0  0  0  0  0
    0.2820   -1.1039   -0.5375 C   0  0  0  0  0  0  0  0  0  0  0  0
   -0.2135    0.2041   -0.0575 C   0  0  0  0  0  0  0  0  0  0  0  0
   -1.1045    0.9566   -0.8378 C   0  0  0  0  0  0  0  0  0  0  0  0
   -1.5608    2.1994   -0.3897 C   0  0  0  0  0  0  0  0  0  0  0  0
   -1.1245    2.7118    0.8470 C   0  0  0  0  0  0  0  0  0  0  0  0
   -1.5521    3.9534    1.3402 O   0  0  0  0  0  0  0  0  0  0  0  0
   -2.4576    4.8184    0.6626 C   0  0  0  0  0  0  0  0  0  0  0  0
   -0.2302    1.9617    1.6191 C   0  0  0  0  0  0  0  0  0  0  0  0
    0.2240    0.7180    1.1725 C   0  0  0  0  0  0  0  0  0  0  0  0
    2.8058   -0.7602   -0.2175 C   0  0  0  0  0  0  0  0  0  0  0  0
    2.9724    0.5402   -0.7225 C   0  0  0  0  0  0  0  0  0  0  0  0
    4.1135    1.2847   -0.4112 C   0  0  0  0  0  0  0  0  0  0  0  0
    4.2865    2.9093   -1.0567 Cl  0  0  0  0  0  0  0  0  0  0  0  0
    5.1094    0.7323    0.4031 C   0  0  0  0  0  0  0  0  0  0  0  0
    6.2503    1.4731    0.7077 O   0  0  0  0  0  0  0  0  0  0  0  0
    4.9517   -0.5639    0.9097 C   0  0  0  0  0  0  0  0  0  0  0  0
    3.8050   -1.3108    0.6165 C   0  0  0  0  0  0  0  0  0  0  0  0
    3.6783   -2.5784    1.1883 O   0  0  0  0  0  0  0  0  0  0  0  0
   -4.5236   -3.7037   -0.9041 H   0  0  0  0  0  0  0  0  0  0  0  0
   -6.0010   -2.8134   -0.3786 H   0  0  0  0  0  0  0  0  0  0  0  0
   -4.6930   -3.1664    0.8157 H   0  0  0  0  0  0  0  0  0  0  0  0
   -4.4467   -1.2957   -1.6410 H   0  0  0  0  0  0  0  0  0  0  0  0
   -4.6777   -0.7760    0.0640 H   0  0  0  0  0  0  0  0  0  0  0  0
   -2.4249   -1.2089    0.5234 H   0  0  0  0  0  0  0  0  0  0  0  0
    2.4958   -3.2935   -1.4038 H   0  0  0  0  0  0  0  0  0  0  0  0
   -1.4396    0.5861   -1.7987 H   0  0  0  0  0  0  0  0  0  0  0  0
   -2.2480    2.7546   -1.0133 H   0  0  0  0  0  0  0  0  0  0  0  0
   -2.0330    5.1239   -0.3171 H   0  0  0  0  0  0  0  0  0  0  0  0
   -2.6204    5.7268    1.2779 H   0  0  0  0  0  0  0  0  0  0  0  0
   -3.4334    4.3094    0.5146 H   0  0  0  0  0  0  0  0  0  0  0  0
    0.1136    2.3447    2.5715 H   0  0  0  0  0  0  0  0  0  0  0  0
    0.9106    0.1527    1.7906 H   0  0  0  0  0  0  0  0  0  0  0  0
    2.2204    0.9725   -1.3717 H   0  0  0  0  0  0  0  0  0  0  0  0
    6.9856    1.0973    1.2951 H   0  0  0  0  0  0  0  0  0  0  0  0
    5.7167   -0.9894    1.5474 H   0  0  0  0  0  0  0  0  0  0  0  0
    2.8436   -3.1430    1.0982 H   0  0  0  0  0  0  0  0  0  0  0  0
  1  2  1  0
  2  3  1  0
  3  4  1  0
  4  5  2  0
  4  6  1  0
  6  7  2  0
  7  8  1  0
  8  9  1  0
  9 10  2  0
 10 11  1  0
 11 12  2  0
 12 13  1  0
 13 14  2  0
 14 15  1  0
 15 16  1  0
 14 17  1  0
 17 18  2  0
  9 19  1  0
 19 20  2  0
 20 21  1  0
 21 22  1  0
 21 23  2  0
 23 24  1  0
 23 25  1  0
 25 26  2  0
 26 27  1  0
 10  6  1  0
 18 11  1  0
 26 19  1  0
  1 28  1  0
  1 29  1  0
  1 30  1  0
  2 31  1  0
  2 32  1  0
  3 33  1  0
  8 34  1  0
 12 35  1  0
 13 36  1  0
 16 37  1  0
 16 38  1  0
 16 39  1  0
 17 40  1  0
 18 41  1  0
 20 42  1  0
 24 43  1  0
 25 44  1  0
 27 45  1  0
M  END
$$$$
