
     RDKit          3D

 55 56  0  0  0  0  0  0  0  0999 V2000
   -4.0188    1.8061    0.4928 C   0  0  0  0  0  0  0  0  0  0  0  0
   -3.7902    0.2925    0.5258 C   0  0  0  0  0  0  0  0  0  0  0  0
   -3.8544   -0.2339    1.9762 C   0  0  0  0  0  0  0  0  0  0  0  0
   -2.5240   -0.0342   -0.1899 N   0  0  0  0  0  0  0  0  0  0  0  0
   -1.2732    0.1346    0.5840 C   0  0  0  0  0  0  0  0  0  0  0  0
   -0.2032    0.8201   -0.2808 C   0  0  0  0  0  0  0  0  0  0  0  0
    1.1232    1.0287    0.4887 C   0  0  2  0  0  0  0  0  0  0  0  0
    2.0827    1.9960   -0.1975 C   0  0  0  0  0  0  0  0  0  0  0  0
    2.1106    2.1784   -1.5974 C   0  0  0  0  0  0  0  0  0  0  0  0
    3.0359    3.0492   -2.1808 C   0  0  0  0  0  0  0  0  0  0  0  0
    3.9505    3.7392   -1.3833 C   0  0  0  0  0  0  0  0  0  0  0  0
    3.9462    3.5561    0.0004 C   0  0  0  0  0  0  0  0  0  0  0  0
    3.0239    2.6870    0.5898 C   0  0  0  0  0  0  0  0  0  0  0  0
    1.8134   -0.3055    0.7637 C   0  0  0  0  0  0  0  0  0  0  0  0
    1.8255   -0.9199    2.0476 C   0  0  0  0  0  0  0  0  0  0  0  0
    1.1646   -0.3916    3.1605 O   0  0  0  0  0  0  0  0  0  0  0  0
    2.5100   -2.1266    2.2316 C   0  0  0  0  0  0  0  0  0  0  0  0
    3.1499   -2.7572    1.1664 C   0  0  0  0  0  0  0  0  0  0  0  0
    3.1245   -2.1838   -0.1080 C   0  0  0  0  0  0  0  0  0  0  0  0
    3.7619   -2.8904   -1.2680 C   0  0  0  0  0  0  0  0  0  0  0  0
    2.4420   -0.9770   -0.3071 C   0  0  0  0  0  0  0  0  0  0  0  0
   -2.5389   -1.2451   -1.0578 C   0  0  0  0  0  0  0  0  0  0  0  0
   -3.3403   -0.9791   -2.3377 C   0  0  0  0  0  0  0  0  0  0  0  0
   -3.0334   -2.5139   -0.3453 C   0  0  0  0  0  0  0  0  0  0  0  0
   -4.9994    2.0568    0.9512 H   0  0  0  0  0  0  0  0  0  0  0  0
   -4.0228    2.1623   -0.5594 H   0  0  0  0  0  0  0  0  0  0  0  0
   -3.2184    2.3418    1.0453 H   0  0  0  0  0  0  0  0  0  0  0  0
   -4.6535   -0.1523   -0.0121 H   0  0  0  0  0  0  0  0  0  0  0  0
   -4.9072   -0.2141    2.3301 H   0  0  0  0  0  0  0  0  0  0  0  0
   -3.4920   -1.2769    2.0479 H   0  0  0  0  0  0  0  0  0  0  0  0
   -3.2609    0.3944    2.6724 H   0  0  0  0  0  0  0  0  0  0  0  0
   -0.9095   -0.8485    0.9540 H   0  0  0  0  0  0  0  0  0  0  0  0
   -1.4319    0.7864    1.4669 H   0  0  0  0  0  0  0  0  0  0  0  0
   -0.6008    1.8093   -0.5992 H   0  0  0  0  0  0  0  0  0  0  0  0
   -0.0189    0.2183   -1.1943 H   0  0  0  0  0  0  0  0  0  0  0  0
    0.8536    1.5374    1.4323 H   0  0  0  0  0  0  0  0  0  0  0  0
    1.4285    1.6490   -2.2472 H   0  0  0  0  0  0  0  0  0  0  0  0
    3.0469    3.1851   -3.2546 H   0  0  0  0  0  0  0  0  0  0  0  0
    4.6667    4.4111   -1.8383 H   0  0  0  0  0  0  0  0  0  0  0  0
    4.6613    4.0848    0.6173 H   0  0  0  0  0  0  0  0  0  0  0  0
    3.0445    2.5493    1.6640 H   0  0  0  0  0  0  0  0  0  0  0  0
    0.5220    0.3857    3.1349 H   0  0  0  0  0  0  0  0  0  0  0  0
    2.5265   -2.5919    3.2093 H   0  0  0  0  0  0  0  0  0  0  0  0
    3.6561   -3.6999    1.3346 H   0  0  0  0  0  0  0  0  0  0  0  0
    4.6151   -3.5155   -0.9283 H   0  0  0  0  0  0  0  0  0  0  0  0
    3.0103   -3.5411   -1.7616 H   0  0  0  0  0  0  0  0  0  0  0  0
    4.1481   -2.1569   -2.0076 H   0  0  0  0  0  0  0  0  0  0  0  0
    2.4063   -0.5578   -1.3043 H   0  0  0  0  0  0  0  0  0  0  0  0
   -1.5040   -1.4689   -1.3983 H   0  0  0  0  0  0  0  0  0  0  0  0
   -3.1880   -1.8093   -3.0603 H   0  0  0  0  0  0  0  0  0  0  0  0
   -4.4269   -0.8955   -2.1313 H   0  0  0  0  0  0  0  0  0  0  0  0
   -2.9910   -0.0372   -2.8117 H   0  0  0  0  0  0  0  0  0  0  0  0
   -2.4127   -2.7196    0.5509 H   0  0  0  0  0  0  0  0  0  0  0  0
   -4.0997   -2.4296   -0.0506 H   0  0  0  0  0  0  0  0  0  0  0  0
   -2.9366   -3.3866   -1.0259 H   0  0  0  0  0  0  0  0  0  0  0  0
  1  2  1  0
  2  3  1  0
  2  4  1  0
  4  5  1  0
  5  6  1  0
  6  7  1  0
  7  8  1  0
  8  9  2  0
  9 10  1  0
 10 11  2  0
 11 12  1  0
 12 13  2  0
  7 14  1  0
 14 15  2  0
 15 16  1  0
 15 17  1  0
 17 18  2  0
 18 19  1  0
 19 20  1  0
 19 21  2  0
  4 22  1  0
 22 23  1  0
 22 24  1  0
 13  8  1  0
 21 14  1  0
  1 25  1  0
  1 26  1  0
  1 27  1  0
  2 28  1  0
  3 29  1  0
  3 30  1  0
  3 31  1  0
  5 32  1  0
  5 33  1  0
  6 34  1  0
  6 35  1  0
  7 36  1  1
  9 37  1  0
 10 38  1  0
 11 39  1  0
 12 40  1  0
 13 41  1  0
 16 42  1  0
 17 43  1  0
 18 44  1  0
 20 45  1  0
 20 46  1  0
 20 47  1  0
 21 48  1  0
 22 49  1  0
 23 50  1  0
 23 51  1  0
 23 52  1  0
 24 53  1  0
 24 54  1  0
 24 55  1  0
M  END
$$$$
