
     RDKit          3D

 29 30  0  0  0  0  0  0  0  0999 V2000
    3.9101    0.0450   -2.4984 N   0  0  0  0  0  0  0  0  0  0  0  0
    3.1266   -0.2156   -1.3257 C   0  0  0  0  0  0  0  0  0  0  0  0
    2.6977   -1.5263   -1.0518 C   0  0  0  0  0  0  0  0  0  0  0  0
    3.0206   -2.5454   -1.8877 F   0  0  0  0  0  0  0  0  0  0  0  0
    1.9313   -1.7964    0.0852 C   0  0  0  0  0  0  0  0  0  0  0  0
    1.5814   -0.7637    0.9620 C   0  0  0  0  0  0  0  0  0  0  0  0
    2.0112    0.5420    0.6999 C   0  0  0  0  0  0  0  0  0  0  0  0
    2.7774    0.8233   -0.4371 C   0  0  0  0  0  0  0  0  0  0  0  0
    3.2770    2.4876   -0.7135 Cl  0  0  0  0  0  0  0  0  0  0  0  0
    0.6015   -1.0971    2.3863 S   0  0  0  0  0  6  0  0  0  0  0  0
    1.5065   -1.2615    3.5741 O   0  0  0  0  0  0  0  0  0  0  0  0
   -0.1940   -2.3584    2.1963 O   0  0  0  0  0  0  0  0  0  0  0  0
   -0.4903    0.2179    2.6743 N   0  0  0  0  0  0  0  0  0  0  0  0
   -1.4544    0.6414    1.7058 C   0  0  0  0  0  0  0  0  0  0  0  0
   -2.2804    1.6909    1.9070 N   0  0  0  0  0  0  0  0  0  0  0  0
   -3.0939    1.9205    0.8778 N   0  0  0  0  0  0  0  0  0  0  0  0
   -2.9155    1.0546   -0.1433 C   0  0  0  0  0  0  0  0  0  0  0  0
   -1.7079   -0.0681    0.1946 S   0  0  0  0  0  0  0  0  0  0  0  0
   -3.8376    1.1029   -1.6320 S   0  0  0  0  0  6  0  0  0  0  0  0
   -4.7475   -0.3566   -1.8059 N   0  0  0  0  0  0  0  0  0  0  0  0
   -2.9013    1.2606   -2.7965 O   0  0  0  0  0  0  0  0  0  0  0  0
   -4.7809    2.2722   -1.5978 O   0  0  0  0  0  0  0  0  0  0  0  0
    4.1667   -0.7263   -3.1538 H   0  0  0  0  0  0  0  0  0  0  0  0
    4.2467    1.0036   -2.7349 H   0  0  0  0  0  0  0  0  0  0  0  0
    1.6098   -2.8116    0.2797 H   0  0  0  0  0  0  0  0  0  0  0  0
    1.7464    1.3437    1.3781 H   0  0  0  0  0  0  0  0  0  0  0  0
   -0.4238    0.7305    3.5814 H   0  0  0  0  0  0  0  0  0  0  0  0
   -5.3208   -0.4642   -0.9393 H   0  0  0  0  0  0  0  0  0  0  0  0
   -4.0626   -1.1453   -1.8141 H   0  0  0  0  0  0  0  0  0  0  0  0
  1  2  1  0
  2  3  2  0
  3  4  1  0
  3  5  1  0
  5  6  2  0
  6  7  1  0
  7  8  2  0
  8  9  1  0
  6 10  1  0
 10 11  2  0
 10 12  2  0
 10 13  1  0
 13 14  1  0
 14 15  2  0
 15 16  1  0
 16 17  2  0
 17 18  1  0
 17 19  1  0
 19 20  1  0
 19 21  2  0
 19 22  2  0
  8  2  1  0
 18 14  1  0
  1 23  1  0
  1 24  1  0
  5 25  1  0
  7 26  1  0
 13 27  1  0
 20 28  1  0
 20 29  1  0
M  END
$$$$
