
     RDKit          3D

 26 26  0  0  0  0  0  0  0  0999 V2000
    5.0326   -0.4432   -0.0581 O   0  0  0  0  0  0  0  0  0  0  0  0
    4.4704    0.4185    0.8784 C   0  0  0  0  0  0  0  0  0  0  0  0
    4.8228    0.3531    2.0864 O   0  0  0  0  0  0  0  0  0  0  0  0
    3.4315    1.4051    0.4551 C   0  0  0  0  0  0  0  0  0  0  0  0
    1.7801    0.8840    1.0346 S   0  0  0  0  0  0  0  0  0  0  0  0
    1.5395   -0.4103   -0.2282 C   0  0  0  0  0  0  0  0  0  0  0  0
    0.1910   -1.0283   -0.0472 C   0  0  0  0  0  0  0  0  0  0  0  0
    0.0844   -2.1081    0.5953 O   0  0  0  0  0  0  0  0  0  0  0  0
   -0.9753   -0.3692   -0.5607 N   0  0  0  0  0  0  0  0  0  0  0  0
   -2.3317   -0.8575   -0.2968 C   0  0  0  0  0  0  0  0  0  0  0  0
   -3.2847   -0.4370   -1.4188 C   0  0  0  0  0  0  0  0  0  0  0  0
   -3.9295    0.8897   -1.0234 C   0  0  0  0  0  0  0  0  0  0  0  0
   -4.2937    0.8206    0.7560 S   0  0  0  0  0  0  0  0  0  0  0  0
   -2.8627   -0.2248    0.9448 C   0  0  0  0  0  0  0  0  0  0  0  0
   -2.3152   -0.3640    2.0268 O   0  0  0  0  0  0  0  0  0  0  0  0
    5.7305   -1.1243    0.2160 H   0  0  0  0  0  0  0  0  0  0  0  0
    3.6663    2.3929    0.9040 H   0  0  0  0  0  0  0  0  0  0  0  0
    3.4381    1.5246   -0.6491 H   0  0  0  0  0  0  0  0  0  0  0  0
    2.3251   -1.1887   -0.1262 H   0  0  0  0  0  0  0  0  0  0  0  0
    1.6074    0.0337   -1.2439 H   0  0  0  0  0  0  0  0  0  0  0  0
   -0.8544    0.5649   -1.0154 H   0  0  0  0  0  0  0  0  0  0  0  0
   -2.3378   -1.9656   -0.2008 H   0  0  0  0  0  0  0  0  0  0  0  0
   -2.7612   -0.3478   -2.3957 H   0  0  0  0  0  0  0  0  0  0  0  0
   -4.0842   -1.2036   -1.5243 H   0  0  0  0  0  0  0  0  0  0  0  0
   -3.2255    1.7273   -1.2178 H   0  0  0  0  0  0  0  0  0  0  0  0
   -4.8639    1.0578   -1.5991 H   0  0  0  0  0  0  0  0  0  0  0  0
  1  2  1  0
  2  3  2  0
  2  4  1  0
  4  5  1  0
  5  6  1  0
  6  7  1  0
  7  8  2  0
  7  9  1  0
  9 10  1  0
 10 11  1  0
 11 12  1  0
 12 13  1  0
 13 14  1  0
 14 15  2  0
 14 10  1  0
  1 16  1  0
  4 17  1  0
  4 18  1  0
  6 19  1  0
  6 20  1  0
  9 21  1  0
 10 22  1  0
 11 23  1  0
 11 24  1  0
 12 25  1  0
 12 26  1  0
M  END
$$$$
