
     RDKit          3D

 76 80  0  0  0  0  0  0  0  0999 V2000
    3.6622   -4.7629   -0.6523 C   0  0  0  0  0  0  0  0  0  0  0  0
    2.5834   -3.7897   -0.7616 N   0  0  0  0  0  0  0  0  0  0  0  0
    2.7208   -2.5927   -1.5394 C   0  0  0  0  0  0  0  0  0  0  0  0
    3.7505   -2.4247   -2.2478 O   0  0  0  0  0  0  0  0  0  0  0  0
    1.5853   -1.5886   -1.5708 C   0  0  2  0  0  0  0  0  0  0  0  0
    1.8659   -0.3074   -2.4028 C   0  0  0  0  0  0  0  0  0  0  0  0
    2.5560    0.8065   -1.6488 C   0  0  0  0  0  0  0  0  0  0  0  0
    1.8395    1.9636   -1.2939 C   0  0  0  0  0  0  0  0  0  0  0  0
    2.4706    3.0067   -0.5986 C   0  0  0  0  0  0  0  0  0  0  0  0
    1.7595    4.1623   -0.2391 C   0  0  0  0  0  0  0  0  0  0  0  0
    2.3944    5.1861    0.4692 C   0  0  0  0  0  0  0  0  0  0  0  0
    3.7418    5.0680    0.8193 C   0  0  0  0  0  0  0  0  0  0  0  0
    4.4643    3.9269    0.4599 C   0  0  0  0  0  0  0  0  0  0  0  0
    3.8375    2.8913   -0.2506 C   0  0  0  0  0  0  0  0  0  0  0  0
    4.5534    1.7469   -0.6248 C   0  0  0  0  0  0  0  0  0  0  0  0
    3.9209    0.7202   -1.3292 C   0  0  0  0  0  0  0  0  0  0  0  0
    1.0832   -1.2778   -0.2121 N   0  0  0  0  0  0  0  0  0  0  0  0
    1.9972   -1.1666    0.9456 C   0  0  0  0  0  0  0  0  0  0  0  0
    1.6945    0.0686    1.8096 C   0  0  0  0  0  0  0  0  0  0  0  0
    0.5219   -0.1103    2.7428 C   0  0  0  0  0  0  0  0  0  0  0  0
    0.6830    0.1049    3.9743 O   0  0  0  0  0  0  0  0  0  0  0  0
   -0.7916   -0.4341    2.2476 N   0  0  0  0  0  0  0  0  0  0  0  0
   -1.9107    0.4647    2.5873 C   0  0  0  0  0  0  0  0  0  0  0  0
   -2.2773    1.3379    1.4145 C   0  0  0  0  0  0  0  0  0  0  0  0
   -3.5519    1.2638    0.8314 C   0  0  0  0  0  0  0  0  0  0  0  0
   -3.8638    2.0606   -0.2767 C   0  0  0  0  0  0  0  0  0  0  0  0
   -5.1208    1.9889   -0.8958 C   0  0  0  0  0  0  0  0  0  0  0  0
   -5.4001    2.7953   -2.0041 C   0  0  0  0  0  0  0  0  0  0  0  0
   -4.4305    3.6747   -2.4972 C   0  0  0  0  0  0  0  0  0  0  0  0
   -3.1758    3.7534   -1.8844 C   0  0  0  0  0  0  0  0  0  0  0  0
   -2.8875    2.9496   -0.7758 C   0  0  0  0  0  0  0  0  0  0  0  0
   -1.6719    3.0272   -0.1743 N   0  0  0  0  0  0  0  0  0  0  0  0
   -1.3512    2.2561    0.8976 C   0  0  0  0  0  0  0  0  0  0  0  0
   -0.9212   -1.5869    1.3355 C   0  0  1  0  0  0  0  0  0  0  0  0
   -2.3622   -2.1522    1.2356 C   0  0  0  0  0  0  0  0  0  0  0  0
   -2.4759   -3.4539    0.3999 C   0  0  0  0  0  0  0  0  0  0  0  0
   -1.7732   -4.6428    1.0747 C   0  0  0  0  0  0  0  0  0  0  0  0
   -3.9541   -3.7922    0.1641 C   0  0  0  0  0  0  0  0  0  0  0  0
   -0.3404   -1.2156   -0.0037 C   0  0  0  0  0  0  0  0  0  0  0  0
   -1.0922   -0.7906   -0.9239 O   0  0  0  0  0  0  0  0  0  0  0  0
    3.3480   -5.6021    0.0035 H   0  0  0  0  0  0  0  0  0  0  0  0
    4.5604   -4.2802   -0.2125 H   0  0  0  0  0  0  0  0  0  0  0  0
    3.9099   -5.1653   -1.6570 H   0  0  0  0  0  0  0  0  0  0  0  0
    1.6890   -3.9726   -0.2527 H   0  0  0  0  0  0  0  0  0  0  0  0
    0.7842   -2.1311   -2.1224 H   0  0  0  0  0  0  0  0  0  0  0  0
    2.4561   -0.5545   -3.3114 H   0  0  0  0  0  0  0  0  0  0  0  0
    0.8914    0.0650   -2.7890 H   0  0  0  0  0  0  0  0  0  0  0  0
    0.7890    2.0457   -1.5483 H   0  0  0  0  0  0  0  0  0  0  0  0
    0.7174    4.2765   -0.5077 H   0  0  0  0  0  0  0  0  0  0  0  0
    1.8410    6.0741    0.7460 H   0  0  0  0  0  0  0  0  0  0  0  0
    4.2284    5.8644    1.3675 H   0  0  0  0  0  0  0  0  0  0  0  0
    5.5096    3.8541    0.7356 H   0  0  0  0  0  0  0  0  0  0  0  0
    5.6037    1.6481   -0.3776 H   0  0  0  0  0  0  0  0  0  0  0  0
    4.5022   -0.1419   -1.6194 H   0  0  0  0  0  0  0  0  0  0  0  0
    3.0472   -1.0828    0.5958 H   0  0  0  0  0  0  0  0  0  0  0  0
    1.9479   -2.0882    1.5634 H   0  0  0  0  0  0  0  0  0  0  0  0
    1.5069    0.9449    1.1639 H   0  0  0  0  0  0  0  0  0  0  0  0
    2.5998    0.3011    2.4122 H   0  0  0  0  0  0  0  0  0  0  0  0
   -1.6344    1.1277    3.4361 H   0  0  0  0  0  0  0  0  0  0  0  0
   -2.7818   -0.1227    2.9443 H   0  0  0  0  0  0  0  0  0  0  0  0
   -4.2944    0.5844    1.2338 H   0  0  0  0  0  0  0  0  0  0  0  0
   -5.8815    1.3117   -0.5262 H   0  0  0  0  0  0  0  0  0  0  0  0
   -6.3696    2.7386   -2.4820 H   0  0  0  0  0  0  0  0  0  0  0  0
   -4.6520    4.2965   -3.3549 H   0  0  0  0  0  0  0  0  0  0  0  0
   -2.4311    4.4378   -2.2718 H   0  0  0  0  0  0  0  0  0  0  0  0
   -0.3755    2.3635    1.3495 H   0  0  0  0  0  0  0  0  0  0  0  0
   -0.3116   -2.4074    1.7640 H   0  0  0  0  0  0  0  0  0  0  0  0
   -2.7454   -2.3535    2.2600 H   0  0  0  0  0  0  0  0  0  0  0  0
   -3.0180   -1.3876    0.7755 H   0  0  0  0  0  0  0  0  0  0  0  0
   -2.0108   -3.2975   -0.5975 H   0  0  0  0  0  0  0  0  0  0  0  0
   -1.9838   -5.5814    0.5187 H   0  0  0  0  0  0  0  0  0  0  0  0
   -2.1231   -4.7647    2.1221 H   0  0  0  0  0  0  0  0  0  0  0  0
   -0.6727   -4.5056    1.0691 H   0  0  0  0  0  0  0  0  0  0  0  0
   -4.0464   -4.7028   -0.4656 H   0  0  0  0  0  0  0  0  0  0  0  0
   -4.4740   -3.9690    1.1304 H   0  0  0  0  0  0  0  0  0  0  0  0
   -4.4597   -2.9583   -0.3683 H   0  0  0  0  0  0  0  0  0  0  0  0
  1  2  1  0
  2  3  1  0
  3  4  2  0
  3  5  1  0
  5  6  1  0
  6  7  1  0
  7  8  2  0
  8  9  1  0
  9 10  2  0
 10 11  1  0
 11 12  2  0
 12 13  1  0
 13 14  2  0
 14 15  1  0
 15 16  2  0
  5 17  1  0
 17 18  1  0
 18 19  1  0
 19 20  1  0
 20 21  2  0
 20 22  1  0
 22 23  1  0
 23 24  1  0
 24 25  2  0
 25 26  1  0
 26 27  2  0
 27 28  1  0
 28 29  2  0
 29 30  1  0
 30 31  2  0
 31 32  1  0
 32 33  2  0
 22 34  1  0
 34 35  1  0
 35 36  1  0
 36 37  1  0
 36 38  1  0
 34 39  1  0
 39 40  2  0
 16  7  1  0
 39 17  1  0
 14  9  1  0
 33 24  1  0
 31 26  1  0
  1 41  1  0
  1 42  1  0
  1 43  1  0
  2 44  1  0
  5 45  1  6
  6 46  1  0
  6 47  1  0
  8 48  1  0
 10 49  1  0
 11 50  1  0
 12 51  1  0
 13 52  1  0
 15 53  1  0
 16 54  1  0
 18 55  1  0
 18 56  1  0
 19 57  1  0
 19 58  1  0
 23 59  1  0
 23 60  1  0
 25 61  1  0
 27 62  1  0
 28 63  1  0
 29 64  1  0
 30 65  1  0
 33 66  1  0
 34 67  1  1
 35 68  1  0
 35 69  1  0
 36 70  1  0
 37 71  1  0
 37 72  1  0
 37 73  1  0
 38 74  1  0
 38 75  1  0
 38 76  1  0
M  END
$$$$
