
     RDKit          3D

 22 21  0  0  0  0  0  0  0  0999 V2000
    3.0256    0.3567    1.6277 C   0  0  0  0  0  0  0  0  0  0  0  0
    1.5946   -0.0231    1.2590 C   0  0  0  0  0  0  0  0  0  0  0  0
    1.5210   -0.5836   -0.1679 C   0  0  0  0  0  0  0  0  0  0  0  0
    0.0972   -0.9989   -0.5445 C   0  0  0  0  0  0  0  0  0  0  0  0
   -0.7694    0.1753   -0.6105 N   0  0  0  0  0  0  0  0  0  0  0  0
   -2.0368    0.1615   -0.9085 C   0  0  0  0  0  0  0  0  0  0  0  0
   -2.7231   -1.0601   -1.2131 N   0  0  0  0  0  0  0  0  0  0  0  0
   -2.7627    1.3938   -0.9309 N   0  0  0  0  0  0  0  0  0  0  0  0
   -2.1449    2.5686   -0.6588 O   0  0  0  0  0  0  0  0  0  0  0  0
    3.4086    1.1358    0.9345 H   0  0  0  0  0  0  0  0  0  0  0  0
    3.6865   -0.5349    1.5790 H   0  0  0  0  0  0  0  0  0  0  0  0
    3.0487    0.7595    2.6622 H   0  0  0  0  0  0  0  0  0  0  0  0
    1.2280   -0.7852    1.9808 H   0  0  0  0  0  0  0  0  0  0  0  0
    0.9525    0.8803    1.3448 H   0  0  0  0  0  0  0  0  0  0  0  0
    1.8851    0.1778   -0.8926 H   0  0  0  0  0  0  0  0  0  0  0  0
    2.1803   -1.4759   -0.2451 H   0  0  0  0  0  0  0  0  0  0  0  0
   -0.2940   -1.7195    0.2069 H   0  0  0  0  0  0  0  0  0  0  0  0
    0.1236   -1.4945   -1.5395 H   0  0  0  0  0  0  0  0  0  0  0  0
   -2.2434   -1.9865   -1.2144 H   0  0  0  0  0  0  0  0  0  0  0  0
   -3.7405   -1.0408   -1.4460 H   0  0  0  0  0  0  0  0  0  0  0  0
   -3.7771    1.3981   -1.1800 H   0  0  0  0  0  0  0  0  0  0  0  0
   -2.2596    2.6956    0.3177 H   0  0  0  0  0  0  0  0  0  0  0  0
  1  2  1  0
  2  3  1  0
  3  4  1  0
  4  5  1  0
  5  6  2  0
  6  7  1  0
  6  8  1  0
  8  9  1  0
  1 10  1  0
  1 11  1  0
  1 12  1  0
  2 13  1  0
  2 14  1  0
  3 15  1  0
  3 16  1  0
  4 17  1  0
  4 18  1  0
  7 19  1  0
  7 20  1  0
  8 21  1  0
  9 22  1  0
M  END
$$$$
