
     RDKit          3D

 91 93  0  0  0  0  0  0  0  0999 V2000
   -4.2132    2.6565   -4.7117 N   0  0  0  0  0  0  0  0  0  0  0  0
   -5.1167    2.4056   -3.6269 C   0  0  0  0  0  0  0  0  0  0  0  0
   -4.6880    2.1691   -2.4211 N   0  0  0  0  0  0  0  0  0  0  0  0
   -3.2849    2.1248   -2.0176 C   0  0  0  0  0  0  0  0  0  0  0  0
   -3.1695    1.8208   -0.5203 C   0  0  0  0  0  0  0  0  0  0  0  0
   -3.8241    0.4937   -0.0944 C   0  0  0  0  0  0  0  0  0  0  0  0
   -3.2491   -0.7470   -0.7960 C   0  0  0  0  0  0  0  0  0  0  0  0
   -1.7929   -0.8155   -0.6775 N   0  0  0  0  0  0  0  0  0  0  0  0
   -1.1306   -1.1834    0.5402 C   0  0  0  0  0  0  0  0  0  0  0  0
   -1.7955   -1.3459    1.5990 O   0  0  0  0  0  0  0  0  0  0  0  0
    0.3561   -1.4384    0.5334 C   0  0  2  0  0  0  0  0  0  0  0  0
    0.6577   -2.9103    0.2374 C   0  0  0  0  0  0  0  0  0  0  0  0
    1.7921   -3.2995    1.1926 C   0  0  2  0  0  0  0  0  0  0  0  0
    1.7136   -4.7581    1.6837 C   0  0  0  0  0  0  0  0  0  0  0  0
    0.5126   -5.0397    2.6112 C   0  0  0  0  0  0  0  0  0  0  0  0
    0.0307   -3.8111    3.4166 C   0  0  2  0  0  0  0  0  0  0  0  0
    1.1751   -2.8186    3.6555 C   0  0  0  0  0  0  0  0  0  0  0  0
    1.7619   -2.2675    2.3341 C   0  0  2  0  0  0  0  0  0  0  0  0
    0.9723   -1.1451    1.8290 N   0  0  0  0  0  0  0  0  0  0  0  0
    1.1511    0.1902    2.3578 C   0  0  0  0  0  0  0  0  0  0  0  0
    1.7462    0.3331    3.4597 O   0  0  0  0  0  0  0  0  0  0  0  0
    0.7527    1.4184    1.5545 C   0  0  2  0  0  0  0  0  0  0  0  0
    1.7254    1.6299    0.4767 N   0  0  0  0  0  0  0  0  0  0  0  0
    1.3862    2.2913   -0.7514 C   0  0  0  0  0  0  0  0  0  0  0  0
    0.2524    2.8247   -0.8952 O   0  0  0  0  0  0  0  0  0  0  0  0
    2.3529    2.2823   -1.9009 C   0  0  2  0  0  0  0  0  0  0  0  0
    2.1951    3.4618   -2.6487 O   0  0  0  0  0  0  0  0  0  0  0  0
    2.0878    1.0503   -2.7815 C   0  0  0  0  0  0  0  0  0  0  0  0
    3.1144    0.9252   -3.8765 C   0  0  0  0  0  0  0  0  0  0  0  0
    2.8529    1.4349   -5.1589 C   0  0  0  0  0  0  0  0  0  0  0  0
    3.8194    1.3415   -6.1650 C   0  0  0  0  0  0  0  0  0  0  0  0
    5.0568    0.7459   -5.8993 C   0  0  0  0  0  0  0  0  0  0  0  0
    6.0102    0.6597   -6.9112 O   0  0  0  0  0  0  0  0  0  0  0  0
    5.3263    0.2442   -4.6187 C   0  0  0  0  0  0  0  0  0  0  0  0
    4.3616    0.3367   -3.6110 C   0  0  0  0  0  0  0  0  0  0  0  0
    0.5519    2.7289    2.3820 C   0  0  2  0  0  0  0  0  0  0  0  0
    1.8734    3.3249    2.9030 C   0  0  0  0  0  0  0  0  0  0  0  0
   -0.4648    2.5841    3.5417 C   0  0  0  0  0  0  0  0  0  0  0  0
   -1.8705    2.2171    3.0657 C   0  0  0  0  0  0  0  0  0  0  0  0
   -0.4650   -4.2314    4.6730 O   0  0  0  0  0  0  0  0  0  0  0  0
   -2.1599   -4.2990    4.6379 S   0  0  0  0  0  6  0  0  0  0  0  0
   -2.6888   -5.2311    3.3418 O   0  0  0  0  0  0  0  0  0  0  0  0
   -2.6531   -4.9126    5.9177 O   0  0  0  0  0  0  0  0  0  0  0  0
   -2.7203   -2.9093    4.5177 O   0  0  0  0  0  0  0  0  0  0  0  0
   -6.5227    2.4140   -3.8724 N   0  0  0  0  0  0  0  0  0  0  0  0
   -3.1775    2.6671   -4.5868 H   0  0  0  0  0  0  0  0  0  0  0  0
   -4.5883    2.8400   -5.6684 H   0  0  0  0  0  0  0  0  0  0  0  0
   -2.7398    1.3564   -2.6060 H   0  0  0  0  0  0  0  0  0  0  0  0
   -2.8133    3.1126   -2.2125 H   0  0  0  0  0  0  0  0  0  0  0  0
   -2.0984    1.8104   -0.2368 H   0  0  0  0  0  0  0  0  0  0  0  0
   -3.6480    2.6476    0.0483 H   0  0  0  0  0  0  0  0  0  0  0  0
   -4.9171    0.5404   -0.2897 H   0  0  0  0  0  0  0  0  0  0  0  0
   -3.7013    0.3794    1.0034 H   0  0  0  0  0  0  0  0  0  0  0  0
   -3.7011   -1.6630   -0.3579 H   0  0  0  0  0  0  0  0  0  0  0  0
   -3.5328   -0.7307   -1.8700 H   0  0  0  0  0  0  0  0  0  0  0  0
   -1.2215   -0.6908   -1.5436 H   0  0  0  0  0  0  0  0  0  0  0  0
    0.8391   -0.8121   -0.2465 H   0  0  0  0  0  0  0  0  0  0  0  0
    0.9713   -3.0432   -0.8214 H   0  0  0  0  0  0  0  0  0  0  0  0
   -0.2394   -3.5454    0.4073 H   0  0  0  0  0  0  0  0  0  0  0  0
    2.7516   -3.1761    0.6401 H   0  0  0  0  0  0  0  0  0  0  0  0
    1.6810   -5.4468    0.8115 H   0  0  0  0  0  0  0  0  0  0  0  0
    2.6506   -4.9834    2.2394 H   0  0  0  0  0  0  0  0  0  0  0  0
   -0.3339   -5.4205    2.0004 H   0  0  0  0  0  0  0  0  0  0  0  0
    0.7975   -5.8588    3.3077 H   0  0  0  0  0  0  0  0  0  0  0  0
   -0.7320   -3.2722    2.8139 H   0  0  0  0  0  0  0  0  0  0  0  0
    0.8098   -1.9827    4.2900 H   0  0  0  0  0  0  0  0  0  0  0  0
    1.9827   -3.3305    4.2245 H   0  0  0  0  0  0  0  0  0  0  0  0
    2.8037   -1.9251    2.5296 H   0  0  0  0  0  0  0  0  0  0  0  0
   -0.2222    1.1933    1.0858 H   0  0  0  0  0  0  0  0  0  0  0  0
    2.6905    1.2403    0.5804 H   0  0  0  0  0  0  0  0  0  0  0  0
    3.3876    2.2288   -1.4866 H   0  0  0  0  0  0  0  0  0  0  0  0
    3.0611    3.6377   -3.1013 H   0  0  0  0  0  0  0  0  0  0  0  0
    1.0660    1.1125   -3.2181 H   0  0  0  0  0  0  0  0  0  0  0  0
    2.1174    0.1310   -2.1558 H   0  0  0  0  0  0  0  0  0  0  0  0
    1.9030    1.9066   -5.3784 H   0  0  0  0  0  0  0  0  0  0  0  0
    3.6079    1.7348   -7.1511 H   0  0  0  0  0  0  0  0  0  0  0  0
    6.9160    0.2348   -6.7503 H   0  0  0  0  0  0  0  0  0  0  0  0
    6.2829   -0.2144   -4.4028 H   0  0  0  0  0  0  0  0  0  0  0  0
    4.5859   -0.0484   -2.6237 H   0  0  0  0  0  0  0  0  0  0  0  0
    0.1338    3.4893    1.6853 H   0  0  0  0  0  0  0  0  0  0  0  0
    2.6047    3.4527    2.0780 H   0  0  0  0  0  0  0  0  0  0  0  0
    1.6859    4.3306    3.3363 H   0  0  0  0  0  0  0  0  0  0  0  0
    2.3272    2.6954    3.6938 H   0  0  0  0  0  0  0  0  0  0  0  0
   -0.1226    1.8302    4.2807 H   0  0  0  0  0  0  0  0  0  0  0  0
   -0.5374    3.5558    4.0780 H   0  0  0  0  0  0  0  0  0  0  0  0
   -1.8962    1.1750    2.6887 H   0  0  0  0  0  0  0  0  0  0  0  0
   -2.2060    2.9124    2.2676 H   0  0  0  0  0  0  0  0  0  0  0  0
   -2.5797    2.2890    3.9169 H   0  0  0  0  0  0  0  0  0  0  0  0
   -2.3370   -6.1394    3.5221 H   0  0  0  0  0  0  0  0  0  0  0  0
   -6.8932    2.6009   -4.8303 H   0  0  0  0  0  0  0  0  0  0  0  0
   -7.1980    2.2324   -3.0965 H   0  0  0  0  0  0  0  0  0  0  0  0
  1  2  1  0
  2  3  2  3
  3  4  1  0
  4  5  1  0
  5  6  1  0
  6  7  1  0
  7  8  1  0
  8  9  1  0
  9 10  2  0
  9 11  1  0
 11 12  1  0
 12 13  1  0
 13 14  1  0
 14 15  1  0
 15 16  1  0
 16 17  1  0
 17 18  1  0
 18 19  1  0
 19 20  1  0
 20 21  2  0
 20 22  1  0
 22 23  1  0
 23 24  1  0
 24 25  2  0
 24 26  1  0
 26 27  1  0
 26 28  1  0
 28 29  1  0
 29 30  2  0
 30 31  1  0
 31 32  2  0
 32 33  1  0
 32 34  1  0
 34 35  2  0
 22 36  1  0
 36 37  1  0
 36 38  1  0
 38 39  1  0
 16 40  1  0
 40 41  1  0
 41 42  1  0
 41 43  2  0
 41 44  2  0
  2 45  1  0
 19 11  1  0
 35 29  1  0
 18 13  1  0
  1 46  1  0
  1 47  1  0
  4 48  1  0
  4 49  1  0
  5 50  1  0
  5 51  1  0
  6 52  1  0
  6 53  1  0
  7 54  1  0
  7 55  1  0
  8 56  1  0
 11 57  1  6
 12 58  1  0
 12 59  1  0
 13 60  1  6
 14 61  1  0
 14 62  1  0
 15 63  1  0
 15 64  1  0
 16 65  1  6
 17 66  1  0
 17 67  1  0
 18 68  1  1
 22 69  1  6
 23 70  1  0
 26 71  1  1
 27 72  1  0
 28 73  1  0
 28 74  1  0
 30 75  1  0
 31 76  1  0
 33 77  1  0
 34 78  1  0
 35 79  1  0
 36 80  1  6
 37 81  1  0
 37 82  1  0
 37 83  1  0
 38 84  1  0
 38 85  1  0
 39 86  1  0
 39 87  1  0
 39 88  1  0
 42 89  1  0
 45 90  1  0
 45 91  1  0
M  END
$$$$
