
     RDKit          3D

 46 49  0  0  0  0  0  0  0  0999 V2000
    6.2473    0.2407    0.3059 C   0  0  0  0  0  0  0  0  0  0  0  0
    4.9474    0.9673    0.1562 C   0  0  0  0  0  0  0  0  0  0  0  0
    3.6712    0.4397    0.4492 C   0  0  0  0  0  0  0  0  0  0  0  0
    2.5327    1.6221    0.0443 S   0  0  0  0  0  0  0  0  0  0  0  0
    3.6866    2.7232   -0.4616 C   0  0  0  0  0  0  0  0  0  0  0  0
    3.3984    4.0246   -0.9646 N   0  0  0  0  0  0  0  0  0  0  0  0
    4.9363    2.2332   -0.3480 N   0  0  0  0  0  0  0  0  0  0  0  0
    3.2855   -0.8829    1.0052 C   0  0  0  0  0  0  0  0  0  0  0  0
    2.0345   -1.2272    0.9254 N   0  0  0  0  0  0  0  0  0  0  0  0
    1.5295   -2.4448    1.4787 C   0  0  0  0  0  0  0  0  0  0  0  0
    0.2871   -2.7962    1.3236 N   0  0  0  0  0  0  0  0  0  0  0  0
   -0.7439   -2.0202    0.6905 C   0  0  0  0  0  0  0  0  0  0  0  0
   -1.7173   -2.6832   -0.0656 C   0  0  0  0  0  0  0  0  0  0  0  0
   -2.7492   -1.9670   -0.6788 C   0  0  0  0  0  0  0  0  0  0  0  0
   -2.8329   -0.5720   -0.5300 C   0  0  0  0  0  0  0  0  0  0  0  0
   -1.8794    0.0877    0.2614 C   0  0  0  0  0  0  0  0  0  0  0  0
   -0.8487   -0.6295    0.8749 C   0  0  0  0  0  0  0  0  0  0  0  0
   -3.8940    0.1736   -1.1575 N   0  0  0  0  0  0  0  0  0  0  0  0
   -3.5736    1.2910   -2.0516 C   0  0  0  0  0  0  0  0  0  0  0  0
   -4.7193    2.3072   -2.0369 C   0  0  0  0  0  0  0  0  0  0  0  0
   -5.9557    1.6745   -2.3097 O   0  0  0  0  0  0  0  0  0  0  0  0
   -6.2693    0.7674   -1.2695 C   0  0  0  0  0  0  0  0  0  0  0  0
   -5.2516   -0.3764   -1.2187 C   0  0  0  0  0  0  0  0  0  0  0  0
    2.4185   -3.3102    2.1796 N   0  0  0  0  0  0  0  0  0  0  0  0
    3.6763   -3.0232    2.3083 C   0  0  0  0  0  0  0  0  0  0  0  0
    4.2890   -1.7918    1.6899 C   0  0  0  0  0  0  0  0  0  0  0  0
    6.2462   -0.6732   -0.3224 H   0  0  0  0  0  0  0  0  0  0  0  0
    7.0846    0.8847   -0.0373 H   0  0  0  0  0  0  0  0  0  0  0  0
    6.4318   -0.0099    1.3694 H   0  0  0  0  0  0  0  0  0  0  0  0
    4.1733    4.6562   -1.2652 H   0  0  0  0  0  0  0  0  0  0  0  0
    2.4109    4.3556   -1.0359 H   0  0  0  0  0  0  0  0  0  0  0  0
   -1.6661   -3.7575   -0.1920 H   0  0  0  0  0  0  0  0  0  0  0  0
   -3.4749   -2.5005   -1.2788 H   0  0  0  0  0  0  0  0  0  0  0  0
   -1.9496    1.1552    0.4268 H   0  0  0  0  0  0  0  0  0  0  0  0
   -0.1567   -0.1000    1.5159 H   0  0  0  0  0  0  0  0  0  0  0  0
   -2.6350    1.7987   -1.7442 H   0  0  0  0  0  0  0  0  0  0  0  0
   -3.4367    0.9023   -3.0838 H   0  0  0  0  0  0  0  0  0  0  0  0
   -4.7493    2.8454   -1.0618 H   0  0  0  0  0  0  0  0  0  0  0  0
   -4.5306    3.0680   -2.8234 H   0  0  0  0  0  0  0  0  0  0  0  0
   -7.2755    0.3402   -1.4644 H   0  0  0  0  0  0  0  0  0  0  0  0
   -6.3201    1.2870   -0.2852 H   0  0  0  0  0  0  0  0  0  0  0  0
   -5.4573   -1.0033   -0.3234 H   0  0  0  0  0  0  0  0  0  0  0  0
   -5.3540   -1.0049   -2.1298 H   0  0  0  0  0  0  0  0  0  0  0  0
    4.3180   -3.7074    2.8474 H   0  0  0  0  0  0  0  0  0  0  0  0
    4.8007   -1.2254    2.4951 H   0  0  0  0  0  0  0  0  0  0  0  0
    5.0348   -2.1390    0.9486 H   0  0  0  0  0  0  0  0  0  0  0  0
  1  2  1  0
  2  3  2  0
  3  4  1  0
  4  5  1  0
  5  6  1  0
  5  7  2  0
  3  8  1  0
  8  9  2  0
  9 10  1  0
 10 11  2  0
 11 12  1  0
 12 13  2  0
 13 14  1  0
 14 15  2  0
 15 16  1  0
 16 17  2  0
 15 18  1  0
 18 19  1  0
 19 20  1  0
 20 21  1  0
 21 22  1  0
 22 23  1  0
 10 24  1  0
 24 25  2  0
 25 26  1  0
  7  2  1  0
 26  8  1  0
 17 12  1  0
 23 18  1  0
  1 27  1  0
  1 28  1  0
  1 29  1  0
  6 30  1  0
  6 31  1  0
 13 32  1  0
 14 33  1  0
 16 34  1  0
 17 35  1  0
 19 36  1  0
 19 37  1  0
 20 38  1  0
 20 39  1  0
 22 40  1  0
 22 41  1  0
 23 42  1  0
 23 43  1  0
 25 44  1  0
 26 45  1  0
 26 46  1  0
M  END
$$$$
