
     RDKit          3D

 44 47  0  0  0  0  0  0  0  0999 V2000
    0.2438   -0.6840   -3.5808 C   0  0  0  0  0  0  0  0  0  0  0  0
    0.2300    0.4600   -2.5586 C   0  0  2  0  0  0  0  0  0  0  0  0
    1.4734    0.4682   -1.7076 C   0  0  0  0  0  0  0  0  0  0  0  0
    1.9895    1.5743   -1.3940 O   0  0  0  0  0  0  0  0  0  0  0  0
    2.0247   -0.7705   -1.2296 N   0  0  0  0  0  0  0  0  0  0  0  0
    3.0533   -0.9317   -0.4497 C   0  0  0  0  0  0  0  0  0  0  0  0
    3.9068    0.0835    0.1560 C   0  0  0  0  0  0  0  0  0  0  0  0
    4.7861   -0.6328    0.8441 C   0  0  0  0  0  0  0  0  0  0  0  0
    4.5208   -2.0319    0.7216 N   0  0  0  0  0  0  0  0  0  0  0  0
    3.5145   -2.2073   -0.0348 N   0  0  0  0  0  0  0  0  0  0  0  0
    5.8569   -0.0619    1.7220 C   0  0  0  0  0  0  0  0  0  0  0  0
    6.9324    0.7224    0.9854 C   0  0  0  0  0  0  0  0  0  0  0  0
    7.2356   -0.6694    1.5130 C   0  0  0  0  0  0  0  0  0  0  0  0
   -1.0108    0.4084   -1.6891 C   0  0  0  0  0  0  0  0  0  0  0  0
   -1.9391    1.4620   -1.7252 C   0  0  0  0  0  0  0  0  0  0  0  0
   -3.0857    1.4276   -0.9266 C   0  0  0  0  0  0  0  0  0  0  0  0
   -3.3265    0.3413   -0.0680 C   0  0  0  0  0  0  0  0  0  0  0  0
   -2.4064   -0.7197   -0.0432 C   0  0  0  0  0  0  0  0  0  0  0  0
   -1.2594   -0.6855   -0.8405 C   0  0  0  0  0  0  0  0  0  0  0  0
   -4.5118    0.2929    0.7513 N   0  0  0  0  0  0  0  0  0  0  0  0
   -5.2308   -0.9242    1.1264 C   0  0  0  0  0  0  0  0  0  0  0  0
   -6.5086   -0.4540    1.8655 C   0  0  0  0  0  0  0  0  0  0  0  0
   -6.4123    0.9960    1.9416 N   0  0  0  0  0  0  0  0  0  0  0  0
   -5.2323    1.3901    1.2834 C   0  0  0  0  0  0  0  0  0  0  0  0
   -4.8401    2.5860    1.2342 O   0  0  0  0  0  0  0  0  0  0  0  0
   -0.6609   -0.6273   -4.2234 H   0  0  0  0  0  0  0  0  0  0  0  0
    1.1393   -0.5991   -4.2330 H   0  0  0  0  0  0  0  0  0  0  0  0
    0.2615   -1.6758   -3.0815 H   0  0  0  0  0  0  0  0  0  0  0  0
    0.2265    1.4036   -3.1500 H   0  0  0  0  0  0  0  0  0  0  0  0
    3.8590    1.1620    0.1061 H   0  0  0  0  0  0  0  0  0  0  0  0
    5.6227    0.2732    2.7545 H   0  0  0  0  0  0  0  0  0  0  0  0
    6.8332    0.7716   -0.1207 H   0  0  0  0  0  0  0  0  0  0  0  0
    7.3940    1.5394    1.5792 H   0  0  0  0  0  0  0  0  0  0  0  0
    7.3211   -1.4395    0.7160 H   0  0  0  0  0  0  0  0  0  0  0  0
    7.8795   -0.6751    2.4177 H   0  0  0  0  0  0  0  0  0  0  0  0
   -1.7814    2.3118   -2.3777 H   0  0  0  0  0  0  0  0  0  0  0  0
   -3.7945    2.2401   -1.0047 H   0  0  0  0  0  0  0  0  0  0  0  0
   -2.5657   -1.5724    0.6028 H   0  0  0  0  0  0  0  0  0  0  0  0
   -0.5660   -1.5148   -0.7927 H   0  0  0  0  0  0  0  0  0  0  0  0
   -5.4946   -1.5069    0.2175 H   0  0  0  0  0  0  0  0  0  0  0  0
   -4.6056   -1.5419    1.8060 H   0  0  0  0  0  0  0  0  0  0  0  0
   -6.5540   -0.8831    2.8894 H   0  0  0  0  0  0  0  0  0  0  0  0
   -7.4193   -0.7387    1.2964 H   0  0  0  0  0  0  0  0  0  0  0  0
   -7.0989    1.6329    2.4032 H   0  0  0  0  0  0  0  0  0  0  0  0
  1  2  1  0
  2  3  1  0
  3  4  2  0
  3  5  1  0
  5  6  2  0
  6  7  1  0
  7  8  2  0
  8  9  1  0
  9 10  2  0
  8 11  1  0
 11 12  1  0
 12 13  1  0
  2 14  1  0
 14 15  2  0
 15 16  1  0
 16 17  2  0
 17 18  1  0
 18 19  2  0
 17 20  1  0
 20 21  1  0
 21 22  1  0
 22 23  1  0
 23 24  1  0
 24 25  2  0
 10  6  1  0
 13 11  1  0
 19 14  1  0
 24 20  1  0
  1 26  1  0
  1 27  1  0
  1 28  1  0
  2 29  1  6
  7 30  1  0
 11 31  1  0
 12 32  1  0
 12 33  1  0
 13 34  1  0
 13 35  1  0
 15 36  1  0
 16 37  1  0
 18 38  1  0
 19 39  1  0
 21 40  1  0
 21 41  1  0
 22 42  1  0
 22 43  1  0
 23 44  1  0
M  END
$$$$
