
     RDKit          3D

 44 46  0  0  0  0  0  0  0  0999 V2000
    1.3142    0.3284    0.7603 C   0  0  1  0  0  0  0  0  0  0  0  0
    1.5448   -1.0593    0.7433 O   0  0  0  0  0  0  0  0  0  0  0  0
    2.6349    1.1062    0.8994 C   0  0  0  0  0  0  0  0  0  0  0  0
    3.5026    0.8914   -0.2697 N   0  0  0  0  0  0  0  0  0  0  0  0
    4.5321    1.9376   -0.4094 C   0  0  0  0  0  0  0  0  0  0  0  0
    5.1481    1.8462   -1.8072 C   0  0  0  0  0  0  0  0  0  0  0  0
    5.6275    1.8121    0.6631 C   0  0  0  0  0  0  0  0  0  0  0  0
    0.5053    0.7792   -0.4728 C   0  0  0  0  0  0  0  0  0  0  0  0
   -0.7284    0.0661   -0.5556 O   0  0  0  0  0  0  0  0  0  0  0  0
   -1.8561    0.2922    0.2493 C   0  0  0  0  0  0  0  0  0  0  0  0
   -1.9558    1.3732    1.1599 C   0  0  0  0  0  0  0  0  0  0  0  0
   -3.1180    1.5525    1.9411 C   0  0  0  0  0  0  0  0  0  0  0  0
   -4.2006    0.6644    1.8299 C   0  0  0  0  0  0  0  0  0  0  0  0
   -4.0900   -0.3913    0.9290 C   0  0  0  0  0  0  0  0  0  0  0  0
   -2.9535   -0.5707    0.1625 C   0  0  0  0  0  0  0  0  0  0  0  0
   -3.1889   -1.6989   -0.5993 C   0  0  0  0  0  0  0  0  0  0  0  0
   -4.4522   -2.1377   -0.2535 C   0  0  0  0  0  0  0  0  0  0  0  0
   -5.0147   -1.3441    0.6824 N   0  0  0  0  0  0  0  0  0  0  0  0
   -5.0139   -3.2716   -0.8382 C   0  0  0  0  0  0  0  0  0  0  0  0
   -4.2540   -3.9642   -1.7980 C   0  0  0  0  0  0  0  0  0  0  0  0
   -2.9620   -3.5155   -2.1502 C   0  0  0  0  0  0  0  0  0  0  0  0
   -2.4140   -2.3687   -1.5476 C   0  0  0  0  0  0  0  0  0  0  0  0
    0.7131    0.5503    1.6671 H   0  0  0  0  0  0  0  0  0  0  0  0
    1.9427   -1.2941   -0.1351 H   0  0  0  0  0  0  0  0  0  0  0  0
    2.3875    2.1851    1.0179 H   0  0  0  0  0  0  0  0  0  0  0  0
    3.1519    0.7709    1.8258 H   0  0  0  0  0  0  0  0  0  0  0  0
    3.9693   -0.0421   -0.1783 H   0  0  0  0  0  0  0  0  0  0  0  0
    4.0658    2.9452   -0.3262 H   0  0  0  0  0  0  0  0  0  0  0  0
    5.6542    0.8669   -1.9478 H   0  0  0  0  0  0  0  0  0  0  0  0
    5.8887    2.6608   -1.9570 H   0  0  0  0  0  0  0  0  0  0  0  0
    4.3537    1.9509   -2.5766 H   0  0  0  0  0  0  0  0  0  0  0  0
    5.2020    1.9762    1.6746 H   0  0  0  0  0  0  0  0  0  0  0  0
    6.0998    0.8071    0.6277 H   0  0  0  0  0  0  0  0  0  0  0  0
    6.4124    2.5811    0.4997 H   0  0  0  0  0  0  0  0  0  0  0  0
    1.0863    0.5652   -1.3947 H   0  0  0  0  0  0  0  0  0  0  0  0
    0.3214    1.8746   -0.4548 H   0  0  0  0  0  0  0  0  0  0  0  0
   -1.1497    2.0835    1.2742 H   0  0  0  0  0  0  0  0  0  0  0  0
   -3.1767    2.3835    2.6320 H   0  0  0  0  0  0  0  0  0  0  0  0
   -5.0932    0.7985    2.4272 H   0  0  0  0  0  0  0  0  0  0  0  0
   -5.9573   -1.4460    1.1210 H   0  0  0  0  0  0  0  0  0  0  0  0
   -6.0042   -3.6105   -0.5626 H   0  0  0  0  0  0  0  0  0  0  0  0
   -4.6626   -4.8483   -2.2698 H   0  0  0  0  0  0  0  0  0  0  0  0
   -2.3883   -4.0587   -2.8898 H   0  0  0  0  0  0  0  0  0  0  0  0
   -1.4243   -2.0279   -1.8179 H   0  0  0  0  0  0  0  0  0  0  0  0
  1  2  1  0
  1  3  1  0
  3  4  1  0
  4  5  1  0
  5  6  1  0
  5  7  1  0
  1  8  1  0
  8  9  1  0
  9 10  1  0
 10 11  2  0
 11 12  1  0
 12 13  2  0
 13 14  1  0
 14 15  2  0
 15 16  1  0
 16 17  2  0
 17 18  1  0
 17 19  1  0
 19 20  2  0
 20 21  1  0
 21 22  2  0
 15 10  1  0
 22 16  1  0
 18 14  1  0
  1 23  1  1
  2 24  1  0
  3 25  1  0
  3 26  1  0
  4 27  1  0
  5 28  1  0
  6 29  1  0
  6 30  1  0
  6 31  1  0
  7 32  1  0
  7 33  1  0
  7 34  1  0
  8 35  1  0
  8 36  1  0
 11 37  1  0
 12 38  1  0
 13 39  1  0
 18 40  1  0
 19 41  1  0
 20 42  1  0
 21 43  1  0
 22 44  1  0
M  END
$$$$
