
     RDKit          3D

 66 69  0  0  0  0  0  0  0  0999 V2000
    9.2497   -3.5418   -0.8286 C   0  0  0  0  0  0  0  0  0  0  0  0
    9.3939   -2.0581   -0.5102 C   0  0  0  0  0  0  0  0  0  0  0  0
    8.1255   -1.4851   -0.1995 O   0  0  0  0  0  0  0  0  0  0  0  0
    7.1601   -1.1807   -1.1662 C   0  0  0  0  0  0  0  0  0  0  0  0
    7.3993   -1.3587   -2.3926 O   0  0  0  0  0  0  0  0  0  0  0  0
    5.8200   -0.6647   -0.7298 C   0  0  1  0  0  0  0  0  0  0  0  0
    5.4985    0.5570   -1.4736 N   0  0  0  0  0  0  0  0  0  0  0  0
    4.7461   -1.7571   -0.9185 C   0  0  0  0  0  0  0  0  0  0  0  0
    3.4173   -1.3396   -0.3422 C   0  0  0  0  0  0  0  0  0  0  0  0
    3.1865   -1.4324    1.0380 C   0  0  0  0  0  0  0  0  0  0  0  0
    1.9649   -1.0230    1.5794 C   0  0  0  0  0  0  0  0  0  0  0  0
    0.9558   -0.4985    0.7526 C   0  0  0  0  0  0  0  0  0  0  0  0
    1.1904   -0.4115   -0.6329 C   0  0  0  0  0  0  0  0  0  0  0  0
    2.4120   -0.8231   -1.1729 C   0  0  0  0  0  0  0  0  0  0  0  0
   -0.3392   -0.0783    1.3432 C   0  0  0  0  0  0  0  0  0  0  0  0
   -0.7951   -0.7011    2.4648 N   0  0  0  0  0  0  0  0  0  0  0  0
   -1.9837   -0.3646    3.0302 C   0  0  0  0  0  0  0  0  0  0  0  0
   -2.4369   -1.0450    4.1976 N   0  0  0  0  0  0  0  0  0  0  0  0
   -2.7468    0.6097    2.4721 N   0  0  0  0  0  0  0  0  0  0  0  0
   -2.3354    1.2714    1.3571 C   0  0  0  0  0  0  0  0  0  0  0  0
   -3.1378    2.2511    0.7600 O   0  0  0  0  0  0  0  0  0  0  0  0
   -4.4876    2.5268    1.1452 C   0  0  2  0  0  0  0  0  0  0  0  0
   -5.3023    2.7928   -0.1232 C   0  0  0  0  0  0  0  0  0  0  0  0
   -6.0242    3.9934   -0.3201 C   0  0  0  0  0  0  0  0  0  0  0  0
   -6.7189    4.2281   -1.5079 C   0  0  0  0  0  0  0  0  0  0  0  0
   -6.7071    3.2803   -2.5283 C   0  0  0  0  0  0  0  0  0  0  0  0
   -7.5748    3.5865   -4.0218 Cl  0  0  0  0  0  0  0  0  0  0  0  0
   -6.0054    2.0877   -2.3603 C   0  0  0  0  0  0  0  0  0  0  0  0
   -5.3143    1.8239   -1.1672 C   0  0  0  0  0  0  0  0  0  0  0  0
   -4.6043    0.5799   -1.0474 N   0  0  0  0  0  0  0  0  0  0  0  0
   -3.7002    0.1019   -1.9256 C   0  0  0  0  0  0  0  0  0  0  0  0
   -3.2372   -1.1105   -1.4608 C   0  0  0  0  0  0  0  0  0  0  0  0
   -3.9235   -1.3074   -0.2777 C   0  0  0  0  0  0  0  0  0  0  0  0
   -3.7891   -2.4891    0.6221 C   0  0  0  0  0  0  0  0  0  0  0  0
   -4.7596   -0.2763   -0.0498 N   0  0  0  0  0  0  0  0  0  0  0  0
   -4.4868    3.6434    2.2072 C   0  0  0  0  0  0  0  0  0  0  0  0
   -3.9475    4.8077    1.6879 F   0  0  0  0  0  0  0  0  0  0  0  0
   -5.7731    3.8812    2.6597 F   0  0  0  0  0  0  0  0  0  0  0  0
   -3.7189    3.2541    3.2897 F   0  0  0  0  0  0  0  0  0  0  0  0
   -1.1101    0.9482    0.7754 C   0  0  0  0  0  0  0  0  0  0  0  0
    8.7758   -4.0682    0.0267 H   0  0  0  0  0  0  0  0  0  0  0  0
   10.2517   -3.9832   -1.0129 H   0  0  0  0  0  0  0  0  0  0  0  0
    8.6251   -3.6848   -1.7350 H   0  0  0  0  0  0  0  0  0  0  0  0
    9.8625   -1.5230   -1.3647 H   0  0  0  0  0  0  0  0  0  0  0  0
   10.0581   -1.9459    0.3724 H   0  0  0  0  0  0  0  0  0  0  0  0
    5.8893   -0.4130    0.3525 H   0  0  0  0  0  0  0  0  0  0  0  0
    5.2185    0.3123   -2.4518 H   0  0  0  0  0  0  0  0  0  0  0  0
    4.6812    1.0257   -1.0199 H   0  0  0  0  0  0  0  0  0  0  0  0
    5.0773   -2.6901   -0.4103 H   0  0  0  0  0  0  0  0  0  0  0  0
    4.6380   -2.0041   -1.9980 H   0  0  0  0  0  0  0  0  0  0  0  0
    3.9547   -1.8206    1.6954 H   0  0  0  0  0  0  0  0  0  0  0  0
    1.8149   -1.1033    2.6490 H   0  0  0  0  0  0  0  0  0  0  0  0
    0.4255   -0.0476   -1.3061 H   0  0  0  0  0  0  0  0  0  0  0  0
    2.5727   -0.7410   -2.2408 H   0  0  0  0  0  0  0  0  0  0  0  0
   -1.8582   -1.8005    4.6272 H   0  0  0  0  0  0  0  0  0  0  0  0
   -3.3541   -0.7972    4.6308 H   0  0  0  0  0  0  0  0  0  0  0  0
   -4.9398    1.6337    1.6281 H   0  0  0  0  0  0  0  0  0  0  0  0
   -6.0583    4.7703    0.4271 H   0  0  0  0  0  0  0  0  0  0  0  0
   -7.2626    5.1556   -1.6361 H   0  0  0  0  0  0  0  0  0  0  0  0
   -6.0060    1.3536   -3.1567 H   0  0  0  0  0  0  0  0  0  0  0  0
   -3.3871    0.6047   -2.8316 H   0  0  0  0  0  0  0  0  0  0  0  0
   -2.4982   -1.7558   -1.9167 H   0  0  0  0  0  0  0  0  0  0  0  0
   -4.2674   -2.2793    1.6020 H   0  0  0  0  0  0  0  0  0  0  0  0
   -4.2803   -3.3684    0.1565 H   0  0  0  0  0  0  0  0  0  0  0  0
   -2.7145   -2.7128    0.7894 H   0  0  0  0  0  0  0  0  0  0  0  0
   -0.7787    1.4883   -0.1017 H   0  0  0  0  0  0  0  0  0  0  0  0
  1  2  1  0
  2  3  1  0
  3  4  1  0
  4  5  2  0
  4  6  1  0
  6  7  1  0
  6  8  1  0
  8  9  1  0
  9 10  2  0
 10 11  1  0
 11 12  2  0
 12 13  1  0
 13 14  2  0
 12 15  1  0
 15 16  2  0
 16 17  1  0
 17 18  1  0
 17 19  2  0
 19 20  1  0
 20 21  1  0
 21 22  1  0
 22 23  1  0
 23 24  2  0
 24 25  1  0
 25 26  2  0
 26 27  1  0
 26 28  1  0
 28 29  2  0
 29 30  1  0
 30 31  1  0
 31 32  2  0
 32 33  1  0
 33 34  1  0
 33 35  2  0
 22 36  1  0
 36 37  1  0
 36 38  1  0
 36 39  1  0
 20 40  2  0
 14  9  1  0
 40 15  1  0
 29 23  1  0
 35 30  1  0
  1 41  1  0
  1 42  1  0
  1 43  1  0
  2 44  1  0
  2 45  1  0
  6 46  1  1
  7 47  1  0
  7 48  1  0
  8 49  1  0
  8 50  1  0
 10 51  1  0
 11 52  1  0
 13 53  1  0
 14 54  1  0
 18 55  1  0
 18 56  1  0
 22 57  1  1
 24 58  1  0
 25 59  1  0
 28 60  1  0
 31 61  1  0
 32 62  1  0
 34 63  1  0
 34 64  1  0
 34 65  1  0
 40 66  1  0
M  END
$$$$
