
     RDKit          3D

 20 19  0  0  0  0  0  0  0  0999 V2000
    1.3859   -0.3016   -0.2478 C   0  0  2  0  0  0  0  0  0  0  0  0
    1.9274   -0.6056    1.0794 N   0  0  0  0  0  0  0  0  0  0  0  0
    2.2176    0.7513   -0.9352 C   0  0  0  0  0  0  0  0  0  0  0  0
    2.8215    0.4659   -2.1558 O   0  0  0  0  0  0  0  0  0  0  0  0
    2.3640    1.8901   -0.4143 O   0  0  0  0  0  0  0  0  0  0  0  0
   -0.0871    0.1376   -0.1340 C   0  0  1  0  0  0  0  0  0  0  0  0
   -0.6075    0.4135   -1.4116 O   0  0  0  0  0  0  0  0  0  0  0  0
   -0.8285   -0.8978    0.4833 O   0  0  0  0  0  0  0  0  0  0  0  0
   -2.2793   -0.2587    1.1185 P   0  0  0  0  0  5  0  0  0  0  0  0
   -3.1252    0.5988   -0.0714 O   0  0  0  0  0  0  0  0  0  0  0  0
   -3.2416   -1.5362    1.6705 O   0  0  0  0  0  0  0  0  0  0  0  0
   -1.9692    0.6618    2.2779 O   0  0  0  0  0  0  0  0  0  0  0  0
    1.4240   -1.2321   -0.8574 H   0  0  0  0  0  0  0  0  0  0  0  0
    1.9590    0.2681    1.6546 H   0  0  0  0  0  0  0  0  0  0  0  0
    2.9110   -0.9454    0.9706 H   0  0  0  0  0  0  0  0  0  0  0  0
    3.3814    1.1618   -2.6337 H   0  0  0  0  0  0  0  0  0  0  0  0
   -0.1069    1.0761    0.4689 H   0  0  0  0  0  0  0  0  0  0  0  0
   -0.6786   -0.4524   -1.8926 H   0  0  0  0  0  0  0  0  0  0  0  0
   -3.3784   -0.0851   -0.7416 H   0  0  0  0  0  0  0  0  0  0  0  0
   -4.0898   -1.1100    1.9533 H   0  0  0  0  0  0  0  0  0  0  0  0
  1  2  1  0
  1  3  1  0
  3  4  1  0
  3  5  2  0
  1  6  1  0
  6  7  1  0
  6  8  1  0
  8  9  1  0
  9 10  1  0
  9 11  1  0
  9 12  2  0
  1 13  1  6
  2 14  1  0
  2 15  1  0
  4 16  1  0
  6 17  1  1
  7 18  1  0
 10 19  1  0
 11 20  1  0
M  END
$$$$
