
     RDKit          3D

 19 20  0  0  0  0  0  0  0  0999 V2000
    3.0225    1.8419    0.0012 N   0  0  0  0  0  0  0  0  0  0  0  0
    2.2161    0.6691   -0.0784 C   0  0  0  0  0  0  0  0  0  0  0  0
    2.7924   -0.5381   -0.3171 N   0  0  0  0  0  0  0  0  0  0  0  0
    2.0392   -1.6643   -0.4039 C   0  0  0  0  0  0  0  0  0  0  0  0
    0.6559   -1.5924   -0.2442 C   0  0  0  0  0  0  0  0  0  0  0  0
    0.0733   -0.3449    0.0191 C   0  0  0  0  0  0  0  0  0  0  0  0
    0.8690    0.7576    0.0814 N   0  0  0  0  0  0  0  0  0  0  0  0
   -1.3879   -0.1892    0.1787 C   0  0  0  0  0  0  0  0  0  0  0  0
   -2.2291   -1.0868    0.8467 C   0  0  0  0  0  0  0  0  0  0  0  0
   -1.7647   -2.5277    1.7363 Cl  0  0  0  0  0  0  0  0  0  0  0  0
   -3.8000   -0.4888    0.8118 S   0  0  0  0  0  0  0  0  0  0  0  0
   -3.4353    0.9043   -0.0492 C   0  0  0  0  0  0  0  0  0  0  0  0
   -4.5934    2.1324   -0.5144 Cl  0  0  0  0  0  0  0  0  0  0  0  0
   -2.0750    0.9333   -0.3138 C   0  0  0  0  0  0  0  0  0  0  0  0
    4.0576    1.7811   -0.1216 H   0  0  0  0  0  0  0  0  0  0  0  0
    2.5853    2.7725    0.1831 H   0  0  0  0  0  0  0  0  0  0  0  0
    2.5139   -2.6149   -0.6074 H   0  0  0  0  0  0  0  0  0  0  0  0
    0.0570   -2.4862   -0.3551 H   0  0  0  0  0  0  0  0  0  0  0  0
   -1.5968    1.7410   -0.8532 H   0  0  0  0  0  0  0  0  0  0  0  0
  1  2  1  0
  2  3  2  0
  3  4  1  0
  4  5  2  0
  5  6  1  0
  6  7  2  0
  6  8  1  0
  8  9  2  0
  9 10  1  0
  9 11  1  0
 11 12  1  0
 12 13  1  0
 12 14  2  0
  7  2  1  0
 14  8  1  0
  1 15  1  0
  1 16  1  0
  4 17  1  0
  5 18  1  0
 14 19  1  0
M  END
$$$$
