
     RDKit          3D

 36 38  0  0  0  0  0  0  0  0999 V2000
    5.3111    1.5310    1.7044 C   0  0  0  0  0  0  0  0  0  0  0  0
    3.9036    1.6088    1.5155 O   0  0  0  0  0  0  0  0  0  0  0  0
    3.2069    0.7311    0.6807 C   0  0  0  0  0  0  0  0  0  0  0  0
    3.8453   -0.2643   -0.0086 N   0  0  0  0  0  0  0  0  0  0  0  0
    3.1561   -1.1290   -0.8227 C   0  0  0  0  0  0  0  0  0  0  0  0
    3.8557   -2.1555   -1.5216 N   0  0  0  0  0  0  0  0  0  0  0  0
    1.8002   -1.0110   -0.9640 N   0  0  0  0  0  0  0  0  0  0  0  0
    1.1743   -0.0197   -0.2847 C   0  0  0  0  0  0  0  0  0  0  0  0
    1.8332    0.8393    0.5247 C   0  0  0  0  0  0  0  0  0  0  0  0
    0.9749    1.7012    1.1009 N   0  0  0  0  0  0  0  0  0  0  0  0
   -0.2269    1.3115    0.5918 C   0  0  0  0  0  0  0  0  0  0  0  0
   -0.1341    0.2625   -0.2682 N   0  0  0  0  0  0  0  0  0  0  0  0
   -1.2218   -0.4597   -0.9362 C   0  0  2  0  0  0  0  0  0  0  0  0
   -2.1866    0.4659   -1.3953 O   0  0  0  0  0  0  0  0  0  0  0  0
   -3.4237    0.1255   -0.8084 C   0  0  2  0  0  0  0  0  0  0  0  0
   -4.2013    1.3944   -0.4374 C   0  0  0  0  0  0  0  0  0  0  0  0
   -4.5209    2.1258   -1.5901 O   0  0  0  0  0  0  0  0  0  0  0  0
   -3.1546   -0.7499    0.4078 C   0  0  1  0  0  0  0  0  0  0  0  0
   -4.2133   -1.6456    0.6239 O   0  0  0  0  0  0  0  0  0  0  0  0
   -1.8975   -1.4673    0.0020 C   0  0  2  0  0  0  0  0  0  0  0  0
   -1.1167   -1.7833    1.1259 O   0  0  0  0  0  0  0  0  0  0  0  0
    5.5831    0.5436    2.1341 H   0  0  0  0  0  0  0  0  0  0  0  0
    5.6293    2.3286    2.4065 H   0  0  0  0  0  0  0  0  0  0  0  0
    5.8334    1.6754    0.7349 H   0  0  0  0  0  0  0  0  0  0  0  0
    4.8902   -2.2537   -1.4193 H   0  0  0  0  0  0  0  0  0  0  0  0
    3.3401   -2.8184   -2.1419 H   0  0  0  0  0  0  0  0  0  0  0  0
   -1.1613    1.7860    0.8596 H   0  0  0  0  0  0  0  0  0  0  0  0
   -0.8123   -1.0018   -1.8170 H   0  0  0  0  0  0  0  0  0  0  0  0
   -4.0167   -0.4491   -1.5568 H   0  0  0  0  0  0  0  0  0  0  0  0
   -5.1484    1.1087    0.0682 H   0  0  0  0  0  0  0  0  0  0  0  0
   -3.6135    2.0223    0.2709 H   0  0  0  0  0  0  0  0  0  0  0  0
   -3.7062    2.6351   -1.8402 H   0  0  0  0  0  0  0  0  0  0  0  0
   -2.9724   -0.1219    1.3131 H   0  0  0  0  0  0  0  0  0  0  0  0
   -4.0438   -2.0723    1.5040 H   0  0  0  0  0  0  0  0  0  0  0  0
   -2.1578   -2.3933   -0.5651 H   0  0  0  0  0  0  0  0  0  0  0  0
   -0.4077   -2.4011    0.8084 H   0  0  0  0  0  0  0  0  0  0  0  0
  1  2  1  0
  2  3  1  0
  3  4  2  0
  4  5  1  0
  5  6  1  0
  5  7  2  0
  7  8  1  0
  8  9  2  0
  9 10  1  0
 10 11  2  0
 11 12  1  0
 12 13  1  0
 13 14  1  0
 14 15  1  0
 15 16  1  0
 16 17  1  0
 15 18  1  0
 18 19  1  0
 18 20  1  0
 20 21  1  0
  9  3  1  0
 20 13  1  0
 12  8  1  0
  1 22  1  0
  1 23  1  0
  1 24  1  0
  6 25  1  0
  6 26  1  0
 11 27  1  0
 13 28  1  6
 15 29  1  6
 16 30  1  0
 16 31  1  0
 17 32  1  0
 18 33  1  1
 19 34  1  0
 20 35  1  6
 21 36  1  0
M  END
$$$$
