
     RDKit          3D

 78 79  0  0  0  0  0  0  0  0999 V2000
    3.2543   -4.7728   -1.6572 C   0  0  0  0  0  0  0  0  0  0  0  0
    2.2191   -3.7536   -1.1794 C   0  0  0  0  0  0  0  0  0  0  0  0
    2.2748   -2.4185   -1.9654 C   0  0  1  0  0  0  0  0  0  0  0  0
    1.8183   -2.6102   -3.4255 C   0  0  0  0  0  0  0  0  0  0  0  0
    1.4752   -1.3072   -1.2271 C   0  0  1  0  0  0  0  0  0  0  0  0
    1.7187    0.0048   -1.8567 N   0  0  0  0  0  0  0  0  0  0  0  0
    1.4067    1.3162   -0.7534 S   0  0  0  0  0  6  0  0  0  0  0  0
    0.0849    1.1204   -0.0640 O   0  0  0  0  0  0  0  0  0  0  0  0
    1.3690    2.6008   -1.5322 O   0  0  0  0  0  0  0  0  0  0  0  0
    2.7089    1.4161    0.4651 C   0  0  0  0  0  0  0  0  0  0  0  0
    2.4971    2.6052    1.3600 C   0  0  0  0  0  0  0  0  0  0  0  0
    3.0680    3.8471    1.0368 C   0  0  0  0  0  0  0  0  0  0  0  0
    2.8520    4.9701    1.8570 C   0  0  0  0  0  0  0  0  0  0  0  0
    2.0498    4.8344    3.0033 C   0  0  0  0  0  0  0  0  0  0  0  0
    1.4682    3.6036    3.3176 C   0  0  0  0  0  0  0  0  0  0  0  0
    1.6854    2.4943    2.4986 C   0  0  0  0  0  0  0  0  0  0  0  0
    3.4473    6.2805    1.5144 C   0  0  0  0  0  0  0  0  0  0  0  0
    3.2211    7.3882    2.3275 O   0  0  0  0  0  0  0  0  0  0  0  0
    4.1621    6.4077    0.4836 O   0  0  0  0  0  0  0  0  0  0  0  0
   -0.0035   -1.6316   -1.1356 C   0  0  0  0  0  0  0  0  0  0  0  0
   -0.7670   -1.3939   -2.1118 O   0  0  0  0  0  0  0  0  0  0  0  0
   -0.5265   -2.2455    0.0513 N   0  0  0  0  0  0  0  0  0  0  0  0
   -1.9369   -2.6230    0.1731 C   0  0  1  0  0  0  0  0  0  0  0  0
   -2.1392   -3.6450    1.3085 C   0  0  0  0  0  0  0  0  0  0  0  0
   -1.4505   -4.9813    0.9998 C   0  0  0  0  0  0  0  0  0  0  0  0
   -1.6869   -5.9625    2.1092 C   0  0  0  0  0  0  0  0  0  0  0  0
   -2.8881   -6.7385    2.1344 N   0  0  0  0  0  0  0  0  0  0  0  0
   -0.8254   -6.0610    3.0715 N   0  0  0  0  0  0  0  0  0  0  0  0
   -2.7589   -1.3880    0.4258 C   0  0  0  0  0  0  0  0  0  0  0  0
   -2.5844   -0.7293    1.4877 O   0  0  0  0  0  0  0  0  0  0  0  0
   -3.7092   -0.9413   -0.5519 N   0  0  0  0  0  0  0  0  0  0  0  0
   -4.4483    0.3103   -0.4093 C   0  0  0  0  0  0  0  0  0  0  0  0
   -3.5267    1.4865   -0.5893 C   0  0  0  0  0  0  0  0  0  0  0  0
   -2.9171    1.7178   -1.8309 C   0  0  0  0  0  0  0  0  0  0  0  0
   -2.0622    2.8096   -2.0063 C   0  0  0  0  0  0  0  0  0  0  0  0
   -1.8025    3.6908   -0.9410 C   0  0  0  0  0  0  0  0  0  0  0  0
   -2.4060    3.4477    0.3049 C   0  0  0  0  0  0  0  0  0  0  0  0
   -3.2601    2.3553    0.4791 C   0  0  0  0  0  0  0  0  0  0  0  0
   -0.8918    4.8504   -1.1168 C   0  0  0  0  0  0  0  0  0  0  0  0
   -0.0374    5.2615   -0.0471 N   0  0  0  0  0  0  0  0  0  0  0  0
   -0.8566    5.5087   -2.2337 N   0  0  0  0  0  0  0  0  0  0  0  0
    3.0092   -5.1369   -2.6760 H   0  0  0  0  0  0  0  0  0  0  0  0
    3.2533   -5.6470   -0.9725 H   0  0  0  0  0  0  0  0  0  0  0  0
    4.2711   -4.3260   -1.6558 H   0  0  0  0  0  0  0  0  0  0  0  0
    1.2056   -4.2045   -1.2564 H   0  0  0  0  0  0  0  0  0  0  0  0
    2.4177   -3.5581   -0.1029 H   0  0  0  0  0  0  0  0  0  0  0  0
    3.3363   -2.0834   -1.9908 H   0  0  0  0  0  0  0  0  0  0  0  0
    0.8033   -3.0579   -3.4706 H   0  0  0  0  0  0  0  0  0  0  0  0
    1.8133   -1.6451   -3.9713 H   0  0  0  0  0  0  0  0  0  0  0  0
    2.5209   -3.2769   -3.9659 H   0  0  0  0  0  0  0  0  0  0  0  0
    1.8815   -1.2742   -0.1933 H   0  0  0  0  0  0  0  0  0  0  0  0
    1.0970    0.1402   -2.6862 H   0  0  0  0  0  0  0  0  0  0  0  0
    2.7249    0.4868    1.0718 H   0  0  0  0  0  0  0  0  0  0  0  0
    3.6866    1.4911   -0.0570 H   0  0  0  0  0  0  0  0  0  0  0  0
    3.6753    3.9346    0.1438 H   0  0  0  0  0  0  0  0  0  0  0  0
    1.8629    5.6804    3.6524 H   0  0  0  0  0  0  0  0  0  0  0  0
    0.8435    3.5107    4.1965 H   0  0  0  0  0  0  0  0  0  0  0  0
    1.2205    1.5491    2.7507 H   0  0  0  0  0  0  0  0  0  0  0  0
    3.6226    8.2903    2.1012 H   0  0  0  0  0  0  0  0  0  0  0  0
    0.1154   -2.3919    0.8635 H   0  0  0  0  0  0  0  0  0  0  0  0
   -2.2689   -3.1016   -0.7751 H   0  0  0  0  0  0  0  0  0  0  0  0
   -3.2295   -3.8270    1.4404 H   0  0  0  0  0  0  0  0  0  0  0  0
   -1.7415   -3.2333    2.2631 H   0  0  0  0  0  0  0  0  0  0  0  0
   -1.8498   -5.4007    0.0510 H   0  0  0  0  0  0  0  0  0  0  0  0
   -0.3571   -4.8286    0.8683 H   0  0  0  0  0  0  0  0  0  0  0  0
   -3.5992   -6.6386    1.3764 H   0  0  0  0  0  0  0  0  0  0  0  0
   -3.0747   -7.4120    2.9104 H   0  0  0  0  0  0  0  0  0  0  0  0
   -0.9688   -6.7172    3.8713 H   0  0  0  0  0  0  0  0  0  0  0  0
   -3.8739   -1.5184   -1.4073 H   0  0  0  0  0  0  0  0  0  0  0  0
   -5.2431    0.3583   -1.1849 H   0  0  0  0  0  0  0  0  0  0  0  0
   -4.9545    0.3338    0.5804 H   0  0  0  0  0  0  0  0  0  0  0  0
   -3.1006    1.0481   -2.6622 H   0  0  0  0  0  0  0  0  0  0  0  0
   -1.5873    2.9490   -2.9690 H   0  0  0  0  0  0  0  0  0  0  0  0
   -2.2343    4.1126    1.1418 H   0  0  0  0  0  0  0  0  0  0  0  0
   -3.7164    2.1912    1.4474 H   0  0  0  0  0  0  0  0  0  0  0  0
    0.0227    4.7096    0.8361 H   0  0  0  0  0  0  0  0  0  0  0  0
    0.5854    6.0925   -0.1572 H   0  0  0  0  0  0  0  0  0  0  0  0
   -1.4653    5.2762   -3.0495 H   0  0  0  0  0  0  0  0  0  0  0  0
  1  2  1  0
  2  3  1  0
  3  4  1  0
  3  5  1  0
  5  6  1  0
  6  7  1  0
  7  8  2  0
  7  9  2  0
  7 10  1  0
 10 11  1  0
 11 12  2  0
 12 13  1  0
 13 14  2  0
 14 15  1  0
 15 16  2  0
 13 17  1  0
 17 18  1  0
 17 19  2  0
  5 20  1  0
 20 21  2  0
 20 22  1  0
 22 23  1  0
 23 24  1  0
 24 25  1  0
 25 26  1  0
 26 27  1  0
 26 28  2  3
 23 29  1  0
 29 30  2  0
 29 31  1  0
 31 32  1  0
 32 33  1  0
 33 34  2  0
 34 35  1  0
 35 36  2  0
 36 37  1  0
 37 38  2  0
 36 39  1  0
 39 40  1  0
 39 41  2  3
 16 11  1  0
 38 33  1  0
  1 42  1  0
  1 43  1  0
  1 44  1  0
  2 45  1  0
  2 46  1  0
  3 47  1  6
  4 48  1  0
  4 49  1  0
  4 50  1  0
  5 51  1  1
  6 52  1  0
 10 53  1  0
 10 54  1  0
 12 55  1  0
 14 56  1  0
 15 57  1  0
 16 58  1  0
 18 59  1  0
 22 60  1  0
 23 61  1  6
 24 62  1  0
 24 63  1  0
 25 64  1  0
 25 65  1  0
 27 66  1  0
 27 67  1  0
 28 68  1  0
 31 69  1  0
 32 70  1  0
 32 71  1  0
 34 72  1  0
 35 73  1  0
 37 74  1  0
 38 75  1  0
 40 76  1  0
 40 77  1  0
 41 78  1  0
M  END
$$$$
