
     RDKit          3D

 48 51  0  0  0  0  0  0  0  0999 V2000
    4.5000    2.2814    6.1407 C   0  0  0  0  0  0  0  0  0  0  0  0
    3.9657    1.7430    4.8960 N   0  0  0  0  0  0  0  0  0  0  0  0
    2.7562    2.2508    4.3141 C   0  0  0  0  0  0  0  0  0  0  0  0
    2.2181    3.2852    4.7962 O   0  0  0  0  0  0  0  0  0  0  0  0
    2.1464    1.6000    3.1321 C   0  0  0  0  0  0  0  0  0  0  0  0
    1.4857    2.3863    2.1720 C   0  0  0  0  0  0  0  0  0  0  0  0
    0.9071    1.7944    1.0468 C   0  0  0  0  0  0  0  0  0  0  0  0
    0.9798    0.4083    0.8623 C   0  0  0  0  0  0  0  0  0  0  0  0
    1.6044   -0.3852    1.8310 C   0  0  0  0  0  0  0  0  0  0  0  0
    2.1862    0.2016    2.9596 C   0  0  0  0  0  0  0  0  0  0  0  0
    2.7335   -0.6050    3.9036 F   0  0  0  0  0  0  0  0  0  0  0  0
    0.3729   -0.1993   -0.2889 N   0  0  0  0  0  0  0  0  0  0  0  0
   -1.0386   -0.3082   -0.5081 C   0  0  0  0  0  0  0  0  0  0  0  0
   -2.1587    0.2368    0.5632 S   0  0  0  0  0  0  0  0  0  0  0  0
   -1.3508   -0.6786   -1.8509 N   0  0  0  0  0  0  0  0  0  0  0  0
   -0.0912   -0.8044   -2.5026 C   0  0  0  0  0  0  0  0  0  0  0  0
    0.0427   -1.1596   -3.7047 O   0  0  0  0  0  0  0  0  0  0  0  0
    1.0376   -0.5005   -1.5660 C   0  0  0  0  0  0  0  0  0  0  0  0
    2.0392    0.5449   -2.0535 C   0  0  0  0  0  0  0  0  0  0  0  0
    3.1463   -0.5030   -1.9517 C   0  0  0  0  0  0  0  0  0  0  0  0
    2.1389   -1.5522   -1.4835 C   0  0  0  0  0  0  0  0  0  0  0  0
   -2.6443   -0.9267   -2.4274 C   0  0  0  0  0  0  0  0  0  0  0  0
   -3.6049   -1.6766   -1.7365 C   0  0  0  0  0  0  0  0  0  0  0  0
   -4.8687   -1.9211   -2.3041 C   0  0  0  0  0  0  0  0  0  0  0  0
   -5.1336   -1.3969   -3.5898 C   0  0  0  0  0  0  0  0  0  0  0  0
   -4.1805   -0.6791   -4.2408 N   0  0  0  0  0  0  0  0  0  0  0  0
   -2.9596   -0.4377   -3.6993 C   0  0  0  0  0  0  0  0  0  0  0  0
   -6.3999   -1.6035   -4.2464 C   0  0  0  0  0  0  0  0  0  0  0  0
   -7.4165   -1.7691   -4.7741 N   0  0  0  0  0  0  0  0  0  0  0  0
   -5.9084   -2.7318   -1.5573 C   0  0  0  0  0  0  0  0  0  0  0  0
   -5.4511   -3.1364   -0.3147 F   0  0  0  0  0  0  0  0  0  0  0  0
   -7.0474   -1.9689   -1.3732 F   0  0  0  0  0  0  0  0  0  0  0  0
   -6.2311   -3.8591   -2.2909 F   0  0  0  0  0  0  0  0  0  0  0  0
    3.7669    2.1297    6.9607 H   0  0  0  0  0  0  0  0  0  0  0  0
    4.7091    3.3657    6.0244 H   0  0  0  0  0  0  0  0  0  0  0  0
    5.4450    1.7604    6.4027 H   0  0  0  0  0  0  0  0  0  0  0  0
    4.5131    1.0046    4.4001 H   0  0  0  0  0  0  0  0  0  0  0  0
    1.4286    3.4619    2.2860 H   0  0  0  0  0  0  0  0  0  0  0  0
    0.4071    2.4141    0.3131 H   0  0  0  0  0  0  0  0  0  0  0  0
    1.6187   -1.4619    1.7249 H   0  0  0  0  0  0  0  0  0  0  0  0
    2.2006    1.3939   -1.3578 H   0  0  0  0  0  0  0  0  0  0  0  0
    1.8683    0.8683   -3.1040 H   0  0  0  0  0  0  0  0  0  0  0  0
    3.8947   -0.2545   -1.1674 H   0  0  0  0  0  0  0  0  0  0  0  0
    3.5922   -0.7504   -2.9398 H   0  0  0  0  0  0  0  0  0  0  0  0
    2.0235   -2.3776   -2.2201 H   0  0  0  0  0  0  0  0  0  0  0  0
    2.3504   -1.9101   -0.4556 H   0  0  0  0  0  0  0  0  0  0  0  0
   -3.3524   -2.0816   -0.7655 H   0  0  0  0  0  0  0  0  0  0  0  0
   -2.2411    0.1500   -4.2550 H   0  0  0  0  0  0  0  0  0  0  0  0
  1  2  1  0
  2  3  1  0
  3  4  2  0
  3  5  1  0
  5  6  2  0
  6  7  1  0
  7  8  2  0
  8  9  1  0
  9 10  2  0
 10 11  1  0
  8 12  1  0
 12 13  1  0
 13 14  2  0
 13 15  1  0
 15 16  1  0
 16 17  2  0
 16 18  1  0
 18 19  1  0
 19 20  1  0
 20 21  1  0
 15 22  1  0
 22 23  2  0
 23 24  1  0
 24 25  2  0
 25 26  1  0
 26 27  2  0
 25 28  1  0
 28 29  3  0
 24 30  1  0
 30 31  1  0
 30 32  1  0
 30 33  1  0
 10  5  1  0
 18 12  1  0
 21 18  1  0
 27 22  1  0
  1 34  1  0
  1 35  1  0
  1 36  1  0
  2 37  1  0
  6 38  1  0
  7 39  1  0
  9 40  1  0
 19 41  1  0
 19 42  1  0
 20 43  1  0
 20 44  1  0
 21 45  1  0
 21 46  1  0
 23 47  1  0
 27 48  1  0
M  END
$$$$
