
     RDKit          3D

 46 49  0  0  0  0  0  0  0  0999 V2000
    3.9269    0.6024    0.7906 O   0  0  0  0  0  0  0  0  0  0  0  0
    3.8531    1.9730    0.5041 C   0  0  0  0  0  0  0  0  0  0  0  0
    2.3917    2.4247    0.3049 C   0  0  1  0  0  0  0  0  0  0  0  0
    2.3123    3.8261    0.3805 O   0  0  0  0  0  0  0  0  0  0  0  0
    1.7853    1.9408   -1.0315 C   0  0  0  0  0  0  0  0  0  0  0  0
    1.5864    0.4227   -1.0929 C   0  0  0  0  0  0  0  0  0  0  0  0
    0.6685    0.1183   -2.1174 O   0  0  0  0  0  0  0  0  0  0  0  0
    0.4296   -1.2183   -2.0470 N   0  0  0  0  0  0  0  0  0  0  0  0
   -0.6369   -1.7521   -1.2475 C   0  0  0  0  0  0  0  0  0  0  0  0
   -1.5582   -1.0450   -0.4720 C   0  0  0  0  0  0  0  0  0  0  0  0
   -2.2939   -1.8989    0.2776 N   0  0  0  0  0  0  0  0  0  0  0  0
   -1.8508   -3.1330   -0.0242 C   0  0  0  0  0  0  0  0  0  0  0  0
   -2.2936   -4.3413    0.5121 C   0  0  0  0  0  0  0  0  0  0  0  0
   -1.6662   -5.5233    0.0781 C   0  0  0  0  0  0  0  0  0  0  0  0
   -0.6174   -5.4718   -0.8668 C   0  0  0  0  0  0  0  0  0  0  0  0
   -0.1876   -4.2383   -1.3892 C   0  0  0  0  0  0  0  0  0  0  0  0
   -0.8367   -3.0843   -0.9494 C   0  0  0  0  0  0  0  0  0  0  0  0
   -1.7327    0.4142   -0.4310 C   0  0  0  0  0  0  0  0  0  0  0  0
   -1.6174    1.2192    0.6143 C   0  0  0  0  0  0  0  0  0  0  0  0
   -1.2917    0.9066    1.9366 C   0  0  0  0  0  0  0  0  0  0  0  0
   -1.1884    1.9594    2.8605 C   0  0  0  0  0  0  0  0  0  0  0  0
   -1.4062    3.2916    2.4541 C   0  0  0  0  0  0  0  0  0  0  0  0
   -1.7276    3.5866    1.1183 C   0  0  0  0  0  0  0  0  0  0  0  0
   -1.8254    2.5318    0.2110 C   0  0  0  0  0  0  0  0  0  0  0  0
   -2.0827    2.6589   -1.0533 N   0  0  0  0  0  0  0  0  0  0  0  0
   -2.0365    1.3174   -1.5291 C   0  0  0  0  0  0  0  0  0  0  0  0
   -2.2396    0.9862   -2.7265 O   0  0  0  0  0  0  0  0  0  0  0  0
    3.6164    0.4897    1.7268 H   0  0  0  0  0  0  0  0  0  0  0  0
    4.4440    2.1819   -0.4131 H   0  0  0  0  0  0  0  0  0  0  0  0
    4.3153    2.5533    1.3353 H   0  0  0  0  0  0  0  0  0  0  0  0
    1.7785    2.0215    1.1408 H   0  0  0  0  0  0  0  0  0  0  0  0
    2.8614    4.1976   -0.3594 H   0  0  0  0  0  0  0  0  0  0  0  0
    0.7964    2.4321   -1.1541 H   0  0  0  0  0  0  0  0  0  0  0  0
    2.4222    2.2645   -1.8836 H   0  0  0  0  0  0  0  0  0  0  0  0
    1.2037    0.0652   -0.1092 H   0  0  0  0  0  0  0  0  0  0  0  0
    2.5624   -0.0673   -1.3059 H   0  0  0  0  0  0  0  0  0  0  0  0
    1.0368   -1.8667   -2.5964 H   0  0  0  0  0  0  0  0  0  0  0  0
   -3.0510   -1.6507    0.9534 H   0  0  0  0  0  0  0  0  0  0  0  0
   -3.0910   -4.3702    1.2434 H   0  0  0  0  0  0  0  0  0  0  0  0
   -1.9860   -6.4780    0.4749 H   0  0  0  0  0  0  0  0  0  0  0  0
   -0.1390   -6.3875   -1.1890 H   0  0  0  0  0  0  0  0  0  0  0  0
    0.6189   -4.1944   -2.1089 H   0  0  0  0  0  0  0  0  0  0  0  0
   -1.1118   -0.1151    2.2463 H   0  0  0  0  0  0  0  0  0  0  0  0
   -0.9353    1.7465    3.8909 H   0  0  0  0  0  0  0  0  0  0  0  0
   -1.3204    4.0940    3.1752 H   0  0  0  0  0  0  0  0  0  0  0  0
   -1.8854    4.6099    0.8022 H   0  0  0  0  0  0  0  0  0  0  0  0
  1  2  1  0
  2  3  1  0
  3  4  1  0
  3  5  1  0
  5  6  1  0
  6  7  1  0
  7  8  1  0
  8  9  1  0
  9 10  2  0
 10 11  1  0
 11 12  1  0
 12 13  2  0
 13 14  1  0
 14 15  2  0
 15 16  1  0
 16 17  2  0
 10 18  1  0
 18 19  2  0
 19 20  1  0
 20 21  2  0
 21 22  1  0
 22 23  2  0
 23 24  1  0
 24 25  2  0
 25 26  1  0
 26 27  2  0
 17  9  1  0
 26 18  1  0
 17 12  1  0
 24 19  1  0
  1 28  1  0
  2 29  1  0
  2 30  1  0
  3 31  1  1
  4 32  1  0
  5 33  1  0
  5 34  1  0
  6 35  1  0
  6 36  1  0
  8 37  1  0
 11 38  1  0
 13 39  1  0
 14 40  1  0
 15 41  1  0
 16 42  1  0
 20 43  1  0
 21 44  1  0
 22 45  1  0
 23 46  1  0
M  END
$$$$
