
     RDKit          3D

 44 46  0  0  0  0  0  0  0  0999 V2000
    1.4912   -1.2674   -0.9694 C   0  0  1  0  0  0  0  0  0  0  0  0
    0.6865    0.3707   -0.9065 S   0  0  0  0  0  0  0  0  0  0  0  0
    2.2099    1.1500   -0.1959 C   0  0  0  0  0  0  0  0  0  0  0  0
    1.7853    2.2949    0.7358 C   0  0  0  0  0  0  0  0  0  0  0  0
    3.0241    1.7206   -1.3748 C   0  0  0  0  0  0  0  0  0  0  0  0
    2.9721    0.0409    0.6008 C   0  0  1  0  0  0  0  0  0  0  0  0
    2.4966   -1.2013    0.0457 N   0  0  0  0  0  0  0  0  0  0  0  0
    1.9336   -2.4334    0.6433 C   0  0  0  0  0  0  0  0  0  0  0  0
    2.2213   -3.1564    1.6324 O   0  0  0  0  0  0  0  0  0  0  0  0
    0.8286   -2.4046   -0.3671 C   0  0  1  0  0  0  0  0  0  0  0  0
   -0.4621   -2.0938    0.2530 N   0  0  0  0  0  0  0  0  0  0  0  0
   -1.6755   -2.0416   -0.5096 C   0  0  0  0  0  0  0  0  0  0  0  0
   -1.6664   -2.3607   -1.7308 O   0  0  0  0  0  0  0  0  0  0  0  0
   -2.9344   -1.5211    0.1397 C   0  0  0  0  0  0  0  0  0  0  0  0
   -4.1871   -2.0055   -0.5450 C   0  0  0  0  0  0  0  0  0  0  0  0
   -5.0725   -2.8284    0.1447 O   0  0  0  0  0  0  0  0  0  0  0  0
   -4.4417   -1.6756   -1.7352 O   0  0  0  0  0  0  0  0  0  0  0  0
   -2.8968   -0.0081    0.2231 C   0  0  0  0  0  0  0  0  0  0  0  0
   -2.9476    0.6301    1.4762 C   0  0  0  0  0  0  0  0  0  0  0  0
   -2.8722    2.0234    1.5652 C   0  0  0  0  0  0  0  0  0  0  0  0
   -2.7466    2.7944    0.4075 C   0  0  0  0  0  0  0  0  0  0  0  0
   -2.6986    2.1740   -0.8426 C   0  0  0  0  0  0  0  0  0  0  0  0
   -2.7736    0.7813   -0.9378 C   0  0  0  0  0  0  0  0  0  0  0  0
    4.4725    0.1149    0.5339 C   0  0  0  0  0  0  0  0  0  0  0  0
    5.1681   -0.5757   -0.4551 O   0  0  0  0  0  0  0  0  0  0  0  0
    5.1002    0.8378    1.3530 O   0  0  0  0  0  0  0  0  0  0  0  0
    1.9423   -1.4902   -1.9616 H   0  0  0  0  0  0  0  0  0  0  0  0
    2.6775    2.7665    1.2006 H   0  0  0  0  0  0  0  0  0  0  0  0
    1.1233    1.9137    1.5430 H   0  0  0  0  0  0  0  0  0  0  0  0
    1.2255    3.0709    0.1705 H   0  0  0  0  0  0  0  0  0  0  0  0
    3.3575    0.9035   -2.0495 H   0  0  0  0  0  0  0  0  0  0  0  0
    3.9164    2.2738   -1.0115 H   0  0  0  0  0  0  0  0  0  0  0  0
    2.4032    2.4260   -1.9681 H   0  0  0  0  0  0  0  0  0  0  0  0
    2.6720    0.0638    1.6724 H   0  0  0  0  0  0  0  0  0  0  0  0
    0.8072   -3.3218   -0.9951 H   0  0  0  0  0  0  0  0  0  0  0  0
   -0.5022   -1.8622    1.2724 H   0  0  0  0  0  0  0  0  0  0  0  0
   -2.9548   -1.9413    1.1697 H   0  0  0  0  0  0  0  0  0  0  0  0
   -5.9198   -3.1655   -0.2965 H   0  0  0  0  0  0  0  0  0  0  0  0
   -3.0367    0.0507    2.3866 H   0  0  0  0  0  0  0  0  0  0  0  0
   -2.9075    2.5056    2.5335 H   0  0  0  0  0  0  0  0  0  0  0  0
   -2.6848    3.8725    0.4792 H   0  0  0  0  0  0  0  0  0  0  0  0
   -2.5961    2.7720   -1.7389 H   0  0  0  0  0  0  0  0  0  0  0  0
   -2.7150    0.3191   -1.9146 H   0  0  0  0  0  0  0  0  0  0  0  0
    6.1773   -0.5164   -0.5180 H   0  0  0  0  0  0  0  0  0  0  0  0
  1  2  1  0
  2  3  1  0
  3  4  1  0
  3  5  1  0
  3  6  1  0
  6  7  1  0
  7  8  1  0
  8  9  2  0
  8 10  1  0
 10 11  1  0
 11 12  1  0
 12 13  2  0
 12 14  1  0
 14 15  1  0
 15 16  1  0
 15 17  2  0
 14 18  1  0
 18 19  2  0
 19 20  1  0
 20 21  2  0
 21 22  1  0
 22 23  2  0
  6 24  1  0
 24 25  1  0
 24 26  2  0
  7  1  1  0
 23 18  1  0
 10  1  1  0
  1 27  1  6
  4 28  1  0
  4 29  1  0
  4 30  1  0
  5 31  1  0
  5 32  1  0
  5 33  1  0
  6 34  1  1
 10 35  1  6
 11 36  1  0
 14 37  1  0
 16 38  1  0
 19 39  1  0
 20 40  1  0
 21 41  1  0
 22 42  1  0
 23 43  1  0
 25 44  1  0
M  END
$$$$
