
     RDKit          3D

 52 57  0  0  0  0  0  0  0  0999 V2000
   -2.4082   -1.1131   -0.8240 C   0  0  0  0  0  0  0  0  0  0  0  0
   -1.5964   -0.0893   -0.0953 N   0  0  2  0  0  4  0  0  0  0  0  0
   -2.5455    0.7029    0.7684 C   0  0  0  0  0  0  0  0  0  0  0  0
   -3.7802    1.2959    0.0418 C   0  0  0  0  0  0  0  0  0  0  0  0
   -5.1113    0.5914    0.2717 C   0  0  0  0  0  0  0  0  0  0  0  0
   -4.8130    1.8971    0.9866 C   0  0  0  0  0  0  0  0  0  0  0  0
   -0.9614    0.8370   -1.0873 C   0  0  0  0  0  0  0  0  0  0  0  0
    0.2602    0.2478   -1.8282 C   0  0  0  0  0  0  0  0  0  0  0  0
    1.2879   -0.3862   -0.8634 C   0  0  2  0  0  0  0  0  0  0  0  0
    2.6069   -0.7736   -1.6203 C   0  0  1  0  0  0  0  0  0  0  0  0
    3.5113    0.3085   -1.3523 O   0  0  0  0  0  0  0  0  0  0  0  0
    3.0408    1.0707   -0.3009 C   0  0  0  0  0  0  0  0  0  0  0  0
    3.7265    2.0469    0.4258 C   0  0  0  0  0  0  0  0  0  0  0  0
    4.9847    2.4965    0.0340 O   0  0  0  0  0  0  0  0  0  0  0  0
    3.1212    2.5455    1.5964 C   0  0  0  0  0  0  0  0  0  0  0  0
    1.8916    2.0129    2.0448 C   0  0  0  0  0  0  0  0  0  0  0  0
    1.2237    1.0384    1.2779 C   0  0  0  0  0  0  0  0  0  0  0  0
    0.1149    0.1837    1.8515 C   0  0  0  0  0  0  0  0  0  0  0  0
   -0.5522   -0.7795    0.7863 C   0  0  2  0  0  0  0  0  0  0  0  0
    0.6006   -1.4995   -0.0460 C   0  0  1  0  0  0  0  0  0  0  0  0
    0.0786   -2.4722   -0.9187 O   0  0  0  0  0  0  0  0  0  0  0  0
    1.6643   -2.2103    0.8383 C   0  0  0  0  0  0  0  0  0  0  0  0
    2.7154   -2.9189   -0.0243 C   0  0  0  0  0  0  0  0  0  0  0  0
    3.2478   -2.0687   -1.1564 C   0  0  0  0  0  0  0  0  0  0  0  0
    4.2443   -2.4588   -1.7455 O   0  0  0  0  0  0  0  0  0  0  0  0
    1.7950    0.6681    0.0620 C   0  0  0  0  0  0  0  0  0  0  0  0
   -1.8673   -1.5836   -1.6615 H   0  0  0  0  0  0  0  0  0  0  0  0
   -2.7845   -1.9001   -0.1341 H   0  0  0  0  0  0  0  0  0  0  0  0
   -3.2815   -0.6760   -1.3473 H   0  0  0  0  0  0  0  0  0  0  0  0
   -2.0439    1.6048    1.1757 H   0  0  0  0  0  0  0  0  0  0  0  0
   -2.8704    0.0864    1.6386 H   0  0  0  0  0  0  0  0  0  0  0  0
   -3.6687    1.8757   -0.8982 H   0  0  0  0  0  0  0  0  0  0  0  0
   -5.8269    0.6875   -0.5717 H   0  0  0  0  0  0  0  0  0  0  0  0
   -5.0806   -0.3063    0.9254 H   0  0  0  0  0  0  0  0  0  0  0  0
   -5.3687    2.7667    0.5761 H   0  0  0  0  0  0  0  0  0  0  0  0
   -4.6195    1.7763    2.0742 H   0  0  0  0  0  0  0  0  0  0  0  0
   -1.6968    1.1490   -1.8615 H   0  0  0  0  0  0  0  0  0  0  0  0
   -0.6350    1.7788   -0.5929 H   0  0  0  0  0  0  0  0  0  0  0  0
   -0.0736   -0.5020   -2.5763 H   0  0  0  0  0  0  0  0  0  0  0  0
    0.7430    1.0672   -2.4067 H   0  0  0  0  0  0  0  0  0  0  0  0
    2.4326   -0.8460   -2.7164 H   0  0  0  0  0  0  0  0  0  0  0  0
    5.4366    2.1403   -0.8000 H   0  0  0  0  0  0  0  0  0  0  0  0
    3.6322    3.2901    2.1931 H   0  0  0  0  0  0  0  0  0  0  0  0
    1.4923    2.3203    3.0030 H   0  0  0  0  0  0  0  0  0  0  0  0
   -0.5930    0.7985    2.4333 H   0  0  0  0  0  0  0  0  0  0  0  0
    0.5688   -0.4509    2.6416 H   0  0  0  0  0  0  0  0  0  0  0  0
   -1.0623   -1.5691    1.3849 H   0  0  0  0  0  0  0  0  0  0  0  0
   -0.3965   -3.1471   -0.3656 H   0  0  0  0  0  0  0  0  0  0  0  0
    2.2040   -1.5066    1.5041 H   0  0  0  0  0  0  0  0  0  0  0  0
    1.1684   -2.9594    1.4931 H   0  0  0  0  0  0  0  0  0  0  0  0
    2.2823   -3.8482   -0.4533 H   0  0  0  0  0  0  0  0  0  0  0  0
    3.5615   -3.2196    0.6312 H   0  0  0  0  0  0  0  0  0  0  0  0
  2  1  1  6
  2  3  1  0
  3  4  1  0
  4  5  1  0
  5  6  1  0
  2  7  1  0
  7  8  1  0
  9  8  1  6
  9 10  1  0
 10 11  1  0
 11 12  1  0
 12 13  2  0
 13 14  1  0
 13 15  1  0
 15 16  2  0
 16 17  1  0
 17 18  1  0
 18 19  1  0
 19 20  1  0
 20 21  1  6
 20 22  1  0
 22 23  1  0
 23 24  1  0
 24 25  2  0
 17 26  2  0
 19  2  1  0
  6  4  1  0
 20  9  1  0
 26  9  1  0
 24 10  1  0
 26 12  1  0
  1 27  1  0
  1 28  1  0
  1 29  1  0
  3 30  1  0
  3 31  1  0
  4 32  1  0
  5 33  1  0
  5 34  1  0
  6 35  1  0
  6 36  1  0
  7 37  1  0
  7 38  1  0
  8 39  1  0
  8 40  1  0
 10 41  1  6
 14 42  1  0
 15 43  1  0
 16 44  1  0
 18 45  1  0
 18 46  1  0
 19 47  1  1
 21 48  1  0
 22 49  1  0
 22 50  1  0
 23 51  1  0
 23 52  1  0
M  CHG  1   2   1
M  END
$$$$
