
     RDKit          3D

 41 43  0  0  0  0  0  0  0  0999 V2000
   -5.6418    3.2469    1.2190 Cl  0  0  0  0  0  0  0  0  0  0  0  0
   -4.3656    2.2009    0.6241 C   0  0  0  0  0  0  0  0  0  0  0  0
   -3.3311    2.7319   -0.1523 C   0  0  0  0  0  0  0  0  0  0  0  0
   -2.3008    1.9033   -0.6137 C   0  0  0  0  0  0  0  0  0  0  0  0
   -2.3324    0.5222   -0.3431 C   0  0  0  0  0  0  0  0  0  0  0  0
   -1.3389   -0.2892   -0.9109 O   0  0  0  0  0  0  0  0  0  0  0  0
   -1.1848   -1.6883   -0.6907 C   0  0  0  0  0  0  0  0  0  0  0  0
   -0.0777   -2.2193   -1.6175 C   0  0  0  0  0  0  0  0  0  0  0  0
    0.8104   -3.2904   -0.9586 C   0  0  0  0  0  0  0  0  0  0  0  0
    1.8154   -2.7068    0.0507 C   0  0  0  0  0  0  0  0  0  0  0  0
    3.0181   -2.0267   -0.6262 C   0  0  0  0  0  0  0  0  0  0  0  0
    3.7592   -1.2697    0.3290 O   0  0  0  0  0  0  0  0  0  0  0  0
    3.2909   -0.0684    0.8746 C   0  0  0  0  0  0  0  0  0  0  0  0
    3.9445    0.4976    1.9714 C   0  0  0  0  0  0  0  0  0  0  0  0
    3.4404    1.6226    2.5431 N   0  0  0  0  0  0  0  0  0  0  0  0
    2.3188    2.2180    2.0588 C   0  0  0  0  0  0  0  0  0  0  0  0
    1.6841    1.6804    0.9333 C   0  0  0  0  0  0  0  0  0  0  0  0
    0.4819    2.2721    0.4278 N   0  0  0  0  0  0  0  0  0  0  0  0
    0.1403    2.2764   -0.9648 C   0  0  0  0  0  0  0  0  0  0  0  0
    1.0392    2.1632   -1.8407 O   0  0  0  0  0  0  0  0  0  0  0  0
   -1.2204    2.4656   -1.3676 N   0  0  0  0  0  0  0  0  0  0  0  0
    2.1839    0.5468    0.3716 N   0  0  0  0  0  0  0  0  0  0  0  0
   -3.3679   -0.0015    0.4532 C   0  0  0  0  0  0  0  0  0  0  0  0
   -4.3772    0.8376    0.9343 C   0  0  0  0  0  0  0  0  0  0  0  0
   -3.3140    3.7910   -0.3778 H   0  0  0  0  0  0  0  0  0  0  0  0
   -0.9477   -1.8592    0.3803 H   0  0  0  0  0  0  0  0  0  0  0  0
   -2.1342   -2.2164   -0.9263 H   0  0  0  0  0  0  0  0  0  0  0  0
    0.5470   -1.3795   -1.9858 H   0  0  0  0  0  0  0  0  0  0  0  0
   -0.5567   -2.6638   -2.5172 H   0  0  0  0  0  0  0  0  0  0  0  0
    1.3658   -3.8410   -1.7492 H   0  0  0  0  0  0  0  0  0  0  0  0
    0.1619   -4.0314   -0.4420 H   0  0  0  0  0  0  0  0  0  0  0  0
    1.3023   -1.9947    0.7286 H   0  0  0  0  0  0  0  0  0  0  0  0
    2.1995   -3.5334    0.6869 H   0  0  0  0  0  0  0  0  0  0  0  0
    3.6818   -2.8082   -1.0529 H   0  0  0  0  0  0  0  0  0  0  0  0
    2.7091   -1.3624   -1.4591 H   0  0  0  0  0  0  0  0  0  0  0  0
    4.8299    0.0323    2.3838 H   0  0  0  0  0  0  0  0  0  0  0  0
    1.9330    3.1084    2.5379 H   0  0  0  0  0  0  0  0  0  0  0  0
   -0.1537    2.7652    1.0950 H   0  0  0  0  0  0  0  0  0  0  0  0
   -1.4295    2.9981   -2.2416 H   0  0  0  0  0  0  0  0  0  0  0  0
   -3.4091   -1.0548    0.6940 H   0  0  0  0  0  0  0  0  0  0  0  0
   -5.1737    0.4249    1.5404 H   0  0  0  0  0  0  0  0  0  0  0  0
  1  2  1  0
  2  3  2  0
  3  4  1  0
  4  5  2  0
  5  6  1  0
  6  7  1  0
  7  8  1  0
  8  9  1  0
  9 10  1  0
 10 11  1  0
 11 12  1  0
 12 13  1  0
 13 14  1  0
 14 15  2  0
 15 16  1  0
 16 17  2  0
 17 18  1  0
 18 19  1  0
 19 20  2  0
 19 21  1  0
 17 22  1  0
  5 23  1  0
 23 24  2  0
 24  2  1  0
 21  4  1  0
 22 13  2  0
  3 25  1  0
  7 26  1  0
  7 27  1  0
  8 28  1  0
  8 29  1  0
  9 30  1  0
  9 31  1  0
 10 32  1  0
 10 33  1  0
 11 34  1  0
 11 35  1  0
 14 36  1  0
 16 37  1  0
 18 38  1  0
 21 39  1  0
 23 40  1  0
 24 41  1  0
M  END
$$$$
