
     RDKit          3D

 63 67  0  0  0  0  0  0  0  0999 V2000
    8.8348    0.5284   -1.5254 N   0  0  0  0  0  0  0  0  0  0  0  0
    7.9986   -0.3573   -0.7809 C   0  0  0  0  0  0  0  0  0  0  0  0
    6.6212   -0.1816   -0.7136 C   0  0  0  0  0  0  0  0  0  0  0  0
    5.8529    0.7810   -1.2573 N   0  0  0  0  0  0  0  0  0  0  0  0
    4.6048    0.4485   -0.8254 C   0  0  0  0  0  0  0  0  0  0  0  0
    4.5807   -0.6730   -0.0574 N   0  0  0  0  0  0  0  0  0  0  0  0
    3.4410   -1.2592    0.6525 C   0  0  2  0  0  0  0  0  0  0  0  0
    2.2759   -1.1382   -0.1394 O   0  0  0  0  0  0  0  0  0  0  0  0
    1.3195   -0.4215    0.6081 C   0  0  2  0  0  0  0  0  0  0  0  0
    0.5243    0.5017   -0.3192 C   0  0  0  0  0  0  0  0  0  0  0  0
   -0.4649    1.1737    0.4244 O   0  0  0  0  0  0  0  0  0  0  0  0
   -1.4678    2.0257   -0.6606 P   0  0  0  0  0  5  0  0  0  0  0  0
   -0.5321    3.0084   -1.6732 O   0  0  0  0  0  0  0  0  0  0  0  0
   -2.4158    2.9006    0.1286 O   0  0  0  0  0  0  0  0  0  0  0  0
   -2.3650    0.9320   -1.6174 O   0  0  0  0  0  0  0  0  0  0  0  0
   -3.0776    0.0326   -0.7853 C   0  0  2  0  0  0  0  0  0  0  0  0
   -2.7484   -1.4040   -1.1105 C   0  0  2  0  0  0  0  0  0  0  0  0
   -2.4471   -1.5566   -2.4765 O   0  0  0  0  0  0  0  0  0  0  0  0
   -4.0661   -2.1226   -0.7999 C   0  0  1  0  0  0  0  0  0  0  0  0
   -4.0197   -2.8191    0.5689 C   0  0  0  0  0  0  0  0  0  0  0  0
   -5.2528   -3.4218    0.8552 O   0  0  0  0  0  0  0  0  0  0  0  0
   -5.1231   -1.1827   -0.8109 O   0  0  0  0  0  0  0  0  0  0  0  0
   -4.5670    0.0844   -1.0905 C   0  0  1  0  0  0  0  0  0  0  0  0
   -5.2326    1.1369   -0.2951 N   0  0  0  0  0  0  0  0  0  0  0  0
   -5.5620    0.8921    1.0109 C   0  0  0  0  0  0  0  0  0  0  0  0
   -6.1559    1.8796    1.7915 C   0  0  0  0  0  0  0  0  0  0  0  0
   -6.3967    3.1245    1.2213 C   0  0  0  0  0  0  0  0  0  0  0  0
   -6.9332    4.0373    1.9042 O   0  0  0  0  0  0  0  0  0  0  0  0
   -6.0479    3.3545   -0.0712 N   0  0  0  0  0  0  0  0  0  0  0  0
   -5.4655    2.3824   -0.8269 C   0  0  0  0  0  0  0  0  0  0  0  0
   -5.1379    2.6451   -2.0170 O   0  0  0  0  0  0  0  0  0  0  0  0
    2.0471    0.3432    1.7052 C   0  0  1  0  0  0  0  0  0  0  0  0
    1.2222    0.5230    2.8275 O   0  0  0  0  0  0  0  0  0  0  0  0
    3.2264   -0.5539    1.9930 C   0  0  1  0  0  0  0  0  0  0  0  0
    2.9096   -1.5062    2.9785 O   0  0  0  0  0  0  0  0  0  0  0  0
    5.8659   -1.0413    0.0071 C   0  0  0  0  0  0  0  0  0  0  0  0
    6.3953   -2.0850    0.6903 N   0  0  0  0  0  0  0  0  0  0  0  0
    7.7488   -2.2694    0.6290 C   0  0  0  0  0  0  0  0  0  0  0  0
    8.5360   -1.4133   -0.0994 N   0  0  0  0  0  0  0  0  0  0  0  0
    9.8668    0.3735   -1.5561 H   0  0  0  0  0  0  0  0  0  0  0  0
    8.4310    1.3379   -2.0472 H   0  0  0  0  0  0  0  0  0  0  0  0
    3.7255    1.0328   -1.0610 H   0  0  0  0  0  0  0  0  0  0  0  0
    3.6391   -2.3423    0.8157 H   0  0  0  0  0  0  0  0  0  0  0  0
    0.6167   -1.1564    1.0642 H   0  0  0  0  0  0  0  0  0  0  0  0
    0.0701   -0.1323   -1.1133 H   0  0  0  0  0  0  0  0  0  0  0  0
    1.2191    1.2311   -0.7925 H   0  0  0  0  0  0  0  0  0  0  0  0
   -0.0213    3.5923   -1.0573 H   0  0  0  0  0  0  0  0  0  0  0  0
   -2.9256    0.1754    0.3132 H   0  0  0  0  0  0  0  0  0  0  0  0
   -1.9041   -1.7752   -0.4807 H   0  0  0  0  0  0  0  0  0  0  0  0
   -1.4740   -1.3898   -2.5782 H   0  0  0  0  0  0  0  0  0  0  0  0
   -4.2681   -2.8966   -1.5737 H   0  0  0  0  0  0  0  0  0  0  0  0
   -3.7986   -2.0738    1.3624 H   0  0  0  0  0  0  0  0  0  0  0  0
   -3.2084   -3.5827    0.5841 H   0  0  0  0  0  0  0  0  0  0  0  0
   -5.3030   -4.2434    0.3000 H   0  0  0  0  0  0  0  0  0  0  0  0
   -4.7158    0.2656   -2.1799 H   0  0  0  0  0  0  0  0  0  0  0  0
   -5.3612   -0.0716    1.4622 H   0  0  0  0  0  0  0  0  0  0  0  0
   -6.4183    1.6787    2.8230 H   0  0  0  0  0  0  0  0  0  0  0  0
   -6.2240    4.2964   -0.4906 H   0  0  0  0  0  0  0  0  0  0  0  0
    2.4112    1.3265    1.3222 H   0  0  0  0  0  0  0  0  0  0  0  0
    1.6950    1.1615    3.4226 H   0  0  0  0  0  0  0  0  0  0  0  0
    4.1210    0.0416    2.2957 H   0  0  0  0  0  0  0  0  0  0  0  0
    3.0989   -1.0838    3.8568 H   0  0  0  0  0  0  0  0  0  0  0  0
    8.2025   -3.0946    1.1603 H   0  0  0  0  0  0  0  0  0  0  0  0
  1  2  1  0
  2  3  2  0
  3  4  1  0
  4  5  2  0
  5  6  1  0
  6  7  1  0
  7  8  1  0
  8  9  1  0
  9 10  1  0
 10 11  1  0
 11 12  1  0
 12 13  1  0
 12 14  2  0
 12 15  1  0
 15 16  1  0
 16 17  1  0
 17 18  1  0
 17 19  1  0
 19 20  1  0
 20 21  1  0
 19 22  1  0
 22 23  1  0
 23 24  1  0
 24 25  1  0
 25 26  2  0
 26 27  1  0
 27 28  2  0
 27 29  1  0
 29 30  1  0
 30 31  2  0
  9 32  1  0
 32 33  1  0
 32 34  1  0
 34 35  1  0
  6 36  1  0
 36 37  2  0
 37 38  1  0
 38 39  2  0
 39  2  1  0
 36  3  1  0
 34  7  1  0
 23 16  1  0
 30 24  1  0
  1 40  1  0
  1 41  1  0
  5 42  1  0
  7 43  1  1
  9 44  1  1
 10 45  1  0
 10 46  1  0
 13 47  1  0
 16 48  1  1
 17 49  1  1
 18 50  1  0
 19 51  1  6
 20 52  1  0
 20 53  1  0
 21 54  1  0
 23 55  1  6
 25 56  1  0
 26 57  1  0
 29 58  1  0
 32 59  1  6
 33 60  1  0
 34 61  1  1
 35 62  1  0
 38 63  1  0
M  END
$$$$
