
     RDKit          3D

 71 73  0  0  0  0  0  0  0  0999 V2000
   -6.0079   -1.3566    0.1489 C   0  0  1  0  0  0  0  0  0  0  0  0
   -5.9004   -1.2925    1.5506 O   0  0  0  0  0  0  0  0  0  0  0  0
   -6.8161   -0.2970   -0.3409 O   0  0  0  0  0  0  0  0  0  0  0  0
   -6.2473    0.9742   -0.0604 C   0  0  2  0  0  0  0  0  0  0  0  0
   -7.2320    2.0637   -0.5147 C   0  0  0  0  0  0  0  0  0  0  0  0
   -7.4529    2.0047   -1.8992 O   0  0  0  0  0  0  0  0  0  0  0  0
   -4.8711    1.1316   -0.7576 C   0  0  1  0  0  0  0  0  0  0  0  0
   -4.2968    2.3854   -0.4795 O   0  0  0  0  0  0  0  0  0  0  0  0
   -3.9259   -0.0015   -0.3210 C   0  0  2  0  0  0  0  0  0  0  0  0
   -2.7447    0.0490   -1.1085 O   0  0  0  0  0  0  0  0  0  0  0  0
   -1.5855    0.2095   -0.3095 C   0  0  1  0  0  0  0  0  0  0  0  0
   -1.3851   -0.9326    0.5202 O   0  0  0  0  0  0  0  0  0  0  0  0
   -0.8161   -2.0085   -0.2060 C   0  0  2  0  0  0  0  0  0  0  0  0
   -0.9336   -3.2938    0.6272 C   0  0  0  0  0  0  0  0  0  0  0  0
   -0.2782   -3.1603    1.8610 O   0  0  0  0  0  0  0  0  0  0  0  0
    0.6643   -1.6991   -0.5805 C   0  0  1  0  0  0  0  0  0  0  0  0
    0.9763   -2.2993   -1.8123 O   0  0  0  0  0  0  0  0  0  0  0  0
    0.9069   -0.1736   -0.6857 C   0  0  2  0  0  0  0  0  0  0  0  0
    1.1992    0.3509    0.6024 O   0  0  0  0  0  0  0  0  0  0  0  0
    2.5945    0.4502    0.8131 C   0  0  1  0  0  0  0  0  0  0  0  0
    3.0878    1.5925    0.1332 O   0  0  0  0  0  0  0  0  0  0  0  0
    4.5126    1.6342    0.1220 C   0  0  2  0  0  0  0  0  0  0  0  0
    5.0559    0.8855   -1.1064 C   0  0  0  0  0  0  0  0  0  0  0  0
    6.4198    1.1899   -1.2804 O   0  0  0  0  0  0  0  0  0  0  0  0
    7.0016    0.3007   -2.6137 P   0  0  0  0  0  5  0  0  0  0  0  0
    6.1188    0.6877   -4.0055 O   0  0  0  0  0  0  0  0  0  0  0  0
    6.8683   -1.3590   -2.3081 O   0  0  0  0  0  0  0  0  0  0  0  0
    8.4560    0.6461   -2.8386 O   0  0  0  0  0  0  0  0  0  0  0  0
    5.1639    1.1518    1.4560 C   0  0  1  0  0  0  0  0  0  0  0  0
    6.3330    1.8857    1.7201 O   0  0  0  0  0  0  0  0  0  0  0  0
    4.1707    1.3521    2.6078 C   0  0  2  0  0  0  0  0  0  0  0  0
    4.7543    0.9359    3.8161 O   0  0  0  0  0  0  0  0  0  0  0  0
    2.8551    0.5822    2.3316 C   0  0  2  0  0  0  0  0  0  0  0  0
    2.9101   -0.6974    2.9112 O   0  0  0  0  0  0  0  0  0  0  0  0
   -0.3643    0.5059   -1.2280 C   0  0  2  0  0  0  0  0  0  0  0  0
   -0.1745    1.8885   -1.4075 O   0  0  0  0  0  0  0  0  0  0  0  0
   -4.6187   -1.3617   -0.5222 C   0  0  2  0  0  0  0  0  0  0  0  0
   -4.7753   -1.6366   -1.8923 O   0  0  0  0  0  0  0  0  0  0  0  0
   -6.5197   -2.3085   -0.1220 H   0  0  0  0  0  0  0  0  0  0  0  0
   -5.5582   -2.1737    1.8540 H   0  0  0  0  0  0  0  0  0  0  0  0
   -6.1215    1.1036    1.0393 H   0  0  0  0  0  0  0  0  0  0  0  0
   -6.8276    3.0664   -0.2605 H   0  0  0  0  0  0  0  0  0  0  0  0
   -8.1945    1.9519    0.0354 H   0  0  0  0  0  0  0  0  0  0  0  0
   -8.1001    1.2683   -2.0549 H   0  0  0  0  0  0  0  0  0  0  0  0
   -5.0169    1.0602   -1.8582 H   0  0  0  0  0  0  0  0  0  0  0  0
   -4.1831    2.4537    0.5047 H   0  0  0  0  0  0  0  0  0  0  0  0
   -3.7372    0.1130    0.7758 H   0  0  0  0  0  0  0  0  0  0  0  0
   -1.7138    1.0874    0.3650 H   0  0  0  0  0  0  0  0  0  0  0  0
   -1.4026   -2.1851   -1.1391 H   0  0  0  0  0  0  0  0  0  0  0  0
   -2.0079   -3.5421    0.7859 H   0  0  0  0  0  0  0  0  0  0  0  0
   -0.4801   -4.1417    0.0716 H   0  0  0  0  0  0  0  0  0  0  0  0
   -0.8886   -2.6524    2.4567 H   0  0  0  0  0  0  0  0  0  0  0  0
    1.3538   -2.0979    0.1998 H   0  0  0  0  0  0  0  0  0  0  0  0
    1.1036   -3.2680   -1.6372 H   0  0  0  0  0  0  0  0  0  0  0  0
    1.7248    0.0249   -1.4223 H   0  0  0  0  0  0  0  0  0  0  0  0
    3.1064   -0.4766    0.4543 H   0  0  0  0  0  0  0  0  0  0  0  0
    4.7815    2.7060   -0.0096 H   0  0  0  0  0  0  0  0  0  0  0  0
    4.9056   -0.2082   -0.9649 H   0  0  0  0  0  0  0  0  0  0  0  0
    4.4729    1.2188   -1.9948 H   0  0  0  0  0  0  0  0  0  0  0  0
    6.1910    1.6724   -4.0848 H   0  0  0  0  0  0  0  0  0  0  0  0
    7.3174   -1.4917   -1.4352 H   0  0  0  0  0  0  0  0  0  0  0  0
    5.4022    0.0617    1.3995 H   0  0  0  0  0  0  0  0  0  0  0  0
    7.0749    1.4309    1.2433 H   0  0  0  0  0  0  0  0  0  0  0  0
    3.9414    2.4433    2.6691 H   0  0  0  0  0  0  0  0  0  0  0  0
    4.1850    1.2966    4.5454 H   0  0  0  0  0  0  0  0  0  0  0  0
    2.0276    1.1638    2.8030 H   0  0  0  0  0  0  0  0  0  0  0  0
    1.9796   -1.0440    2.9284 H   0  0  0  0  0  0  0  0  0  0  0  0
   -0.5647    0.0721   -2.2336 H   0  0  0  0  0  0  0  0  0  0  0  0
    0.0444    2.2856   -0.5247 H   0  0  0  0  0  0  0  0  0  0  0  0
   -4.0011   -2.1593   -0.0469 H   0  0  0  0  0  0  0  0  0  0  0  0
   -3.9168   -2.0199   -2.2117 H   0  0  0  0  0  0  0  0  0  0  0  0
  1  2  1  0
  1  3  1  0
  3  4  1  0
  4  5  1  0
  5  6  1  0
  4  7  1  0
  7  8  1  0
  7  9  1  0
  9 10  1  0
 10 11  1  0
 11 12  1  0
 12 13  1  0
 13 14  1  0
 14 15  1  0
 13 16  1  0
 16 17  1  0
 16 18  1  0
 18 19  1  0
 19 20  1  0
 20 21  1  0
 21 22  1  0
 22 23  1  0
 23 24  1  0
 24 25  1  0
 25 26  1  0
 25 27  1  0
 25 28  2  0
 22 29  1  0
 29 30  1  0
 29 31  1  0
 31 32  1  0
 31 33  1  0
 33 34  1  0
 18 35  1  0
 35 36  1  0
  9 37  1  0
 37 38  1  0
 37  1  1  0
 35 11  1  0
 33 20  1  0
  1 39  1  1
  2 40  1  0
  4 41  1  1
  5 42  1  0
  5 43  1  0
  6 44  1  0
  7 45  1  6
  8 46  1  0
  9 47  1  1
 11 48  1  1
 13 49  1  6
 14 50  1  0
 14 51  1  0
 15 52  1  0
 16 53  1  1
 17 54  1  0
 18 55  1  6
 20 56  1  6
 22 57  1  6
 23 58  1  0
 23 59  1  0
 26 60  1  0
 27 61  1  0
 29 62  1  6
 30 63  1  0
 31 64  1  1
 32 65  1  0
 33 66  1  1
 34 67  1  0
 35 68  1  6
 36 69  1  0
 37 70  1  1
 38 71  1  0
M  END
$$$$
