
     RDKit          3D

 30 30  0  0  0  0  0  0  0  0999 V2000
   -3.1389   -0.2568   -1.8187 O   0  0  0  0  0  0  0  0  0  0  0  0
   -2.7499   -0.2588   -0.4596 C   0  0  0  0  0  0  0  0  0  0  0  0
   -1.2405    0.0405   -0.3901 C   0  0  0  0  0  0  0  0  0  0  0  0
   -0.4929   -0.1919    0.7844 C   0  0  0  0  0  0  0  0  0  0  0  0
    0.8699    0.1121    0.8450 C   0  0  0  0  0  0  0  0  0  0  0  0
    1.5278    0.6724   -0.2632 C   0  0  0  0  0  0  0  0  0  0  0  0
    2.9303    1.0064   -0.2376 N   0  0  0  0  0  0  0  0  0  0  0  0
    3.8741    0.6084    0.8096 C   0  0  0  0  0  0  0  0  0  0  0  0
    4.3070   -0.8485    0.6377 C   0  0  0  0  0  0  0  0  0  0  0  0
    4.8629   -1.0287   -0.6162 F   0  0  0  0  0  0  0  0  0  0  0  0
    5.2530   -1.1615    1.5964 F   0  0  0  0  0  0  0  0  0  0  0  0
    3.2283   -1.7009    0.7815 F   0  0  0  0  0  0  0  0  0  0  0  0
    0.7852    0.9433   -1.4193 C   0  0  0  0  0  0  0  0  0  0  0  0
   -0.5771    0.6407   -1.4823 C   0  0  0  0  0  0  0  0  0  0  0  0
   -3.5189    0.8641    0.2939 C   0  0  0  0  0  0  0  0  0  0  0  0
   -3.3104    2.0781   -0.3379 F   0  0  0  0  0  0  0  0  0  0  0  0
   -4.8790    0.6050    0.3034 F   0  0  0  0  0  0  0  0  0  0  0  0
   -3.0881    0.9740    1.6050 F   0  0  0  0  0  0  0  0  0  0  0  0
   -3.0811   -1.6689    0.1218 C   0  0  0  0  0  0  0  0  0  0  0  0
   -2.2002   -2.6081   -0.3871 F   0  0  0  0  0  0  0  0  0  0  0  0
   -3.0079   -1.6916    1.5030 F   0  0  0  0  0  0  0  0  0  0  0  0
   -4.3645   -2.0500   -0.2322 F   0  0  0  0  0  0  0  0  0  0  0  0
   -4.1296   -0.2829   -1.8745 H   0  0  0  0  0  0  0  0  0  0  0  0
   -0.9530   -0.5962    1.6719 H   0  0  0  0  0  0  0  0  0  0  0  0
    1.3936   -0.0868    1.7683 H   0  0  0  0  0  0  0  0  0  0  0  0
    3.3164    1.5742   -1.0263 H   0  0  0  0  0  0  0  0  0  0  0  0
    4.7803    1.2485    0.7349 H   0  0  0  0  0  0  0  0  0  0  0  0
    3.4458    0.7832    1.8179 H   0  0  0  0  0  0  0  0  0  0  0  0
    1.2642    1.3943   -2.2795 H   0  0  0  0  0  0  0  0  0  0  0  0
   -1.1066    0.8866   -2.3932 H   0  0  0  0  0  0  0  0  0  0  0  0
  1  2  1  0
  2  3  1  0
  3  4  2  0
  4  5  1  0
  5  6  2  0
  6  7  1  0
  7  8  1  0
  8  9  1  0
  9 10  1  0
  9 11  1  0
  9 12  1  0
  6 13  1  0
 13 14  2  0
  2 15  1  0
 15 16  1  0
 15 17  1  0
 15 18  1  0
  2 19  1  0
 19 20  1  0
 19 21  1  0
 19 22  1  0
 14  3  1  0
  1 23  1  0
  4 24  1  0
  5 25  1  0
  7 26  1  0
  8 27  1  0
  8 28  1  0
 13 29  1  0
 14 30  1  0
M  END
$$$$
