
     RDKit          3D

 15 14  0  0  0  0  0  0  0  0999 V2000
   -1.0928   -1.0598    0.0578 C   0  0  0  0  0  0  0  0  0  0  0  0
   -0.1062    0.0770   -0.2448 C   0  0  0  0  0  0  0  0  0  0  0  0
    1.3237   -0.4904   -0.3148 C   0  0  0  0  0  0  0  0  0  0  0  0
   -0.1998    1.1447    0.8612 C   0  0  0  0  0  0  0  0  0  0  0  0
   -0.4570    0.6423   -1.4852 O   0  0  0  0  0  0  0  0  0  0  0  0
   -0.8562   -1.5400    1.0321 H   0  0  0  0  0  0  0  0  0  0  0  0
   -2.1320   -0.6681    0.0990 H   0  0  0  0  0  0  0  0  0  0  0  0
   -1.0465   -1.8332   -0.7389 H   0  0  0  0  0  0  0  0  0  0  0  0
    2.0552    0.3202   -0.5205 H   0  0  0  0  0  0  0  0  0  0  0  0
    1.4002   -1.2422   -1.1295 H   0  0  0  0  0  0  0  0  0  0  0  0
    1.6007   -0.9771    0.6454 H   0  0  0  0  0  0  0  0  0  0  0  0
   -1.2239    1.5743    0.8960 H   0  0  0  0  0  0  0  0  0  0  0  0
    0.0349    0.7035    1.8540 H   0  0  0  0  0  0  0  0  0  0  0  0
    0.5171    1.9712    0.6668 H   0  0  0  0  0  0  0  0  0  0  0  0
    0.1827    1.3774   -1.6787 H   0  0  0  0  0  0  0  0  0  0  0  0
  1  2  1  0
  2  3  1  0
  2  4  1  0
  2  5  1  0
  1  6  1  0
  1  7  1  0
  1  8  1  0
  3  9  1  0
  3 10  1  0
  3 11  1  0
  4 12  1  0
  4 13  1  0
  4 14  1  0
  5 15  1  0
M  END
$$$$
