
     RDKit          3D

 31 33  0  0  0  0  0  0  0  0999 V2000
    0.4853    0.7983   -0.4803 C   0  0  0  0  0  0  0  0  0  0  0  0
    1.1850   -0.0788    0.5608 C   0  0  0  0  0  0  0  0  0  0  0  0
    2.6046   -0.3580    0.1477 C   0  0  0  0  0  0  0  0  0  0  0  0
    3.6383    0.5117    0.5252 C   0  0  0  0  0  0  0  0  0  0  0  0
    4.9444    0.2516    0.1031 C   0  0  0  0  0  0  0  0  0  0  0  0
    5.2067   -0.8310   -0.6764 N   0  0  0  0  0  0  0  0  0  0  0  0
    4.2221   -1.6833   -1.0671 C   0  0  0  0  0  0  0  0  0  0  0  0
    2.9022   -1.4602   -0.6672 C   0  0  0  0  0  0  0  0  0  0  0  0
   -0.9356    1.0583   -0.0796 C   0  0  0  0  0  0  0  0  0  0  0  0
   -1.4087    2.1531    0.6374 C   0  0  0  0  0  0  0  0  0  0  0  0
   -2.7324    2.0196    0.8828 N   0  0  0  0  0  0  0  0  0  0  0  0
   -3.0949    0.8448    0.3387 C   0  0  0  0  0  0  0  0  0  0  0  0
   -4.3613    0.2616    0.3523 C   0  0  0  0  0  0  0  0  0  0  0  0
   -4.5135   -0.9942   -0.2638 C   0  0  0  0  0  0  0  0  0  0  0  0
   -3.4085   -1.6334   -0.8691 C   0  0  0  0  0  0  0  0  0  0  0  0
   -2.1415   -1.0220   -0.8658 C   0  0  0  0  0  0  0  0  0  0  0  0
   -2.0235    0.2256   -0.2527 C   0  0  0  0  0  0  0  0  0  0  0  0
    1.0226    1.7669   -0.5777 H   0  0  0  0  0  0  0  0  0  0  0  0
    0.5004    0.2962   -1.4720 H   0  0  0  0  0  0  0  0  0  0  0  0
    1.1728    0.4317    1.5493 H   0  0  0  0  0  0  0  0  0  0  0  0
    0.6335   -1.0381    0.6771 H   0  0  0  0  0  0  0  0  0  0  0  0
    3.4346    1.3812    1.1378 H   0  0  0  0  0  0  0  0  0  0  0  0
    5.7497    0.9134    0.3926 H   0  0  0  0  0  0  0  0  0  0  0  0
    4.4631   -2.5331   -1.6916 H   0  0  0  0  0  0  0  0  0  0  0  0
    2.1209   -2.1372   -0.9900 H   0  0  0  0  0  0  0  0  0  0  0  0
   -0.8144    2.9940    0.9704 H   0  0  0  0  0  0  0  0  0  0  0  0
   -3.3420    2.6888    1.4035 H   0  0  0  0  0  0  0  0  0  0  0  0
   -5.2004    0.7562    0.8242 H   0  0  0  0  0  0  0  0  0  0  0  0
   -5.4830   -1.4750   -0.2710 H   0  0  0  0  0  0  0  0  0  0  0  0
   -3.5368   -2.6008   -1.3369 H   0  0  0  0  0  0  0  0  0  0  0  0
   -1.2895   -1.5079   -1.3234 H   0  0  0  0  0  0  0  0  0  0  0  0
  1  2  1  0
  2  3  1  0
  3  4  2  0
  4  5  1  0
  5  6  2  0
  6  7  1  0
  7  8  2  0
  1  9  1  0
  9 10  2  0
 10 11  1  0
 11 12  1  0
 12 13  2  0
 13 14  1  0
 14 15  2  0
 15 16  1  0
 16 17  2  0
  8  3  1  0
 17  9  1  0
 17 12  1  0
  1 18  1  0
  1 19  1  0
  2 20  1  0
  2 21  1  0
  4 22  1  0
  5 23  1  0
  7 24  1  0
  8 25  1  0
 10 26  1  0
 11 27  1  0
 13 28  1  0
 14 29  1  0
 15 30  1  0
 16 31  1  0
M  END
$$$$
