
     RDKit          3D

 50 52  0  0  0  0  0  0  0  0999 V2000
    6.3361    2.0981   -0.9872 H   0  0  0  0  0  0  0  0  0  0  0  0
    6.6584    1.2328   -0.3703 C   0  0  0  0  0  0  0  0  0  0  0  0
    7.7121    0.9922   -0.6195 H   0  0  0  0  0  0  0  0  0  0  0  0
    6.5979    1.4876    0.7089 H   0  0  0  0  0  0  0  0  0  0  0  0
    5.8434    0.0997   -0.6523 O   0  0  0  0  0  0  0  0  0  0  0  0
    4.4534    0.0504   -0.4600 C   0  0  0  0  0  0  0  0  0  0  0  0
    3.7301    1.1465    0.0453 C   0  0  0  0  0  0  0  0  0  0  0  0
    2.3409    1.0719    0.2178 C   0  0  0  0  0  0  0  0  0  0  0  0
    1.6636   -0.1259   -0.0925 C   0  0  0  0  0  0  0  0  0  0  0  0
    2.3874   -1.2176   -0.5967 C   0  0  0  0  0  0  0  0  0  0  0  0
    3.7795   -1.1355   -0.7828 C   0  0  0  0  0  0  0  0  0  0  0  0
    4.5286   -2.2109   -1.2867 O   0  0  0  0  0  0  0  0  0  0  0  0
    3.9817   -3.4718   -1.6593 C   0  0  0  0  0  0  0  0  0  0  0  0
    4.7988   -4.1280   -2.0226 H   0  0  0  0  0  0  0  0  0  0  0  0
    3.5020   -3.9545   -0.7817 H   0  0  0  0  0  0  0  0  0  0  0  0
    3.2415   -3.3405   -2.4767 H   0  0  0  0  0  0  0  0  0  0  0  0
    0.1561   -0.2261    0.0391 C   0  0  2  0  0  0  0  0  0  0  0  0
   -0.5033   -0.1610   -1.3573 C   0  0  0  0  0  0  0  0  0  0  0  0
   -1.9953   -0.0425   -1.2491 C   0  0  0  0  0  0  0  0  0  0  0  0
   -2.7036   -0.5887   -2.0824 O   0  0  0  0  0  0  0  0  0  0  0  0
   -2.5878    0.8809   -0.2093 C   0  0  1  0  0  0  0  0  0  0  0  0
   -4.1214    0.7224   -0.0422 C   0  0  0  0  0  0  0  0  0  0  0  0
   -4.5846   -0.6794    0.4548 C   0  0  0  0  0  0  0  0  0  0  0  0
   -5.7416   -1.2116   -0.4020 C   0  0  0  0  0  0  0  0  0  0  0  0
   -5.0149   -0.6352    1.9292 C   0  0  0  0  0  0  0  0  0  0  0  0
   -1.8321    0.7240    1.1278 C   0  0  0  0  0  0  0  0  0  0  0  0
   -0.3657    0.8067    0.9668 N   0  0  0  0  0  0  0  0  0  0  0  0
    0.1069    2.1624    0.6317 C   0  0  0  0  0  0  0  0  0  0  0  0
    1.6184    2.2407    0.8404 C   0  0  0  0  0  0  0  0  0  0  0  0
    4.2411    2.0619    0.3132 H   0  0  0  0  0  0  0  0  0  0  0  0
    1.8560   -2.1263   -0.8462 H   0  0  0  0  0  0  0  0  0  0  0  0
   -0.0751   -1.2234    0.4783 H   0  0  0  0  0  0  0  0  0  0  0  0
   -0.1182    0.7048   -1.9369 H   0  0  0  0  0  0  0  0  0  0  0  0
   -0.2468   -1.0822   -1.9256 H   0  0  0  0  0  0  0  0  0  0  0  0
   -2.4228    1.9185   -0.5718 H   0  0  0  0  0  0  0  0  0  0  0  0
   -4.4865    1.5174    0.6456 H   0  0  0  0  0  0  0  0  0  0  0  0
   -4.5886    0.9600   -1.0242 H   0  0  0  0  0  0  0  0  0  0  0  0
   -3.7539   -1.4130    0.3658 H   0  0  0  0  0  0  0  0  0  0  0  0
   -6.6131   -0.5235   -0.3538 H   0  0  0  0  0  0  0  0  0  0  0  0
   -6.0560   -2.2157   -0.0451 H   0  0  0  0  0  0  0  0  0  0  0  0
   -5.4198   -1.3099   -1.4607 H   0  0  0  0  0  0  0  0  0  0  0  0
   -5.9036    0.0196    2.0576 H   0  0  0  0  0  0  0  0  0  0  0  0
   -4.1966   -0.2451    2.5682 H   0  0  0  0  0  0  0  0  0  0  0  0
   -5.2707   -1.6565    2.2839 H   0  0  0  0  0  0  0  0  0  0  0  0
   -2.1793    1.4978    1.8474 H   0  0  0  0  0  0  0  0  0  0  0  0
   -2.0689   -0.2592    1.5854 H   0  0  0  0  0  0  0  0  0  0  0  0
   -0.3730    2.9148    1.2957 H   0  0  0  0  0  0  0  0  0  0  0  0
   -0.1371    2.4333   -0.4174 H   0  0  0  0  0  0  0  0  0  0  0  0
    1.9926    3.1945    0.4087 H   0  0  0  0  0  0  0  0  0  0  0  0
    1.8335    2.2455    1.9310 H   0  0  0  0  0  0  0  0  0  0  0  0
  1  2  1  0
  2  3  1  0
  2  4  1  0
  2  5  1  0
  5  6  1  0
  6  7  2  0
  7  8  1  0
  8  9  2  0
  9 10  1  0
 10 11  2  0
 11 12  1  0
 12 13  1  0
 13 14  1  0
 13 15  1  0
 13 16  1  0
  9 17  1  0
 17 18  1  0
 18 19  1  0
 19 20  2  0
 19 21  1  0
 21 22  1  0
 22 23  1  0
 23 24  1  0
 23 25  1  0
 21 26  1  0
 26 27  1  0
 27 28  1  0
 28 29  1  0
 11  6  1  0
 27 17  1  0
 29  8  1  0
  7 30  1  0
 10 31  1  0
 17 32  1  1
 18 33  1  0
 18 34  1  0
 21 35  1  6
 22 36  1  0
 22 37  1  0
 23 38  1  0
 24 39  1  0
 24 40  1  0
 24 41  1  0
 25 42  1  0
 25 43  1  0
 25 44  1  0
 26 45  1  0
 26 46  1  0
 28 47  1  0
 28 48  1  0
 29 49  1  0
 29 50  1  0
M  ISO  6   1   2   3   2   4   2  14   2  15   2  16   2
M  END
$$$$
