
     RDKit          3D

 31 31  0  0  0  0  0  0  0  0999 V2000
   -1.4624   -0.0530   -0.1829 N   0  0  0  0  0  0  0  0  0  0  0  0
   -1.5530    1.0116    0.7753 C   0  0  0  0  0  0  0  0  0  0  0  0
   -2.3143    2.2516    0.4386 C   0  0  0  0  0  0  0  0  0  0  0  0
   -0.9610    0.9289    1.8853 O   0  0  0  0  0  0  0  0  0  0  0  0
   -0.6016   -1.2261    0.0078 C   0  0  2  0  0  0  0  0  0  0  0  0
    0.6662   -1.0983   -0.8593 C   0  0  0  0  0  0  0  0  0  0  0  0
    1.4858    0.0989   -0.4505 C   0  0  0  0  0  0  0  0  0  0  0  0
    2.3540    0.0180    0.6506 C   0  0  0  0  0  0  0  0  0  0  0  0
    3.0768    1.1417    1.0623 C   0  0  0  0  0  0  0  0  0  0  0  0
    2.9324    2.3561    0.3834 C   0  0  0  0  0  0  0  0  0  0  0  0
    3.8352    3.7665    0.9053 Cl  0  0  0  0  0  0  0  0  0  0  0  0
    2.0627    2.4462   -0.7082 C   0  0  0  0  0  0  0  0  0  0  0  0
    1.3400    1.3239   -1.1233 C   0  0  0  0  0  0  0  0  0  0  0  0
   -1.4366   -2.5815   -0.3406 B   0  0  0  0  0  4  0  0  0  0  0  0
   -0.6089   -3.7793   -0.0673 O   0  0  0  0  0  0  0  0  0  0  0  0
   -2.6758   -2.6339    0.4693 O   0  0  0  0  0  0  0  0  0  0  0  0
   -1.8041   -2.5713   -1.7709 O   0  0  0  0  0  0  0  0  0  0  0  0
   -1.9211    0.0830   -1.1130 H   0  0  0  0  0  0  0  0  0  0  0  0
   -1.7321    2.8538   -0.2896 H   0  0  0  0  0  0  0  0  0  0  0  0
   -2.4938    2.8586    1.3514 H   0  0  0  0  0  0  0  0  0  0  0  0
   -3.2935    1.9817   -0.0091 H   0  0  0  0  0  0  0  0  0  0  0  0
   -0.2919   -1.3073    1.0730 H   0  0  0  0  0  0  0  0  0  0  0  0
    0.3880   -1.0173   -1.9335 H   0  0  0  0  0  0  0  0  0  0  0  0
    1.2911   -2.0125   -0.7540 H   0  0  0  0  0  0  0  0  0  0  0  0
    2.4649   -0.9130    1.1928 H   0  0  0  0  0  0  0  0  0  0  0  0
    3.7440    1.0688    1.9117 H   0  0  0  0  0  0  0  0  0  0  0  0
    1.9422    3.3857   -1.2323 H   0  0  0  0  0  0  0  0  0  0  0  0
    0.6594    1.4120   -1.9610 H   0  0  0  0  0  0  0  0  0  0  0  0
   -0.3873   -3.7621    0.8990 H   0  0  0  0  0  0  0  0  0  0  0  0
   -2.3983   -2.6211    1.4212 H   0  0  0  0  0  0  0  0  0  0  0  0
   -2.3072   -3.4105   -1.9316 H   0  0  0  0  0  0  0  0  0  0  0  0
  1  2  1  0
  2  3  1  0
  2  4  2  0
  1  5  1  0
  5  6  1  0
  6  7  1  0
  7  8  2  0
  8  9  1  0
  9 10  2  0
 10 11  1  0
 10 12  1  0
 12 13  2  0
  5 14  1  0
 14 15  1  0
 14 16  1  0
 14 17  1  0
 13  7  1  0
  1 18  1  0
  3 19  1  0
  3 20  1  0
  3 21  1  0
  5 22  1  1
  6 23  1  0
  6 24  1  0
  8 25  1  0
  9 26  1  0
 12 27  1  0
 13 28  1  0
 15 29  1  0
 16 30  1  0
 17 31  1  0
M  CHG  1  14  -1
M  END
$$$$
