
     RDKit          3D

 33 35  0  0  0  0  0  0  0  0999 V2000
    2.1514    2.3958   -1.2623 N   0  0  0  0  0  0  0  0  0  0  0  0
    2.4664    1.1554   -0.6302 C   0  0  0  0  0  0  0  0  0  0  0  0
    1.6738    0.0717   -0.8410 N   0  0  0  0  0  0  0  0  0  0  0  0
    1.9421   -1.1248   -0.2540 C   0  0  0  0  0  0  0  0  0  0  0  0
    1.0066   -2.2819   -0.4662 C   0  0  0  0  0  0  0  0  0  0  0  0
   -0.0125   -2.4027    0.6748 C   0  0  0  0  0  0  0  0  0  0  0  0
   -0.9116   -1.1951    0.7493 C   0  0  0  0  0  0  0  0  0  0  0  0
   -2.0142   -1.0807   -0.1266 C   0  0  0  0  0  0  0  0  0  0  0  0
   -2.7878    0.0762   -0.0585 C   0  0  0  0  0  0  0  0  0  0  0  0
   -2.4995    1.0854    0.8201 C   0  0  0  0  0  0  0  0  0  0  0  0
   -3.4375    2.0768    0.6320 C   0  0  0  0  0  0  0  0  0  0  0  0
   -4.2681    1.6035   -0.3789 C   0  0  0  0  0  0  0  0  0  0  0  0
   -3.8667    0.3813   -0.7977 N   0  0  0  0  0  0  0  0  0  0  0  0
   -1.4186    1.0138    1.6940 C   0  0  0  0  0  0  0  0  0  0  0  0
   -0.6169   -0.1408    1.6529 C   0  0  0  0  0  0  0  0  0  0  0  0
    3.0454   -1.2420    0.5974 C   0  0  0  0  0  0  0  0  0  0  0  0
    3.8508   -0.1213    0.8041 C   0  0  0  0  0  0  0  0  0  0  0  0
    4.8531   -0.1991    1.5635 O   0  0  0  0  0  0  0  0  0  0  0  0
    3.5510    1.0549    0.1882 N   0  0  0  0  0  0  0  0  0  0  0  0
    2.7476    3.2393   -1.1099 H   0  0  0  0  0  0  0  0  0  0  0  0
    1.3155    2.4730   -1.8833 H   0  0  0  0  0  0  0  0  0  0  0  0
    1.5923   -3.2247   -0.5303 H   0  0  0  0  0  0  0  0  0  0  0  0
    0.4733   -2.1617   -1.4347 H   0  0  0  0  0  0  0  0  0  0  0  0
    0.5201   -2.5508    1.6400 H   0  0  0  0  0  0  0  0  0  0  0  0
   -0.6317   -3.3109    0.5081 H   0  0  0  0  0  0  0  0  0  0  0  0
   -2.2515   -1.8622   -0.8378 H   0  0  0  0  0  0  0  0  0  0  0  0
   -3.5121    3.0213    1.1544 H   0  0  0  0  0  0  0  0  0  0  0  0
   -5.1210    2.1303   -0.7860 H   0  0  0  0  0  0  0  0  0  0  0  0
   -4.3071   -0.2011   -1.5443 H   0  0  0  0  0  0  0  0  0  0  0  0
   -1.1968    1.8221    2.3788 H   0  0  0  0  0  0  0  0  0  0  0  0
    0.2383   -0.2117    2.3134 H   0  0  0  0  0  0  0  0  0  0  0  0
    3.2679   -2.1800    1.0924 H   0  0  0  0  0  0  0  0  0  0  0  0
    4.1581    1.8906    0.3497 H   0  0  0  0  0  0  0  0  0  0  0  0
  1  2  1  0
  2  3  2  0
  3  4  1  0
  4  5  1  0
  5  6  1  0
  6  7  1  0
  7  8  2  0
  8  9  1  0
  9 10  2  0
 10 11  1  0
 11 12  2  0
 12 13  1  0
 10 14  1  0
 14 15  2  0
  4 16  2  0
 16 17  1  0
 17 18  2  0
 17 19  1  0
 19  2  1  0
 15  7  1  0
 13  9  1  0
  1 20  1  0
  1 21  1  0
  5 22  1  0
  5 23  1  0
  6 24  1  0
  6 25  1  0
  8 26  1  0
 11 27  1  0
 12 28  1  0
 13 29  1  0
 14 30  1  0
 15 31  1  0
 16 32  1  0
 19 33  1  0
M  END
$$$$
