
     RDKit          3D

 18 17  0  0  0  0  0  0  0  0999 V2000
   -0.6278   -0.6242   -0.1038 C   0  0  2  0  0  0  0  0  0  0  0  0
   -0.9983   -0.9959    1.2638 N   0  0  0  0  0  0  0  0  0  0  0  0
    0.3141    0.5907   -0.0999 C   0  0  0  0  0  0  0  0  0  0  0  0
    1.9184    0.2004    0.6775 P   0  0  0  0  0  5  0  0  0  0  0  0
    2.6235   -1.1271   -0.0993 O   0  0  0  0  0  0  0  0  0  0  0  0
    2.9469    1.5371    0.5387 O   0  0  0  0  0  0  0  0  0  0  0  0
    1.7178   -0.1251    2.1403 O   0  0  0  0  0  0  0  0  0  0  0  0
   -1.8578   -0.3256   -0.9196 C   0  0  0  0  0  0  0  0  0  0  0  0
   -2.6887    0.7352   -0.5693 O   0  0  0  0  0  0  0  0  0  0  0  0
   -2.1401   -1.0392   -1.9192 O   0  0  0  0  0  0  0  0  0  0  0  0
   -0.0926   -1.4814   -0.5711 H   0  0  0  0  0  0  0  0  0  0  0  0
   -1.5680   -0.2304    1.6937 H   0  0  0  0  0  0  0  0  0  0  0  0
   -1.5994   -1.8516    1.2273 H   0  0  0  0  0  0  0  0  0  0  0  0
   -0.1515    1.4416    0.4425 H   0  0  0  0  0  0  0  0  0  0  0  0
    0.5120    0.9113   -1.1454 H   0  0  0  0  0  0  0  0  0  0  0  0
    2.7436   -0.8351   -1.0380 H   0  0  0  0  0  0  0  0  0  0  0  0
    2.4677    2.2746    0.9943 H   0  0  0  0  0  0  0  0  0  0  0  0
   -3.5196    0.9446   -1.1096 H   0  0  0  0  0  0  0  0  0  0  0  0
  1  2  1  0
  1  3  1  0
  3  4  1  0
  4  5  1  0
  4  6  1  0
  4  7  2  0
  1  8  1  0
  8  9  1  0
  8 10  2  0
  1 11  1  6
  2 12  1  0
  2 13  1  0
  3 14  1  0
  3 15  1  0
  5 16  1  0
  6 17  1  0
  9 18  1  0
M  END
$$$$
