
     RDKit          3D

 30 30  0  0  0  0  0  0  0  0999 V2000
   -2.0120    1.4769    0.0628 N   0  0  0  0  0  0  0  0  0  0  0  0
   -2.1068    0.0539   -0.2770 C   0  0  2  0  0  0  0  0  0  0  0  0
   -3.4134   -0.5551    0.2730 C   0  0  0  0  0  0  0  0  0  0  0  0
   -4.5312    0.0750   -0.2946 O   0  0  0  0  0  0  0  0  0  0  0  0
   -0.8795   -0.7111    0.2732 C   0  0  0  0  0  0  0  0  0  0  0  0
    0.4227   -0.4637   -0.5325 C   0  0  0  0  0  0  0  0  0  0  0  0
    0.9035    1.0096   -0.4171 C   0  0  0  0  0  0  0  0  0  0  0  0
    2.4135    1.1377   -0.6423 C   0  0  0  0  0  0  0  0  0  0  0  0
    3.2109    0.3564    0.4203 C   0  0  0  0  0  0  0  0  0  0  0  0
    2.4712   -0.8910    0.9435 C   0  0  0  0  0  0  0  0  0  0  0  0
    1.5302   -1.4743   -0.1164 C   0  0  0  0  0  0  0  0  0  0  0  0
   -2.1891    1.6074    1.0858 H   0  0  0  0  0  0  0  0  0  0  0  0
   -2.7475    2.0046   -0.4605 H   0  0  0  0  0  0  0  0  0  0  0  0
   -2.1234   -0.0516   -1.3852 H   0  0  0  0  0  0  0  0  0  0  0  0
   -3.4388   -0.4884    1.3861 H   0  0  0  0  0  0  0  0  0  0  0  0
   -3.4588   -1.6323    0.0051 H   0  0  0  0  0  0  0  0  0  0  0  0
   -4.7718    0.8300    0.3033 H   0  0  0  0  0  0  0  0  0  0  0  0
   -0.7208   -0.4584    1.3449 H   0  0  0  0  0  0  0  0  0  0  0  0
   -1.1066   -1.7991    0.2272 H   0  0  0  0  0  0  0  0  0  0  0  0
    0.1976   -0.6655   -1.6040 H   0  0  0  0  0  0  0  0  0  0  0  0
    0.6695    1.4194    0.5905 H   0  0  0  0  0  0  0  0  0  0  0  0
    0.3747    1.6331   -1.1702 H   0  0  0  0  0  0  0  0  0  0  0  0
    2.7060    2.2096   -0.6114 H   0  0  0  0  0  0  0  0  0  0  0  0
    2.6623    0.7506   -1.6551 H   0  0  0  0  0  0  0  0  0  0  0  0
    4.1847    0.0506   -0.0207 H   0  0  0  0  0  0  0  0  0  0  0  0
    3.4329    1.0249    1.2806 H   0  0  0  0  0  0  0  0  0  0  0  0
    1.8776   -0.6219    1.8448 H   0  0  0  0  0  0  0  0  0  0  0  0
    3.2128   -1.6608    1.2481 H   0  0  0  0  0  0  0  0  0  0  0  0
    1.0950   -2.4244    0.2623 H   0  0  0  0  0  0  0  0  0  0  0  0
    2.1348   -1.7424   -1.0112 H   0  0  0  0  0  0  0  0  0  0  0  0
  1  2  1  0
  2  3  1  0
  3  4  1  0
  2  5  1  0
  5  6  1  0
  6  7  1  0
  7  8  1  0
  8  9  1  0
  9 10  1  0
 10 11  1  0
 11  6  1  0
  1 12  1  0
  1 13  1  0
  2 14  1  6
  3 15  1  0
  3 16  1  0
  4 17  1  0
  5 18  1  0
  5 19  1  0
  6 20  1  0
  7 21  1  0
  7 22  1  0
  8 23  1  0
  8 24  1  0
  9 25  1  0
  9 26  1  0
 10 27  1  0
 10 28  1  0
 11 29  1  0
 11 30  1  0
M  END
$$$$
