
     RDKit          3D

 29 31  0  0  0  0  0  0  0  0999 V2000
   -0.6313    0.6094   -1.5095 C   0  0  2  0  0  0  0  0  0  0  0  0
    0.4243    1.5407   -2.0127 C   0  0  0  0  0  0  0  0  0  0  0  0
    0.3859    2.6473   -1.2929 C   0  0  0  0  0  0  0  0  0  0  0  0
    1.5345    4.1462   -1.5517 Br  0  0  0  0  0  0  0  0  0  0  0  0
   -0.6229    2.5985   -0.2964 N   0  0  0  0  0  0  0  0  0  0  0  0
   -1.1906    1.4402   -0.3903 C   0  0  0  0  0  0  0  0  0  0  0  0
   -2.3567    1.0714    0.4231 C   0  0  0  0  0  0  0  0  0  0  0  0
   -3.0138    1.9727    1.0092 O   0  0  0  0  0  0  0  0  0  0  0  0
   -2.7809   -0.2900    0.5349 N   0  0  0  0  0  0  0  0  0  0  0  0
   -1.8312   -1.3884    0.6955 C   0  0  0  0  0  0  0  0  0  0  0  0
   -1.1449   -1.7491   -0.6293 C   0  0  0  0  0  0  0  0  0  0  0  0
   -0.0497   -0.7602   -1.0825 C   0  0  2  0  0  0  0  0  0  0  0  0
    1.0879   -0.6812   -0.0854 C   0  0  0  0  0  0  0  0  0  0  0  0
    1.1591    0.1546    0.8973 N   0  0  0  0  0  0  0  0  0  0  0  0
    2.3596   -0.1932    1.5997 C   0  0  0  0  0  0  0  0  0  0  0  0
    2.8023    0.5135    2.7552 N   0  0  0  0  0  0  0  0  0  0  0  0
    3.0121   -1.2032    1.1121 N   0  0  0  0  0  0  0  0  0  0  0  0
    2.2193   -1.5762    0.0004 C   0  0  0  0  0  0  0  0  0  0  0  0
    2.4772   -2.5392   -0.7681 O   0  0  0  0  0  0  0  0  0  0  0  0
   -1.4030    0.4744   -2.2987 H   0  0  0  0  0  0  0  0  0  0  0  0
    1.1012    1.3560   -2.8366 H   0  0  0  0  0  0  0  0  0  0  0  0
   -3.7812   -0.4725    0.7769 H   0  0  0  0  0  0  0  0  0  0  0  0
   -1.0912   -1.1397    1.4842 H   0  0  0  0  0  0  0  0  0  0  0  0
   -2.3848   -2.2850    1.0504 H   0  0  0  0  0  0  0  0  0  0  0  0
   -0.6791   -2.7527   -0.5134 H   0  0  0  0  0  0  0  0  0  0  0  0
   -1.9144   -1.8470   -1.4263 H   0  0  0  0  0  0  0  0  0  0  0  0
    0.3829   -1.1993   -2.0094 H   0  0  0  0  0  0  0  0  0  0  0  0
    2.2492    1.3203    3.1194 H   0  0  0  0  0  0  0  0  0  0  0  0
    3.6804    0.2317    3.2447 H   0  0  0  0  0  0  0  0  0  0  0  0
  1  2  1  0
  2  3  2  0
  3  4  1  0
  3  5  1  0
  5  6  2  0
  6  7  1  0
  7  8  2  0
  7  9  1  0
  9 10  1  0
 10 11  1  0
 11 12  1  0
 12 13  1  0
 13 14  2  0
 14 15  1  0
 15 16  1  0
 15 17  2  0
 17 18  1  0
 18 19  2  0
  6  1  1  0
 18 13  1  0
 12  1  1  0
  1 20  1  6
  2 21  1  0
  9 22  1  0
 10 23  1  0
 10 24  1  0
 11 25  1  0
 11 26  1  0
 12 27  1  6
 16 28  1  0
 16 29  1  0
M  END
$$$$
