
     RDKit          3D

 80 81  0  0  0  0  0  0  0  0999 V2000
   -2.3769   -0.9381   -1.1638 C   0  0  2  0  0  0  0  0  0  0  0  0
   -3.8437   -0.9781   -1.6433 C   0  0  0  0  0  0  0  0  0  0  0  0
   -4.5296   -2.2475   -1.2064 C   0  0  0  0  0  0  0  0  0  0  0  0
   -4.3657   -3.4314   -1.9449 C   0  0  0  0  0  0  0  0  0  0  0  0
   -4.9707   -4.6174   -1.5175 C   0  0  0  0  0  0  0  0  0  0  0  0
   -5.7355   -4.6317   -0.3478 C   0  0  0  0  0  0  0  0  0  0  0  0
   -5.8943   -3.4606    0.3982 C   0  0  0  0  0  0  0  0  0  0  0  0
   -5.2916   -2.2724   -0.0258 C   0  0  0  0  0  0  0  0  0  0  0  0
   -2.2859   -1.1122    0.2938 N   0  0  0  0  0  0  0  0  0  0  0  0
   -2.4990   -0.2641    1.2637 C   0  0  0  0  0  0  0  0  0  0  0  0
   -2.3371   -0.7115    2.5739 O   0  0  0  0  0  0  0  0  0  0  0  0
   -2.8480    1.1870    1.0265 C   0  0  0  0  0  0  0  0  0  0  0  0
   -3.3595    1.8769    2.2958 C   0  0  0  0  0  0  0  0  0  0  0  0
   -3.7171    3.3008    2.0081 C   0  0  0  0  0  0  0  0  0  0  0  0
   -2.7369    4.2865    2.0670 O   0  0  0  0  0  0  0  0  0  0  0  0
   -4.8939    3.6014    1.6724 O   0  0  0  0  0  0  0  0  0  0  0  0
   -1.6308    0.2912   -1.6528 C   0  0  0  0  0  0  0  0  0  0  0  0
   -2.3614    1.3800   -2.1258 O   0  0  0  0  0  0  0  0  0  0  0  0
   -0.3287    0.3744   -1.6521 N   0  0  0  0  0  0  0  0  0  0  0  0
    0.6398   -0.6286   -1.1980 C   0  0  1  0  0  0  0  0  0  0  0  0
    2.0221   -0.3163   -1.8113 C   0  0  0  0  0  0  0  0  0  0  0  0
    2.5462    1.0563   -1.4553 C   0  0  0  0  0  0  0  0  0  0  0  0
    2.1190    2.1859   -2.1677 C   0  0  0  0  0  0  0  0  0  0  0  0
    2.5716    3.4742   -1.8265 C   0  0  0  0  0  0  0  0  0  0  0  0
    2.0776    4.6391   -2.6076 C   0  0  0  0  0  0  0  0  0  0  0  0
    1.1586    4.4503   -3.6372 O   0  0  0  0  0  0  0  0  0  0  0  0
    2.4773    5.8074   -2.3548 O   0  0  0  0  0  0  0  0  0  0  0  0
    3.4782    3.6243   -0.7485 C   0  0  0  0  0  0  0  0  0  0  0  0
    3.9322    4.9073   -0.3986 O   0  0  0  0  0  0  0  0  0  0  0  0
    4.8366    5.1900    0.6651 C   0  0  0  0  0  0  0  0  0  0  0  0
    5.0713    6.6613    0.7285 C   0  0  0  0  0  0  0  0  0  0  0  0
    4.2509    7.4604    1.5183 O   0  0  0  0  0  0  0  0  0  0  0  0
    5.9817    7.1856    0.0329 O   0  0  0  0  0  0  0  0  0  0  0  0
    3.9073    2.4821   -0.0442 C   0  0  0  0  0  0  0  0  0  0  0  0
    3.4456    1.2144   -0.3947 C   0  0  0  0  0  0  0  0  0  0  0  0
    0.7085   -0.6378    0.3170 C   0  0  0  0  0  0  0  0  0  0  0  0
    0.7882    0.5864    0.9771 O   0  0  0  0  0  0  0  0  0  0  0  0
    0.6872   -1.7282    1.0333 N   0  0  0  0  0  0  0  0  0  0  0  0
    0.5745   -3.1153    0.5765 C   0  0  0  0  0  0  0  0  0  0  0  0
    1.8828   -3.6462   -0.0327 C   0  0  0  0  0  0  0  0  0  0  0  0
    3.1433   -3.3345    0.7976 C   0  0  0  0  0  0  0  0  0  0  0  0
    3.1188   -3.8907    2.2318 C   0  0  0  0  0  0  0  0  0  0  0  0
    3.0691   -5.4172    2.2770 C   0  0  0  0  0  0  0  0  0  0  0  0
   -1.8925   -1.8214   -1.6296 H   0  0  0  0  0  0  0  0  0  0  0  0
   -3.8644   -0.9204   -2.7542 H   0  0  0  0  0  0  0  0  0  0  0  0
   -4.4146   -0.1020   -1.2768 H   0  0  0  0  0  0  0  0  0  0  0  0
   -3.7674   -3.4354   -2.8477 H   0  0  0  0  0  0  0  0  0  0  0  0
   -4.8435   -5.5263   -2.0912 H   0  0  0  0  0  0  0  0  0  0  0  0
   -6.2016   -5.5510   -0.0174 H   0  0  0  0  0  0  0  0  0  0  0  0
   -6.4816   -3.4743    1.3073 H   0  0  0  0  0  0  0  0  0  0  0  0
   -5.4140   -1.3744    0.5673 H   0  0  0  0  0  0  0  0  0  0  0  0
   -2.0797   -1.6714    2.7721 H   0  0  0  0  0  0  0  0  0  0  0  0
   -1.9374    1.7178    0.6746 H   0  0  0  0  0  0  0  0  0  0  0  0
   -3.6339    1.2690    0.2525 H   0  0  0  0  0  0  0  0  0  0  0  0
   -4.2543    1.3412    2.6826 H   0  0  0  0  0  0  0  0  0  0  0  0
   -2.5726    1.8585    3.0809 H   0  0  0  0  0  0  0  0  0  0  0  0
   -2.9586    5.2525    1.8577 H   0  0  0  0  0  0  0  0  0  0  0  0
   -1.8982    2.2192   -2.4545 H   0  0  0  0  0  0  0  0  0  0  0  0
    0.3411   -1.6156   -1.5992 H   0  0  0  0  0  0  0  0  0  0  0  0
    1.9495   -0.4000   -2.9180 H   0  0  0  0  0  0  0  0  0  0  0  0
    2.7565   -1.0862   -1.4942 H   0  0  0  0  0  0  0  0  0  0  0  0
    1.4266    2.0533   -2.9901 H   0  0  0  0  0  0  0  0  0  0  0  0
    0.8128    5.2346   -4.1772 H   0  0  0  0  0  0  0  0  0  0  0  0
    5.8021    4.6675    0.4902 H   0  0  0  0  0  0  0  0  0  0  0  0
    4.4036    4.8478    1.6297 H   0  0  0  0  0  0  0  0  0  0  0  0
    4.3858    8.4636    1.5582 H   0  0  0  0  0  0  0  0  0  0  0  0
    4.5977    2.5628    0.7838 H   0  0  0  0  0  0  0  0  0  0  0  0
    3.7828    0.3540    0.1703 H   0  0  0  0  0  0  0  0  0  0  0  0
    0.8280    0.6360    1.9882 H   0  0  0  0  0  0  0  0  0  0  0  0
   -0.2631   -3.2237   -0.1440 H   0  0  0  0  0  0  0  0  0  0  0  0
    0.3097   -3.7455    1.4509 H   0  0  0  0  0  0  0  0  0  0  0  0
    2.0139   -3.2216   -1.0474 H   0  0  0  0  0  0  0  0  0  0  0  0
    1.7917   -4.7434   -0.1773 H   0  0  0  0  0  0  0  0  0  0  0  0
    3.2869   -2.2336    0.8456 H   0  0  0  0  0  0  0  0  0  0  0  0
    4.0281   -3.7466    0.2654 H   0  0  0  0  0  0  0  0  0  0  0  0
    2.2618   -3.4707    2.7994 H   0  0  0  0  0  0  0  0  0  0  0  0
    4.0457   -3.5580    2.7473 H   0  0  0  0  0  0  0  0  0  0  0  0
    2.0892   -5.7883    1.9115 H   0  0  0  0  0  0  0  0  0  0  0  0
    3.1973   -5.7595    3.3255 H   0  0  0  0  0  0  0  0  0  0  0  0
    3.8846   -5.8516    1.6607 H   0  0  0  0  0  0  0  0  0  0  0  0
  1  2  1  0
  2  3  1  0
  3  4  2  0
  4  5  1  0
  5  6  2  0
  6  7  1  0
  7  8  2  0
  1  9  1  0
  9 10  2  3
 10 11  1  0
 10 12  1  0
 12 13  1  0
 13 14  1  0
 14 15  1  0
 14 16  2  0
  1 17  1  0
 17 18  1  0
 17 19  2  3
 19 20  1  0
 20 21  1  0
 21 22  1  0
 22 23  2  0
 23 24  1  0
 24 25  1  0
 25 26  1  0
 25 27  2  0
 24 28  2  0
 28 29  1  0
 29 30  1  0
 30 31  1  0
 31 32  1  0
 31 33  2  0
 28 34  1  0
 34 35  2  0
 20 36  1  0
 36 37  1  0
 36 38  2  3
 38 39  1  0
 39 40  1  0
 40 41  1  0
 41 42  1  0
 42 43  1  0
  8  3  1  0
 35 22  1  0
  1 44  1  6
  2 45  1  0
  2 46  1  0
  4 47  1  0
  5 48  1  0
  6 49  1  0
  7 50  1  0
  8 51  1  0
 11 52  1  0
 12 53  1  0
 12 54  1  0
 13 55  1  0
 13 56  1  0
 15 57  1  0
 18 58  1  0
 20 59  1  6
 21 60  1  0
 21 61  1  0
 23 62  1  0
 26 63  1  0
 30 64  1  0
 30 65  1  0
 32 66  1  0
 34 67  1  0
 35 68  1  0
 37 69  1  0
 39 70  1  0
 39 71  1  0
 40 72  1  0
 40 73  1  0
 41 74  1  0
 41 75  1  0
 42 76  1  0
 42 77  1  0
 43 78  1  0
 43 79  1  0
 43 80  1  0
M  END
$$$$
