
     RDKit          3D

 49 53  0  0  0  0  0  0  0  0999 V2000
   -3.3739   -2.8461   -1.9083 C   0  0  0  0  0  0  0  0  0  0  0  0
   -3.2862   -1.5339   -1.1869 C   0  0  0  0  0  0  0  0  0  0  0  0
   -4.3770   -1.0314   -0.4431 C   0  0  0  0  0  0  0  0  0  0  0  0
   -4.2789    0.2005    0.2627 C   0  0  0  0  0  0  0  0  0  0  0  0
   -3.0628    0.9239    0.2251 C   0  0  0  0  0  0  0  0  0  0  0  0
   -2.0048    0.3883   -0.5019 C   0  0  0  0  0  0  0  0  0  0  0  0
   -2.1051   -0.7894   -1.1768 C   0  0  0  0  0  0  0  0  0  0  0  0
   -0.9418   -1.0748   -1.7915 N   0  0  0  0  0  0  0  0  0  0  0  0
   -0.1489   -0.0252   -1.4462 C   0  0  0  0  0  0  0  0  0  0  0  0
   -0.7748    0.8900   -0.6639 N   0  0  0  0  0  0  0  0  0  0  0  0
    1.2466    0.1220   -1.9227 C   0  0  0  0  0  0  0  0  0  0  0  0
    2.2841    0.5412   -1.0535 C   0  0  0  0  0  0  0  0  0  0  0  0
    2.0438    0.6938    0.3619 N   0  0  0  0  0  0  0  0  0  0  0  0
    2.8976    1.4740    1.2570 C   0  0  0  0  0  0  0  0  0  0  0  0
    4.0223    0.6272    1.7796 C   0  0  0  0  0  0  0  0  0  0  0  0
    3.7551   -0.6090    2.2866 N   0  0  0  0  0  0  0  0  0  0  0  0
    4.7347   -1.4060    2.7910 C   0  0  0  0  0  0  0  0  0  0  0  0
    6.0584   -0.9617    2.8075 C   0  0  0  0  0  0  0  0  0  0  0  0
    6.3588    0.3060    2.3067 C   0  0  0  0  0  0  0  0  0  0  0  0
    5.3393    1.1108    1.7941 C   0  0  0  0  0  0  0  0  0  0  0  0
    3.5720    0.7360   -1.5817 C   0  0  0  0  0  0  0  0  0  0  0  0
    3.8171    0.4922   -2.9306 C   0  0  0  0  0  0  0  0  0  0  0  0
    2.8173    0.0639   -3.7423 N   0  0  0  0  0  0  0  0  0  0  0  0
    1.5514   -0.1224   -3.2788 C   0  0  0  0  0  0  0  0  0  0  0  0
    0.6516   -0.4983   -4.0792 O   0  0  0  0  0  0  0  0  0  0  0  0
   -5.4035    0.7051    1.0114 N   0  0  0  0  0  0  0  0  0  0  0  0
   -6.4214   -0.0038    1.5345 C   0  0  0  0  0  0  0  0  0  0  0  0
   -7.2714    0.8713    2.1702 C   0  0  0  0  0  0  0  0  0  0  0  0
   -6.7988    2.1276    2.0500 N   0  0  0  0  0  0  0  0  0  0  0  0
   -5.6596    1.9898    1.3403 C   0  0  0  0  0  0  0  0  0  0  0  0
   -2.8969   -3.6378   -1.2938 H   0  0  0  0  0  0  0  0  0  0  0  0
   -4.4322   -3.1249   -2.0979 H   0  0  0  0  0  0  0  0  0  0  0  0
   -2.8537   -2.7821   -2.8875 H   0  0  0  0  0  0  0  0  0  0  0  0
   -5.3039   -1.5892   -0.4302 H   0  0  0  0  0  0  0  0  0  0  0  0
   -2.9351    1.8552    0.7600 H   0  0  0  0  0  0  0  0  0  0  0  0
   -0.3975    1.7900   -0.2912 H   0  0  0  0  0  0  0  0  0  0  0  0
    1.2467    0.1828    0.8034 H   0  0  0  0  0  0  0  0  0  0  0  0
    3.2705    2.3802    0.7316 H   0  0  0  0  0  0  0  0  0  0  0  0
    2.2938    1.8230    2.1218 H   0  0  0  0  0  0  0  0  0  0  0  0
    4.4853   -2.3837    3.1809 H   0  0  0  0  0  0  0  0  0  0  0  0
    6.8421   -1.5918    3.2078 H   0  0  0  0  0  0  0  0  0  0  0  0
    7.3797    0.6654    2.3179 H   0  0  0  0  0  0  0  0  0  0  0  0
    5.5745    2.0958    1.4105 H   0  0  0  0  0  0  0  0  0  0  0  0
    4.3961    1.0486   -0.9572 H   0  0  0  0  0  0  0  0  0  0  0  0
    4.8137    0.6346   -3.3296 H   0  0  0  0  0  0  0  0  0  0  0  0
    3.0303   -0.1165   -4.7496 H   0  0  0  0  0  0  0  0  0  0  0  0
   -6.5354   -1.0784    1.4816 H   0  0  0  0  0  0  0  0  0  0  0  0
   -8.1808    0.6097    2.6942 H   0  0  0  0  0  0  0  0  0  0  0  0
   -5.0386    2.8289    1.0562 H   0  0  0  0  0  0  0  0  0  0  0  0
  1  2  1  0
  2  3  2  0
  3  4  1  0
  4  5  2  0
  5  6  1  0
  6  7  2  0
  7  8  1  0
  8  9  2  0
  9 10  1  0
  9 11  1  0
 11 12  2  0
 12 13  1  0
 13 14  1  0
 14 15  1  0
 15 16  2  0
 16 17  1  0
 17 18  2  0
 18 19  1  0
 19 20  2  0
 12 21  1  0
 21 22  2  0
 22 23  1  0
 23 24  1  0
 24 25  2  0
  4 26  1  0
 26 27  1  0
 27 28  2  0
 28 29  1  0
 29 30  2  0
  7  2  1  0
 24 11  1  0
 30 26  1  0
 10  6  1  0
 20 15  1  0
  1 31  1  0
  1 32  1  0
  1 33  1  0
  3 34  1  0
  5 35  1  0
 10 36  1  0
 13 37  1  0
 14 38  1  0
 14 39  1  0
 17 40  1  0
 18 41  1  0
 19 42  1  0
 20 43  1  0
 21 44  1  0
 22 45  1  0
 23 46  1  0
 27 47  1  0
 28 48  1  0
 30 49  1  0
M  END
$$$$
