
     RDKit          3D

 51 54  0  0  0  0  0  0  0  0999 V2000
   -3.4805   -1.6262    1.1818 O   0  0  0  0  0  0  0  0  0  0  0  0
   -2.3966   -0.8513    0.7331 C   0  0  0  0  0  0  0  0  0  0  0  0
   -1.2765   -1.7035    0.1988 C   0  0  0  0  0  0  0  0  0  0  0  0
   -0.3209   -1.3942    1.2823 N   0  0  0  0  0  0  0  0  0  0  0  0
   -1.4217   -0.5884    1.8455 C   0  0  0  0  0  0  0  0  0  0  0  0
    1.0499   -1.6315    1.6057 C   0  0  0  0  0  0  0  0  0  0  0  0
    1.5310   -1.1164    2.6500 O   0  0  0  0  0  0  0  0  0  0  0  0
    1.9130   -2.4458    0.7236 C   0  0  0  0  0  0  0  0  0  0  0  0
    3.2385   -2.0481    0.4171 C   0  0  0  0  0  0  0  0  0  0  0  0
    3.7666   -0.7894    0.8656 N   0  0  0  0  0  0  0  0  0  0  0  0
    3.1558    0.4791    0.5667 C   0  0  0  0  0  0  0  0  0  0  0  0
    3.4359    1.5949    1.3740 C   0  0  0  0  0  0  0  0  0  0  0  0
    4.2590    1.4771    2.4462 F   0  0  0  0  0  0  0  0  0  0  0  0
    2.8500    2.8335    1.0933 C   0  0  0  0  0  0  0  0  0  0  0  0
    1.9969    2.9746   -0.0046 C   0  0  0  0  0  0  0  0  0  0  0  0
    1.1115    4.8423   -0.4214 I   0  0  0  0  0  0  0  0  0  0  0  0
    1.7324    1.8768   -0.8269 C   0  0  0  0  0  0  0  0  0  0  0  0
    2.3003    0.6322   -0.5410 C   0  0  0  0  0  0  0  0  0  0  0  0
    4.0610   -2.8978   -0.3395 C   0  0  0  0  0  0  0  0  0  0  0  0
    5.3347   -2.5308   -0.6304 F   0  0  0  0  0  0  0  0  0  0  0  0
    3.5677   -4.1128   -0.8219 C   0  0  0  0  0  0  0  0  0  0  0  0
    4.3628   -4.9226   -1.5642 F   0  0  0  0  0  0  0  0  0  0  0  0
    2.2564   -4.4963   -0.5395 C   0  0  0  0  0  0  0  0  0  0  0  0
    1.4357   -3.6729    0.2337 C   0  0  0  0  0  0  0  0  0  0  0  0
   -2.8517    0.3861   -0.1025 C   0  0  2  0  0  0  0  0  0  0  0  0
   -1.7076    1.2717   -0.6681 C   0  0  0  0  0  0  0  0  0  0  0  0
   -2.2722    2.3880   -1.5633 C   0  0  0  0  0  0  0  0  0  0  0  0
   -3.6560    2.8756   -1.1046 C   0  0  0  0  0  0  0  0  0  0  0  0
   -3.8671    2.6150    0.3898 C   0  0  0  0  0  0  0  0  0  0  0  0
   -3.7995    1.1779    0.7178 N   0  0  0  0  0  0  0  0  0  0  0  0
   -3.9157   -2.0006    0.3718 H   0  0  0  0  0  0  0  0  0  0  0  0
   -1.5312   -2.7863    0.2012 H   0  0  0  0  0  0  0  0  0  0  0  0
   -0.8756   -1.4063   -0.7896 H   0  0  0  0  0  0  0  0  0  0  0  0
   -1.1187    0.4720    1.9634 H   0  0  0  0  0  0  0  0  0  0  0  0
   -1.7493   -1.0116    2.8218 H   0  0  0  0  0  0  0  0  0  0  0  0
    4.6859   -0.7975    1.3625 H   0  0  0  0  0  0  0  0  0  0  0  0
    3.0601    3.6843    1.7286 H   0  0  0  0  0  0  0  0  0  0  0  0
    1.0869    1.9880   -1.6881 H   0  0  0  0  0  0  0  0  0  0  0  0
    2.0834   -0.2041   -1.1927 H   0  0  0  0  0  0  0  0  0  0  0  0
    1.8789   -5.4424   -0.9056 H   0  0  0  0  0  0  0  0  0  0  0  0
    0.4410   -4.0169    0.4817 H   0  0  0  0  0  0  0  0  0  0  0  0
   -3.3973   -0.0189   -0.9867 H   0  0  0  0  0  0  0  0  0  0  0  0
   -0.9957    0.6831   -1.2770 H   0  0  0  0  0  0  0  0  0  0  0  0
   -1.1377    1.7427    0.1593 H   0  0  0  0  0  0  0  0  0  0  0  0
   -2.3512    2.0205   -2.6099 H   0  0  0  0  0  0  0  0  0  0  0  0
   -1.5590    3.2406   -1.5659 H   0  0  0  0  0  0  0  0  0  0  0  0
   -4.4478    2.3430   -1.6760 H   0  0  0  0  0  0  0  0  0  0  0  0
   -3.7588    3.9624   -1.3138 H   0  0  0  0  0  0  0  0  0  0  0  0
   -4.8556    3.0226    0.6961 H   0  0  0  0  0  0  0  0  0  0  0  0
   -3.0945    3.1591    0.9755 H   0  0  0  0  0  0  0  0  0  0  0  0
   -4.7569    0.7695    0.5985 H   0  0  0  0  0  0  0  0  0  0  0  0
  1  2  1  0
  2  3  1  0
  3  4  1  0
  4  5  1  0
  4  6  1  0
  6  7  2  0
  6  8  1  0
  8  9  1  0
  9 10  1  0
 10 11  1  0
 11 12  2  0
 12 13  1  0
 12 14  1  0
 14 15  2  0
 15 16  1  0
 15 17  1  0
 17 18  2  0
  9 19  2  0
 19 20  1  0
 19 21  1  0
 21 22  1  0
 21 23  2  0
 23 24  1  0
  2 25  1  0
 25 26  1  0
 26 27  1  0
 27 28  1  0
 28 29  1  0
 29 30  1  0
  5  2  1  0
 24  8  2  0
 30 25  1  0
 18 11  1  0
  1 31  1  0
  3 32  1  0
  3 33  1  0
  5 34  1  0
  5 35  1  0
 10 36  1  0
 14 37  1  0
 17 38  1  0
 18 39  1  0
 23 40  1  0
 24 41  1  0
 25 42  1  6
 26 43  1  0
 26 44  1  0
 27 45  1  0
 27 46  1  0
 28 47  1  0
 28 48  1  0
 29 49  1  0
 29 50  1  0
 30 51  1  0
M  END
$$$$
