
     RDKit          2D

145154  0  0  0  0  0  0  0  0999 V2000
   -5.1175    5.4166    0.0000 C   0  0  0  0  0  0  0  0  0  0  0  0
   -4.1138    4.3019    0.0000 O   0  0  0  0  0  0  0  0  0  0  0  0
   -4.5773    2.8753    0.0000 C   0  0  0  0  0  0  0  0  0  0  0  0
   -6.0039    3.3389    0.0000 C   0  0  0  0  0  0  0  0  0  0  0  0
   -3.1507    2.4118    0.0000 C   0  0  0  0  0  0  0  0  0  0  0  0
   -3.6142    0.9852    0.0000 N   0  0  0  0  0  0  0  0  0  0  0  0
   -5.0814    0.6734    0.0000 C   0  0  0  0  0  0  0  0  0  0  0  0
   -5.5450   -0.7532    0.0000 O   0  0  0  0  0  0  0  0  0  0  0  0
   -6.0851    1.7881    0.0000 O   0  0  0  0  0  0  0  0  0  0  0  0
   -7.5524    1.4762    0.0000 C   0  0  0  0  0  0  0  0  0  0  0  0
   -1.7241    1.9483    0.0000 C   0  0  0  0  0  0  0  0  0  0  0  0
   -1.7520    1.1516    0.0000 O   0  0  0  0  0  0  0  0  0  0  0  0
   -0.6094    2.9520    0.0000 N   0  0  0  0  0  0  0  0  0  0  0  0
   -0.7662    4.4438    0.0000 C   0  0  0  0  0  0  0  0  0  0  0  0
    0.6041    5.0539    0.0000 C   0  0  0  0  0  0  0  0  0  0  0  0
    1.6078    3.9391    0.0000 C   0  0  0  0  0  0  0  0  0  0  0  0
    0.8578    2.6401    0.0000 C   0  0  0  0  0  0  0  0  0  0  0  0
    0.3943    1.2135    0.0000 C   0  0  0  0  0  0  0  0  0  0  0  0
    1.2760    0.0000    0.0000 N   0  0  0  0  0  0  0  0  0  0  0  0
    0.3943   -1.2135    0.0000 C   0  0  0  0  0  0  0  0  0  0  0  0
   -1.0323   -0.7500    0.0000 C   0  0  0  0  0  0  0  0  0  0  0  0
   -1.0323    0.7500    0.0000 N   0  0  0  0  0  0  0  0  0  0  0  0
   -2.1470   -1.7537    0.0000 C   0  0  0  0  0  0  0  0  0  0  0  0
   -1.8351   -3.2209    0.0000 C   0  0  0  0  0  0  0  0  0  0  0  0
   -2.9499   -4.2246    0.0000 F   0  0  0  0  0  0  0  0  0  0  0  0
   -0.4086   -3.6844    0.0000 C   0  0  0  0  0  0  0  0  0  0  0  0
    0.7062   -2.6807    0.0000 C   0  0  0  0  0  0  0  0  0  0  0  0
   -0.0967   -5.1517    0.0000 C   0  0  0  0  0  0  0  0  0  0  0  0
   -0.0967   -6.6517    0.0000 C   0  0  0  0  0  0  0  0  0  0  0  0
    1.3299   -7.1152    0.0000 C   0  0  0  0  0  0  0  0  0  0  0  0
    2.2116   -5.9017    0.0000 C   0  0  0  0  0  0  0  0  0  0  0  0
    1.3299   -4.6881    0.0000 N   0  0  0  0  0  0  0  0  0  0  0  0
    1.7934   -3.2616    0.0000 C   0  0  0  0  0  0  0  0  0  0  0  0
    3.2606   -2.9497    0.0000 C   0  0  0  0  0  0  0  0  0  0  0  0
    3.7242   -1.5231    0.0000 C   0  0  0  0  0  0  0  0  0  0  0  0
    5.1914   -1.2112    0.0000 F   0  0  0  0  0  0  0  0  0  0  0  0
    2.7205   -0.4084    0.0000 C   0  0  0  0  0  0  0  0  0  0  0  0
    3.1840    1.0182    0.0000 N   0  0  0  0  0  0  0  0  0  0  0  0
    4.6512    1.3301    0.0000 C   0  0  0  0  0  0  0  0  0  0  0  0
    5.1147    2.7567    0.0000 C   0  0  0  0  0  0  0  0  0  0  0  0
    4.1111    3.8714    0.0000 C   0  0  0  0  0  0  0  0  0  0  0  0
    2.6438    3.5595    0.0000 C   0  0  0  0  0  0  0  0  0  0  0  0
    2.1803    2.1329    0.0000 C   0  0  0  0  0  0  0  0  0  0  0  0
    3.5491    5.2621    0.0000 C   0  0  0  0  0  0  0  0  0  0  0  0
    4.4726    6.4442    0.0000 C   0  0  0  0  0  0  0  0  0  0  0  0
    3.9107    7.8349    0.0000 C   0  0  0  0  0  0  0  0  0  0  0  0
    2.4253    8.0437    0.0000 C   0  0  0  0  0  0  0  0  0  0  0  0
    1.8634    9.4345    0.0000 F   0  0  0  0  0  0  0  0  0  0  0  0
    1.5018    6.8617    0.0000 C   0  0  0  0  0  0  0  0  0  0  0  0
    2.0637    5.4709    0.0000 C   0  0  0  0  0  0  0  0  0  0  0  0
    1.2533   -0.7203    0.0000 C   0  0  0  0  0  0  0  0  0  0  0  0
    0.2496    0.3945    0.0000 F   0  0  0  0  0  0  0  0  0  0  0  0
    0.7897   -2.1468    0.0000 C   0  0  0  0  0  0  0  0  0  0  0  0
    3.3263   -6.9054    0.0000 C   0  0  0  0  0  0  0  0  0  0  0  0
    4.7529   -6.4418    0.0000 C   0  0  0  0  0  0  0  0  0  0  0  0
    5.8676   -7.4455    0.0000 C   0  0  0  0  0  0  0  0  0  0  0  0
    5.5557   -8.9128    0.0000 C   0  0  0  0  0  0  0  0  0  0  0  0
    6.8548   -9.6628    0.0000 N   0  0  0  0  0  0  0  0  0  0  0  0
    7.9695   -8.6591    0.0000 C   0  0  0  0  0  0  0  0  0  0  0  0
    7.3594   -7.2887    0.0000 N   0  0  0  0  0  0  0  0  0  0  0  0
    9.4367   -8.9709    0.0000 C   0  0  0  0  0  0  0  0  0  0  0  0
   10.9367   -8.9709    0.0000 C   0  0  0  0  0  0  0  0  0  0  0  0
   11.4002  -10.3975    0.0000 C   0  0  0  0  0  0  0  0  0  0  0  0
   10.1867  -11.2792    0.0000 C   0  0  0  0  0  0  0  0  0  0  0  0
    8.9732  -10.3975    0.0000 N   0  0  0  0  0  0  0  0  0  0  0  0
    7.5466  -10.8610    0.0000 C   0  0  0  0  0  0  0  0  0  0  0  0
    6.2221  -10.1569    0.0000 O   0  0  0  0  0  0  0  0  0  0  0  0
    7.2347  -12.3283    0.0000 C   0  0  0  0  0  0  0  0  0  0  0  0
    5.7675  -12.0164    0.0000 N   0  0  0  0  0  0  0  0  0  0  0  0
    4.7638  -13.1311    0.0000 C   0  0  0  0  0  0  0  0  0  0  0  0
    3.3455  -12.6427    0.0000 O   0  0  0  0  0  0  0  0  0  0  0  0
    5.2273  -14.5577    0.0000 O   0  0  0  0  0  0  0  0  0  0  0  0
    4.2236  -15.6724    0.0000 C   0  0  0  0  0  0  0  0  0  0  0  0
    6.9229  -13.7955    0.0000 C   0  0  0  0  0  0  0  0  0  0  0  0
    6.6110  -15.2627    0.0000 C   0  0  0  0  0  0  0  0  0  0  0  0
    5.4556  -13.4836    0.0000 O   0  0  0  0  0  0  0  0  0  0  0  0
    4.4519  -14.5983    0.0000 C   0  0  0  0  0  0  0  0  0  0  0  0
    4.1291   -9.3763    0.0000 C   0  0  0  0  0  0  0  0  0  0  0  0
    3.0144   -8.3726    0.0000 C   0  0  0  0  0  0  0  0  0  0  0  0
    1.5878   -8.8361    0.0000 F   0  0  0  0  0  0  0  0  0  0  0  0
   -6.1212    6.5314    0.0000 H   0  0  0  0  0  0  0  0  0  0  0  0
   -4.0027    6.4203    0.0000 H   0  0  0  0  0  0  0  0  0  0  0  0
   -6.3462    4.5563    0.0000 H   0  0  0  0  0  0  0  0  0  0  0  0
   -5.3722    1.6033    0.0000 H   0  0  0  0  0  0  0  0  0  0  0  0
   -7.4305    3.8024    0.0000 H   0  0  0  0  0  0  0  0  0  0  0  0
   -6.0825    4.8368    0.0000 H   0  0  0  0  0  0  0  0  0  0  0  0
   -6.7988    2.0668    0.0000 H   0  0  0  0  0  0  0  0  0  0  0  0
   -2.8645    3.8843    0.0000 H   0  0  0  0  0  0  0  0  0  0  0  0
   -2.6105   -0.1295    0.0000 H   0  0  0  0  0  0  0  0  0  0  0  0
   -9.0196    1.1643    0.0000 H   0  0  0  0  0  0  0  0  0  0  0  0
   -7.8642    2.9434    0.0000 H   0  0  0  0  0  0  0  0  0  0  0  0
   -7.2405    0.0090    0.0000 H   0  0  0  0  0  0  0  0  0  0  0  0
   -1.2297    5.8703    0.0000 H   0  0  0  0  0  0  0  0  0  0  0  0
   -2.2605    4.3131    0.0000 H   0  0  0  0  0  0  0  0  0  0  0  0
    1.5682    6.2030    0.0000 H   0  0  0  0  0  0  0  0  0  0  0  0
   -0.2986    6.2518    0.0000 H   0  0  0  0  0  0  0  0  0  0  0  0
    2.9986    3.3773    0.0000 H   0  0  0  0  0  0  0  0  0  0  0  0
    2.1453    5.3396    0.0000 H   0  0  0  0  0  0  0  0  0  0  0  0
    2.3350    2.3797    0.0000 H   0  0  0  0  0  0  0  0  0  0  0  0
   -2.4231    1.3118    0.0000 H   0  0  0  0  0  0  0  0  0  0  0  0
   -3.5736   -1.2902    0.0000 H   0  0  0  0  0  0  0  0  0  0  0  0
    2.2025   -2.7853    0.0000 H   0  0  0  0  0  0  0  0  0  0  0  0
   -1.5885   -5.3085    0.0000 H   0  0  0  0  0  0  0  0  0  0  0  0
   -1.5885   -6.4949    0.0000 H   0  0  0  0  0  0  0  0  0  0  0  0
   -0.4086   -8.1189    0.0000 H   0  0  0  0  0  0  0  0  0  0  0  0
    0.7198   -8.4855    0.0000 H   0  0  0  0  0  0  0  0  0  0  0  0
    2.4089   -8.1572    0.0000 H   0  0  0  0  0  0  0  0  0  0  0  0
    3.3263   -4.8980    0.0000 H   0  0  0  0  0  0  0  0  0  0  0  0
    4.2643   -4.0644    0.0000 H   0  0  0  0  0  0  0  0  0  0  0  0
    6.1366    1.1213    0.0000 H   0  0  0  0  0  0  0  0  0  0  0  0
    4.7036   -0.1690    0.0000 H   0  0  0  0  0  0  0  0  0  0  0  0
    6.0382    3.9387    0.0000 H   0  0  0  0  0  0  0  0  0  0  0  0
    6.4392    2.0524    0.0000 H   0  0  0  0  0  0  0  0  0  0  0  0
    5.3831    4.6662    0.0000 H   0  0  0  0  0  0  0  0  0  0  0  0
    1.1950    3.9478    0.0000 H   0  0  0  0  0  0  0  0  0  0  0  0
    2.4091    5.0410    0.0000 H   0  0  0  0  0  0  0  0  0  0  0  0
    1.2568    0.9509    0.0000 H   0  0  0  0  0  0  0  0  0  0  0  0
    1.0656    3.1367    0.0000 H   0  0  0  0  0  0  0  0  0  0  0  0
    5.9580    6.2354    0.0000 H   0  0  0  0  0  0  0  0  0  0  0  0
    4.8342    9.0170    0.0000 H   0  0  0  0  0  0  0  0  0  0  0  0
    0.0530    7.2499    0.0000 H   0  0  0  0  0  0  0  0  0  0  0  0
    0.7779    4.6985    0.0000 H   0  0  0  0  0  0  0  0  0  0  0  0
   -0.6775   -2.4587    0.0000 H   0  0  0  0  0  0  0  0  0  0  0  0
    5.0647   -4.9746    0.0000 H   0  0  0  0  0  0  0  0  0  0  0  0
    6.6459  -11.1481    0.0000 H   0  0  0  0  0  0  0  0  0  0  0  0
    9.5935   -7.4791    0.0000 H   0  0  0  0  0  0  0  0  0  0  0  0
   10.7799   -7.4791    0.0000 H   0  0  0  0  0  0  0  0  0  0  0  0
   12.4039   -8.6591    0.0000 H   0  0  0  0  0  0  0  0  0  0  0  0
   12.7706   -9.7874    0.0000 H   0  0  0  0  0  0  0  0  0  0  0  0
   12.1502  -11.6965    0.0000 H   0  0  0  0  0  0  0  0  0  0  0  0
   11.1904  -12.3939    0.0000 H   0  0  0  0  0  0  0  0  0  0  0  0
    9.3264  -12.5079    0.0000 H   0  0  0  0  0  0  0  0  0  0  0  0
    8.6530  -12.8166    0.0000 H   0  0  0  0  0  0  0  0  0  0  0  0
    5.3040  -10.5898    0.0000 H   0  0  0  0  0  0  0  0  0  0  0  0
    3.2199  -16.7871    0.0000 H   0  0  0  0  0  0  0  0  0  0  0  0
    5.3384  -16.6761    0.0000 H   0  0  0  0  0  0  0  0  0  0  0  0
    3.1089  -14.6687    0.0000 H   0  0  0  0  0  0  0  0  0  0  0  0
    8.3901  -14.1073    0.0000 H   0  0  0  0  0  0  0  0  0  0  0  0
    6.2991  -16.7299    0.0000 H   0  0  0  0  0  0  0  0  0  0  0  0
    8.0782  -15.5746    0.0000 H   0  0  0  0  0  0  0  0  0  0  0  0
    5.2303  -15.8490    0.0000 H   0  0  0  0  0  0  0  0  0  0  0  0
    3.2083  -15.4370    0.0000 H   0  0  0  0  0  0  0  0  0  0  0  0
    3.2232  -13.7380    0.0000 H   0  0  0  0  0  0  0  0  0  0  0  0
    5.4360  -15.7304    0.0000 H   0  0  0  0  0  0  0  0  0  0  0  0
    3.8173  -10.8435    0.0000 H   0  0  0  0  0  0  0  0  0  0  0  0
  1  2  1  0
  2  3  1  0
  3  4  1  0
  3  5  1  0
  5  6  1  0
  6  7  1  0
  7  8  2  0
  7  9  1  0
  9 10  1  0
  5 11  1  0
 11 12  2  0
 11 13  1  0
 13 14  1  0
 14 15  1  0
 15 16  1  0
 16 17  1  0
 17 18  1  0
 18 19  2  0
 19 20  1  0
 20 21  2  0
 21 22  1  0
 21 23  1  0
 23 24  2  0
 24 25  1  0
 24 26  1  0
 26 27  2  0
 26 28  1  0
 28 29  1  0
 29 30  1  0
 30 31  1  0
 31 32  1  0
 32 33  1  0
 33 34  2  0
 34 35  1  0
 35 36  1  0
 35 37  2  0
 37 38  1  0
 38 39  1  0
 39 40  1  0
 40 41  1  0
 41 42  1  0
 42 43  1  0
 41 44  1  0
 44 45  2  0
 45 46  1  0
 46 47  2  0
 47 48  1  0
 47 49  1  0
 49 50  2  0
 37 51  1  0
 51 52  1  0
 51 53  2  0
 31 54  1  0
 54 55  2  0
 55 56  1  0
 56 57  2  0
 57 58  1  0
 58 59  1  0
 59 60  2  0
 59 61  1  0
 61 62  1  0
 62 63  1  0
 63 64  1  0
 64 65  1  0
 65 66  1  0
 66 67  2  0
 66 68  1  0
 68 69  1  0
 69 70  1  0
 70 71  2  0
 70 72  1  0
 72 73  1  0
 68 74  1  0
 74 75  1  0
 74 76  1  0
 76 77  1  0
 57 78  1  0
 78 79  2  0
 79 80  1  0
 17 13  1  0
 22 18  1  0
 32 28  1  0
 53 33  1  0
 79 54  1  0
 27 20  1  0
 43 38  1  0
 50 44  1  0
 60 56  1  0
 65 61  1  0
  1 81  1  0
  1 82  1  0
  1 83  1  0
  3 84  1  6
  4 85  1  0
  4 86  1  0
  4 87  1  0
  5 88  1  6
  6 89  1  0
 10 90  1  0
 10 91  1  0
 10 92  1  0
 14 93  1  0
 14 94  1  0
 15 95  1  0
 15 96  1  0
 16 97  1  0
 16 98  1  0
 17 99  1  6
 22100  1  0
 23101  1  0
 27102  1  0
 28103  1  1
 29104  1  0
 29105  1  0
 30106  1  0
 30107  1  0
 31108  1  6
 34109  1  0
 39110  1  0
 39111  1  0
 40112  1  0
 40113  1  0
 41114  1  0
 42115  1  0
 42116  1  0
 43117  1  0
 43118  1  0
 45119  1  0
 46120  1  0
 49121  1  0
 50122  1  0
 53123  1  0
 55124  1  0
 58125  1  0
 61126  1  1
 62127  1  0
 62128  1  0
 63129  1  0
 63130  1  0
 64131  1  0
 64132  1  0
 68133  1  1
 69134  1  0
 73135  1  0
 73136  1  0
 73137  1  0
 74138  1  6
 75139  1  0
 75140  1  0
 75141  1  0
 77142  1  0
 77143  1  0
 77144  1  0
 78145  1  0
M  END
$$$$
