
     RDKit          3D

 41 43  0  0  0  0  0  0  0  0999 V2000
    2.8326    1.8172   -2.8392 C   0  0  0  0  0  0  0  0  0  0  0  0
    1.7159    1.3644   -2.0816 O   0  0  0  0  0  0  0  0  0  0  0  0
    1.8015    0.4603   -1.0128 C   0  0  0  0  0  0  0  0  0  0  0  0
    3.0233   -0.1010   -0.5730 C   0  0  0  0  0  0  0  0  0  0  0  0
    3.0518   -1.0137    0.5166 C   0  0  0  0  0  0  0  0  0  0  0  0
    4.2478   -1.5876    0.9759 O   0  0  0  0  0  0  0  0  0  0  0  0
    5.5325   -1.3291    0.4193 C   0  0  0  0  0  0  0  0  0  0  0  0
    1.8475   -1.3604    1.1634 C   0  0  0  0  0  0  0  0  0  0  0  0
    1.8299   -2.4839    2.5135 Cl  0  0  0  0  0  0  0  0  0  0  0  0
    0.6592   -0.7929    0.7100 C   0  0  0  0  0  0  0  0  0  0  0  0
    0.6411    0.0829   -0.3387 C   0  0  0  0  0  0  0  0  0  0  0  0
   -0.7418    0.4680   -0.5337 C   0  0  0  0  0  0  0  0  0  0  0  0
   -1.1549    1.2939   -1.3909 O   0  0  0  0  0  0  0  0  0  0  0  0
   -1.5924   -0.2548    0.4865 C   0  0  2  0  0  0  0  0  0  0  0  0
   -0.6169   -1.0136    1.2173 O   0  0  0  0  0  0  0  0  0  0  0  0
   -2.6347   -1.2224   -0.1462 C   0  0  2  0  0  0  0  0  0  0  0  0
   -2.0089   -2.2064   -1.1480 C   0  0  0  0  0  0  0  0  0  0  0  0
   -3.7927   -0.4476   -0.7996 C   0  0  0  0  0  0  0  0  0  0  0  0
   -4.3479    0.5770    0.1455 C   0  0  0  0  0  0  0  0  0  0  0  0
   -5.5285    0.9883   -0.0081 O   0  0  0  0  0  0  0  0  0  0  0  0
   -3.5170    1.1449    1.2215 C   0  0  0  0  0  0  0  0  0  0  0  0
   -2.2415    0.7538    1.4134 C   0  0  0  0  0  0  0  0  0  0  0  0
   -1.4467    1.2909    2.4419 O   0  0  0  0  0  0  0  0  0  0  0  0
   -1.8812    2.2602    3.3910 C   0  0  0  0  0  0  0  0  0  0  0  0
    3.5521    2.3465   -2.1794 H   0  0  0  0  0  0  0  0  0  0  0  0
    2.4797    2.5229   -3.6188 H   0  0  0  0  0  0  0  0  0  0  0  0
    3.3304    0.9578   -3.3362 H   0  0  0  0  0  0  0  0  0  0  0  0
    3.9425    0.1680   -1.0717 H   0  0  0  0  0  0  0  0  0  0  0  0
    6.2928   -1.9144    0.9758 H   0  0  0  0  0  0  0  0  0  0  0  0
    5.5562   -1.6388   -0.6468 H   0  0  0  0  0  0  0  0  0  0  0  0
    5.7782   -0.2500    0.5106 H   0  0  0  0  0  0  0  0  0  0  0  0
   -3.0658   -1.8326    0.6802 H   0  0  0  0  0  0  0  0  0  0  0  0
   -1.5939   -1.6705   -2.0279 H   0  0  0  0  0  0  0  0  0  0  0  0
   -2.7778   -2.9245   -1.5044 H   0  0  0  0  0  0  0  0  0  0  0  0
   -1.1962   -2.7878   -0.6638 H   0  0  0  0  0  0  0  0  0  0  0  0
   -3.4488    0.0657   -1.7224 H   0  0  0  0  0  0  0  0  0  0  0  0
   -4.5989   -1.1594   -1.0828 H   0  0  0  0  0  0  0  0  0  0  0  0
   -3.9724    1.8821    1.8685 H   0  0  0  0  0  0  0  0  0  0  0  0
   -2.1784    3.1962    2.8725 H   0  0  0  0  0  0  0  0  0  0  0  0
   -2.7324    1.8614    3.9823 H   0  0  0  0  0  0  0  0  0  0  0  0
   -1.0451    2.4890    4.0830 H   0  0  0  0  0  0  0  0  0  0  0  0
  1  2  1  0
  2  3  1  0
  3  4  2  0
  4  5  1  0
  5  6  1  0
  6  7  1  0
  5  8  2  0
  8  9  1  0
  8 10  1  0
 10 11  2  0
 11 12  1  0
 12 13  2  0
 12 14  1  0
 14 15  1  1
 14 16  1  0
 16 17  1  0
 16 18  1  0
 18 19  1  0
 19 20  2  0
 19 21  1  0
 21 22  2  0
 22 23  1  0
 23 24  1  0
 11  3  1  0
 22 14  1  0
 15 10  1  0
  1 25  1  0
  1 26  1  0
  1 27  1  0
  4 28  1  0
  7 29  1  0
  7 30  1  0
  7 31  1  0
 16 32  1  1
 17 33  1  0
 17 34  1  0
 17 35  1  0
 18 36  1  0
 18 37  1  0
 21 38  1  0
 24 39  1  0
 24 40  1  0
 24 41  1  0
M  END
$$$$
