
     RDKit          3D

 53 56  0  0  0  0  0  0  0  0999 V2000
    7.2744   -0.1355    0.8568 O   0  0  0  0  0  0  0  0  0  0  0  0
    6.9271   -1.1820   -0.0094 C   0  0  0  0  0  0  0  0  0  0  0  0
    5.5450   -1.7406    0.3461 C   0  0  0  0  0  0  0  0  0  0  0  0
    4.5211   -0.6749    0.3006 N   0  0  0  0  0  0  0  0  0  0  0  0
    3.4229   -0.9622    1.2506 C   0  0  0  0  0  0  0  0  0  0  0  0
    2.1811   -0.1254    0.9239 C   0  0  0  0  0  0  0  0  0  0  0  0
    1.6280   -0.4586   -0.4138 N   0  0  0  0  0  0  0  0  0  0  0  0
    0.8879    0.6823   -1.0004 C   0  0  0  0  0  0  0  0  0  0  0  0
   -0.3863    1.0120   -0.2047 C   0  0  0  0  0  0  0  0  0  0  0  0
   -1.3238   -0.2069   -0.0725 C   0  0  0  0  0  0  0  0  0  0  0  0
   -2.7440    0.1774   -0.1202 N   0  0  0  0  0  0  0  0  0  0  0  0
   -3.4695    0.1559   -1.3734 C   0  0  0  0  0  0  0  0  0  0  0  0
   -2.8949    0.6442   -2.5619 C   0  0  0  0  0  0  0  0  0  0  0  0
   -3.6663    0.7639   -3.7221 C   0  0  0  0  0  0  0  0  0  0  0  0
   -5.0156    0.4030   -3.7091 C   0  0  0  0  0  0  0  0  0  0  0  0
   -5.5909   -0.1083   -2.5439 C   0  0  0  0  0  0  0  0  0  0  0  0
   -4.8172   -0.2529   -1.3874 C   0  0  0  0  0  0  0  0  0  0  0  0
   -5.4985   -1.0946    0.0405 S   0  0  0  0  0  0  0  0  0  0  0  0
   -4.8262    0.0936    1.2010 C   0  0  0  0  0  0  0  0  0  0  0  0
   -3.4804    0.4947    1.0859 C   0  0  0  0  0  0  0  0  0  0  0  0
   -2.9305    1.3169    2.0863 C   0  0  0  0  0  0  0  0  0  0  0  0
   -3.7150    1.7449    3.1634 C   0  0  0  0  0  0  0  0  0  0  0  0
   -3.0198    2.7807    4.3969 Cl  0  0  0  0  0  0  0  0  0  0  0  0
   -5.0582    1.3679    3.2457 C   0  0  0  0  0  0  0  0  0  0  0  0
   -5.6136    0.5440    2.2654 C   0  0  0  0  0  0  0  0  0  0  0  0
    2.6496   -0.9856   -1.3538 C   0  0  0  0  0  0  0  0  0  0  0  0
    4.0468   -0.4023   -1.0822 C   0  0  0  0  0  0  0  0  0  0  0  0
    7.5248   -0.5537    1.7218 H   0  0  0  0  0  0  0  0  0  0  0  0
    6.9313   -0.7991   -1.0505 H   0  0  0  0  0  0  0  0  0  0  0  0
    7.6847   -1.9963    0.0465 H   0  0  0  0  0  0  0  0  0  0  0  0
    5.2829   -2.5749   -0.3430 H   0  0  0  0  0  0  0  0  0  0  0  0
    5.6199   -2.1743    1.3697 H   0  0  0  0  0  0  0  0  0  0  0  0
    3.7608   -0.7161    2.2805 H   0  0  0  0  0  0  0  0  0  0  0  0
    3.1430   -2.0408    1.2272 H   0  0  0  0  0  0  0  0  0  0  0  0
    1.4080   -0.3298    1.6951 H   0  0  0  0  0  0  0  0  0  0  0  0
    2.4610    0.9505    0.9941 H   0  0  0  0  0  0  0  0  0  0  0  0
    1.5374    1.5844   -1.0578 H   0  0  0  0  0  0  0  0  0  0  0  0
    0.5692    0.4424   -2.0391 H   0  0  0  0  0  0  0  0  0  0  0  0
   -0.0943    1.3800    0.7992 H   0  0  0  0  0  0  0  0  0  0  0  0
   -0.9085    1.8536   -0.7069 H   0  0  0  0  0  0  0  0  0  0  0  0
   -1.1088   -0.7344    0.8825 H   0  0  0  0  0  0  0  0  0  0  0  0
   -1.1247   -0.9431   -0.8829 H   0  0  0  0  0  0  0  0  0  0  0  0
   -1.8633    0.9588   -2.5953 H   0  0  0  0  0  0  0  0  0  0  0  0
   -3.2203    1.1506   -4.6294 H   0  0  0  0  0  0  0  0  0  0  0  0
   -5.6108    0.5027   -4.6075 H   0  0  0  0  0  0  0  0  0  0  0  0
   -6.6262   -0.4246   -2.5512 H   0  0  0  0  0  0  0  0  0  0  0  0
   -1.9128    1.6619    2.0226 H   0  0  0  0  0  0  0  0  0  0  0  0
   -5.6690    1.7041    4.0739 H   0  0  0  0  0  0  0  0  0  0  0  0
   -6.6467    0.2315    2.3504 H   0  0  0  0  0  0  0  0  0  0  0  0
    2.6972   -2.0901   -1.2414 H   0  0  0  0  0  0  0  0  0  0  0  0
    2.3770   -0.8009   -2.4165 H   0  0  0  0  0  0  0  0  0  0  0  0
    4.7490   -0.7923   -1.8514 H   0  0  0  0  0  0  0  0  0  0  0  0
    4.0059    0.6982   -1.2277 H   0  0  0  0  0  0  0  0  0  0  0  0
  1  2  1  0
  2  3  1  0
  3  4  1  0
  4  5  1  0
  5  6  1  0
  6  7  1  0
  7  8  1  0
  8  9  1  0
  9 10  1  0
 10 11  1  0
 11 12  1  0
 12 13  2  0
 13 14  1  0
 14 15  2  0
 15 16  1  0
 16 17  2  0
 17 18  1  0
 18 19  1  0
 19 20  2  0
 20 21  1  0
 21 22  2  0
 22 23  1  0
 22 24  1  0
 24 25  2  0
  7 26  1  0
 26 27  1  0
 27  4  1  0
 20 11  1  0
 17 12  1  0
 25 19  1  0
  1 28  1  0
  2 29  1  0
  2 30  1  0
  3 31  1  0
  3 32  1  0
  5 33  1  0
  5 34  1  0
  6 35  1  0
  6 36  1  0
  8 37  1  0
  8 38  1  0
  9 39  1  0
  9 40  1  0
 10 41  1  0
 10 42  1  0
 13 43  1  0
 14 44  1  0
 15 45  1  0
 16 46  1  0
 21 47  1  0
 24 48  1  0
 25 49  1  0
 26 50  1  0
 26 51  1  0
 27 52  1  0
 27 53  1  0
M  END
$$$$
