
     RDKit          3D

 32 33  0  0  0  0  0  0  0  0999 V2000
   -3.2039   -0.4804   -0.9455 C   0  0  1  0  0  0  0  0  0  0  0  0
   -2.9260    0.9842   -1.2823 C   0  0  0  0  0  0  0  0  0  0  0  0
   -1.6292    1.5832   -0.1650 S   0  0  0  0  0  0  0  0  0  0  0  0
   -0.8232   -0.0417   -0.2850 C   0  0  1  0  0  0  0  0  0  0  0  0
    0.2283   -0.2421    0.8269 C   0  0  0  0  0  0  0  0  0  0  0  0
    1.4764    0.6439    0.6598 C   0  0  0  0  0  0  0  0  0  0  0  0
    2.4326    0.1204   -0.4265 C   0  0  0  0  0  0  0  0  0  0  0  0
    3.6911    0.9888   -0.5562 C   0  0  0  0  0  0  0  0  0  0  0  0
    4.5842    0.8547    0.6390 C   0  0  0  0  0  0  0  0  0  0  0  0
    5.3500   -0.2948    0.8058 O   0  0  0  0  0  0  0  0  0  0  0  0
    4.6247    1.7698    1.5043 O   0  0  0  0  0  0  0  0  0  0  0  0
   -1.9416   -1.0978   -0.2767 C   0  0  1  0  0  0  0  0  0  0  0  0
   -2.3576   -1.4611    1.0782 N   0  0  0  0  0  0  0  0  0  0  0  0
   -3.7251   -1.1581    1.2092 C   0  0  0  0  0  0  0  0  0  0  0  0
   -4.3931   -1.3886    2.2508 O   0  0  0  0  0  0  0  0  0  0  0  0
   -4.2688   -0.5806    0.0478 N   0  0  0  0  0  0  0  0  0  0  0  0
   -3.4919   -1.0457   -1.8587 H   0  0  0  0  0  0  0  0  0  0  0  0
   -3.8386    1.6099   -1.1836 H   0  0  0  0  0  0  0  0  0  0  0  0
   -2.5545    1.0625   -2.3267 H   0  0  0  0  0  0  0  0  0  0  0  0
   -0.3275   -0.0962   -1.2771 H   0  0  0  0  0  0  0  0  0  0  0  0
   -0.2356   -0.0031    1.8089 H   0  0  0  0  0  0  0  0  0  0  0  0
    0.5398   -1.3093    0.8595 H   0  0  0  0  0  0  0  0  0  0  0  0
    1.1801    1.6904    0.4327 H   0  0  0  0  0  0  0  0  0  0  0  0
    2.0132    0.6554    1.6329 H   0  0  0  0  0  0  0  0  0  0  0  0
    1.9180    0.1249   -1.4096 H   0  0  0  0  0  0  0  0  0  0  0  0
    2.7255   -0.9291   -0.2027 H   0  0  0  0  0  0  0  0  0  0  0  0
    4.2589    0.6660   -1.4550 H   0  0  0  0  0  0  0  0  0  0  0  0
    3.4062    2.0533   -0.7063 H   0  0  0  0  0  0  0  0  0  0  0  0
    5.9507   -0.4059    1.6139 H   0  0  0  0  0  0  0  0  0  0  0  0
   -1.6169   -2.0131   -0.8188 H   0  0  0  0  0  0  0  0  0  0  0  0
   -1.7854   -1.9797    1.7812 H   0  0  0  0  0  0  0  0  0  0  0  0
   -5.2609   -0.2801   -0.0794 H   0  0  0  0  0  0  0  0  0  0  0  0
  1  2  1  0
  2  3  1  0
  3  4  1  0
  4  5  1  0
  5  6  1  0
  6  7  1  0
  7  8  1  0
  8  9  1  0
  9 10  1  0
  9 11  2  0
  4 12  1  0
 12 13  1  0
 13 14  1  0
 14 15  2  0
 14 16  1  0
 12  1  1  0
 16  1  1  0
  1 17  1  6
  2 18  1  0
  2 19  1  0
  4 20  1  6
  5 21  1  0
  5 22  1  0
  6 23  1  0
  6 24  1  0
  7 25  1  0
  7 26  1  0
  8 27  1  0
  8 28  1  0
 10 29  1  0
 12 30  1  6
 13 31  1  0
 16 32  1  0
M  END
$$$$
