
     RDKit          3D

 34 35  0  0  0  0  0  0  0  0999 V2000
   -6.3171    1.4013    0.3602 N   0  0  0  0  0  0  0  0  0  0  0  0
   -5.3453    1.1199   -1.0412 S   0  0  0  0  0  6  0  0  0  0  0  0
   -6.0884    0.2276   -1.9955 O   0  0  0  0  0  0  0  0  0  0  0  0
   -5.0631    2.4276   -1.7263 O   0  0  0  0  0  0  0  0  0  0  0  0
   -3.8309    0.3562   -0.5673 C   0  0  0  0  0  0  0  0  0  0  0  0
   -3.7375   -1.0387   -0.4956 C   0  0  0  0  0  0  0  0  0  0  0  0
   -2.5403   -1.6454   -0.1050 C   0  0  0  0  0  0  0  0  0  0  0  0
   -1.4153   -0.8650    0.2173 C   0  0  0  0  0  0  0  0  0  0  0  0
   -1.5233    0.5370    0.1624 C   0  0  0  0  0  0  0  0  0  0  0  0
   -2.7224    1.1409   -0.2275 C   0  0  0  0  0  0  0  0  0  0  0  0
   -0.1530   -1.5213    0.6353 C   0  0  0  0  0  0  0  0  0  0  0  0
   -0.1929   -2.6849    1.1219 O   0  0  0  0  0  0  0  0  0  0  0  0
    1.1139   -0.8631    0.4799 N   0  0  0  0  0  0  0  0  0  0  0  0
    2.3395   -1.4356    1.0361 C   0  0  0  0  0  0  0  0  0  0  0  0
    3.5172   -0.5328    0.7670 C   0  0  0  0  0  0  0  0  0  0  0  0
    4.2766   -0.6840   -0.4089 C   0  0  0  0  0  0  0  0  0  0  0  0
    3.9806   -1.6614   -1.3030 F   0  0  0  0  0  0  0  0  0  0  0  0
    5.3455    0.1790   -0.6716 C   0  0  0  0  0  0  0  0  0  0  0  0
    5.6572    1.2044    0.2246 C   0  0  0  0  0  0  0  0  0  0  0  0
    6.6927    2.0402   -0.0351 F   0  0  0  0  0  0  0  0  0  0  0  0
    4.8963    1.3742    1.3838 C   0  0  0  0  0  0  0  0  0  0  0  0
    3.8258    0.5157    1.6544 C   0  0  0  0  0  0  0  0  0  0  0  0
    3.0886    0.7109    2.7773 F   0  0  0  0  0  0  0  0  0  0  0  0
   -5.7492    1.9875    1.0122 H   0  0  0  0  0  0  0  0  0  0  0  0
   -6.4531    0.4769    0.8275 H   0  0  0  0  0  0  0  0  0  0  0  0
   -4.5914   -1.6580   -0.7392 H   0  0  0  0  0  0  0  0  0  0  0  0
   -2.4918   -2.7266   -0.0640 H   0  0  0  0  0  0  0  0  0  0  0  0
   -0.6948    1.1724    0.4452 H   0  0  0  0  0  0  0  0  0  0  0  0
   -2.7878    2.2212   -0.2549 H   0  0  0  0  0  0  0  0  0  0  0  0
    1.1712    0.0126   -0.0874 H   0  0  0  0  0  0  0  0  0  0  0  0
    2.2155   -1.5794    2.1314 H   0  0  0  0  0  0  0  0  0  0  0  0
    2.5142   -2.4398    0.5928 H   0  0  0  0  0  0  0  0  0  0  0  0
    5.9300    0.0554   -1.5743 H   0  0  0  0  0  0  0  0  0  0  0  0
    5.1331    2.1756    2.0719 H   0  0  0  0  0  0  0  0  0  0  0  0
  1  2  1  0
  2  3  2  0
  2  4  2  0
  2  5  1  0
  5  6  2  0
  6  7  1  0
  7  8  2  0
  8  9  1  0
  9 10  2  0
  8 11  1  0
 11 12  2  0
 11 13  1  0
 13 14  1  0
 14 15  1  0
 15 16  2  0
 16 17  1  0
 16 18  1  0
 18 19  2  0
 19 20  1  0
 19 21  1  0
 21 22  2  0
 22 23  1  0
 10  5  1  0
 22 15  1  0
  1 24  1  0
  1 25  1  0
  6 26  1  0
  7 27  1  0
  9 28  1  0
 10 29  1  0
 13 30  1  0
 14 31  1  0
 14 32  1  0
 18 33  1  0
 21 34  1  0
M  END
$$$$
