
     RDKit          3D

 53 55  0  0  0  0  0  0  0  0999 V2000
    4.1811   -2.2260   -0.1843 C   0  0  0  0  0  0  0  0  0  0  0  0
    3.9967   -0.7773   -0.3087 N   0  0  0  0  0  0  0  0  0  0  0  0
    4.6243   -0.0935   -1.4508 C   0  0  0  0  0  0  0  0  0  0  0  0
    4.7217    1.4141   -1.2140 C   0  0  0  0  0  0  0  0  0  0  0  0
    3.3581    1.9445   -0.7855 C   0  0  0  0  0  0  0  0  0  0  0  0
    2.8741    1.2124    0.3803 N   0  0  0  0  0  0  0  0  0  0  0  0
    3.1118   -0.0508    0.5842 C   0  0  0  0  0  0  0  0  0  0  0  0
    2.5255   -0.6790    1.8237 C   0  0  0  0  0  0  0  0  0  0  0  0
    1.1223   -0.4317    1.8869 O   0  0  0  0  0  0  0  0  0  0  0  0
    0.1948   -1.0452    1.0336 C   0  0  0  0  0  0  0  0  0  0  0  0
    0.5748   -1.9515    0.2416 O   0  0  0  0  0  0  0  0  0  0  0  0
   -1.2858   -0.7084    1.1728 C   0  0  0  0  0  0  0  0  0  0  0  0
   -1.7727   -1.4918    2.2408 O   0  0  0  0  0  0  0  0  0  0  0  0
   -2.0894   -1.1263   -0.1129 C   0  0  0  0  0  0  0  0  0  0  0  0
   -1.5786   -0.4801   -1.4365 C   0  0  0  0  0  0  0  0  0  0  0  0
   -2.6249   -0.4868   -2.5716 C   0  0  0  0  0  0  0  0  0  0  0  0
   -3.6109   -1.6498   -2.4355 C   0  0  0  0  0  0  0  0  0  0  0  0
   -4.3994   -1.5730   -1.1135 C   0  0  0  0  0  0  0  0  0  0  0  0
   -3.6131   -0.9033    0.0328 C   0  0  0  0  0  0  0  0  0  0  0  0
   -1.4914    0.7864    1.4920 C   0  0  0  0  0  0  0  0  0  0  0  0
   -2.5624    1.1977    2.3154 C   0  0  0  0  0  0  0  0  0  0  0  0
   -2.7736    2.5510    2.5937 C   0  0  0  0  0  0  0  0  0  0  0  0
   -1.9275    3.5187    2.0520 C   0  0  0  0  0  0  0  0  0  0  0  0
   -0.8709    3.1358    1.2258 C   0  0  0  0  0  0  0  0  0  0  0  0
   -0.6554    1.7846    0.9427 C   0  0  0  0  0  0  0  0  0  0  0  0
    4.8133   -2.6242   -1.0067 H   0  0  0  0  0  0  0  0  0  0  0  0
    3.1986   -2.7396   -0.2354 H   0  0  0  0  0  0  0  0  0  0  0  0
    4.6828   -2.4603    0.7780 H   0  0  0  0  0  0  0  0  0  0  0  0
    4.0235   -0.2889   -2.3656 H   0  0  0  0  0  0  0  0  0  0  0  0
    5.6503   -0.4887   -1.6166 H   0  0  0  0  0  0  0  0  0  0  0  0
    5.0498    1.9228   -2.1459 H   0  0  0  0  0  0  0  0  0  0  0  0
    5.4684    1.6194   -0.4158 H   0  0  0  0  0  0  0  0  0  0  0  0
    3.4311    3.0240   -0.5365 H   0  0  0  0  0  0  0  0  0  0  0  0
    2.6312    1.8251   -1.6182 H   0  0  0  0  0  0  0  0  0  0  0  0
    3.0053   -0.2139    2.7100 H   0  0  0  0  0  0  0  0  0  0  0  0
    2.7076   -1.7696    1.8904 H   0  0  0  0  0  0  0  0  0  0  0  0
   -1.2859   -1.2301    3.0677 H   0  0  0  0  0  0  0  0  0  0  0  0
   -1.9540   -2.2277   -0.2203 H   0  0  0  0  0  0  0  0  0  0  0  0
   -0.6778   -1.0286   -1.7852 H   0  0  0  0  0  0  0  0  0  0  0  0
   -1.2776    0.5718   -1.2805 H   0  0  0  0  0  0  0  0  0  0  0  0
   -2.1080   -0.5508   -3.5536 H   0  0  0  0  0  0  0  0  0  0  0  0
   -3.1951    0.4686   -2.5567 H   0  0  0  0  0  0  0  0  0  0  0  0
   -3.0474   -2.6079   -2.4793 H   0  0  0  0  0  0  0  0  0  0  0  0
   -4.3199   -1.6392   -3.2914 H   0  0  0  0  0  0  0  0  0  0  0  0
   -5.3410   -1.0050   -1.2782 H   0  0  0  0  0  0  0  0  0  0  0  0
   -4.6850   -2.6042   -0.8116 H   0  0  0  0  0  0  0  0  0  0  0  0
   -3.8277    0.1878    0.0225 H   0  0  0  0  0  0  0  0  0  0  0  0
   -3.9816   -1.3109    0.9985 H   0  0  0  0  0  0  0  0  0  0  0  0
   -3.2440    0.4728    2.7412 H   0  0  0  0  0  0  0  0  0  0  0  0
   -3.5980    2.8496    3.2284 H   0  0  0  0  0  0  0  0  0  0  0  0
   -2.0937    4.5661    2.2683 H   0  0  0  0  0  0  0  0  0  0  0  0
   -0.2189    3.8873    0.7997 H   0  0  0  0  0  0  0  0  0  0  0  0
    0.1644    1.5236    0.2881 H   0  0  0  0  0  0  0  0  0  0  0  0
  1  2  1  0
  2  3  1  0
  3  4  1  0
  4  5  1  0
  5  6  1  0
  6  7  2  0
  7  8  1  0
  8  9  1  0
  9 10  1  0
 10 11  2  0
 10 12  1  0
 12 13  1  0
 12 14  1  0
 14 15  1  0
 15 16  1  0
 16 17  1  0
 17 18  1  0
 18 19  1  0
 12 20  1  0
 20 21  2  0
 21 22  1  0
 22 23  2  0
 23 24  1  0
 24 25  2  0
  7  2  1  0
 19 14  1  0
 25 20  1  0
  1 26  1  0
  1 27  1  0
  1 28  1  0
  3 29  1  0
  3 30  1  0
  4 31  1  0
  4 32  1  0
  5 33  1  0
  5 34  1  0
  8 35  1  0
  8 36  1  0
 13 37  1  0
 14 38  1  0
 15 39  1  0
 15 40  1  0
 16 41  1  0
 16 42  1  0
 17 43  1  0
 17 44  1  0
 18 45  1  0
 18 46  1  0
 19 47  1  0
 19 48  1  0
 21 49  1  0
 22 50  1  0
 23 51  1  0
 24 52  1  0
 25 53  1  0
M  END
$$$$
