
     RDKit          3D

 34 37  0  0  0  0  0  0  0  0999 V2000
    5.8720    1.9461   -0.2179 N   0  0  0  0  0  0  0  0  0  0  0  0
    4.6909    1.4519    0.4090 C   0  0  0  0  0  0  0  0  0  0  0  0
    4.5371    1.5635    1.7541 N   0  0  0  0  0  0  0  0  0  0  0  0
    3.4211    1.0949    2.3682 C   0  0  0  0  0  0  0  0  0  0  0  0
    2.4123    0.4915    1.6181 C   0  0  0  0  0  0  0  0  0  0  0  0
    2.5750    0.3878    0.2267 C   0  0  0  0  0  0  0  0  0  0  0  0
    3.7177    0.8674   -0.3384 N   0  0  0  0  0  0  0  0  0  0  0  0
    1.5457   -0.2462   -0.6365 C   0  0  0  0  0  0  0  0  0  0  0  0
    0.1755   -0.2335   -0.2725 C   0  0  0  0  0  0  0  0  0  0  0  0
   -0.7375   -0.8513   -1.1280 C   0  0  0  0  0  0  0  0  0  0  0  0
   -2.1122   -0.9945   -1.1118 C   0  0  0  0  0  0  0  0  0  0  0  0
   -2.4593   -1.5915   -2.2387 O   0  0  0  0  0  0  0  0  0  0  0  0
   -1.4226   -1.8611   -2.9880 N   0  0  0  0  0  0  0  0  0  0  0  0
   -0.3524   -1.4103   -2.3118 C   0  0  0  0  0  0  0  0  0  0  0  0
    0.9766   -1.4323   -2.7171 C   0  0  0  0  0  0  0  0  0  0  0  0
    1.9318   -0.8482   -1.8660 C   0  0  0  0  0  0  0  0  0  0  0  0
   -3.0734   -0.5769   -0.0718 C   0  0  0  0  0  0  0  0  0  0  0  0
   -2.7455   -0.6388    1.2939 C   0  0  0  0  0  0  0  0  0  0  0  0
   -3.6777   -0.2516    2.2615 C   0  0  0  0  0  0  0  0  0  0  0  0
   -4.9480    0.1878    1.8763 C   0  0  0  0  0  0  0  0  0  0  0  0
   -6.1164    0.6711    3.0920 Cl  0  0  0  0  0  0  0  0  0  0  0  0
   -5.2893    0.2302    0.5211 C   0  0  0  0  0  0  0  0  0  0  0  0
   -4.3595   -0.1573   -0.4487 C   0  0  0  0  0  0  0  0  0  0  0  0
    6.6236    2.3959    0.3504 H   0  0  0  0  0  0  0  0  0  0  0  0
    5.9962    1.8626   -1.2513 H   0  0  0  0  0  0  0  0  0  0  0  0
    3.3197    1.1850    3.4415 H   0  0  0  0  0  0  0  0  0  0  0  0
    1.5408    0.0966    2.1227 H   0  0  0  0  0  0  0  0  0  0  0  0
   -0.1664    0.2797    0.6142 H   0  0  0  0  0  0  0  0  0  0  0  0
    1.2670   -1.8767   -3.6604 H   0  0  0  0  0  0  0  0  0  0  0  0
    2.9718   -0.8645   -2.1669 H   0  0  0  0  0  0  0  0  0  0  0  0
   -1.7855   -1.0174    1.6176 H   0  0  0  0  0  0  0  0  0  0  0  0
   -3.4150   -0.3037    3.3105 H   0  0  0  0  0  0  0  0  0  0  0  0
   -6.2743    0.5617    0.2179 H   0  0  0  0  0  0  0  0  0  0  0  0
   -4.6396   -0.1177   -1.4943 H   0  0  0  0  0  0  0  0  0  0  0  0
  1  2  1  0
  2  3  2  0
  3  4  1  0
  4  5  2  0
  5  6  1  0
  6  7  2  0
  6  8  1  0
  8  9  2  0
  9 10  1  0
 10 11  2  0
 11 12  1  0
 12 13  1  0
 13 14  2  0
 14 15  1  0
 15 16  2  0
 11 17  1  0
 17 18  2  0
 18 19  1  0
 19 20  2  0
 20 21  1  0
 20 22  1  0
 22 23  2  0
  7  2  1  0
 16  8  1  0
 23 17  1  0
 14 10  1  0
  1 24  1  0
  1 25  1  0
  4 26  1  0
  5 27  1  0
  9 28  1  0
 15 29  1  0
 16 30  1  0
 18 31  1  0
 19 32  1  0
 22 33  1  0
 23 34  1  0
M  END
$$$$
