
     RDKit          3D

 43 44  0  0  0  0  0  0  0  0999 V2000
    7.5470    0.6240    0.1999 O   0  0  0  0  0  0  0  0  0  0  0  0
    6.6406   -0.0431    1.0179 C   0  0  0  0  0  0  0  0  0  0  0  0
    6.9690   -0.3652    2.1911 O   0  0  0  0  0  0  0  0  0  0  0  0
    5.2608   -0.3344    0.5185 C   0  0  0  0  0  0  0  0  0  0  0  0
    4.3168    0.8292    0.8474 C   0  0  0  0  0  0  0  0  0  0  0  0
    2.9171    0.6443    0.2411 C   0  0  0  0  0  0  0  0  0  0  0  0
    2.1081   -0.4517    0.9438 C   0  0  0  0  0  0  0  0  0  0  0  0
    0.7961   -0.5146    0.4033 O   0  0  0  0  0  0  0  0  0  0  0  0
   -0.1125    0.4950    0.6391 N   0  0  0  0  0  0  0  0  0  0  0  0
   -1.3103    0.4889    0.1330 C   0  0  0  0  0  0  0  0  0  0  0  0
   -2.2444    1.5942    0.4785 C   0  0  0  0  0  0  0  0  0  0  0  0
   -2.0394    2.3741    1.6321 C   0  0  0  0  0  0  0  0  0  0  0  0
   -2.8937    3.3864    1.9398 N   0  0  0  0  0  0  0  0  0  0  0  0
   -3.9611    3.6859    1.1548 C   0  0  0  0  0  0  0  0  0  0  0  0
   -4.2036    2.9491   -0.0040 C   0  0  0  0  0  0  0  0  0  0  0  0
   -3.3431    1.9043   -0.3439 C   0  0  0  0  0  0  0  0  0  0  0  0
   -1.7425   -0.6151   -0.7601 C   0  0  0  0  0  0  0  0  0  0  0  0
   -2.9189   -1.3296   -0.4791 C   0  0  0  0  0  0  0  0  0  0  0  0
   -3.3505   -2.3634   -1.3292 C   0  0  0  0  0  0  0  0  0  0  0  0
   -2.5632   -2.7057   -2.4422 C   0  0  0  0  0  0  0  0  0  0  0  0
   -1.3940   -1.9960   -2.7258 C   0  0  0  0  0  0  0  0  0  0  0  0
   -0.9868   -0.9515   -1.8939 C   0  0  0  0  0  0  0  0  0  0  0  0
   -4.5885   -3.1568   -0.9942 C   0  0  0  0  0  0  0  0  0  0  0  0
   -4.2471   -4.1989   -0.1528 F   0  0  0  0  0  0  0  0  0  0  0  0
   -5.5244   -2.3554   -0.3634 F   0  0  0  0  0  0  0  0  0  0  0  0
   -5.1655   -3.6738   -2.1413 F   0  0  0  0  0  0  0  0  0  0  0  0
    8.4798    0.8432    0.5289 H   0  0  0  0  0  0  0  0  0  0  0  0
    5.3008   -0.4906   -0.5812 H   0  0  0  0  0  0  0  0  0  0  0  0
    4.8978   -1.2717    0.9907 H   0  0  0  0  0  0  0  0  0  0  0  0
    4.2365    0.9528    1.9501 H   0  0  0  0  0  0  0  0  0  0  0  0
    4.7478    1.7679    0.4339 H   0  0  0  0  0  0  0  0  0  0  0  0
    2.9983    0.4125   -0.8434 H   0  0  0  0  0  0  0  0  0  0  0  0
    2.3699    1.6071    0.3378 H   0  0  0  0  0  0  0  0  0  0  0  0
    2.5919   -1.4379    0.7902 H   0  0  0  0  0  0  0  0  0  0  0  0
    2.0483   -0.2515    2.0357 H   0  0  0  0  0  0  0  0  0  0  0  0
   -1.2075    2.1741    2.2949 H   0  0  0  0  0  0  0  0  0  0  0  0
   -4.6200    4.4988    1.4294 H   0  0  0  0  0  0  0  0  0  0  0  0
   -5.0489    3.1884   -0.6362 H   0  0  0  0  0  0  0  0  0  0  0  0
   -3.5311    1.3513   -1.2552 H   0  0  0  0  0  0  0  0  0  0  0  0
   -3.4928   -1.0822    0.4061 H   0  0  0  0  0  0  0  0  0  0  0  0
   -2.8515   -3.5217   -3.0929 H   0  0  0  0  0  0  0  0  0  0  0  0
   -0.8006   -2.2578   -3.5924 H   0  0  0  0  0  0  0  0  0  0  0  0
   -0.0846   -0.4030   -2.1358 H   0  0  0  0  0  0  0  0  0  0  0  0
  1  2  1  0
  2  3  2  0
  2  4  1  0
  4  5  1  0
  5  6  1  0
  6  7  1  0
  7  8  1  0
  8  9  1  0
  9 10  2  0
 10 11  1  0
 11 12  2  0
 12 13  1  0
 13 14  2  0
 14 15  1  0
 15 16  2  0
 10 17  1  0
 17 18  2  0
 18 19  1  0
 19 20  2  0
 20 21  1  0
 21 22  2  0
 19 23  1  0
 23 24  1  0
 23 25  1  0
 23 26  1  0
 16 11  1  0
 22 17  1  0
  1 27  1  0
  4 28  1  0
  4 29  1  0
  5 30  1  0
  5 31  1  0
  6 32  1  0
  6 33  1  0
  7 34  1  0
  7 35  1  0
 12 36  1  0
 14 37  1  0
 15 38  1  0
 16 39  1  0
 18 40  1  0
 20 41  1  0
 21 42  1  0
 22 43  1  0
M  END
$$$$
