
     RDKit          3D

 58 61  0  0  0  0  0  0  0  0999 V2000
    6.3507    2.7261   -2.8767 C   0  0  0  0  0  0  0  0  0  0  0  0
    5.7526    2.3979   -1.6269 O   0  0  0  0  0  0  0  0  0  0  0  0
    5.6263    1.0928   -1.1282 C   0  0  0  0  0  0  0  0  0  0  0  0
    6.0941   -0.0336   -1.8317 C   0  0  0  0  0  0  0  0  0  0  0  0
    5.9413   -1.3145   -1.2921 C   0  0  0  0  0  0  0  0  0  0  0  0
    5.3108   -1.4939   -0.0563 C   0  0  0  0  0  0  0  0  0  0  0  0
    5.1850   -2.7947    0.4544 O   0  0  0  0  0  0  0  0  0  0  0  0
    4.1457   -3.2469    1.2802 C   0  0  0  0  0  0  0  0  0  0  0  0
    4.3960   -4.2589    2.1499 N   0  0  0  0  0  0  0  0  0  0  0  0
    3.4221   -4.7482    2.9577 C   0  0  0  0  0  0  0  0  0  0  0  0
    2.1690   -4.2299    2.9038 N   0  0  0  0  0  0  0  0  0  0  0  0
    1.8491   -3.2200    2.0474 C   0  0  0  0  0  0  0  0  0  0  0  0
    2.8493   -2.7164    1.1969 C   0  0  0  0  0  0  0  0  0  0  0  0
    0.4947   -2.7085    2.0256 N   0  0  0  0  0  0  0  0  0  0  0  0
   -0.5695   -3.4927    2.6609 C   0  0  0  0  0  0  0  0  0  0  0  0
    0.1453   -1.4319    1.3847 C   0  0  0  0  0  0  0  0  0  0  0  0
   -0.2921   -1.6625   -0.0647 C   0  0  0  0  0  0  0  0  0  0  0  0
   -0.5734   -0.4201   -0.7091 O   0  0  0  0  0  0  0  0  0  0  0  0
   -1.7202    0.3647   -0.5045 C   0  0  0  0  0  0  0  0  0  0  0  0
   -1.7825    1.6158   -1.1290 C   0  0  0  0  0  0  0  0  0  0  0  0
   -2.8987    2.4400   -0.9627 C   0  0  0  0  0  0  0  0  0  0  0  0
   -3.9738    2.0235   -0.1633 C   0  0  0  0  0  0  0  0  0  0  0  0
   -5.1868    2.9048   -0.0057 C   0  0  0  0  0  0  0  0  0  0  0  0
   -6.1075    2.8226   -1.2337 C   0  0  0  0  0  0  0  0  0  0  0  0
   -6.8581    1.1436   -1.3795 S   0  0  0  0  0  0  0  0  0  0  0  0
   -8.4856    1.8411   -1.1553 C   0  0  0  0  0  0  0  0  0  0  0  0
   -9.5219    1.1305   -1.0864 O   0  0  0  0  0  0  0  0  0  0  0  0
   -8.5369    3.2481   -1.0506 N   0  0  0  0  0  0  0  0  0  0  0  0
   -7.2370    3.8021   -1.1143 C   0  0  0  0  0  0  0  0  0  0  0  0
   -7.0515    5.0477   -1.0842 O   0  0  0  0  0  0  0  0  0  0  0  0
   -3.9204    0.7657    0.4569 C   0  0  0  0  0  0  0  0  0  0  0  0
   -2.8040   -0.0589    0.2897 C   0  0  0  0  0  0  0  0  0  0  0  0
    4.8630   -0.3677    0.6565 C   0  0  0  0  0  0  0  0  0  0  0  0
    5.0149    0.9130    0.1179 C   0  0  0  0  0  0  0  0  0  0  0  0
    7.4125    2.4009   -2.8889 H   0  0  0  0  0  0  0  0  0  0  0  0
    6.3143    3.8256   -3.0184 H   0  0  0  0  0  0  0  0  0  0  0  0
    5.7928    2.2419   -3.7058 H   0  0  0  0  0  0  0  0  0  0  0  0
    6.5772    0.0694   -2.7937 H   0  0  0  0  0  0  0  0  0  0  0  0
    6.3057   -2.1733   -1.8415 H   0  0  0  0  0  0  0  0  0  0  0  0
    3.6445   -5.5522    3.6456 H   0  0  0  0  0  0  0  0  0  0  0  0
    2.6322   -1.9557    0.4627 H   0  0  0  0  0  0  0  0  0  0  0  0
   -0.5990   -4.5112    2.2192 H   0  0  0  0  0  0  0  0  0  0  0  0
   -1.5654   -3.0237    2.5099 H   0  0  0  0  0  0  0  0  0  0  0  0
   -0.3798   -3.5697    3.7523 H   0  0  0  0  0  0  0  0  0  0  0  0
   -0.6741   -0.9406    1.9508 H   0  0  0  0  0  0  0  0  0  0  0  0
    0.9995   -0.7232    1.4244 H   0  0  0  0  0  0  0  0  0  0  0  0
    0.5306   -2.1587   -0.6192 H   0  0  0  0  0  0  0  0  0  0  0  0
   -1.1711   -2.3395   -0.1156 H   0  0  0  0  0  0  0  0  0  0  0  0
   -0.9594    1.9514   -1.7472 H   0  0  0  0  0  0  0  0  0  0  0  0
   -2.9265    3.4026   -1.4583 H   0  0  0  0  0  0  0  0  0  0  0  0
   -5.7545    2.6247    0.9094 H   0  0  0  0  0  0  0  0  0  0  0  0
   -4.8459    3.9544    0.1345 H   0  0  0  0  0  0  0  0  0  0  0  0
   -5.5356    3.0458   -2.1602 H   0  0  0  0  0  0  0  0  0  0  0  0
   -9.4146    3.8037   -0.9424 H   0  0  0  0  0  0  0  0  0  0  0  0
   -4.7460    0.4204    1.0670 H   0  0  0  0  0  0  0  0  0  0  0  0
   -2.8007   -1.0221    0.7790 H   0  0  0  0  0  0  0  0  0  0  0  0
    4.4120   -0.4768    1.6341 H   0  0  0  0  0  0  0  0  0  0  0  0
    4.6614    1.7717    0.6747 H   0  0  0  0  0  0  0  0  0  0  0  0
  1  2  1  0
  2  3  1  0
  3  4  2  0
  4  5  1  0
  5  6  2  0
  6  7  1  0
  7  8  1  0
  8  9  2  0
  9 10  1  0
 10 11  2  0
 11 12  1  0
 12 13  2  0
 12 14  1  0
 14 15  1  0
 14 16  1  0
 16 17  1  0
 17 18  1  0
 18 19  1  0
 19 20  2  0
 20 21  1  0
 21 22  2  0
 22 23  1  0
 23 24  1  0
 24 25  1  0
 25 26  1  0
 26 27  2  0
 26 28  1  0
 28 29  1  0
 29 30  2  0
 22 31  1  0
 31 32  2  0
  6 33  1  0
 33 34  2  0
 34  3  1  0
 13  8  1  0
 32 19  1  0
 29 24  1  0
  1 35  1  0
  1 36  1  0
  1 37  1  0
  4 38  1  0
  5 39  1  0
 10 40  1  0
 13 41  1  0
 15 42  1  0
 15 43  1  0
 15 44  1  0
 16 45  1  0
 16 46  1  0
 17 47  1  0
 17 48  1  0
 20 49  1  0
 21 50  1  0
 23 51  1  0
 23 52  1  0
 24 53  1  0
 28 54  1  0
 31 55  1  0
 32 56  1  0
 33 57  1  0
 34 58  1  0
M  END
$$$$
