
     RDKit          3D

 67 70  0  0  0  0  0  0  0  0999 V2000
   -4.7877    0.2990    3.3270 C   0  0  0  0  0  0  0  0  0  0  0  0
   -3.7456    0.0221    2.4001 O   0  0  0  0  0  0  0  0  0  0  0  0
   -2.7464   -0.9246    2.6496 C   0  0  0  0  0  0  0  0  0  0  0  0
   -2.7351   -1.5753    3.7305 O   0  0  0  0  0  0  0  0  0  0  0  0
   -1.6683   -1.1552    1.6268 C   0  0  0  0  0  0  0  0  0  0  0  0
   -0.7610    0.0883    1.5410 C   0  0  0  0  0  0  0  0  0  0  0  0
    0.0894    0.0781    0.2683 C   0  0  0  0  0  0  0  0  0  0  0  0
   -0.7463   -0.0441   -0.9408 N   0  0  0  0  0  0  0  0  0  0  0  0
   -2.1499   -0.4664   -0.8042 C   0  0  0  0  0  0  0  0  0  0  0  0
   -2.2778   -1.5624    0.2594 C   0  0  0  0  0  0  0  0  0  0  0  0
   -0.2539    0.3633   -2.2402 C   0  0  0  0  0  0  0  0  0  0  0  0
   -1.0744    0.5768   -3.1754 O   0  0  0  0  0  0  0  0  0  0  0  0
    1.2276    0.5609   -2.5249 C   0  0  2  0  0  0  0  0  0  0  0  0
    1.5326    2.0508   -2.7921 C   0  0  0  0  0  0  0  0  0  0  0  0
    1.3475    2.8967   -1.5577 C   0  0  0  0  0  0  0  0  0  0  0  0
    2.4169    3.0937   -0.6718 C   0  0  0  0  0  0  0  0  0  0  0  0
    2.2242    3.8015    0.5155 C   0  0  0  0  0  0  0  0  0  0  0  0
    0.9624    4.3077    0.8365 C   0  0  0  0  0  0  0  0  0  0  0  0
   -0.1244    4.1201   -0.0364 C   0  0  0  0  0  0  0  0  0  0  0  0
    0.0817    3.4153   -1.2371 C   0  0  0  0  0  0  0  0  0  0  0  0
   -1.4779    4.6151    0.3168 C   0  0  0  0  0  0  0  0  0  0  0  0
   -1.6453    5.7509    1.1743 N   0  0  0  0  0  0  0  0  0  0  0  0
   -2.5233    4.0149   -0.1605 N   0  0  0  0  0  0  0  0  0  0  0  0
    1.6663   -0.2279   -3.6905 N   0  0  0  0  0  0  0  0  0  0  0  0
    1.4511   -1.9455   -3.4707 S   0  0  0  0  0  6  0  0  0  0  0  0
    2.3143   -2.6737   -4.4615 O   0  0  0  0  0  0  0  0  0  0  0  0
    0.0140   -2.2963   -3.7418 O   0  0  0  0  0  0  0  0  0  0  0  0
    1.9008   -2.4700   -1.8483 C   0  0  0  0  0  0  0  0  0  0  0  0
    3.1516   -2.1188   -1.3247 C   0  0  0  0  0  0  0  0  0  0  0  0
    3.5042   -2.4913   -0.0251 C   0  0  0  0  0  0  0  0  0  0  0  0
    2.6110   -3.2320    0.7627 C   0  0  0  0  0  0  0  0  0  0  0  0
    2.9458   -3.5952    2.0763 C   0  0  0  0  0  0  0  0  0  0  0  0
    2.0441   -4.3291    2.8524 C   0  0  0  0  0  0  0  0  0  0  0  0
    0.8075   -4.7088    2.3240 C   0  0  0  0  0  0  0  0  0  0  0  0
    0.4634   -4.3567    1.0160 C   0  0  0  0  0  0  0  0  0  0  0  0
    1.3566   -3.6141    0.2283 C   0  0  0  0  0  0  0  0  0  0  0  0
    1.0134   -3.2350   -1.0779 C   0  0  0  0  0  0  0  0  0  0  0  0
   -5.4517    1.0812    2.9055 H   0  0  0  0  0  0  0  0  0  0  0  0
   -5.3849   -0.6188    3.5126 H   0  0  0  0  0  0  0  0  0  0  0  0
   -4.3583    0.6677    4.2825 H   0  0  0  0  0  0  0  0  0  0  0  0
   -1.0372   -2.0033    1.9769 H   0  0  0  0  0  0  0  0  0  0  0  0
   -0.0941    0.1266    2.4300 H   0  0  0  0  0  0  0  0  0  0  0  0
   -1.3738    1.0180    1.5401 H   0  0  0  0  0  0  0  0  0  0  0  0
    0.8123   -0.7607    0.3107 H   0  0  0  0  0  0  0  0  0  0  0  0
    0.6588    1.0261    0.2494 H   0  0  0  0  0  0  0  0  0  0  0  0
   -2.5334   -0.8762   -1.7640 H   0  0  0  0  0  0  0  0  0  0  0  0
   -2.7749    0.4095   -0.5256 H   0  0  0  0  0  0  0  0  0  0  0  0
   -1.7467   -2.4634   -0.1153 H   0  0  0  0  0  0  0  0  0  0  0  0
   -3.3478   -1.8506    0.3585 H   0  0  0  0  0  0  0  0  0  0  0  0
    1.8410    0.2553   -1.6552 H   0  0  0  0  0  0  0  0  0  0  0  0
    2.5826    2.1487   -3.1465 H   0  0  0  0  0  0  0  0  0  0  0  0
    0.8874    2.4339   -3.6136 H   0  0  0  0  0  0  0  0  0  0  0  0
    3.3944    2.6824   -0.8915 H   0  0  0  0  0  0  0  0  0  0  0  0
    3.0511    3.9404    1.1999 H   0  0  0  0  0  0  0  0  0  0  0  0
    0.8358    4.8154    1.7833 H   0  0  0  0  0  0  0  0  0  0  0  0
   -0.7454    3.2524   -1.9176 H   0  0  0  0  0  0  0  0  0  0  0  0
   -0.8342    6.3427    1.4583 H   0  0  0  0  0  0  0  0  0  0  0  0
   -2.5989    6.0555    1.4719 H   0  0  0  0  0  0  0  0  0  0  0  0
   -3.4923    4.3338    0.0632 H   0  0  0  0  0  0  0  0  0  0  0  0
    1.1149    0.0528   -4.5346 H   0  0  0  0  0  0  0  0  0  0  0  0
    3.8460   -1.5376   -1.9184 H   0  0  0  0  0  0  0  0  0  0  0  0
    4.4701   -2.1947    0.3659 H   0  0  0  0  0  0  0  0  0  0  0  0
    3.9003   -3.3098    2.5023 H   0  0  0  0  0  0  0  0  0  0  0  0
    2.3048   -4.6048    3.8661 H   0  0  0  0  0  0  0  0  0  0  0  0
    0.1133   -5.2765    2.9300 H   0  0  0  0  0  0  0  0  0  0  0  0
   -0.5012   -4.6570    0.6246 H   0  0  0  0  0  0  0  0  0  0  0  0
    0.0529   -3.5216   -1.4875 H   0  0  0  0  0  0  0  0  0  0  0  0
  1  2  1  0
  2  3  1  0
  3  4  2  0
  3  5  1  0
  5  6  1  0
  6  7  1  0
  7  8  1  0
  8  9  1  0
  9 10  1  0
  8 11  1  0
 11 12  2  0
 11 13  1  0
 13 14  1  0
 14 15  1  0
 15 16  2  0
 16 17  1  0
 17 18  2  0
 18 19  1  0
 19 20  2  0
 19 21  1  0
 21 22  1  0
 21 23  2  3
 13 24  1  0
 24 25  1  0
 25 26  2  0
 25 27  2  0
 25 28  1  0
 28 29  2  0
 29 30  1  0
 30 31  2  0
 31 32  1  0
 32 33  2  0
 33 34  1  0
 34 35  2  0
 35 36  1  0
 36 37  2  0
 10  5  1  0
 20 15  1  0
 37 28  1  0
 36 31  1  0
  1 38  1  0
  1 39  1  0
  1 40  1  0
  5 41  1  0
  6 42  1  0
  6 43  1  0
  7 44  1  0
  7 45  1  0
  9 46  1  0
  9 47  1  0
 10 48  1  0
 10 49  1  0
 13 50  1  1
 14 51  1  0
 14 52  1  0
 16 53  1  0
 17 54  1  0
 18 55  1  0
 20 56  1  0
 22 57  1  0
 22 58  1  0
 23 59  1  0
 24 60  1  0
 29 61  1  0
 30 62  1  0
 32 63  1  0
 33 64  1  0
 34 65  1  0
 35 66  1  0
 37 67  1  0
M  END
$$$$
