
     RDKit          3D

 65 69  0  0  0  0  0  0  0  0999 V2000
   -4.5340    0.7225    0.3905 C   0  0  2  0  0  0  0  0  0  0  0  0
   -5.0032   -0.4702   -0.4650 C   0  0  0  0  0  0  0  0  0  0  0  0
   -6.4507   -0.3416   -0.8473 C   0  0  0  0  0  0  0  0  0  0  0  0
   -6.9640    0.4465   -1.8730 C   0  0  0  0  0  0  0  0  0  0  0  0
   -8.3148    0.3828   -1.8869 N   0  0  0  0  0  0  0  0  0  0  0  0
   -8.6590   -0.4296   -0.8726 C   0  0  0  0  0  0  0  0  0  0  0  0
   -9.9475   -0.7863   -0.4767 C   0  0  0  0  0  0  0  0  0  0  0  0
  -10.0817   -1.6408    0.6327 C   0  0  0  0  0  0  0  0  0  0  0  0
   -8.9386   -2.1123    1.3154 C   0  0  0  0  0  0  0  0  0  0  0  0
   -7.6505   -1.7348    0.8945 C   0  0  0  0  0  0  0  0  0  0  0  0
   -7.5485   -0.8889   -0.2109 C   0  0  0  0  0  0  0  0  0  0  0  0
   -3.0694    0.6625    0.5594 N   0  0  0  0  0  0  0  0  0  0  0  0
   -2.2546    1.6057   -0.6569 S   0  0  0  0  0  6  0  0  0  0  0  0
   -2.5602    3.0650   -0.4596 O   0  0  0  0  0  0  0  0  0  0  0  0
   -2.7023    1.2025   -2.0342 O   0  0  0  0  0  0  0  0  0  0  0  0
   -0.5209    1.3422   -0.5095 C   0  0  0  0  0  0  0  0  0  0  0  0
    0.2567    2.1860    0.2927 C   0  0  0  0  0  0  0  0  0  0  0  0
    1.6308    1.9656    0.4222 C   0  0  0  0  0  0  0  0  0  0  0  0
    2.2495    0.8944   -0.2481 C   0  0  0  0  0  0  0  0  0  0  0  0
    1.4581    0.0440   -1.0424 C   0  0  0  0  0  0  0  0  0  0  0  0
    0.0841    0.2661   -1.1695 C   0  0  0  0  0  0  0  0  0  0  0  0
    3.6689    0.6640   -0.1100 N   0  0  0  0  0  0  0  0  0  0  0  0
    4.3132    0.8557    1.2001 C   0  0  0  0  0  0  0  0  0  0  0  0
    5.6496    0.1117    1.2761 C   0  0  0  0  0  0  0  0  0  0  0  0
    6.5929    0.5445    0.1337 C   0  0  0  0  0  0  0  0  0  0  0  0
    5.8685    0.7061   -1.2330 C   0  0  0  0  0  0  0  0  0  0  0  0
    4.4479    0.1279   -1.2376 C   0  0  0  0  0  0  0  0  0  0  0  0
    7.7773   -0.4010    0.0396 C   0  0  0  0  0  0  0  0  0  0  0  0
    7.6096   -1.7286   -0.3999 C   0  0  0  0  0  0  0  0  0  0  0  0
    8.7047   -2.5948   -0.4704 C   0  0  0  0  0  0  0  0  0  0  0  0
    9.9754   -2.1492   -0.0997 C   0  0  0  0  0  0  0  0  0  0  0  0
   10.1533   -0.8367    0.3439 C   0  0  0  0  0  0  0  0  0  0  0  0
    9.0615    0.0339    0.4162 C   0  0  0  0  0  0  0  0  0  0  0  0
   -5.2166    0.6795    1.7356 C   0  0  0  0  0  0  0  0  0  0  0  0
   -4.8779   -0.3062    2.6583 O   0  0  0  0  0  0  0  0  0  0  0  0
   -6.1129    1.5199    2.0162 O   0  0  0  0  0  0  0  0  0  0  0  0
   -4.8314    1.6715   -0.1136 H   0  0  0  0  0  0  0  0  0  0  0  0
   -4.8342   -1.4248    0.0789 H   0  0  0  0  0  0  0  0  0  0  0  0
   -4.4070   -0.5286   -1.3981 H   0  0  0  0  0  0  0  0  0  0  0  0
   -6.3802    1.0437   -2.5614 H   0  0  0  0  0  0  0  0  0  0  0  0
   -8.9571    0.8781   -2.5446 H   0  0  0  0  0  0  0  0  0  0  0  0
  -10.8176   -0.4159   -1.0032 H   0  0  0  0  0  0  0  0  0  0  0  0
  -11.0677   -1.9369    0.9665 H   0  0  0  0  0  0  0  0  0  0  0  0
   -9.0542   -2.7676    2.1688 H   0  0  0  0  0  0  0  0  0  0  0  0
   -6.7726   -2.0923    1.4157 H   0  0  0  0  0  0  0  0  0  0  0  0
   -2.7950    1.0962    1.4719 H   0  0  0  0  0  0  0  0  0  0  0  0
   -0.1992    3.0143    0.8200 H   0  0  0  0  0  0  0  0  0  0  0  0
    2.2112    2.6402    1.0374 H   0  0  0  0  0  0  0  0  0  0  0  0
    1.8986   -0.8040   -1.5504 H   0  0  0  0  0  0  0  0  0  0  0  0
   -0.5083   -0.4059   -1.7776 H   0  0  0  0  0  0  0  0  0  0  0  0
    3.6509    0.4672    2.0046 H   0  0  0  0  0  0  0  0  0  0  0  0
    4.4830    1.9399    1.3749 H   0  0  0  0  0  0  0  0  0  0  0  0
    6.1315    0.3175    2.2568 H   0  0  0  0  0  0  0  0  0  0  0  0
    5.4459   -0.9805    1.2238 H   0  0  0  0  0  0  0  0  0  0  0  0
    6.9714    1.5557    0.4086 H   0  0  0  0  0  0  0  0  0  0  0  0
    6.4509    0.2456   -2.0611 H   0  0  0  0  0  0  0  0  0  0  0  0
    5.7923    1.7903   -1.4718 H   0  0  0  0  0  0  0  0  0  0  0  0
    4.4858   -0.9800   -1.1674 H   0  0  0  0  0  0  0  0  0  0  0  0
    3.9680    0.3991   -2.2035 H   0  0  0  0  0  0  0  0  0  0  0  0
    6.6327   -2.0933   -0.6887 H   0  0  0  0  0  0  0  0  0  0  0  0
    8.5674   -3.6127   -0.8115 H   0  0  0  0  0  0  0  0  0  0  0  0
   10.8219   -2.8214   -0.1544 H   0  0  0  0  0  0  0  0  0  0  0  0
   11.1381   -0.4936    0.6336 H   0  0  0  0  0  0  0  0  0  0  0  0
    9.2202    1.0461    0.7667 H   0  0  0  0  0  0  0  0  0  0  0  0
   -5.3400   -0.3558    3.5583 H   0  0  0  0  0  0  0  0  0  0  0  0
  1  2  1  0
  2  3  1  0
  3  4  2  0
  4  5  1  0
  5  6  1  0
  6  7  2  0
  7  8  1  0
  8  9  2  0
  9 10  1  0
 10 11  2  0
  1 12  1  0
 12 13  1  0
 13 14  2  0
 13 15  2  0
 13 16  1  0
 16 17  2  0
 17 18  1  0
 18 19  2  0
 19 20  1  0
 20 21  2  0
 19 22  1  0
 22 23  1  0
 23 24  1  0
 24 25  1  0
 25 26  1  0
 26 27  1  0
 25 28  1  0
 28 29  2  0
 29 30  1  0
 30 31  2  0
 31 32  1  0
 32 33  2  0
  1 34  1  0
 34 35  1  0
 34 36  2  0
 11  3  1  0
 21 16  1  0
 27 22  1  0
 33 28  1  0
 11  6  1  0
  1 37  1  6
  2 38  1  0
  2 39  1  0
  4 40  1  0
  5 41  1  0
  7 42  1  0
  8 43  1  0
  9 44  1  0
 10 45  1  0
 12 46  1  0
 17 47  1  0
 18 48  1  0
 20 49  1  0
 21 50  1  0
 23 51  1  0
 23 52  1  0
 24 53  1  0
 24 54  1  0
 25 55  1  0
 26 56  1  0
 26 57  1  0
 27 58  1  0
 27 59  1  0
 29 60  1  0
 30 61  1  0
 31 62  1  0
 32 63  1  0
 33 64  1  0
 35 65  1  0
M  END
$$$$
