
     RDKit          3D

 45 46  0  0  0  0  0  0  0  0999 V2000
    0.7898    0.1081    0.8893 C   0  0  1  0  0  0  0  0  0  0  0  0
    0.2634   -0.5576    2.0105 O   0  0  0  0  0  0  0  0  0  0  0  0
    2.3242    0.1765    0.9807 C   0  0  0  0  0  0  0  0  0  0  0  0
    2.8586    1.0386   -0.0883 N   0  0  0  0  0  0  0  0  0  0  0  0
    4.3189    0.9212   -0.3287 C   0  0  0  0  0  0  0  0  0  0  0  0
    5.1346    1.1234    0.9685 C   0  0  0  0  0  0  0  0  0  0  0  0
    4.6552   -0.4484   -0.9586 C   0  0  0  0  0  0  0  0  0  0  0  0
    4.7252    2.0165   -1.3372 C   0  0  0  0  0  0  0  0  0  0  0  0
    0.3268   -0.5728   -0.4077 C   0  0  0  0  0  0  0  0  0  0  0  0
   -1.0951   -0.6266   -0.4338 O   0  0  0  0  0  0  0  0  0  0  0  0
   -1.8128   -1.2016   -1.4857 C   0  0  0  0  0  0  0  0  0  0  0  0
   -1.1921   -1.7090   -2.5837 N   0  0  0  0  0  0  0  0  0  0  0  0
   -2.4927   -2.1765   -3.4848 S   0  0  0  0  0  0  0  0  0  0  0  0
   -3.8209   -1.7872   -2.5865 N   0  0  0  0  0  0  0  0  0  0  0  0
   -3.2367   -1.2583   -1.4794 C   0  0  0  0  0  0  0  0  0  0  0  0
   -4.0301   -0.7536   -0.3933 N   0  0  0  0  0  0  0  0  0  0  0  0
   -5.2401    0.0171   -0.6935 C   0  0  0  0  0  0  0  0  0  0  0  0
   -5.8390    0.5842    0.5954 C   0  0  0  0  0  0  0  0  0  0  0  0
   -4.7968    1.0111    1.4472 O   0  0  0  0  0  0  0  0  0  0  0  0
   -4.1221   -0.1071    2.0035 C   0  0  0  0  0  0  0  0  0  0  0  0
   -3.8053   -1.2225    0.9796 C   0  0  0  0  0  0  0  0  0  0  0  0
    0.3912    1.1463    0.8971 H   0  0  0  0  0  0  0  0  0  0  0  0
    0.6097   -1.4885    1.9977 H   0  0  0  0  0  0  0  0  0  0  0  0
    2.5997    0.5925    1.9754 H   0  0  0  0  0  0  0  0  0  0  0  0
    2.7262   -0.8544    0.9134 H   0  0  0  0  0  0  0  0  0  0  0  0
    2.6318    2.0290    0.1696 H   0  0  0  0  0  0  0  0  0  0  0  0
    6.2227    1.1586    0.7440 H   0  0  0  0  0  0  0  0  0  0  0  0
    4.9691    0.2890    1.6822 H   0  0  0  0  0  0  0  0  0  0  0  0
    4.8465    2.0758    1.4629 H   0  0  0  0  0  0  0  0  0  0  0  0
    5.7021   -0.4629   -1.3319 H   0  0  0  0  0  0  0  0  0  0  0  0
    3.9748   -0.6572   -1.8121 H   0  0  0  0  0  0  0  0  0  0  0  0
    4.5664   -1.2748   -0.2244 H   0  0  0  0  0  0  0  0  0  0  0  0
    4.1437    1.9094   -2.2785 H   0  0  0  0  0  0  0  0  0  0  0  0
    4.5260    3.0273   -0.9200 H   0  0  0  0  0  0  0  0  0  0  0  0
    5.8075    1.9533   -1.5833 H   0  0  0  0  0  0  0  0  0  0  0  0
    0.7385   -1.6046   -0.4637 H   0  0  0  0  0  0  0  0  0  0  0  0
    0.6872    0.0054   -1.2864 H   0  0  0  0  0  0  0  0  0  0  0  0
   -5.9867   -0.6264   -1.2069 H   0  0  0  0  0  0  0  0  0  0  0  0
   -4.9728    0.8619   -1.3655 H   0  0  0  0  0  0  0  0  0  0  0  0
   -6.4821    1.4549    0.3478 H   0  0  0  0  0  0  0  0  0  0  0  0
   -6.4880   -0.1726    1.0949 H   0  0  0  0  0  0  0  0  0  0  0  0
   -4.7179   -0.5221    2.8463 H   0  0  0  0  0  0  0  0  0  0  0  0
   -3.1657    0.2565    2.4358 H   0  0  0  0  0  0  0  0  0  0  0  0
   -4.4768   -2.0884    1.1671 H   0  0  0  0  0  0  0  0  0  0  0  0
   -2.7661   -1.5835    1.1251 H   0  0  0  0  0  0  0  0  0  0  0  0
  1  2  1  0
  1  3  1  0
  3  4  1  0
  4  5  1  0
  5  6  1  0
  5  7  1  0
  5  8  1  0
  1  9  1  0
  9 10  1  0
 10 11  1  0
 11 12  2  0
 12 13  1  0
 13 14  1  0
 14 15  2  0
 15 16  1  0
 16 17  1  0
 17 18  1  0
 18 19  1  0
 19 20  1  0
 20 21  1  0
 15 11  1  0
 21 16  1  0
  1 22  1  6
  2 23  1  0
  3 24  1  0
  3 25  1  0
  4 26  1  0
  6 27  1  0
  6 28  1  0
  6 29  1  0
  7 30  1  0
  7 31  1  0
  7 32  1  0
  8 33  1  0
  8 34  1  0
  8 35  1  0
  9 36  1  0
  9 37  1  0
 17 38  1  0
 17 39  1  0
 18 40  1  0
 18 41  1  0
 20 42  1  0
 20 43  1  0
 21 44  1  0
 21 45  1  0
M  END
$$$$
