
     RDKit          3D

 29 29  0  0  0  0  0  0  0  0999 V2000
    1.9157   -0.7267   -0.1405 C   0  0  1  0  0  0  0  0  0  0  0  0
    2.5538   -1.6329   -1.1994 C   0  0  0  0  0  0  0  0  0  0  0  0
    2.9175    0.3395    0.3317 C   0  0  0  0  0  0  0  0  0  0  0  0
    2.2456    1.2975    1.7291 S   0  0  0  0  0  0  0  0  0  0  0  0
    0.6645   -0.0788   -0.6976 C   0  0  0  0  0  0  0  0  0  0  0  0
    0.7551    0.6091   -1.7519 O   0  0  0  0  0  0  0  0  0  0  0  0
   -0.6155   -0.2016   -0.0439 N   0  0  0  0  0  0  0  0  0  0  0  0
   -0.8697   -1.0251    1.1287 C   0  0  0  0  0  0  0  0  0  0  0  0
   -2.3382   -0.8145    1.4757 C   0  0  0  0  0  0  0  0  0  0  0  0
   -2.9743   -0.1941    0.2353 C   0  0  0  0  0  0  0  0  0  0  0  0
   -1.8233    0.4396   -0.5466 C   0  0  1  0  0  0  0  0  0  0  0  0
   -1.7596    1.9249   -0.3211 C   0  0  0  0  0  0  0  0  0  0  0  0
   -2.1112    2.7941   -1.3487 O   0  0  0  0  0  0  0  0  0  0  0  0
   -1.4119    2.3856    0.8000 O   0  0  0  0  0  0  0  0  0  0  0  0
    1.6731   -1.3733    0.7273 H   0  0  0  0  0  0  0  0  0  0  0  0
    3.4344   -2.1590   -0.7725 H   0  0  0  0  0  0  0  0  0  0  0  0
    1.8228   -2.3995   -1.5352 H   0  0  0  0  0  0  0  0  0  0  0  0
    2.8855   -1.0416   -2.0802 H   0  0  0  0  0  0  0  0  0  0  0  0
    3.8551   -0.1508    0.6718 H   0  0  0  0  0  0  0  0  0  0  0  0
    3.1691    1.0340   -0.4989 H   0  0  0  0  0  0  0  0  0  0  0  0
    3.4040    2.0914    1.8261 H   0  0  0  0  0  0  0  0  0  0  0  0
   -0.2265   -0.7053    1.9767 H   0  0  0  0  0  0  0  0  0  0  0  0
   -0.6809   -2.0929    0.8837 H   0  0  0  0  0  0  0  0  0  0  0  0
   -2.4227   -0.1046    2.3279 H   0  0  0  0  0  0  0  0  0  0  0  0
   -2.8326   -1.7721    1.7483 H   0  0  0  0  0  0  0  0  0  0  0  0
   -3.4327   -1.0012   -0.3781 H   0  0  0  0  0  0  0  0  0  0  0  0
   -3.7699    0.5345    0.5083 H   0  0  0  0  0  0  0  0  0  0  0  0
   -1.9451    0.2259   -1.6319 H   0  0  0  0  0  0  0  0  0  0  0  0
   -2.0822    3.7975   -1.2129 H   0  0  0  0  0  0  0  0  0  0  0  0
  1  2  1  0
  1  3  1  0
  3  4  1  0
  1  5  1  0
  5  6  2  0
  5  7  1  0
  7  8  1  0
  8  9  1  0
  9 10  1  0
 10 11  1  0
 11 12  1  0
 12 13  1  0
 12 14  2  0
 11  7  1  0
  1 15  1  1
  2 16  1  0
  2 17  1  0
  2 18  1  0
  3 19  1  0
  3 20  1  0
  4 21  1  0
  8 22  1  0
  8 23  1  0
  9 24  1  0
  9 25  1  0
 10 26  1  0
 10 27  1  0
 11 28  1  6
 13 29  1  0
M  END
$$$$
