
     RDKit          3D

 57 60  0  0  0  0  0  0  0  0999 V2000
   -0.1402    0.7196   -1.3348 C   0  0  2  0  0  0  0  0  0  0  0  0
    0.4180    0.7537   -2.7534 C   0  0  0  0  0  0  0  0  0  0  0  0
    1.8561    1.2820   -2.5974 C   0  0  0  0  0  0  0  0  0  0  0  0
    2.1273    1.4203   -1.0671 C   0  0  2  0  0  0  0  0  0  0  0  0
    1.8178    2.7417   -0.6735 O   0  0  0  0  0  0  0  0  0  0  0  0
    3.5760    1.1033   -0.6807 C   0  0  0  0  0  0  0  0  0  0  0  0
    4.2128    0.2694   -1.3096 O   0  0  0  0  0  0  0  0  0  0  0  0
    4.2554    1.8417    0.4463 C   0  0  0  0  0  0  0  0  0  0  0  0
    5.3468    1.0890    0.9746 O   0  0  0  0  0  0  0  0  0  0  0  0
    5.1843   -0.0204    1.8115 C   0  0  0  0  0  0  0  0  0  0  0  0
    6.3821   -0.7934    2.2467 C   0  0  0  0  0  0  0  0  0  0  0  0
    4.0364   -0.3941    2.1742 O   0  0  0  0  0  0  0  0  0  0  0  0
    1.0855    0.4439   -0.4399 C   0  0  2  0  0  0  0  0  0  0  0  0
    1.5810   -1.0395   -0.5343 C   0  0  0  0  0  0  0  0  0  0  0  0
    0.6833    0.7411    1.0238 C   0  0  0  0  0  0  0  0  0  0  0  0
   -0.5400   -0.0780    1.3800 C   0  0  0  0  0  0  0  0  0  0  0  0
   -0.5227   -0.7488    2.3997 O   0  0  0  0  0  0  0  0  0  0  0  0
   -1.7696   -0.0236    0.4604 C   0  0  1  0  0  0  0  0  0  0  0  0
   -1.3351   -0.2188   -1.0342 C   0  0  1  0  0  0  0  0  0  0  0  0
   -2.5199    0.0761   -1.9707 C   0  0  0  0  0  0  0  0  0  0  0  0
   -3.6882   -0.8629   -1.6787 C   0  0  0  0  0  0  0  0  0  0  0  0
   -4.0826   -0.7786   -0.2236 C   0  0  0  0  0  0  0  0  0  0  0  0
   -5.3868   -0.7023    0.0909 C   0  0  0  0  0  0  0  0  0  0  0  0
   -5.8149   -0.5810    1.4841 C   0  0  0  0  0  0  0  0  0  0  0  0
   -7.0400   -0.5668    1.7738 O   0  0  0  0  0  0  0  0  0  0  0  0
   -4.8083   -0.4287    2.5313 C   0  0  0  0  0  0  0  0  0  0  0  0
   -3.5102   -0.5210    2.2380 C   0  0  0  0  0  0  0  0  0  0  0  0
   -2.9931   -0.9350    0.8564 C   0  0  2  0  0  0  0  0  0  0  0  0
   -2.6154   -2.4333    0.9281 C   0  0  0  0  0  0  0  0  0  0  0  0
   -0.5021    1.7567   -1.1285 H   0  0  0  0  0  0  0  0  0  0  0  0
    0.4227   -0.2661   -3.1969 H   0  0  0  0  0  0  0  0  0  0  0  0
   -0.1846    1.4271   -3.4014 H   0  0  0  0  0  0  0  0  0  0  0  0
    1.9687    2.2565   -3.1210 H   0  0  0  0  0  0  0  0  0  0  0  0
    2.5506    0.5633   -3.0829 H   0  0  0  0  0  0  0  0  0  0  0  0
    2.4404    3.3566   -1.1442 H   0  0  0  0  0  0  0  0  0  0  0  0
    4.6512    2.7987    0.0478 H   0  0  0  0  0  0  0  0  0  0  0  0
    3.5314    2.0791    1.2555 H   0  0  0  0  0  0  0  0  0  0  0  0
    7.2900   -0.1584    2.1766 H   0  0  0  0  0  0  0  0  0  0  0  0
    6.2584   -1.1273    3.2985 H   0  0  0  0  0  0  0  0  0  0  0  0
    6.5068   -1.6808    1.5922 H   0  0  0  0  0  0  0  0  0  0  0  0
    0.8330   -1.7635   -0.1549 H   0  0  0  0  0  0  0  0  0  0  0  0
    1.8372   -1.3275   -1.5743 H   0  0  0  0  0  0  0  0  0  0  0  0
    2.4821   -1.1896    0.0944 H   0  0  0  0  0  0  0  0  0  0  0  0
    0.4291    1.8134    1.1620 H   0  0  0  0  0  0  0  0  0  0  0  0
    1.5246    0.5046    1.7099 H   0  0  0  0  0  0  0  0  0  0  0  0
   -2.1371    1.0256    0.5456 H   0  0  0  0  0  0  0  0  0  0  0  0
   -1.0264   -1.2665   -1.2198 H   0  0  0  0  0  0  0  0  0  0  0  0
   -2.8522    1.1315   -1.8517 H   0  0  0  0  0  0  0  0  0  0  0  0
   -2.2137   -0.0696   -3.0289 H   0  0  0  0  0  0  0  0  0  0  0  0
   -3.4025   -1.9084   -1.9230 H   0  0  0  0  0  0  0  0  0  0  0  0
   -4.5325   -0.5845   -2.3476 H   0  0  0  0  0  0  0  0  0  0  0  0
   -6.1433   -0.6860   -0.6849 H   0  0  0  0  0  0  0  0  0  0  0  0
   -5.1180   -0.2149    3.5470 H   0  0  0  0  0  0  0  0  0  0  0  0
   -2.8169   -0.4006    3.0579 H   0  0  0  0  0  0  0  0  0  0  0  0
   -1.8945   -2.6435    1.7425 H   0  0  0  0  0  0  0  0  0  0  0  0
   -3.5224   -3.0439    1.1304 H   0  0  0  0  0  0  0  0  0  0  0  0
   -2.1755   -2.7959   -0.0220 H   0  0  0  0  0  0  0  0  0  0  0  0
  1  2  1  0
  2  3  1  0
  3  4  1  0
  4  5  1  1
  4  6  1  0
  6  7  2  0
  6  8  1  0
  8  9  1  0
  9 10  1  0
 10 11  1  0
 10 12  2  0
  4 13  1  0
 13 14  1  1
 13 15  1  0
 15 16  1  0
 16 17  2  0
 16 18  1  0
 18 19  1  0
 19 20  1  0
 20 21  1  0
 21 22  1  0
 22 23  2  0
 23 24  1  0
 24 25  2  0
 24 26  1  0
 26 27  2  0
 27 28  1  0
 28 29  1  1
 13  1  1  0
 28 18  1  0
 19  1  1  0
 28 22  1  0
  1 30  1  1
  2 31  1  0
  2 32  1  0
  3 33  1  0
  3 34  1  0
  5 35  1  0
  8 36  1  0
  8 37  1  0
 11 38  1  0
 11 39  1  0
 11 40  1  0
 14 41  1  0
 14 42  1  0
 14 43  1  0
 15 44  1  0
 15 45  1  0
 18 46  1  6
 19 47  1  1
 20 48  1  0
 20 49  1  0
 21 50  1  0
 21 51  1  0
 23 52  1  0
 26 53  1  0
 27 54  1  0
 29 55  1  0
 29 56  1  0
 29 57  1  0
M  END
$$$$
