
     RDKit          3D

 50 50  0  0  0  0  0  0  0  0999 V2000
    6.9534   -0.0718    1.1394 C   0  0  0  0  0  0  0  0  0  0  0  0
    5.5290   -0.6345    1.1587 C   0  0  0  0  0  0  0  0  0  0  0  0
    5.5429   -2.1649    1.2128 C   0  0  0  0  0  0  0  0  0  0  0  0
    4.7554   -0.1568   -0.0375 C   0  0  0  0  0  0  0  0  0  0  0  0
    5.1539   -0.4363   -1.2023 O   0  0  0  0  0  0  0  0  0  0  0  0
    3.5857    0.5863    0.1568 O   0  0  0  0  0  0  0  0  0  0  0  0
    2.8014    1.1151   -0.9128 C   0  0  0  0  0  0  0  0  0  0  0  0
    3.4748    2.3541   -1.4947 C   0  0  0  0  0  0  0  0  0  0  0  0
    1.5154    1.4783   -0.4181 O   0  0  0  0  0  0  0  0  0  0  0  0
    0.6034    0.5456    0.0857 C   0  0  0  0  0  0  0  0  0  0  0  0
    0.8978   -0.6812    0.1179 O   0  0  0  0  0  0  0  0  0  0  0  0
   -0.6663    1.0021    0.5671 N   0  0  0  0  0  0  0  0  0  0  0  0
   -1.7136    0.1044    1.0652 C   0  0  0  0  0  0  0  0  0  0  0  0
   -2.9128   -0.0136    0.0732 C   0  0  0  0  0  0  0  0  0  0  0  0
   -3.5375    1.3972   -0.1997 C   0  0  0  0  0  0  0  0  0  0  0  0
   -4.0514    2.0919    1.0296 C   0  0  0  0  0  0  0  0  0  0  0  0
   -5.3681    1.9002    1.4365 O   0  0  0  0  0  0  0  0  0  0  0  0
   -3.2920    2.8447    1.6963 O   0  0  0  0  0  0  0  0  0  0  0  0
   -3.9669   -0.9621    0.7191 C   0  0  0  0  0  0  0  0  0  0  0  0
   -5.1729   -1.2529   -0.1966 C   0  0  0  0  0  0  0  0  0  0  0  0
   -4.7969   -1.4066   -1.6830 C   0  0  0  0  0  0  0  0  0  0  0  0
   -3.3149   -1.7279   -1.8737 C   0  0  0  0  0  0  0  0  0  0  0  0
   -2.4079   -0.6308   -1.2824 C   0  0  0  0  0  0  0  0  0  0  0  0
    7.4986   -0.3825    2.0561 H   0  0  0  0  0  0  0  0  0  0  0  0
    7.5114   -0.4381    0.2506 H   0  0  0  0  0  0  0  0  0  0  0  0
    6.9242    1.0388    1.1127 H   0  0  0  0  0  0  0  0  0  0  0  0
    5.0251   -0.2623    2.0779 H   0  0  0  0  0  0  0  0  0  0  0  0
    4.5027   -2.5547    1.2427 H   0  0  0  0  0  0  0  0  0  0  0  0
    6.0688   -2.5094    2.1288 H   0  0  0  0  0  0  0  0  0  0  0  0
    6.0596   -2.5871    0.3239 H   0  0  0  0  0  0  0  0  0  0  0  0
    2.6790    0.3529   -1.7151 H   0  0  0  0  0  0  0  0  0  0  0  0
    2.8426    2.7829   -2.3008 H   0  0  0  0  0  0  0  0  0  0  0  0
    3.6166    3.1186   -0.7015 H   0  0  0  0  0  0  0  0  0  0  0  0
    4.4641    2.0911   -1.9238 H   0  0  0  0  0  0  0  0  0  0  0  0
   -0.8428    2.0311    0.5715 H   0  0  0  0  0  0  0  0  0  0  0  0
   -2.0634    0.4837    2.0490 H   0  0  0  0  0  0  0  0  0  0  0  0
   -1.2923   -0.9048    1.2671 H   0  0  0  0  0  0  0  0  0  0  0  0
   -2.7931    2.0580   -0.6931 H   0  0  0  0  0  0  0  0  0  0  0  0
   -4.3759    1.3175   -0.9201 H   0  0  0  0  0  0  0  0  0  0  0  0
   -5.7273    2.3572    2.2661 H   0  0  0  0  0  0  0  0  0  0  0  0
   -4.3333   -0.5529    1.6850 H   0  0  0  0  0  0  0  0  0  0  0  0
   -3.4790   -1.9327    0.9625 H   0  0  0  0  0  0  0  0  0  0  0  0
   -5.6623   -2.1869    0.1564 H   0  0  0  0  0  0  0  0  0  0  0  0
   -5.9229   -0.4391   -0.0945 H   0  0  0  0  0  0  0  0  0  0  0  0
   -5.0392   -0.4738   -2.2361 H   0  0  0  0  0  0  0  0  0  0  0  0
   -5.4072   -2.2182   -2.1353 H   0  0  0  0  0  0  0  0  0  0  0  0
   -3.0890   -2.7019   -1.3861 H   0  0  0  0  0  0  0  0  0  0  0  0
   -3.0978   -1.8414   -2.9579 H   0  0  0  0  0  0  0  0  0  0  0  0
   -2.2737    0.1661   -2.0468 H   0  0  0  0  0  0  0  0  0  0  0  0
   -1.4054   -1.0925   -1.1599 H   0  0  0  0  0  0  0  0  0  0  0  0
  1  2  1  0
  2  3  1  0
  2  4  1  0
  4  5  2  0
  4  6  1  0
  6  7  1  0
  7  8  1  0
  7  9  1  0
  9 10  1  0
 10 11  2  0
 10 12  1  0
 12 13  1  0
 13 14  1  0
 14 15  1  0
 15 16  1  0
 16 17  1  0
 16 18  2  0
 14 19  1  0
 19 20  1  0
 20 21  1  0
 21 22  1  0
 22 23  1  0
 23 14  1  0
  1 24  1  0
  1 25  1  0
  1 26  1  0
  2 27  1  0
  3 28  1  0
  3 29  1  0
  3 30  1  0
  7 31  1  0
  8 32  1  0
  8 33  1  0
  8 34  1  0
 12 35  1  0
 13 36  1  0
 13 37  1  0
 15 38  1  0
 15 39  1  0
 17 40  1  0
 19 41  1  0
 19 42  1  0
 20 43  1  0
 20 44  1  0
 21 45  1  0
 21 46  1  0
 22 47  1  0
 22 48  1  0
 23 49  1  0
 23 50  1  0
M  END
$$$$
