
     RDKit          3D

 45 49  0  0  0  0  0  0  0  0999 V2000
    6.8933    1.1796   -0.8598 N   0  0  0  0  0  0  0  0  0  0  0  0
    5.5999    0.7416   -0.4505 C   0  0  0  0  0  0  0  0  0  0  0  0
    4.8193    0.0325   -1.3095 N   0  0  0  0  0  0  0  0  0  0  0  0
    3.5859   -0.3925   -0.9359 C   0  0  0  0  0  0  0  0  0  0  0  0
    3.1031   -0.1030    0.3508 C   0  0  0  0  0  0  0  0  0  0  0  0
    1.8654   -0.5334    0.7114 N   0  0  0  0  0  0  0  0  0  0  0  0
    1.0861   -1.2413   -0.1511 C   0  0  0  0  0  0  0  0  0  0  0  0
   -0.2985   -1.6443    0.2591 C   0  0  0  0  0  0  0  0  0  0  0  0
   -1.2872   -0.6573   -0.1911 N   0  0  0  0  0  0  0  0  0  0  0  0
   -1.2979    0.6608    0.3661 C   0  0  0  0  0  0  0  0  0  0  0  0
   -0.3819    1.6167   -0.1001 C   0  0  0  0  0  0  0  0  0  0  0  0
   -0.3461    2.8933    0.4622 C   0  0  0  0  0  0  0  0  0  0  0  0
   -1.2278    3.2266    1.4903 C   0  0  0  0  0  0  0  0  0  0  0  0
   -2.1559    2.2881    1.9480 C   0  0  0  0  0  0  0  0  0  0  0  0
   -2.2179    1.0051    1.3771 C   0  0  0  0  0  0  0  0  0  0  0  0
   -3.2079    0.0442    1.9170 C   0  0  0  0  0  0  0  0  0  0  0  0
   -3.8542   -0.9038    1.2203 C   0  0  0  0  0  0  0  0  0  0  0  0
   -3.6945   -1.1966   -0.2243 C   0  0  0  0  0  0  0  0  0  0  0  0
   -4.8071   -1.6843   -0.9314 C   0  0  0  0  0  0  0  0  0  0  0  0
   -4.6955   -2.0369   -2.2789 C   0  0  0  0  0  0  0  0  0  0  0  0
   -3.4675   -1.9249   -2.9316 C   0  0  0  0  0  0  0  0  0  0  0  0
   -2.3487   -1.4625   -2.2371 C   0  0  0  0  0  0  0  0  0  0  0  0
   -2.4539   -1.0978   -0.8874 C   0  0  0  0  0  0  0  0  0  0  0  0
    1.5679   -1.5201   -1.4391 C   0  0  0  0  0  0  0  0  0  0  0  0
    2.8073   -1.0932   -1.8002 N   0  0  0  0  0  0  0  0  0  0  0  0
    3.9175    0.6330    1.2214 C   0  0  0  0  0  0  0  0  0  0  0  0
    3.4802    0.9718    2.5401 N   0  0  0  0  0  0  0  0  0  0  0  0
    5.1462    1.0358    0.7987 N   0  0  0  0  0  0  0  0  0  0  0  0
    7.2479    0.9588   -1.8167 H   0  0  0  0  0  0  0  0  0  0  0  0
    7.4979    1.7253   -0.2064 H   0  0  0  0  0  0  0  0  0  0  0  0
   -0.3519   -1.7390    1.3655 H   0  0  0  0  0  0  0  0  0  0  0  0
   -0.5271   -2.6482   -0.1634 H   0  0  0  0  0  0  0  0  0  0  0  0
    0.3060    1.3701   -0.8987 H   0  0  0  0  0  0  0  0  0  0  0  0
    0.3682    3.6230    0.1033 H   0  0  0  0  0  0  0  0  0  0  0  0
   -1.1951    4.2146    1.9311 H   0  0  0  0  0  0  0  0  0  0  0  0
   -2.8358    2.5676    2.7439 H   0  0  0  0  0  0  0  0  0  0  0  0
   -3.5133    0.1840    2.9478 H   0  0  0  0  0  0  0  0  0  0  0  0
   -4.6269   -1.4522    1.7470 H   0  0  0  0  0  0  0  0  0  0  0  0
   -5.7665   -1.7896   -0.4392 H   0  0  0  0  0  0  0  0  0  0  0  0
   -5.5611   -2.4036   -2.8155 H   0  0  0  0  0  0  0  0  0  0  0  0
   -3.3812   -2.2021   -3.9742 H   0  0  0  0  0  0  0  0  0  0  0  0
   -1.3981   -1.3845   -2.7487 H   0  0  0  0  0  0  0  0  0  0  0  0
    0.9638   -2.0694   -2.1491 H   0  0  0  0  0  0  0  0  0  0  0  0
    4.1037    1.5211    3.1722 H   0  0  0  0  0  0  0  0  0  0  0  0
    2.5399    0.6871    2.8940 H   0  0  0  0  0  0  0  0  0  0  0  0
  1  2  1  0
  2  3  2  0
  3  4  1  0
  4  5  2  0
  5  6  1  0
  6  7  2  0
  7  8  1  0
  8  9  1  0
  9 10  1  0
 10 11  2  0
 11 12  1  0
 12 13  2  0
 13 14  1  0
 14 15  2  0
 15 16  1  0
 16 17  2  0
 17 18  1  0
 18 19  2  0
 19 20  1  0
 20 21  2  0
 21 22  1  0
 22 23  2  0
  7 24  1  0
 24 25  2  0
  5 26  1  0
 26 27  1  0
 26 28  2  0
 28  2  1  0
 25  4  1  0
 23  9  1  0
 15 10  1  0
 23 18  1  0
  1 29  1  0
  1 30  1  0
  8 31  1  0
  8 32  1  0
 11 33  1  0
 12 34  1  0
 13 35  1  0
 14 36  1  0
 16 37  1  0
 17 38  1  0
 19 39  1  0
 20 40  1  0
 21 41  1  0
 22 42  1  0
 24 43  1  0
 27 44  1  0
 27 45  1  0
M  END
$$$$
