
     RDKit          3D

 76 80  0  0  0  0  0  0  0  0999 V2000
   11.4947    0.1717   -1.2571 N   0  0  0  0  0  0  0  0  0  0  0  0
   10.6417    1.3037   -1.4481 C   0  0  0  0  0  0  0  0  0  0  0  0
   11.1601    2.4105   -1.7572 O   0  0  0  0  0  0  0  0  0  0  0  0
    9.1688    1.1974   -1.3080 C   0  0  0  0  0  0  0  0  0  0  0  0
    8.3335    2.1355   -1.9304 C   0  0  0  0  0  0  0  0  0  0  0  0
    6.9518    2.0448   -1.7884 C   0  0  0  0  0  0  0  0  0  0  0  0
    6.4057    1.0164   -1.0227 C   0  0  0  0  0  0  0  0  0  0  0  0
    7.2142    0.0930   -0.4161 N   0  0  0  0  0  4  0  0  0  0  0  0
    8.5755    0.1834   -0.5343 C   0  0  0  0  0  0  0  0  0  0  0  0
    6.6337   -0.9640    0.4317 C   0  0  2  0  0  0  0  0  0  0  0  0
    5.4259   -1.4443   -0.1224 O   0  0  0  0  0  0  0  0  0  0  0  0
    4.4951   -1.6162    0.9292 C   0  0  2  0  0  0  0  0  0  0  0  0
    3.2730   -0.7264    0.6717 C   0  0  0  0  0  0  0  0  0  0  0  0
    2.7257   -1.0449   -0.5866 O   0  0  0  0  0  0  0  0  0  0  0  0
    1.4876    0.0744   -0.9339 P   0  0  0  0  0  5  0  0  0  0  0  0
    0.6756   -0.4538   -2.3209 O   0  0  0  0  0  1  0  0  0  0  0  0
    2.1068    1.4292   -1.2042 O   0  0  0  0  0  0  0  0  0  0  0  0
    0.4014    0.1467    0.3775 O   0  0  0  0  0  0  0  0  0  0  0  0
   -0.6903    1.4219    0.0853 P   0  0  0  0  0  5  0  0  0  0  0  0
   -1.3377    1.3297   -1.4782 O   0  0  0  0  0  0  0  0  0  0  0  0
    0.0213    2.7458    0.2536 O   0  0  0  0  0  0  0  0  0  0  0  0
   -1.9589    1.3466    1.2210 O   0  0  0  0  0  0  0  0  0  0  0  0
   -2.5592    0.0763    1.1269 C   0  0  0  0  0  0  0  0  0  0  0  0
   -3.7681    0.0196    2.0693 C   0  0  1  0  0  0  0  0  0  0  0  0
   -4.6777    1.0428    1.7183 O   0  0  0  0  0  0  0  0  0  0  0  0
   -5.8722    0.4369    1.2702 C   0  0  2  0  0  0  0  0  0  0  0  0
   -5.6316   -1.0514    1.0485 C   0  0  2  0  0  0  0  0  0  0  0  0
   -6.7928   -1.7873    1.3846 O   0  0  0  0  0  0  0  0  0  0  0  0
   -6.9128   -3.1611    0.3799 P   0  0  0  0  0  5  0  0  0  0  0  0
   -5.5242   -4.1187    0.5266 O   0  0  0  0  0  0  0  0  0  0  0  0
   -7.1095   -2.6807   -1.2323 O   0  0  0  0  0  0  0  0  0  0  0  0
   -8.1151   -3.9734    0.8028 O   0  0  0  0  0  0  0  0  0  0  0  0
   -4.4836   -1.3346    1.9899 C   0  0  2  0  0  0  0  0  0  0  0  0
   -4.9295   -1.7533    3.2601 O   0  0  0  0  0  0  0  0  0  0  0  0
   -6.3295    1.0713    0.0328 N   0  0  0  0  0  0  0  0  0  0  0  0
   -5.5760    1.6224   -0.9552 C   0  0  0  0  0  0  0  0  0  0  0  0
   -6.3030    1.9949   -2.0450 N   0  0  0  0  0  0  0  0  0  0  0  0
   -7.5555    1.6395   -1.7015 C   0  0  0  0  0  0  0  0  0  0  0  0
   -7.5698    1.0826   -0.4694 C   0  0  0  0  0  0  0  0  0  0  0  0
   -8.6965    0.5863    0.0967 N   0  0  0  0  0  0  0  0  0  0  0  0
   -9.8615    0.6742   -0.6134 C   0  0  0  0  0  0  0  0  0  0  0  0
   -9.8740    1.2405   -1.8633 N   0  0  0  0  0  0  0  0  0  0  0  0
   -8.7331    1.7305   -2.4347 C   0  0  0  0  0  0  0  0  0  0  0  0
   -8.7630    2.3024   -3.7424 N   0  0  0  0  0  0  0  0  0  0  0  0
    5.1709   -1.2728    2.2648 C   0  0  1  0  0  0  0  0  0  0  0  0
    5.5566   -2.4387    2.9576 O   0  0  0  0  0  0  0  0  0  0  0  0
    6.3606   -0.4453    1.8363 C   0  0  1  0  0  0  0  0  0  0  0  0
    7.4748   -0.6332    2.6699 O   0  0  0  0  0  0  0  0  0  0  0  0
   11.1133   -0.7944   -1.1601 H   0  0  0  0  0  0  0  0  0  0  0  0
   12.5314    0.2882   -1.3033 H   0  0  0  0  0  0  0  0  0  0  0  0
    8.7484    2.9359   -2.5306 H   0  0  0  0  0  0  0  0  0  0  0  0
    6.3060    2.7700   -2.2665 H   0  0  0  0  0  0  0  0  0  0  0  0
    5.3300    0.9691   -0.9129 H   0  0  0  0  0  0  0  0  0  0  0  0
    9.2025   -0.5205   -0.0020 H   0  0  0  0  0  0  0  0  0  0  0  0
    7.3319   -1.8317    0.4871 H   0  0  0  0  0  0  0  0  0  0  0  0
    4.1536   -2.6754    0.9351 H   0  0  0  0  0  0  0  0  0  0  0  0
    2.5237   -0.9175    1.4728 H   0  0  0  0  0  0  0  0  0  0  0  0
    3.5971    0.3393    0.7144 H   0  0  0  0  0  0  0  0  0  0  0  0
   -1.9777    2.0835   -1.5316 H   0  0  0  0  0  0  0  0  0  0  0  0
   -1.8369   -0.7138    1.4341 H   0  0  0  0  0  0  0  0  0  0  0  0
   -2.9112   -0.1238    0.0884 H   0  0  0  0  0  0  0  0  0  0  0  0
   -3.4066    0.1989    3.1063 H   0  0  0  0  0  0  0  0  0  0  0  0
   -6.6432    0.5847    2.0600 H   0  0  0  0  0  0  0  0  0  0  0  0
   -5.2845   -1.1960   -0.0047 H   0  0  0  0  0  0  0  0  0  0  0  0
   -4.8963   -3.7644   -0.1524 H   0  0  0  0  0  0  0  0  0  0  0  0
   -7.8509   -2.0243   -1.2118 H   0  0  0  0  0  0  0  0  0  0  0  0
   -3.8282   -2.1306    1.5732 H   0  0  0  0  0  0  0  0  0  0  0  0
   -5.4912   -1.0314    3.6476 H   0  0  0  0  0  0  0  0  0  0  0  0
   -4.5015    1.7352   -0.8975 H   0  0  0  0  0  0  0  0  0  0  0  0
  -10.7789    0.2909   -0.1886 H   0  0  0  0  0  0  0  0  0  0  0  0
   -9.6614    2.3535   -4.2719 H   0  0  0  0  0  0  0  0  0  0  0  0
   -7.8947    2.6761   -4.1860 H   0  0  0  0  0  0  0  0  0  0  0  0
    4.5104   -0.6761    2.9325 H   0  0  0  0  0  0  0  0  0  0  0  0
    6.1308   -2.9832    2.3572 H   0  0  0  0  0  0  0  0  0  0  0  0
    6.0752    0.6330    1.8005 H   0  0  0  0  0  0  0  0  0  0  0  0
    7.2788   -0.1458    3.5121 H   0  0  0  0  0  0  0  0  0  0  0  0
  1  2  1  0
  2  3  2  0
  2  4  1  0
  4  5  2  0
  5  6  1  0
  6  7  2  0
  7  8  1  0
  8  9  2  0
  8 10  1  0
 10 11  1  0
 11 12  1  0
 12 13  1  0
 13 14  1  0
 14 15  1  0
 15 16  1  0
 15 17  2  0
 15 18  1  0
 18 19  1  0
 19 20  1  0
 19 21  2  0
 19 22  1  0
 22 23  1  0
 23 24  1  0
 24 25  1  0
 25 26  1  0
 26 27  1  0
 27 28  1  0
 28 29  1  0
 29 30  1  0
 29 31  1  0
 29 32  2  0
 27 33  1  0
 33 34  1  0
 26 35  1  0
 35 36  1  0
 36 37  2  0
 37 38  1  0
 38 39  2  0
 39 40  1  0
 40 41  2  0
 41 42  1  0
 42 43  2  0
 43 44  1  0
 12 45  1  0
 45 46  1  0
 45 47  1  0
 47 48  1  0
  9  4  1  0
 47 10  1  0
 33 24  1  0
 39 35  1  0
 43 38  1  0
  1 49  1  0
  1 50  1  0
  5 51  1  0
  6 52  1  0
  7 53  1  0
  9 54  1  0
 10 55  1  1
 12 56  1  1
 13 57  1  0
 13 58  1  0
 20 59  1  0
 23 60  1  0
 23 61  1  0
 24 62  1  1
 26 63  1  1
 27 64  1  6
 30 65  1  0
 31 66  1  0
 33 67  1  6
 34 68  1  0
 36 69  1  0
 41 70  1  0
 44 71  1  0
 44 72  1  0
 45 73  1  1
 46 74  1  0
 47 75  1  6
 48 76  1  0
M  CHG  2   8   1  16  -1
M  END
$$$$
