
     RDKit          3D

134133  0  0  0  0  0  0  0  0999 V2000
   13.4999    5.1243   -0.1125 C   0  0  0  0  0  0  0  0  0  0  0  0
   14.1625    4.6791   -1.4146 C   0  0  0  0  0  0  0  0  0  0  0  0
   14.3505    3.1553   -1.5066 C   0  0  0  0  0  0  0  0  0  0  0  0
   13.0228    2.3741   -1.5960 C   0  0  0  0  0  0  0  0  0  0  0  0
   12.6253    1.7488   -0.2504 C   0  0  0  0  0  0  0  0  0  0  0  0
   11.2546    1.0637   -0.3459 C   0  0  0  0  0  0  0  0  0  0  0  0
   10.8777    0.2955    0.9333 C   0  0  0  0  0  0  0  0  0  0  0  0
   10.7782    1.1567    2.2102 C   0  0  0  0  0  0  0  0  0  0  0  0
    9.8141    2.3540    2.1189 C   0  0  0  0  0  0  0  0  0  0  0  0
    8.3480    1.9813    1.8288 C   0  0  0  0  0  0  0  0  0  0  0  0
    7.6507    1.2429    2.9946 C   0  0  0  0  0  0  0  0  0  0  0  0
    7.5330   -0.2836    2.8091 C   0  0  0  0  0  0  0  0  0  0  0  0
    6.6303   -0.7404    1.6434 C   0  0  0  0  0  0  0  0  0  0  0  0
    5.1840   -0.2101    1.6846 C   0  0  0  0  0  0  0  0  0  0  0  0
    4.4047   -0.5436    2.9724 C   0  0  0  0  0  0  0  0  0  0  0  0
    4.2959   -2.0474    3.2976 C   0  0  0  0  0  0  0  0  0  0  0  0
    3.6064   -2.8852    2.2099 C   0  0  0  0  0  0  0  0  0  0  0  0
    2.1989   -2.4378    1.9684 C   0  0  0  0  0  0  0  0  0  0  0  0
    1.2784   -2.8308    2.7358 O   0  0  0  0  0  0  0  0  0  0  0  0
    1.9286   -1.5635    0.9085 O   0  0  0  0  0  0  0  0  0  0  0  0
    0.6152   -1.1368    0.5465 C   0  0  0  0  0  0  0  0  0  0  0  0
    0.0803   -1.9349   -0.6518 C   0  0  1  0  0  0  0  0  0  0  0  0
   -0.0752   -3.4305   -0.3290 C   0  0  0  0  0  0  0  0  0  0  0  0
    1.1920   -4.0458   -0.3288 O   0  0  0  0  0  0  0  0  0  0  0  0
    0.9928   -5.6857    0.0926 P   0  0  2  0  0  5  0  0  0  0  0  0
    0.3660   -5.7935    1.6613 O   0  0  0  0  0  0  0  0  0  0  0  0
    2.3408   -6.3714    0.0605 O   0  0  0  0  0  0  0  0  0  0  0  0
   -0.0786   -6.4540   -0.9909 O   0  0  0  0  0  0  0  0  0  0  0  0
    0.4912   -6.4248   -2.2791 C   0  0  0  0  0  0  0  0  0  0  0  0
   -0.5321   -6.9270   -3.3000 C   0  0  0  0  0  0  0  0  0  0  0  0
   -1.6796   -6.0232   -3.3944 N   0  0  0  0  0  4  0  0  0  0  0  0
   -1.1849   -1.3869   -1.0250 O   0  0  0  0  0  0  0  0  0  0  0  0
   -1.7746   -1.5858   -2.2789 C   0  0  0  0  0  0  0  0  0  0  0  0
   -1.1671   -2.2173   -3.1863 O   0  0  0  0  0  0  0  0  0  0  0  0
   -3.1186   -0.9938   -2.5581 C   0  0  0  0  0  0  0  0  0  0  0  0
   -2.9771    0.4760   -2.9726 C   0  0  0  0  0  0  0  0  0  0  0  0
   -4.3067    1.1021   -3.4310 C   0  0  0  0  0  0  0  0  0  0  0  0
   -5.4214    1.1211   -2.3687 C   0  0  0  0  0  0  0  0  0  0  0  0
   -5.0553    1.9572   -1.1302 C   0  0  0  0  0  0  0  0  0  0  0  0
   -6.2044    2.0347   -0.1122 C   0  0  0  0  0  0  0  0  0  0  0  0
   -7.3522    2.9461   -0.5809 C   0  0  0  0  0  0  0  0  0  0  0  0
   -8.3734    3.2373    0.5333 C   0  0  0  0  0  0  0  0  0  0  0  0
   -9.0895    1.9942    1.0990 C   0  0  0  0  0  0  0  0  0  0  0  0
   -9.8415    1.1435    0.0563 C   0  0  0  0  0  0  0  0  0  0  0  0
  -10.9198    1.9015   -0.7425 C   0  0  0  0  0  0  0  0  0  0  0  0
  -12.0190    2.5667    0.1107 C   0  0  0  0  0  0  0  0  0  0  0  0
  -12.7764    1.6206    1.0606 C   0  0  0  0  0  0  0  0  0  0  0  0
  -13.5659    0.5313    0.3155 C   0  0  0  0  0  0  0  0  0  0  0  0
  -14.3134   -0.4224    1.2657 C   0  0  0  0  0  0  0  0  0  0  0  0
  -15.4277    0.2316    2.1025 C   0  0  0  0  0  0  0  0  0  0  0  0
  -16.5380    0.8433    1.2491 C   0  0  0  0  0  0  0  0  0  0  0  0
   13.5327    6.2319   -0.0419 H   0  0  0  0  0  0  0  0  0  0  0  0
   12.4353    4.8108   -0.0910 H   0  0  0  0  0  0  0  0  0  0  0  0
   14.0348    4.6983    0.7628 H   0  0  0  0  0  0  0  0  0  0  0  0
   13.5629    5.0408   -2.2781 H   0  0  0  0  0  0  0  0  0  0  0  0
   15.1632    5.1589   -1.4787 H   0  0  0  0  0  0  0  0  0  0  0  0
   14.9729    2.7978   -0.6566 H   0  0  0  0  0  0  0  0  0  0  0  0
   14.9348    2.9513   -2.4305 H   0  0  0  0  0  0  0  0  0  0  0  0
   12.2063    3.0314   -1.9684 H   0  0  0  0  0  0  0  0  0  0  0  0
   13.1437    1.5531   -2.3369 H   0  0  0  0  0  0  0  0  0  0  0  0
   13.3929    0.9999    0.0445 H   0  0  0  0  0  0  0  0  0  0  0  0
   12.5906    2.5371    0.5276 H   0  0  0  0  0  0  0  0  0  0  0  0
   10.4701    1.8111   -0.5896 H   0  0  0  0  0  0  0  0  0  0  0  0
   11.2768    0.3329   -1.1839 H   0  0  0  0  0  0  0  0  0  0  0  0
   11.6348   -0.4997    1.1078 H   0  0  0  0  0  0  0  0  0  0  0  0
    9.9138   -0.2258    0.7591 H   0  0  0  0  0  0  0  0  0  0  0  0
   11.7884    1.5375    2.4708 H   0  0  0  0  0  0  0  0  0  0  0  0
   10.4767    0.5081    3.0588 H   0  0  0  0  0  0  0  0  0  0  0  0
    9.8606    2.9179    3.0760 H   0  0  0  0  0  0  0  0  0  0  0  0
   10.1698    3.0566    1.3361 H   0  0  0  0  0  0  0  0  0  0  0  0
    7.8015    2.9353    1.6624 H   0  0  0  0  0  0  0  0  0  0  0  0
    8.2740    1.4294    0.8726 H   0  0  0  0  0  0  0  0  0  0  0  0
    8.1941    1.4364    3.9449 H   0  0  0  0  0  0  0  0  0  0  0  0
    6.6388    1.6725    3.1472 H   0  0  0  0  0  0  0  0  0  0  0  0
    8.5409   -0.7196    2.6613 H   0  0  0  0  0  0  0  0  0  0  0  0
    7.1500   -0.7225    3.7545 H   0  0  0  0  0  0  0  0  0  0  0  0
    6.6099   -1.8506    1.6301 H   0  0  0  0  0  0  0  0  0  0  0  0
    7.0855   -0.4435    0.6766 H   0  0  0  0  0  0  0  0  0  0  0  0
    5.1924    0.8916    1.5471 H   0  0  0  0  0  0  0  0  0  0  0  0
    4.6346   -0.6129    0.8080 H   0  0  0  0  0  0  0  0  0  0  0  0
    4.8791   -0.0282    3.8339 H   0  0  0  0  0  0  0  0  0  0  0  0
    3.3830   -0.1154    2.8849 H   0  0  0  0  0  0  0  0  0  0  0  0
    5.3070   -2.4645    3.4879 H   0  0  0  0  0  0  0  0  0  0  0  0
    3.7273   -2.1591    4.2468 H   0  0  0  0  0  0  0  0  0  0  0  0
    4.1826   -2.8471    1.2622 H   0  0  0  0  0  0  0  0  0  0  0  0
    3.5927   -3.9485    2.5335 H   0  0  0  0  0  0  0  0  0  0  0  0
    0.6742   -0.0674    0.2523 H   0  0  0  0  0  0  0  0  0  0  0  0
   -0.0854   -1.1983    1.4081 H   0  0  0  0  0  0  0  0  0  0  0  0
    0.7958   -1.8102   -1.4961 H   0  0  0  0  0  0  0  0  0  0  0  0
   -0.7183   -3.8944   -1.1090 H   0  0  0  0  0  0  0  0  0  0  0  0
   -0.5826   -3.5371    0.6571 H   0  0  0  0  0  0  0  0  0  0  0  0
    0.1944   -6.7591    1.7988 H   0  0  0  0  0  0  0  0  0  0  0  0
    1.3767   -7.0978   -2.3181 H   0  0  0  0  0  0  0  0  0  0  0  0
    0.8020   -5.3962   -2.5744 H   0  0  0  0  0  0  0  0  0  0  0  0
   -0.0415   -7.0039   -4.2955 H   0  0  0  0  0  0  0  0  0  0  0  0
   -0.8785   -7.9434   -3.0087 H   0  0  0  0  0  0  0  0  0  0  0  0
   -1.3635   -5.0691   -3.6835 H   0  0  0  0  0  0  0  0  0  0  0  0
   -2.3444   -6.3901   -4.1131 H   0  0  0  0  0  0  0  0  0  0  0  0
   -2.1749   -5.9681   -2.4750 H   0  0  0  0  0  0  0  0  0  0  0  0
   -3.6197   -1.5713   -3.3656 H   0  0  0  0  0  0  0  0  0  0  0  0
   -3.7316   -1.0745   -1.6361 H   0  0  0  0  0  0  0  0  0  0  0  0
   -2.2647    0.5402   -3.8248 H   0  0  0  0  0  0  0  0  0  0  0  0
   -2.5381    1.0667   -2.1408 H   0  0  0  0  0  0  0  0  0  0  0  0
   -4.1101    2.1448   -3.7632 H   0  0  0  0  0  0  0  0  0  0  0  0
   -4.6762    0.5445   -4.3193 H   0  0  0  0  0  0  0  0  0  0  0  0
   -5.6836    0.0853   -2.0665 H   0  0  0  0  0  0  0  0  0  0  0  0
   -6.3220    1.5549   -2.8507 H   0  0  0  0  0  0  0  0  0  0  0  0
   -4.7493    2.9815   -1.4360 H   0  0  0  0  0  0  0  0  0  0  0  0
   -4.1920    1.4843   -0.6166 H   0  0  0  0  0  0  0  0  0  0  0  0
   -6.5844    1.0101    0.0891 H   0  0  0  0  0  0  0  0  0  0  0  0
   -5.7933    2.4369    0.8396 H   0  0  0  0  0  0  0  0  0  0  0  0
   -6.9288    3.9196   -0.9115 H   0  0  0  0  0  0  0  0  0  0  0  0
   -7.8702    2.5028   -1.4551 H   0  0  0  0  0  0  0  0  0  0  0  0
   -9.1280    3.9554    0.1484 H   0  0  0  0  0  0  0  0  0  0  0  0
   -7.8523    3.7514    1.3702 H   0  0  0  0  0  0  0  0  0  0  0  0
   -9.8003    2.3239    1.8858 H   0  0  0  0  0  0  0  0  0  0  0  0
   -8.3483    1.3476    1.6146 H   0  0  0  0  0  0  0  0  0  0  0  0
  -10.3070    0.2774    0.5722 H   0  0  0  0  0  0  0  0  0  0  0  0
   -9.1118    0.7066   -0.6576 H   0  0  0  0  0  0  0  0  0  0  0  0
  -10.4338    2.6840   -1.3625 H   0  0  0  0  0  0  0  0  0  0  0  0
  -11.3871    1.1984   -1.4634 H   0  0  0  0  0  0  0  0  0  0  0  0
  -11.5703    3.3874    0.7095 H   0  0  0  0  0  0  0  0  0  0  0  0
  -12.7517    3.0455   -0.5750 H   0  0  0  0  0  0  0  0  0  0  0  0
  -12.0760    1.1580    1.7870 H   0  0  0  0  0  0  0  0  0  0  0  0
  -13.4833    2.2477    1.6426 H   0  0  0  0  0  0  0  0  0  0  0  0
  -14.2735    0.9948   -0.4037 H   0  0  0  0  0  0  0  0  0  0  0  0
  -12.8598   -0.0902   -0.2738 H   0  0  0  0  0  0  0  0  0  0  0  0
  -14.7577   -1.2439    0.6620 H   0  0  0  0  0  0  0  0  0  0  0  0
  -13.5794   -0.8911    1.9569 H   0  0  0  0  0  0  0  0  0  0  0  0
  -15.8792   -0.5544    2.7459 H   0  0  0  0  0  0  0  0  0  0  0  0
  -15.0092    1.0018    2.7830 H   0  0  0  0  0  0  0  0  0  0  0  0
  -17.3830    1.1442    1.9036 H   0  0  0  0  0  0  0  0  0  0  0  0
  -16.9105    0.1055    0.5070 H   0  0  0  0  0  0  0  0  0  0  0  0
  -16.1725    1.7494    0.7228 H   0  0  0  0  0  0  0  0  0  0  0  0
  1  2  1  0
  2  3  1  0
  3  4  1  0
  4  5  1  0
  5  6  1  0
  6  7  1  0
  7  8  1  0
  8  9  1  0
  9 10  1  0
 10 11  1  0
 11 12  1  0
 12 13  1  0
 13 14  1  0
 14 15  1  0
 15 16  1  0
 16 17  1  0
 17 18  1  0
 18 19  2  0
 18 20  1  0
 20 21  1  0
 21 22  1  0
 22 23  1  0
 23 24  1  0
 25 24  1  6
 25 26  1  0
 25 27  2  0
 25 28  1  0
 28 29  1  0
 29 30  1  0
 30 31  1  0
 22 32  1  0
 32 33  1  0
 33 34  2  0
 33 35  1  0
 35 36  1  0
 36 37  1  0
 37 38  1  0
 38 39  1  0
 39 40  1  0
 40 41  1  0
 41 42  1  0
 42 43  1  0
 43 44  1  0
 44 45  1  0
 45 46  1  0
 46 47  1  0
 47 48  1  0
 48 49  1  0
 49 50  1  0
 50 51  1  0
  1 52  1  0
  1 53  1  0
  1 54  1  0
  2 55  1  0
  2 56  1  0
  3 57  1  0
  3 58  1  0
  4 59  1  0
  4 60  1  0
  5 61  1  0
  5 62  1  0
  6 63  1  0
  6 64  1  0
  7 65  1  0
  7 66  1  0
  8 67  1  0
  8 68  1  0
  9 69  1  0
  9 70  1  0
 10 71  1  0
 10 72  1  0
 11 73  1  0
 11 74  1  0
 12 75  1  0
 12 76  1  0
 13 77  1  0
 13 78  1  0
 14 79  1  0
 14 80  1  0
 15 81  1  0
 15 82  1  0
 16 83  1  0
 16 84  1  0
 17 85  1  0
 17 86  1  0
 21 87  1  0
 21 88  1  0
 22 89  1  6
 23 90  1  0
 23 91  1  0
 26 92  1  0
 29 93  1  0
 29 94  1  0
 30 95  1  0
 30 96  1  0
 31 97  1  0
 31 98  1  0
 31 99  1  0
 35100  1  0
 35101  1  0
 36102  1  0
 36103  1  0
 37104  1  0
 37105  1  0
 38106  1  0
 38107  1  0
 39108  1  0
 39109  1  0
 40110  1  0
 40111  1  0
 41112  1  0
 41113  1  0
 42114  1  0
 42115  1  0
 43116  1  0
 43117  1  0
 44118  1  0
 44119  1  0
 45120  1  0
 45121  1  0
 46122  1  0
 46123  1  0
 47124  1  0
 47125  1  0
 48126  1  0
 48127  1  0
 49128  1  0
 49129  1  0
 50130  1  0
 50131  1  0
 51132  1  0
 51133  1  0
 51134  1  0
M  CHG  1  31   1
M  END
$$$$
