
     RDKit          3D

 51 54  0  0  0  0  0  0  0  0999 V2000
    1.4310   -0.2733   -3.1305 C   0  0  0  0  0  0  0  0  0  0  0  0
    0.5442   -0.3358   -1.9691 N   0  0  0  0  0  0  0  0  0  0  0  0
    0.5968   -1.1993   -0.9172 C   0  0  0  0  0  0  0  0  0  0  0  0
    1.5980   -2.3095   -0.7741 C   0  0  0  0  0  0  0  0  0  0  0  0
    2.9335   -1.7610   -0.3492 C   0  0  0  0  0  0  0  0  0  0  0  0
    4.0042   -1.7057   -1.2536 C   0  0  0  0  0  0  0  0  0  0  0  0
    5.2355   -1.1750   -0.8593 C   0  0  0  0  0  0  0  0  0  0  0  0
    5.4186   -0.6820    0.4460 C   0  0  0  0  0  0  0  0  0  0  0  0
    4.3444   -0.7489    1.3520 C   0  0  0  0  0  0  0  0  0  0  0  0
    3.1139   -1.2806    0.9564 C   0  0  0  0  0  0  0  0  0  0  0  0
    6.7301   -0.1210    0.8578 C   0  0  0  0  0  0  0  0  0  0  0  0
    6.8198    0.8434    1.9143 N   0  0  0  0  0  0  0  0  0  0  0  0
    7.8084   -0.4973    0.2442 N   0  0  0  0  0  0  0  0  0  0  0  0
   -0.2980   -0.9067    0.0631 N   0  0  0  0  0  0  0  0  0  0  0  0
   -0.9237    0.1854   -0.4109 C   0  0  0  0  0  0  0  0  0  0  0  0
   -0.4139    0.5414   -1.6237 C   0  0  0  0  0  0  0  0  0  0  0  0
   -0.8593    1.6750   -2.3037 C   0  0  0  0  0  0  0  0  0  0  0  0
   -1.8769    2.4389   -1.7047 C   0  0  0  0  0  0  0  0  0  0  0  0
   -2.4249    2.0693   -0.4493 C   0  0  0  0  0  0  0  0  0  0  0  0
   -3.4687    2.8784    0.1210 N   0  0  0  0  0  0  0  0  0  0  0  0
   -4.3997    2.4173    1.5115 S   0  0  0  0  0  6  0  0  0  0  0  0
   -5.5073    3.4113    1.7181 O   0  0  0  0  0  0  0  0  0  0  0  0
   -3.5079    2.4198    2.7218 O   0  0  0  0  0  0  0  0  0  0  0  0
   -5.1079    0.8245    1.2623 C   0  0  0  0  0  0  0  0  0  0  0  0
   -5.1989   -0.0871    2.3243 C   0  0  0  0  0  0  0  0  0  0  0  0
   -5.7510   -1.3549    2.1152 C   0  0  0  0  0  0  0  0  0  0  0  0
   -6.2160   -1.7161    0.8473 C   0  0  0  0  0  0  0  0  0  0  0  0
   -6.1315   -0.8087   -0.2127 C   0  0  0  0  0  0  0  0  0  0  0  0
   -5.5807    0.4598   -0.0064 C   0  0  0  0  0  0  0  0  0  0  0  0
   -1.9263    0.9209    0.2142 C   0  0  0  0  0  0  0  0  0  0  0  0
    0.9105    0.1920   -3.9927 H   0  0  0  0  0  0  0  0  0  0  0  0
    1.7387   -1.2923   -3.4407 H   0  0  0  0  0  0  0  0  0  0  0  0
    2.3316    0.3245   -2.8790 H   0  0  0  0  0  0  0  0  0  0  0  0
    1.2401   -3.0317   -0.0087 H   0  0  0  0  0  0  0  0  0  0  0  0
    1.6771   -2.8732   -1.7275 H   0  0  0  0  0  0  0  0  0  0  0  0
    3.8877   -2.0712   -2.2660 H   0  0  0  0  0  0  0  0  0  0  0  0
    6.0418   -1.1388   -1.5814 H   0  0  0  0  0  0  0  0  0  0  0  0
    4.4553   -0.4129    2.3742 H   0  0  0  0  0  0  0  0  0  0  0  0
    2.2996   -1.3204    1.6696 H   0  0  0  0  0  0  0  0  0  0  0  0
    5.9676    1.2851    2.3233 H   0  0  0  0  0  0  0  0  0  0  0  0
    7.7503    1.1855    2.2427 H   0  0  0  0  0  0  0  0  0  0  0  0
    8.7484   -0.1211    0.5006 H   0  0  0  0  0  0  0  0  0  0  0  0
   -0.4432    1.9670   -3.2582 H   0  0  0  0  0  0  0  0  0  0  0  0
   -2.2428    3.3193   -2.2177 H   0  0  0  0  0  0  0  0  0  0  0  0
   -3.7440    3.7638   -0.3601 H   0  0  0  0  0  0  0  0  0  0  0  0
   -4.8425    0.1805    3.3106 H   0  0  0  0  0  0  0  0  0  0  0  0
   -5.8181   -2.0575    2.9359 H   0  0  0  0  0  0  0  0  0  0  0  0
   -6.6424   -2.6978    0.6866 H   0  0  0  0  0  0  0  0  0  0  0  0
   -6.4926   -1.0883   -1.1940 H   0  0  0  0  0  0  0  0  0  0  0  0
   -5.5196    1.1548   -0.8343 H   0  0  0  0  0  0  0  0  0  0  0  0
   -2.2893    0.6100    1.1830 H   0  0  0  0  0  0  0  0  0  0  0  0
  1  2  1  0
  2  3  1  0
  3  4  1  0
  4  5  1  0
  5  6  2  0
  6  7  1  0
  7  8  2  0
  8  9  1  0
  9 10  2  0
  8 11  1  0
 11 12  1  0
 11 13  2  3
  3 14  2  0
 14 15  1  0
 15 16  2  0
 16 17  1  0
 17 18  2  0
 18 19  1  0
 19 20  1  0
 20 21  1  0
 21 22  2  0
 21 23  2  0
 21 24  1  0
 24 25  2  0
 25 26  1  0
 26 27  2  0
 27 28  1  0
 28 29  2  0
 19 30  2  0
 16  2  1  0
 29 24  1  0
 10  5  1  0
 30 15  1  0
  1 31  1  0
  1 32  1  0
  1 33  1  0
  4 34  1  0
  4 35  1  0
  6 36  1  0
  7 37  1  0
  9 38  1  0
 10 39  1  0
 12 40  1  0
 12 41  1  0
 13 42  1  0
 17 43  1  0
 18 44  1  0
 20 45  1  0
 25 46  1  0
 26 47  1  0
 27 48  1  0
 28 49  1  0
 29 50  1  0
 30 51  1  0
M  END
$$$$
