
     RDKit          3D

 20 20  0  0  0  0  0  0  0  0999 V2000
    4.4023   -0.5677    0.1142 O   0  0  0  0  0  0  0  0  0  0  0  0
    3.3436    0.2777    0.1063 N   0  0  0  0  0  0  0  0  0  0  0  0
    2.0441   -0.1767   -0.2808 C   0  0  0  0  0  0  0  0  0  0  0  0
    1.8833   -1.4080   -0.6560 N   0  0  0  0  0  0  0  0  0  0  0  0
    0.9558    0.7609   -0.3291 N   0  0  0  0  0  0  0  0  0  0  0  0
   -0.4247    0.4186   -0.1167 C   0  0  0  0  0  0  0  0  0  0  0  0
   -0.7950   -0.6264    0.7499 C   0  0  0  0  0  0  0  0  0  0  0  0
   -2.1452   -0.9208    0.9635 C   0  0  0  0  0  0  0  0  0  0  0  0
   -3.1368   -0.1675    0.3272 C   0  0  0  0  0  0  0  0  0  0  0  0
   -4.8301   -0.5370    0.5980 Cl  0  0  0  0  0  0  0  0  0  0  0  0
   -2.7767    0.8871   -0.5175 C   0  0  0  0  0  0  0  0  0  0  0  0
   -1.4272    1.1837   -0.7323 C   0  0  0  0  0  0  0  0  0  0  0  0
    4.4247   -0.9380    1.0335 H   0  0  0  0  0  0  0  0  0  0  0  0
    3.4873    1.2773    0.3729 H   0  0  0  0  0  0  0  0  0  0  0  0
    0.9687   -1.7768   -0.9984 H   0  0  0  0  0  0  0  0  0  0  0  0
    1.1897    1.7618   -0.5179 H   0  0  0  0  0  0  0  0  0  0  0  0
   -0.0431   -1.2024    1.2733 H   0  0  0  0  0  0  0  0  0  0  0  0
   -2.4192   -1.7293    1.6293 H   0  0  0  0  0  0  0  0  0  0  0  0
   -3.5405    1.4787   -1.0059 H   0  0  0  0  0  0  0  0  0  0  0  0
   -1.1609    2.0048   -1.3861 H   0  0  0  0  0  0  0  0  0  0  0  0
  1  2  1  0
  2  3  1  0
  3  4  2  3
  3  5  1  0
  5  6  1  0
  6  7  2  0
  7  8  1  0
  8  9  2  0
  9 10  1  0
  9 11  1  0
 11 12  2  0
 12  6  1  0
  1 13  1  0
  2 14  1  0
  4 15  1  0
  5 16  1  0
  7 17  1  0
  8 18  1  0
 11 19  1  0
 12 20  1  0
M  END
$$$$
