
     RDKit          3D

 54 57  0  0  0  0  0  0  0  0999 V2000
    4.1009    2.1264    0.4088 C   0  0  0  0  0  0  0  0  0  0  0  0
    4.9157    0.8736    0.7766 C   0  0  2  0  0  0  0  0  0  0  0  0
    6.3063    0.9760    0.1133 C   0  0  0  0  0  0  0  0  0  0  0  0
    7.0290   -0.3264    0.1857 C   0  0  0  0  0  0  0  0  0  0  0  0
    8.2865   -0.3619    0.2484 O   0  0  0  0  0  0  0  0  0  0  0  0
    6.2768   -1.5332    0.0936 N   0  0  0  0  0  0  0  0  0  0  0  0
    4.8730   -1.5003    0.1223 N   0  0  0  0  0  0  0  0  0  0  0  0
    4.1948   -0.4203    0.3910 C   0  0  0  0  0  0  0  0  0  0  0  0
    2.7257   -0.5489    0.4995 C   0  0  0  0  0  0  0  0  0  0  0  0
    2.0525   -0.1420    1.6620 C   0  0  0  0  0  0  0  0  0  0  0  0
    0.6660   -0.2835    1.7610 C   0  0  0  0  0  0  0  0  0  0  0  0
   -0.0705   -0.8403    0.7055 C   0  0  0  0  0  0  0  0  0  0  0  0
   -1.4987   -0.9623    0.8296 N   0  0  0  0  0  0  0  0  0  0  0  0
   -2.3461   -1.4124   -0.2358 C   0  0  0  0  0  0  0  0  0  0  0  0
   -2.7120   -0.5757   -1.2385 C   0  0  0  0  0  0  0  0  0  0  0  0
   -2.2343    0.8644   -1.2716 C   0  0  0  0  0  0  0  0  0  0  0  0
   -2.9498    1.6945   -0.2374 C   0  0  0  0  0  0  0  0  0  0  0  0
   -4.3243    1.9551   -0.3686 C   0  0  0  0  0  0  0  0  0  0  0  0
   -4.9949    2.7114    0.5985 C   0  0  0  0  0  0  0  0  0  0  0  0
   -7.0598    3.0886    0.3955 I   0  0  0  0  0  0  0  0  0  0  0  0
   -4.2966    3.2149    1.7003 C   0  0  0  0  0  0  0  0  0  0  0  0
   -2.9286    2.9646    1.8352 C   0  0  0  0  0  0  0  0  0  0  0  0
   -2.2554    2.2092    0.8709 C   0  0  0  0  0  0  0  0  0  0  0  0
   -3.6299   -1.0631   -2.3057 C   0  0  0  0  0  0  0  0  0  0  0  0
   -4.0012   -0.2900   -3.2293 O   0  0  0  0  0  0  0  0  0  0  0  0
   -4.1757   -2.4625   -2.2746 C   0  0  0  0  0  0  0  0  0  0  0  0
   -3.2471   -3.3915   -1.4934 C   0  0  0  0  0  0  0  0  0  0  0  0
   -2.9357   -2.7960   -0.1190 C   0  0  0  0  0  0  0  0  0  0  0  0
    0.6087   -1.2737   -0.4484 C   0  0  0  0  0  0  0  0  0  0  0  0
    1.9956   -1.1327   -0.5465 C   0  0  0  0  0  0  0  0  0  0  0  0
    4.6952    3.0440    0.6076 H   0  0  0  0  0  0  0  0  0  0  0  0
    3.1782    2.1995    1.0183 H   0  0  0  0  0  0  0  0  0  0  0  0
    3.8225    2.1082   -0.6669 H   0  0  0  0  0  0  0  0  0  0  0  0
    5.0596    0.8642    1.8795 H   0  0  0  0  0  0  0  0  0  0  0  0
    6.9044    1.7668    0.6170 H   0  0  0  0  0  0  0  0  0  0  0  0
    6.2003    1.2465   -0.9602 H   0  0  0  0  0  0  0  0  0  0  0  0
    6.7667   -2.4495   -0.0087 H   0  0  0  0  0  0  0  0  0  0  0  0
    2.6007    0.2786    2.4958 H   0  0  0  0  0  0  0  0  0  0  0  0
    0.1630    0.0461    2.6615 H   0  0  0  0  0  0  0  0  0  0  0  0
   -1.9378   -0.8314    1.7687 H   0  0  0  0  0  0  0  0  0  0  0  0
   -2.4062    1.3189   -2.2700 H   0  0  0  0  0  0  0  0  0  0  0  0
   -1.1351    0.9051   -1.1234 H   0  0  0  0  0  0  0  0  0  0  0  0
   -4.8733    1.5682   -1.2178 H   0  0  0  0  0  0  0  0  0  0  0  0
   -4.8127    3.7998    2.4506 H   0  0  0  0  0  0  0  0  0  0  0  0
   -2.3892    3.3560    2.6880 H   0  0  0  0  0  0  0  0  0  0  0  0
   -1.1952    2.0256    0.9905 H   0  0  0  0  0  0  0  0  0  0  0  0
   -5.1786   -2.4465   -1.7958 H   0  0  0  0  0  0  0  0  0  0  0  0
   -4.2886   -2.8467   -3.3114 H   0  0  0  0  0  0  0  0  0  0  0  0
   -2.3003   -3.5375   -2.0594 H   0  0  0  0  0  0  0  0  0  0  0  0
   -3.7329   -4.3831   -1.3683 H   0  0  0  0  0  0  0  0  0  0  0  0
   -3.8654   -2.7429    0.4879 H   0  0  0  0  0  0  0  0  0  0  0  0
   -2.2175   -3.4615    0.4065 H   0  0  0  0  0  0  0  0  0  0  0  0
    0.0715   -1.7215   -1.2742 H   0  0  0  0  0  0  0  0  0  0  0  0
    2.4997   -1.4690   -1.4445 H   0  0  0  0  0  0  0  0  0  0  0  0
  1  2  1  0
  2  3  1  0
  3  4  1  0
  4  5  2  0
  4  6  1  0
  6  7  1  0
  7  8  2  0
  8  9  1  0
  9 10  2  0
 10 11  1  0
 11 12  2  0
 12 13  1  0
 13 14  1  0
 14 15  2  0
 15 16  1  0
 16 17  1  0
 17 18  2  0
 18 19  1  0
 19 20  1  0
 19 21  2  0
 21 22  1  0
 22 23  2  0
 15 24  1  0
 24 25  2  0
 24 26  1  0
 26 27  1  0
 27 28  1  0
 12 29  1  0
 29 30  2  0
  8  2  1  0
 30  9  1  0
 28 14  1  0
 23 17  1  0
  1 31  1  0
  1 32  1  0
  1 33  1  0
  2 34  1  1
  3 35  1  0
  3 36  1  0
  6 37  1  0
 10 38  1  0
 11 39  1  0
 13 40  1  0
 16 41  1  0
 16 42  1  0
 18 43  1  0
 21 44  1  0
 22 45  1  0
 23 46  1  0
 26 47  1  0
 26 48  1  0
 27 49  1  0
 27 50  1  0
 28 51  1  0
 28 52  1  0
 29 53  1  0
 30 54  1  0
M  END
$$$$
