
     RDKit          3D

 46 46  0  0  0  0  0  0  0  0999 V2000
   -4.7422    1.6149    1.2745 C   0  0  0  0  0  0  0  0  0  0  0  0
   -4.8729    0.9141   -0.0849 C   0  0  0  0  0  0  0  0  0  0  0  0
   -5.7780   -0.3201    0.0184 C   0  0  0  0  0  0  0  0  0  0  0  0
   -3.5011    0.6163   -0.7455 C   0  0  0  0  0  0  0  0  0  0  0  0
   -2.5200   -0.2712    0.0621 C   0  0  2  0  0  0  0  0  0  0  0  0
   -1.1785   -0.1909   -0.5241 N   0  0  0  0  0  0  0  0  0  0  0  0
   -0.0009   -0.5741    0.2046 C   0  0  0  0  0  0  0  0  0  0  0  0
   -0.0955   -0.9645    1.4001 O   0  0  0  0  0  0  0  0  0  0  0  0
    1.3642   -0.4699   -0.4281 C   0  0  1  0  0  0  0  0  0  0  0  0
    1.3058   -0.8408   -1.7821 O   0  0  0  0  0  0  0  0  0  0  0  0
    1.9244    0.9657   -0.2877 C   0  0  2  0  0  0  0  0  0  0  0  0
    1.0407    1.9255   -0.9581 N   0  0  0  0  0  0  0  0  0  0  0  0
    3.3668    1.0896   -0.8360 C   0  0  0  0  0  0  0  0  0  0  0  0
    4.3533    0.2769   -0.0355 C   0  0  0  0  0  0  0  0  0  0  0  0
    4.7975    0.7371    1.2155 C   0  0  0  0  0  0  0  0  0  0  0  0
    5.6949   -0.0260    1.9689 C   0  0  0  0  0  0  0  0  0  0  0  0
    6.1518   -1.2536    1.4816 C   0  0  0  0  0  0  0  0  0  0  0  0
    5.7110   -1.7208    0.2404 C   0  0  0  0  0  0  0  0  0  0  0  0
    4.8141   -0.9607   -0.5166 C   0  0  0  0  0  0  0  0  0  0  0  0
   -2.9514   -1.7100    0.0866 C   0  0  0  0  0  0  0  0  0  0  0  0
   -3.1365   -2.3552    1.3054 O   0  0  0  0  0  0  0  0  0  0  0  0
   -3.1182   -2.3435   -0.9906 O   0  0  0  0  0  0  0  0  0  0  0  0
   -4.3829    0.9136    2.0565 H   0  0  0  0  0  0  0  0  0  0  0  0
   -4.0395    2.4721    1.2020 H   0  0  0  0  0  0  0  0  0  0  0  0
   -5.7324    2.0055    1.5925 H   0  0  0  0  0  0  0  0  0  0  0  0
   -5.3912    1.6284   -0.7633 H   0  0  0  0  0  0  0  0  0  0  0  0
   -6.8160   -0.0042    0.2572 H   0  0  0  0  0  0  0  0  0  0  0  0
   -5.4379   -1.0031    0.8231 H   0  0  0  0  0  0  0  0  0  0  0  0
   -5.7987   -0.8693   -0.9469 H   0  0  0  0  0  0  0  0  0  0  0  0
   -3.0054    1.5963   -0.9257 H   0  0  0  0  0  0  0  0  0  0  0  0
   -3.6683    0.1708   -1.7511 H   0  0  0  0  0  0  0  0  0  0  0  0
   -2.4656    0.1139    1.1015 H   0  0  0  0  0  0  0  0  0  0  0  0
   -1.0734    0.1248   -1.5153 H   0  0  0  0  0  0  0  0  0  0  0  0
    2.0444   -1.1678    0.1130 H   0  0  0  0  0  0  0  0  0  0  0  0
    1.1907   -1.8269   -1.8049 H   0  0  0  0  0  0  0  0  0  0  0  0
    1.9447    1.2199    0.7969 H   0  0  0  0  0  0  0  0  0  0  0  0
    1.3566    2.8948   -0.7236 H   0  0  0  0  0  0  0  0  0  0  0  0
    1.1235    1.8125   -1.9949 H   0  0  0  0  0  0  0  0  0  0  0  0
    3.3951    0.7894   -1.9065 H   0  0  0  0  0  0  0  0  0  0  0  0
    3.6813    2.1557   -0.8001 H   0  0  0  0  0  0  0  0  0  0  0  0
    4.4472    1.6845    1.6061 H   0  0  0  0  0  0  0  0  0  0  0  0
    6.0347    0.3335    2.9316 H   0  0  0  0  0  0  0  0  0  0  0  0
    6.8455   -1.8435    2.0665 H   0  0  0  0  0  0  0  0  0  0  0  0
    6.0626   -2.6734   -0.1342 H   0  0  0  0  0  0  0  0  0  0  0  0
    4.4746   -1.3390   -1.4729 H   0  0  0  0  0  0  0  0  0  0  0  0
   -3.4189   -3.3273    1.3408 H   0  0  0  0  0  0  0  0  0  0  0  0
  1  2  1  0
  2  3  1  0
  2  4  1  0
  4  5  1  0
  5  6  1  0
  6  7  1  0
  7  8  2  0
  7  9  1  0
  9 10  1  0
  9 11  1  0
 11 12  1  0
 11 13  1  0
 13 14  1  0
 14 15  2  0
 15 16  1  0
 16 17  2  0
 17 18  1  0
 18 19  2  0
  5 20  1  0
 20 21  1  0
 20 22  2  0
 19 14  1  0
  1 23  1  0
  1 24  1  0
  1 25  1  0
  2 26  1  0
  3 27  1  0
  3 28  1  0
  3 29  1  0
  4 30  1  0
  4 31  1  0
  5 32  1  1
  6 33  1  0
  9 34  1  1
 10 35  1  0
 11 36  1  1
 12 37  1  0
 12 38  1  0
 13 39  1  0
 13 40  1  0
 15 41  1  0
 16 42  1  0
 17 43  1  0
 18 44  1  0
 19 45  1  0
 21 46  1  0
M  END
$$$$
