
     RDKit          3D

 42 43  0  0  0  0  0  0  0  0999 V2000
   -2.8612   -0.7027   -1.2102 C   0  0  2  0  0  0  0  0  0  0  0  0
   -2.9504   -2.0663   -0.8816 O   0  0  0  0  0  0  0  0  0  0  0  0
   -1.3890   -0.2625   -1.1508 C   0  0  0  0  0  0  0  0  0  0  0  0
   -0.7957   -0.3558    0.2111 N   0  0  0  0  0  0  0  0  0  0  0  0
    0.1413   -1.4922    0.3469 C   0  0  0  0  0  0  0  0  0  0  0  0
    1.5220   -1.1381   -0.2232 C   0  0  0  0  0  0  0  0  0  0  0  0
    2.1742    0.0205    0.5424 C   0  0  0  0  0  0  0  0  0  0  0  0
    3.5360    0.3252   -0.0211 C   0  0  0  0  0  0  0  0  0  0  0  0
    3.6747    1.2270   -1.0897 C   0  0  0  0  0  0  0  0  0  0  0  0
    4.9367    1.4847   -1.6342 C   0  0  0  0  0  0  0  0  0  0  0  0
    6.0655    0.8378   -1.1235 C   0  0  0  0  0  0  0  0  0  0  0  0
    5.9336   -0.0711   -0.0700 C   0  0  0  0  0  0  0  0  0  0  0  0
    4.6735   -0.3318    0.4775 C   0  0  0  0  0  0  0  0  0  0  0  0
   -1.7845   -0.3491    1.3136 C   0  0  0  0  0  0  0  0  0  0  0  0
   -2.9561    0.6044    1.0165 C   0  0  2  0  0  0  0  0  0  0  0  0
   -3.8805    0.7106    2.2466 C   0  0  0  0  0  0  0  0  0  0  0  0
   -4.8973    1.6520    2.0332 O   0  0  0  0  0  0  0  0  0  0  0  0
   -3.7336    0.1491   -0.2538 C   0  0  1  0  0  0  0  0  0  0  0  0
   -4.1895    1.2816   -0.9521 O   0  0  0  0  0  0  0  0  0  0  0  0
   -3.2157   -0.5608   -2.2590 H   0  0  0  0  0  0  0  0  0  0  0  0
   -3.8249   -2.3888   -1.2238 H   0  0  0  0  0  0  0  0  0  0  0  0
   -0.8133   -0.8517   -1.8985 H   0  0  0  0  0  0  0  0  0  0  0  0
   -1.3233    0.7959   -1.4833 H   0  0  0  0  0  0  0  0  0  0  0  0
   -0.2565   -2.3957   -0.1671 H   0  0  0  0  0  0  0  0  0  0  0  0
    0.2816   -1.7698    1.4170 H   0  0  0  0  0  0  0  0  0  0  0  0
    1.4353   -0.8738   -1.2987 H   0  0  0  0  0  0  0  0  0  0  0  0
    2.1730   -2.0368   -0.1487 H   0  0  0  0  0  0  0  0  0  0  0  0
    2.2626   -0.2435    1.6193 H   0  0  0  0  0  0  0  0  0  0  0  0
    1.5336    0.9271    0.4762 H   0  0  0  0  0  0  0  0  0  0  0  0
    2.8066    1.7276   -1.5006 H   0  0  0  0  0  0  0  0  0  0  0  0
    5.0391    2.1833   -2.4546 H   0  0  0  0  0  0  0  0  0  0  0  0
    7.0413    1.0373   -1.5470 H   0  0  0  0  0  0  0  0  0  0  0  0
    6.8076   -0.5765    0.3202 H   0  0  0  0  0  0  0  0  0  0  0  0
    4.5837   -1.0452    1.2874 H   0  0  0  0  0  0  0  0  0  0  0  0
   -2.1801   -1.3741    1.5002 H   0  0  0  0  0  0  0  0  0  0  0  0
   -1.2702   -0.0138    2.2412 H   0  0  0  0  0  0  0  0  0  0  0  0
   -2.5162    1.6112    0.8320 H   0  0  0  0  0  0  0  0  0  0  0  0
   -3.2907    0.9961    3.1477 H   0  0  0  0  0  0  0  0  0  0  0  0
   -4.3467   -0.2763    2.4551 H   0  0  0  0  0  0  0  0  0  0  0  0
   -4.4725    2.5473    2.0926 H   0  0  0  0  0  0  0  0  0  0  0  0
   -4.6086   -0.4788    0.0423 H   0  0  0  0  0  0  0  0  0  0  0  0
   -5.0655    1.5364   -0.5616 H   0  0  0  0  0  0  0  0  0  0  0  0
  1  2  1  0
  1  3  1  0
  3  4  1  0
  4  5  1  0
  5  6  1  0
  6  7  1  0
  7  8  1  0
  8  9  2  0
  9 10  1  0
 10 11  2  0
 11 12  1  0
 12 13  2  0
  4 14  1  0
 14 15  1  0
 15 16  1  0
 16 17  1  0
 15 18  1  0
 18 19  1  0
 18  1  1  0
 13  8  1  0
  1 20  1  6
  2 21  1  0
  3 22  1  0
  3 23  1  0
  5 24  1  0
  5 25  1  0
  6 26  1  0
  6 27  1  0
  7 28  1  0
  7 29  1  0
  9 30  1  0
 10 31  1  0
 11 32  1  0
 12 33  1  0
 13 34  1  0
 14 35  1  0
 14 36  1  0
 15 37  1  6
 16 38  1  0
 16 39  1  0
 17 40  1  0
 18 41  1  1
 19 42  1  0
M  END
$$$$
