
     RDKit          3D

 20 19  0  0  0  0  0  0  0  0999 V2000
    3.0760    0.8249   -0.0976 C   0  0  0  0  0  0  0  0  0  0  0  0
    2.5205   -0.7136   -0.9021 S   0  0  0  0  0  0  0  0  0  0  0  0
    0.7328   -0.3384   -0.8216 C   0  0  0  0  0  0  0  0  0  0  0  0
    0.1417   -0.8193    0.5116 C   0  0  0  0  0  0  0  0  0  0  0  0
   -1.3819   -0.6034    0.6213 C   0  0  2  0  0  0  0  0  0  0  0  0
   -2.0880   -1.2946   -0.4597 N   0  0  0  0  0  0  0  0  0  0  0  0
   -1.7216    0.8626    0.6187 C   0  0  0  0  0  0  0  0  0  0  0  0
   -2.0362    1.5098   -0.5734 O   0  0  0  0  0  0  0  0  0  0  0  0
   -1.6825    1.5172    1.6949 O   0  0  0  0  0  0  0  0  0  0  0  0
    4.1825    0.8116   -0.0216 H   0  0  0  0  0  0  0  0  0  0  0  0
    2.7717    1.7039   -0.7028 H   0  0  0  0  0  0  0  0  0  0  0  0
    2.6508    0.9062    0.9232 H   0  0  0  0  0  0  0  0  0  0  0  0
    0.2419   -0.8749   -1.6604 H   0  0  0  0  0  0  0  0  0  0  0  0
    0.5589    0.7488   -0.9634 H   0  0  0  0  0  0  0  0  0  0  0  0
    0.3570   -1.9040    0.6293 H   0  0  0  0  0  0  0  0  0  0  0  0
    0.6412   -0.2930    1.3530 H   0  0  0  0  0  0  0  0  0  0  0  0
   -1.7156   -1.0325    1.5941 H   0  0  0  0  0  0  0  0  0  0  0  0
   -3.1168   -1.1935   -0.2975 H   0  0  0  0  0  0  0  0  0  0  0  0
   -1.8838   -2.3179   -0.3848 H   0  0  0  0  0  0  0  0  0  0  0  0
   -2.2485    2.5001   -0.5866 H   0  0  0  0  0  0  0  0  0  0  0  0
  1  2  1  0
  2  3  1  0
  3  4  1  0
  4  5  1  0
  5  6  1  0
  5  7  1  0
  7  8  1  0
  7  9  2  0
  1 10  1  0
  1 11  1  0
  1 12  1  0
  3 13  1  0
  3 14  1  0
  4 15  1  0
  4 16  1  0
  5 17  1  1
  6 18  1  0
  6 19  1  0
  8 20  1  0
M  END
$$$$
