
     RDKit          3D

 49 50  0  0  0  0  0  0  0  0999 V2000
    7.7016   -0.4437   -1.2760 C   0  0  0  0  0  0  0  0  0  0  0  0
    7.0235   -0.1669   -0.0550 O   0  0  0  0  0  0  0  0  0  0  0  0
    5.6287   -0.1708    0.0946 C   0  0  0  0  0  0  0  0  0  0  0  0
    5.0941    0.1208    1.3548 C   0  0  0  0  0  0  0  0  0  0  0  0
    3.7109    0.1297    1.5555 C   0  0  0  0  0  0  0  0  0  0  0  0
    2.8395   -0.1599    0.4941 C   0  0  0  0  0  0  0  0  0  0  0  0
    1.3459   -0.1235    0.6987 C   0  0  0  0  0  0  0  0  0  0  0  0
    0.7348    1.2208    0.2328 C   0  0  0  0  0  0  0  0  0  0  0  0
    1.1718    2.4015    1.1139 C   0  0  0  0  0  0  0  0  0  0  0  0
   -0.7372    1.1659    0.1163 N   0  0  0  0  0  0  0  0  0  0  0  0
   -1.4282    0.6878    1.3277 C   0  0  0  0  0  0  0  0  0  0  0  0
   -2.9211    1.0780    1.3090 C   0  0  0  0  0  0  0  0  0  0  0  0
   -3.1079    2.4703    1.4156 O   0  0  0  0  0  0  0  0  0  0  0  0
   -3.6450    0.5025    0.1057 C   0  0  0  0  0  0  0  0  0  0  0  0
   -4.1301   -0.8156    0.1590 C   0  0  0  0  0  0  0  0  0  0  0  0
   -4.7626   -1.3987   -0.9539 C   0  0  0  0  0  0  0  0  0  0  0  0
   -5.2826   -2.7387   -0.8905 N   0  0  0  0  0  0  0  0  0  0  0  0
   -4.6345   -3.8195   -0.2077 C   0  0  0  0  0  0  0  0  0  0  0  0
   -3.4656   -3.6983    0.2457 O   0  0  0  0  0  0  0  0  0  0  0  0
   -4.9300   -0.6400   -2.1251 C   0  0  0  0  0  0  0  0  0  0  0  0
   -5.5750   -1.1956   -3.2296 O   0  0  0  0  0  0  0  0  0  0  0  0
   -4.4362    0.6689   -2.1873 C   0  0  0  0  0  0  0  0  0  0  0  0
   -3.7885    1.2331   -1.0871 C   0  0  0  0  0  0  0  0  0  0  0  0
    3.3717   -0.4453   -0.7727 C   0  0  0  0  0  0  0  0  0  0  0  0
    4.7553   -0.4544   -0.9728 C   0  0  0  0  0  0  0  0  0  0  0  0
    7.4617   -1.4715   -1.6215 H   0  0  0  0  0  0  0  0  0  0  0  0
    8.7956   -0.3719   -1.1076 H   0  0  0  0  0  0  0  0  0  0  0  0
    7.4116    0.2975   -2.0504 H   0  0  0  0  0  0  0  0  0  0  0  0
    5.7549    0.3446    2.1827 H   0  0  0  0  0  0  0  0  0  0  0  0
    3.3197    0.3664    2.5372 H   0  0  0  0  0  0  0  0  0  0  0  0
    0.8867   -0.9553    0.1208 H   0  0  0  0  0  0  0  0  0  0  0  0
    1.1081   -0.3062    1.7695 H   0  0  0  0  0  0  0  0  0  0  0  0
    1.1280    1.4329   -0.7876 H   0  0  0  0  0  0  0  0  0  0  0  0
    0.5936    3.3110    0.8451 H   0  0  0  0  0  0  0  0  0  0  0  0
    1.0231    2.1837    2.1916 H   0  0  0  0  0  0  0  0  0  0  0  0
    2.2486    2.6194    0.9512 H   0  0  0  0  0  0  0  0  0  0  0  0
   -0.9740    0.5189   -0.6727 H   0  0  0  0  0  0  0  0  0  0  0  0
   -1.3457   -0.4200    1.4018 H   0  0  0  0  0  0  0  0  0  0  0  0
   -0.9792    1.1235    2.2443 H   0  0  0  0  0  0  0  0  0  0  0  0
   -3.3760    0.6350    2.2222 H   0  0  0  0  0  0  0  0  0  0  0  0
   -2.4653    2.9242    0.8116 H   0  0  0  0  0  0  0  0  0  0  0  0
   -4.0319   -1.3782    1.0785 H   0  0  0  0  0  0  0  0  0  0  0  0
   -6.1412   -2.9708   -1.4384 H   0  0  0  0  0  0  0  0  0  0  0  0
   -5.1430   -4.7695   -0.1108 H   0  0  0  0  0  0  0  0  0  0  0  0
   -5.7049   -0.6723   -4.0876 H   0  0  0  0  0  0  0  0  0  0  0  0
   -4.5487    1.2499   -3.0939 H   0  0  0  0  0  0  0  0  0  0  0  0
   -3.4028    2.2396   -1.1745 H   0  0  0  0  0  0  0  0  0  0  0  0
    2.7136   -0.6589   -1.6060 H   0  0  0  0  0  0  0  0  0  0  0  0
    5.1346   -0.6802   -1.9600 H   0  0  0  0  0  0  0  0  0  0  0  0
  1  2  1  0
  2  3  1  0
  3  4  2  0
  4  5  1  0
  5  6  2  0
  6  7  1  0
  7  8  1  0
  8  9  1  0
  8 10  1  0
 10 11  1  0
 11 12  1  0
 12 13  1  0
 12 14  1  0
 14 15  2  0
 15 16  1  0
 16 17  1  0
 17 18  1  0
 18 19  2  0
 16 20  2  0
 20 21  1  0
 20 22  1  0
 22 23  2  0
  6 24  1  0
 24 25  2  0
 25  3  1  0
 23 14  1  0
  1 26  1  0
  1 27  1  0
  1 28  1  0
  4 29  1  0
  5 30  1  0
  7 31  1  0
  7 32  1  0
  8 33  1  0
  9 34  1  0
  9 35  1  0
  9 36  1  0
 10 37  1  0
 11 38  1  0
 11 39  1  0
 12 40  1  0
 13 41  1  0
 15 42  1  0
 17 43  1  0
 18 44  1  0
 21 45  1  0
 22 46  1  0
 23 47  1  0
 24 48  1  0
 25 49  1  0
M  END
$$$$
