
     RDKit          3D

 62 66  0  0  0  0  0  0  0  0999 V2000
   -7.6092   -3.2373    0.9803 C   0  0  0  0  0  0  0  0  0  0  0  0
   -6.2015   -3.0043    0.6446 N   0  0  0  0  0  0  0  0  0  0  0  0
   -5.3060   -4.1407    0.4023 C   0  0  0  0  0  0  0  0  0  0  0  0
   -5.7399   -1.6506    0.4544 C   0  0  0  0  0  0  0  0  0  0  0  0
   -6.5773   -0.7173    0.3196 O   0  0  0  0  0  0  0  0  0  0  0  0
   -4.3013   -1.3186    0.4317 C   0  0  0  0  0  0  0  0  0  0  0  0
   -3.3968   -1.7014    1.4242 C   0  0  0  0  0  0  0  0  0  0  0  0
   -2.2081   -1.1096    1.0674 C   0  0  0  0  0  0  0  0  0  0  0  0
   -0.9586   -1.0996    1.6671 C   0  0  0  0  0  0  0  0  0  0  0  0
    0.0309   -0.3797    1.0634 N   0  0  0  0  0  0  0  0  0  0  0  0
   -0.1917    0.3195   -0.0975 C   0  0  0  0  0  0  0  0  0  0  0  0
    0.8581    1.0759   -0.7214 N   0  0  0  0  0  0  0  0  0  0  0  0
    2.2089    1.1732   -0.2347 C   0  0  0  0  0  0  0  0  0  0  0  0
    3.1433    1.9537   -0.9278 C   0  0  0  0  0  0  0  0  0  0  0  0
    4.4531    2.0455   -0.4548 C   0  0  0  0  0  0  0  0  0  0  0  0
    4.8308    1.3663    0.7131 C   0  0  0  0  0  0  0  0  0  0  0  0
    3.8674    0.5874    1.3727 C   0  0  0  0  0  0  0  0  0  0  0  0
    2.5991    0.5118    0.8899 N   0  0  0  0  0  0  0  0  0  0  0  0
    6.1828    1.4415    1.2073 N   0  0  0  0  0  0  0  0  0  0  0  0
    6.4590    1.6589    2.6320 C   0  0  0  0  0  0  0  0  0  0  0  0
    7.4612    0.6101    3.1562 C   0  0  0  0  0  0  0  0  0  0  0  0
    8.3697    0.0803    2.1186 N   0  0  0  0  0  0  0  0  0  0  0  0
    8.6158    1.0446    1.0383 C   0  0  0  0  0  0  0  0  0  0  0  0
    7.3152    1.3416    0.2779 C   0  0  0  0  0  0  0  0  0  0  0  0
   -1.4324    0.3042   -0.6724 N   0  0  0  0  0  0  0  0  0  0  0  0
   -2.4194   -0.4136   -0.0814 C   0  0  0  0  0  0  0  0  0  0  0  0
   -3.6974   -0.5270   -0.5000 N   0  0  0  0  0  0  0  0  0  0  0  0
   -4.3065    0.0789   -1.6987 C   0  0  0  0  0  0  0  0  0  0  0  0
   -3.5171   -0.2422   -2.9773 C   0  0  0  0  0  0  0  0  0  0  0  0
   -3.0533    1.0918   -3.5463 C   0  0  0  0  0  0  0  0  0  0  0  0
   -3.9780    2.1384   -2.9516 C   0  0  0  0  0  0  0  0  0  0  0  0
   -4.3670    1.6047   -1.5841 C   0  0  0  0  0  0  0  0  0  0  0  0
   -7.8641   -2.6957    1.9157 H   0  0  0  0  0  0  0  0  0  0  0  0
   -8.2577   -2.8705    0.1568 H   0  0  0  0  0  0  0  0  0  0  0  0
   -7.8199   -4.3156    1.1409 H   0  0  0  0  0  0  0  0  0  0  0  0
   -4.7695   -4.0012   -0.5604 H   0  0  0  0  0  0  0  0  0  0  0  0
   -5.8679   -5.0962    0.3403 H   0  0  0  0  0  0  0  0  0  0  0  0
   -4.5707   -4.2275    1.2273 H   0  0  0  0  0  0  0  0  0  0  0  0
   -3.5940   -2.2922    2.3091 H   0  0  0  0  0  0  0  0  0  0  0  0
   -0.7679   -1.6403    2.5846 H   0  0  0  0  0  0  0  0  0  0  0  0
    0.6131    1.5926   -1.5968 H   0  0  0  0  0  0  0  0  0  0  0  0
    2.8590    2.4872   -1.8261 H   0  0  0  0  0  0  0  0  0  0  0  0
    5.1652    2.6575   -0.9922 H   0  0  0  0  0  0  0  0  0  0  0  0
    4.1275    0.0227    2.2580 H   0  0  0  0  0  0  0  0  0  0  0  0
    5.5314    1.6361    3.2427 H   0  0  0  0  0  0  0  0  0  0  0  0
    6.8971    2.6735    2.7535 H   0  0  0  0  0  0  0  0  0  0  0  0
    6.8946   -0.2334    3.6097 H   0  0  0  0  0  0  0  0  0  0  0  0
    8.0686    1.0635    3.9684 H   0  0  0  0  0  0  0  0  0  0  0  0
    7.9420   -0.7810    1.7025 H   0  0  0  0  0  0  0  0  0  0  0  0
    9.3700    0.6290    0.3360 H   0  0  0  0  0  0  0  0  0  0  0  0
    9.0353    1.9844    1.4613 H   0  0  0  0  0  0  0  0  0  0  0  0
    7.4255    2.2883   -0.2924 H   0  0  0  0  0  0  0  0  0  0  0  0
    7.1271    0.5128   -0.4395 H   0  0  0  0  0  0  0  0  0  0  0  0
   -5.3396   -0.3056   -1.8403 H   0  0  0  0  0  0  0  0  0  0  0  0
   -4.1862   -0.7410   -3.7134 H   0  0  0  0  0  0  0  0  0  0  0  0
   -2.6528   -0.9165   -2.7949 H   0  0  0  0  0  0  0  0  0  0  0  0
   -2.0079    1.2943   -3.2252 H   0  0  0  0  0  0  0  0  0  0  0  0
   -3.0993    1.0984   -4.6569 H   0  0  0  0  0  0  0  0  0  0  0  0
   -3.4755    3.1269   -2.8752 H   0  0  0  0  0  0  0  0  0  0  0  0
   -4.8866    2.2354   -3.5863 H   0  0  0  0  0  0  0  0  0  0  0  0
   -5.3861    1.9461   -1.2995 H   0  0  0  0  0  0  0  0  0  0  0  0
   -3.6447    1.9815   -0.8272 H   0  0  0  0  0  0  0  0  0  0  0  0
  1  2  1  0
  2  3  1  0
  2  4  1  0
  4  5  2  0
  4  6  1  0
  6  7  2  0
  7  8  1  0
  8  9  2  0
  9 10  1  0
 10 11  2  0
 11 12  1  0
 12 13  1  0
 13 14  2  0
 14 15  1  0
 15 16  2  0
 16 17  1  0
 17 18  2  0
 16 19  1  0
 19 20  1  0
 20 21  1  0
 21 22  1  0
 22 23  1  0
 23 24  1  0
 11 25  1  0
 25 26  2  0
 26 27  1  0
 27 28  1  0
 28 29  1  0
 29 30  1  0
 30 31  1  0
 31 32  1  0
 27  6  1  0
 32 28  1  0
 26  8  1  0
 18 13  1  0
 24 19  1  0
  1 33  1  0
  1 34  1  0
  1 35  1  0
  3 36  1  0
  3 37  1  0
  3 38  1  0
  7 39  1  0
  9 40  1  0
 12 41  1  0
 14 42  1  0
 15 43  1  0
 17 44  1  0
 20 45  1  0
 20 46  1  0
 21 47  1  0
 21 48  1  0
 22 49  1  0
 23 50  1  0
 23 51  1  0
 24 52  1  0
 24 53  1  0
 28 54  1  0
 29 55  1  0
 29 56  1  0
 30 57  1  0
 30 58  1  0
 31 59  1  0
 31 60  1  0
 32 61  1  0
 32 62  1  0
M  END
$$$$
