
     RDKit          3D

 51 53  0  0  0  0  0  0  0  0999 V2000
   -3.1738    0.2797   -1.4070 N   0  0  0  0  0  0  0  0  0  0  0  0
   -4.6344    0.2581   -1.2548 C   0  0  2  0  0  0  0  0  0  0  0  0
   -5.2526    1.6114   -1.6488 C   0  0  0  0  0  0  0  0  0  0  0  0
   -4.7571    2.6529   -0.8483 O   0  0  0  0  0  0  0  0  0  0  0  0
   -5.0284   -0.1252    0.1586 C   0  0  0  0  0  0  0  0  0  0  0  0
   -4.3096    0.3554    1.2702 C   0  0  0  0  0  0  0  0  0  0  0  0
   -4.7009    0.0114    2.5686 C   0  0  0  0  0  0  0  0  0  0  0  0
   -3.7925    0.6085    3.9452 Cl  0  0  0  0  0  0  0  0  0  0  0  0
   -5.8180   -0.8049    2.7691 C   0  0  0  0  0  0  0  0  0  0  0  0
   -6.5465   -1.2739    1.6734 C   0  0  0  0  0  0  0  0  0  0  0  0
   -6.1584   -0.9331    0.3745 C   0  0  0  0  0  0  0  0  0  0  0  0
   -2.3869   -0.9204   -1.3304 C   0  0  0  0  0  0  0  0  0  0  0  0
   -2.9592   -2.0424   -1.2688 O   0  0  0  0  0  0  0  0  0  0  0  0
   -0.9120   -0.8675   -1.3225 C   0  0  0  0  0  0  0  0  0  0  0  0
   -0.1313    0.2727   -1.2292 C   0  0  0  0  0  0  0  0  0  0  0  0
    1.1836   -0.1608   -1.2339 C   0  0  0  0  0  0  0  0  0  0  0  0
    1.1475   -1.5417   -1.3081 C   0  0  0  0  0  0  0  0  0  0  0  0
   -0.1279   -1.9631   -1.3677 N   0  0  0  0  0  0  0  0  0  0  0  0
    2.3979    0.6743   -1.0896 C   0  0  0  0  0  0  0  0  0  0  0  0
    3.4331    0.2303   -0.2504 C   0  0  0  0  0  0  0  0  0  0  0  0
    4.5924    1.0098   -0.0872 C   0  0  0  0  0  0  0  0  0  0  0  0
    4.6915    2.1930   -0.7500 N   0  0  0  0  0  0  0  0  0  0  0  0
    3.7145    2.6470   -1.5757 C   0  0  0  0  0  0  0  0  0  0  0  0
    2.5503    1.9002   -1.7708 C   0  0  0  0  0  0  0  0  0  0  0  0
    1.3664    2.4976   -2.9295 Cl  0  0  0  0  0  0  0  0  0  0  0  0
    5.6775    0.6065    0.7691 N   0  0  0  0  0  0  0  0  0  0  0  0
    5.7691   -0.6887    1.4566 C   0  0  0  0  0  0  0  0  0  0  0  0
    6.1206   -1.7948    0.4555 C   0  0  0  0  0  0  0  0  0  0  0  0
    6.8262   -0.6260    2.5649 C   0  0  0  0  0  0  0  0  0  0  0  0
   -2.6969    1.1885   -1.5990 H   0  0  0  0  0  0  0  0  0  0  0  0
   -5.0391   -0.4976   -1.9653 H   0  0  0  0  0  0  0  0  0  0  0  0
   -6.3647    1.5563   -1.5872 H   0  0  0  0  0  0  0  0  0  0  0  0
   -4.9958    1.8296   -2.7073 H   0  0  0  0  0  0  0  0  0  0  0  0
   -5.3585    2.7235   -0.0618 H   0  0  0  0  0  0  0  0  0  0  0  0
   -3.4482    0.9965    1.1292 H   0  0  0  0  0  0  0  0  0  0  0  0
   -6.1247   -1.0724    3.7722 H   0  0  0  0  0  0  0  0  0  0  0  0
   -7.4150   -1.9004    1.8308 H   0  0  0  0  0  0  0  0  0  0  0  0
   -6.7393   -1.2993   -0.4629 H   0  0  0  0  0  0  0  0  0  0  0  0
   -0.4710    1.2931   -1.1197 H   0  0  0  0  0  0  0  0  0  0  0  0
    2.0045   -2.2030   -1.3156 H   0  0  0  0  0  0  0  0  0  0  0  0
   -0.4424   -2.9572   -1.4265 H   0  0  0  0  0  0  0  0  0  0  0  0
    3.3156   -0.7040    0.2795 H   0  0  0  0  0  0  0  0  0  0  0  0
    3.8511    3.5880   -2.0923 H   0  0  0  0  0  0  0  0  0  0  0  0
    6.4566    1.2931    0.8953 H   0  0  0  0  0  0  0  0  0  0  0  0
    4.8002   -0.9232    1.9471 H   0  0  0  0  0  0  0  0  0  0  0  0
    7.0977   -1.5819   -0.0288 H   0  0  0  0  0  0  0  0  0  0  0  0
    5.3459   -1.8699   -0.3349 H   0  0  0  0  0  0  0  0  0  0  0  0
    6.1803   -2.7757    0.9735 H   0  0  0  0  0  0  0  0  0  0  0  0
    6.5665    0.1758    3.2886 H   0  0  0  0  0  0  0  0  0  0  0  0
    6.8659   -1.5913    3.1135 H   0  0  0  0  0  0  0  0  0  0  0  0
    7.8300   -0.4121    2.1387 H   0  0  0  0  0  0  0  0  0  0  0  0
  1  2  1  0
  2  3  1  0
  3  4  1  0
  2  5  1  0
  5  6  2  0
  6  7  1  0
  7  8  1  0
  7  9  2  0
  9 10  1  0
 10 11  2  0
  1 12  1  0
 12 13  2  0
 12 14  1  0
 14 15  2  0
 15 16  1  0
 16 17  2  0
 17 18  1  0
 16 19  1  0
 19 20  2  0
 20 21  1  0
 21 22  2  0
 22 23  1  0
 23 24  2  0
 24 25  1  0
 21 26  1  0
 26 27  1  0
 27 28  1  0
 27 29  1  0
 11  5  1  0
 18 14  1  0
 24 19  1  0
  1 30  1  0
  2 31  1  6
  3 32  1  0
  3 33  1  0
  4 34  1  0
  6 35  1  0
  9 36  1  0
 10 37  1  0
 11 38  1  0
 15 39  1  0
 17 40  1  0
 18 41  1  0
 20 42  1  0
 23 43  1  0
 26 44  1  0
 27 45  1  0
 28 46  1  0
 28 47  1  0
 28 48  1  0
 29 49  1  0
 29 50  1  0
 29 51  1  0
M  END
$$$$
