
     RDKit          3D

 21 21  0  0  0  0  0  0  0  0999 V2000
   -3.2187    0.8422    1.5581 O   0  0  0  0  0  0  0  0  0  0  0  0
   -2.8563    0.5660    0.2436 C   0  0  0  0  0  0  0  0  0  0  0  0
   -3.0849    1.4099   -0.6640 O   0  0  0  0  0  0  0  0  0  0  0  0
   -2.1526   -0.7122   -0.0815 C   0  0  0  0  0  0  0  0  0  0  0  0
   -0.6677   -0.5405    0.0824 C   0  0  0  0  0  0  0  0  0  0  0  0
    0.1149   -0.0855   -0.9898 C   0  0  0  0  0  0  0  0  0  0  0  0
    1.4969    0.1200   -0.8370 C   0  0  0  0  0  0  0  0  0  0  0  0
    2.1028   -0.1672    0.4097 C   0  0  0  0  0  0  0  0  0  0  0  0
    3.4814   -0.0725    0.6077 O   0  0  0  0  0  0  0  0  0  0  0  0
    1.3116   -0.5907    1.4831 C   0  0  0  0  0  0  0  0  0  0  0  0
   -0.0631   -0.7723    1.3251 C   0  0  0  0  0  0  0  0  0  0  0  0
    2.2538    0.6391   -1.9419 N   0  0  0  0  0  4  0  0  0  0  0  0
    1.8890    0.3245   -3.2308 O   0  0  0  0  0  1  0  0  0  0  0  0
    3.0963    1.5415   -1.7589 O   0  0  0  0  0  0  0  0  0  0  0  0
   -3.6808    1.7112    1.7978 H   0  0  0  0  0  0  0  0  0  0  0  0
   -2.3929   -1.0197   -1.1228 H   0  0  0  0  0  0  0  0  0  0  0  0
   -2.5234   -1.5174    0.5891 H   0  0  0  0  0  0  0  0  0  0  0  0
   -0.3590    0.1345   -1.9388 H   0  0  0  0  0  0  0  0  0  0  0  0
    4.1387    0.0876   -0.1438 H   0  0  0  0  0  0  0  0  0  0  0  0
    1.7693   -0.7974    2.4424 H   0  0  0  0  0  0  0  0  0  0  0  0
   -0.6554   -1.1011    2.1701 H   0  0  0  0  0  0  0  0  0  0  0  0
  1  2  1  0
  2  3  2  0
  2  4  1  0
  4  5  1  0
  5  6  2  0
  6  7  1  0
  7  8  2  0
  8  9  1  0
  8 10  1  0
 10 11  2  0
  7 12  1  0
 12 13  1  0
 12 14  2  0
 11  5  1  0
  1 15  1  0
  4 16  1  0
  4 17  1  0
  6 18  1  0
  9 19  1  0
 10 20  1  0
 11 21  1  0
M  CHG  2  12   1  13  -1
M  END
$$$$
