
     RDKit          3D

 60 61  0  0  0  0  0  0  0  0999 V2000
    2.3811   -1.2277    0.2749 C   0  0  2  0  0  0  0  0  0  0  0  0
    1.9228   -2.6872    0.2659 C   0  0  0  0  0  0  0  0  0  0  0  0
    3.5800   -1.0797    1.1062 N   0  0  0  0  0  0  0  0  0  0  0  0
    4.8899   -1.4117    0.6315 C   0  0  0  0  0  0  0  0  0  0  0  0
    5.0550   -1.8180   -0.5518 O   0  0  0  0  0  0  0  0  0  0  0  0
    5.9823   -1.2809    1.4959 O   0  0  0  0  0  0  0  0  0  0  0  0
    7.3281   -1.5419    1.1029 C   0  0  0  0  0  0  0  0  0  0  0  0
    7.8258   -0.4603    0.1831 C   0  0  0  0  0  0  0  0  0  0  0  0
    8.0751   -0.7309   -1.1729 C   0  0  0  0  0  0  0  0  0  0  0  0
    8.5188    0.2868   -2.0233 C   0  0  0  0  0  0  0  0  0  0  0  0
    8.7131    1.5792   -1.5278 C   0  0  0  0  0  0  0  0  0  0  0  0
    8.4626    1.8565   -0.1811 C   0  0  0  0  0  0  0  0  0  0  0  0
    8.0186    0.8418    0.6726 C   0  0  0  0  0  0  0  0  0  0  0  0
    1.2754   -0.3381    0.7832 C   0  0  0  0  0  0  0  0  0  0  0  0
    0.8896   -0.4463    1.9798 O   0  0  0  0  0  0  0  0  0  0  0  0
    0.6462    0.6078   -0.0952 N   0  0  0  0  0  0  0  0  0  0  0  0
   -0.5335    1.3792    0.2994 C   0  0  1  0  0  0  0  0  0  0  0  0
   -0.5311    2.7400   -0.3962 C   0  0  0  0  0  0  0  0  0  0  0  0
   -2.0410    0.4490   -0.1313 P   0  0  2  0  0  5  0  0  0  0  0  0
   -2.0270   -1.0367    0.6799 O   0  0  0  0  0  0  0  0  0  0  0  0
   -2.0679    0.2047   -1.6242 O   0  0  0  0  0  0  0  0  0  0  0  0
   -3.4061    1.3592    0.3486 O   0  0  0  0  0  0  0  0  0  0  0  0
   -4.5915    0.7026   -0.0568 C   0  0  1  0  0  0  0  0  0  0  0  0
   -5.7035    1.0583    0.9431 C   0  0  0  0  0  0  0  0  0  0  0  0
   -6.9746    0.2923    0.6710 C   0  0  0  0  0  0  0  0  0  0  0  0
   -7.1119   -1.0317    1.1208 C   0  0  0  0  0  0  0  0  0  0  0  0
   -8.2769   -1.7531    0.8421 C   0  0  0  0  0  0  0  0  0  0  0  0
   -9.3085   -1.1614    0.1080 C   0  0  0  0  0  0  0  0  0  0  0  0
   -9.1759    0.1521   -0.3507 C   0  0  0  0  0  0  0  0  0  0  0  0
   -8.0128    0.8773   -0.0738 C   0  0  0  0  0  0  0  0  0  0  0  0
   -4.9727    1.1513   -1.4419 C   0  0  0  0  0  0  0  0  0  0  0  0
   -5.4278    0.2195   -2.3694 O   0  0  0  0  0  0  0  0  0  0  0  0
   -4.9107    2.3710   -1.7546 O   0  0  0  0  0  0  0  0  0  0  0  0
    2.6248   -0.9312   -0.7689 H   0  0  0  0  0  0  0  0  0  0  0  0
    1.7023   -3.0335    1.2986 H   0  0  0  0  0  0  0  0  0  0  0  0
    2.7166   -3.3339   -0.1639 H   0  0  0  0  0  0  0  0  0  0  0  0
    1.0084   -2.7972   -0.3561 H   0  0  0  0  0  0  0  0  0  0  0  0
    3.4887   -0.7726    2.1013 H   0  0  0  0  0  0  0  0  0  0  0  0
    7.3973   -2.5463    0.6302 H   0  0  0  0  0  0  0  0  0  0  0  0
    7.9656   -1.5623    2.0119 H   0  0  0  0  0  0  0  0  0  0  0  0
    7.9242   -1.7261   -1.5723 H   0  0  0  0  0  0  0  0  0  0  0  0
    8.7103    0.0739   -3.0671 H   0  0  0  0  0  0  0  0  0  0  0  0
    9.0558    2.3658   -2.1875 H   0  0  0  0  0  0  0  0  0  0  0  0
    8.6107    2.8583    0.2011 H   0  0  0  0  0  0  0  0  0  0  0  0
    7.8233    1.0694    1.7133 H   0  0  0  0  0  0  0  0  0  0  0  0
    0.9416    0.6321   -1.0978 H   0  0  0  0  0  0  0  0  0  0  0  0
   -0.5288    1.5560    1.3967 H   0  0  0  0  0  0  0  0  0  0  0  0
   -1.4085    3.3385   -0.0708 H   0  0  0  0  0  0  0  0  0  0  0  0
    0.3916    3.2970   -0.1278 H   0  0  0  0  0  0  0  0  0  0  0  0
   -0.5663    2.6180   -1.5000 H   0  0  0  0  0  0  0  0  0  0  0  0
   -2.1098   -0.8009    1.6382 H   0  0  0  0  0  0  0  0  0  0  0  0
   -4.4875   -0.4089   -0.0449 H   0  0  0  0  0  0  0  0  0  0  0  0
   -5.3528    0.8196    1.9713 H   0  0  0  0  0  0  0  0  0  0  0  0
   -5.8985    2.1538    0.9214 H   0  0  0  0  0  0  0  0  0  0  0  0
   -6.3162   -1.5039    1.6837 H   0  0  0  0  0  0  0  0  0  0  0  0
   -8.3786   -2.7720    1.1926 H   0  0  0  0  0  0  0  0  0  0  0  0
  -10.2090   -1.7216   -0.1081 H   0  0  0  0  0  0  0  0  0  0  0  0
   -9.9733    0.6075   -0.9235 H   0  0  0  0  0  0  0  0  0  0  0  0
   -7.9196    1.8912   -0.4428 H   0  0  0  0  0  0  0  0  0  0  0  0
   -5.7030    0.5060   -3.3011 H   0  0  0  0  0  0  0  0  0  0  0  0
  1  2  1  0
  1  3  1  0
  3  4  1  0
  4  5  2  0
  4  6  1  0
  6  7  1  0
  7  8  1  0
  8  9  2  0
  9 10  1  0
 10 11  2  0
 11 12  1  0
 12 13  2  0
  1 14  1  0
 14 15  2  0
 14 16  1  0
 16 17  1  0
 17 18  1  0
 17 19  1  0
 19 20  1  1
 19 21  2  0
 19 22  1  0
 22 23  1  0
 23 24  1  0
 24 25  1  0
 25 26  2  0
 26 27  1  0
 27 28  2  0
 28 29  1  0
 29 30  2  0
 23 31  1  0
 31 32  1  0
 31 33  2  0
 13  8  1  0
 30 25  1  0
  1 34  1  6
  2 35  1  0
  2 36  1  0
  2 37  1  0
  3 38  1  0
  7 39  1  0
  7 40  1  0
  9 41  1  0
 10 42  1  0
 11 43  1  0
 12 44  1  0
 13 45  1  0
 16 46  1  0
 17 47  1  1
 18 48  1  0
 18 49  1  0
 18 50  1  0
 20 51  1  0
 23 52  1  6
 24 53  1  0
 24 54  1  0
 26 55  1  0
 27 56  1  0
 28 57  1  0
 29 58  1  0
 30 59  1  0
 32 60  1  0
M  END
$$$$
