
     RDKit          3D

 48 48  0  0  0  0  0  0  0  0999 V2000
   -2.0951   -1.4544    0.0272 C   0  0  1  0  0  0  0  0  0  0  0  0
   -1.0441   -1.9501   -0.9733 C   0  0  0  0  0  0  0  0  0  0  0  0
   -0.7469   -0.9478   -1.9073 O   0  0  0  0  0  0  0  0  0  0  0  0
   -1.6389   -0.2523    0.6140 O   0  0  0  0  0  0  0  0  0  0  0  0
   -2.3872    0.0548    1.7810 C   0  0  1  0  0  0  0  0  0  0  0  0
   -1.9155    1.7332    2.3536 S   0  0  0  0  0  0  0  0  0  0  0  0
   -0.1133    1.4268    2.4550 C   0  0  0  0  0  0  0  0  0  0  0  0
    0.5827    1.9254    1.1839 C   0  0  0  0  0  0  0  0  0  0  0  0
    2.0095    1.3764    1.0796 C   0  0  0  0  0  0  0  0  0  0  0  0
    2.6707    1.8216   -0.2325 C   0  0  0  0  0  0  0  0  0  0  0  0
    4.1155    1.3126   -0.3808 C   0  0  0  0  0  0  0  0  0  0  0  0
    4.2734   -0.2225   -0.3903 C   0  0  0  0  0  0  0  0  0  0  0  0
    3.4120   -0.9613   -1.4302 C   0  0  0  0  0  0  0  0  0  0  0  0
    3.7355   -0.5551   -2.8671 C   0  0  0  0  0  0  0  0  0  0  0  0
   -3.9281   -0.0087    1.5409 C   0  0  2  0  0  0  0  0  0  0  0  0
   -4.4658   -1.1468    2.1658 O   0  0  0  0  0  0  0  0  0  0  0  0
   -4.2446   -0.0709    0.0330 C   0  0  1  0  0  0  0  0  0  0  0  0
   -3.8829    1.1433   -0.5770 O   0  0  0  0  0  0  0  0  0  0  0  0
   -3.4743   -1.2298   -0.6485 C   0  0  2  0  0  0  0  0  0  0  0  0
   -4.2197   -2.4188   -0.5697 O   0  0  0  0  0  0  0  0  0  0  0  0
   -2.1873   -2.2500    0.8061 H   0  0  0  0  0  0  0  0  0  0  0  0
   -0.1189   -2.2231   -0.4171 H   0  0  0  0  0  0  0  0  0  0  0  0
   -1.4214   -2.8576   -1.4958 H   0  0  0  0  0  0  0  0  0  0  0  0
   -0.0504   -1.3260   -2.5046 H   0  0  0  0  0  0  0  0  0  0  0  0
   -2.1038   -0.6503    2.5953 H   0  0  0  0  0  0  0  0  0  0  0  0
    0.0892    0.3471    2.6231 H   0  0  0  0  0  0  0  0  0  0  0  0
    0.2881    1.9813    3.3295 H   0  0  0  0  0  0  0  0  0  0  0  0
    0.0104    1.6063    0.2873 H   0  0  0  0  0  0  0  0  0  0  0  0
    0.6066    3.0371    1.1945 H   0  0  0  0  0  0  0  0  0  0  0  0
    1.9628    0.2672    1.1137 H   0  0  0  0  0  0  0  0  0  0  0  0
    2.6111    1.7364    1.9428 H   0  0  0  0  0  0  0  0  0  0  0  0
    2.6960    2.9330   -0.2592 H   0  0  0  0  0  0  0  0  0  0  0  0
    2.0608    1.4921   -1.1003 H   0  0  0  0  0  0  0  0  0  0  0  0
    4.7261    1.7223    0.4531 H   0  0  0  0  0  0  0  0  0  0  0  0
    4.5434    1.7282   -1.3182 H   0  0  0  0  0  0  0  0  0  0  0  0
    5.3429   -0.4617   -0.5781 H   0  0  0  0  0  0  0  0  0  0  0  0
    4.0390   -0.6237    0.6184 H   0  0  0  0  0  0  0  0  0  0  0  0
    3.6036   -2.0512   -1.3260 H   0  0  0  0  0  0  0  0  0  0  0  0
    2.3318   -0.8043   -1.2281 H   0  0  0  0  0  0  0  0  0  0  0  0
    4.8217   -0.6712   -3.0677 H   0  0  0  0  0  0  0  0  0  0  0  0
    3.1735   -1.2060   -3.5696 H   0  0  0  0  0  0  0  0  0  0  0  0
    3.4345    0.4964   -3.0548 H   0  0  0  0  0  0  0  0  0  0  0  0
   -4.4317    0.8944    1.9593 H   0  0  0  0  0  0  0  0  0  0  0  0
   -4.4892   -0.9547    3.1397 H   0  0  0  0  0  0  0  0  0  0  0  0
   -5.3402   -0.2314   -0.1051 H   0  0  0  0  0  0  0  0  0  0  0  0
   -4.5725    1.8112   -0.3231 H   0  0  0  0  0  0  0  0  0  0  0  0
   -3.3286   -0.9633   -1.7228 H   0  0  0  0  0  0  0  0  0  0  0  0
   -4.9405   -2.3542   -1.2497 H   0  0  0  0  0  0  0  0  0  0  0  0
  1  2  1  0
  2  3  1  0
  1  4  1  0
  4  5  1  0
  5  6  1  0
  6  7  1  0
  7  8  1  0
  8  9  1  0
  9 10  1  0
 10 11  1  0
 11 12  1  0
 12 13  1  0
 13 14  1  0
  5 15  1  0
 15 16  1  0
 15 17  1  0
 17 18  1  0
 17 19  1  0
 19 20  1  0
 19  1  1  0
  1 21  1  1
  2 22  1  0
  2 23  1  0
  3 24  1  0
  5 25  1  1
  7 26  1  0
  7 27  1  0
  8 28  1  0
  8 29  1  0
  9 30  1  0
  9 31  1  0
 10 32  1  0
 10 33  1  0
 11 34  1  0
 11 35  1  0
 12 36  1  0
 12 37  1  0
 13 38  1  0
 13 39  1  0
 14 40  1  0
 14 41  1  0
 14 42  1  0
 15 43  1  1
 16 44  1  0
 17 45  1  1
 18 46  1  0
 19 47  1  6
 20 48  1  0
M  END
$$$$
