
     RDKit          3D

 48 50  0  0  0  0  0  0  0  0999 V2000
    6.2887   -0.8330    0.0930 C   0  0  0  0  0  0  0  0  0  0  0  0
    5.3552    0.3248    0.4682 C   0  0  0  0  0  0  0  0  0  0  0  0
    5.9474    1.6805    0.0636 C   0  0  0  0  0  0  0  0  0  0  0  0
    3.9545    0.1283   -0.0965 C   0  0  0  0  0  0  0  0  0  0  0  0
    2.8743   -0.0053    0.7970 C   0  0  0  0  0  0  0  0  0  0  0  0
    1.5673   -0.1795    0.3320 C   0  0  0  0  0  0  0  0  0  0  0  0
    0.5336   -0.3086    1.2715 O   0  0  0  0  0  0  0  0  0  0  0  0
   -0.8299   -0.2247    0.9586 C   0  0  0  0  0  0  0  0  0  0  0  0
   -1.6379   -1.3680    1.0979 C   0  0  0  0  0  0  0  0  0  0  0  0
   -1.0352   -2.6695    1.5471 C   0  0  0  0  0  0  0  0  0  0  0  0
   -2.9945   -1.3077    0.7464 C   0  0  0  0  0  0  0  0  0  0  0  0
   -3.5638   -0.1082    0.2919 C   0  0  0  0  0  0  0  0  0  0  0  0
   -2.7567    1.0314    0.1707 C   0  0  0  0  0  0  0  0  0  0  0  0
   -1.4000    0.9922    0.5246 C   0  0  0  0  0  0  0  0  0  0  0  0
   -0.5710    2.2412    0.4008 C   0  0  0  0  0  0  0  0  0  0  0  0
   -4.9500   -0.0496   -0.0954 N   0  0  0  0  0  0  0  0  0  0  0  0
   -5.2556    0.5046   -1.2725 N   0  0  0  0  0  0  0  0  0  0  0  0
   -6.5360    0.5947   -1.7087 C   0  0  0  0  0  0  0  0  0  0  0  0
   -7.5546    0.0980   -0.9033 C   0  0  0  0  0  0  0  0  0  0  0  0
   -8.7541    0.1635   -1.2831 O   0  0  0  0  0  0  0  0  0  0  0  0
   -7.2444   -0.4539    0.2977 N   0  0  0  0  0  0  0  0  0  0  0  0
   -5.9510   -0.5246    0.7136 C   0  0  0  0  0  0  0  0  0  0  0  0
   -5.6907   -1.0080    1.8499 O   0  0  0  0  0  0  0  0  0  0  0  0
    1.3305   -0.2402   -1.0505 C   0  0  0  0  0  0  0  0  0  0  0  0
    2.3882   -0.1098   -1.9497 C   0  0  0  0  0  0  0  0  0  0  0  0
    3.6981    0.0759   -1.4871 C   0  0  0  0  0  0  0  0  0  0  0  0
    4.7355    0.2052   -2.4092 O   0  0  0  0  0  0  0  0  0  0  0  0
    6.5126   -0.8436   -0.9931 H   0  0  0  0  0  0  0  0  0  0  0  0
    7.2492   -0.7362    0.6430 H   0  0  0  0  0  0  0  0  0  0  0  0
    5.8252   -1.8026    0.3747 H   0  0  0  0  0  0  0  0  0  0  0  0
    5.3002    0.3303    1.5801 H   0  0  0  0  0  0  0  0  0  0  0  0
    6.1627    1.7257   -1.0234 H   0  0  0  0  0  0  0  0  0  0  0  0
    6.8978    1.8555    0.6118 H   0  0  0  0  0  0  0  0  0  0  0  0
    5.2417    2.4978    0.3253 H   0  0  0  0  0  0  0  0  0  0  0  0
    3.0423    0.0313    1.8665 H   0  0  0  0  0  0  0  0  0  0  0  0
   -0.4213   -2.5102    2.4587 H   0  0  0  0  0  0  0  0  0  0  0  0
   -1.8188   -3.4187    1.7892 H   0  0  0  0  0  0  0  0  0  0  0  0
   -0.3898   -3.0760    0.7403 H   0  0  0  0  0  0  0  0  0  0  0  0
   -3.6049   -2.2005    0.8043 H   0  0  0  0  0  0  0  0  0  0  0  0
   -3.1942    1.9564   -0.1859 H   0  0  0  0  0  0  0  0  0  0  0  0
    0.2072    2.2779    1.1920 H   0  0  0  0  0  0  0  0  0  0  0  0
   -0.0837    2.2683   -0.5957 H   0  0  0  0  0  0  0  0  0  0  0  0
   -1.2032    3.1478    0.5126 H   0  0  0  0  0  0  0  0  0  0  0  0
   -6.7519    1.0458   -2.6688 H   0  0  0  0  0  0  0  0  0  0  0  0
   -8.0078   -0.8192    0.9122 H   0  0  0  0  0  0  0  0  0  0  0  0
    0.3312   -0.3937   -1.4361 H   0  0  0  0  0  0  0  0  0  0  0  0
    2.1886   -0.1558   -3.0128 H   0  0  0  0  0  0  0  0  0  0  0  0
    4.5689    0.1695   -3.4081 H   0  0  0  0  0  0  0  0  0  0  0  0
  1  2  1  0
  2  3  1  0
  2  4  1  0
  4  5  2  0
  5  6  1  0
  6  7  1  0
  7  8  1  0
  8  9  2  0
  9 10  1  0
  9 11  1  0
 11 12  2  0
 12 13  1  0
 13 14  2  0
 14 15  1  0
 12 16  1  0
 16 17  1  0
 17 18  2  0
 18 19  1  0
 19 20  2  0
 19 21  1  0
 21 22  1  0
 22 23  2  0
  6 24  2  0
 24 25  1  0
 25 26  2  0
 26 27  1  0
 26  4  1  0
 14  8  1  0
 22 16  1  0
  1 28  1  0
  1 29  1  0
  1 30  1  0
  2 31  1  0
  3 32  1  0
  3 33  1  0
  3 34  1  0
  5 35  1  0
 10 36  1  0
 10 37  1  0
 10 38  1  0
 11 39  1  0
 13 40  1  0
 15 41  1  0
 15 42  1  0
 15 43  1  0
 18 44  1  0
 21 45  1  0
 24 46  1  0
 25 47  1  0
 27 48  1  0
M  END
$$$$
