
     RDKit          3D

 54 57  0  0  0  0  0  0  0  0999 V2000
   -0.5871   -2.8336    0.6339 C   0  0  1  0  0  0  0  0  0  0  0  0
    0.8688   -2.4839    0.6002 C   0  0  0  0  0  0  0  0  0  0  0  0
    1.7773   -3.3043    0.3009 O   0  0  0  0  0  0  0  0  0  0  0  0
    1.1199   -1.1200    0.9014 N   0  0  0  0  0  0  0  0  0  0  0  0
   -0.1444   -0.5298    1.1669 C   0  0  0  0  0  0  0  0  0  0  0  0
   -0.2752    0.6647    1.5463 O   0  0  0  0  0  0  0  0  0  0  0  0
   -1.2895   -1.4970    1.0359 C   0  0  1  0  0  0  0  0  0  0  0  0
   -2.3571   -1.0876   -0.0386 C   0  0  2  0  0  0  0  0  0  0  0  0
   -3.3624   -2.2710   -0.1525 C   0  0  0  0  0  0  0  0  0  0  0  0
   -2.6369   -3.5750   -0.5853 C   0  0  0  0  0  0  0  0  0  0  0  0
   -1.1188   -3.3277   -0.7370 C   0  0  1  0  0  0  0  0  0  0  0  0
   -0.9165   -2.2315   -1.8151 C   0  0  0  0  0  0  0  0  0  0  0  0
   -1.6468   -0.9226   -1.4159 C   0  0  0  0  0  0  0  0  0  0  0  0
   -3.0511    0.1482    0.3729 N   0  0  0  0  0  0  0  0  0  0  0  0
   -4.0754    0.8183   -0.3782 C   0  0  0  0  0  0  0  0  0  0  0  0
   -4.4763    0.3589   -1.4819 O   0  0  0  0  0  0  0  0  0  0  0  0
   -4.6319    1.9929    0.1359 O   0  0  0  0  0  0  0  0  0  0  0  0
   -5.6512    2.7204   -0.5400 C   0  0  0  0  0  0  0  0  0  0  0  0
   -6.0243    3.9147    0.2716 C   0  0  0  0  0  0  0  0  0  0  0  0
   -7.0462    3.8225    1.2111 O   0  0  0  0  0  0  0  0  0  0  0  0
   -5.3859    4.9927    0.1380 O   0  0  0  0  0  0  0  0  0  0  0  0
    2.3903   -0.4484    0.8473 C   0  0  0  0  0  0  0  0  0  0  0  0
    3.5396   -1.0596    1.3716 C   0  0  0  0  0  0  0  0  0  0  0  0
    4.7746   -0.4075    1.3178 C   0  0  0  0  0  0  0  0  0  0  0  0
    4.8866    0.8580    0.7242 C   0  0  0  0  0  0  0  0  0  0  0  0
    6.1656    1.5153    0.7015 N   0  0  0  0  0  0  0  0  0  0  0  0
    6.5983    2.4010   -0.3427 C   0  0  0  0  0  0  0  0  0  0  0  0
    7.8586    3.1857   -0.1767 C   0  0  0  0  0  0  0  0  0  0  0  0
    5.9717    2.4629   -1.4348 O   0  0  0  0  0  0  0  0  0  0  0  0
    3.7318    1.4798    0.2177 C   0  0  0  0  0  0  0  0  0  0  0  0
    2.4961    0.8285    0.2738 C   0  0  0  0  0  0  0  0  0  0  0  0
   -0.7538   -3.6094    1.4139 H   0  0  0  0  0  0  0  0  0  0  0  0
   -1.7737   -1.6146    2.0311 H   0  0  0  0  0  0  0  0  0  0  0  0
   -4.1572   -2.0434   -0.8929 H   0  0  0  0  0  0  0  0  0  0  0  0
   -3.8641   -2.4301    0.8275 H   0  0  0  0  0  0  0  0  0  0  0  0
   -2.8133   -4.3733    0.1687 H   0  0  0  0  0  0  0  0  0  0  0  0
   -3.0531   -3.9374   -1.5510 H   0  0  0  0  0  0  0  0  0  0  0  0
   -0.6064   -4.2670   -1.0396 H   0  0  0  0  0  0  0  0  0  0  0  0
   -1.3083   -2.5980   -2.7894 H   0  0  0  0  0  0  0  0  0  0  0  0
    0.1668   -2.0314   -1.9620 H   0  0  0  0  0  0  0  0  0  0  0  0
   -0.9222   -0.0805   -1.3782 H   0  0  0  0  0  0  0  0  0  0  0  0
   -2.3809   -0.6767   -2.2100 H   0  0  0  0  0  0  0  0  0  0  0  0
   -2.8238    0.5668    1.3025 H   0  0  0  0  0  0  0  0  0  0  0  0
   -6.5451    2.0747   -0.6787 H   0  0  0  0  0  0  0  0  0  0  0  0
   -5.2842    3.0455   -1.5380 H   0  0  0  0  0  0  0  0  0  0  0  0
   -7.3001    4.6196    1.7823 H   0  0  0  0  0  0  0  0  0  0  0  0
    3.4774   -2.0326    1.8413 H   0  0  0  0  0  0  0  0  0  0  0  0
    5.6490   -0.8924    1.7336 H   0  0  0  0  0  0  0  0  0  0  0  0
    6.8566    1.2715    1.4471 H   0  0  0  0  0  0  0  0  0  0  0  0
    7.8619    4.0607   -0.8608 H   0  0  0  0  0  0  0  0  0  0  0  0
    7.9417    3.5513    0.8682 H   0  0  0  0  0  0  0  0  0  0  0  0
    8.7299    2.5385   -0.4080 H   0  0  0  0  0  0  0  0  0  0  0  0
    3.7765    2.4760   -0.2012 H   0  0  0  0  0  0  0  0  0  0  0  0
    1.6244    1.3171   -0.1418 H   0  0  0  0  0  0  0  0  0  0  0  0
  1  2  1  0
  2  3  2  0
  2  4  1  0
  4  5  1  0
  5  6  2  0
  5  7  1  0
  7  8  1  0
  8  9  1  0
  9 10  1  0
 10 11  1  0
 11 12  1  0
 12 13  1  0
  8 14  1  1
 14 15  1  0
 15 16  2  0
 15 17  1  0
 17 18  1  0
 18 19  1  0
 19 20  1  0
 19 21  2  0
  4 22  1  0
 22 23  2  0
 23 24  1  0
 24 25  2  0
 25 26  1  0
 26 27  1  0
 27 28  1  0
 27 29  2  0
 25 30  1  0
 30 31  2  0
  7  1  1  0
 13  8  1  0
 31 22  1  0
 11  1  1  0
  1 32  1  1
  7 33  1  1
  9 34  1  0
  9 35  1  0
 10 36  1  0
 10 37  1  0
 11 38  1  6
 12 39  1  0
 12 40  1  0
 13 41  1  0
 13 42  1  0
 14 43  1  0
 18 44  1  0
 18 45  1  0
 20 46  1  0
 23 47  1  0
 24 48  1  0
 26 49  1  0
 28 50  1  0
 28 51  1  0
 28 52  1  0
 30 53  1  0
 31 54  1  0
M  END
$$$$
