
     RDKit          3D

 39 39  0  0  0  0  0  0  0  0999 V2000
    3.1912   -0.0265   -2.0565 O   0  0  0  0  0  0  0  0  0  0  0  0
    3.6321    0.1572   -0.7377 C   0  0  0  0  0  0  0  0  0  0  0  0
    2.4643    0.5984    0.1697 C   0  0  0  0  0  0  0  0  0  0  0  0
    2.9835    0.9906    1.5645 C   0  0  0  0  0  0  0  0  0  0  0  0
    3.4833   -0.1281    2.2492 O   0  0  0  0  0  0  0  0  0  0  0  0
    1.4576   -0.4772    0.3013 N   0  0  0  0  0  0  0  0  0  0  0  0
    0.0761    0.0287    0.4557 C   0  0  1  0  0  0  0  0  0  0  0  0
   -0.5133    0.4540   -0.9208 C   0  0  0  0  0  0  0  0  0  0  0  0
   -2.0681    0.5214   -0.9396 C   0  0  2  0  0  0  0  0  0  0  0  0
   -2.5012    0.8603   -2.2403 O   0  0  0  0  0  0  0  0  0  0  0  0
   -2.5655    1.6567   -0.0041 C   0  0  0  0  0  0  0  0  0  0  0  0
   -1.9972    2.8926   -0.3517 O   0  0  0  0  0  0  0  0  0  0  0  0
   -2.7016   -0.8560   -0.5011 C   0  0  1  0  0  0  0  0  0  0  0  0
   -3.2496   -1.5211   -1.6140 O   0  0  0  0  0  0  0  0  0  0  0  0
   -1.6975   -1.8069    0.2006 C   0  0  2  0  0  0  0  0  0  0  0  0
   -2.4167   -2.8006    0.8879 O   0  0  0  0  0  0  0  0  0  0  0  0
   -0.8039   -1.0323    1.1853 C   0  0  1  0  0  0  0  0  0  0  0  0
   -0.0072   -1.9374    1.9091 O   0  0  0  0  0  0  0  0  0  0  0  0
    3.0559    0.8791   -2.4404 H   0  0  0  0  0  0  0  0  0  0  0  0
    4.4483    0.9156   -0.7172 H   0  0  0  0  0  0  0  0  0  0  0  0
    4.0543   -0.8024   -0.3703 H   0  0  0  0  0  0  0  0  0  0  0  0
    2.0209    1.5101   -0.2889 H   0  0  0  0  0  0  0  0  0  0  0  0
    2.1513    1.4201    2.1602 H   0  0  0  0  0  0  0  0  0  0  0  0
    3.7593    1.7870    1.4809 H   0  0  0  0  0  0  0  0  0  0  0  0
    4.4443   -0.2050    2.0133 H   0  0  0  0  0  0  0  0  0  0  0  0
    1.4998   -1.1547   -0.4960 H   0  0  0  0  0  0  0  0  0  0  0  0
    0.0876    0.9277    1.1122 H   0  0  0  0  0  0  0  0  0  0  0  0
   -0.1886   -0.2721   -1.6980 H   0  0  0  0  0  0  0  0  0  0  0  0
   -0.0909    1.4354   -1.2244 H   0  0  0  0  0  0  0  0  0  0  0  0
   -2.0762    0.2402   -2.8893 H   0  0  0  0  0  0  0  0  0  0  0  0
   -2.3097    1.4439    1.0524 H   0  0  0  0  0  0  0  0  0  0  0  0
   -3.6772    1.7269   -0.0522 H   0  0  0  0  0  0  0  0  0  0  0  0
   -2.5096    3.2370   -1.1289 H   0  0  0  0  0  0  0  0  0  0  0  0
   -3.5290   -0.6514    0.2212 H   0  0  0  0  0  0  0  0  0  0  0  0
   -3.9052   -2.1825   -1.2690 H   0  0  0  0  0  0  0  0  0  0  0  0
   -1.0508   -2.2813   -0.5769 H   0  0  0  0  0  0  0  0  0  0  0  0
   -1.8234   -3.5934    0.9602 H   0  0  0  0  0  0  0  0  0  0  0  0
   -1.4806   -0.5141    1.9043 H   0  0  0  0  0  0  0  0  0  0  0  0
    0.3532   -1.4399    2.6895 H   0  0  0  0  0  0  0  0  0  0  0  0
  1  2  1  0
  2  3  1  0
  3  4  1  0
  4  5  1  0
  3  6  1  0
  6  7  1  0
  7  8  1  0
  8  9  1  0
  9 10  1  6
  9 11  1  0
 11 12  1  0
  9 13  1  0
 13 14  1  0
 13 15  1  0
 15 16  1  0
 15 17  1  0
 17 18  1  0
 17  7  1  0
  1 19  1  0
  2 20  1  0
  2 21  1  0
  3 22  1  0
  4 23  1  0
  4 24  1  0
  5 25  1  0
  6 26  1  0
  7 27  1  1
  8 28  1  0
  8 29  1  0
 10 30  1  0
 11 31  1  0
 11 32  1  0
 12 33  1  0
 13 34  1  1
 14 35  1  0
 15 36  1  6
 16 37  1  0
 17 38  1  1
 18 39  1  0
M  END
$$$$
