
     RDKit          3D

 36 38  0  0  0  0  0  0  0  0999 V2000
    5.2767    2.8729    1.7495 Br  0  0  0  0  0  0  0  0  0  0  0  0
    4.5077    1.1287    1.6299 C   0  0  0  0  0  0  0  0  0  0  0  0
    5.1067    0.0540    2.2939 C   0  0  0  0  0  0  0  0  0  0  0  0
    4.5359   -1.2189    2.2197 C   0  0  0  0  0  0  0  0  0  0  0  0
    3.3695   -1.4221    1.4763 C   0  0  0  0  0  0  0  0  0  0  0  0
    2.7698   -0.3550    0.7889 C   0  0  0  0  0  0  0  0  0  0  0  0
    1.5591   -0.5821    0.0463 N   0  0  0  0  0  0  0  0  0  0  0  0
    1.1746    0.1999   -1.0980 C   0  0  0  0  0  0  0  0  0  0  0  0
   -0.1827    0.4039   -1.4307 C   0  0  0  0  0  0  0  0  0  0  0  0
   -1.2452   -0.0536   -0.6268 C   0  0  0  0  0  0  0  0  0  0  0  0
   -2.5801    0.1694   -1.0128 C   0  0  0  0  0  0  0  0  0  0  0  0
   -3.6782   -0.2773   -0.1978 N   0  0  0  0  0  0  0  0  0  0  0  0
   -3.6395   -1.4696    0.6057 C   0  0  0  0  0  0  0  0  0  0  0  0
   -2.8190   -2.3864    0.3323 O   0  0  0  0  0  0  0  0  0  0  0  0
   -4.5821   -1.6804    1.7208 C   0  0  0  0  0  0  0  0  0  0  0  0
   -5.3233   -0.7058    2.2450 C   0  0  0  0  0  0  0  0  0  0  0  0
   -2.8448    0.8925   -2.1847 C   0  0  0  0  0  0  0  0  0  0  0  0
   -1.7988    1.3662   -2.9785 C   0  0  0  0  0  0  0  0  0  0  0  0
   -0.4723    1.1284   -2.6084 C   0  0  0  0  0  0  0  0  0  0  0  0
    0.5384    1.6088   -3.3773 N   0  0  0  0  0  0  0  0  0  0  0  0
    1.8344    1.4044   -3.0350 C   0  0  0  0  0  0  0  0  0  0  0  0
    2.1406    0.7049   -1.9136 N   0  0  0  0  0  0  0  0  0  0  0  0
    3.3402    0.9285    0.8849 C   0  0  0  0  0  0  0  0  0  0  0  0
    6.0092    0.2055    2.8720 H   0  0  0  0  0  0  0  0  0  0  0  0
    4.9966   -2.0487    2.7400 H   0  0  0  0  0  0  0  0  0  0  0  0
    2.9369   -2.4136    1.4285 H   0  0  0  0  0  0  0  0  0  0  0  0
    1.0014   -1.4361    0.2726 H   0  0  0  0  0  0  0  0  0  0  0  0
   -1.0475   -0.5463    0.3142 H   0  0  0  0  0  0  0  0  0  0  0  0
   -4.5893    0.2253   -0.2909 H   0  0  0  0  0  0  0  0  0  0  0  0
   -4.6477   -2.6695    2.1579 H   0  0  0  0  0  0  0  0  0  0  0  0
   -5.2704    0.3127    1.8856 H   0  0  0  0  0  0  0  0  0  0  0  0
   -5.9863   -0.9221    3.0727 H   0  0  0  0  0  0  0  0  0  0  0  0
   -3.8669    1.0873   -2.4846 H   0  0  0  0  0  0  0  0  0  0  0  0
   -2.0222    1.9237   -3.8799 H   0  0  0  0  0  0  0  0  0  0  0  0
    2.6256    1.7943   -3.6603 H   0  0  0  0  0  0  0  0  0  0  0  0
    2.8730    1.7760    0.4009 H   0  0  0  0  0  0  0  0  0  0  0  0
  1  2  1  0
  2  3  2  0
  3  4  1  0
  4  5  2  0
  5  6  1  0
  6  7  1  0
  7  8  1  0
  8  9  1  0
  9 10  2  0
 10 11  1  0
 11 12  1  0
 12 13  1  0
 13 14  2  0
 13 15  1  0
 15 16  2  3
 11 17  2  0
 17 18  1  0
 18 19  2  0
 19 20  1  0
 20 21  2  0
 21 22  1  0
  6 23  2  0
 23  2  1  0
 22  8  2  0
 19  9  1  0
  3 24  1  0
  4 25  1  0
  5 26  1  0
  7 27  1  0
 10 28  1  0
 12 29  1  0
 15 30  1  0
 16 31  1  0
 16 32  1  0
 17 33  1  0
 18 34  1  0
 21 35  1  0
 23 36  1  0
M  END
$$$$
