
     RDKit          3D

 34 36  0  0  0  0  0  0  0  0999 V2000
   -2.4502   -0.1712    0.1823 C   0  0  1  0  0  0  0  0  0  0  0  0
   -2.7279   -0.7152   -1.2383 C   0  0  0  0  0  0  0  0  0  0  0  0
   -4.2113   -0.6788   -1.6129 C   0  0  0  0  0  0  0  0  0  0  0  0
   -4.3592   -1.0010   -2.9497 F   0  0  0  0  0  0  0  0  0  0  0  0
   -3.2032   -1.0013    1.2680 C   0  0  0  0  0  0  0  0  0  0  0  0
   -2.7335   -0.7027    2.6288 N   0  0  0  0  0  0  0  0  0  0  0  0
   -1.3385   -0.5225    2.8919 C   0  0  0  0  0  0  0  0  0  0  0  0
   -0.8947   -0.5319    4.0705 O   0  0  0  0  0  0  0  0  0  0  0  0
   -0.4650   -0.2878    1.7509 C   0  0  0  0  0  0  0  0  0  0  0  0
   -0.9628   -0.1566    0.4818 C   0  0  0  0  0  0  0  0  0  0  0  0
    0.0317    0.1812   -0.3642 N   0  0  0  0  0  0  0  0  0  0  0  0
    1.1681    0.2237    0.3729 C   0  0  0  0  0  0  0  0  0  0  0  0
    0.8920   -0.0602    1.7046 C   0  0  0  0  0  0  0  0  0  0  0  0
    2.5090    0.5711   -0.1497 C   0  0  0  0  0  0  0  0  0  0  0  0
    3.5484    0.6920    0.7214 N   0  0  0  0  0  0  0  0  0  0  0  0
    4.8002    1.0068    0.2957 C   0  0  0  0  0  0  0  0  0  0  0  0
    5.8647    1.1267    1.2363 N   0  0  0  0  0  0  0  0  0  0  0  0
    5.0355    1.2066   -1.0272 N   0  0  0  0  0  0  0  0  0  0  0  0
    4.0340    1.0952   -1.9366 C   0  0  0  0  0  0  0  0  0  0  0  0
    2.7431    0.7726   -1.5187 C   0  0  0  0  0  0  0  0  0  0  0  0
   -2.8080    0.8804    0.2380 H   0  0  0  0  0  0  0  0  0  0  0  0
   -2.1888   -0.0930   -1.9830 H   0  0  0  0  0  0  0  0  0  0  0  0
   -2.3524   -1.7583   -1.3267 H   0  0  0  0  0  0  0  0  0  0  0  0
   -4.6270    0.3370   -1.4424 H   0  0  0  0  0  0  0  0  0  0  0  0
   -4.7839   -1.4151   -1.0117 H   0  0  0  0  0  0  0  0  0  0  0  0
   -4.2929   -0.7924    1.2144 H   0  0  0  0  0  0  0  0  0  0  0  0
   -3.0516   -2.0862    1.0776 H   0  0  0  0  0  0  0  0  0  0  0  0
   -3.4086   -0.7427    3.4251 H   0  0  0  0  0  0  0  0  0  0  0  0
   -0.0694    0.4115   -1.3756 H   0  0  0  0  0  0  0  0  0  0  0  0
    1.5839   -0.0644    2.5370 H   0  0  0  0  0  0  0  0  0  0  0  0
    6.8287    1.3681    0.9159 H   0  0  0  0  0  0  0  0  0  0  0  0
    5.6899    0.9741    2.2544 H   0  0  0  0  0  0  0  0  0  0  0  0
    4.2407    1.2552   -2.9864 H   0  0  0  0  0  0  0  0  0  0  0  0
    1.9592    0.6789   -2.2562 H   0  0  0  0  0  0  0  0  0  0  0  0
  1  2  1  0
  2  3  1  0
  3  4  1  0
  1  5  1  0
  5  6  1  0
  6  7  1  0
  7  8  2  0
  7  9  1  0
  9 10  2  0
 10 11  1  0
 11 12  1  0
 12 13  2  0
 12 14  1  0
 14 15  2  0
 15 16  1  0
 16 17  1  0
 16 18  2  0
 18 19  1  0
 19 20  2  0
 10  1  1  0
 20 14  1  0
 13  9  1  0
  1 21  1  6
  2 22  1  0
  2 23  1  0
  3 24  1  0
  3 25  1  0
  5 26  1  0
  5 27  1  0
  6 28  1  0
 11 29  1  0
 13 30  1  0
 17 31  1  0
 17 32  1  0
 19 33  1  0
 20 34  1  0
M  END
$$$$
