
     RDKit          3D

160163  0  0  0  0  0  0  0  0999 V2000
   -5.7670   -1.3682    1.1006 C   0  0  0  0  0  0  0  0  0  0  0  0
   -5.4044   -2.5168    1.6868 C   0  0  0  0  0  0  0  0  0  0  0  0
   -4.0164   -2.8992    1.9959 C   0  0  0  0  0  0  0  0  0  0  0  0
   -3.7287   -3.2206    3.1805 O   0  0  0  0  0  0  0  0  0  0  0  0
   -3.0100   -3.1133    0.8916 C   0  0  2  0  0  0  0  0  0  0  0  0
   -3.0767   -4.5809    0.4434 C   0  0  0  0  0  0  0  0  0  0  0  0
   -1.5841   -2.7115    1.3446 C   0  0  0  0  0  0  0  0  0  0  0  0
   -0.5439   -2.7378    0.1785 C   0  0  2  0  0  0  0  0  0  0  0  0
    0.4471   -3.9119    0.3750 C   0  0  0  0  0  0  0  0  0  0  0  0
    1.2753   -4.1736   -0.8498 C   0  0  0  0  0  0  0  0  0  0  0  0
    0.7485   -4.5485   -1.8852 O   0  0  0  0  0  0  0  0  0  0  0  0
    0.2023   -1.3780    0.0122 C   0  0  2  0  0  0  0  0  0  0  0  0
    0.8189   -1.0604    1.2552 O   0  0  0  0  0  0  0  0  0  0  0  0
    2.1605   -0.6345    1.0927 C   0  0  2  0  0  0  0  0  0  0  0  0
    2.9756   -1.7609    0.8175 O   0  0  0  0  0  0  0  0  0  0  0  0
    4.2960   -1.3502    0.4978 C   0  0  2  0  0  0  0  0  0  0  0  0
    5.1253   -2.6031    0.2096 C   0  0  0  0  0  0  0  0  0  0  0  0
    4.9452   -0.5032    1.6435 C   0  0  1  0  0  0  0  0  0  0  0  0
    5.1581    0.8292    1.1970 O   0  0  0  0  0  0  0  0  0  0  0  0
    6.4243    0.9724    0.5816 C   0  0  1  0  0  0  0  0  0  0  0  0
    6.4312    2.2777   -0.2360 C   0  0  0  0  0  0  0  0  0  0  0  0
    7.8661    2.8573   -0.4122 C   0  0  1  0  0  0  0  0  0  0  0  0
    7.9722    3.5869   -1.7684 C   0  0  0  0  0  0  0  0  0  0  0  0
    8.1467    3.7657    0.6300 O   0  0  0  0  0  0  0  0  0  0  0  0
    8.8942    1.7004   -0.3331 C   0  0  1  0  0  0  0  0  0  0  0  0
   10.2322    2.2005   -0.4314 O   0  0  0  0  0  0  0  0  0  0  0  0
   10.9815    2.2143   -1.6141 C   0  0  0  0  0  0  0  0  0  0  0  0
   10.5303    1.7007   -2.6740 O   0  0  0  0  0  0  0  0  0  0  0  0
   12.3524    2.8173   -1.6078 C   0  0  0  0  0  0  0  0  0  0  0  0
   13.4494    1.7449   -1.4505 C   0  0  0  0  0  0  0  0  0  0  0  0
   14.8325    2.3668   -1.6782 C   0  0  0  0  0  0  0  0  0  0  0  0
   13.3947    1.0807   -0.0666 C   0  0  0  0  0  0  0  0  0  0  0  0
    8.7364    0.9495    1.0231 C   0  0  2  0  0  0  0  0  0  0  0  0
    9.1968   -0.5094    0.9295 C   0  0  0  0  0  0  0  0  0  0  0  0
    7.4280    1.0221    1.5800 O   0  0  0  0  0  0  0  0  0  0  0  0
    4.0076   -0.4691    2.8800 C   0  0  2  0  0  0  0  0  0  0  0  0
    3.9861   -1.8315    3.5094 N   0  0  0  0  0  0  0  0  0  0  0  0
    5.1107   -1.9931    4.4541 C   0  0  0  0  0  0  0  0  0  0  0  0
    2.7383   -2.1840    4.2130 C   0  0  0  0  0  0  0  0  0  0  0  0
    2.6135    0.0662    2.4020 C   0  0  1  0  0  0  0  0  0  0  0  0
    2.6887    1.4516    2.1673 O   0  0  0  0  0  0  0  0  0  0  0  0
   -0.7770   -0.2345   -0.4623 C   0  0  1  0  0  0  0  0  0  0  0  0
   -0.5866    1.0746    0.3357 C   0  0  0  0  0  0  0  0  0  0  0  0
   -0.6563    0.0632   -1.9896 C   0  0  1  0  0  0  0  0  0  0  0  0
   -1.0329   -1.1386   -2.8926 C   0  0  0  0  0  0  0  0  0  0  0  0
   -2.4496   -1.6099   -2.7093 C   0  0  0  0  0  0  0  0  0  0  0  0
   -2.7254   -2.8302   -2.8683 O   0  0  0  0  0  0  0  0  0  0  0  0
   -3.4595   -0.6848   -2.4244 O   0  0  0  0  0  0  0  0  0  0  0  0
   -4.8455   -1.0127   -2.2996 C   0  0  2  0  0  0  0  0  0  0  0  0
   -5.4250   -1.2856   -3.7150 C   0  0  0  0  0  0  0  0  0  0  0  0
   -6.4143   -2.4512   -3.7356 C   0  0  0  0  0  0  0  0  0  0  0  0
   -5.5391    0.1766   -1.5847 C   0  0  1  0  0  0  0  0  0  0  0  0
   -7.0697    0.0328   -1.4632 C   0  0  0  0  0  0  0  0  0  0  0  0
   -7.5759    1.0027   -0.5654 O   0  0  0  0  0  0  0  0  0  0  0  0
   -8.9496    0.7776   -0.3137 C   0  0  2  0  0  0  0  0  0  0  0  0
   -9.7032    1.0968   -1.4706 O   0  0  0  0  0  0  0  0  0  0  0  0
  -11.0332    0.6127   -1.3455 C   0  0  2  0  0  0  0  0  0  0  0  0
  -11.8460    1.1513   -2.5232 C   0  0  0  0  0  0  0  0  0  0  0  0
  -11.6948    1.0145    0.0136 C   0  0  1  0  0  0  0  0  0  0  0  0
  -11.7717   -0.1043    0.8611 O   0  0  0  0  0  0  0  0  0  0  0  0
  -10.8732    2.1191    0.7007 C   0  0  1  0  0  0  0  0  0  0  0  0
  -11.4587    2.4160    1.9592 O   0  0  0  0  0  0  0  0  0  0  0  0
  -11.2267    3.7629    2.3104 C   0  0  0  0  0  0  0  0  0  0  0  0
   -9.3915    1.6830    0.8636 C   0  0  1  0  0  0  0  0  0  0  0  0
   -9.2383    0.9730    2.0844 O   0  0  0  0  0  0  0  0  0  0  0  0
   -8.0385    1.3393    2.7297 C   0  0  0  0  0  0  0  0  0  0  0  0
   -4.8426    0.5007   -0.2673 C   0  0  0  0  0  0  0  0  0  0  0  0
   -4.8634   -0.2148    0.8791 C   0  0  0  0  0  0  0  0  0  0  0  0
   -4.0798    0.3148    2.0510 C   0  0  0  0  0  0  0  0  0  0  0  0
   -1.4814    1.1845   -2.3233 O   0  0  0  0  0  0  0  0  0  0  0  0
   -1.3353    1.9441   -3.4884 C   0  0  0  0  0  0  0  0  0  0  0  0
   -2.3100    3.0345   -3.7741 C   0  0  0  0  0  0  0  0  0  0  0  0
   -0.3660    1.7497   -4.2711 O   0  0  0  0  0  0  0  0  0  0  0  0
   -6.8240   -1.2147    0.9515 H   0  0  0  0  0  0  0  0  0  0  0  0
   -6.1833   -3.2133    1.9712 H   0  0  0  0  0  0  0  0  0  0  0  0
   -3.2941   -2.4753    0.0293 H   0  0  0  0  0  0  0  0  0  0  0  0
   -4.1185   -4.8475    0.1630 H   0  0  0  0  0  0  0  0  0  0  0  0
   -2.4405   -4.7572   -0.4477 H   0  0  0  0  0  0  0  0  0  0  0  0
   -2.7436   -5.2553    1.2614 H   0  0  0  0  0  0  0  0  0  0  0  0
   -1.2602   -3.3741    2.1782 H   0  0  0  0  0  0  0  0  0  0  0  0
   -1.6380   -1.6959    1.7907 H   0  0  0  0  0  0  0  0  0  0  0  0
   -1.0793   -2.9352   -0.7679 H   0  0  0  0  0  0  0  0  0  0  0  0
   -0.1111   -4.8439    0.6092 H   0  0  0  0  0  0  0  0  0  0  0  0
    1.1181   -3.7049    1.2359 H   0  0  0  0  0  0  0  0  0  0  0  0
    2.3509   -4.0446   -0.8136 H   0  0  0  0  0  0  0  0  0  0  0  0
    0.9607   -1.5309   -0.7926 H   0  0  0  0  0  0  0  0  0  0  0  0
    2.2275    0.0982    0.2496 H   0  0  0  0  0  0  0  0  0  0  0  0
    4.2780   -0.7615   -0.4490 H   0  0  0  0  0  0  0  0  0  0  0  0
    5.1583   -3.2582    1.1065 H   0  0  0  0  0  0  0  0  0  0  0  0
    6.1619   -2.3261   -0.0771 H   0  0  0  0  0  0  0  0  0  0  0  0
    4.6732   -3.1705   -0.6307 H   0  0  0  0  0  0  0  0  0  0  0  0
    5.9069   -0.9646    1.9635 H   0  0  0  0  0  0  0  0  0  0  0  0
    6.6050    0.1284   -0.1273 H   0  0  0  0  0  0  0  0  0  0  0  0
    5.9708    2.0573   -1.2251 H   0  0  0  0  0  0  0  0  0  0  0  0
    5.7787    3.0335    0.2547 H   0  0  0  0  0  0  0  0  0  0  0  0
    8.9430    4.1192   -1.8512 H   0  0  0  0  0  0  0  0  0  0  0  0
    7.1626    4.3419   -1.8647 H   0  0  0  0  0  0  0  0  0  0  0  0
    7.8817    2.8682   -2.6111 H   0  0  0  0  0  0  0  0  0  0  0  0
    7.5215    4.5333    0.5492 H   0  0  0  0  0  0  0  0  0  0  0  0
    8.6896    0.9837   -1.1620 H   0  0  0  0  0  0  0  0  0  0  0  0
   12.4243    3.5628   -0.7859 H   0  0  0  0  0  0  0  0  0  0  0  0
   12.4959    3.3637   -2.5658 H   0  0  0  0  0  0  0  0  0  0  0  0
   13.3000    0.9587   -2.2241 H   0  0  0  0  0  0  0  0  0  0  0  0
   15.0316    3.1646   -0.9304 H   0  0  0  0  0  0  0  0  0  0  0  0
   14.8930    2.8064   -2.6967 H   0  0  0  0  0  0  0  0  0  0  0  0
   15.6222    1.5899   -1.5934 H   0  0  0  0  0  0  0  0  0  0  0  0
   13.5099    1.8387    0.7378 H   0  0  0  0  0  0  0  0  0  0  0  0
   12.4290    0.5528    0.0726 H   0  0  0  0  0  0  0  0  0  0  0  0
   14.2068    0.3289    0.0307 H   0  0  0  0  0  0  0  0  0  0  0  0
    9.4095    1.4461    1.7565 H   0  0  0  0  0  0  0  0  0  0  0  0
   10.2584   -0.5550    0.6084 H   0  0  0  0  0  0  0  0  0  0  0  0
    8.5809   -1.0772    0.2016 H   0  0  0  0  0  0  0  0  0  0  0  0
    9.1077   -0.9957    1.9240 H   0  0  0  0  0  0  0  0  0  0  0  0
    4.4114    0.2702    3.6111 H   0  0  0  0  0  0  0  0  0  0  0  0
    4.9849   -1.3330    5.3413 H   0  0  0  0  0  0  0  0  0  0  0  0
    5.1761   -3.0487    4.7958 H   0  0  0  0  0  0  0  0  0  0  0  0
    6.0833   -1.7595    3.9784 H   0  0  0  0  0  0  0  0  0  0  0  0
    2.8409   -3.1627    4.7307 H   0  0  0  0  0  0  0  0  0  0  0  0
    1.9117   -2.3232    3.4863 H   0  0  0  0  0  0  0  0  0  0  0  0
    2.4720   -1.4124    4.9689 H   0  0  0  0  0  0  0  0  0  0  0  0
    1.8402   -0.0781    3.1876 H   0  0  0  0  0  0  0  0  0  0  0  0
    2.7325    1.8972    3.0538 H   0  0  0  0  0  0  0  0  0  0  0  0
   -1.8261   -0.5388   -0.2690 H   0  0  0  0  0  0  0  0  0  0  0  0
   -0.6511    0.8897    1.4283 H   0  0  0  0  0  0  0  0  0  0  0  0
    0.3903    1.5453    0.1005 H   0  0  0  0  0  0  0  0  0  0  0  0
   -1.3915    1.8001    0.0919 H   0  0  0  0  0  0  0  0  0  0  0  0
    0.4049    0.3310   -2.1958 H   0  0  0  0  0  0  0  0  0  0  0  0
   -0.9097   -0.8464   -3.9561 H   0  0  0  0  0  0  0  0  0  0  0  0
   -0.3270   -1.9778   -2.7256 H   0  0  0  0  0  0  0  0  0  0  0  0
   -4.9443   -1.9180   -1.6598 H   0  0  0  0  0  0  0  0  0  0  0  0
   -5.9087   -0.3772   -4.1340 H   0  0  0  0  0  0  0  0  0  0  0  0
   -4.6034   -1.5445   -4.4170 H   0  0  0  0  0  0  0  0  0  0  0  0
   -5.9290   -3.3748   -3.3544 H   0  0  0  0  0  0  0  0  0  0  0  0
   -7.3101   -2.2295   -3.1234 H   0  0  0  0  0  0  0  0  0  0  0  0
   -6.7462   -2.6348   -4.7792 H   0  0  0  0  0  0  0  0  0  0  0  0
   -5.3734    1.0682   -2.2320 H   0  0  0  0  0  0  0  0  0  0  0  0
   -7.3207   -1.0016   -1.1484 H   0  0  0  0  0  0  0  0  0  0  0  0
   -7.5209    0.1928   -2.4675 H   0  0  0  0  0  0  0  0  0  0  0  0
   -9.1129   -0.2889   -0.0136 H   0  0  0  0  0  0  0  0  0  0  0  0
  -11.0240   -0.4971   -1.4487 H   0  0  0  0  0  0  0  0  0  0  0  0
  -11.3661    0.8542   -3.4800 H   0  0  0  0  0  0  0  0  0  0  0  0
  -12.8758    0.7346   -2.5040 H   0  0  0  0  0  0  0  0  0  0  0  0
  -11.8993    2.2603   -2.4800 H   0  0  0  0  0  0  0  0  0  0  0  0
  -12.7253    1.4132   -0.1464 H   0  0  0  0  0  0  0  0  0  0  0  0
  -12.5107   -0.6718    0.5182 H   0  0  0  0  0  0  0  0  0  0  0  0
  -10.9103    2.9988    0.0100 H   0  0  0  0  0  0  0  0  0  0  0  0
  -11.6261    3.9356    3.3307 H   0  0  0  0  0  0  0  0  0  0  0  0
  -11.7616    4.4501    1.6187 H   0  0  0  0  0  0  0  0  0  0  0  0
  -10.1404    3.9996    2.3310 H   0  0  0  0  0  0  0  0  0  0  0  0
   -8.7924    2.6275    0.8330 H   0  0  0  0  0  0  0  0  0  0  0  0
   -7.8938    0.6810    3.6106 H   0  0  0  0  0  0  0  0  0  0  0  0
   -8.0948    2.3886    3.0932 H   0  0  0  0  0  0  0  0  0  0  0  0
   -7.1589    1.2089    2.0635 H   0  0  0  0  0  0  0  0  0  0  0  0
   -4.2225    1.3913   -0.2879 H   0  0  0  0  0  0  0  0  0  0  0  0
   -4.2526   -0.2864    2.9677 H   0  0  0  0  0  0  0  0  0  0  0  0
   -2.9978    0.3028    1.8182 H   0  0  0  0  0  0  0  0  0  0  0  0
   -4.3894    1.3589    2.2705 H   0  0  0  0  0  0  0  0  0  0  0  0
   -3.2853    2.8027   -3.2962 H   0  0  0  0  0  0  0  0  0  0  0  0
   -1.9232    3.9920   -3.3679 H   0  0  0  0  0  0  0  0  0  0  0  0
   -2.4626    3.1339   -4.8695 H   0  0  0  0  0  0  0  0  0  0  0  0
  1  2  2  0
  2  3  1  0
  3  4  2  0
  3  5  1  0
  5  6  1  0
  5  7  1  0
  7  8  1  0
  8  9  1  0
  9 10  1  0
 10 11  2  0
  8 12  1  0
 12 13  1  0
 13 14  1  0
 14 15  1  0
 15 16  1  0
 16 17  1  0
 16 18  1  0
 18 19  1  0
 19 20  1  0
 20 21  1  0
 21 22  1  0
 22 23  1  0
 22 24  1  1
 22 25  1  0
 25 26  1  0
 26 27  1  0
 27 28  2  0
 27 29  1  0
 29 30  1  0
 30 31  1  0
 30 32  1  0
 25 33  1  0
 33 34  1  0
 33 35  1  0
 18 36  1  0
 36 37  1  0
 37 38  1  0
 37 39  1  0
 36 40  1  0
 40 41  1  0
 12 42  1  0
 42 43  1  0
 42 44  1  0
 44 45  1  0
 45 46  1  0
 46 47  2  0
 46 48  1  0
 48 49  1  0
 49 50  1  0
 50 51  1  0
 49 52  1  0
 52 53  1  0
 53 54  1  0
 54 55  1  0
 55 56  1  0
 56 57  1  0
 57 58  1  0
 57 59  1  0
 59 60  1  0
 59 61  1  0
 61 62  1  0
 62 63  1  0
 61 64  1  0
 64 65  1  0
 65 66  1  0
 52 67  1  0
 67 68  2  0
 68 69  1  0
 44 70  1  0
 70 71  1  0
 71 72  1  0
 71 73  2  0
 68  1  1  0
 40 14  1  0
 64 55  1  0
 35 20  1  0
  1 74  1  0
  2 75  1  0
  5 76  1  6
  6 77  1  0
  6 78  1  0
  6 79  1  0
  7 80  1  0
  7 81  1  0
  8 82  1  6
  9 83  1  0
  9 84  1  0
 10 85  1  0
 12 86  1  6
 14 87  1  6
 16 88  1  6
 17 89  1  0
 17 90  1  0
 17 91  1  0
 18 92  1  1
 20 93  1  6
 21 94  1  0
 21 95  1  0
 23 96  1  0
 23 97  1  0
 23 98  1  0
 24 99  1  0
 25100  1  6
 29101  1  0
 29102  1  0
 30103  1  0
 31104  1  0
 31105  1  0
 31106  1  0
 32107  1  0
 32108  1  0
 32109  1  0
 33110  1  1
 34111  1  0
 34112  1  0
 34113  1  0
 36114  1  1
 38115  1  0
 38116  1  0
 38117  1  0
 39118  1  0
 39119  1  0
 39120  1  0
 40121  1  1
 41122  1  0
 42123  1  6
 43124  1  0
 43125  1  0
 43126  1  0
 44127  1  1
 45128  1  0
 45129  1  0
 49130  1  1
 50131  1  0
 50132  1  0
 51133  1  0
 51134  1  0
 51135  1  0
 52136  1  6
 53137  1  0
 53138  1  0
 55139  1  1
 57140  1  6
 58141  1  0
 58142  1  0
 58143  1  0
 59144  1  6
 60145  1  0
 61146  1  6
 63147  1  0
 63148  1  0
 63149  1  0
 64150  1  1
 66151  1  0
 66152  1  0
 66153  1  0
 67154  1  0
 69155  1  0
 69156  1  0
 69157  1  0
 72158  1  0
 72159  1  0
 72160  1  0
M  END
$$$$
