
     RDKit          3D

 25 27  0  0  0  0  0  0  0  0999 V2000
    4.6077   -1.3570    2.4394 O   0  0  0  0  0  0  0  0  0  0  0  0
    4.0406   -0.7727    1.4800 C   0  0  0  0  0  0  0  0  0  0  0  0
    4.7791   -0.0718    0.4906 N   0  0  0  0  0  0  0  0  0  0  0  0
    3.9069    0.4732   -0.4806 C   0  0  0  0  0  0  0  0  0  0  0  0
    4.3311    1.1313   -1.4679 O   0  0  0  0  0  0  0  0  0  0  0  0
    2.4929    0.1948   -0.2290 C   0  0  0  0  0  0  0  0  0  0  0  0
    2.2564   -0.7748    1.2768 S   0  0  0  0  0  0  0  0  0  0  0  0
    1.5167    0.5234   -1.0896 C   0  0  0  0  0  0  0  0  0  0  0  0
    0.0853    0.2299   -0.8704 C   0  0  0  0  0  0  0  0  0  0  0  0
   -0.5489    0.5354    0.3482 C   0  0  0  0  0  0  0  0  0  0  0  0
   -1.9134    0.2766    0.5132 C   0  0  0  0  0  0  0  0  0  0  0  0
   -2.6607   -0.2725   -0.5484 C   0  0  0  0  0  0  0  0  0  0  0  0
   -2.0392   -0.5503   -1.7687 C   0  0  0  0  0  0  0  0  0  0  0  0
   -0.6744   -0.2904   -1.9315 C   0  0  0  0  0  0  0  0  0  0  0  0
   -3.9866   -0.5165   -0.3733 N   0  0  0  0  0  0  0  0  0  0  0  0
   -4.6009   -0.2393    0.8074 C   0  0  0  0  0  0  0  0  0  0  0  0
   -3.8608    0.3083    1.8591 C   0  0  0  0  0  0  0  0  0  0  0  0
   -2.5346    0.5552    1.6900 N   0  0  0  0  0  0  0  0  0  0  0  0
    5.8194    0.0176    0.4748 H   0  0  0  0  0  0  0  0  0  0  0  0
    1.7859    0.9824   -2.0338 H   0  0  0  0  0  0  0  0  0  0  0  0
    0.0075    0.9913    1.1580 H   0  0  0  0  0  0  0  0  0  0  0  0
   -2.6097   -0.9629   -2.5915 H   0  0  0  0  0  0  0  0  0  0  0  0
   -0.2058   -0.5060   -2.8842 H   0  0  0  0  0  0  0  0  0  0  0  0
   -5.6569   -0.4406    0.9284 H   0  0  0  0  0  0  0  0  0  0  0  0
   -4.3374    0.5355    2.8032 H   0  0  0  0  0  0  0  0  0  0  0  0
  1  2  2  0
  2  3  1  0
  3  4  1  0
  4  5  2  0
  4  6  1  0
  6  7  1  0
  6  8  2  0
  8  9  1  0
  9 10  2  0
 10 11  1  0
 11 12  2  0
 12 13  1  0
 13 14  2  0
 12 15  1  0
 15 16  2  0
 16 17  1  0
 17 18  2  0
  7  2  1  0
 14  9  1  0
 18 11  1  0
  3 19  1  0
  8 20  1  0
 10 21  1  0
 13 22  1  0
 14 23  1  0
 16 24  1  0
 17 25  1  0
M  END
$$$$
