
     RDKit          3D

 60 61  0  0  0  0  0  0  0  0999 V2000
    0.6878    0.0000    0.0000 Cl  0  0  0  0  0  0  0  0  0  0  0  0
    5.3022   -2.1975    1.3462 C   0  0  0  0  0  0  0  0  0  0  0  0
    4.6359   -0.9864    1.0031 O   0  0  0  0  0  0  0  0  0  0  0  0
    3.6322   -0.8655    0.0289 C   0  0  0  0  0  0  0  0  0  0  0  0
    3.0336    0.3986   -0.2233 C   0  0  0  0  0  0  0  0  0  0  0  0
    3.3838    1.5707    0.4780 O   0  0  0  0  0  0  0  0  0  0  0  0
    4.3243    1.6828    1.5401 C   0  0  0  0  0  0  0  0  0  0  0  0
    2.0303    0.5147   -1.2163 C   0  0  0  0  0  0  0  0  0  0  0  0
    1.6331   -0.6325   -1.9334 C   0  0  0  0  0  0  0  0  0  0  0  0
    2.2131   -1.8703   -1.6733 C   0  0  0  0  0  0  0  0  0  0  0  0
    1.6771   -3.2896   -2.5552 Cl  0  0  0  0  0  0  0  0  0  0  0  0
    3.2058   -1.9881   -0.7052 C   0  0  0  0  0  0  0  0  0  0  0  0
    1.3597    1.8689   -1.4345 C   0  0  0  0  0  0  0  0  0  0  0  0
    0.5470    1.9957   -2.7335 C   0  0  0  0  0  0  0  0  0  0  0  0
    0.5448    2.2502   -0.2700 N   0  0  0  0  0  0  0  0  0  0  0  0
   -0.7481    1.6884    0.0252 C   0  0  0  0  0  0  0  0  0  0  0  0
   -0.8912    0.2995    0.1713 C   0  0  0  0  0  0  0  0  0  0  0  0
   -2.1422   -0.2781    0.4256 C   0  0  0  0  0  0  0  0  0  0  0  0
   -3.2593    0.5533    0.5695 C   0  0  0  0  0  0  0  0  0  0  0  0
   -3.1252    1.9392    0.4748 C   0  0  0  0  0  0  0  0  0  0  0  0
   -1.8766    2.5224    0.2036 C   0  0  0  0  0  0  0  0  0  0  0  0
   -1.7380    4.2863    0.0948 S   0  0  0  0  0  6  0  0  0  0  0  0
   -3.3272    5.0886    0.0124 C   0  0  0  0  0  0  0  0  0  0  0  0
   -1.0059    4.7986    1.3029 O   0  0  0  0  0  0  0  0  0  0  0  0
   -0.9752    4.6569   -1.1453 O   0  0  0  0  0  0  0  0  0  0  0  0
   -2.2792   -1.7089    0.5290 N   0  0  0  0  0  0  0  0  0  0  0  0
   -1.5098   -2.5879   -0.3594 C   0  0  0  0  0  0  0  0  0  0  0  0
   -2.2964   -3.8739   -0.6357 C   0  0  0  0  0  0  0  0  0  0  0  0
   -2.7423   -4.5065    0.6134 N   0  0  0  0  0  0  0  0  0  0  0  0
   -3.5999   -3.5952    1.3839 C   0  0  0  0  0  0  0  0  0  0  0  0
   -2.8585   -2.3017    1.7391 C   0  0  0  0  0  0  0  0  0  0  0  0
   -0.6878    0.0000    0.0000 H   0  0  0  0  0  0  0  0  0  0  0  0
    5.8392   -2.6021    0.4625 H   0  0  0  0  0  0  0  0  0  0  0  0
    4.5708   -2.9416    1.7265 H   0  0  0  0  0  0  0  0  0  0  0  0
    6.0425   -1.9886    2.1453 H   0  0  0  0  0  0  0  0  0  0  0  0
    4.3434    2.7349    1.8906 H   0  0  0  0  0  0  0  0  0  0  0  0
    5.3419    1.4199    1.1827 H   0  0  0  0  0  0  0  0  0  0  0  0
    4.0205    1.0398    2.3928 H   0  0  0  0  0  0  0  0  0  0  0  0
    0.8522   -0.5878   -2.6786 H   0  0  0  0  0  0  0  0  0  0  0  0
    3.6369   -2.9638   -0.5289 H   0  0  0  0  0  0  0  0  0  0  0  0
    2.1802    2.6148   -1.5338 H   0  0  0  0  0  0  0  0  0  0  0  0
   -0.3682    1.3679   -2.7008 H   0  0  0  0  0  0  0  0  0  0  0  0
    1.1678    1.6997   -3.6060 H   0  0  0  0  0  0  0  0  0  0  0  0
    0.2364    3.0508   -2.8804 H   0  0  0  0  0  0  0  0  0  0  0  0
    0.8543    3.0858    0.2754 H   0  0  0  0  0  0  0  0  0  0  0  0
   -0.0250   -0.3393    0.1338 H   0  0  0  0  0  0  0  0  0  0  0  0
   -4.2382    0.1281    0.7505 H   0  0  0  0  0  0  0  0  0  0  0  0
   -4.0062    2.5500    0.6093 H   0  0  0  0  0  0  0  0  0  0  0  0
   -3.1830    6.1753   -0.1591 H   0  0  0  0  0  0  0  0  0  0  0  0
   -3.9181    4.6634   -0.8250 H   0  0  0  0  0  0  0  0  0  0  0  0
   -3.8720    4.9440    0.9680 H   0  0  0  0  0  0  0  0  0  0  0  0
   -0.5378   -2.8383    0.1189 H   0  0  0  0  0  0  0  0  0  0  0  0
   -1.3064   -2.0805   -1.3281 H   0  0  0  0  0  0  0  0  0  0  0  0
   -3.1765   -3.6452   -1.2766 H   0  0  0  0  0  0  0  0  0  0  0  0
   -1.6503   -4.5838   -1.1957 H   0  0  0  0  0  0  0  0  0  0  0  0
   -1.9024   -4.7528    1.1891 H   0  0  0  0  0  0  0  0  0  0  0  0
   -4.5155   -3.3547    0.7996 H   0  0  0  0  0  0  0  0  0  0  0  0
   -3.9229   -4.1003    2.3195 H   0  0  0  0  0  0  0  0  0  0  0  0
   -3.5682   -1.6033    2.2309 H   0  0  0  0  0  0  0  0  0  0  0  0
   -2.0434   -2.5253    2.4610 H   0  0  0  0  0  0  0  0  0  0  0  0
  2  3  1  0
  3  4  1  0
  4  5  2  0
  5  6  1  0
  6  7  1  0
  5  8  1  0
  8  9  2  0
  9 10  1  0
 10 11  1  0
 10 12  2  0
  8 13  1  0
 13 14  1  0
 13 15  1  0
 15 16  1  0
 16 17  2  0
 17 18  1  0
 18 19  2  0
 19 20  1  0
 20 21  2  0
 21 22  1  0
 22 23  1  0
 22 24  2  0
 22 25  2  0
 18 26  1  0
 26 27  1  0
 27 28  1  0
 28 29  1  0
 29 30  1  0
 30 31  1  0
 12  4  1  0
 21 16  1  0
 31 26  1  0
  1 32  1  0
  2 33  1  0
  2 34  1  0
  2 35  1  0
  7 36  1  0
  7 37  1  0
  7 38  1  0
  9 39  1  0
 12 40  1  0
 13 41  1  0
 14 42  1  0
 14 43  1  0
 14 44  1  0
 15 45  1  0
 17 46  1  0
 19 47  1  0
 20 48  1  0
 23 49  1  0
 23 50  1  0
 23 51  1  0
 27 52  1  0
 27 53  1  0
 28 54  1  0
 28 55  1  0
 29 56  1  0
 30 57  1  0
 30 58  1  0
 31 59  1  0
 31 60  1  0
M  END
$$$$
