
     RDKit          3D

 23 22  0  0  0  0  0  0  0  0999 V2000
   -3.4631    1.6779    1.6175 N   0  0  0  0  0  0  0  0  0  0  0  0
   -2.7052    0.6393    0.9990 C   0  0  0  0  0  0  0  0  0  0  0  0
   -3.2810   -0.4256    0.6476 O   0  0  0  0  0  0  0  0  0  0  0  0
   -1.2981    0.8105    0.7804 N   0  0  0  0  0  0  0  0  0  0  0  0
   -0.4711   -0.2311    0.1623 C   0  0  1  0  0  0  0  0  0  0  0  0
    0.8797    0.3582   -0.2906 C   0  0  0  0  0  0  0  0  0  0  0  0
    1.7017   -0.6398   -1.1175 C   0  0  0  0  0  0  0  0  0  0  0  0
    2.9741   -0.0076   -1.5853 C   0  0  0  0  0  0  0  0  0  0  0  0
    3.0008    0.6854   -2.7914 O   0  0  0  0  0  0  0  0  0  0  0  0
    4.0097   -0.0678   -0.8698 O   0  0  0  0  0  0  0  0  0  0  0  0
   -0.2678   -1.3580    1.1368 C   0  0  0  0  0  0  0  0  0  0  0  0
   -0.5508   -2.6646    0.7518 O   0  0  0  0  0  0  0  0  0  0  0  0
    0.1735   -1.1256    2.2948 O   0  0  0  0  0  0  0  0  0  0  0  0
   -4.4878    1.5588    1.7791 H   0  0  0  0  0  0  0  0  0  0  0  0
   -3.0028    2.5664    1.9151 H   0  0  0  0  0  0  0  0  0  0  0  0
   -0.8563    1.7077    1.0857 H   0  0  0  0  0  0  0  0  0  0  0  0
   -0.9999   -0.6149   -0.7387 H   0  0  0  0  0  0  0  0  0  0  0  0
    1.4669    0.6831    0.5975 H   0  0  0  0  0  0  0  0  0  0  0  0
    0.6813    1.2579   -0.9149 H   0  0  0  0  0  0  0  0  0  0  0  0
    1.9432   -1.5371   -0.5075 H   0  0  0  0  0  0  0  0  0  0  0  0
    1.1156   -0.9697   -2.0024 H   0  0  0  0  0  0  0  0  0  0  0  0
    3.8502    1.1331   -3.1144 H   0  0  0  0  0  0  0  0  0  0  0  0
   -0.4126   -3.4365    1.3929 H   0  0  0  0  0  0  0  0  0  0  0  0
  1  2  1  0
  2  3  2  0
  2  4  1  0
  4  5  1  0
  5  6  1  0
  6  7  1  0
  7  8  1  0
  8  9  1  0
  8 10  2  0
  5 11  1  0
 11 12  1  0
 11 13  2  0
  1 14  1  0
  1 15  1  0
  4 16  1  0
  5 17  1  6
  6 18  1  0
  6 19  1  0
  7 20  1  0
  7 21  1  0
  9 22  1  0
 12 23  1  0
M  END
$$$$
