
     RDKit          3D

 18 17  0  0  0  0  0  0  0  0999 V2000
   -2.0123    0.9578    1.1071 O   0  0  0  0  0  0  0  0  0  0  0  0
   -2.1726   -0.2910    0.4906 C   0  0  0  0  0  0  0  0  0  0  0  0
   -1.2662   -0.4225   -0.7426 C   0  0  0  0  0  0  0  0  0  0  0  0
    0.2077   -0.6932   -0.3955 C   0  0  0  0  0  0  0  0  0  0  0  0
    0.9141    0.5270    0.2082 C   0  0  0  0  0  0  0  0  0  0  0  0
    2.3815    0.2673    0.3419 C   0  0  0  0  0  0  0  0  0  0  0  0
    3.2401    0.5883   -0.7048 O   0  0  0  0  0  0  0  0  0  0  0  0
    2.8343   -0.2781    1.3838 O   0  0  0  0  0  0  0  0  0  0  0  0
   -2.4695    1.6223    0.5282 H   0  0  0  0  0  0  0  0  0  0  0  0
   -3.2350   -0.4245    0.1836 H   0  0  0  0  0  0  0  0  0  0  0  0
   -1.9396   -1.0916    1.2245 H   0  0  0  0  0  0  0  0  0  0  0  0
   -1.3524    0.4835   -1.3815 H   0  0  0  0  0  0  0  0  0  0  0  0
   -1.6347   -1.2812   -1.3450 H   0  0  0  0  0  0  0  0  0  0  0  0
    0.2797   -1.5558    0.3032 H   0  0  0  0  0  0  0  0  0  0  0  0
    0.7296   -0.9799   -1.3355 H   0  0  0  0  0  0  0  0  0  0  0  0
    0.4989    0.7528    1.2128 H   0  0  0  0  0  0  0  0  0  0  0  0
    0.7626    1.4151   -0.4426 H   0  0  0  0  0  0  0  0  0  0  0  0
    4.2338    0.4038   -0.6365 H   0  0  0  0  0  0  0  0  0  0  0  0
  1  2  1  0
  2  3  1  0
  3  4  1  0
  4  5  1  0
  5  6  1  0
  6  7  1  0
  6  8  2  0
  1  9  1  0
  2 10  1  0
  2 11  1  0
  3 12  1  0
  3 13  1  0
  4 14  1  0
  4 15  1  0
  5 16  1  0
  5 17  1  0
  7 18  1  0
M  END
$$$$
