
     RDKit          3D

 14 14  0  0  0  0  0  0  0  0999 V2000
    0.1579   -1.4164   -0.3625 N   0  0  0  0  0  0  0  0  0  0  0  0
   -1.0533   -0.6016   -0.4226 C   0  0  0  0  0  0  0  0  0  0  0  0
   -0.9776    0.5636    0.5751 C   0  0  2  0  0  0  0  0  0  0  0  0
   -2.6716    1.8519    0.2866 I   0  0  0  0  0  0  0  0  0  0  0  0
    0.3251    1.3114    0.4221 C   0  0  0  0  0  0  0  0  0  0  0  0
    0.3982    2.5320    0.7261 O   0  0  0  0  0  0  0  0  0  0  0  0
    1.5090    0.6108    0.0237 N   0  0  0  0  0  0  0  0  0  0  0  0
    1.4358   -0.7810   -0.2898 C   0  0  0  0  0  0  0  0  0  0  0  0
    2.4880   -1.4453   -0.4833 O   0  0  0  0  0  0  0  0  0  0  0  0
    0.0916   -2.4564   -0.4356 H   0  0  0  0  0  0  0  0  0  0  0  0
   -1.9397   -1.2334   -0.1987 H   0  0  0  0  0  0  0  0  0  0  0  0
   -1.1625   -0.2002   -1.4535 H   0  0  0  0  0  0  0  0  0  0  0  0
   -1.0302    0.1597    1.6087 H   0  0  0  0  0  0  0  0  0  0  0  0
    2.4294    1.1050    0.0035 H   0  0  0  0  0  0  0  0  0  0  0  0
  1  2  1  0
  2  3  1  0
  3  4  1  0
  3  5  1  0
  5  6  2  0
  5  7  1  0
  7  8  1  0
  8  9  2  0
  8  1  1  0
  1 10  1  0
  2 11  1  0
  2 12  1  0
  3 13  1  1
  7 14  1  0
M  END
$$$$
