
     RDKit          3D

 70 73  0  0  0  0  0  0  0  0999 V2000
   -0.1686   -1.0875   -0.4336 C   0  0  2  0  0  0  0  0  0  0  0  0
   -1.1175   -2.0226   -1.1703 C   0  0  0  0  0  0  0  0  0  0  0  0
   -2.4681   -1.2828   -1.1570 C   0  0  0  0  0  0  0  0  0  0  0  0
   -2.2057    0.1409   -0.5605 C   0  0  2  0  0  0  0  0  0  0  0  0
   -2.4707    0.1084    0.8536 O   0  0  0  0  0  0  0  0  0  0  0  0
   -3.7159   -0.1457    1.4467 C   0  0  0  0  0  0  0  0  0  0  0  0
   -4.7531   -0.2985    0.7455 O   0  0  0  0  0  0  0  0  0  0  0  0
   -3.7969   -0.2842    2.9340 C   0  0  0  0  0  0  0  0  0  0  0  0
   -3.6920   -1.7509    3.3707 C   0  0  0  0  0  0  0  0  0  0  0  0
   -2.3254   -2.3603    3.0548 C   0  0  0  0  0  0  0  0  0  0  0  0
   -3.0457    1.2461   -1.2136 C   0  0  0  0  0  0  0  0  0  0  0  0
   -3.4602    1.1098   -2.3561 O   0  0  0  0  0  0  0  0  0  0  0  0
   -3.4029    2.5044   -0.4596 C   0  0  0  0  0  0  0  0  0  0  0  0
   -3.6181    3.5963   -1.3534 O   0  0  0  0  0  0  0  0  0  0  0  0
   -2.5853    4.3408   -1.9325 C   0  0  0  0  0  0  0  0  0  0  0  0
   -2.9159    5.4065   -2.9208 C   0  0  0  0  0  0  0  0  0  0  0  0
   -1.3866    4.1620   -1.5881 O   0  0  0  0  0  0  0  0  0  0  0  0
   -0.6679    0.3219   -0.7827 C   0  0  2  0  0  0  0  0  0  0  0  0
   -0.3895    0.7172   -2.2743 C   0  0  0  0  0  0  0  0  0  0  0  0
    0.0333    1.3199    0.1791 C   0  0  0  0  0  0  0  0  0  0  0  0
    1.5853    1.2140    0.1344 C   0  0  2  0  0  0  0  0  0  0  0  0
    2.0716    1.7760   -1.0547 O   0  0  0  0  0  0  0  0  0  0  0  0
    2.1046   -0.2585    0.3345 C   0  0  1  0  0  0  0  0  0  0  0  0
    1.7578   -0.5970    1.6400 F   0  0  0  0  0  0  0  0  0  0  0  0
    1.3574   -1.2685   -0.6157 C   0  0  1  0  0  0  0  0  0  0  0  0
    1.7650   -2.7237   -0.2974 C   0  0  0  0  0  0  0  0  0  0  0  0
    3.2755   -2.9237   -0.4096 C   0  0  2  0  0  0  0  0  0  0  0  0
    3.5754   -4.2341   -0.0700 F   0  0  0  0  0  0  0  0  0  0  0  0
    3.9927   -1.9214    0.4716 C   0  0  0  0  0  0  0  0  0  0  0  0
    4.8913   -2.3377    1.3826 C   0  0  0  0  0  0  0  0  0  0  0  0
    5.5579   -1.3888    2.2731 C   0  0  0  0  0  0  0  0  0  0  0  0
    6.4094   -1.7937    3.1076 O   0  0  0  0  0  0  0  0  0  0  0  0
    5.2188    0.0284    2.2005 C   0  0  0  0  0  0  0  0  0  0  0  0
    4.3419    0.4695    1.2994 C   0  0  0  0  0  0  0  0  0  0  0  0
    3.6791   -0.4283    0.2515 C   0  0  2  0  0  0  0  0  0  0  0  0
    4.2901   -0.0252   -1.1149 C   0  0  0  0  0  0  0  0  0  0  0  0
   -0.3680   -1.2718    0.6496 H   0  0  0  0  0  0  0  0  0  0  0  0
   -0.7704   -2.1889   -2.2137 H   0  0  0  0  0  0  0  0  0  0  0  0
   -1.1956   -3.0034   -0.6518 H   0  0  0  0  0  0  0  0  0  0  0  0
   -2.8591   -1.2417   -2.1958 H   0  0  0  0  0  0  0  0  0  0  0  0
   -3.2014   -1.8580   -0.5545 H   0  0  0  0  0  0  0  0  0  0  0  0
   -2.9868    0.3114    3.4079 H   0  0  0  0  0  0  0  0  0  0  0  0
   -4.7666    0.1302    3.2852 H   0  0  0  0  0  0  0  0  0  0  0  0
   -3.8576   -1.8051    4.4684 H   0  0  0  0  0  0  0  0  0  0  0  0
   -4.4878   -2.3512    2.8778 H   0  0  0  0  0  0  0  0  0  0  0  0
   -2.1815   -2.4439    1.9574 H   0  0  0  0  0  0  0  0  0  0  0  0
   -1.5122   -1.7392    3.4873 H   0  0  0  0  0  0  0  0  0  0  0  0
   -2.2645   -3.3793    3.4912 H   0  0  0  0  0  0  0  0  0  0  0  0
   -2.6241    2.7626    0.2887 H   0  0  0  0  0  0  0  0  0  0  0  0
   -4.3493    2.3234    0.0893 H   0  0  0  0  0  0  0  0  0  0  0  0
   -2.9986    6.3822   -2.3988 H   0  0  0  0  0  0  0  0  0  0  0  0
   -3.8813    5.1755   -3.4178 H   0  0  0  0  0  0  0  0  0  0  0  0
   -2.1212    5.4696   -3.6939 H   0  0  0  0  0  0  0  0  0  0  0  0
    0.6652    0.6125   -2.5776 H   0  0  0  0  0  0  0  0  0  0  0  0
   -0.6685    1.7757   -2.4502 H   0  0  0  0  0  0  0  0  0  0  0  0
   -0.9753    0.0986   -2.9843 H   0  0  0  0  0  0  0  0  0  0  0  0
   -0.2721    2.3587   -0.0598 H   0  0  0  0  0  0  0  0  0  0  0  0
   -0.2856    1.1329    1.2273 H   0  0  0  0  0  0  0  0  0  0  0  0
    1.9554    1.8231    0.9902 H   0  0  0  0  0  0  0  0  0  0  0  0
    1.9728    2.7608   -0.9747 H   0  0  0  0  0  0  0  0  0  0  0  0
    1.6248   -1.0856   -1.6727 H   0  0  0  0  0  0  0  0  0  0  0  0
    1.4322   -3.0020    0.7275 H   0  0  0  0  0  0  0  0  0  0  0  0
    1.2711   -3.4161   -1.0129 H   0  0  0  0  0  0  0  0  0  0  0  0
    3.5899   -2.7725   -1.4640 H   0  0  0  0  0  0  0  0  0  0  0  0
    5.1263   -3.3881    1.4983 H   0  0  0  0  0  0  0  0  0  0  0  0
    5.6885    0.7280    2.8811 H   0  0  0  0  0  0  0  0  0  0  0  0
    4.1673    1.5368    1.2610 H   0  0  0  0  0  0  0  0  0  0  0  0
    3.7241   -0.4370   -1.9723 H   0  0  0  0  0  0  0  0  0  0  0  0
    4.3553    1.0758   -1.2349 H   0  0  0  0  0  0  0  0  0  0  0  0
    5.3334   -0.4028   -1.1906 H   0  0  0  0  0  0  0  0  0  0  0  0
  1  2  1  0
  2  3  1  0
  3  4  1  0
  4  5  1  1
  5  6  1  0
  6  7  2  0
  6  8  1  0
  8  9  1  0
  9 10  1  0
  4 11  1  0
 11 12  2  0
 11 13  1  0
 13 14  1  0
 14 15  1  0
 15 16  1  0
 15 17  2  0
  4 18  1  0
 18 19  1  6
 18 20  1  0
 20 21  1  0
 21 22  1  0
 21 23  1  0
 23 24  1  1
 23 25  1  0
 25 26  1  0
 26 27  1  0
 27 28  1  0
 27 29  1  0
 29 30  2  0
 30 31  1  0
 31 32  2  0
 31 33  1  0
 33 34  2  0
 34 35  1  0
 35 36  1  6
 18  1  1  0
 35 23  1  0
 25  1  1  0
 35 29  1  0
  1 37  1  1
  2 38  1  0
  2 39  1  0
  3 40  1  0
  3 41  1  0
  8 42  1  0
  8 43  1  0
  9 44  1  0
  9 45  1  0
 10 46  1  0
 10 47  1  0
 10 48  1  0
 13 49  1  0
 13 50  1  0
 16 51  1  0
 16 52  1  0
 16 53  1  0
 19 54  1  0
 19 55  1  0
 19 56  1  0
 20 57  1  0
 20 58  1  0
 21 59  1  1
 22 60  1  0
 25 61  1  6
 26 62  1  0
 26 63  1  0
 27 64  1  6
 30 65  1  0
 33 66  1  0
 34 67  1  0
 36 68  1  0
 36 69  1  0
 36 70  1  0
M  END
$$$$
