
     RDKit          3D

 59 60  0  0  0  0  0  0  0  0999 V2000
    4.1809    2.6295    1.7342 C   0  0  0  0  0  0  0  0  0  0  0  0
    4.4545    2.3480    0.2451 C   0  0  0  0  0  0  0  0  0  0  0  0
    3.9068    1.0509   -0.2771 N   0  0  0  0  0  4  0  0  0  0  0  0
    4.2825    0.9661   -1.7157 C   0  0  0  0  0  0  0  0  0  0  0  0
    4.4532   -0.1367    0.4617 C   0  0  0  0  0  0  0  0  0  0  0  0
    5.9866   -0.1862    0.5896 C   0  0  0  0  0  0  0  0  0  0  0  0
    2.4097    1.0783   -0.1513 C   0  0  0  0  0  0  0  0  0  0  0  0
    1.6542   -0.0573   -0.8810 C   0  0  0  0  0  0  0  0  0  0  0  0
    0.2568    0.0364   -0.6134 O   0  0  0  0  0  0  0  0  0  0  0  0
   -0.3327   -0.3926    0.5835 C   0  0  0  0  0  0  0  0  0  0  0  0
    0.3803   -0.9091    1.4888 O   0  0  0  0  0  0  0  0  0  0  0  0
   -1.8181   -0.1706    0.8385 C   0  0  0  0  0  0  0  0  0  0  0  0
   -1.9136    0.8703    1.7866 O   0  0  0  0  0  0  0  0  0  0  0  0
   -2.5745    0.2651   -0.4729 C   0  0  0  0  0  0  0  0  0  0  0  0
   -4.0023    0.8135   -0.1883 C   0  0  0  0  0  0  0  0  0  0  0  0
   -4.9251    0.8080   -1.4263 C   0  0  0  0  0  0  0  0  0  0  0  0
   -4.1343    0.9174   -2.7337 C   0  0  0  0  0  0  0  0  0  0  0  0
   -3.1488   -0.2564   -2.9045 C   0  0  0  0  0  0  0  0  0  0  0  0
   -2.6371   -0.8277   -1.5661 C   0  0  0  0  0  0  0  0  0  0  0  0
   -2.4380   -1.4434    1.4397 C   0  0  0  0  0  0  0  0  0  0  0  0
   -3.3944   -1.3635    2.4761 C   0  0  0  0  0  0  0  0  0  0  0  0
   -3.9734   -2.5200    3.0064 C   0  0  0  0  0  0  0  0  0  0  0  0
   -3.6135   -3.7744    2.5135 C   0  0  0  0  0  0  0  0  0  0  0  0
   -2.6742   -3.8761    1.4874 C   0  0  0  0  0  0  0  0  0  0  0  0
   -2.0915   -2.7242    0.9522 C   0  0  0  0  0  0  0  0  0  0  0  0
    4.5664    1.8226    2.3877 H   0  0  0  0  0  0  0  0  0  0  0  0
    4.7011    3.5672    2.0227 H   0  0  0  0  0  0  0  0  0  0  0  0
    3.0998    2.7850    1.9246 H   0  0  0  0  0  0  0  0  0  0  0  0
    5.5533    2.4100    0.0840 H   0  0  0  0  0  0  0  0  0  0  0  0
    4.0322    3.2014   -0.3342 H   0  0  0  0  0  0  0  0  0  0  0  0
    5.3609    1.1826   -1.8760 H   0  0  0  0  0  0  0  0  0  0  0  0
    4.0931   -0.0466   -2.1339 H   0  0  0  0  0  0  0  0  0  0  0  0
    3.7126    1.7058   -2.3220 H   0  0  0  0  0  0  0  0  0  0  0  0
    4.0217   -0.1991    1.4847 H   0  0  0  0  0  0  0  0  0  0  0  0
    4.1557   -1.0795   -0.0450 H   0  0  0  0  0  0  0  0  0  0  0  0
    6.3673    0.6216    1.2465 H   0  0  0  0  0  0  0  0  0  0  0  0
    6.2777   -1.1507    1.0567 H   0  0  0  0  0  0  0  0  0  0  0  0
    6.4810   -0.1322   -0.4006 H   0  0  0  0  0  0  0  0  0  0  0  0
    2.1162    1.0309    0.9191 H   0  0  0  0  0  0  0  0  0  0  0  0
    2.0065    2.0401   -0.5437 H   0  0  0  0  0  0  0  0  0  0  0  0
    2.0165   -1.0616   -0.5825 H   0  0  0  0  0  0  0  0  0  0  0  0
    1.7855    0.0458   -1.9773 H   0  0  0  0  0  0  0  0  0  0  0  0
   -1.5143    1.6901    1.3904 H   0  0  0  0  0  0  0  0  0  0  0  0
   -2.0012    1.1167   -0.9067 H   0  0  0  0  0  0  0  0  0  0  0  0
   -3.9145    1.8552    0.1913 H   0  0  0  0  0  0  0  0  0  0  0  0
   -4.5035    0.2208    0.6027 H   0  0  0  0  0  0  0  0  0  0  0  0
   -5.6460    1.6510   -1.3563 H   0  0  0  0  0  0  0  0  0  0  0  0
   -5.5151   -0.1351   -1.4442 H   0  0  0  0  0  0  0  0  0  0  0  0
   -4.8380    0.9391   -3.5937 H   0  0  0  0  0  0  0  0  0  0  0  0
   -3.5737    1.8782   -2.7361 H   0  0  0  0  0  0  0  0  0  0  0  0
   -2.2841    0.0923   -3.5104 H   0  0  0  0  0  0  0  0  0  0  0  0
   -3.6429   -1.0733   -3.4744 H   0  0  0  0  0  0  0  0  0  0  0  0
   -1.6401   -1.2851   -1.7345 H   0  0  0  0  0  0  0  0  0  0  0  0
   -3.3286   -1.6352   -1.2406 H   0  0  0  0  0  0  0  0  0  0  0  0
   -3.7039   -0.4068    2.8762 H   0  0  0  0  0  0  0  0  0  0  0  0
   -4.7053   -2.4423    3.8000 H   0  0  0  0  0  0  0  0  0  0  0  0
   -4.0643   -4.6680    2.9256 H   0  0  0  0  0  0  0  0  0  0  0  0
   -2.3975   -4.8496    1.1037 H   0  0  0  0  0  0  0  0  0  0  0  0
   -1.3687   -2.8365    0.1548 H   0  0  0  0  0  0  0  0  0  0  0  0
  1  2  1  0
  2  3  1  0
  3  4  1  0
  3  5  1  0
  5  6  1  0
  3  7  1  0
  7  8  1  0
  8  9  1  0
  9 10  1  0
 10 11  2  0
 10 12  1  0
 12 13  1  0
 12 14  1  0
 14 15  1  0
 15 16  1  0
 16 17  1  0
 17 18  1  0
 18 19  1  0
 12 20  1  0
 20 21  2  0
 21 22  1  0
 22 23  2  0
 23 24  1  0
 24 25  2  0
 19 14  1  0
 25 20  1  0
  1 26  1  0
  1 27  1  0
  1 28  1  0
  2 29  1  0
  2 30  1  0
  4 31  1  0
  4 32  1  0
  4 33  1  0
  5 34  1  0
  5 35  1  0
  6 36  1  0
  6 37  1  0
  6 38  1  0
  7 39  1  0
  7 40  1  0
  8 41  1  0
  8 42  1  0
 13 43  1  0
 14 44  1  0
 15 45  1  0
 15 46  1  0
 16 47  1  0
 16 48  1  0
 17 49  1  0
 17 50  1  0
 18 51  1  0
 18 52  1  0
 19 53  1  0
 19 54  1  0
 21 55  1  0
 22 56  1  0
 23 57  1  0
 24 58  1  0
 25 59  1  0
M  CHG  1   3   1
M  END
$$$$
