
     RDKit          3D

 76 79  0  0  0  0  0  0  0  0999 V2000
    9.2376    1.3783    0.8532 C   0  0  0  0  0  0  0  0  0  0  0  0
    8.6842   -0.0003    0.4310 C   0  0  0  0  0  0  0  0  0  0  0  0
    9.4445   -0.4407   -0.8432 C   0  0  0  0  0  0  0  0  0  0  0  0
    8.9849   -1.0343    1.5376 C   0  0  0  0  0  0  0  0  0  0  0  0
    7.1589    0.0995    0.2215 C   0  0  0  0  0  0  0  0  0  0  0  0
    6.3320    0.4975    1.2951 C   0  0  0  0  0  0  0  0  0  0  0  0
    4.9474    0.5982    1.1432 C   0  0  0  0  0  0  0  0  0  0  0  0
    4.3430    0.3144   -0.0899 C   0  0  0  0  0  0  0  0  0  0  0  0
    5.1482   -0.0987   -1.1601 C   0  0  0  0  0  0  0  0  0  0  0  0
    6.5341   -0.2007   -1.0119 C   0  0  0  0  0  0  0  0  0  0  0  0
    2.8409    0.3869   -0.2495 C   0  0  0  0  0  0  0  0  0  0  0  0
    2.3638    1.5558    0.3712 O   0  0  0  0  0  0  0  0  0  0  0  0
    2.1899   -0.8589    0.3857 C   0  0  0  0  0  0  0  0  0  0  0  0
    0.6683   -0.9331    0.1695 C   0  0  0  0  0  0  0  0  0  0  0  0
    0.2979   -1.4266   -1.2478 C   0  0  0  0  0  0  0  0  0  0  0  0
   -1.1257   -1.2234   -1.5914 N   0  0  0  0  0  0  0  0  0  0  0  0
   -2.0510   -2.0249   -0.7634 C   0  0  0  0  0  0  0  0  0  0  0  0
   -3.5041   -1.7278   -1.1455 C   0  0  0  0  0  0  0  0  0  0  0  0
   -3.8765   -0.2265   -0.9401 C   0  0  0  0  0  0  0  0  0  0  0  0
   -2.6071    0.6591   -0.8097 C   0  0  0  0  0  0  0  0  0  0  0  0
   -1.5042    0.2013   -1.7749 C   0  0  0  0  0  0  0  0  0  0  0  0
   -4.8698    0.0125    0.2609 C   0  0  0  0  0  0  0  0  0  0  0  0
   -4.2009   -0.3314    1.4584 O   0  0  0  0  0  0  0  0  0  0  0  0
   -5.2554    1.4975    0.3095 C   0  0  0  0  0  0  0  0  0  0  0  0
   -4.8371    2.3361    1.3671 C   0  0  0  0  0  0  0  0  0  0  0  0
   -5.1835    3.6904    1.3829 C   0  0  0  0  0  0  0  0  0  0  0  0
   -5.9452    4.2327    0.3476 C   0  0  0  0  0  0  0  0  0  0  0  0
   -6.3608    3.4229   -0.7094 C   0  0  0  0  0  0  0  0  0  0  0  0
   -6.0183    2.0684   -0.7327 C   0  0  0  0  0  0  0  0  0  0  0  0
   -6.1811   -0.7947    0.1774 C   0  0  0  0  0  0  0  0  0  0  0  0
   -6.9393   -0.9882    1.3521 C   0  0  0  0  0  0  0  0  0  0  0  0
   -8.1567   -1.6731    1.3161 C   0  0  0  0  0  0  0  0  0  0  0  0
   -8.6504   -2.1602    0.1062 C   0  0  0  0  0  0  0  0  0  0  0  0
   -7.9327   -1.9538   -1.0718 C   0  0  0  0  0  0  0  0  0  0  0  0
   -6.7145   -1.2686   -1.0435 C   0  0  0  0  0  0  0  0  0  0  0  0
   10.3428    1.3415    0.9677 H   0  0  0  0  0  0  0  0  0  0  0  0
    8.9911    2.1446    0.0866 H   0  0  0  0  0  0  0  0  0  0  0  0
    8.8149    1.7086    1.8249 H   0  0  0  0  0  0  0  0  0  0  0  0
   10.5383   -0.4945   -0.6509 H   0  0  0  0  0  0  0  0  0  0  0  0
    9.1152   -1.4499   -1.1725 H   0  0  0  0  0  0  0  0  0  0  0  0
    9.2867    0.2859   -1.6695 H   0  0  0  0  0  0  0  0  0  0  0  0
   10.0812   -1.1545    1.6777 H   0  0  0  0  0  0  0  0  0  0  0  0
    8.5576   -0.7236    2.5139 H   0  0  0  0  0  0  0  0  0  0  0  0
    8.5564   -2.0240    1.2683 H   0  0  0  0  0  0  0  0  0  0  0  0
    6.7535    0.7301    2.2634 H   0  0  0  0  0  0  0  0  0  0  0  0
    4.3452    0.8960    1.9927 H   0  0  0  0  0  0  0  0  0  0  0  0
    4.7031   -0.3461   -2.1161 H   0  0  0  0  0  0  0  0  0  0  0  0
    7.0976   -0.5198   -1.8756 H   0  0  0  0  0  0  0  0  0  0  0  0
    2.6058    0.4157   -1.3388 H   0  0  0  0  0  0  0  0  0  0  0  0
    1.6112    1.8983   -0.1785 H   0  0  0  0  0  0  0  0  0  0  0  0
    2.3853   -0.8431    1.4809 H   0  0  0  0  0  0  0  0  0  0  0  0
    2.6634   -1.7811   -0.0190 H   0  0  0  0  0  0  0  0  0  0  0  0
    0.2649   -1.6551    0.9108 H   0  0  0  0  0  0  0  0  0  0  0  0
    0.2058    0.0499    0.3899 H   0  0  0  0  0  0  0  0  0  0  0  0
    0.5435   -2.5084   -1.3276 H   0  0  0  0  0  0  0  0  0  0  0  0
    0.9201   -0.9186   -2.0135 H   0  0  0  0  0  0  0  0  0  0  0  0
   -1.8524   -3.1060   -0.9295 H   0  0  0  0  0  0  0  0  0  0  0  0
   -1.9161   -1.8116    0.3178 H   0  0  0  0  0  0  0  0  0  0  0  0
   -3.6381   -1.9916   -2.2180 H   0  0  0  0  0  0  0  0  0  0  0  0
   -4.1690   -2.4069   -0.5722 H   0  0  0  0  0  0  0  0  0  0  0  0
   -4.3705    0.1118   -1.8767 H   0  0  0  0  0  0  0  0  0  0  0  0
   -2.2078    0.6282    0.2266 H   0  0  0  0  0  0  0  0  0  0  0  0
   -2.8607    1.7177   -1.0360 H   0  0  0  0  0  0  0  0  0  0  0  0
   -1.8723    0.3291   -2.8154 H   0  0  0  0  0  0  0  0  0  0  0  0
   -0.6301    0.8820   -1.6693 H   0  0  0  0  0  0  0  0  0  0  0  0
   -4.0880   -1.3169    1.4879 H   0  0  0  0  0  0  0  0  0  0  0  0
   -4.2383    1.9558    2.1836 H   0  0  0  0  0  0  0  0  0  0  0  0
   -4.8577    4.3214    2.1998 H   0  0  0  0  0  0  0  0  0  0  0  0
   -6.2108    5.2819    0.3628 H   0  0  0  0  0  0  0  0  0  0  0  0
   -6.9480    3.8455   -1.5144 H   0  0  0  0  0  0  0  0  0  0  0  0
   -6.3493    1.4671   -1.5685 H   0  0  0  0  0  0  0  0  0  0  0  0
   -6.5903   -0.6018    2.3015 H   0  0  0  0  0  0  0  0  0  0  0  0
   -8.7213   -1.8200    2.2278 H   0  0  0  0  0  0  0  0  0  0  0  0
   -9.5947   -2.6885    0.0798 H   0  0  0  0  0  0  0  0  0  0  0  0
   -8.3245   -2.3195   -2.0122 H   0  0  0  0  0  0  0  0  0  0  0  0
   -6.2053   -1.1155   -1.9826 H   0  0  0  0  0  0  0  0  0  0  0  0
  1  2  1  0
  2  3  1  0
  2  4  1  0
  2  5  1  0
  5  6  2  0
  6  7  1  0
  7  8  2  0
  8  9  1  0
  9 10  2  0
  8 11  1  0
 11 12  1  0
 11 13  1  0
 13 14  1  0
 14 15  1  0
 15 16  1  0
 16 17  1  0
 17 18  1  0
 18 19  1  0
 19 20  1  0
 20 21  1  0
 19 22  1  0
 22 23  1  0
 22 24  1  0
 24 25  2  0
 25 26  1  0
 26 27  2  0
 27 28  1  0
 28 29  2  0
 22 30  1  0
 30 31  2  0
 31 32  1  0
 32 33  2  0
 33 34  1  0
 34 35  2  0
 10  5  1  0
 21 16  1  0
 29 24  1  0
 35 30  1  0
  1 36  1  0
  1 37  1  0
  1 38  1  0
  3 39  1  0
  3 40  1  0
  3 41  1  0
  4 42  1  0
  4 43  1  0
  4 44  1  0
  6 45  1  0
  7 46  1  0
  9 47  1  0
 10 48  1  0
 11 49  1  0
 12 50  1  0
 13 51  1  0
 13 52  1  0
 14 53  1  0
 14 54  1  0
 15 55  1  0
 15 56  1  0
 17 57  1  0
 17 58  1  0
 18 59  1  0
 18 60  1  0
 19 61  1  0
 20 62  1  0
 20 63  1  0
 21 64  1  0
 21 65  1  0
 23 66  1  0
 25 67  1  0
 26 68  1  0
 27 69  1  0
 28 70  1  0
 29 71  1  0
 31 72  1  0
 32 73  1  0
 33 74  1  0
 34 75  1  0
 35 76  1  0
M  END
$$$$
