
     RDKit          3D

 59 60  0  0  0  0  0  0  0  0999 V2000
    3.4770   -1.6306   -2.8179 C   0  0  0  0  0  0  0  0  0  0  0  0
    2.1253   -1.0319   -2.3449 C   0  0  0  0  0  0  0  0  0  0  0  0
    1.0354   -2.1231   -2.5160 C   0  0  0  0  0  0  0  0  0  0  0  0
    2.1611   -0.3549   -0.9733 N   0  0  0  0  0  4  0  0  0  0  0  0
    2.6256   -1.3353    0.0569 C   0  0  0  0  0  0  0  0  0  0  0  0
    0.7795    0.1889   -0.6481 C   0  0  0  0  0  0  0  0  0  0  0  0
   -0.1523   -0.7088    0.2294 C   0  0  0  0  0  0  0  0  0  0  0  0
   -1.6302   -0.1920    0.4035 C   0  0  0  0  0  0  0  0  0  0  0  0
   -2.2966   -0.3252   -0.9757 C   0  0  0  0  0  0  0  0  0  0  0  0
   -2.1992    0.6959   -1.9761 N   0  0  0  0  0  0  0  0  0  0  0  0
   -2.8744   -1.4045   -1.2822 O   0  0  0  0  0  0  0  0  0  0  0  0
   -2.4325   -1.0658    1.4033 C   0  0  0  0  0  0  0  0  0  0  0  0
   -3.7973   -0.7704    1.6348 C   0  0  0  0  0  0  0  0  0  0  0  0
   -4.5611   -1.5249    2.5284 C   0  0  0  0  0  0  0  0  0  0  0  0
   -3.9883   -2.5985    3.2058 C   0  0  0  0  0  0  0  0  0  0  0  0
   -2.6522   -2.9257    2.9841 C   0  0  0  0  0  0  0  0  0  0  0  0
   -1.8797   -2.1765    2.0914 C   0  0  0  0  0  0  0  0  0  0  0  0
   -1.6630    1.2535    0.9660 C   0  0  0  0  0  0  0  0  0  0  0  0
   -0.7823    1.6438    2.0046 C   0  0  0  0  0  0  0  0  0  0  0  0
   -0.8420    2.9249    2.5594 C   0  0  0  0  0  0  0  0  0  0  0  0
   -1.8080    3.8316    2.1293 C   0  0  0  0  0  0  0  0  0  0  0  0
   -2.7327    3.4509    1.1597 C   0  0  0  0  0  0  0  0  0  0  0  0
   -2.6777    2.1721    0.5991 C   0  0  0  0  0  0  0  0  0  0  0  0
    3.1632    0.7991   -0.9897 C   0  0  0  0  0  0  0  0  0  0  0  0
    3.4440    1.4503    0.3980 C   0  0  0  0  0  0  0  0  0  0  0  0
    2.8351    1.9166   -2.0155 C   0  0  0  0  0  0  0  0  0  0  0  0
    3.3510   -2.1114   -3.8118 H   0  0  0  0  0  0  0  0  0  0  0  0
    3.8494   -2.4124   -2.1261 H   0  0  0  0  0  0  0  0  0  0  0  0
    4.2513   -0.8560   -2.9743 H   0  0  0  0  0  0  0  0  0  0  0  0
    1.8485   -0.2818   -3.1142 H   0  0  0  0  0  0  0  0  0  0  0  0
    1.0747   -2.5369   -3.5465 H   0  0  0  0  0  0  0  0  0  0  0  0
    0.0147   -1.7053   -2.4172 H   0  0  0  0  0  0  0  0  0  0  0  0
    1.1713   -2.9770   -1.8247 H   0  0  0  0  0  0  0  0  0  0  0  0
    3.7072   -1.5656   -0.0519 H   0  0  0  0  0  0  0  0  0  0  0  0
    2.0776   -2.2951    0.0175 H   0  0  0  0  0  0  0  0  0  0  0  0
    2.4964   -0.9434    1.0866 H   0  0  0  0  0  0  0  0  0  0  0  0
    0.8317    1.1602   -0.1299 H   0  0  0  0  0  0  0  0  0  0  0  0
    0.2597    0.4437   -1.5887 H   0  0  0  0  0  0  0  0  0  0  0  0
   -0.1903   -1.7365   -0.1811 H   0  0  0  0  0  0  0  0  0  0  0  0
    0.3120   -0.7980    1.2272 H   0  0  0  0  0  0  0  0  0  0  0  0
   -2.6418    0.5517   -2.9106 H   0  0  0  0  0  0  0  0  0  0  0  0
   -1.6823    1.5872   -1.8114 H   0  0  0  0  0  0  0  0  0  0  0  0
   -4.2836    0.0407    1.1125 H   0  0  0  0  0  0  0  0  0  0  0  0
   -5.6024   -1.2782    2.6911 H   0  0  0  0  0  0  0  0  0  0  0  0
   -4.5823   -3.1829    3.8965 H   0  0  0  0  0  0  0  0  0  0  0  0
   -2.2123   -3.7679    3.5028 H   0  0  0  0  0  0  0  0  0  0  0  0
   -0.8591   -2.4956    1.9522 H   0  0  0  0  0  0  0  0  0  0  0  0
   -0.0456    0.9662    2.4067 H   0  0  0  0  0  0  0  0  0  0  0  0
   -0.1448    3.2094    3.3371 H   0  0  0  0  0  0  0  0  0  0  0  0
   -1.8553    4.8212    2.5651 H   0  0  0  0  0  0  0  0  0  0  0  0
   -3.5055    4.1431    0.8510 H   0  0  0  0  0  0  0  0  0  0  0  0
   -3.4474    1.9064   -0.1113 H   0  0  0  0  0  0  0  0  0  0  0  0
    4.1636    0.4183   -1.2774 H   0  0  0  0  0  0  0  0  0  0  0  0
    4.1499    2.3005    0.2828 H   0  0  0  0  0  0  0  0  0  0  0  0
    2.5413    1.8459    0.8997 H   0  0  0  0  0  0  0  0  0  0  0  0
    3.9551    0.7419    1.0811 H   0  0  0  0  0  0  0  0  0  0  0  0
    2.9699    1.5642   -3.0570 H   0  0  0  0  0  0  0  0  0  0  0  0
    1.8096    2.3174   -1.8890 H   0  0  0  0  0  0  0  0  0  0  0  0
    3.5411    2.7664   -1.9011 H   0  0  0  0  0  0  0  0  0  0  0  0
  1  2  1  0
  2  3  1  0
  2  4  1  0
  4  5  1  0
  4  6  1  0
  6  7  1  0
  7  8  1  0
  8  9  1  0
  9 10  1  0
  9 11  2  0
  8 12  1  0
 12 13  2  0
 13 14  1  0
 14 15  2  0
 15 16  1  0
 16 17  2  0
  8 18  1  0
 18 19  2  0
 19 20  1  0
 20 21  2  0
 21 22  1  0
 22 23  2  0
  4 24  1  0
 24 25  1  0
 24 26  1  0
 17 12  1  0
 23 18  1  0
  1 27  1  0
  1 28  1  0
  1 29  1  0
  2 30  1  0
  3 31  1  0
  3 32  1  0
  3 33  1  0
  5 34  1  0
  5 35  1  0
  5 36  1  0
  6 37  1  0
  6 38  1  0
  7 39  1  0
  7 40  1  0
 10 41  1  0
 10 42  1  0
 13 43  1  0
 14 44  1  0
 15 45  1  0
 16 46  1  0
 17 47  1  0
 19 48  1  0
 20 49  1  0
 21 50  1  0
 22 51  1  0
 23 52  1  0
 24 53  1  0
 25 54  1  0
 25 55  1  0
 25 56  1  0
 26 57  1  0
 26 58  1  0
 26 59  1  0
M  CHG  1   4   1
M  END
$$$$
