
     RDKit          3D

124126  0  0  0  0  0  0  0  0999 V2000
    2.5629    1.6127    4.0055 C   0  0  0  0  0  0  0  0  0  0  0  0
    3.5136    2.1943    2.9601 C   0  0  0  0  0  0  0  0  0  0  0  0
    4.1963    1.0910    2.1128 C   0  0  1  0  0  0  0  0  0  0  0  0
    3.2434    0.5793    1.1794 O   0  0  0  0  0  0  0  0  0  0  0  0
    3.0690   -0.7904    0.9452 C   0  0  0  0  0  0  0  0  0  0  0  0
    3.8879   -1.4022    0.2071 O   0  0  0  0  0  0  0  0  0  0  0  0
    1.8690   -1.5150    1.5206 C   0  0  2  0  0  0  0  0  0  0  0  0
    2.1749   -3.0157    1.6814 C   0  0  0  0  0  0  0  0  0  0  0  0
    0.5667   -1.2236    0.6883 C   0  0  1  0  0  0  0  0  0  0  0  0
   -0.3526   -2.3088    0.7842 O   0  0  0  0  0  0  0  0  0  0  0  0
   -0.3967   -3.0755   -0.4078 C   0  0  1  0  0  0  0  0  0  0  0  0
   -1.0148   -4.4393   -0.0905 C   0  0  0  0  0  0  0  0  0  0  0  0
   -1.2655   -5.2843   -1.3862 C   0  0  1  0  0  0  0  0  0  0  0  0
   -0.4148   -6.5688   -1.2739 C   0  0  0  0  0  0  0  0  0  0  0  0
   -2.6175   -5.7449   -1.4512 O   0  0  0  0  0  0  0  0  0  0  0  0
   -3.5751   -4.7406   -1.7217 C   0  0  0  0  0  0  0  0  0  0  0  0
   -0.7969   -4.5227   -2.6828 C   0  0  1  0  0  0  0  0  0  0  0  0
   -1.3688   -5.0938   -3.8345 O   0  0  0  0  0  0  0  0  0  0  0  0
   -1.1045   -2.9897   -2.6539 C   0  0  2  0  0  0  0  0  0  0  0  0
   -0.0910   -2.1912   -3.4807 C   0  0  0  0  0  0  0  0  0  0  0  0
   -1.2087   -2.4177   -1.3571 O   0  0  0  0  0  0  0  0  0  0  0  0
   -0.1404    0.0865    1.1866 C   0  0  2  0  0  0  0  0  0  0  0  0
   -0.9149   -0.1639    2.5032 C   0  0  0  0  0  0  0  0  0  0  0  0
   -1.0473    0.7655    0.0799 C   0  0  1  0  0  0  0  0  0  0  0  0
   -2.2942    1.1591    0.6511 O   0  0  0  0  0  0  0  0  0  0  0  0
   -3.4254    0.8981   -0.1703 C   0  0  2  0  0  0  0  0  0  0  0  0
   -4.1310    2.1105   -0.3910 O   0  0  0  0  0  0  0  0  0  0  0  0
   -5.0548    2.4310    0.6307 C   0  0  2  0  0  0  0  0  0  0  0  0
   -4.3723    2.7653    1.9693 C   0  0  0  0  0  0  0  0  0  0  0  0
   -6.1702    1.3706    0.7569 C   0  0  0  0  0  0  0  0  0  0  0  0
   -5.7907   -0.0284    0.1996 C   0  0  1  0  0  0  0  0  0  0  0  0
   -4.2736   -0.2468    0.4547 C   0  0  1  0  0  0  0  0  0  0  0  0
   -3.8338   -1.4517   -0.1129 O   0  0  0  0  0  0  0  0  0  0  0  0
   -6.6612   -1.0731    0.8347 N   0  0  0  0  0  0  0  0  0  0  0  0
   -8.0889   -0.8304    0.5298 C   0  0  0  0  0  0  0  0  0  0  0  0
   -6.3288   -2.4487    0.4097 C   0  0  0  0  0  0  0  0  0  0  0  0
   -0.3897    2.0297   -0.6019 C   0  0  2  0  0  0  0  0  0  0  0  0
   -0.1133    3.1261    0.4552 C   0  0  0  0  0  0  0  0  0  0  0  0
   -1.3124    2.5749   -1.5172 O   0  0  0  0  0  0  0  0  0  0  0  0
    0.9061    1.6109   -1.3736 C   0  0  0  0  0  0  0  0  0  0  0  0
    1.8000    2.7078   -2.0154 C   0  0  1  0  0  0  0  0  0  0  0  0
    1.0362    3.7238   -2.8747 C   0  0  0  0  0  0  0  0  0  0  0  0
    2.7458    3.3899   -0.9927 C   0  0  0  0  0  0  0  0  0  0  0  0
    4.0900    3.5694   -1.5844 N   0  0  0  0  0  0  0  0  0  0  0  0
    4.5099    4.9783   -1.6839 C   0  0  0  0  0  0  0  0  0  0  0  0
    5.1467    2.6370   -1.0963 C   0  0  2  0  0  0  0  0  0  0  0  0
    4.8729    1.2338   -1.6541 C   0  0  0  0  0  0  0  0  0  0  0  0
    5.5167    2.7711    0.4517 C   0  0  1  0  0  0  0  0  0  0  0  0
    4.7911    3.8175    1.0471 O   0  0  0  0  0  0  0  0  0  0  0  0
    5.5626    1.5073    1.4219 C   0  0  1  0  0  0  0  0  0  0  0  0
    6.6044    1.8108    2.5392 C   0  0  0  0  0  0  0  0  0  0  0  0
    6.0669    0.4038    0.7107 O   0  0  0  0  0  0  0  0  0  0  0  0
    1.7501    1.0400    3.5205 H   0  0  0  0  0  0  0  0  0  0  0  0
    3.1134    0.9488    4.7054 H   0  0  0  0  0  0  0  0  0  0  0  0
    2.1050    2.4382    4.5903 H   0  0  0  0  0  0  0  0  0  0  0  0
    4.2581    2.8069    3.5037 H   0  0  0  0  0  0  0  0  0  0  0  0
    2.9238    2.8694    2.3074 H   0  0  0  0  0  0  0  0  0  0  0  0
    4.4450    0.2680    2.8235 H   0  0  0  0  0  0  0  0  0  0  0  0
    1.7456   -1.1388    2.5548 H   0  0  0  0  0  0  0  0  0  0  0  0
    1.3400   -3.5312    2.2014 H   0  0  0  0  0  0  0  0  0  0  0  0
    2.3499   -3.4995    0.6984 H   0  0  0  0  0  0  0  0  0  0  0  0
    3.0865   -3.1512    2.3026 H   0  0  0  0  0  0  0  0  0  0  0  0
    0.8852   -1.0510   -0.3667 H   0  0  0  0  0  0  0  0  0  0  0  0
    0.6341   -3.2463   -0.8024 H   0  0  0  0  0  0  0  0  0  0  0  0
   -1.9614   -4.2897    0.4715 H   0  0  0  0  0  0  0  0  0  0  0  0
   -0.3361   -4.9587    0.6229 H   0  0  0  0  0  0  0  0  0  0  0  0
    0.6673   -6.3297   -1.1826 H   0  0  0  0  0  0  0  0  0  0  0  0
   -0.7181   -7.1548   -0.3791 H   0  0  0  0  0  0  0  0  0  0  0  0
   -0.5615   -7.2181   -2.1629 H   0  0  0  0  0  0  0  0  0  0  0  0
   -4.5632   -5.0990   -1.3677 H   0  0  0  0  0  0  0  0  0  0  0  0
   -3.6652   -4.5756   -2.8144 H   0  0  0  0  0  0  0  0  0  0  0  0
   -3.3787   -3.7867   -1.1988 H   0  0  0  0  0  0  0  0  0  0  0  0
    0.3155   -4.6152   -2.7494 H   0  0  0  0  0  0  0  0  0  0  0  0
   -0.7944   -5.8569   -4.1039 H   0  0  0  0  0  0  0  0  0  0  0  0
   -2.0879   -2.8302   -3.1451 H   0  0  0  0  0  0  0  0  0  0  0  0
   -0.0530   -2.5788   -4.5210 H   0  0  0  0  0  0  0  0  0  0  0  0
   -0.3921   -1.1225   -3.5130 H   0  0  0  0  0  0  0  0  0  0  0  0
    0.9224   -2.2580   -3.0314 H   0  0  0  0  0  0  0  0  0  0  0  0
    0.6619    0.7909    1.4605 H   0  0  0  0  0  0  0  0  0  0  0  0
   -1.7964   -0.8139    2.3271 H   0  0  0  0  0  0  0  0  0  0  0  0
   -1.2611    0.8014    2.9309 H   0  0  0  0  0  0  0  0  0  0  0  0
   -0.2813   -0.6491    3.2711 H   0  0  0  0  0  0  0  0  0  0  0  0
   -1.1899   -0.0006   -0.7119 H   0  0  0  0  0  0  0  0  0  0  0  0
   -3.1511    0.5631   -1.1966 H   0  0  0  0  0  0  0  0  0  0  0  0
   -5.5477    3.3770    0.3148 H   0  0  0  0  0  0  0  0  0  0  0  0
   -3.5316    3.4705    1.7985 H   0  0  0  0  0  0  0  0  0  0  0  0
   -5.1016    3.2524    2.6512 H   0  0  0  0  0  0  0  0  0  0  0  0
   -3.9867    1.8574    2.4748 H   0  0  0  0  0  0  0  0  0  0  0  0
   -6.4753    1.2804    1.8235 H   0  0  0  0  0  0  0  0  0  0  0  0
   -7.0569    1.7394    0.1953 H   0  0  0  0  0  0  0  0  0  0  0  0
   -5.9518   -0.0249   -0.9040 H   0  0  0  0  0  0  0  0  0  0  0  0
   -4.1253   -0.2750    1.5602 H   0  0  0  0  0  0  0  0  0  0  0  0
   -3.0619   -1.7600    0.4285 H   0  0  0  0  0  0  0  0  0  0  0  0
   -8.4471    0.0994    1.0156 H   0  0  0  0  0  0  0  0  0  0  0  0
   -8.2608   -0.7691   -0.5678 H   0  0  0  0  0  0  0  0  0  0  0  0
   -8.7302   -1.6351    0.9507 H   0  0  0  0  0  0  0  0  0  0  0  0
   -7.1387   -3.1677    0.6624 H   0  0  0  0  0  0  0  0  0  0  0  0
   -6.1467   -2.5034   -0.6866 H   0  0  0  0  0  0  0  0  0  0  0  0
   -5.4499   -2.8169    0.9768 H   0  0  0  0  0  0  0  0  0  0  0  0
    0.0422    4.1104   -0.0276 H   0  0  0  0  0  0  0  0  0  0  0  0
    0.7800    2.9108    1.0706 H   0  0  0  0  0  0  0  0  0  0  0  0
   -0.9806    3.2473    1.1369 H   0  0  0  0  0  0  0  0  0  0  0  0
   -1.4762    1.9054   -2.2322 H   0  0  0  0  0  0  0  0  0  0  0  0
    1.5586    1.0230   -0.7084 H   0  0  0  0  0  0  0  0  0  0  0  0
    0.6115    0.9030   -2.1800 H   0  0  0  0  0  0  0  0  0  0  0  0
    2.4401    2.1533   -2.7352 H   0  0  0  0  0  0  0  0  0  0  0  0
    1.7564    4.3456   -3.4477 H   0  0  0  0  0  0  0  0  0  0  0  0
    0.4154    4.4018   -2.2569 H   0  0  0  0  0  0  0  0  0  0  0  0
    0.3853    3.1956   -3.6034 H   0  0  0  0  0  0  0  0  0  0  0  0
    2.3150    4.3610   -0.6615 H   0  0  0  0  0  0  0  0  0  0  0  0
    2.8164    2.7743   -0.0779 H   0  0  0  0  0  0  0  0  0  0  0  0
    4.5436    5.4711   -0.6918 H   0  0  0  0  0  0  0  0  0  0  0  0
    3.7912    5.5341   -2.3227 H   0  0  0  0  0  0  0  0  0  0  0  0
    5.5065    5.0604   -2.1669 H   0  0  0  0  0  0  0  0  0  0  0  0
    6.0769    2.9130   -1.6475 H   0  0  0  0  0  0  0  0  0  0  0  0
    5.7725    0.5886   -1.6039 H   0  0  0  0  0  0  0  0  0  0  0  0
    4.6302    1.3085   -2.7354 H   0  0  0  0  0  0  0  0  0  0  0  0
    4.0127    0.7625   -1.1545 H   0  0  0  0  0  0  0  0  0  0  0  0
    6.5833    3.1078    0.3956 H   0  0  0  0  0  0  0  0  0  0  0  0
    5.4134    4.3513    1.6071 H   0  0  0  0  0  0  0  0  0  0  0  0
    7.6275    1.8545    2.1067 H   0  0  0  0  0  0  0  0  0  0  0  0
    6.4189    2.7813    3.0407 H   0  0  0  0  0  0  0  0  0  0  0  0
    6.6096    1.0130    3.3126 H   0  0  0  0  0  0  0  0  0  0  0  0
    6.1659   -0.3622    1.3361 H   0  0  0  0  0  0  0  0  0  0  0  0
  1  2  1  0
  2  3  1  0
  3  4  1  0
  4  5  1  0
  5  6  2  0
  5  7  1  0
  7  8  1  0
  7  9  1  0
  9 10  1  0
 10 11  1  0
 11 12  1  0
 12 13  1  0
 13 14  1  0
 13 15  1  6
 15 16  1  0
 13 17  1  0
 17 18  1  0
 17 19  1  0
 19 20  1  0
 19 21  1  0
  9 22  1  0
 22 23  1  0
 22 24  1  0
 24 25  1  0
 25 26  1  0
 26 27  1  0
 27 28  1  0
 28 29  1  0
 28 30  1  0
 30 31  1  0
 31 32  1  0
 32 33  1  0
 31 34  1  0
 34 35  1  0
 34 36  1  0
 24 37  1  0
 37 38  1  0
 37 39  1  6
 37 40  1  0
 40 41  1  0
 41 42  1  0
 41 43  1  0
 43 44  1  0
 44 45  1  0
 44 46  1  0
 46 47  1  0
 46 48  1  0
 48 49  1  0
 48 50  1  0
 50 51  1  0
 50 52  1  6
 50  3  1  0
 21 11  1  0
 32 26  1  0
  1 53  1  0
  1 54  1  0
  1 55  1  0
  2 56  1  0
  2 57  1  0
  3 58  1  1
  7 59  1  1
  8 60  1  0
  8 61  1  0
  8 62  1  0
  9 63  1  6
 11 64  1  6
 12 65  1  0
 12 66  1  0
 14 67  1  0
 14 68  1  0
 14 69  1  0
 16 70  1  0
 16 71  1  0
 16 72  1  0
 17 73  1  6
 18 74  1  0
 19 75  1  6
 20 76  1  0
 20 77  1  0
 20 78  1  0
 22 79  1  1
 23 80  1  0
 23 81  1  0
 23 82  1  0
 24 83  1  6
 26 84  1  6
 28 85  1  6
 29 86  1  0
 29 87  1  0
 29 88  1  0
 30 89  1  0
 30 90  1  0
 31 91  1  6
 32 92  1  1
 33 93  1  0
 35 94  1  0
 35 95  1  0
 35 96  1  0
 36 97  1  0
 36 98  1  0
 36 99  1  0
 38100  1  0
 38101  1  0
 38102  1  0
 39103  1  0
 40104  1  0
 40105  1  0
 41106  1  6
 42107  1  0
 42108  1  0
 42109  1  0
 43110  1  0
 43111  1  0
 45112  1  0
 45113  1  0
 45114  1  0
 46115  1  6
 47116  1  0
 47117  1  0
 47118  1  0
 48119  1  6
 49120  1  0
 51121  1  0
 51122  1  0
 51123  1  0
 52124  1  0
M  END
$$$$
