
     RDKit          3D

 39 41  0  0  0  0  0  0  0  0999 V2000
   -3.0794   -0.6422   -0.2897 C   0  0  1  0  0  0  0  0  0  0  0  0
   -3.8449   -0.5075   -1.6143 C   0  0  0  0  0  0  0  0  0  0  0  0
   -5.2250   -0.6589   -1.4147 O   0  0  0  0  0  0  0  0  0  0  0  0
   -1.6960   -0.5096   -0.5541 O   0  0  0  0  0  0  0  0  0  0  0  0
   -0.9354   -0.9777    0.5492 C   0  0  1  0  0  0  0  0  0  0  0  0
    0.5215   -0.7132    0.2892 C   0  0  0  0  0  0  0  0  0  0  0  0
    1.5110   -1.4549    0.8561 N   0  0  0  0  0  0  0  0  0  0  0  0
    2.6273   -0.8502    0.4127 C   0  0  0  0  0  0  0  0  0  0  0  0
    2.3109    0.2134   -0.3764 C   0  0  0  0  0  0  0  0  0  0  0  0
    0.9799    0.3204   -0.4625 N   0  0  0  0  0  0  0  0  0  0  0  0
    3.2828    1.0246   -0.9563 C   0  0  0  0  0  0  0  0  0  0  0  0
    4.6371    0.7035   -0.7132 C   0  0  0  0  0  0  0  0  0  0  0  0
    5.7259    1.5650   -1.2788 C   0  0  0  0  0  0  0  0  0  0  0  0
    4.9624   -0.3967    0.1228 C   0  0  0  0  0  0  0  0  0  0  0  0
    3.9478   -1.1901    0.6913 C   0  0  0  0  0  0  0  0  0  0  0  0
   -1.3719   -0.3372    1.9071 C   0  0  2  0  0  0  0  0  0  0  0  0
   -1.9707   -1.3151    2.7197 O   0  0  0  0  0  0  0  0  0  0  0  0
   -2.3770    0.8159    1.7036 C   0  0  1  0  0  0  0  0  0  0  0  0
   -1.7144    1.9783    1.2658 O   0  0  0  0  0  0  0  0  0  0  0  0
   -3.5323    0.4269    0.7394 C   0  0  2  0  0  0  0  0  0  0  0  0
   -4.6185   -0.0816    1.4726 O   0  0  0  0  0  0  0  0  0  0  0  0
   -3.2994   -1.6635    0.1066 H   0  0  0  0  0  0  0  0  0  0  0  0
   -3.6541    0.4925   -2.0596 H   0  0  0  0  0  0  0  0  0  0  0  0
   -3.4781   -1.2696   -2.3394 H   0  0  0  0  0  0  0  0  0  0  0  0
   -5.3868   -1.6279   -1.2715 H   0  0  0  0  0  0  0  0  0  0  0  0
   -1.0415   -2.0860    0.6053 H   0  0  0  0  0  0  0  0  0  0  0  0
    0.4304    1.0367   -0.9868 H   0  0  0  0  0  0  0  0  0  0  0  0
    3.0022    1.8714   -1.5704 H   0  0  0  0  0  0  0  0  0  0  0  0
    6.6397    0.9634   -1.4710 H   0  0  0  0  0  0  0  0  0  0  0  0
    5.9688    2.3732   -0.5579 H   0  0  0  0  0  0  0  0  0  0  0  0
    5.4057    2.0206   -2.2400 H   0  0  0  0  0  0  0  0  0  0  0  0
    5.9977   -0.6351    0.3322 H   0  0  0  0  0  0  0  0  0  0  0  0
    4.1873   -2.0318    1.3281 H   0  0  0  0  0  0  0  0  0  0  0  0
   -0.4921    0.0827    2.4526 H   0  0  0  0  0  0  0  0  0  0  0  0
   -1.2371   -1.8877    3.0665 H   0  0  0  0  0  0  0  0  0  0  0  0
   -2.8120    1.0647    2.6971 H   0  0  0  0  0  0  0  0  0  0  0  0
   -1.4299    1.8385    0.3270 H   0  0  0  0  0  0  0  0  0  0  0  0
   -3.8574    1.3479    0.1981 H   0  0  0  0  0  0  0  0  0  0  0  0
   -5.0846    0.6967    1.8766 H   0  0  0  0  0  0  0  0  0  0  0  0
  1  2  1  0
  2  3  1  0
  1  4  1  0
  4  5  1  0
  5  6  1  0
  6  7  2  0
  7  8  1  0
  8  9  2  0
  9 10  1  0
  9 11  1  0
 11 12  2  0
 12 13  1  0
 12 14  1  0
 14 15  2  0
  5 16  1  0
 16 17  1  0
 16 18  1  0
 18 19  1  0
 18 20  1  0
 20 21  1  0
 20  1  1  0
 10  6  1  0
 15  8  1  0
  1 22  1  1
  2 23  1  0
  2 24  1  0
  3 25  1  0
  5 26  1  1
 10 27  1  0
 11 28  1  0
 13 29  1  0
 13 30  1  0
 13 31  1  0
 14 32  1  0
 15 33  1  0
 16 34  1  1
 17 35  1  0
 18 36  1  1
 19 37  1  0
 20 38  1  6
 21 39  1  0
M  END
$$$$
