
     RDKit          3D

 33 35  0  0  0  0  0  0  0  0999 V2000
   -5.0623   -2.3777    0.6923 O   0  0  0  0  0  0  0  0  0  0  0  0
   -4.1986   -1.3095    0.4605 C   0  0  0  0  0  0  0  0  0  0  0  0
   -4.7244   -0.0353    0.2361 C   0  0  0  0  0  0  0  0  0  0  0  0
   -3.8769    1.0576    0.0012 C   0  0  0  0  0  0  0  0  0  0  0  0
   -4.4333    2.3184   -0.2185 O   0  0  0  0  0  0  0  0  0  0  0  0
   -2.4737    0.8683   -0.0097 C   0  0  0  0  0  0  0  0  0  0  0  0
   -1.9519   -0.4270    0.2165 C   0  0  0  0  0  0  0  0  0  0  0  0
   -0.6409   -0.6388    0.2071 O   0  0  0  0  0  0  0  0  0  0  0  0
    0.2531    0.3212   -0.0114 C   0  0  0  0  0  0  0  0  0  0  0  0
   -0.1787    1.6452   -0.2205 C   0  0  0  0  0  0  0  0  0  0  0  0
    0.7525    2.6736   -0.3864 O   0  0  0  0  0  0  0  0  0  0  0  0
   -1.5559    1.9160   -0.2292 C   0  0  0  0  0  0  0  0  0  0  0  0
   -1.9549    3.0961   -0.4264 O   0  0  0  0  0  0  0  0  0  0  0  0
    1.6874   -0.0469   -0.0070 C   0  0  0  0  0  0  0  0  0  0  0  0
    2.5738    0.4529   -0.9765 C   0  0  0  0  0  0  0  0  0  0  0  0
    3.9237    0.0743   -0.9702 C   0  0  0  0  0  0  0  0  0  0  0  0
    4.7964    0.5809   -1.9323 O   0  0  0  0  0  0  0  0  0  0  0  0
    4.3949   -0.8212    0.0046 C   0  0  0  0  0  0  0  0  0  0  0  0
    5.7347   -1.2093    0.0339 O   0  0  0  0  0  0  0  0  0  0  0  0
    3.5117   -1.3390    0.9604 C   0  0  0  0  0  0  0  0  0  0  0  0
    3.9819   -2.2335    1.9204 O   0  0  0  0  0  0  0  0  0  0  0  0
    2.1630   -0.9583    0.9482 C   0  0  0  0  0  0  0  0  0  0  0  0
   -2.8134   -1.5028    0.4503 C   0  0  0  0  0  0  0  0  0  0  0  0
   -4.7136   -3.3146    0.8583 H   0  0  0  0  0  0  0  0  0  0  0  0
   -5.7980    0.1058    0.2453 H   0  0  0  0  0  0  0  0  0  0  0  0
   -5.4358    2.4669   -0.2131 H   0  0  0  0  0  0  0  0  0  0  0  0
    0.4766    3.6376   -0.5296 H   0  0  0  0  0  0  0  0  0  0  0  0
    2.2164    1.1163   -1.7537 H   0  0  0  0  0  0  0  0  0  0  0  0
    4.4824    1.2273   -2.6467 H   0  0  0  0  0  0  0  0  0  0  0  0
    6.4109   -0.8629   -0.6361 H   0  0  0  0  0  0  0  0  0  0  0  0
    3.3687   -2.6262    2.6252 H   0  0  0  0  0  0  0  0  0  0  0  0
    1.4888   -1.3647    1.6927 H   0  0  0  0  0  0  0  0  0  0  0  0
   -2.4043   -2.4907    0.6229 H   0  0  0  0  0  0  0  0  0  0  0  0
  1  2  1  0
  2  3  2  0
  3  4  1  0
  4  5  1  0
  4  6  2  0
  6  7  1  0
  7  8  1  0
  8  9  1  0
  9 10  2  0
 10 11  1  0
 10 12  1  0
 12 13  2  0
  9 14  1  0
 14 15  2  0
 15 16  1  0
 16 17  1  0
 16 18  2  0
 18 19  1  0
 18 20  1  0
 20 21  1  0
 20 22  2  0
  7 23  2  0
 23  2  1  0
 12  6  1  0
 22 14  1  0
  1 24  1  0
  3 25  1  0
  5 26  1  0
 11 27  1  0
 15 28  1  0
 17 29  1  0
 19 30  1  0
 21 31  1  0
 22 32  1  0
 23 33  1  0
M  END
$$$$
