
     RDKit          3D

 85 86  0  0  0  0  0  0  0  0999 V2000
   -2.2687    2.1264   -1.1100 C   0  0  0  0  0  0  0  0  0  0  0  0
   -2.7717    0.8874   -0.9931 C   0  0  0  0  0  0  0  0  0  0  0  0
   -3.0276    0.1706    0.3232 C   0  0  2  0  0  0  0  0  0  0  0  0
   -1.8269    0.0711    1.0701 O   0  0  0  0  0  0  0  0  0  0  0  0
   -2.0870    0.1599    2.4590 C   0  0  0  0  0  0  0  0  0  0  0  0
   -3.6543   -1.2577    0.1491 C   0  0  1  0  0  0  0  0  0  0  0  0
   -5.0499   -1.2352    0.4972 O   0  0  0  0  0  0  0  0  0  0  0  0
   -6.0430   -0.4195   -0.0693 C   0  0  0  0  0  0  0  0  0  0  0  0
   -7.3473   -0.5274    0.4069 O   0  0  0  0  0  0  0  0  0  0  0  0
   -5.7646    0.4177   -1.0179 N   0  0  0  0  0  0  0  0  0  0  0  0
   -3.3994   -2.0117   -1.1724 C   0  0  0  0  0  0  0  0  0  0  0  0
   -4.5965   -2.4661   -1.9872 C   0  0  0  0  0  0  0  0  0  0  0  0
   -2.1694   -2.3470   -1.6598 C   0  0  0  0  0  0  0  0  0  0  0  0
   -0.7871   -2.0298   -1.0897 C   0  0  2  0  0  0  0  0  0  0  0  0
    0.2487   -2.2244   -2.2168 C   0  0  0  0  0  0  0  0  0  0  0  0
   -0.4674   -2.9088    0.1598 C   0  0  1  0  0  0  0  0  0  0  0  0
   -0.7033   -4.2603   -0.1498 O   0  0  0  0  0  0  0  0  0  0  0  0
    0.9593   -2.7538    0.7746 C   0  0  2  0  0  0  0  0  0  0  0  0
    1.3468   -1.2750    1.0157 C   0  0  0  0  0  0  0  0  0  0  0  0
    2.5369   -1.1007    2.0026 C   0  0  2  0  0  0  0  0  0  0  0  0
    2.0437   -1.1692    3.4592 C   0  0  0  0  0  0  0  0  0  0  0  0
    3.4002    0.1852    1.7810 C   0  0  0  0  0  0  0  0  0  0  0  0
    2.7662    1.2795    0.9346 C   0  0  0  0  0  0  0  0  0  0  0  0
    3.0240    1.3813   -0.3947 C   0  0  0  0  0  0  0  0  0  0  0  0
    3.8737    0.4237   -1.0560 N   0  0  0  0  0  0  0  0  0  0  0  0
    4.8577    0.8058   -2.0672 C   0  0  0  0  0  0  0  0  0  0  0  0
    6.1366    0.0438   -1.8645 C   0  0  0  0  0  0  0  0  0  0  0  0
    7.1678    0.1998   -2.6977 C   0  0  0  0  0  0  0  0  0  0  0  0
    2.3885    2.4688   -1.1807 C   0  0  0  0  0  0  0  0  0  0  0  0
    2.5318    2.5271   -2.4307 O   0  0  0  0  0  0  0  0  0  0  0  0
    1.5579    3.4773   -0.5101 C   0  0  0  0  0  0  0  0  0  0  0  0
    1.2867    3.3837    0.7985 C   0  0  0  0  0  0  0  0  0  0  0  0
    0.4968    4.3919    1.4569 N   0  0  0  0  0  0  0  0  0  0  0  0
   -0.6628    4.8418    1.0564 C   0  0  0  0  0  0  0  0  0  0  0  0
   -1.2389    5.9230    1.7164 O   0  0  0  0  0  0  0  0  0  0  0  0
   -1.4078    4.2178   -0.0614 C   0  0  0  0  0  0  0  0  0  0  0  0
   -1.8031    5.0684   -1.2370 C   0  0  0  0  0  0  0  0  0  0  0  0
   -1.7044    2.9087    0.0117 C   0  0  0  0  0  0  0  0  0  0  0  0
    1.8766    2.2813    1.5875 C   0  0  0  0  0  0  0  0  0  0  0  0
    1.6219    2.1986    2.8189 O   0  0  0  0  0  0  0  0  0  0  0  0
    1.9292   -3.3515   -0.0756 O   0  0  0  0  0  0  0  0  0  0  0  0
    2.4367   -4.5445    0.4821 C   0  0  0  0  0  0  0  0  0  0  0  0
   -2.2352    2.5527   -2.1048 H   0  0  0  0  0  0  0  0  0  0  0  0
   -3.1041    0.4244   -1.9126 H   0  0  0  0  0  0  0  0  0  0  0  0
   -3.7678    0.8187    0.8527 H   0  0  0  0  0  0  0  0  0  0  0  0
   -2.4666    1.1690    2.7305 H   0  0  0  0  0  0  0  0  0  0  0  0
   -2.8052   -0.6184    2.7963 H   0  0  0  0  0  0  0  0  0  0  0  0
   -1.1396    0.0029    3.0122 H   0  0  0  0  0  0  0  0  0  0  0  0
   -3.2132   -1.9110    0.9228 H   0  0  0  0  0  0  0  0  0  0  0  0
   -8.0983    0.0384    0.0291 H   0  0  0  0  0  0  0  0  0  0  0  0
   -6.4982    1.0260   -1.4442 H   0  0  0  0  0  0  0  0  0  0  0  0
   -5.3915   -2.8729   -1.3290 H   0  0  0  0  0  0  0  0  0  0  0  0
   -4.9943   -1.6135   -2.5740 H   0  0  0  0  0  0  0  0  0  0  0  0
   -4.3421   -3.2811   -2.6985 H   0  0  0  0  0  0  0  0  0  0  0  0
   -2.1537   -2.8936   -2.6013 H   0  0  0  0  0  0  0  0  0  0  0  0
   -0.7456   -0.9593   -0.8236 H   0  0  0  0  0  0  0  0  0  0  0  0
   -0.0705   -1.6743   -3.1286 H   0  0  0  0  0  0  0  0  0  0  0  0
    1.2407   -1.8183   -1.9419 H   0  0  0  0  0  0  0  0  0  0  0  0
    0.3565   -3.3002   -2.4730 H   0  0  0  0  0  0  0  0  0  0  0  0
   -1.1702   -2.6009    0.9610 H   0  0  0  0  0  0  0  0  0  0  0  0
   -0.8744   -4.7308    0.7079 H   0  0  0  0  0  0  0  0  0  0  0  0
    0.9046   -3.2433    1.7768 H   0  0  0  0  0  0  0  0  0  0  0  0
    0.4810   -0.7106    1.4048 H   0  0  0  0  0  0  0  0  0  0  0  0
    1.5924   -0.8353    0.0353 H   0  0  0  0  0  0  0  0  0  0  0  0
    3.2265   -1.9617    1.8634 H   0  0  0  0  0  0  0  0  0  0  0  0
    1.3657   -0.3195    3.6832 H   0  0  0  0  0  0  0  0  0  0  0  0
    2.9061   -1.1321    4.1587 H   0  0  0  0  0  0  0  0  0  0  0  0
    1.4998   -2.1156    3.6541 H   0  0  0  0  0  0  0  0  0  0  0  0
    4.3780   -0.1119    1.3444 H   0  0  0  0  0  0  0  0  0  0  0  0
    3.6946    0.6300    2.7567 H   0  0  0  0  0  0  0  0  0  0  0  0
    3.7524   -0.5938   -0.8491 H   0  0  0  0  0  0  0  0  0  0  0  0
    5.0789    1.8934   -1.9990 H   0  0  0  0  0  0  0  0  0  0  0  0
    4.4472    0.5800   -3.0746 H   0  0  0  0  0  0  0  0  0  0  0  0
    6.2346   -0.6421   -1.0273 H   0  0  0  0  0  0  0  0  0  0  0  0
    7.1046    0.8792   -3.5426 H   0  0  0  0  0  0  0  0  0  0  0  0
    8.0858   -0.3558   -2.5362 H   0  0  0  0  0  0  0  0  0  0  0  0
    1.1715    4.3052   -1.0913 H   0  0  0  0  0  0  0  0  0  0  0  0
   -0.7685    6.3732    2.4927 H   0  0  0  0  0  0  0  0  0  0  0  0
   -1.6059    6.1420   -1.0323 H   0  0  0  0  0  0  0  0  0  0  0  0
   -1.2155    4.7720   -2.1310 H   0  0  0  0  0  0  0  0  0  0  0  0
   -2.8871    4.9499   -1.4479 H   0  0  0  0  0  0  0  0  0  0  0  0
   -1.4469    2.3993    0.9247 H   0  0  0  0  0  0  0  0  0  0  0  0
    2.9735   -4.3431    1.4347 H   0  0  0  0  0  0  0  0  0  0  0  0
    1.6283   -5.2897    0.6453 H   0  0  0  0  0  0  0  0  0  0  0  0
    3.1645   -4.9858   -0.2290 H   0  0  0  0  0  0  0  0  0  0  0  0
  1  2  2  0
  2  3  1  0
  3  4  1  0
  4  5  1  0
  3  6  1  0
  6  7  1  0
  7  8  1  0
  8  9  1  0
  8 10  2  3
  6 11  1  0
 11 12  1  0
 11 13  2  3
 13 14  1  0
 14 15  1  0
 14 16  1  0
 16 17  1  0
 16 18  1  0
 18 19  1  0
 19 20  1  0
 20 21  1  0
 20 22  1  0
 22 23  1  0
 23 24  2  0
 24 25  1  0
 25 26  1  0
 26 27  1  0
 27 28  2  3
 24 29  1  0
 29 30  2  0
 29 31  1  0
 31 32  2  0
 32 33  1  0
 33 34  2  0
 34 35  1  0
 34 36  1  0
 36 37  1  0
 36 38  2  0
 32 39  1  0
 39 40  2  0
 18 41  1  0
 41 42  1  0
 38  1  1  0
 39 23  1  0
  1 43  1  0
  2 44  1  0
  3 45  1  1
  5 46  1  0
  5 47  1  0
  5 48  1  0
  6 49  1  1
  9 50  1  0
 10 51  1  0
 12 52  1  0
 12 53  1  0
 12 54  1  0
 13 55  1  0
 14 56  1  1
 15 57  1  0
 15 58  1  0
 15 59  1  0
 16 60  1  1
 17 61  1  0
 18 62  1  1
 19 63  1  0
 19 64  1  0
 20 65  1  1
 21 66  1  0
 21 67  1  0
 21 68  1  0
 22 69  1  0
 22 70  1  0
 25 71  1  0
 26 72  1  0
 26 73  1  0
 27 74  1  0
 28 75  1  0
 28 76  1  0
 31 77  1  0
 35 78  1  0
 37 79  1  0
 37 80  1  0
 37 81  1  0
 38 82  1  0
 42 83  1  0
 42 84  1  0
 42 85  1  0
M  END
$$$$
