
     RDKit          3D

 37 37  0  0  0  0  0  0  0  0999 V2000
   -1.2447    1.2150   -1.7939 C   0  0  0  0  0  0  0  0  0  0  0  0
   -0.9390    1.8499   -0.4221 C   0  0  0  0  0  0  0  0  0  0  0  0
    0.4899    1.7396   -0.0735 N   0  0  0  0  0  0  0  0  0  0  0  0
    1.2954    0.5473   -0.1126 C   0  0  0  0  0  0  0  0  0  0  0  0
    2.6427    0.6198    0.3786 N   0  0  0  0  0  0  0  0  0  0  0  0
    3.7208    0.1289   -0.3740 C   0  0  0  0  0  0  0  0  0  0  0  0
    4.6095   -0.2764   -0.9945 N   0  0  0  0  0  0  0  0  0  0  0  0
    0.8106   -0.5512   -0.6219 N   0  0  0  0  0  0  0  0  0  0  0  0
    1.4092   -1.8552   -0.6170 C   0  0  0  0  0  0  0  0  0  0  0  0
    2.0389   -2.3706    0.5280 C   0  0  0  0  0  0  0  0  0  0  0  0
    2.5597   -3.6665    0.5000 C   0  0  0  0  0  0  0  0  0  0  0  0
    2.4336   -4.4282   -0.6192 N   0  0  0  0  0  0  0  0  0  0  0  0
    1.8016   -3.9632   -1.7295 C   0  0  0  0  0  0  0  0  0  0  0  0
    1.2665   -2.6727   -1.7426 C   0  0  0  0  0  0  0  0  0  0  0  0
   -1.8820    1.4030    0.7551 C   0  0  0  0  0  0  0  0  0  0  0  0
   -1.5890    2.2780    1.9953 C   0  0  0  0  0  0  0  0  0  0  0  0
   -3.3615    1.6182    0.3613 C   0  0  0  0  0  0  0  0  0  0  0  0
   -1.6918   -0.0776    1.1534 C   0  0  0  0  0  0  0  0  0  0  0  0
   -0.4286    1.4497   -2.5101 H   0  0  0  0  0  0  0  0  0  0  0  0
   -1.3616    0.1159   -1.7359 H   0  0  0  0  0  0  0  0  0  0  0  0
   -2.1831    1.6372   -2.2114 H   0  0  0  0  0  0  0  0  0  0  0  0
   -1.1353    2.9365   -0.5747 H   0  0  0  0  0  0  0  0  0  0  0  0
    0.9705    2.6223    0.2139 H   0  0  0  0  0  0  0  0  0  0  0  0
    2.8621    1.3168    1.1241 H   0  0  0  0  0  0  0  0  0  0  0  0
    2.1134   -1.7837    1.4342 H   0  0  0  0  0  0  0  0  0  0  0  0
    3.0558   -4.0706    1.3723 H   0  0  0  0  0  0  0  0  0  0  0  0
    1.7095   -4.5972   -2.6012 H   0  0  0  0  0  0  0  0  0  0  0  0
    0.7541   -2.3079   -2.6240 H   0  0  0  0  0  0  0  0  0  0  0  0
   -0.5445    2.1342    2.3458 H   0  0  0  0  0  0  0  0  0  0  0  0
   -1.7333    3.3548    1.7608 H   0  0  0  0  0  0  0  0  0  0  0  0
   -2.2676    2.0139    2.8355 H   0  0  0  0  0  0  0  0  0  0  0  0
   -3.6614    0.9279   -0.4555 H   0  0  0  0  0  0  0  0  0  0  0  0
   -3.5306    2.6631    0.0225 H   0  0  0  0  0  0  0  0  0  0  0  0
   -4.0333    1.4225    1.2252 H   0  0  0  0  0  0  0  0  0  0  0  0
   -0.6796   -0.2551    1.5710 H   0  0  0  0  0  0  0  0  0  0  0  0
   -1.8563   -0.7571    0.2930 H   0  0  0  0  0  0  0  0  0  0  0  0
   -2.4206   -0.3613    1.9434 H   0  0  0  0  0  0  0  0  0  0  0  0
  1  2  1  0
  2  3  1  0
  3  4  1  0
  4  5  1  0
  5  6  1  0
  6  7  3  0
  4  8  2  0
  8  9  1  0
  9 10  2  0
 10 11  1  0
 11 12  2  0
 12 13  1  0
 13 14  2  0
  2 15  1  0
 15 16  1  0
 15 17  1  0
 15 18  1  0
 14  9  1  0
  1 19  1  0
  1 20  1  0
  1 21  1  0
  2 22  1  0
  3 23  1  0
  5 24  1  0
 10 25  1  0
 11 26  1  0
 13 27  1  0
 14 28  1  0
 16 29  1  0
 16 30  1  0
 16 31  1  0
 17 32  1  0
 17 33  1  0
 17 34  1  0
 18 35  1  0
 18 36  1  0
 18 37  1  0
M  END
$$$$
