
     RDKit          3D

 54 54  0  0  0  0  0  0  0  0999 V2000
   -4.6144   -2.8354   -1.3916 C   0  0  2  0  0  0  0  0  0  0  0  0
   -5.4997   -3.8066   -0.6068 C   0  0  0  0  0  0  0  0  0  0  0  0
   -3.7837   -2.0429   -0.4802 N   0  0  0  0  0  0  0  0  0  0  0  0
   -2.6635   -1.2751   -0.9446 C   0  0  0  0  0  0  0  0  0  0  0  0
   -2.3661   -1.2664   -2.1709 O   0  0  0  0  0  0  0  0  0  0  0  0
   -1.8777   -0.4297    0.0201 C   0  0  2  0  0  0  0  0  0  0  0  0
   -2.4071    1.0142    0.0086 C   0  0  0  0  0  0  0  0  0  0  0  0
   -1.6567    1.8752    0.9930 C   0  0  0  0  0  0  0  0  0  0  0  0
   -1.9861    1.8392    2.3582 C   0  0  0  0  0  0  0  0  0  0  0  0
   -1.2564    2.5975    3.2790 C   0  0  0  0  0  0  0  0  0  0  0  0
   -0.1896    3.3895    2.8456 C   0  0  0  0  0  0  0  0  0  0  0  0
    0.1496    3.4245    1.4904 C   0  0  0  0  0  0  0  0  0  0  0  0
   -0.5786    2.6696    0.5661 C   0  0  0  0  0  0  0  0  0  0  0  0
   -0.4559   -0.4555   -0.3366 N   0  0  0  0  0  0  0  0  0  0  0  0
    0.4972   -1.2937    0.3356 C   0  0  0  0  0  0  0  0  0  0  0  0
    0.1040   -2.1702    1.1527 O   0  0  0  0  0  0  0  0  0  0  0  0
    1.9717   -1.1521    0.0636 C   0  0  1  0  0  0  0  0  0  0  0  0
    2.3479   -1.8784   -1.5721 S   0  0  0  0  0  0  0  0  0  0  0  0
    2.4192    0.3265    0.1616 C   0  0  0  0  0  0  0  0  0  0  0  0
    3.8811    0.5108    0.6065 C   0  0  0  0  0  0  0  0  0  0  0  0
    4.8978    0.0484   -0.4493 C   0  0  0  0  0  0  0  0  0  0  0  0
    6.3453    0.3891   -0.0608 C   0  0  0  0  0  0  0  0  0  0  0  0
    6.6773    1.8691   -0.2528 C   0  0  0  0  0  0  0  0  0  0  0  0
   -5.4656   -1.9301   -2.2345 C   0  0  0  0  0  0  0  0  0  0  0  0
   -5.5406   -2.1338   -3.6087 O   0  0  0  0  0  0  0  0  0  0  0  0
   -6.1309   -1.0023   -1.6995 O   0  0  0  0  0  0  0  0  0  0  0  0
   -3.9534   -3.4389   -2.0524 H   0  0  0  0  0  0  0  0  0  0  0  0
   -6.1041   -4.4240   -1.3056 H   0  0  0  0  0  0  0  0  0  0  0  0
   -4.8657   -4.4860    0.0018 H   0  0  0  0  0  0  0  0  0  0  0  0
   -6.1849   -3.2537    0.0716 H   0  0  0  0  0  0  0  0  0  0  0  0
   -4.0188   -2.0166    0.5385 H   0  0  0  0  0  0  0  0  0  0  0  0
   -2.0153   -0.8359    1.0468 H   0  0  0  0  0  0  0  0  0  0  0  0
   -2.3232    1.4418   -1.0154 H   0  0  0  0  0  0  0  0  0  0  0  0
   -3.4880    1.0149    0.2728 H   0  0  0  0  0  0  0  0  0  0  0  0
   -2.8025    1.2195    2.7081 H   0  0  0  0  0  0  0  0  0  0  0  0
   -1.5147    2.5669    4.3296 H   0  0  0  0  0  0  0  0  0  0  0  0
    0.3766    3.9728    3.5602 H   0  0  0  0  0  0  0  0  0  0  0  0
    0.9810    4.0319    1.1567 H   0  0  0  0  0  0  0  0  0  0  0  0
   -0.2957    2.6962   -0.4789 H   0  0  0  0  0  0  0  0  0  0  0  0
   -0.1338    0.1360   -1.1355 H   0  0  0  0  0  0  0  0  0  0  0  0
    2.5204   -1.7477    0.8260 H   0  0  0  0  0  0  0  0  0  0  0  0
    1.6205   -0.9255   -2.3079 H   0  0  0  0  0  0  0  0  0  0  0  0
    1.7935    0.8410    0.9247 H   0  0  0  0  0  0  0  0  0  0  0  0
    2.2461    0.8576   -0.7994 H   0  0  0  0  0  0  0  0  0  0  0  0
    4.0552   -0.0335    1.5604 H   0  0  0  0  0  0  0  0  0  0  0  0
    4.0284    1.5919    0.8104 H   0  0  0  0  0  0  0  0  0  0  0  0
    4.6566    0.4940   -1.4393 H   0  0  0  0  0  0  0  0  0  0  0  0
    4.8330   -1.0555   -0.5448 H   0  0  0  0  0  0  0  0  0  0  0  0
    6.5400    0.0956    0.9937 H   0  0  0  0  0  0  0  0  0  0  0  0
    7.0303   -0.2036   -0.7053 H   0  0  0  0  0  0  0  0  0  0  0  0
    7.7594    2.0308   -0.0636 H   0  0  0  0  0  0  0  0  0  0  0  0
    6.1062    2.4999    0.4586 H   0  0  0  0  0  0  0  0  0  0  0  0
    6.4509    2.1867   -1.2928 H   0  0  0  0  0  0  0  0  0  0  0  0
   -6.1165   -1.5380   -4.1914 H   0  0  0  0  0  0  0  0  0  0  0  0
  1  2  1  0
  1  3  1  0
  3  4  1  0
  4  5  2  0
  4  6  1  0
  6  7  1  0
  7  8  1  0
  8  9  2  0
  9 10  1  0
 10 11  2  0
 11 12  1  0
 12 13  2  0
  6 14  1  0
 14 15  1  0
 15 16  2  0
 15 17  1  0
 17 18  1  0
 17 19  1  0
 19 20  1  0
 20 21  1  0
 21 22  1  0
 22 23  1  0
  1 24  1  0
 24 25  1  0
 24 26  2  0
 13  8  1  0
  1 27  1  6
  2 28  1  0
  2 29  1  0
  2 30  1  0
  3 31  1  0
  6 32  1  1
  7 33  1  0
  7 34  1  0
  9 35  1  0
 10 36  1  0
 11 37  1  0
 12 38  1  0
 13 39  1  0
 14 40  1  0
 17 41  1  1
 18 42  1  0
 19 43  1  0
 19 44  1  0
 20 45  1  0
 20 46  1  0
 21 47  1  0
 21 48  1  0
 22 49  1  0
 22 50  1  0
 23 51  1  0
 23 52  1  0
 23 53  1  0
 25 54  1  0
M  END
$$$$
