
     RDKit          3D

 85 84  0  0  0  0  0  0  0  0999 V2000
    0.0111   -0.0012    0.2947 N   0  0  0  0  0  0  0  0  0  0  0  0
    0.0018    0.0116    0.2947 N   0  0  0  0  0  0  0  0  0  0  0  0
    0.6878    0.0000    0.0000 Cl  0  0  0  0  0  0  0  0  0  0  0  0
    0.0000    0.0000    0.0000 Pt  0  0  0  0  0 15  0  0  0  0  0  0
    3.8396    2.0892   -1.4879 C   0  0  0  0  0  0  0  0  0  0  0  0
    3.0463    0.7652   -1.3673 C   0  0  0  0  0  0  0  0  0  0  0  0
    3.5292   -0.0742   -0.1616 C   0  0  0  0  0  0  0  0  0  0  0  0
    5.0103   -0.4684   -0.2634 C   0  0  0  0  0  0  0  0  0  0  0  0
    5.3895   -1.3654    0.8732 C   0  0  0  0  0  0  0  0  0  0  0  0
    5.3180   -2.7460    0.7081 O   0  0  0  0  0  1  0  0  0  0  0  0
    5.7462   -0.8489    2.0115 N   0  0  0  0  0  0  0  0  0  0  0  0
    6.1197   -1.6332    3.1856 C   0  0  0  0  0  0  0  0  0  0  0  0
    7.4639   -2.2602    2.9908 C   0  0  0  0  0  0  0  0  0  0  0  0
    7.5690   -3.6241    2.7492 O   0  0  0  0  0  1  0  0  0  0  0  0
    8.5029   -1.5496    3.0194 O   0  0  0  0  0  0  0  0  0  0  0  0
    1.4778    0.8845   -1.4204 C   0  0  0  0  0  0  0  0  0  0  0  0
    0.9687    1.4518   -2.7605 C   0  0  0  0  0  0  0  0  0  0  0  0
   -0.2485    2.3093   -2.4450 C   0  0  0  0  0  0  0  0  0  0  0  0
   -0.6852    1.9440   -1.0136 C   0  0  0  0  0  0  0  0  0  0  0  0
   -1.8721    0.8838   -0.9159 C   0  0  0  0  0  0  0  0  0  0  0  0
   -2.3318    0.1874   -2.2498 C   0  0  0  0  0  0  0  0  0  0  0  0
   -3.0959    1.0992   -3.0001 O   0  0  0  0  0  0  0  0  0  0  0  0
   -3.1878   -1.0918   -2.0145 C   0  0  0  0  0  0  0  0  0  0  0  0
   -3.9474   -0.9815   -0.6856 C   0  0  0  0  0  0  0  0  0  0  0  0
   -5.1005   -1.9845   -0.5170 C   0  0  0  0  0  0  0  0  0  0  0  0
   -5.8102   -1.8283    0.8594 C   0  0  0  0  0  0  0  0  0  0  0  0
   -5.6910   -3.0152    1.6011 O   0  0  0  0  0  0  0  0  0  0  0  0
   -5.3107   -0.6174    1.6954 C   0  0  0  0  0  0  0  0  0  0  0  0
   -3.7678   -0.4228    1.7578 C   0  0  0  0  0  0  0  0  0  0  0  0
   -2.9746   -0.9998    0.5374 C   0  0  0  0  0  0  0  0  0  0  0  0
   -2.5129   -2.4490    0.8888 C   0  0  0  0  0  0  0  0  0  0  0  0
   -1.6586   -0.1860    0.1784 C   0  0  0  0  0  0  0  0  0  0  0  0
   -0.9402    0.4279    1.3847 C   0  0  0  0  0  0  0  0  0  0  0  0
    0.5165    0.6949    1.0117 C   0  0  0  0  0  0  0  0  0  0  0  0
    1.1691    1.2423    2.1341 O   0  0  0  0  0  0  0  0  0  0  0  0
    0.6718    1.6074   -0.2803 C   0  0  0  0  0  0  0  0  0  0  0  0
    1.3272    2.9631    0.1229 C   0  0  0  0  0  0  0  0  0  0  0  0
    0.9435   -0.1936   -0.1347 H   0  0  0  0  0  0  0  0  0  0  0  0
   -0.6453   -0.7235   -0.0770 H   0  0  0  0  0  0  0  0  0  0  0  0
   -0.3093    0.9183   -0.0831 H   0  0  0  0  0  0  0  0  0  0  0  0
    0.9357   -0.2479   -0.0944 H   0  0  0  0  0  0  0  0  0  0  0  0
   -0.6800   -0.6921   -0.0669 H   0  0  0  0  0  0  0  0  0  0  0  0
   -0.2575    0.9283   -0.1334 H   0  0  0  0  0  0  0  0  0  0  0  0
   -0.6878    0.0000    0.0000 H   0  0  0  0  0  0  0  0  0  0  0  0
    3.2988    2.8725   -2.0498 H   0  0  0  0  0  0  0  0  0  0  0  0
    4.7895    1.9016   -2.0326 H   0  0  0  0  0  0  0  0  0  0  0  0
    4.1196    2.4961   -0.4956 H   0  0  0  0  0  0  0  0  0  0  0  0
    3.3105    0.1751   -2.2750 H   0  0  0  0  0  0  0  0  0  0  0  0
    3.3689    0.4931    0.7798 H   0  0  0  0  0  0  0  0  0  0  0  0
    2.9348   -1.0128   -0.1150 H   0  0  0  0  0  0  0  0  0  0  0  0
    5.1943   -1.0010   -1.2214 H   0  0  0  0  0  0  0  0  0  0  0  0
    5.6553    0.4361   -0.2414 H   0  0  0  0  0  0  0  0  0  0  0  0
    6.1614   -0.9594    4.0670 H   0  0  0  0  0  0  0  0  0  0  0  0
    5.3523   -2.4117    3.3884 H   0  0  0  0  0  0  0  0  0  0  0  0
    1.1131   -0.1688   -1.4257 H   0  0  0  0  0  0  0  0  0  0  0  0
    1.7213    2.0579   -3.3025 H   0  0  0  0  0  0  0  0  0  0  0  0
    0.6854    0.6223   -3.4449 H   0  0  0  0  0  0  0  0  0  0  0  0
    0.0537    3.3792   -2.4704 H   0  0  0  0  0  0  0  0  0  0  0  0
   -1.0243    2.2193   -3.2236 H   0  0  0  0  0  0  0  0  0  0  0  0
   -1.1015    2.8763   -0.5646 H   0  0  0  0  0  0  0  0  0  0  0  0
   -2.7469    1.4818   -0.5706 H   0  0  0  0  0  0  0  0  0  0  0  0
   -1.4330   -0.1264   -2.8246 H   0  0  0  0  0  0  0  0  0  0  0  0
   -3.0625    0.7959   -3.9452 H   0  0  0  0  0  0  0  0  0  0  0  0
   -2.5334   -1.9885   -2.0119 H   0  0  0  0  0  0  0  0  0  0  0  0
   -3.9071   -1.2267   -2.8522 H   0  0  0  0  0  0  0  0  0  0  0  0
   -4.4515    0.0121   -0.7290 H   0  0  0  0  0  0  0  0  0  0  0  0
   -4.7271   -3.0228   -0.6539 H   0  0  0  0  0  0  0  0  0  0  0  0
   -5.8412   -1.8109   -1.3290 H   0  0  0  0  0  0  0  0  0  0  0  0
   -6.8932   -1.6572    0.6507 H   0  0  0  0  0  0  0  0  0  0  0  0
   -6.3950   -2.9939    2.3011 H   0  0  0  0  0  0  0  0  0  0  0  0
   -5.7585    0.3010    1.2545 H   0  0  0  0  0  0  0  0  0  0  0  0
   -5.7133   -0.6837    2.7295 H   0  0  0  0  0  0  0  0  0  0  0  0
   -3.5987    0.6721    1.8290 H   0  0  0  0  0  0  0  0  0  0  0  0
   -3.3862   -0.8565    2.7086 H   0  0  0  0  0  0  0  0  0  0  0  0
   -1.7096   -2.4280    1.6551 H   0  0  0  0  0  0  0  0  0  0  0  0
   -2.1105   -2.9756   -0.0006 H   0  0  0  0  0  0  0  0  0  0  0  0
   -3.3204   -3.0699    1.3107 H   0  0  0  0  0  0  0  0  0  0  0  0
   -0.9500   -0.9150   -0.2817 H   0  0  0  0  0  0  0  0  0  0  0  0
   -0.9635   -0.2730    2.2464 H   0  0  0  0  0  0  0  0  0  0  0  0
   -1.4237    1.3787    1.6991 H   0  0  0  0  0  0  0  0  0  0  0  0
    0.9681   -0.3023    0.8132 H   0  0  0  0  0  0  0  0  0  0  0  0
    1.3334    0.5009    2.7748 H   0  0  0  0  0  0  0  0  0  0  0  0
    0.6578    3.5200    0.8137 H   0  0  0  0  0  0  0  0  0  0  0  0
    2.2809    2.8129    0.6627 H   0  0  0  0  0  0  0  0  0  0  0  0
    1.5217    3.6171   -0.7495 H   0  0  0  0  0  0  0  0  0  0  0  0
  5  6  1  0
  6  7  1  0
  7  8  1  0
  8  9  1  0
  9 10  1  0
  9 11  2  3
 11 12  1  0
 12 13  1  0
 13 14  1  0
 13 15  2  0
  6 16  1  0
 16 17  1  0
 17 18  1  0
 18 19  1  0
 19 20  1  0
 20 21  1  0
 21 22  1  0
 21 23  1  0
 23 24  1  0
 24 25  1  0
 25 26  1  0
 26 27  1  0
 26 28  1  0
 28 29  1  0
 29 30  1  0
 30 31  1  0
 30 32  1  0
 32 33  1  0
 33 34  1  0
 34 35  1  0
 34 36  1  0
 36 37  1  0
 36 16  1  0
 36 19  1  0
 32 20  1  0
 30 24  1  0
  1 38  1  0
  1 39  1  0
  1 40  1  0
  2 41  1  0
  2 42  1  0
  2 43  1  0
  3 44  1  0
  5 45  1  0
  5 46  1  0
  5 47  1  0
  6 48  1  0
  7 49  1  0
  7 50  1  0
  8 51  1  0
  8 52  1  0
 12 53  1  0
 12 54  1  0
 16 55  1  0
 17 56  1  0
 17 57  1  0
 18 58  1  0
 18 59  1  0
 19 60  1  0
 20 61  1  0
 21 62  1  0
 22 63  1  0
 23 64  1  0
 23 65  1  0
 24 66  1  0
 25 67  1  0
 25 68  1  0
 26 69  1  0
 27 70  1  0
 28 71  1  0
 28 72  1  0
 29 73  1  0
 29 74  1  0
 31 75  1  0
 31 76  1  0
 31 77  1  0
 32 78  1  0
 33 79  1  0
 33 80  1  0
 34 81  1  0
 35 82  1  0
 37 83  1  0
 37 84  1  0
 37 85  1  0
M  CHG  3   4   2  10  -1  14  -1
M  END
$$$$
