
     RDKit          3D

 35 38  0  0  0  0  0  0  0  0999 V2000
    0.9950   -1.8609    1.8041 O   0  0  0  0  0  0  0  0  0  0  0  0
    0.9963   -1.6204    0.4164 C   0  0  1  0  0  0  0  0  0  0  0  0
    0.2841   -2.7596   -0.3417 C   0  0  0  0  0  0  0  0  0  0  0  0
   -1.1789   -2.2984   -0.5158 C   0  0  0  0  0  0  0  0  0  0  0  0
   -1.1801   -0.8548   -0.2968 N   0  0  0  0  0  0  0  0  0  0  0  0
    0.1221   -0.4513    0.0975 C   0  0  0  0  0  0  0  0  0  0  0  0
    0.5706    0.7557   -0.0948 N   0  0  0  0  0  0  0  0  0  0  0  0
    1.9713    1.0601   -0.0358 C   0  0  0  0  0  0  0  0  0  0  0  0
    2.9165    0.0162   -0.0554 C   0  0  0  0  0  0  0  0  0  0  0  0
    4.2869    0.3177   -0.0990 C   0  0  0  0  0  0  0  0  0  0  0  0
    4.7079    1.6514   -0.1165 C   0  0  0  0  0  0  0  0  0  0  0  0
    3.7668    2.6859   -0.0992 C   0  0  0  0  0  0  0  0  0  0  0  0
    2.4002    2.3915   -0.0675 C   0  0  0  0  0  0  0  0  0  0  0  0
    2.4184   -1.3747   -0.0222 C   0  0  0  0  0  0  0  0  0  0  0  0
    3.1921   -2.3441   -0.2507 O   0  0  0  0  0  0  0  0  0  0  0  0
   -2.3493   -0.0108   -0.3520 C   0  0  0  0  0  0  0  0  0  0  0  0
   -3.4292   -0.3395   -1.1930 C   0  0  0  0  0  0  0  0  0  0  0  0
   -4.5651    0.4745   -1.2397 C   0  0  0  0  0  0  0  0  0  0  0  0
   -4.6406    1.6194   -0.4441 C   0  0  0  0  0  0  0  0  0  0  0  0
   -3.5816    1.9506    0.4034 C   0  0  0  0  0  0  0  0  0  0  0  0
   -2.4432    1.1406    0.4535 C   0  0  0  0  0  0  0  0  0  0  0  0
    0.0565   -2.0044    2.0983 H   0  0  0  0  0  0  0  0  0  0  0  0
    0.3413   -3.7227    0.2110 H   0  0  0  0  0  0  0  0  0  0  0  0
    0.7383   -2.8986   -1.3484 H   0  0  0  0  0  0  0  0  0  0  0  0
   -1.5344   -2.5435   -1.5389 H   0  0  0  0  0  0  0  0  0  0  0  0
   -1.8297   -2.7892    0.2399 H   0  0  0  0  0  0  0  0  0  0  0  0
    5.0269   -0.4726   -0.1116 H   0  0  0  0  0  0  0  0  0  0  0  0
    5.7647    1.8836   -0.1457 H   0  0  0  0  0  0  0  0  0  0  0  0
    4.0968    3.7165   -0.1197 H   0  0  0  0  0  0  0  0  0  0  0  0
    1.6762    3.1965   -0.0750 H   0  0  0  0  0  0  0  0  0  0  0  0
   -3.3942   -1.2164   -1.8242 H   0  0  0  0  0  0  0  0  0  0  0  0
   -5.3878    0.2171   -1.8943 H   0  0  0  0  0  0  0  0  0  0  0  0
   -5.5214    2.2474   -0.4810 H   0  0  0  0  0  0  0  0  0  0  0  0
   -3.6451    2.8328    1.0273 H   0  0  0  0  0  0  0  0  0  0  0  0
   -1.6483    1.4042    1.1381 H   0  0  0  0  0  0  0  0  0  0  0  0
  2  1  1  1
  2  3  1  0
  3  4  1  0
  4  5  1  0
  5  6  1  0
  6  7  2  0
  7  8  1  0
  8  9  2  0
  9 10  1  0
 10 11  2  0
 11 12  1  0
 12 13  2  0
  9 14  1  0
 14 15  2  0
  5 16  1  0
 16 17  2  0
 17 18  1  0
 18 19  2  0
 19 20  1  0
 20 21  2  0
  6  2  1  0
 13  8  1  0
 21 16  1  0
 14  2  1  0
  1 22  1  0
  3 23  1  0
  3 24  1  0
  4 25  1  0
  4 26  1  0
 10 27  1  0
 11 28  1  0
 12 29  1  0
 13 30  1  0
 17 31  1  0
 18 32  1  0
 19 33  1  0
 20 34  1  0
 21 35  1  0
M  END
$$$$
