
     RDKit          3D

 34 36  0  0  0  0  0  0  0  0999 V2000
   -3.1253    0.4657   -1.7617 C   0  0  0  0  0  0  0  0  0  0  0  0
   -2.2111   -0.3589   -0.9653 N   0  0  0  0  0  0  0  0  0  0  0  0
   -1.7515    0.1224    0.3159 C   0  0  0  0  0  0  0  0  0  0  0  0
   -0.3932    0.0076    0.7063 C   0  0  0  0  0  0  0  0  0  0  0  0
    0.0101    0.5225    1.9523 C   0  0  0  0  0  0  0  0  0  0  0  0
   -0.9114    1.1349    2.8040 C   0  0  0  0  0  0  0  0  0  0  0  0
   -0.3884    1.7661    4.3548 Cl  0  0  0  0  0  0  0  0  0  0  0  0
   -2.2480    1.2422    2.4223 C   0  0  0  0  0  0  0  0  0  0  0  0
   -2.6653    0.7416    1.1889 C   0  0  0  0  0  0  0  0  0  0  0  0
    0.6333   -0.6230   -0.1700 C   0  0  0  0  0  0  0  0  0  0  0  0
    0.4035   -1.7391   -0.8021 N   0  0  0  0  0  0  0  0  0  0  0  0
   -0.8350   -2.5109   -0.7628 C   0  0  0  0  0  0  0  0  0  0  0  0
   -1.1487   -2.8569    0.5610 O   0  0  0  0  0  0  0  0  0  0  0  0
   -1.9431   -1.7113   -1.3841 C   0  0  0  0  0  0  0  0  0  0  0  0
   -2.6402   -2.2408   -2.2925 O   0  0  0  0  0  0  0  0  0  0  0  0
    1.9573    0.0270   -0.3333 C   0  0  0  0  0  0  0  0  0  0  0  0
    2.0130    1.4156   -0.5541 C   0  0  0  0  0  0  0  0  0  0  0  0
    3.2403    2.0595   -0.7262 C   0  0  0  0  0  0  0  0  0  0  0  0
    4.4269    1.3277   -0.6782 C   0  0  0  0  0  0  0  0  0  0  0  0
    4.3899   -0.0495   -0.4525 C   0  0  0  0  0  0  0  0  0  0  0  0
    3.1656   -0.7074   -0.2782 C   0  0  0  0  0  0  0  0  0  0  0  0
    3.1998   -2.4332    0.0730 Cl  0  0  0  0  0  0  0  0  0  0  0  0
   -2.9278    0.3228   -2.8455 H   0  0  0  0  0  0  0  0  0  0  0  0
   -4.1758    0.1826   -1.5399 H   0  0  0  0  0  0  0  0  0  0  0  0
   -2.9793    1.5436   -1.5339 H   0  0  0  0  0  0  0  0  0  0  0  0
    1.0433    0.4401    2.2677 H   0  0  0  0  0  0  0  0  0  0  0  0
   -2.9662    1.7137    3.0810 H   0  0  0  0  0  0  0  0  0  0  0  0
   -3.7091    0.8300    0.9161 H   0  0  0  0  0  0  0  0  0  0  0  0
   -0.6706   -3.4390   -1.3568 H   0  0  0  0  0  0  0  0  0  0  0  0
   -1.8612   -3.5469    0.5141 H   0  0  0  0  0  0  0  0  0  0  0  0
    1.1027    2.0007   -0.6057 H   0  0  0  0  0  0  0  0  0  0  0  0
    3.2708    3.1275   -0.8996 H   0  0  0  0  0  0  0  0  0  0  0  0
    5.3770    1.8288   -0.8107 H   0  0  0  0  0  0  0  0  0  0  0  0
    5.3176   -0.6056   -0.4043 H   0  0  0  0  0  0  0  0  0  0  0  0
  1  2  1  0
  2  3  1  0
  3  4  2  0
  4  5  1  0
  5  6  2  0
  6  7  1  0
  6  8  1  0
  8  9  2  0
  4 10  1  0
 10 11  2  0
 11 12  1  0
 12 13  1  0
 12 14  1  0
 14 15  2  0
 10 16  1  0
 16 17  2  0
 17 18  1  0
 18 19  2  0
 19 20  1  0
 20 21  2  0
 21 22  1  0
 14  2  1  0
 21 16  1  0
  9  3  1  0
  1 23  1  0
  1 24  1  0
  1 25  1  0
  5 26  1  0
  8 27  1  0
  9 28  1  0
 12 29  1  0
 13 30  1  0
 17 31  1  0
 18 32  1  0
 19 33  1  0
 20 34  1  0
M  END
$$$$
