
     RDKit          3D

 49 51  0  0  0  0  0  0  0  0999 V2000
    1.1664   -1.9520   -2.0726 C   0  0  1  0  0  0  0  0  0  0  0  0
   -0.1654   -1.2100   -1.8973 C   0  0  0  0  0  0  0  0  0  0  0  0
   -0.4715   -1.0945   -0.5270 O   0  0  0  0  0  0  0  0  0  0  0  0
   -1.8437   -0.0990   -0.3636 P   0  0  0  0  0  5  0  0  0  0  0  0
   -3.1240   -0.7521   -1.2631 O   0  0  0  0  0  0  0  0  0  0  0  0
   -2.2279   -0.0628    1.0984 O   0  0  0  0  0  0  0  0  0  0  0  0
   -1.4392    1.4752   -0.8781 O   0  0  0  0  0  0  0  0  0  0  0  0
   -2.8774    2.3309   -1.2020 P   0  0  0  0  0  5  0  0  0  0  0  0
   -2.4548    3.9309   -1.5549 O   0  0  0  0  0  0  0  0  0  0  0  0
   -3.5707    1.7396   -2.4097 O   0  0  0  0  0  0  0  0  0  0  0  0
   -4.0156    2.3393    0.2245 C   0  0  0  0  0  0  0  0  0  0  0  0
   -5.4306    3.4409   -0.0856 P   0  0  0  0  0  5  0  0  0  0  0  0
   -6.4756    3.3935    1.2447 O   0  0  0  0  0  0  0  0  0  0  0  0
   -4.8915    5.0289   -0.3096 O   0  0  0  0  0  0  0  0  0  0  0  0
   -6.1741    2.9857   -1.3209 O   0  0  0  0  0  0  0  0  0  0  0  0
    2.2105   -1.1787   -1.5135 O   0  0  0  0  0  0  0  0  0  0  0  0
    2.9389   -2.0157   -0.6457 C   0  0  1  0  0  0  0  0  0  0  0  0
    3.4273   -1.2576    0.5086 N   0  0  0  0  0  0  0  0  0  0  0  0
    4.5663   -1.4861    1.2124 C   0  0  0  0  0  0  0  0  0  0  0  0
    4.7091   -0.6690    2.2925 N   0  0  0  0  0  0  0  0  0  0  0  0
    3.5951    0.0853    2.2431 C   0  0  0  0  0  0  0  0  0  0  0  0
    3.1713    1.0936    3.1017 C   0  0  0  0  0  0  0  0  0  0  0  0
    3.9469    1.4957    4.2309 N   0  0  0  0  0  0  0  0  0  0  0  0
    1.9733    1.6936    2.8314 N   0  0  0  0  0  0  0  0  0  0  0  0
    1.2125    1.3164    1.7539 C   0  0  0  0  0  0  0  0  0  0  0  0
    1.6394    0.3225    0.9180 N   0  0  0  0  0  0  0  0  0  0  0  0
    2.8284   -0.2686    1.1867 C   0  0  0  0  0  0  0  0  0  0  0  0
    2.0285   -3.1503   -0.2064 C   0  0  2  0  0  0  0  0  0  0  0  0
    2.7570   -4.3101    0.1037 O   0  0  0  0  0  0  0  0  0  0  0  0
    1.1492   -3.3426   -1.4190 C   0  0  2  0  0  0  0  0  0  0  0  0
    1.7072   -4.2825   -2.3047 O   0  0  0  0  0  0  0  0  0  0  0  0
    1.3523   -2.0494   -3.1658 H   0  0  0  0  0  0  0  0  0  0  0  0
   -0.9617   -1.7817   -2.4252 H   0  0  0  0  0  0  0  0  0  0  0  0
   -0.0595   -0.2090   -2.3758 H   0  0  0  0  0  0  0  0  0  0  0  0
   -3.2465   -1.6660   -0.9016 H   0  0  0  0  0  0  0  0  0  0  0  0
   -1.7997    3.8623   -2.2945 H   0  0  0  0  0  0  0  0  0  0  0  0
   -4.3992    1.3147    0.4044 H   0  0  0  0  0  0  0  0  0  0  0  0
   -3.4711    2.6899    1.1252 H   0  0  0  0  0  0  0  0  0  0  0  0
   -6.7434    2.4432    1.3238 H   0  0  0  0  0  0  0  0  0  0  0  0
   -4.4354    5.2621    0.5380 H   0  0  0  0  0  0  0  0  0  0  0  0
    3.8085   -2.4252   -1.2097 H   0  0  0  0  0  0  0  0  0  0  0  0
    5.2866   -2.2508    0.9516 H   0  0  0  0  0  0  0  0  0  0  0  0
    3.6030    2.2550    4.8596 H   0  0  0  0  0  0  0  0  0  0  0  0
    4.8625    1.0412    4.4439 H   0  0  0  0  0  0  0  0  0  0  0  0
    0.2681    1.8078    1.5650 H   0  0  0  0  0  0  0  0  0  0  0  0
    1.3957   -2.8386    0.6585 H   0  0  0  0  0  0  0  0  0  0  0  0
    3.1521   -4.1616    1.0020 H   0  0  0  0  0  0  0  0  0  0  0  0
    0.1204   -3.6564   -1.1190 H   0  0  0  0  0  0  0  0  0  0  0  0
    1.4020   -5.1779   -2.0030 H   0  0  0  0  0  0  0  0  0  0  0  0
  1  2  1  0
  2  3  1  0
  3  4  1  0
  4  5  1  0
  4  6  2  0
  4  7  1  0
  7  8  1  0
  8  9  1  0
  8 10  2  0
  8 11  1  0
 11 12  1  0
 12 13  1  0
 12 14  1  0
 12 15  2  0
  1 16  1  0
 16 17  1  0
 17 18  1  0
 18 19  1  0
 19 20  2  0
 20 21  1  0
 21 22  2  0
 22 23  1  0
 22 24  1  0
 24 25  2  0
 25 26  1  0
 26 27  2  0
 17 28  1  0
 28 29  1  0
 28 30  1  0
 30 31  1  0
 30  1  1  0
 27 18  1  0
 27 21  1  0
  1 32  1  6
  2 33  1  0
  2 34  1  0
  5 35  1  0
  9 36  1  0
 11 37  1  0
 11 38  1  0
 13 39  1  0
 14 40  1  0
 17 41  1  6
 19 42  1  0
 23 43  1  0
 23 44  1  0
 25 45  1  0
 28 46  1  1
 29 47  1  0
 30 48  1  1
 31 49  1  0
M  END
$$$$
