
     RDKit          3D

 80 83  0  0  0  0  0  0  0  0999 V2000
   -2.7158    1.1508   -0.1519 C   0  0  2  0  0  0  0  0  0  0  0  0
   -3.7105    2.0822   -0.8160 C   0  0  0  0  0  0  0  0  0  0  0  0
   -3.4240    3.1637   -1.3048 O   0  0  0  0  0  0  0  0  0  0  0  0
   -5.0284    1.4642   -1.0746 C   0  0  0  0  0  0  0  0  0  0  0  0
   -4.8054    0.0048   -0.7201 C   0  0  0  0  0  0  0  0  0  0  0  0
   -3.6429   -0.0440    0.3120 C   0  0  2  0  0  0  0  0  0  0  0  0
   -4.2557    0.2943    1.7049 C   0  0  0  0  0  0  0  0  0  0  0  0
   -3.2023    0.5695    2.7665 C   0  0  0  0  0  0  0  0  0  0  0  0
   -2.3407    1.7794    2.3936 C   0  0  1  0  0  0  0  0  0  0  0  0
   -1.3282    2.0345    3.5299 C   0  0  0  0  0  0  0  0  0  0  0  0
   -1.7212    1.7676    0.9271 C   0  0  2  0  0  0  0  0  0  0  0  0
   -1.4333    3.2702    0.5933 C   0  0  0  0  0  0  0  0  0  0  0  0
   -0.3044    1.0556    0.8122 C   0  0  1  0  0  0  0  0  0  0  0  0
   -0.2017   -0.4829    1.0313 C   0  0  0  0  0  0  0  0  0  0  0  0
   -0.3906   -1.5439   -0.1371 C   0  0  1  0  0  0  0  0  0  0  0  0
    0.5039   -1.1840   -1.3525 C   0  0  0  0  0  0  0  0  0  0  0  0
    0.1634   -2.8763    0.4013 C   0  0  0  0  0  0  0  0  0  0  0  0
   -0.3117   -3.5122    1.4808 C   0  0  0  0  0  0  0  0  0  0  0  0
   -1.8629   -1.7675   -0.6890 C   0  0  1  0  0  0  0  0  0  0  0  0
   -1.9657   -3.0767   -1.2124 O   0  0  0  0  0  0  0  0  0  0  0  0
   -3.0051   -1.5063    0.3516 C   0  0  2  0  0  0  0  0  0  0  0  0
   -4.0867   -2.6219    0.2956 C   0  0  0  0  0  0  0  0  0  0  0  0
    0.3520    1.4103   -0.4112 O   0  0  0  0  0  0  0  0  0  0  0  0
    1.4826    2.2355   -0.5042 C   0  0  0  0  0  0  0  0  0  0  0  0
    1.8927    2.8890    0.4939 O   0  0  0  0  0  0  0  0  0  0  0  0
    2.1575    2.3980   -1.8285 C   0  0  0  0  0  0  0  0  0  0  0  0
    3.9799    2.4880   -1.6608 S   0  0  0  0  0  0  0  0  0  0  0  0
    4.2815    0.7139   -1.2747 C   0  0  2  0  0  0  0  0  0  0  0  0
    4.1654    0.4743    0.2539 C   0  0  0  0  0  0  0  0  0  0  0  0
    5.2001   -0.5166    0.8172 C   0  0  0  0  0  0  0  0  0  0  0  0
    5.4816   -1.6889   -0.1363 C   0  0  1  0  0  0  0  0  0  0  0  0
    4.3214   -2.5841   -0.1882 N   0  0  0  0  0  0  0  0  0  0  0  0
    5.9062   -1.2140   -1.5552 C   0  0  0  0  0  0  0  0  0  0  0  0
    5.6595    0.2859   -1.8178 C   0  0  1  0  0  0  0  0  0  0  0  0
    5.7266    0.5132   -3.2039 O   0  0  0  0  0  0  0  0  0  0  0  0
   -2.0877    0.8678   -1.0112 H   0  0  0  0  0  0  0  0  0  0  0  0
   -5.8020    1.9293   -0.4271 H   0  0  0  0  0  0  0  0  0  0  0  0
   -5.3158    1.5686   -2.1435 H   0  0  0  0  0  0  0  0  0  0  0  0
   -5.7457   -0.4489   -0.3357 H   0  0  0  0  0  0  0  0  0  0  0  0
   -4.5098   -0.5333   -1.6487 H   0  0  0  0  0  0  0  0  0  0  0  0
   -4.9081    1.1927    1.6421 H   0  0  0  0  0  0  0  0  0  0  0  0
   -4.9112   -0.5221    2.0681 H   0  0  0  0  0  0  0  0  0  0  0  0
   -2.5954   -0.3208    3.0019 H   0  0  0  0  0  0  0  0  0  0  0  0
   -3.7429    0.8003    3.7120 H   0  0  0  0  0  0  0  0  0  0  0  0
   -3.0528    2.6352    2.4431 H   0  0  0  0  0  0  0  0  0  0  0  0
   -0.6669    1.1553    3.6810 H   0  0  0  0  0  0  0  0  0  0  0  0
   -1.8684    2.2161    4.4840 H   0  0  0  0  0  0  0  0  0  0  0  0
   -0.7085    2.9313    3.3336 H   0  0  0  0  0  0  0  0  0  0  0  0
   -0.6156    3.6806    1.2201 H   0  0  0  0  0  0  0  0  0  0  0  0
   -1.1191    3.4029   -0.4635 H   0  0  0  0  0  0  0  0  0  0  0  0
   -2.3188    3.9169    0.7700 H   0  0  0  0  0  0  0  0  0  0  0  0
    0.3071    1.4756    1.6376 H   0  0  0  0  0  0  0  0  0  0  0  0
   -0.7628   -0.7565    1.9347 H   0  0  0  0  0  0  0  0  0  0  0  0
    0.8492   -0.6288    1.3747 H   0  0  0  0  0  0  0  0  0  0  0  0
    1.5181   -0.8914   -1.0191 H   0  0  0  0  0  0  0  0  0  0  0  0
    0.6148   -2.0476   -2.0434 H   0  0  0  0  0  0  0  0  0  0  0  0
    0.0698   -0.3644   -1.9608 H   0  0  0  0  0  0  0  0  0  0  0  0
    1.0029   -3.3482   -0.1049 H   0  0  0  0  0  0  0  0  0  0  0  0
    0.1395   -4.4481    1.7938 H   0  0  0  0  0  0  0  0  0  0  0  0
   -1.1276   -3.1230    2.0725 H   0  0  0  0  0  0  0  0  0  0  0  0
   -2.0603   -1.1028   -1.5532 H   0  0  0  0  0  0  0  0  0  0  0  0
   -1.5263   -3.0858   -2.1030 H   0  0  0  0  0  0  0  0  0  0  0  0
   -2.5823   -1.6675    1.3454 H   0  0  0  0  0  0  0  0  0  0  0  0
   -3.6432   -3.5997    0.5839 H   0  0  0  0  0  0  0  0  0  0  0  0
   -4.9181   -2.4358    1.0022 H   0  0  0  0  0  0  0  0  0  0  0  0
   -4.5097   -2.7230   -0.7260 H   0  0  0  0  0  0  0  0  0  0  0  0
    1.8752    1.5680   -2.5095 H   0  0  0  0  0  0  0  0  0  0  0  0
    1.8033    3.3442   -2.2870 H   0  0  0  0  0  0  0  0  0  0  0  0
    3.5219    0.0954   -1.7981 H   0  0  0  0  0  0  0  0  0  0  0  0
    3.1466    0.0975    0.4843 H   0  0  0  0  0  0  0  0  0  0  0  0
    4.2849    1.4300    0.8087 H   0  0  0  0  0  0  0  0  0  0  0  0
    6.1532    0.0249    1.0073 H   0  0  0  0  0  0  0  0  0  0  0  0
    4.8465   -0.9040    1.7977 H   0  0  0  0  0  0  0  0  0  0  0  0
    6.3287   -2.2640    0.3015 H   0  0  0  0  0  0  0  0  0  0  0  0
    3.5587   -2.1412   -0.7481 H   0  0  0  0  0  0  0  0  0  0  0  0
    4.5996   -3.4604   -0.6872 H   0  0  0  0  0  0  0  0  0  0  0  0
    5.3775   -1.8125   -2.3302 H   0  0  0  0  0  0  0  0  0  0  0  0
    6.9914   -1.4135   -1.6953 H   0  0  0  0  0  0  0  0  0  0  0  0
    6.4553    0.8689   -1.2934 H   0  0  0  0  0  0  0  0  0  0  0  0
    6.1174    1.4161   -3.3369 H   0  0  0  0  0  0  0  0  0  0  0  0
  1  2  1  0
  2  3  2  0
  2  4  1  0
  4  5  1  0
  6  5  1  6
  6  7  1  0
  7  8  1  0
  8  9  1  0
  9 10  1  0
  9 11  1  0
 11 12  1  6
 11 13  1  0
 13 14  1  0
 14 15  1  0
 15 16  1  6
 15 17  1  0
 17 18  2  3
 15 19  1  0
 19 20  1  0
 19 21  1  0
 21 22  1  0
 13 23  1  0
 23 24  1  0
 24 25  2  0
 24 26  1  0
 26 27  1  0
 27 28  1  0
 28 29  1  0
 29 30  1  0
 30 31  1  0
 31 32  1  0
 31 33  1  0
 33 34  1  0
 34 35  1  0
  6  1  1  0
 21  6  1  0
 34 28  1  0
 11  1  1  0
  1 36  1  6
  4 37  1  0
  4 38  1  0
  5 39  1  0
  5 40  1  0
  7 41  1  0
  7 42  1  0
  8 43  1  0
  8 44  1  0
  9 45  1  6
 10 46  1  0
 10 47  1  0
 10 48  1  0
 12 49  1  0
 12 50  1  0
 12 51  1  0
 13 52  1  1
 14 53  1  0
 14 54  1  0
 16 55  1  0
 16 56  1  0
 16 57  1  0
 17 58  1  0
 18 59  1  0
 18 60  1  0
 19 61  1  6
 20 62  1  0
 21 63  1  1
 22 64  1  0
 22 65  1  0
 22 66  1  0
 26 67  1  0
 26 68  1  0
 28 69  1  6
 29 70  1  0
 29 71  1  0
 30 72  1  0
 30 73  1  0
 31 74  1  1
 32 75  1  0
 32 76  1  0
 33 77  1  0
 33 78  1  0
 34 79  1  1
 35 80  1  0
M  END
$$$$
