
     RDKit          3D

 47 50  0  0  0  0  0  0  0  0999 V2000
   -4.6242    4.8545   -0.2971 Br  0  0  0  0  0  0  0  0  0  0  0  0
   -5.1977    3.0328   -0.2494 C   0  0  0  0  0  0  0  0  0  0  0  0
   -6.5447    2.7342   -0.0505 C   0  0  0  0  0  0  0  0  0  0  0  0
   -6.9734    1.4076   -0.0484 C   0  0  0  0  0  0  0  0  0  0  0  0
   -6.0531    0.3601   -0.2295 C   0  0  0  0  0  0  0  0  0  0  0  0
   -6.5274   -1.0402   -0.3043 C   0  0  0  0  0  0  0  0  0  0  0  0
   -7.7282   -1.3272   -0.0490 O   0  0  0  0  0  0  0  0  0  0  0  0
   -5.6289   -2.0750   -0.7077 N   0  0  0  0  0  0  0  0  0  0  0  0
   -4.2443   -1.7957   -0.9202 C   0  0  0  0  0  0  0  0  0  0  0  0
   -3.5236   -2.6583   -1.4907 O   0  0  0  0  0  0  0  0  0  0  0  0
   -3.6932   -0.4777   -0.5119 C   0  0  0  0  0  0  0  0  0  0  0  0
   -2.3862   -0.3136   -0.2013 C   0  0  0  0  0  0  0  0  0  0  0  0
   -1.4524   -1.4041   -0.1350 N   0  0  0  0  0  0  0  0  0  0  0  0
   -0.0303   -1.2120   -0.2358 C   0  0  0  0  0  0  0  0  0  0  0  0
    0.5159   -0.0786   -0.8669 C   0  0  0  0  0  0  0  0  0  0  0  0
    1.9015    0.0783   -0.9628 C   0  0  0  0  0  0  0  0  0  0  0  0
    2.7636   -0.8995   -0.4456 C   0  0  0  0  0  0  0  0  0  0  0  0
    4.2551   -0.7071   -0.5226 C   0  0  0  0  0  0  0  0  0  0  0  0
    4.6924    0.3052    0.4572 N   0  0  0  0  0  0  0  0  0  0  0  0
    6.0938    0.6800    0.2544 C   0  0  0  0  0  0  0  0  0  0  0  0
    6.6112    1.1754    1.5953 C   0  0  0  0  0  0  0  0  0  0  0  0
    5.6606    0.5988    2.6321 C   0  0  0  0  0  0  0  0  0  0  0  0
    4.6211   -0.1797    1.8402 C   0  0  0  0  0  0  0  0  0  0  0  0
    2.2219   -2.0323    0.1801 C   0  0  0  0  0  0  0  0  0  0  0  0
    0.8365   -2.1901    0.2760 C   0  0  0  0  0  0  0  0  0  0  0  0
   -4.6736    0.6498   -0.3814 C   0  0  0  0  0  0  0  0  0  0  0  0
   -4.2687    2.0032   -0.4216 C   0  0  0  0  0  0  0  0  0  0  0  0
   -7.2646    3.5315    0.0828 H   0  0  0  0  0  0  0  0  0  0  0  0
   -8.0291    1.2020    0.0775 H   0  0  0  0  0  0  0  0  0  0  0  0
   -5.9944   -3.0386   -0.8802 H   0  0  0  0  0  0  0  0  0  0  0  0
   -2.0222    0.6555    0.1043 H   0  0  0  0  0  0  0  0  0  0  0  0
   -1.7962   -2.3427    0.1687 H   0  0  0  0  0  0  0  0  0  0  0  0
   -0.1234    0.6801   -1.2982 H   0  0  0  0  0  0  0  0  0  0  0  0
    2.3040    0.9615   -1.4437 H   0  0  0  0  0  0  0  0  0  0  0  0
    4.7893   -1.6732   -0.3719 H   0  0  0  0  0  0  0  0  0  0  0  0
    4.5054   -0.3625   -1.5510 H   0  0  0  0  0  0  0  0  0  0  0  0
    6.7058   -0.1944   -0.0693 H   0  0  0  0  0  0  0  0  0  0  0  0
    6.1668    1.4793   -0.5143 H   0  0  0  0  0  0  0  0  0  0  0  0
    6.5828    2.2869    1.6282 H   0  0  0  0  0  0  0  0  0  0  0  0
    7.6543    0.8315    1.7698 H   0  0  0  0  0  0  0  0  0  0  0  0
    6.1981   -0.0682    3.3414 H   0  0  0  0  0  0  0  0  0  0  0  0
    5.1729    1.4199    3.2024 H   0  0  0  0  0  0  0  0  0  0  0  0
    3.6042   -0.0040    2.2527 H   0  0  0  0  0  0  0  0  0  0  0  0
    4.8560   -1.2673    1.9062 H   0  0  0  0  0  0  0  0  0  0  0  0
    2.8711   -2.7927    0.5961 H   0  0  0  0  0  0  0  0  0  0  0  0
    0.4375   -3.0730    0.7596 H   0  0  0  0  0  0  0  0  0  0  0  0
   -3.2420    2.2794   -0.6118 H   0  0  0  0  0  0  0  0  0  0  0  0
  1  2  1  0
  2  3  2  0
  3  4  1  0
  4  5  2  0
  5  6  1  0
  6  7  2  0
  6  8  1  0
  8  9  1  0
  9 10  2  0
  9 11  1  0
 11 12  2  0
 12 13  1  0
 13 14  1  0
 14 15  2  0
 15 16  1  0
 16 17  2  0
 17 18  1  0
 18 19  1  0
 19 20  1  0
 20 21  1  0
 21 22  1  0
 22 23  1  0
 17 24  1  0
 24 25  2  0
 11 26  1  0
 26 27  2  0
 27  2  1  0
 26  5  1  0
 25 14  1  0
 23 19  1  0
  3 28  1  0
  4 29  1  0
  8 30  1  0
 12 31  1  0
 13 32  1  0
 15 33  1  0
 16 34  1  0
 18 35  1  0
 18 36  1  0
 20 37  1  0
 20 38  1  0
 21 39  1  0
 21 40  1  0
 22 41  1  0
 22 42  1  0
 23 43  1  0
 23 44  1  0
 24 45  1  0
 25 46  1  0
 27 47  1  0
M  END
$$$$
