
     RDKit          3D

 46 49  0  0  0  0  0  0  0  0999 V2000
   -3.0857   -1.6376    0.8673 C   0  0  0  0  0  0  0  0  0  0  0  0
   -3.0413   -0.7355   -0.3979 C   0  0  2  0  0  0  0  0  0  0  0  0
   -2.1972   -1.3899   -1.5080 C   0  0  0  0  0  0  0  0  0  0  0  0
   -0.6921   -1.4095   -1.1224 C   0  0  0  0  0  0  0  0  0  0  0  0
   -0.1419   -0.0226   -0.6511 C   0  0  1  0  0  0  0  0  0  0  0  0
   -1.0730    0.6458    0.4071 C   0  0  1  0  0  0  0  0  0  0  0  0
   -0.5352    2.0458    0.7229 C   0  0  0  0  0  0  0  0  0  0  0  0
    0.8264    1.9353    1.4153 C   0  0  0  0  0  0  0  0  0  0  0  0
    1.7583    0.9298    0.7712 C   0  0  0  0  0  0  0  0  0  0  0  0
    1.3002   -0.0564   -0.1440 C   0  0  0  0  0  0  0  0  0  0  0  0
    2.2426   -0.9541   -0.6873 C   0  0  0  0  0  0  0  0  0  0  0  0
    3.5787   -0.9260   -0.2848 C   0  0  0  0  0  0  0  0  0  0  0  0
    4.0183    0.0184    0.6544 C   0  0  0  0  0  0  0  0  0  0  0  0
    5.3466    0.0859    1.0983 O   0  0  0  0  0  0  0  0  0  0  0  0
    6.6042   -0.9521    0.5783 S   0  0  0  0  0  6  0  0  0  0  0  0
    8.0287   -0.5327    1.3645 O   0  0  0  0  0  0  0  0  0  0  0  0
    6.2578   -2.3745    0.9175 O   0  0  0  0  0  0  0  0  0  0  0  0
    6.7987   -0.8213   -0.9064 O   0  0  0  0  0  0  0  0  0  0  0  0
    3.1035    0.9366    1.1727 C   0  0  0  0  0  0  0  0  0  0  0  0
   -2.4956    0.6815   -0.1733 C   0  0  2  0  0  0  0  0  0  0  0  0
   -3.6190    1.4369    0.5386 C   0  0  0  0  0  0  0  0  0  0  0  0
   -4.8898    0.9022   -0.1465 C   0  0  0  0  0  0  0  0  0  0  0  0
   -4.4549   -0.4031   -0.7424 C   0  0  0  0  0  0  0  0  0  0  0  0
   -5.1951   -1.1352   -1.3810 O   0  0  0  0  0  0  0  0  0  0  0  0
   -3.6348   -1.1483    1.6990 H   0  0  0  0  0  0  0  0  0  0  0  0
   -3.6107   -2.5885    0.6316 H   0  0  0  0  0  0  0  0  0  0  0  0
   -2.0807   -1.9079    1.2429 H   0  0  0  0  0  0  0  0  0  0  0  0
   -2.3205   -0.8271   -2.4602 H   0  0  0  0  0  0  0  0  0  0  0  0
   -2.5455   -2.4296   -1.6918 H   0  0  0  0  0  0  0  0  0  0  0  0
   -0.5078   -2.1735   -0.3385 H   0  0  0  0  0  0  0  0  0  0  0  0
   -0.1448   -1.7363   -2.0308 H   0  0  0  0  0  0  0  0  0  0  0  0
   -0.1287    0.6265   -1.5563 H   0  0  0  0  0  0  0  0  0  0  0  0
   -1.0643    0.0631    1.3529 H   0  0  0  0  0  0  0  0  0  0  0  0
   -0.4365    2.6433   -0.2105 H   0  0  0  0  0  0  0  0  0  0  0  0
   -1.2312    2.5831    1.4024 H   0  0  0  0  0  0  0  0  0  0  0  0
    1.3031    2.9398    1.4199 H   0  0  0  0  0  0  0  0  0  0  0  0
    0.6673    1.6322    2.4732 H   0  0  0  0  0  0  0  0  0  0  0  0
    1.9639   -1.6835   -1.4322 H   0  0  0  0  0  0  0  0  0  0  0  0
    4.2598   -1.6422   -0.7206 H   0  0  0  0  0  0  0  0  0  0  0  0
    8.1078    0.4466    1.2390 H   0  0  0  0  0  0  0  0  0  0  0  0
    3.4461    1.6659    1.8975 H   0  0  0  0  0  0  0  0  0  0  0  0
   -2.4099    1.1919   -1.1663 H   0  0  0  0  0  0  0  0  0  0  0  0
   -3.6253    1.2007    1.6247 H   0  0  0  0  0  0  0  0  0  0  0  0
   -3.5244    2.5358    0.3999 H   0  0  0  0  0  0  0  0  0  0  0  0
   -5.2179    1.5910   -0.9545 H   0  0  0  0  0  0  0  0  0  0  0  0
   -5.7080    0.7497    0.5892 H   0  0  0  0  0  0  0  0  0  0  0  0
  2  1  1  1
  2  3  1  0
  3  4  1  0
  4  5  1  0
  5  6  1  0
  6  7  1  0
  7  8  1  0
  8  9  1  0
  9 10  2  0
 10 11  1  0
 11 12  2  0
 12 13  1  0
 13 14  1  0
 14 15  1  0
 15 16  1  0
 15 17  2  0
 15 18  2  0
 13 19  2  0
  6 20  1  0
 20 21  1  0
 21 22  1  0
 22 23  1  0
 23 24  2  0
 20  2  1  0
 23  2  1  0
 10  5  1  0
 19  9  1  0
  1 25  1  0
  1 26  1  0
  1 27  1  0
  3 28  1  0
  3 29  1  0
  4 30  1  0
  4 31  1  0
  5 32  1  6
  6 33  1  1
  7 34  1  0
  7 35  1  0
  8 36  1  0
  8 37  1  0
 11 38  1  0
 12 39  1  0
 16 40  1  0
 19 41  1  0
 20 42  1  6
 21 43  1  0
 21 44  1  0
 22 45  1  0
 22 46  1  0
M  END
$$$$
