
     RDKit          3D

 65 66  0  0  0  0  0  0  0  0999 V2000
   -2.5126    0.8400    0.2334 C   0  0  2  0  0  0  0  0  0  0  0  0
   -2.6986    0.3014   -1.1905 C   0  0  0  0  0  0  0  0  0  0  0  0
   -1.6353    0.9776   -2.0535 C   0  0  0  0  0  0  0  0  0  0  0  0
   -0.9949    2.1131   -1.2149 C   0  0  2  0  0  0  0  0  0  0  0  0
   -1.8296    3.4034   -1.4667 C   0  0  0  0  0  0  0  0  0  0  0  0
    0.4649    2.3383   -1.7462 C   0  0  0  0  0  0  0  0  0  0  0  0
    1.2644    3.4726   -1.0822 C   0  0  0  0  0  0  0  0  0  0  0  0
    2.5639    3.6234   -1.7451 C   0  0  0  0  0  0  0  0  0  0  0  0
    3.6316    3.7423   -2.2926 C   0  0  0  0  0  0  0  0  0  0  0  0
    4.9357    3.8826   -2.9651 C   0  0  0  0  0  0  0  0  0  0  0  0
    5.4593    5.1395   -2.6089 O   0  0  0  0  0  0  0  0  0  0  0  0
    5.8753    2.7571   -2.4626 C   0  0  0  0  0  0  0  0  0  0  0  0
    7.1120    2.8380   -3.0788 F   0  0  0  0  0  0  0  0  0  0  0  0
    5.3321    1.5101   -2.7244 F   0  0  0  0  0  0  0  0  0  0  0  0
    6.0634    2.8767   -1.0957 F   0  0  0  0  0  0  0  0  0  0  0  0
    4.7117    3.8184   -4.4973 C   0  0  0  0  0  0  0  0  0  0  0  0
    3.8901    4.8594   -4.8965 F   0  0  0  0  0  0  0  0  0  0  0  0
    5.9135    3.9308   -5.1746 F   0  0  0  0  0  0  0  0  0  0  0  0
    4.1123    2.6224   -4.8565 F   0  0  0  0  0  0  0  0  0  0  0  0
   -1.1377    1.5775    0.2691 C   0  0  0  0  0  0  0  0  0  0  0  0
   -1.1841    2.6883    1.3519 C   0  0  0  0  0  0  0  0  0  0  0  0
    0.0173    0.6040    0.6380 C   0  0  0  0  0  0  0  0  0  0  0  0
   -2.7848   -0.1691    1.3358 C   0  0  0  0  0  0  0  0  0  0  0  0
   -2.2773   -1.4078    1.3630 C   0  0  0  0  0  0  0  0  0  0  0  0
   -2.5987   -2.3318    2.4709 C   0  0  0  0  0  0  0  0  0  0  0  0
   -2.1015   -3.5793    2.5706 C   0  0  0  0  0  0  0  0  0  0  0  0
   -1.1845   -4.1654    1.5172 C   0  0  0  0  0  0  0  0  0  0  0  0
   -0.8202   -5.6290    1.8250 C   0  0  1  0  0  0  0  0  0  0  0  0
    0.1667   -6.0746    0.9320 O   0  0  0  0  0  0  0  0  0  0  0  0
   -0.2980   -5.7678    3.2646 C   0  0  0  0  0  0  0  0  0  0  0  0
   -1.2459   -5.1488    4.3327 C   0  0  2  0  0  0  0  0  0  0  0  0
   -1.6348   -6.1150    5.2763 O   0  0  0  0  0  0  0  0  0  0  0  0
   -2.4889   -4.4491    3.7431 C   0  0  0  0  0  0  0  0  0  0  0  0
   -3.3062    1.6114    0.3599 H   0  0  0  0  0  0  0  0  0  0  0  0
   -2.5872   -0.8010   -1.2564 H   0  0  0  0  0  0  0  0  0  0  0  0
   -3.7139    0.5577   -1.5667 H   0  0  0  0  0  0  0  0  0  0  0  0
   -0.8743    0.2116   -2.3246 H   0  0  0  0  0  0  0  0  0  0  0  0
   -2.0744    1.3466   -3.0073 H   0  0  0  0  0  0  0  0  0  0  0  0
   -1.4843    4.2501   -0.8411 H   0  0  0  0  0  0  0  0  0  0  0  0
   -1.7470    3.7198   -2.5290 H   0  0  0  0  0  0  0  0  0  0  0  0
   -2.9064    3.2417   -1.2524 H   0  0  0  0  0  0  0  0  0  0  0  0
    0.4003    2.5642   -2.8354 H   0  0  0  0  0  0  0  0  0  0  0  0
    1.0547    1.3987   -1.6761 H   0  0  0  0  0  0  0  0  0  0  0  0
    0.7307    4.4400   -1.1629 H   0  0  0  0  0  0  0  0  0  0  0  0
    1.4620    3.2514   -0.0182 H   0  0  0  0  0  0  0  0  0  0  0  0
    6.3390    5.2459   -3.0566 H   0  0  0  0  0  0  0  0  0  0  0  0
   -2.0611    3.3567    1.2266 H   0  0  0  0  0  0  0  0  0  0  0  0
   -0.2716    3.3120    1.3415 H   0  0  0  0  0  0  0  0  0  0  0  0
   -1.2712    2.2336    2.3622 H   0  0  0  0  0  0  0  0  0  0  0  0
    0.0915   -0.2300   -0.0904 H   0  0  0  0  0  0  0  0  0  0  0  0
    0.9934    1.1264    0.6677 H   0  0  0  0  0  0  0  0  0  0  0  0
   -0.1231    0.1791    1.6536 H   0  0  0  0  0  0  0  0  0  0  0  0
   -3.4577    0.1392    2.1284 H   0  0  0  0  0  0  0  0  0  0  0  0
   -1.6140   -1.7291    0.5736 H   0  0  0  0  0  0  0  0  0  0  0  0
   -3.2666   -1.9727    3.2462 H   0  0  0  0  0  0  0  0  0  0  0  0
   -1.6870   -4.1279    0.5262 H   0  0  0  0  0  0  0  0  0  0  0  0
   -0.2527   -3.5599    1.4697 H   0  0  0  0  0  0  0  0  0  0  0  0
   -1.7297   -6.2664    1.7191 H   0  0  0  0  0  0  0  0  0  0  0  0
   -0.2811   -6.2138    0.0567 H   0  0  0  0  0  0  0  0  0  0  0  0
   -0.1243   -6.8456    3.4774 H   0  0  0  0  0  0  0  0  0  0  0  0
    0.6943   -5.2683    3.3324 H   0  0  0  0  0  0  0  0  0  0  0  0
   -0.6677   -4.3717    4.8805 H   0  0  0  0  0  0  0  0  0  0  0  0
   -2.1473   -6.8141    4.7913 H   0  0  0  0  0  0  0  0  0  0  0  0
   -3.2226   -5.2057    3.3900 H   0  0  0  0  0  0  0  0  0  0  0  0
   -2.9810   -3.8593    4.5479 H   0  0  0  0  0  0  0  0  0  0  0  0
  1  2  1  0
  2  3  1  0
  3  4  1  0
  4  5  1  1
  4  6  1  0
  6  7  1  0
  7  8  1  0
  8  9  3  0
  9 10  1  0
 10 11  1  0
 10 12  1  0
 12 13  1  0
 12 14  1  0
 12 15  1  0
 10 16  1  0
 16 17  1  0
 16 18  1  0
 16 19  1  0
  4 20  1  0
 20 21  1  0
 20 22  1  0
  1 23  1  0
 23 24  2  0
 24 25  1  0
 25 26  2  0
 26 27  1  0
 27 28  1  0
 28 29  1  0
 28 30  1  0
 30 31  1  0
 31 32  1  0
 31 33  1  0
 20  1  1  0
 33 26  1  0
  1 34  1  1
  2 35  1  0
  2 36  1  0
  3 37  1  0
  3 38  1  0
  5 39  1  0
  5 40  1  0
  5 41  1  0
  6 42  1  0
  6 43  1  0
  7 44  1  0
  7 45  1  0
 11 46  1  0
 21 47  1  0
 21 48  1  0
 21 49  1  0
 22 50  1  0
 22 51  1  0
 22 52  1  0
 23 53  1  0
 24 54  1  0
 25 55  1  0
 27 56  1  0
 27 57  1  0
 28 58  1  1
 29 59  1  0
 30 60  1  0
 30 61  1  0
 31 62  1  1
 32 63  1  0
 33 64  1  0
 33 65  1  0
M  END
$$$$
