
     RDKit          3D

 41 43  0  0  0  0  0  0  0  0999 V2000
   -0.8980   -1.2809    1.4191 C   0  0  2  0  0  0  0  0  0  0  0  0
    0.4378   -1.9730    1.1300 C   0  0  0  0  0  0  0  0  0  0  0  0
    1.2791   -1.2531    0.1172 C   0  0  0  0  0  0  0  0  0  0  0  0
    2.2240   -2.0054   -0.6018 C   0  0  0  0  0  0  0  0  0  0  0  0
    3.0787   -1.3927   -1.5143 C   0  0  0  0  0  0  0  0  0  0  0  0
    3.0169   -0.0167   -1.7125 C   0  0  0  0  0  0  0  0  0  0  0  0
    3.8783    0.5841   -2.6280 O   0  0  0  0  0  0  0  0  0  0  0  0
    2.0939    0.7488   -0.9921 C   0  0  0  0  0  0  0  0  0  0  0  0
    1.2061    0.1513   -0.0646 C   0  0  0  0  0  0  0  0  0  0  0  0
    0.1940    1.0357    0.6932 C   0  0  1  0  0  0  0  0  0  0  0  0
    1.0226    2.0482    1.5370 C   0  0  0  0  0  0  0  0  0  0  0  0
   -0.6588    1.8843   -0.3218 C   0  0  0  0  0  0  0  0  0  0  0  0
   -1.2033    1.1665   -1.5696 C   0  0  0  0  0  0  0  0  0  0  0  0
   -2.3565    0.1995   -1.2883 C   0  0  0  0  0  0  0  0  0  0  0  0
   -1.8849   -1.2403   -1.0164 C   0  0  0  0  0  0  0  0  0  0  0  0
   -2.0422   -1.6648    0.4482 C   0  0  0  0  0  0  0  0  0  0  0  0
   -0.6979    0.2222    1.7257 C   0  0  1  0  0  0  0  0  0  0  0  0
   -1.9843    0.8729    2.0078 N   0  0  0  0  0  0  0  0  0  0  0  0
   -1.2328   -1.7303    2.3839 H   0  0  0  0  0  0  0  0  0  0  0  0
    1.0265   -2.0288    2.0721 H   0  0  0  0  0  0  0  0  0  0  0  0
    0.2480   -3.0203    0.8058 H   0  0  0  0  0  0  0  0  0  0  0  0
    2.3019   -3.0755   -0.4519 H   0  0  0  0  0  0  0  0  0  0  0  0
    3.7960   -1.9888   -2.0642 H   0  0  0  0  0  0  0  0  0  0  0  0
    3.8601    1.5832   -2.7969 H   0  0  0  0  0  0  0  0  0  0  0  0
    2.0666    1.8145   -1.1720 H   0  0  0  0  0  0  0  0  0  0  0  0
    0.3573    2.6962    2.1461 H   0  0  0  0  0  0  0  0  0  0  0  0
    1.6399    2.7202    0.9048 H   0  0  0  0  0  0  0  0  0  0  0  0
    1.7153    1.5147    2.2241 H   0  0  0  0  0  0  0  0  0  0  0  0
   -1.4890    2.4190    0.1831 H   0  0  0  0  0  0  0  0  0  0  0  0
   -0.0264    2.7100   -0.7160 H   0  0  0  0  0  0  0  0  0  0  0  0
   -0.3941    0.6756   -2.1488 H   0  0  0  0  0  0  0  0  0  0  0  0
   -1.5999    1.9597   -2.2420 H   0  0  0  0  0  0  0  0  0  0  0  0
   -3.0128    0.5909   -0.4821 H   0  0  0  0  0  0  0  0  0  0  0  0
   -2.9922    0.1751   -2.2017 H   0  0  0  0  0  0  0  0  0  0  0  0
   -0.8601   -1.4326   -1.3891 H   0  0  0  0  0  0  0  0  0  0  0  0
   -2.5355   -1.9170   -1.6142 H   0  0  0  0  0  0  0  0  0  0  0  0
   -2.1284   -2.7743    0.4628 H   0  0  0  0  0  0  0  0  0  0  0  0
   -3.0140   -1.3003    0.8462 H   0  0  0  0  0  0  0  0  0  0  0  0
   -0.1406    0.2034    2.6942 H   0  0  0  0  0  0  0  0  0  0  0  0
   -2.4927    0.3180    2.7347 H   0  0  0  0  0  0  0  0  0  0  0  0
   -1.7988    1.8007    2.4523 H   0  0  0  0  0  0  0  0  0  0  0  0
  1  2  1  0
  2  3  1  0
  3  4  2  0
  4  5  1  0
  5  6  2  0
  6  7  1  0
  6  8  1  0
  8  9  2  0
  9 10  1  0
 10 11  1  1
 10 12  1  0
 12 13  1  0
 13 14  1  0
 14 15  1  0
 15 16  1  0
 10 17  1  0
 17 18  1  0
 16  1  1  0
 17  1  1  0
  9  3  1  0
  1 19  1  1
  2 20  1  0
  2 21  1  0
  4 22  1  0
  5 23  1  0
  7 24  1  0
  8 25  1  0
 11 26  1  0
 11 27  1  0
 11 28  1  0
 12 29  1  0
 12 30  1  0
 13 31  1  0
 13 32  1  0
 14 33  1  0
 14 34  1  0
 15 35  1  0
 15 36  1  0
 16 37  1  0
 16 38  1  0
 17 39  1  1
 18 40  1  0
 18 41  1  0
M  END
$$$$
