
     RDKit          3D

 41 43  0  0  0  0  0  0  0  0999 V2000
    2.3652   -2.3516    2.8151 N   0  0  0  0  0  0  0  0  0  0  0  0
    3.0062   -1.6308    1.7604 C   0  0  0  0  0  0  0  0  0  0  0  0
    4.2614   -1.6827    1.6541 O   0  0  0  0  0  0  0  0  0  0  0  0
    2.2408   -0.8234    0.8433 N   0  0  0  0  0  0  0  0  0  0  0  0
    0.8839   -1.1640    0.4948 C   0  0  0  0  0  0  0  0  0  0  0  0
    0.4890   -2.4979    0.3343 C   0  0  0  0  0  0  0  0  0  0  0  0
   -0.8280   -2.7876   -0.0174 C   0  0  0  0  0  0  0  0  0  0  0  0
   -1.7550   -1.7545   -0.2275 C   0  0  0  0  0  0  0  0  0  0  0  0
   -3.1698   -2.0995   -0.5080 C   0  0  0  0  0  0  0  0  0  0  0  0
   -3.5014   -3.2196   -1.3311 N   0  0  0  0  0  0  0  0  0  0  0  0
   -4.0980   -1.4115   -0.0046 O   0  0  0  0  0  0  0  0  0  0  0  0
   -1.3089   -0.4151   -0.0961 C   0  0  0  0  0  0  0  0  0  0  0  0
   -0.0180   -0.1730    0.2615 N   0  0  0  0  0  0  0  0  0  0  0  0
   -2.1750    0.7502   -0.3824 C   0  0  0  0  0  0  0  0  0  0  0  0
   -2.8482    0.8520   -1.6129 C   0  0  0  0  0  0  0  0  0  0  0  0
   -3.6387    1.9699   -1.8947 C   0  0  0  0  0  0  0  0  0  0  0  0
   -3.7536    3.0006   -0.9585 C   0  0  0  0  0  0  0  0  0  0  0  0
   -4.5197    4.0847   -1.2342 F   0  0  0  0  0  0  0  0  0  0  0  0
   -3.0735    2.9170    0.2596 C   0  0  0  0  0  0  0  0  0  0  0  0
   -2.2808    1.8009    0.5475 C   0  0  0  0  0  0  0  0  0  0  0  0
   -1.6325    1.7374    1.7385 F   0  0  0  0  0  0  0  0  0  0  0  0
    2.8349    0.3608    0.2760 C   0  0  0  0  0  0  0  0  0  0  0  0
    3.3996    1.3448    1.1096 C   0  0  0  0  0  0  0  0  0  0  0  0
    3.3778    1.2005    2.4586 F   0  0  0  0  0  0  0  0  0  0  0  0
    3.9648    2.4973    0.5545 C   0  0  0  0  0  0  0  0  0  0  0  0
    3.9714    2.6789   -0.8304 C   0  0  0  0  0  0  0  0  0  0  0  0
    3.4120    1.7089   -1.6654 C   0  0  0  0  0  0  0  0  0  0  0  0
    2.8445    0.5537   -1.1187 C   0  0  0  0  0  0  0  0  0  0  0  0
    2.3233   -0.3857   -1.9476 F   0  0  0  0  0  0  0  0  0  0  0  0
    2.9274   -2.9570    3.4535 H   0  0  0  0  0  0  0  0  0  0  0  0
    1.3444   -2.2400    3.0016 H   0  0  0  0  0  0  0  0  0  0  0  0
    1.1926   -3.3075    0.4795 H   0  0  0  0  0  0  0  0  0  0  0  0
   -1.1277   -3.8250   -0.0965 H   0  0  0  0  0  0  0  0  0  0  0  0
   -4.5012   -3.4772   -1.4870 H   0  0  0  0  0  0  0  0  0  0  0  0
   -2.7624   -3.7601   -1.8325 H   0  0  0  0  0  0  0  0  0  0  0  0
   -2.7538    0.0708   -2.3571 H   0  0  0  0  0  0  0  0  0  0  0  0
   -4.1573    2.0386   -2.8423 H   0  0  0  0  0  0  0  0  0  0  0  0
   -3.1598    3.7188    0.9818 H   0  0  0  0  0  0  0  0  0  0  0  0
    4.3940    3.2538    1.1987 H   0  0  0  0  0  0  0  0  0  0  0  0
    4.4092    3.5722   -1.2568 H   0  0  0  0  0  0  0  0  0  0  0  0
    3.4211    1.8519   -2.7383 H   0  0  0  0  0  0  0  0  0  0  0  0
  1  2  1  0
  2  3  2  0
  2  4  1  0
  4  5  1  0
  5  6  2  0
  6  7  1  0
  7  8  2  0
  8  9  1  0
  9 10  1  0
  9 11  2  0
  8 12  1  0
 12 13  2  0
 12 14  1  0
 14 15  2  0
 15 16  1  0
 16 17  2  0
 17 18  1  0
 17 19  1  0
 19 20  2  0
 20 21  1  0
  4 22  1  0
 22 23  2  0
 23 24  1  0
 23 25  1  0
 25 26  2  0
 26 27  1  0
 27 28  2  0
 28 29  1  0
 13  5  1  0
 20 14  1  0
 28 22  1  0
  1 30  1  0
  1 31  1  0
  6 32  1  0
  7 33  1  0
 10 34  1  0
 10 35  1  0
 15 36  1  0
 16 37  1  0
 19 38  1  0
 25 39  1  0
 26 40  1  0
 27 41  1  0
M  END
$$$$
