
     RDKit          3D

 33 32  0  0  0  0  0  0  0  0999 V2000
   -5.5003    1.2656    0.1040 O   0  0  0  0  0  0  0  0  0  0  0  0
   -4.4067    0.9151    0.9077 C   0  0  0  0  0  0  0  0  0  0  0  0
   -3.3309    0.2237    0.0658 C   0  0  0  0  0  0  0  0  0  0  0  0
   -2.1326   -0.1895    0.9337 C   0  0  0  0  0  0  0  0  0  0  0  0
   -1.0839   -0.9973    0.1520 C   0  0  0  0  0  0  0  0  0  0  0  0
   -0.2436   -0.1177   -0.7895 C   0  0  0  0  0  0  0  0  0  0  0  0
    0.7604   -0.9291   -1.6286 C   0  0  0  0  0  0  0  0  0  0  0  0
    1.8317   -1.6858   -0.8180 C   0  0  0  0  0  0  0  0  0  0  0  0
    2.6858   -0.7868    0.0876 C   0  0  0  0  0  0  0  0  0  0  0  0
    3.3191    0.2853   -0.6899 N   0  0  0  0  0  0  0  0  0  0  0  0
    4.0433    1.2006    0.1978 C   0  0  0  0  0  0  0  0  0  0  0  0
    4.6451    2.2159   -0.5566 O   0  0  0  0  0  0  0  0  0  0  0  0
   -5.2299    2.0722   -0.4080 H   0  0  0  0  0  0  0  0  0  0  0  0
   -3.9873    1.8200    1.4046 H   0  0  0  0  0  0  0  0  0  0  0  0
   -4.7616    0.2216    1.6997 H   0  0  0  0  0  0  0  0  0  0  0  0
   -3.7727   -0.6763   -0.4153 H   0  0  0  0  0  0  0  0  0  0  0  0
   -3.0004    0.9236   -0.7300 H   0  0  0  0  0  0  0  0  0  0  0  0
   -1.6588    0.7117    1.3816 H   0  0  0  0  0  0  0  0  0  0  0  0
   -2.5010   -0.8251    1.7690 H   0  0  0  0  0  0  0  0  0  0  0  0
   -0.4117   -1.4742    0.8960 H   0  0  0  0  0  0  0  0  0  0  0  0
   -1.5819   -1.8078   -0.4240 H   0  0  0  0  0  0  0  0  0  0  0  0
    0.2861    0.6672   -0.2093 H   0  0  0  0  0  0  0  0  0  0  0  0
   -0.9158    0.4047   -1.5013 H   0  0  0  0  0  0  0  0  0  0  0  0
    1.2653   -0.2387   -2.3386 H   0  0  0  0  0  0  0  0  0  0  0  0
    0.2002   -1.6657   -2.2449 H   0  0  0  0  0  0  0  0  0  0  0  0
    2.5044   -2.2062   -1.5341 H   0  0  0  0  0  0  0  0  0  0  0  0
    1.3542   -2.4774   -0.2032 H   0  0  0  0  0  0  0  0  0  0  0  0
    3.4651   -1.4154    0.5749 H   0  0  0  0  0  0  0  0  0  0  0  0
    2.0466   -0.3624    0.8923 H   0  0  0  0  0  0  0  0  0  0  0  0
    4.0191   -0.1527   -1.3344 H   0  0  0  0  0  0  0  0  0  0  0  0
    4.8390    0.6534    0.7503 H   0  0  0  0  0  0  0  0  0  0  0  0
    3.3470    1.6528    0.9411 H   0  0  0  0  0  0  0  0  0  0  0  0
    3.9063    2.7747   -0.9138 H   0  0  0  0  0  0  0  0  0  0  0  0
  1  2  1  0
  2  3  1  0
  3  4  1  0
  4  5  1  0
  5  6  1  0
  6  7  1  0
  7  8  1  0
  8  9  1  0
  9 10  1  0
 10 11  1  0
 11 12  1  0
  1 13  1  0
  2 14  1  0
  2 15  1  0
  3 16  1  0
  3 17  1  0
  4 18  1  0
  4 19  1  0
  5 20  1  0
  5 21  1  0
  6 22  1  0
  6 23  1  0
  7 24  1  0
  7 25  1  0
  8 26  1  0
  8 27  1  0
  9 28  1  0
  9 29  1  0
 10 30  1  0
 11 31  1  0
 11 32  1  0
 12 33  1  0
M  END
$$$$
