
     RDKit          3D

 43 46  0  0  0  0  0  0  0  0999 V2000
    4.4960    1.1264    1.2932 C   0  0  0  0  0  0  0  0  0  0  0  0
    3.9751    0.1005    0.3756 N   0  0  0  0  0  0  0  0  0  0  0  0
    5.0697   -0.3986   -0.4752 C   0  0  0  0  0  0  0  0  0  0  0  0
    2.8796    0.6630   -0.4412 C   0  0  0  0  0  0  0  0  0  0  0  0
    2.0481   -0.4313   -1.0511 C   0  0  0  0  0  0  0  0  0  0  0  0
    2.2995   -0.9497   -2.2708 N   0  0  0  0  0  0  0  0  0  0  0  0
    1.3288   -1.8115   -2.5384 N   0  0  0  0  0  0  0  0  0  0  0  0
    0.5061   -1.8098   -1.4731 C   0  0  0  0  0  0  0  0  0  0  0  0
   -0.7978   -2.5253   -1.4098 C   0  0  0  0  0  0  0  0  0  0  0  0
   -1.8660   -1.5349   -1.3560 N   0  0  0  0  0  0  0  0  0  0  0  0
   -2.0433   -0.6496   -0.4125 C   0  0  0  0  0  0  0  0  0  0  0  0
   -3.1788    0.2991   -0.5545 C   0  0  0  0  0  0  0  0  0  0  0  0
   -4.3559   -0.0931   -1.2199 C   0  0  0  0  0  0  0  0  0  0  0  0
   -5.4203    0.8023   -1.3635 C   0  0  0  0  0  0  0  0  0  0  0  0
   -5.3197    2.0984   -0.8533 C   0  0  0  0  0  0  0  0  0  0  0  0
   -4.1529    2.5035   -0.2016 C   0  0  0  0  0  0  0  0  0  0  0  0
   -3.0856    1.6125   -0.0549 C   0  0  0  0  0  0  0  0  0  0  0  0
   -1.1614   -0.5875    0.7991 C   0  0  0  0  0  0  0  0  0  0  0  0
    0.2553   -0.6919    0.7275 C   0  0  0  0  0  0  0  0  0  0  0  0
    1.0101   -0.6233    1.9110 C   0  0  0  0  0  0  0  0  0  0  0  0
    0.3908   -0.4169    3.1428 C   0  0  0  0  0  0  0  0  0  0  0  0
   -0.9958   -0.3002    3.2166 C   0  0  0  0  0  0  0  0  0  0  0  0
   -1.7737   -0.0540    4.7695 Cl  0  0  0  0  0  0  0  0  0  0  0  0
   -1.7663   -0.3936    2.0563 C   0  0  0  0  0  0  0  0  0  0  0  0
    0.9193   -0.9565   -0.5230 N   0  0  0  0  0  0  0  0  0  0  0  0
    4.8762    2.0111    0.7348 H   0  0  0  0  0  0  0  0  0  0  0  0
    5.3173    0.7076    1.9142 H   0  0  0  0  0  0  0  0  0  0  0  0
    3.6974    1.4542    1.9933 H   0  0  0  0  0  0  0  0  0  0  0  0
    5.8834   -0.8192    0.1543 H   0  0  0  0  0  0  0  0  0  0  0  0
    5.4903    0.4109   -1.1129 H   0  0  0  0  0  0  0  0  0  0  0  0
    4.7104   -1.2241   -1.1236 H   0  0  0  0  0  0  0  0  0  0  0  0
    2.2073    1.2959    0.1795 H   0  0  0  0  0  0  0  0  0  0  0  0
    3.2776    1.3214   -1.2464 H   0  0  0  0  0  0  0  0  0  0  0  0
   -0.9301   -3.1575   -2.3126 H   0  0  0  0  0  0  0  0  0  0  0  0
   -0.8340   -3.1760   -0.5097 H   0  0  0  0  0  0  0  0  0  0  0  0
   -4.4574   -1.0952   -1.6178 H   0  0  0  0  0  0  0  0  0  0  0  0
   -6.3241    0.4903   -1.8706 H   0  0  0  0  0  0  0  0  0  0  0  0
   -6.1445    2.7901   -0.9663 H   0  0  0  0  0  0  0  0  0  0  0  0
   -4.0730    3.5108    0.1865 H   0  0  0  0  0  0  0  0  0  0  0  0
   -2.1836    1.9542    0.4371 H   0  0  0  0  0  0  0  0  0  0  0  0
    2.0796   -0.7667    1.8886 H   0  0  0  0  0  0  0  0  0  0  0  0
    0.9903   -0.3653    4.0429 H   0  0  0  0  0  0  0  0  0  0  0  0
   -2.8442   -0.3205    2.1375 H   0  0  0  0  0  0  0  0  0  0  0  0
  1  2  1  0
  2  3  1  0
  2  4  1  0
  4  5  1  0
  5  6  2  0
  6  7  1  0
  7  8  2  0
  8  9  1  0
  9 10  1  0
 10 11  2  0
 11 12  1  0
 12 13  2  0
 13 14  1  0
 14 15  2  0
 15 16  1  0
 16 17  2  0
 11 18  1  0
 18 19  2  0
 19 20  1  0
 20 21  2  0
 21 22  1  0
 22 23  1  0
 22 24  2  0
 19 25  1  0
 25  5  1  0
 25  8  1  0
 17 12  1  0
 24 18  1  0
  1 26  1  0
  1 27  1  0
  1 28  1  0
  3 29  1  0
  3 30  1  0
  3 31  1  0
  4 32  1  0
  4 33  1  0
  9 34  1  0
  9 35  1  0
 13 36  1  0
 14 37  1  0
 15 38  1  0
 16 39  1  0
 17 40  1  0
 20 41  1  0
 21 42  1  0
 24 43  1  0
M  END
$$$$
