
     RDKit          3D

 32 34  0  0  0  0  0  0  0  0999 V2000
   -5.0551   -1.0917    0.4818 N   0  0  0  0  0  0  0  0  0  0  0  0
   -3.7496   -0.8365   -0.0364 C   0  0  0  0  0  0  0  0  0  0  0  0
   -3.3993   -1.2706   -1.2842 N   0  0  0  0  0  0  0  0  0  0  0  0
   -2.1463   -1.0429   -1.7951 C   0  0  0  0  0  0  0  0  0  0  0  0
   -1.8330   -1.4912   -3.0342 F   0  0  0  0  0  0  0  0  0  0  0  0
   -1.2106   -0.3692   -1.0607 N   0  0  0  0  0  0  0  0  0  0  0  0
   -1.5636    0.0665    0.1731 C   0  0  0  0  0  0  0  0  0  0  0  0
   -2.7902   -0.1504    0.6996 C   0  0  0  0  0  0  0  0  0  0  0  0
   -2.8640    0.3495    1.9476 N   0  0  0  0  0  0  0  0  0  0  0  0
   -1.6214    0.8747    2.1349 C   0  0  0  0  0  0  0  0  0  0  0  0
   -0.8045    0.7247    1.0603 N   0  0  0  0  0  0  0  0  0  0  0  0
    0.6090    1.1007    0.9667 C   0  0  2  0  0  0  0  0  0  0  0  0
    0.9461    1.4249   -0.3631 O   0  0  0  0  0  0  0  0  0  0  0  0
    2.2666    0.9804   -0.5992 C   0  0  2  0  0  0  0  0  0  0  0  0
    2.2731    0.1025   -1.8585 C   0  0  0  0  0  0  0  0  0  0  0  0
    3.5898   -0.1563   -2.2703 O   0  0  0  0  0  0  0  0  0  0  0  0
    2.7784    0.2245    0.6402 C   0  0  1  0  0  0  0  0  0  0  0  0
    3.7148    0.9933    1.3590 O   0  0  0  0  0  0  0  0  0  0  0  0
    1.5267   -0.0147    1.4539 C   0  0  2  0  0  0  0  0  0  0  0  0
    0.9862   -1.2761    1.1488 O   0  0  0  0  0  0  0  0  0  0  0  0
   -5.3290   -0.7643    1.4349 H   0  0  0  0  0  0  0  0  0  0  0  0
   -5.7547   -1.6121   -0.0925 H   0  0  0  0  0  0  0  0  0  0  0  0
   -1.3148    1.3524    3.0565 H   0  0  0  0  0  0  0  0  0  0  0  0
    0.7789    2.0068    1.5916 H   0  0  0  0  0  0  0  0  0  0  0  0
    2.9044    1.8704   -0.7987 H   0  0  0  0  0  0  0  0  0  0  0  0
    1.7567    0.6464   -2.6779 H   0  0  0  0  0  0  0  0  0  0  0  0
    1.7067   -0.8418   -1.6800 H   0  0  0  0  0  0  0  0  0  0  0  0
    3.8353   -1.0518   -1.9201 H   0  0  0  0  0  0  0  0  0  0  0  0
    3.2642   -0.7409    0.3783 H   0  0  0  0  0  0  0  0  0  0  0  0
    3.2882    1.8568    1.6027 H   0  0  0  0  0  0  0  0  0  0  0  0
    1.7084    0.0762    2.5509 H   0  0  0  0  0  0  0  0  0  0  0  0
    1.5026   -1.9404    1.6756 H   0  0  0  0  0  0  0  0  0  0  0  0
  1  2  1  0
  2  3  2  0
  3  4  1  0
  4  5  1  0
  4  6  2  0
  6  7  1  0
  7  8  2  0
  8  9  1  0
  9 10  2  0
 10 11  1  0
 11 12  1  0
 12 13  1  0
 13 14  1  0
 14 15  1  0
 15 16  1  0
 14 17  1  0
 17 18  1  0
 17 19  1  0
 19 20  1  0
  8  2  1  0
 19 12  1  0
 11  7  1  0
  1 21  1  0
  1 22  1  0
 10 23  1  0
 12 24  1  1
 14 25  1  6
 15 26  1  0
 15 27  1  0
 16 28  1  0
 17 29  1  6
 18 30  1  0
 19 31  1  1
 20 32  1  0
M  END
$$$$
