
     RDKit          3D

 16 15  0  0  0  0  0  0  0  0999 V2000
   -0.9298   -1.3235   -0.6005 C   0  0  0  0  0  0  0  0  0  0  0  0
   -0.7692   -0.1110    0.3253 C   0  0  1  0  0  0  0  0  0  0  0  0
   -0.4513   -0.5362    1.6260 O   0  0  0  0  0  0  0  0  0  0  0  0
    0.3020    0.8820   -0.1841 C   0  0  2  0  0  0  0  0  0  0  0  0
    1.7120    0.2812   -0.1989 C   0  0  0  0  0  0  0  0  0  0  0  0
    0.3118    2.0235    0.6338 O   0  0  0  0  0  0  0  0  0  0  0  0
   -1.0867   -0.9935   -1.6494 H   0  0  0  0  0  0  0  0  0  0  0  0
   -0.0373   -1.9815   -0.5508 H   0  0  0  0  0  0  0  0  0  0  0  0
   -1.8140   -1.9178   -0.2867 H   0  0  0  0  0  0  0  0  0  0  0  0
   -1.7441    0.4308    0.3410 H   0  0  0  0  0  0  0  0  0  0  0  0
   -1.2814   -0.9178    2.0151 H   0  0  0  0  0  0  0  0  0  0  0  0
    0.0528    1.1814   -1.2295 H   0  0  0  0  0  0  0  0  0  0  0  0
    1.9944   -0.0916    0.8084 H   0  0  0  0  0  0  0  0  0  0  0  0
    2.4445    1.0591   -0.5025 H   0  0  0  0  0  0  0  0  0  0  0  0
    1.7796   -0.5494   -0.9316 H   0  0  0  0  0  0  0  0  0  0  0  0
   -0.4831    2.5641    0.3845 H   0  0  0  0  0  0  0  0  0  0  0  0
  1  2  1  0
  2  3  1  0
  2  4  1  0
  4  5  1  0
  4  6  1  0
  1  7  1  0
  1  8  1  0
  1  9  1  0
  2 10  1  1
  3 11  1  0
  4 12  1  6
  5 13  1  0
  5 14  1  0
  5 15  1  0
  6 16  1  0
M  END
$$$$
