
     RDKit          3D

 36 37  0  0  0  0  0  0  0  0999 V2000
   -3.7828   -0.2362   -1.4597 C   0  0  0  0  0  0  0  0  0  0  0  0
   -3.5954    0.8151   -0.3486 C   0  0  0  0  0  0  0  0  0  0  0  0
   -4.1005    0.2660    0.9999 C   0  0  0  0  0  0  0  0  0  0  0  0
   -4.4263    2.0633   -0.7108 C   0  0  0  0  0  0  0  0  0  0  0  0
   -2.1745    1.1994   -0.2435 N   0  0  0  0  0  0  0  0  0  0  0  0
   -1.0986    0.3036    0.0764 C   0  0  0  0  0  0  0  0  0  0  0  0
   -1.2516   -1.0142    0.3286 N   0  0  0  0  0  0  0  0  0  0  0  0
   -0.0648   -1.6188    0.6049 C   0  0  0  0  0  0  0  0  0  0  0  0
    0.0003   -3.0222    0.8657 N   0  0  0  0  0  0  0  0  0  0  0  0
    1.0537   -0.7761    0.5651 C   0  0  0  0  0  0  0  0  0  0  0  0
    0.5099    0.7751    0.1854 S   0  0  0  0  0  0  0  0  0  0  0  0
    2.4512   -1.1201    0.9018 C   0  0  0  0  0  0  0  0  0  0  0  0
    2.6716   -1.9919    1.7852 O   0  0  0  0  0  0  0  0  0  0  0  0
    3.6000   -0.4348    0.2630 C   0  0  0  0  0  0  0  0  0  0  0  0
    4.8080   -0.2807    0.9677 C   0  0  0  0  0  0  0  0  0  0  0  0
    5.9013    0.3531    0.3690 C   0  0  0  0  0  0  0  0  0  0  0  0
    5.8045    0.8297   -0.9403 C   0  0  0  0  0  0  0  0  0  0  0  0
    4.6158    0.6684   -1.6556 C   0  0  0  0  0  0  0  0  0  0  0  0
    3.5194    0.0359   -1.0614 C   0  0  0  0  0  0  0  0  0  0  0  0
   -4.8620   -0.4508   -1.6170 H   0  0  0  0  0  0  0  0  0  0  0  0
   -3.3540    0.1342   -2.4156 H   0  0  0  0  0  0  0  0  0  0  0  0
   -3.2865   -1.1938   -1.2028 H   0  0  0  0  0  0  0  0  0  0  0  0
   -3.6051   -0.6906    1.2618 H   0  0  0  0  0  0  0  0  0  0  0  0
   -5.1949    0.0755    0.9592 H   0  0  0  0  0  0  0  0  0  0  0  0
   -3.8999    0.9973    1.8121 H   0  0  0  0  0  0  0  0  0  0  0  0
   -4.3124    2.8455    0.0706 H   0  0  0  0  0  0  0  0  0  0  0  0
   -4.0861    2.4881   -1.6800 H   0  0  0  0  0  0  0  0  0  0  0  0
   -5.5056    1.8116   -0.7989 H   0  0  0  0  0  0  0  0  0  0  0  0
   -1.9077    2.1964   -0.4125 H   0  0  0  0  0  0  0  0  0  0  0  0
   -0.8795   -3.5826    0.9085 H   0  0  0  0  0  0  0  0  0  0  0  0
    0.9100   -3.5247    0.9511 H   0  0  0  0  0  0  0  0  0  0  0  0
    4.9025   -0.6400    1.9850 H   0  0  0  0  0  0  0  0  0  0  0  0
    6.8245    0.4744    0.9208 H   0  0  0  0  0  0  0  0  0  0  0  0
    6.6522    1.3187   -1.4025 H   0  0  0  0  0  0  0  0  0  0  0  0
    4.5454    1.0280   -2.6740 H   0  0  0  0  0  0  0  0  0  0  0  0
    2.6178   -0.1017   -1.6443 H   0  0  0  0  0  0  0  0  0  0  0  0
  1  2  1  0
  2  3  1  0
  2  4  1  0
  2  5  1  0
  5  6  1  0
  6  7  2  0
  7  8  1  0
  8  9  1  0
  8 10  2  0
 10 11  1  0
 10 12  1  0
 12 13  2  0
 12 14  1  0
 14 15  2  0
 15 16  1  0
 16 17  2  0
 17 18  1  0
 18 19  2  0
 11  6  1  0
 19 14  1  0
  1 20  1  0
  1 21  1  0
  1 22  1  0
  3 23  1  0
  3 24  1  0
  3 25  1  0
  4 26  1  0
  4 27  1  0
  4 28  1  0
  5 29  1  0
  9 30  1  0
  9 31  1  0
 15 32  1  0
 16 33  1  0
 17 34  1  0
 18 35  1  0
 19 36  1  0
M  END
$$$$
