
     RDKit          3D

 12 11  0  0  0  0  0  0  0  0999 V2000
   -2.0856   -1.4209   -0.7238 F   0  0  0  0  0  0  0  0  0  0  0  0
   -1.7752   -0.6246    0.3655 C   0  0  0  0  0  0  0  0  0  0  0  0
   -2.4260   -1.1305    1.4740 F   0  0  0  0  0  0  0  0  0  0  0  0
   -0.3843   -0.6446    0.6117 O   0  0  0  0  0  0  0  0  0  0  0  0
    0.3064    0.0828   -0.3860 C   0  0  0  0  0  0  0  0  0  0  0  0
    0.2834   -0.6092   -1.5873 F   0  0  0  0  0  0  0  0  0  0  0  0
    1.7572    0.2689    0.0466 C   0  0  0  0  0  0  0  0  0  0  0  0
    1.8053    0.9717    1.2371 F   0  0  0  0  0  0  0  0  0  0  0  0
    2.4465    0.9761   -0.9219 F   0  0  0  0  0  0  0  0  0  0  0  0
    2.3607   -0.9637    0.2222 F   0  0  0  0  0  0  0  0  0  0  0  0
   -2.1550    0.4083    0.1978 H   0  0  0  0  0  0  0  0  0  0  0  0
   -0.1335    1.0959   -0.5360 H   0  0  0  0  0  0  0  0  0  0  0  0
  1  2  1  0
  2  3  1  0
  2  4  1  0
  4  5  1  0
  5  6  1  0
  5  7  1  0
  7  8  1  0
  7  9  1  0
  7 10  1  0
  2 11  1  0
  5 12  1  0
M  END
$$$$
