
     RDKit          3D

 38 38  0  0  0  0  0  0  0  0999 V2000
   -5.0230   -1.1756   -1.1136 C   0  0  0  0  0  0  0  0  0  0  0  0
   -4.0177   -0.1712   -0.5318 C   0  0  0  0  0  0  0  0  0  0  0  0
   -4.6981    1.1900   -0.3479 C   0  0  0  0  0  0  0  0  0  0  0  0
   -3.5000   -0.6454    0.7688 N   0  0  0  0  0  0  0  0  0  0  0  0
   -2.1284   -0.1782    1.0422 C   0  0  0  0  0  0  0  0  0  0  0  0
   -1.0542   -1.1001    0.4128 C   0  0  0  0  0  0  0  0  0  0  0  0
   -1.0812   -2.3912    0.9720 O   0  0  0  0  0  0  0  0  0  0  0  0
    0.3309   -0.4959    0.5414 C   0  0  0  0  0  0  0  0  0  0  0  0
    0.9164   -0.2907    1.8026 C   0  0  0  0  0  0  0  0  0  0  0  0
    2.1899    0.2741    1.9094 C   0  0  0  0  0  0  0  0  0  0  0  0
    2.9081    0.6452    0.7626 C   0  0  0  0  0  0  0  0  0  0  0  0
    4.2165    1.2259    0.9154 N   0  0  0  0  0  0  0  0  0  0  0  0
    5.3169    1.5332   -0.3919 S   0  0  0  0  0  6  0  0  0  0  0  0
    5.7850    0.0040   -1.1746 C   0  0  0  0  0  0  0  0  0  0  0  0
    6.5537    2.1848    0.1589 O   0  0  0  0  0  0  0  0  0  0  0  0
    4.6861    2.4635   -1.3895 O   0  0  0  0  0  0  0  0  0  0  0  0
    2.3183    0.4498   -0.4996 C   0  0  0  0  0  0  0  0  0  0  0  0
    1.0442   -0.1152   -0.6072 C   0  0  0  0  0  0  0  0  0  0  0  0
   -5.4293   -0.8019   -2.0779 H   0  0  0  0  0  0  0  0  0  0  0  0
   -5.8637   -1.3401   -0.4058 H   0  0  0  0  0  0  0  0  0  0  0  0
   -4.5205   -2.1473   -1.3068 H   0  0  0  0  0  0  0  0  0  0  0  0
   -3.1974   -0.0554   -1.2753 H   0  0  0  0  0  0  0  0  0  0  0  0
   -5.0999    1.5544   -1.3175 H   0  0  0  0  0  0  0  0  0  0  0  0
   -5.5325    1.1110    0.3818 H   0  0  0  0  0  0  0  0  0  0  0  0
   -3.9719    1.9416    0.0248 H   0  0  0  0  0  0  0  0  0  0  0  0
   -3.5275   -1.6904    0.8304 H   0  0  0  0  0  0  0  0  0  0  0  0
   -1.9890   -0.1430    2.1437 H   0  0  0  0  0  0  0  0  0  0  0  0
   -1.9866    0.8634    0.6775 H   0  0  0  0  0  0  0  0  0  0  0  0
   -1.2946   -1.2137   -0.6654 H   0  0  0  0  0  0  0  0  0  0  0  0
   -1.0261   -2.3033    1.9588 H   0  0  0  0  0  0  0  0  0  0  0  0
    0.3886   -0.5625    2.7074 H   0  0  0  0  0  0  0  0  0  0  0  0
    2.6198    0.4212    2.8923 H   0  0  0  0  0  0  0  0  0  0  0  0
    4.5687    1.4261    1.8784 H   0  0  0  0  0  0  0  0  0  0  0  0
    6.5280    0.2088   -1.9726 H   0  0  0  0  0  0  0  0  0  0  0  0
    4.8963   -0.4854   -1.6211 H   0  0  0  0  0  0  0  0  0  0  0  0
    6.2342   -0.6740   -0.4200 H   0  0  0  0  0  0  0  0  0  0  0  0
    2.8257    0.7353   -1.4081 H   0  0  0  0  0  0  0  0  0  0  0  0
    0.6142   -0.2518   -1.5918 H   0  0  0  0  0  0  0  0  0  0  0  0
  1  2  1  0
  2  3  1  0
  2  4  1  0
  4  5  1  0
  5  6  1  0
  6  7  1  0
  6  8  1  0
  8  9  2  0
  9 10  1  0
 10 11  2  0
 11 12  1  0
 12 13  1  0
 13 14  1  0
 13 15  2  0
 13 16  2  0
 11 17  1  0
 17 18  2  0
 18  8  1  0
  1 19  1  0
  1 20  1  0
  1 21  1  0
  2 22  1  0
  3 23  1  0
  3 24  1  0
  3 25  1  0
  4 26  1  0
  5 27  1  0
  5 28  1  0
  6 29  1  0
  7 30  1  0
  9 31  1  0
 10 32  1  0
 12 33  1  0
 14 34  1  0
 14 35  1  0
 14 36  1  0
 17 37  1  0
 18 38  1  0
M  END
$$$$
