
     RDKit          3D

 59 60  0  0  0  0  0  0  0  0999 V2000
    3.6659    1.8788    1.2268 C   0  0  0  0  0  0  0  0  0  0  0  0
    3.7306    0.3433    1.0959 C   0  0  0  0  0  0  0  0  0  0  0  0
    2.6031   -0.2852    0.3191 N   0  0  0  0  0  4  0  0  0  0  0  0
    2.6616   -1.7804    0.4952 C   0  0  0  0  0  0  0  0  0  0  0  0
    3.9327   -2.4878   -0.0006 C   0  0  0  0  0  0  0  0  0  0  0  0
    2.6165    0.0904   -1.1432 C   0  0  0  0  0  0  0  0  0  0  0  0
    3.9950    0.3204   -1.7989 C   0  0  0  0  0  0  0  0  0  0  0  0
    1.3094    0.1922    0.9346 C   0  0  0  0  0  0  0  0  0  0  0  0
    0.0095   -0.4957    0.4194 C   0  0  0  0  0  0  0  0  0  0  0  0
   -1.3088    0.2721    0.7913 C   0  0  0  0  0  0  0  0  0  0  0  0
   -1.3565    0.3890    2.2000 O   0  0  0  0  0  0  0  0  0  0  0  0
   -2.5895   -0.5328    0.3566 C   0  0  0  0  0  0  0  0  0  0  0  0
   -2.9027   -1.7399    1.2928 C   0  0  0  0  0  0  0  0  0  0  0  0
   -3.7740   -2.8270    0.6314 C   0  0  0  0  0  0  0  0  0  0  0  0
   -4.7318   -2.2316   -0.4040 C   0  0  0  0  0  0  0  0  0  0  0  0
   -3.9723   -1.5286   -1.5468 C   0  0  0  0  0  0  0  0  0  0  0  0
   -2.5930   -0.9825   -1.1243 C   0  0  0  0  0  0  0  0  0  0  0  0
   -1.3879    1.6801    0.1577 C   0  0  0  0  0  0  0  0  0  0  0  0
   -2.1369    2.6903    0.8014 C   0  0  0  0  0  0  0  0  0  0  0  0
   -2.2561    3.9647    0.2407 C   0  0  0  0  0  0  0  0  0  0  0  0
   -1.6518    4.2508   -0.9828 C   0  0  0  0  0  0  0  0  0  0  0  0
   -0.9399    3.2582   -1.6552 C   0  0  0  0  0  0  0  0  0  0  0  0
   -0.8180    1.9810   -1.1008 C   0  0  0  0  0  0  0  0  0  0  0  0
    3.3820    2.3674    0.2736 H   0  0  0  0  0  0  0  0  0  0  0  0
    4.6608    2.2651    1.5338 H   0  0  0  0  0  0  0  0  0  0  0  0
    2.9403    2.1728    2.0143 H   0  0  0  0  0  0  0  0  0  0  0  0
    3.7637   -0.0709    2.1297 H   0  0  0  0  0  0  0  0  0  0  0  0
    4.7169    0.0992    0.6554 H   0  0  0  0  0  0  0  0  0  0  0  0
    1.8306   -2.2764   -0.0503 H   0  0  0  0  0  0  0  0  0  0  0  0
    2.5331   -2.0422    1.5707 H   0  0  0  0  0  0  0  0  0  0  0  0
    3.9701   -2.5009   -1.1082 H   0  0  0  0  0  0  0  0  0  0  0  0
    4.8604   -2.0613    0.4257 H   0  0  0  0  0  0  0  0  0  0  0  0
    3.8929   -3.5499    0.3218 H   0  0  0  0  0  0  0  0  0  0  0  0
    2.0926   -0.6828   -1.7478 H   0  0  0  0  0  0  0  0  0  0  0  0
    2.0522    1.0331   -1.3131 H   0  0  0  0  0  0  0  0  0  0  0  0
    4.4500    1.2707   -1.4549 H   0  0  0  0  0  0  0  0  0  0  0  0
    3.8607    0.4057   -2.8980 H   0  0  0  0  0  0  0  0  0  0  0  0
    4.7101   -0.4996   -1.6144 H   0  0  0  0  0  0  0  0  0  0  0  0
    1.3454    0.0460    2.0388 H   0  0  0  0  0  0  0  0  0  0  0  0
    1.1910    1.2845    0.7744 H   0  0  0  0  0  0  0  0  0  0  0  0
   -0.0399   -1.5019    0.8797 H   0  0  0  0  0  0  0  0  0  0  0  0
    0.0693   -0.6599   -0.6707 H   0  0  0  0  0  0  0  0  0  0  0  0
   -0.6892    1.0645    2.4900 H   0  0  0  0  0  0  0  0  0  0  0  0
   -3.4540    0.1627    0.4692 H   0  0  0  0  0  0  0  0  0  0  0  0
   -1.9751   -2.2258    1.6559 H   0  0  0  0  0  0  0  0  0  0  0  0
   -3.4334   -1.3586    2.1931 H   0  0  0  0  0  0  0  0  0  0  0  0
   -3.1196   -3.5741    0.1302 H   0  0  0  0  0  0  0  0  0  0  0  0
   -4.3560   -3.3623    1.4125 H   0  0  0  0  0  0  0  0  0  0  0  0
   -5.4009   -1.5015    0.1028 H   0  0  0  0  0  0  0  0  0  0  0  0
   -5.3726   -3.0366   -0.8242 H   0  0  0  0  0  0  0  0  0  0  0  0
   -4.5986   -0.6922   -1.9271 H   0  0  0  0  0  0  0  0  0  0  0  0
   -3.8293   -2.2415   -2.3881 H   0  0  0  0  0  0  0  0  0  0  0  0
   -2.3315   -0.1414   -1.7971 H   0  0  0  0  0  0  0  0  0  0  0  0
   -1.8383   -1.7853   -1.2713 H   0  0  0  0  0  0  0  0  0  0  0  0
   -2.6376    2.4936    1.7408 H   0  0  0  0  0  0  0  0  0  0  0  0
   -2.8249    4.7296    0.7535 H   0  0  0  0  0  0  0  0  0  0  0  0
   -1.7472    5.2377   -1.4167 H   0  0  0  0  0  0  0  0  0  0  0  0
   -0.4891    3.4751   -2.6152 H   0  0  0  0  0  0  0  0  0  0  0  0
   -0.2897    1.2378   -1.6754 H   0  0  0  0  0  0  0  0  0  0  0  0
  1  2  1  0
  2  3  1  0
  3  4  1  0
  4  5  1  0
  3  6  1  0
  6  7  1  0
  3  8  1  0
  8  9  1  0
  9 10  1  0
 10 11  1  0
 10 12  1  0
 12 13  1  0
 13 14  1  0
 14 15  1  0
 15 16  1  0
 16 17  1  0
 10 18  1  0
 18 19  2  0
 19 20  1  0
 20 21  2  0
 21 22  1  0
 22 23  2  0
 17 12  1  0
 23 18  1  0
  1 24  1  0
  1 25  1  0
  1 26  1  0
  2 27  1  0
  2 28  1  0
  4 29  1  0
  4 30  1  0
  5 31  1  0
  5 32  1  0
  5 33  1  0
  6 34  1  0
  6 35  1  0
  7 36  1  0
  7 37  1  0
  7 38  1  0
  8 39  1  0
  8 40  1  0
  9 41  1  0
  9 42  1  0
 11 43  1  0
 12 44  1  0
 13 45  1  0
 13 46  1  0
 14 47  1  0
 14 48  1  0
 15 49  1  0
 15 50  1  0
 16 51  1  0
 16 52  1  0
 17 53  1  0
 17 54  1  0
 19 55  1  0
 20 56  1  0
 21 57  1  0
 22 58  1  0
 23 59  1  0
M  CHG  1   3   1
M  END
$$$$
