
     RDKit          3D

140147  0  0  0  0  0  0  0  0999 V2000
    0.6620    0.4296   -1.5021 C   0  0  2  0  0  0  0  0  0  0  0  0
    1.7541   -0.2725   -2.3101 C   0  0  0  0  0  0  0  0  0  0  0  0
    1.6462    0.2792   -3.7303 C   0  0  0  0  0  0  0  0  0  0  0  0
    0.2332    0.8359   -3.8552 C   0  0  0  0  0  0  0  0  0  0  0  0
   -0.2805    0.9122   -2.4998 N   0  0  0  0  0  0  0  0  0  0  0  0
   -1.5459    1.5177   -2.1994 C   0  0  0  0  0  0  0  0  0  0  0  0
   -1.7521    2.7049   -2.5686 O   0  0  0  0  0  0  0  0  0  0  0  0
   -2.6525    0.7666   -1.4835 C   0  0  1  0  0  0  0  0  0  0  0  0
   -3.9901    0.8874   -2.2475 C   0  0  0  0  0  0  0  0  0  0  0  0
   -3.9531    0.2687   -3.6472 C   0  0  0  0  0  0  0  0  0  0  0  0
   -2.3162   -0.6517   -1.2853 N   0  0  0  0  0  0  0  0  0  0  0  0
   -2.9365   -1.4795   -0.2849 C   0  0  0  0  0  0  0  0  0  0  0  0
   -3.2163   -2.6700   -0.5852 O   0  0  0  0  0  0  0  0  0  0  0  0
   -3.3450   -0.9195    1.0644 C   0  0  1  0  0  0  0  0  0  0  0  0
   -4.7040   -0.3803    0.9668 N   0  0  0  0  0  0  0  0  0  0  0  0
   -5.0432    0.9277    1.4571 C   0  0  0  0  0  0  0  0  0  0  0  0
   -4.2911    1.4891    2.2998 O   0  0  0  0  0  0  0  0  0  0  0  0
   -6.2521    1.6232    0.9545 C   0  0  0  0  0  0  0  0  0  0  0  0
   -6.9903    1.0279   -0.0244 N   0  0  0  0  0  0  0  0  0  0  0  0
   -8.0899    1.6129   -0.5667 C   0  0  0  0  0  0  0  0  0  0  0  0
   -8.4991    2.8704   -0.1272 C   0  0  0  0  0  0  0  0  0  0  0  0
   -7.7719    3.5119    0.8740 C   0  0  0  0  0  0  0  0  0  0  0  0
   -6.6418    2.8963    1.4275 C   0  0  0  0  0  0  0  0  0  0  0  0
   -5.9205    3.5461    2.4288 O   0  0  0  0  0  0  0  0  0  0  0  0
   -3.2292   -1.8708    2.2926 C   0  0  1  0  0  0  0  0  0  0  0  0
   -3.8845   -3.2526    2.1500 C   0  0  0  0  0  0  0  0  0  0  0  0
   -1.8873   -1.9608    2.7919 O   0  0  0  0  0  0  0  0  0  0  0  0
   -0.8005   -2.5921    2.1684 C   0  0  0  0  0  0  0  0  0  0  0  0
   -0.9338   -3.1668    1.0555 O   0  0  0  0  0  0  0  0  0  0  0  0
    0.5363   -2.6326    2.8603 C   0  0  1  0  0  0  0  0  0  0  0  0
    0.7842   -1.3743    3.5788 N   0  0  0  0  0  0  0  0  0  0  0  0
    2.0486   -0.6878    3.6025 C   0  0  0  0  0  0  0  0  0  0  0  0
    2.3960   -0.1023    4.6633 O   0  0  0  0  0  0  0  0  0  0  0  0
    2.9869   -0.6765    2.4085 C   0  0  2  0  0  0  0  0  0  0  0  0
    4.1716   -1.6181    2.7003 C   0  0  0  0  0  0  0  0  0  0  0  0
    5.2446   -1.4980    1.6553 C   0  0  0  0  0  0  0  0  0  0  0  0
    6.2467   -2.1912    1.7478 O   0  0  0  0  0  0  0  0  0  0  0  0
    5.0598   -0.5279    0.5091 C   0  0  2  0  0  0  0  0  0  0  0  0
    6.3243   -0.3277   -0.3548 C   0  0  0  0  0  0  0  0  0  0  0  0
    6.8674   -1.8551   -1.2162 S   0  0  0  0  0  0  0  0  0  0  0  0
    5.4596   -2.0130   -2.3899 C   0  0  2  0  0  0  0  0  0  0  0  0
    4.4611   -3.1131   -1.9233 C   0  0  0  0  0  0  0  0  0  0  0  0
    4.2217   -4.1126   -2.9930 N   0  0  0  0  0  0  0  0  0  0  0  0
    3.7103   -3.4279   -4.2068 C   0  0  0  0  0  0  0  0  0  0  0  0
    4.7318   -2.3894   -4.7404 C   0  0  0  0  0  0  0  0  0  0  0  0
    5.9599   -2.3667   -3.8098 C   0  0  0  0  0  0  0  0  0  0  0  0
    6.5646   -3.7869   -3.8078 C   0  0  0  0  0  0  0  0  0  0  0  0
    5.4979   -4.7959   -3.3139 C   0  0  0  0  0  0  0  0  0  0  0  0
    4.5809    0.8246    1.0750 C   0  0  0  0  0  0  0  0  0  0  0  0
    3.4854    0.6741    2.0512 N   0  0  0  0  0  0  0  0  0  0  0  0
    2.8139    1.8786    2.4640 C   0  0  0  0  0  0  0  0  0  0  0  0
    3.0669    2.3609    3.6012 O   0  0  0  0  0  0  0  0  0  0  0  0
    1.9363    2.6410    1.4916 C   0  0  2  0  0  0  0  0  0  0  0  0
    1.0825    3.7322    2.1960 C   0  0  0  0  0  0  0  0  0  0  0  0
   -0.0661    4.2197    1.3431 C   0  0  0  0  0  0  0  0  0  0  0  0
   -1.3884    3.9307    1.7081 C   0  0  0  0  0  0  0  0  0  0  0  0
   -2.4507    4.3004    0.8823 C   0  0  0  0  0  0  0  0  0  0  0  0
   -2.2227    4.9798   -0.3333 C   0  0  0  0  0  0  0  0  0  0  0  0
   -0.8871    5.2908   -0.6764 C   0  0  0  0  0  0  0  0  0  0  0  0
    0.1747    4.9168    0.1531 C   0  0  0  0  0  0  0  0  0  0  0  0
   -3.3291    5.3349   -1.2107 N   0  0  0  0  0  0  0  0  0  0  0  0
   -4.7005    4.9066   -0.8988 C   0  0  0  0  0  0  0  0  0  0  0  0
   -3.0958    6.1182   -2.4318 C   0  0  0  0  0  0  0  0  0  0  0  0
    1.0945    1.6982    0.7239 N   0  0  0  0  0  0  0  0  0  0  0  0
    0.0335    0.9588    1.4114 C   0  0  0  0  0  0  0  0  0  0  0  0
    1.2320    1.5946   -0.7145 C   0  0  0  0  0  0  0  0  0  0  0  0
    1.8433    2.4978   -1.3497 O   0  0  0  0  0  0  0  0  0  0  0  0
    0.5979   -3.7989    3.8222 C   0  0  0  0  0  0  0  0  0  0  0  0
    1.5542   -4.8150    3.6403 C   0  0  0  0  0  0  0  0  0  0  0  0
    1.6204   -5.8920    4.5293 C   0  0  0  0  0  0  0  0  0  0  0  0
    0.7354   -5.9667    5.6073 C   0  0  0  0  0  0  0  0  0  0  0  0
   -0.2178   -4.9640    5.7992 C   0  0  0  0  0  0  0  0  0  0  0  0
   -0.2880   -3.8843    4.9140 C   0  0  0  0  0  0  0  0  0  0  0  0
    0.1779   -0.3223   -0.8546 H   0  0  0  0  0  0  0  0  0  0  0  0
    2.7699   -0.1127   -1.8903 H   0  0  0  0  0  0  0  0  0  0  0  0
    1.5455   -1.3646   -2.3322 H   0  0  0  0  0  0  0  0  0  0  0  0
    1.8359   -0.5129   -4.4864 H   0  0  0  0  0  0  0  0  0  0  0  0
    2.3863    1.0980   -3.8674 H   0  0  0  0  0  0  0  0  0  0  0  0
    0.2483    1.8441   -4.3232 H   0  0  0  0  0  0  0  0  0  0  0  0
   -0.4044    0.1505   -4.4545 H   0  0  0  0  0  0  0  0  0  0  0  0
   -2.7855    1.2656   -0.5033 H   0  0  0  0  0  0  0  0  0  0  0  0
   -4.2753    1.9575   -2.3363 H   0  0  0  0  0  0  0  0  0  0  0  0
   -4.7909    0.3857   -1.6662 H   0  0  0  0  0  0  0  0  0  0  0  0
   -3.7579   -0.8223   -3.5885 H   0  0  0  0  0  0  0  0  0  0  0  0
   -3.1721    0.7506   -4.2718 H   0  0  0  0  0  0  0  0  0  0  0  0
   -4.9362    0.4188   -4.1409 H   0  0  0  0  0  0  0  0  0  0  0  0
   -1.8710   -1.1559   -2.0862 H   0  0  0  0  0  0  0  0  0  0  0  0
   -2.6514   -0.0907    1.2871 H   0  0  0  0  0  0  0  0  0  0  0  0
   -5.4423   -0.9659    0.5146 H   0  0  0  0  0  0  0  0  0  0  0  0
   -8.6437    1.1018   -1.3427 H   0  0  0  0  0  0  0  0  0  0  0  0
   -9.3723    3.3431   -0.5579 H   0  0  0  0  0  0  0  0  0  0  0  0
   -8.0856    4.4890    1.2188 H   0  0  0  0  0  0  0  0  0  0  0  0
   -6.1875    4.4633    2.7667 H   0  0  0  0  0  0  0  0  0  0  0  0
   -3.8004   -1.3683    3.1044 H   0  0  0  0  0  0  0  0  0  0  0  0
   -4.9042   -3.1547    1.7221 H   0  0  0  0  0  0  0  0  0  0  0  0
   -3.9727   -3.7218    3.1529 H   0  0  0  0  0  0  0  0  0  0  0  0
   -3.2868   -3.9372    1.5181 H   0  0  0  0  0  0  0  0  0  0  0  0
    1.3013   -2.7808    2.0729 H   0  0  0  0  0  0  0  0  0  0  0  0
    0.0833   -1.0798    4.2965 H   0  0  0  0  0  0  0  0  0  0  0  0
    2.4471   -1.0537    1.5168 H   0  0  0  0  0  0  0  0  0  0  0  0
    4.6214   -1.3656    3.6856 H   0  0  0  0  0  0  0  0  0  0  0  0
    3.8134   -2.6695    2.7361 H   0  0  0  0  0  0  0  0  0  0  0  0
    4.2492   -0.9210   -0.1350 H   0  0  0  0  0  0  0  0  0  0  0  0
    6.1458    0.4642   -1.1138 H   0  0  0  0  0  0  0  0  0  0  0  0
    7.1611    0.0177    0.2894 H   0  0  0  0  0  0  0  0  0  0  0  0
    4.9276   -1.0399   -2.4561 H   0  0  0  0  0  0  0  0  0  0  0  0
    4.8318   -3.6306   -1.0110 H   0  0  0  0  0  0  0  0  0  0  0  0
    3.4953   -2.6488   -1.6330 H   0  0  0  0  0  0  0  0  0  0  0  0
    2.7463   -2.9252   -3.9744 H   0  0  0  0  0  0  0  0  0  0  0  0
    3.4911   -4.1805   -4.9959 H   0  0  0  0  0  0  0  0  0  0  0  0
    5.0434   -2.6560   -5.7742 H   0  0  0  0  0  0  0  0  0  0  0  0
    4.2665   -1.3802   -4.7820 H   0  0  0  0  0  0  0  0  0  0  0  0
    6.7034   -1.6212   -4.1668 H   0  0  0  0  0  0  0  0  0  0  0  0
    6.8936   -4.0561   -4.8356 H   0  0  0  0  0  0  0  0  0  0  0  0
    7.4635   -3.8285   -3.1565 H   0  0  0  0  0  0  0  0  0  0  0  0
    5.8733   -5.3320   -2.4143 H   0  0  0  0  0  0  0  0  0  0  0  0
    5.3218   -5.5708   -4.0925 H   0  0  0  0  0  0  0  0  0  0  0  0
    4.2425    1.4578    0.2262 H   0  0  0  0  0  0  0  0  0  0  0  0
    5.4291    1.3430    1.5740 H   0  0  0  0  0  0  0  0  0  0  0  0
    2.6311    3.1774    0.8112 H   0  0  0  0  0  0  0  0  0  0  0  0
    1.7332    4.5982    2.4472 H   0  0  0  0  0  0  0  0  0  0  0  0
    0.6921    3.3453    3.1630 H   0  0  0  0  0  0  0  0  0  0  0  0
   -1.6002    3.3926    2.6239 H   0  0  0  0  0  0  0  0  0  0  0  0
   -3.4480    4.0402    1.2042 H   0  0  0  0  0  0  0  0  0  0  0  0
   -0.6473    5.8093   -1.5936 H   0  0  0  0  0  0  0  0  0  0  0  0
    1.1891    5.1512   -0.1450 H   0  0  0  0  0  0  0  0  0  0  0  0
   -5.0384    5.3837    0.0450 H   0  0  0  0  0  0  0  0  0  0  0  0
   -4.7362    3.8024   -0.7931 H   0  0  0  0  0  0  0  0  0  0  0  0
   -5.4185    5.1870   -1.6973 H   0  0  0  0  0  0  0  0  0  0  0  0
   -2.4467    5.5463   -3.1278 H   0  0  0  0  0  0  0  0  0  0  0  0
   -2.6124    7.0838   -2.1730 H   0  0  0  0  0  0  0  0  0  0  0  0
   -4.0411    6.3510   -2.9651 H   0  0  0  0  0  0  0  0  0  0  0  0
    0.0083    1.1888    2.4960 H   0  0  0  0  0  0  0  0  0  0  0  0
    0.1907   -0.1286    1.3065 H   0  0  0  0  0  0  0  0  0  0  0  0
   -0.9381    1.2464    0.9740 H   0  0  0  0  0  0  0  0  0  0  0  0
    2.2493   -4.7767    2.8109 H   0  0  0  0  0  0  0  0  0  0  0  0
    2.3587   -6.6695    4.3820 H   0  0  0  0  0  0  0  0  0  0  0  0
    0.7883   -6.8016    6.2940 H   0  0  0  0  0  0  0  0  0  0  0  0
   -0.9029   -5.0229    6.6350 H   0  0  0  0  0  0  0  0  0  0  0  0
   -1.0336   -3.1178    5.0809 H   0  0  0  0  0  0  0  0  0  0  0  0
  1  2  1  0
  2  3  1  0
  3  4  1  0
  4  5  1  0
  5  6  1  0
  6  7  2  0
  6  8  1  0
  8  9  1  0
  9 10  1  0
  8 11  1  0
 11 12  1  0
 12 13  2  0
 12 14  1  0
 14 15  1  0
 15 16  1  0
 16 17  2  0
 16 18  1  0
 18 19  2  0
 19 20  1  0
 20 21  2  0
 21 22  1  0
 22 23  2  0
 23 24  1  0
 14 25  1  0
 25 26  1  0
 25 27  1  0
 27 28  1  0
 28 29  2  0
 28 30  1  0
 30 31  1  0
 31 32  1  0
 32 33  2  0
 32 34  1  0
 34 35  1  0
 35 36  1  0
 36 37  2  0
 36 38  1  0
 38 39  1  0
 39 40  1  0
 40 41  1  0
 41 42  1  0
 42 43  1  0
 43 44  1  0
 44 45  1  0
 45 46  1  0
 46 47  1  0
 47 48  1  0
 38 49  1  0
 49 50  1  0
 50 51  1  0
 51 52  2  0
 51 53  1  0
 53 54  1  0
 54 55  1  0
 55 56  2  0
 56 57  1  0
 57 58  2  0
 58 59  1  0
 59 60  2  0
 58 61  1  0
 61 62  1  0
 61 63  1  0
 53 64  1  0
 64 65  1  0
 64 66  1  0
 66 67  2  0
 30 68  1  0
 68 69  2  0
 69 70  1  0
 70 71  2  0
 71 72  1  0
 72 73  2  0
  5  1  1  0
 23 18  1  0
 50 34  1  0
 60 55  1  0
 73 68  1  0
 66  1  1  0
 46 41  1  0
 48 43  1  0
  1 74  1  1
  2 75  1  0
  2 76  1  0
  3 77  1  0
  3 78  1  0
  4 79  1  0
  4 80  1  0
  8 81  1  1
  9 82  1  0
  9 83  1  0
 10 84  1  0
 10 85  1  0
 10 86  1  0
 11 87  1  0
 14 88  1  1
 15 89  1  0
 20 90  1  0
 21 91  1  0
 22 92  1  0
 24 93  1  0
 25 94  1  1
 26 95  1  0
 26 96  1  0
 26 97  1  0
 30 98  1  6
 31 99  1  0
 34100  1  6
 35101  1  0
 35102  1  0
 38103  1  6
 39104  1  0
 39105  1  0
 41106  1  6
 42107  1  0
 42108  1  0
 44109  1  0
 44110  1  0
 45111  1  0
 45112  1  0
 46113  1  0
 47114  1  0
 47115  1  0
 48116  1  0
 48117  1  0
 49118  1  0
 49119  1  0
 53120  1  6
 54121  1  0
 54122  1  0
 56123  1  0
 57124  1  0
 59125  1  0
 60126  1  0
 62127  1  0
 62128  1  0
 62129  1  0
 63130  1  0
 63131  1  0
 63132  1  0
 65133  1  0
 65134  1  0
 65135  1  0
 69136  1  0
 70137  1  0
 71138  1  0
 72139  1  0
 73140  1  0
M  END
$$$$
