
     RDKit          2D

180185  0  0  0  0  0  0  0  0999 V2000
    9.2942   -3.6962    0.0000 C   0  0  0  0  0  0  0  0  0  0  0  0
    8.5442   -2.3971    0.0000 C   0  0  0  0  0  0  0  0  0  0  0  0
    7.2452   -3.1471    0.0000 O   0  0  0  0  0  0  0  0  0  0  0  0
    7.7942   -1.0981    0.0000 C   0  0  0  0  0  0  0  0  0  0  0  0
    6.4952   -1.8481    0.0000 N   0  0  0  0  0  0  0  0  0  0  0  0
    5.1962   -1.0981    0.0000 C   0  0  0  0  0  0  0  0  0  0  0  0
    5.3790    0.3907    0.0000 O   0  0  0  0  0  0  0  0  0  0  0  0
    3.8971   -1.8481    0.0000 C   0  0  0  0  0  0  0  0  0  0  0  0
    5.1962   -1.0981    0.0000 C   0  0  0  0  0  0  0  0  0  0  0  0
    4.6471   -3.1471    0.0000 C   0  0  0  0  0  0  0  0  0  0  0  0
    3.3481   -3.8971    0.0000 O   0  0  0  0  0  0  0  0  0  0  0  0
    5.3971   -4.4462    0.0000 C   0  0  0  0  0  0  0  0  0  0  0  0
    6.1471   -5.7452    0.0000 C   0  0  0  0  0  0  0  0  0  0  0  0
    4.0981   -5.1962    0.0000 N   0  0  0  0  0  0  0  0  0  0  0  0
    2.7990   -4.4462    0.0000 C   0  0  0  0  0  0  0  0  0  0  0  0
    2.9819   -2.9573    0.0000 O   0  0  0  0  0  0  0  0  0  0  0  0
    1.5000   -5.1962    0.0000 C   0  0  0  0  0  0  0  0  0  0  0  0
    0.7500   -3.8971    0.0000 N   0  0  0  0  0  0  0  0  0  0  0  0
    1.5000   -2.5981    0.0000 C   0  0  0  0  0  0  0  0  0  0  0  0
    2.9888   -2.4152    0.0000 O   0  0  0  0  0  0  0  0  0  0  0  0
    0.7500   -1.2990    0.0000 C   0  0  0  0  0  0  0  0  0  0  0  0
    1.5000    0.0000    0.0000 C   0  0  0  0  0  0  0  0  0  0  0  0
    3.0000    0.0000    0.0000 C   0  0  0  0  0  0  0  0  0  0  0  0
    0.7500    1.2990    0.0000 C   0  0  0  0  0  0  0  0  0  0  0  0
    1.5000    2.5981    0.0000 N   0  0  0  0  0  0  0  0  0  0  0  0
   -0.7500    1.2990    0.0000 N   0  0  0  0  0  0  0  0  0  0  0  0
   -1.5000    0.0000    0.0000 C   0  0  0  0  0  0  0  0  0  0  0  0
   -0.7500   -1.2990    0.0000 N   0  0  0  0  0  0  0  0  0  0  0  0
   -3.0000    0.0000    0.0000 C   0  0  0  0  0  0  0  0  0  0  0  0
   -4.5000    0.0000    0.0000 C   0  0  0  0  0  0  0  0  0  0  0  0
   -6.0000    0.0000    0.0000 C   0  0  0  0  0  0  0  0  0  0  0  0
   -6.7500    1.2990    0.0000 N   0  0  0  0  0  0  0  0  0  0  0  0
   -6.7500   -1.2990    0.0000 O   0  0  0  0  0  0  0  0  0  0  0  0
   -3.0000    1.5000    0.0000 N   0  0  0  0  0  0  0  0  0  0  0  0
   -4.2990    2.2500    0.0000 C   0  0  0  0  0  0  0  0  0  0  0  0
   -5.5981    3.0000    0.0000 C   0  0  0  0  0  0  0  0  0  0  0  0
   -6.3481    1.7010    0.0000 N   0  0  0  0  0  0  0  0  0  0  0  0
   -6.8971    3.7500    0.0000 C   0  0  0  0  0  0  0  0  0  0  0  0
   -6.8971    5.2500    0.0000 N   0  0  0  0  0  0  0  0  0  0  0  0
   -8.1962    3.0000    0.0000 O   0  0  0  0  0  0  0  0  0  0  0  0
    0.2010   -5.9462    0.0000 C   0  0  0  0  0  0  0  0  0  0  0  0
   -0.5490   -4.6471    0.0000 O   0  0  0  0  0  0  0  0  0  0  0  0
   -2.0490   -4.6471    0.0000 C   0  0  0  0  0  0  0  0  0  0  0  0
   -1.7886   -6.1243    0.0000 O   0  0  0  0  0  0  0  0  0  0  0  0
   -2.9376   -7.0885    0.0000 C   0  0  0  0  0  0  0  0  0  0  0  0
   -3.6876   -8.3875    0.0000 C   0  0  0  0  0  0  0  0  0  0  0  0
   -4.4376   -9.6866    0.0000 O   0  0  0  0  0  0  0  0  0  0  0  0
   -4.3472   -6.5755    0.0000 C   0  0  0  0  0  0  0  0  0  0  0  0
   -5.8472   -6.5755    0.0000 O   0  0  0  0  0  0  0  0  0  0  0  0
   -4.6076   -5.0983    0.0000 C   0  0  0  0  0  0  0  0  0  0  0  0
   -5.3576   -3.7992    0.0000 O   0  0  0  0  0  0  0  0  0  0  0  0
   -3.4586   -4.1341    0.0000 C   0  0  0  0  0  0  0  0  0  0  0  0
   -2.7086   -2.8350    0.0000 O   0  0  0  0  0  0  0  0  0  0  0  0
   -3.4586   -1.5360    0.0000 C   0  0  0  0  0  0  0  0  0  0  0  0
   -4.6076   -2.5002    0.0000 O   0  0  0  0  0  0  0  0  0  0  0  0
   -6.0172   -1.9872    0.0000 C   0  0  0  0  0  0  0  0  0  0  0  0
   -7.5172   -1.9872    0.0000 C   0  0  0  0  0  0  0  0  0  0  0  0
   -9.0172   -1.9872    0.0000 O   0  0  0  0  0  0  0  0  0  0  0  0
   -6.2777   -0.5099    0.0000 C   0  0  0  0  0  0  0  0  0  0  0  0
   -7.0277    0.7891    0.0000 O   0  0  0  0  0  0  0  0  0  0  0  0
   -5.1286    0.4542    0.0000 C   0  0  0  0  0  0  0  0  0  0  0  0
   -4.3786    1.7533    0.0000 O   0  0  0  0  0  0  0  0  0  0  0  0
   -2.8786    1.7533    0.0000 C   0  0  0  0  0  0  0  0  0  0  0  0
   -2.1286    3.0523    0.0000 N   0  0  0  0  0  0  0  0  0  0  0  0
   -2.1286    0.4542    0.0000 O   0  0  0  0  0  0  0  0  0  0  0  0
   -3.7190   -0.0588    0.0000 C   0  0  0  0  0  0  0  0  0  0  0  0
   -2.2190   -0.0588    0.0000 O   0  0  0  0  0  0  0  0  0  0  0  0
   -1.0981   -6.6962    0.0000 C   0  0  0  0  0  0  0  0  0  0  0  0
   -1.2549   -8.1879    0.0000 C   0  0  0  0  0  0  0  0  0  0  0  0
   -2.7221   -8.4998    0.0000 N   0  0  0  0  0  0  0  0  0  0  0  0
   -3.4721   -7.2008    0.0000 C   0  0  0  0  0  0  0  0  0  0  0  0
   -2.4684   -6.0860    0.0000 N   0  0  0  0  0  0  0  0  0  0  0  0
    7.0442    0.2010    0.0000 C   0  0  0  0  0  0  0  0  0  0  0  0
    5.5554    0.3838    0.0000 O   0  0  0  0  0  0  0  0  0  0  0  0
    7.7942    1.5000    0.0000 N   0  0  0  0  0  0  0  0  0  0  0  0
    7.0442    2.7990    0.0000 C   0  0  0  0  0  0  0  0  0  0  0  0
    6.2942    4.0981    0.0000 C   0  0  0  0  0  0  0  0  0  0  0  0
    5.5442    5.3971    0.0000 C   0  0  0  0  0  0  0  0  0  0  0  0
    4.0524    5.5539    0.0000 N   0  0  0  0  0  0  0  0  0  0  0  0
    3.7406    7.0211    0.0000 C   0  0  0  0  0  0  0  0  0  0  0  0
    5.0396    7.7711    0.0000 C   0  0  0  0  0  0  0  0  0  0  0  0
    6.1543    6.7674    0.0000 S   0  0  0  0  0  0  0  0  0  0  0  0
    2.3703    7.6312    0.0000 C   0  0  0  0  0  0  0  0  0  0  0  0
    1.0712    6.8812    0.0000 N   0  0  0  0  0  0  0  0  0  0  0  0
   -0.0435    7.8849    0.0000 C   0  0  0  0  0  0  0  0  0  0  0  0
    0.5666    9.2552    0.0000 C   0  0  0  0  0  0  0  0  0  0  0  0
    2.0584    9.0985    0.0000 S   0  0  0  0  0  0  0  0  0  0  0  0
   -1.5107    7.5731    0.0000 C   0  0  0  0  0  0  0  0  0  0  0  0
   -1.9742    6.1465    0.0000 O   0  0  0  0  0  0  0  0  0  0  0  0
   -2.5144    8.6878    0.0000 N   0  0  0  0  0  0  0  0  0  0  0  0
   -3.9816    8.3759    0.0000 C   0  0  0  0  0  0  0  0  0  0  0  0
   -5.4489    8.0640    0.0000 C   0  0  0  0  0  0  0  0  0  0  0  0
   -6.9161    7.7522    0.0000 C   0  0  0  0  0  0  0  0  0  0  0  0
   -8.3833    7.4403    0.0000 S   0  0  0  0  0  3  0  0  0  0  0  0
   -9.3870    8.5550    0.0000 C   0  0  0  0  0  0  0  0  0  0  0  0
   -8.8468    6.0137    0.0000 C   0  0  0  0  0  0  0  0  0  0  0  0
   10.0442   -4.9952    0.0000 H   0  0  0  0  0  0  0  0  0  0  0  0
   10.5933   -2.9462    0.0000 H   0  0  0  0  0  0  0  0  0  0  0  0
    8.2153   -4.7382    0.0000 H   0  0  0  0  0  0  0  0  0  0  0  0
    9.8433   -1.6471    0.0000 H   0  0  0  0  0  0  0  0  0  0  0  0
    7.2452   -4.6471    0.0000 H   0  0  0  0  0  0  0  0  0  0  0  0
    9.0933   -0.3481    0.0000 H   0  0  0  0  0  0  0  0  0  0  0  0
    6.3123   -3.3369    0.0000 H   0  0  0  0  0  0  0  0  0  0  0  0
    3.4837   -0.4062    0.0000 H   0  0  0  0  0  0  0  0  0  0  0  0
    6.2751   -0.0560    0.0000 H   0  0  0  0  0  0  0  0  0  0  0  0
    4.4462    0.2010    0.0000 H   0  0  0  0  0  0  0  0  0  0  0  0
    6.3619   -2.0420    0.0000 H   0  0  0  0  0  0  0  0  0  0  0  0
    6.1287   -2.9126    0.0000 H   0  0  0  0  0  0  0  0  0  0  0  0
    2.9851   -5.3525    0.0000 H   0  0  0  0  0  0  0  0  0  0  0  0
    6.8787   -4.2116    0.0000 H   0  0  0  0  0  0  0  0  0  0  0  0
    6.8971   -7.0442    0.0000 H   0  0  0  0  0  0  0  0  0  0  0  0
    7.5890   -5.3318    0.0000 H   0  0  0  0  0  0  0  0  0  0  0  0
    4.9492   -6.6479    0.0000 H   0  0  0  0  0  0  0  0  0  0  0  0
    3.9152   -6.6850    0.0000 H   0  0  0  0  0  0  0  0  0  0  0  0
    2.2500   -6.4952    0.0000 H   0  0  0  0  0  0  0  0  0  0  0  0
   -0.7054   -3.5342    0.0000 H   0  0  0  0  0  0  0  0  0  0  0  0
    4.4554    0.3630    0.0000 H   0  0  0  0  0  0  0  0  0  0  0  0
    3.0000    1.5000    0.0000 H   0  0  0  0  0  0  0  0  0  0  0  0
    3.0000   -1.5000    0.0000 H   0  0  0  0  0  0  0  0  0  0  0  0
    0.7500    3.8971    0.0000 H   0  0  0  0  0  0  0  0  0  0  0  0
    3.0000    2.5981    0.0000 H   0  0  0  0  0  0  0  0  0  0  0  0
   -3.3630   -1.4554    0.0000 H   0  0  0  0  0  0  0  0  0  0  0  0
   -4.6828    1.4888    0.0000 H   0  0  0  0  0  0  0  0  0  0  0  0
   -4.5000   -1.5000    0.0000 H   0  0  0  0  0  0  0  0  0  0  0  0
   -8.2500    1.2990    0.0000 H   0  0  0  0  0  0  0  0  0  0  0  0
   -6.3366    2.7410    0.0000 H   0  0  0  0  0  0  0  0  0  0  0  0
   -1.5581    1.9134    0.0000 H   0  0  0  0  0  0  0  0  0  0  0  0
   -5.3411    1.1710    0.0000 H   0  0  0  0  0  0  0  0  0  0  0  0
   -3.5490    3.5490    0.0000 H   0  0  0  0  0  0  0  0  0  0  0  0
   -4.8481    4.2990    0.0000 H   0  0  0  0  0  0  0  0  0  0  0  0
   -7.8369    1.8838    0.0000 H   0  0  0  0  0  0  0  0  0  0  0  0
   -6.4790    0.2067    0.0000 H   0  0  0  0  0  0  0  0  0  0  0  0
   -8.2779    5.8361    0.0000 H   0  0  0  0  0  0  0  0  0  0  0  0
   -5.5163    5.8361    0.0000 H   0  0  0  0  0  0  0  0  0  0  0  0
    0.9510   -7.2452    0.0000 H   0  0  0  0  0  0  0  0  0  0  0  0
   -1.7886   -3.1699    0.0000 H   0  0  0  0  0  0  0  0  0  0  0  0
   -2.0560   -8.3021    0.0000 H   0  0  0  0  0  0  0  0  0  0  0  0
   -5.1295   -7.9742    0.0000 H   0  0  0  0  0  0  0  0  0  0  0  0
   -2.6087   -9.4296    0.0000 H   0  0  0  0  0  0  0  0  0  0  0  0
   -3.6876  -10.9856    0.0000 H   0  0  0  0  0  0  0  0  0  0  0  0
   -4.7858   -8.0099    0.0000 H   0  0  0  0  0  0  0  0  0  0  0  0
   -6.7499   -5.3775    0.0000 H   0  0  0  0  0  0  0  0  0  0  0  0
   -6.0692   -5.4357    0.0000 H   0  0  0  0  0  0  0  0  0  0  0  0
   -6.8131   -4.1622    0.0000 H   0  0  0  0  0  0  0  0  0  0  0  0
   -4.8068   -3.4766    0.0000 H   0  0  0  0  0  0  0  0  0  0  0  0
   -1.9970   -1.1986    0.0000 H   0  0  0  0  0  0  0  0  0  0  0  0
   -6.4558   -3.4216    0.0000 H   0  0  0  0  0  0  0  0  0  0  0  0
   -7.7000   -3.4760    0.0000 H   0  0  0  0  0  0  0  0  0  0  0  0
   -7.7000   -0.4983    0.0000 H   0  0  0  0  0  0  0  0  0  0  0  0
   -9.7672   -3.2862    0.0000 H   0  0  0  0  0  0  0  0  0  0  0  0
   -7.7392   -0.8473    0.0000 H   0  0  0  0  0  0  0  0  0  0  0  0
   -8.5165    0.6062    0.0000 H   0  0  0  0  0  0  0  0  0  0  0  0
   -3.8851   -0.3846    0.0000 H   0  0  0  0  0  0  0  0  0  0  0  0
   -0.6286    3.0523    0.0000 H   0  0  0  0  0  0  0  0  0  0  0  0
   -2.8786    4.3513    0.0000 H   0  0  0  0  0  0  0  0  0  0  0  0
   -3.4586    1.4184    0.0000 H   0  0  0  0  0  0  0  0  0  0  0  0
   -1.6330   -1.4396    0.0000 H   0  0  0  0  0  0  0  0  0  0  0  0
   -0.1402   -9.1916    0.0000 H   0  0  0  0  0  0  0  0  0  0  0  0
   -4.9719   -7.2270    0.0000 H   0  0  0  0  0  0  0  0  0  0  0  0
   -3.1260   -4.7379    0.0000 H   0  0  0  0  0  0  0  0  0  0  0  0
    9.2942    1.5000    0.0000 H   0  0  0  0  0  0  0  0  0  0  0  0
    5.7452    2.0490    0.0000 H   0  0  0  0  0  0  0  0  0  0  0  0
    8.3433    3.5490    0.0000 H   0  0  0  0  0  0  0  0  0  0  0  0
    4.9952    3.3481    0.0000 H   0  0  0  0  0  0  0  0  0  0  0  0
    7.5933    4.8481    0.0000 H   0  0  0  0  0  0  0  0  0  0  0  0
    5.1964    9.2629    0.0000 H   0  0  0  0  0  0  0  0  0  0  0  0
   -0.1834   10.5543    0.0000 H   0  0  0  0  0  0  0  0  0  0  0  0
   -2.0509   10.1144    0.0000 H   0  0  0  0  0  0  0  0  0  0  0  0
   -3.6698    6.9087    0.0000 H   0  0  0  0  0  0  0  0  0  0  0  0
   -4.2935    9.8431    0.0000 H   0  0  0  0  0  0  0  0  0  0  0  0
   -5.7607    9.5313    0.0000 H   0  0  0  0  0  0  0  0  0  0  0  0
   -4.9605    6.6458    0.0000 H   0  0  0  0  0  0  0  0  0  0  0  0
   -7.2279    9.2194    0.0000 H   0  0  0  0  0  0  0  0  0  0  0  0
   -6.6042    6.2850    0.0000 H   0  0  0  0  0  0  0  0  0  0  0  0
  -10.3907    9.6697    0.0000 H   0  0  0  0  0  0  0  0  0  0  0  0
  -10.5017    7.5513    0.0000 H   0  0  0  0  0  0  0  0  0  0  0  0
   -8.2723    9.5587    0.0000 H   0  0  0  0  0  0  0  0  0  0  0  0
   -9.3103    4.5871    0.0000 H   0  0  0  0  0  0  0  0  0  0  0  0
  -10.2734    6.4772    0.0000 H   0  0  0  0  0  0  0  0  0  0  0  0
   -7.3489    6.0923    0.0000 H   0  0  0  0  0  0  0  0  0  0  0  0
  1  2  1  0
  2  3  1  0
  2  4  1  0
  4  5  1  0
  5  6  1  0
  6  7  2  0
  6  8  1  0
  8  9  1  0
  8 10  1  0
 10 11  1  0
 10 12  1  0
 12 13  1  0
 12 14  1  0
 14 15  1  0
 15 16  2  0
 15 17  1  0
 17 18  1  0
 18 19  1  0
 19 20  2  0
 19 21  1  0
 21 22  2  0
 22 23  1  0
 22 24  1  0
 24 25  1  0
 24 26  2  0
 26 27  1  0
 27 28  2  0
 27 29  1  0
 29 30  1  0
 30 31  1  0
 31 32  1  0
 31 33  2  0
 29 34  1  0
 34 35  1  0
 35 36  1  0
 36 37  1  0
 36 38  1  0
 38 39  1  0
 38 40  2  0
 17 41  1  0
 41 42  1  0
 42 43  1  0
 43 44  1  0
 44 45  1  0
 45 46  1  0
 46 47  1  0
 45 48  1  0
 48 49  1  0
 48 50  1  0
 50 51  1  0
 50 52  1  0
 52 53  1  0
 53 54  1  0
 54 55  1  0
 55 56  1  0
 56 57  1  0
 57 58  1  0
 56 59  1  0
 59 60  1  0
 59 61  1  0
 61 62  1  0
 62 63  1  0
 63 64  1  0
 63 65  2  0
 61 66  1  0
 66 67  1  0
 41 68  1  0
 68 69  2  0
 69 70  1  0
 70 71  2  0
 71 72  1  0
  4 73  1  0
 73 74  2  0
 73 75  1  0
 75 76  1  0
 76 77  1  0
 77 78  1  0
 78 79  2  0
 79 80  1  0
 80 81  2  0
 81 82  1  0
 80 83  1  0
 83 84  2  0
 84 85  1  0
 85 86  2  0
 86 87  1  0
 85 88  1  0
 88 89  2  0
 88 90  1  0
 90 91  1  0
 91 92  1  0
 92 93  1  0
 93 94  1  0
 94 95  1  0
 94 96  1  0
 28 21  1  0
 52 43  1  0
 66 54  1  0
 72 68  1  0
 82 78  1  0
 87 83  1  0
  1 97  1  0
  1 98  1  0
  1 99  1  0
  2100  1  6
  3101  1  0
  4102  1  1
  5103  1  0
  8104  1  6
  9105  1  0
  9106  1  0
  9107  1  0
 10108  1  6
 11109  1  0
 12110  1  6
 13111  1  0
 13112  1  0
 13113  1  0
 14114  1  0
 17115  1  1
 18116  1  0
 23117  1  0
 23118  1  0
 23119  1  0
 25120  1  0
 25121  1  0
 29122  1  1
 30123  1  0
 30124  1  0
 32125  1  0
 32126  1  0
 34127  1  0
 35128  1  0
 35129  1  0
 36130  1  1
 37131  1  0
 37132  1  0
 39133  1  0
 39134  1  0
 41135  1  1
 43136  1  0
 45137  1  0
 46138  1  0
 46139  1  0
 47140  1  0
 48141  1  0
 49142  1  0
 50143  1  0
 51144  1  0
 52145  1  0
 54146  1  0
 56147  1  0
 57148  1  0
 57149  1  0
 58150  1  0
 59151  1  0
 60152  1  0
 61153  1  0
 64154  1  0
 64155  1  0
 66156  1  0
 67157  1  0
 69158  1  0
 71159  1  0
 72160  1  0
 75161  1  0
 76162  1  0
 76163  1  0
 77164  1  0
 77165  1  0
 81166  1  0
 86167  1  0
 90168  1  0
 91169  1  0
 91170  1  0
 92171  1  0
 92172  1  0
 93173  1  0
 93174  1  0
 95175  1  0
 95176  1  0
 95177  1  0
 96178  1  0
 96179  1  0
 96180  1  0
M  CHG  1  94   1
M  END
$$$$
