
     RDKit          2D

 92 93  0  0  0  0  0  0  0  0999 V2000
    0.0000    8.7942    0.0000 Cl  0  0  0  0  0  0  0  0  0  0  0  0
    6.7500    1.2990    0.0000 C   0  0  0  0  0  0  0  0  0  0  0  0
    5.2500    1.2990    0.0000 C   0  0  0  0  0  0  0  0  0  0  0  0
    3.7500    1.2990    0.0000 O   0  0  0  0  0  0  0  0  0  0  0  0
    3.0000   -0.0000    0.0000 C   0  0  0  0  0  0  0  0  0  0  0  0
    3.7500   -1.2990    0.0000 O   0  0  0  0  0  0  0  0  0  0  0  0
    1.5000   -0.0000    0.0000 N   0  0  0  0  0  0  0  0  0  0  0  0
    0.7500   -1.2990    0.0000 C   0  0  0  0  0  0  0  0  0  0  0  0
   -0.7500   -1.2990    0.0000 C   0  0  0  0  0  0  0  0  0  0  0  0
   -1.5000   -0.0000    0.0000 N   0  0  0  0  0  0  0  0  0  0  0  0
   -0.7500    1.2990    0.0000 C   0  0  0  0  0  0  0  0  0  0  0  0
    0.7500    1.2990    0.0000 C   0  0  0  0  0  0  0  0  0  0  0  0
   -3.0000   -0.0000    0.0000 C   0  0  0  0  0  0  0  0  0  0  0  0
   -3.3986   -0.6904    0.0000 O   0  0  0  0  0  0  0  0  0  0  0  0
   -3.7500    1.2990    0.0000 C   0  0  0  0  0  0  0  0  0  0  0  0
   -4.5000    2.5981    0.0000 C   0  0  0  0  0  0  0  0  0  0  0  0
   -5.2500    3.8971    0.0000 C   0  0  0  0  0  0  0  0  0  0  0  0
   -4.5000    5.1962    0.0000 C   0  0  0  0  0  0  0  0  0  0  0  0
   -5.2500    6.4952    0.0000 C   0  0  0  0  0  0  0  0  0  0  0  0
   -6.7500    6.4952    0.0000 C   0  0  0  0  0  0  0  0  0  0  0  0
   -7.5000    5.1962    0.0000 C   0  0  0  0  0  0  0  0  0  0  0  0
   -6.7500    3.8971    0.0000 C   0  0  0  0  0  0  0  0  0  0  0  0
   -9.0000    5.1962    0.0000 C   0  0  0  0  0  0  0  0  0  0  0  0
   -9.7500    3.8971    0.0000 N   0  0  0  0  0  0  0  0  0  0  0  0
   -9.7500    6.4952    0.0000 N   0  0  0  0  0  0  0  0  0  0  0  0
   -5.0490    0.5490    0.0000 N   0  0  0  0  0  0  0  0  0  0  0  0
   -5.0490   -0.9510    0.0000 S   0  0  0  0  0  6  0  0  0  0  0  0
   -4.2519   -0.9510    0.0000 O   0  0  0  0  0  0  0  0  0  0  0  0
   -6.5379   -0.7681    0.0000 O   0  0  0  0  0  0  0  0  0  0  0  0
   -5.0490   -2.4510    0.0000 C   0  0  0  0  0  0  0  0  0  0  0  0
   -3.7500   -3.2010    0.0000 C   0  0  0  0  0  0  0  0  0  0  0  0
   -3.7500   -4.7010    0.0000 C   0  0  0  0  0  0  0  0  0  0  0  0
   -5.0490   -5.4510    0.0000 C   0  0  0  0  0  0  0  0  0  0  0  0
   -6.3481   -4.7010    0.0000 C   0  0  0  0  0  0  0  0  0  0  0  0
   -6.3481   -3.2010    0.0000 C   0  0  0  0  0  0  0  0  0  0  0  0
   -7.6471   -2.4510    0.0000 C   0  0  0  0  0  0  0  0  0  0  0  0
   -8.9462   -1.7010    0.0000 C   0  0  0  0  0  0  0  0  0  0  0  0
   -8.3971   -3.7500    0.0000 C   0  0  0  0  0  0  0  0  0  0  0  0
   -5.0490   -6.9510    0.0000 C   0  0  0  0  0  0  0  0  0  0  0  0
   -5.0490   -8.4510    0.0000 C   0  0  0  0  0  0  0  0  0  0  0  0
   -6.5490   -6.9510    0.0000 C   0  0  0  0  0  0  0  0  0  0  0  0
   -2.4510   -2.4510    0.0000 C   0  0  0  0  0  0  0  0  0  0  0  0
   -1.1519   -1.7010    0.0000 C   0  0  0  0  0  0  0  0  0  0  0  0
   -1.7010   -3.7500    0.0000 C   0  0  0  0  0  0  0  0  0  0  0  0
    1.2990    9.5442    0.0000 H   0  0  0  0  0  0  0  0  0  0  0  0
    8.2500    1.2990    0.0000 H   0  0  0  0  0  0  0  0  0  0  0  0
    6.7500   -0.2010    0.0000 H   0  0  0  0  0  0  0  0  0  0  0  0
    6.7500    2.7990    0.0000 H   0  0  0  0  0  0  0  0  0  0  0  0
    5.2500   -0.2010    0.0000 H   0  0  0  0  0  0  0  0  0  0  0  0
    5.2500    2.7990    0.0000 H   0  0  0  0  0  0  0  0  0  0  0  0
    2.1595   -1.8121    0.0000 H   0  0  0  0  0  0  0  0  0  0  0  0
    0.4895   -2.7762    0.0000 H   0  0  0  0  0  0  0  0  0  0  0  0
   -0.1398   -2.6693    0.0000 H   0  0  0  0  0  0  0  0  0  0  0  0
   -2.2418   -1.4558    0.0000 H   0  0  0  0  0  0  0  0  0  0  0  0
   -2.0865    1.9801    0.0000 H   0  0  0  0  0  0  0  0  0  0  0  0
   -0.4895    2.7762    0.0000 H   0  0  0  0  0  0  0  0  0  0  0  0
    0.4895    2.7762    0.0000 H   0  0  0  0  0  0  0  0  0  0  0  0
    2.1595    1.8121    0.0000 H   0  0  0  0  0  0  0  0  0  0  0  0
   -2.5521    2.2018    0.0000 H   0  0  0  0  0  0  0  0  0  0  0  0
   -5.8808    2.0120    0.0000 H   0  0  0  0  0  0  0  0  0  0  0  0
   -3.2010    3.3481    0.0000 H   0  0  0  0  0  0  0  0  0  0  0  0
   -3.0000    5.1962    0.0000 H   0  0  0  0  0  0  0  0  0  0  0  0
   -4.5000    7.7942    0.0000 H   0  0  0  0  0  0  0  0  0  0  0  0
   -7.5000    7.7942    0.0000 H   0  0  0  0  0  0  0  0  0  0  0  0
   -7.5000    2.5981    0.0000 H   0  0  0  0  0  0  0  0  0  0  0  0
  -11.2500    3.8971    0.0000 H   0  0  0  0  0  0  0  0  0  0  0  0
   -9.0000    2.5981    0.0000 H   0  0  0  0  0  0  0  0  0  0  0  0
  -11.2500    6.4952    0.0000 H   0  0  0  0  0  0  0  0  0  0  0  0
   -6.4298    1.1351    0.0000 H   0  0  0  0  0  0  0  0  0  0  0  0
   -2.4510   -5.4510    0.0000 H   0  0  0  0  0  0  0  0  0  0  0  0
   -7.6471   -5.4510    0.0000 H   0  0  0  0  0  0  0  0  0  0  0  0
   -7.0611   -1.0702    0.0000 H   0  0  0  0  0  0  0  0  0  0  0  0
  -10.2452   -0.9510    0.0000 H   0  0  0  0  0  0  0  0  0  0  0  0
   -9.8489   -2.8989    0.0000 H   0  0  0  0  0  0  0  0  0  0  0  0
   -8.1962   -0.4019    0.0000 H   0  0  0  0  0  0  0  0  0  0  0  0
   -9.1471   -5.0490    0.0000 H   0  0  0  0  0  0  0  0  0  0  0  0
   -9.7779   -3.1639    0.0000 H   0  0  0  0  0  0  0  0  0  0  0  0
   -7.3182   -4.7920    0.0000 H   0  0  0  0  0  0  0  0  0  0  0  0
   -3.5490   -6.9510    0.0000 H   0  0  0  0  0  0  0  0  0  0  0  0
   -5.0490   -9.9510    0.0000 H   0  0  0  0  0  0  0  0  0  0  0  0
   -3.5490   -8.4510    0.0000 H   0  0  0  0  0  0  0  0  0  0  0  0
   -6.5379   -8.6338    0.0000 H   0  0  0  0  0  0  0  0  0  0  0  0
   -8.0490   -6.9510    0.0000 H   0  0  0  0  0  0  0  0  0  0  0  0
   -6.7319   -8.4398    0.0000 H   0  0  0  0  0  0  0  0  0  0  0  0
   -6.9120   -5.4955    0.0000 H   0  0  0  0  0  0  0  0  0  0  0  0
   -3.2010   -1.1519    0.0000 H   0  0  0  0  0  0  0  0  0  0  0  0
    0.2900   -1.2876    0.0000 H   0  0  0  0  0  0  0  0  0  0  0  0
   -0.4019   -3.0000    0.0000 H   0  0  0  0  0  0  0  0  0  0  0  0
   -1.5653   -0.2590    0.0000 H   0  0  0  0  0  0  0  0  0  0  0  0
   -0.9510   -5.0490    0.0000 H   0  0  0  0  0  0  0  0  0  0  0  0
   -0.2590   -3.3366    0.0000 H   0  0  0  0  0  0  0  0  0  0  0  0
   -2.7799   -4.7920    0.0000 H   0  0  0  0  0  0  0  0  0  0  0  0
  2  3  1  0
  3  4  1  0
  4  5  1  0
  5  6  2  0
  5  7  1  0
  7  8  1  0
  8  9  1  0
  9 10  1  0
 10 11  1  0
 11 12  1  0
 10 13  1  0
 13 14  2  0
 13 15  1  0
 15 16  1  0
 16 17  1  0
 17 18  2  0
 18 19  1  0
 19 20  2  0
 20 21  1  0
 21 22  2  0
 21 23  1  0
 23 24  1  0
 23 25  2  3
 15 26  1  0
 26 27  1  0
 27 28  2  0
 27 29  2  0
 27 30  1  0
 30 31  2  0
 31 32  1  0
 32 33  2  0
 33 34  1  0
 34 35  2  0
 35 36  1  0
 36 37  1  0
 36 38  1  0
 33 39  1  0
 39 40  1  0
 39 41  1  0
 31 42  1  0
 42 43  1  0
 42 44  1  0
 12  7  1  0
 22 17  1  0
 35 30  1  0
  1 45  1  0
  2 46  1  0
  2 47  1  0
  2 48  1  0
  3 49  1  0
  3 50  1  0
  8 51  1  0
  8 52  1  0
  9 53  1  0
  9 54  1  0
 11 55  1  0
 11 56  1  0
 12 57  1  0
 12 58  1  0
 15 59  1  6
 16 60  1  0
 16 61  1  0
 18 62  1  0
 19 63  1  0
 20 64  1  0
 22 65  1  0
 24 66  1  0
 24 67  1  0
 25 68  1  0
 26 69  1  0
 32 70  1  0
 34 71  1  0
 36 72  1  0
 37 73  1  0
 37 74  1  0
 37 75  1  0
 38 76  1  0
 38 77  1  0
 38 78  1  0
 39 79  1  0
 40 80  1  0
 40 81  1  0
 40 82  1  0
 41 83  1  0
 41 84  1  0
 41 85  1  0
 42 86  1  0
 43 87  1  0
 43 88  1  0
 43 89  1  0
 44 90  1  0
 44 91  1  0
 44 92  1  0
M  END
$$$$
