
     RDKit          3D

 30 31  0  0  0  0  0  0  0  0999 V2000
   -1.9296    0.7706   -2.5045 O   0  0  0  0  0  0  0  0  0  0  0  0
   -3.0212    0.4966   -1.6850 C   0  0  0  0  0  0  0  0  0  0  0  0
   -4.1721    0.4372   -2.1967 O   0  0  0  0  0  0  0  0  0  0  0  0
   -2.8463    0.3129   -0.2228 C   0  0  0  0  0  0  0  0  0  0  0  0
   -3.9475    0.5283    0.6286 C   0  0  0  0  0  0  0  0  0  0  0  0
   -3.8118    0.4154    2.0134 C   0  0  0  0  0  0  0  0  0  0  0  0
   -2.5793    0.0800    2.5703 C   0  0  0  0  0  0  0  0  0  0  0  0
   -1.4795   -0.1510    1.7440 C   0  0  0  0  0  0  0  0  0  0  0  0
   -1.5953   -0.0346    0.3475 C   0  0  0  0  0  0  0  0  0  0  0  0
   -0.4698   -0.3699   -0.4815 N   0  0  0  0  0  0  0  0  0  0  0  0
    0.8684    0.1039   -0.2458 C   0  0  0  0  0  0  0  0  0  0  0  0
    1.9551   -0.6020   -0.7852 C   0  0  0  0  0  0  0  0  0  0  0  0
    3.2732   -0.1477   -0.5989 C   0  0  0  0  0  0  0  0  0  0  0  0
    3.4945    1.0093    0.1672 C   0  0  0  0  0  0  0  0  0  0  0  0
    2.4165    1.7257    0.6915 C   0  0  0  0  0  0  0  0  0  0  0  0
    1.1092    1.2840    0.4796 C   0  0  0  0  0  0  0  0  0  0  0  0
    4.4368   -0.9459   -1.1315 C   0  0  0  0  0  0  0  0  0  0  0  0
    4.0908   -1.5863   -2.3089 F   0  0  0  0  0  0  0  0  0  0  0  0
    4.8052   -1.8933   -0.1948 F   0  0  0  0  0  0  0  0  0  0  0  0
    5.5191   -0.1225   -1.3897 F   0  0  0  0  0  0  0  0  0  0  0  0
   -2.0477    0.9065   -3.5014 H   0  0  0  0  0  0  0  0  0  0  0  0
   -4.9138    0.8027    0.2237 H   0  0  0  0  0  0  0  0  0  0  0  0
   -4.6650    0.5902    2.6562 H   0  0  0  0  0  0  0  0  0  0  0  0
   -2.4784   -0.0133    3.6440 H   0  0  0  0  0  0  0  0  0  0  0  0
   -0.5378   -0.4435    2.1912 H   0  0  0  0  0  0  0  0  0  0  0  0
   -0.6283   -1.0416   -1.2667 H   0  0  0  0  0  0  0  0  0  0  0  0
    1.7701   -1.5123   -1.3425 H   0  0  0  0  0  0  0  0  0  0  0  0
    4.5003    1.3619    0.3576 H   0  0  0  0  0  0  0  0  0  0  0  0
    2.5951    2.6269    1.2639 H   0  0  0  0  0  0  0  0  0  0  0  0
    0.2891    1.8674    0.8770 H   0  0  0  0  0  0  0  0  0  0  0  0
  1  2  1  0
  2  3  2  0
  2  4  1  0
  4  5  2  0
  5  6  1  0
  6  7  2  0
  7  8  1  0
  8  9  2  0
  9 10  1  0
 10 11  1  0
 11 12  2  0
 12 13  1  0
 13 14  2  0
 14 15  1  0
 15 16  2  0
 13 17  1  0
 17 18  1  0
 17 19  1  0
 17 20  1  0
  9  4  1  0
 16 11  1  0
  1 21  1  0
  5 22  1  0
  6 23  1  0
  7 24  1  0
  8 25  1  0
 10 26  1  0
 12 27  1  0
 14 28  1  0
 15 29  1  0
 16 30  1  0
M  END
$$$$
