
     RDKit          3D

 36 37  0  0  0  0  0  0  0  0999 V2000
    0.3890   -0.7387   -0.5133 C   0  0  1  0  0  0  0  0  0  0  0  0
    0.3829   -1.4267   -1.8926 C   0  0  0  0  0  0  0  0  0  0  0  0
    1.0573   -2.6566   -1.8570 O   0  0  0  0  0  0  0  0  0  0  0  0
   -0.2420   -1.5970    0.6104 C   0  0  0  0  0  0  0  0  0  0  0  0
   -1.7463   -1.8669    0.4313 C   0  0  0  0  0  0  0  0  0  0  0  0
   -2.5647   -0.6018    0.4867 C   0  0  0  0  0  0  0  0  0  0  0  0
   -2.7940    0.0379    1.7166 C   0  0  0  0  0  0  0  0  0  0  0  0
   -3.5322    1.2244    1.7670 C   0  0  0  0  0  0  0  0  0  0  0  0
   -4.0437    1.7816    0.5920 C   0  0  0  0  0  0  0  0  0  0  0  0
   -3.8177    1.1533   -0.6357 C   0  0  0  0  0  0  0  0  0  0  0  0
   -3.0806   -0.0336   -0.6907 C   0  0  0  0  0  0  0  0  0  0  0  0
    1.7585   -0.3525   -0.1500 N   0  0  0  0  0  0  0  0  0  0  0  0
    2.7772   -1.1574    0.2203 C   0  0  0  0  0  0  0  0  0  0  0  0
    3.9196   -0.4761    0.4461 N   0  0  0  0  0  0  0  0  0  0  0  0
    3.5945    0.8102    0.1989 C   0  0  0  0  0  0  0  0  0  0  0  0
    2.2673    0.8913   -0.1729 C   0  0  0  0  0  0  0  0  0  0  0  0
    4.5524    1.9238    0.3159 C   0  0  0  0  0  0  0  0  0  0  0  0
    4.1659    3.2733    0.0470 N   0  0  0  0  0  0  0  0  0  0  0  0
    5.7393    1.6808    0.6614 O   0  0  0  0  0  0  0  0  0  0  0  0
   -0.2143    0.1908   -0.6105 H   0  0  0  0  0  0  0  0  0  0  0  0
    0.8985   -0.7666   -2.6223 H   0  0  0  0  0  0  0  0  0  0  0  0
   -0.6583   -1.5528   -2.2658 H   0  0  0  0  0  0  0  0  0  0  0  0
    0.3803   -3.3506   -1.6444 H   0  0  0  0  0  0  0  0  0  0  0  0
   -0.0869   -1.0815    1.5837 H   0  0  0  0  0  0  0  0  0  0  0  0
    0.2835   -2.5730    0.6815 H   0  0  0  0  0  0  0  0  0  0  0  0
   -2.0816   -2.5419    1.2486 H   0  0  0  0  0  0  0  0  0  0  0  0
   -1.9297   -2.4173   -0.5156 H   0  0  0  0  0  0  0  0  0  0  0  0
   -2.3995   -0.3815    2.6338 H   0  0  0  0  0  0  0  0  0  0  0  0
   -3.7061    1.7129    2.7171 H   0  0  0  0  0  0  0  0  0  0  0  0
   -4.6140    2.7007    0.6325 H   0  0  0  0  0  0  0  0  0  0  0  0
   -4.2124    1.5871   -1.5454 H   0  0  0  0  0  0  0  0  0  0  0  0
   -2.9097   -0.5058   -1.6499 H   0  0  0  0  0  0  0  0  0  0  0  0
    2.6973   -2.2315    0.3225 H   0  0  0  0  0  0  0  0  0  0  0  0
    1.7108    1.7782   -0.4452 H   0  0  0  0  0  0  0  0  0  0  0  0
    4.8655    4.0432    0.1367 H   0  0  0  0  0  0  0  0  0  0  0  0
    3.1938    3.5203   -0.2387 H   0  0  0  0  0  0  0  0  0  0  0  0
  1  2  1  0
  2  3  1  0
  1  4  1  0
  4  5  1  0
  5  6  1  0
  6  7  2  0
  7  8  1  0
  8  9  2  0
  9 10  1  0
 10 11  2  0
  1 12  1  0
 12 13  1  0
 13 14  2  0
 14 15  1  0
 15 16  2  0
 15 17  1  0
 17 18  1  0
 17 19  2  0
 11  6  1  0
 16 12  1  0
  1 20  1  6
  2 21  1  0
  2 22  1  0
  3 23  1  0
  4 24  1  0
  4 25  1  0
  5 26  1  0
  5 27  1  0
  7 28  1  0
  8 29  1  0
  9 30  1  0
 10 31  1  0
 11 32  1  0
 13 33  1  0
 16 34  1  0
 18 35  1  0
 18 36  1  0
M  END
$$$$
