
     RDKit          3D

 51 55  0  0  0  0  0  0  0  0999 V2000
    1.3826   -3.7640   -0.0352 O   0  0  0  0  0  0  0  0  0  0  0  0
    1.4125   -2.3953    0.1398 N   0  0  0  0  0  0  0  0  0  0  0  0
    0.4875   -1.6947    0.7284 C   0  0  0  0  0  0  0  0  0  0  0  0
   -0.7537   -2.1502    1.3630 C   0  0  0  0  0  0  0  0  0  0  0  0
   -1.1931   -3.3296    1.3860 O   0  0  0  0  0  0  0  0  0  0  0  0
   -1.4347   -1.0455    1.9601 N   0  0  0  0  0  0  0  0  0  0  0  0
   -2.8449   -1.0385    2.3547 C   0  0  0  0  0  0  0  0  0  0  0  0
   -3.7323   -1.0743    1.1351 C   0  0  0  0  0  0  0  0  0  0  0  0
   -4.0419    0.1016    0.4265 C   0  0  0  0  0  0  0  0  0  0  0  0
   -3.5884    1.3489    0.8559 O   0  0  0  0  0  0  0  0  0  0  0  0
   -3.7811    2.5061    0.0435 C   0  0  0  0  0  0  0  0  0  0  0  0
   -5.0445    2.4540   -0.5952 O   0  0  0  0  0  0  0  0  0  0  0  0
   -5.1004    1.3334   -1.4642 C   0  0  0  0  0  0  0  0  0  0  0  0
   -4.8333    0.0464   -0.7264 C   0  0  0  0  0  0  0  0  0  0  0  0
   -5.2936   -1.1862   -1.2044 C   0  0  0  0  0  0  0  0  0  0  0  0
   -4.9868   -2.3594   -0.5101 C   0  0  0  0  0  0  0  0  0  0  0  0
   -5.4353   -3.5537   -0.9691 F   0  0  0  0  0  0  0  0  0  0  0  0
   -4.2105   -2.3055    0.6526 C   0  0  0  0  0  0  0  0  0  0  0  0
   -0.6084    0.0917    1.6807 C   0  0  0  0  0  0  0  0  0  0  0  0
   -0.8206    1.4031    2.1122 C   0  0  0  0  0  0  0  0  0  0  0  0
    0.1138    2.3851    1.7595 C   0  0  0  0  0  0  0  0  0  0  0  0
    1.2502    2.0523    1.0009 C   0  0  0  0  0  0  0  0  0  0  0  0
    1.4822    0.7198    0.5897 C   0  0  0  0  0  0  0  0  0  0  0  0
    2.6577    0.3632   -0.2374 C   0  0  0  0  0  0  0  0  0  0  0  0
    3.8510    0.9577   -0.0905 C   0  0  0  0  0  0  0  0  0  0  0  0
    5.0428    0.6252   -0.9090 C   0  0  0  0  0  0  0  0  0  0  0  0
    5.1904   -0.6135   -1.5678 C   0  0  0  0  0  0  0  0  0  0  0  0
    6.3400   -0.8821   -2.3177 C   0  0  0  0  0  0  0  0  0  0  0  0
    7.3554    0.0718   -2.4126 C   0  0  0  0  0  0  0  0  0  0  0  0
    7.2273    1.2948   -1.7513 C   0  0  0  0  0  0  0  0  0  0  0  0
    6.0809    1.5689   -0.9994 C   0  0  0  0  0  0  0  0  0  0  0  0
    0.5236   -0.2459    0.9497 C   0  0  0  0  0  0  0  0  0  0  0  0
    0.6218   -4.3446    0.2862 H   0  0  0  0  0  0  0  0  0  0  0  0
   -3.0454   -1.9207    3.0005 H   0  0  0  0  0  0  0  0  0  0  0  0
   -3.0726   -0.1459    2.9726 H   0  0  0  0  0  0  0  0  0  0  0  0
   -2.9593    2.5854   -0.7036 H   0  0  0  0  0  0  0  0  0  0  0  0
   -3.7380    3.4070    0.6891 H   0  0  0  0  0  0  0  0  0  0  0  0
   -4.3719    1.4483   -2.2977 H   0  0  0  0  0  0  0  0  0  0  0  0
   -6.1156    1.2947   -1.9128 H   0  0  0  0  0  0  0  0  0  0  0  0
   -5.8860   -1.2362   -2.1095 H   0  0  0  0  0  0  0  0  0  0  0  0
   -3.9766   -3.2257    1.1732 H   0  0  0  0  0  0  0  0  0  0  0  0
   -1.6792    1.6685    2.7124 H   0  0  0  0  0  0  0  0  0  0  0  0
   -0.0422    3.4097    2.0715 H   0  0  0  0  0  0  0  0  0  0  0  0
    1.9330    2.8441    0.7219 H   0  0  0  0  0  0  0  0  0  0  0  0
    2.5251   -0.4015   -0.9876 H   0  0  0  0  0  0  0  0  0  0  0  0
    3.9637    1.7384    0.6520 H   0  0  0  0  0  0  0  0  0  0  0  0
    4.4397   -1.3873   -1.4895 H   0  0  0  0  0  0  0  0  0  0  0  0
    6.4469   -1.8350   -2.8200 H   0  0  0  0  0  0  0  0  0  0  0  0
    8.2443   -0.1395   -2.9927 H   0  0  0  0  0  0  0  0  0  0  0  0
    8.0175    2.0313   -1.8202 H   0  0  0  0  0  0  0  0  0  0  0  0
    6.0003    2.5237   -0.4939 H   0  0  0  0  0  0  0  0  0  0  0  0
  1  2  1  0
  2  3  2  0
  3  4  1  0
  4  5  2  0
  4  6  1  0
  6  7  1  0
  7  8  1  0
  8  9  2  0
  9 10  1  0
 10 11  1  0
 11 12  1  0
 12 13  1  0
 13 14  1  0
 14 15  2  0
 15 16  1  0
 16 17  1  0
 16 18  2  0
  6 19  1  0
 19 20  2  0
 20 21  1  0
 21 22  2  0
 22 23  1  0
 23 24  1  0
 24 25  2  0
 25 26  1  0
 26 27  2  0
 27 28  1  0
 28 29  2  0
 29 30  1  0
 30 31  2  0
 23 32  2  0
 32  3  1  0
 18  8  1  0
 32 19  1  0
 14  9  1  0
 31 26  1  0
  1 33  1  0
  7 34  1  0
  7 35  1  0
 11 36  1  0
 11 37  1  0
 13 38  1  0
 13 39  1  0
 15 40  1  0
 18 41  1  0
 20 42  1  0
 21 43  1  0
 22 44  1  0
 24 45  1  0
 25 46  1  0
 27 47  1  0
 28 48  1  0
 29 49  1  0
 30 50  1  0
 31 51  1  0
M  END
$$$$
