
     RDKit          3D

 28 28  0  0  0  0  0  0  0  0999 V2000
   -1.8055   -0.9892   -2.0565 O   0  0  0  0  0  0  0  0  0  0  0  0
   -1.0404   -0.4385   -1.0126 C   0  0  0  0  0  0  0  0  0  0  0  0
    0.4457   -0.5482   -1.4476 C   0  0  0  0  0  0  0  0  0  0  0  0
    1.4709   -0.0205   -0.4676 C   0  0  0  0  0  0  0  0  0  0  0  0
    1.9102    1.3120   -0.5343 C   0  0  0  0  0  0  0  0  0  0  0  0
    2.8501    1.7694    0.3356 N   0  0  0  0  0  0  0  0  0  0  0  0
    3.4030    0.9632    1.2796 C   0  0  0  0  0  0  0  0  0  0  0  0
    3.0189   -0.3754    1.3667 C   0  0  0  0  0  0  0  0  0  0  0  0
    2.0579   -0.8698    0.4836 C   0  0  0  0  0  0  0  0  0  0  0  0
   -1.3693   -1.3949    0.5247 P   0  0  0  0  0  5  0  0  0  0  0  0
   -3.0328   -1.4090    0.8438 O   0  0  0  0  0  0  0  0  0  0  0  0
   -0.5771   -0.6955    1.8465 O   0  0  0  0  0  0  0  0  0  0  0  0
   -0.8843   -2.8169    0.3485 O   0  0  0  0  0  0  0  0  0  0  0  0
   -1.5487    1.3139   -0.7710 P   0  0  0  0  0  5  0  0  0  0  0  0
   -3.2258    1.3847   -0.5465 O   0  0  0  0  0  0  0  0  0  0  0  0
   -0.7820    1.9897    0.5790 O   0  0  0  0  0  0  0  0  0  0  0  0
   -1.1862    2.1154   -2.0008 O   0  0  0  0  0  0  0  0  0  0  0  0
   -2.7645   -0.9035   -1.8173 H   0  0  0  0  0  0  0  0  0  0  0  0
    0.6750   -1.6149   -1.6648 H   0  0  0  0  0  0  0  0  0  0  0  0
    0.5734   -0.0194   -2.4179 H   0  0  0  0  0  0  0  0  0  0  0  0
    1.5065    1.9872   -1.2770 H   0  0  0  0  0  0  0  0  0  0  0  0
    4.1476    1.3595    1.9568 H   0  0  0  0  0  0  0  0  0  0  0  0
    3.4650   -1.0249    2.1087 H   0  0  0  0  0  0  0  0  0  0  0  0
    1.7703   -1.9117    0.5435 H   0  0  0  0  0  0  0  0  0  0  0  0
   -3.4070   -2.0968    0.2374 H   0  0  0  0  0  0  0  0  0  0  0  0
   -0.8416   -1.2504    2.6228 H   0  0  0  0  0  0  0  0  0  0  0  0
   -3.4208    2.3437   -0.3944 H   0  0  0  0  0  0  0  0  0  0  0  0
   -1.4084    1.8408    1.3312 H   0  0  0  0  0  0  0  0  0  0  0  0
  1  2  1  0
  2  3  1  0
  3  4  1  0
  4  5  2  0
  5  6  1  0
  6  7  2  0
  7  8  1  0
  8  9  2  0
  2 10  1  0
 10 11  1  0
 10 12  1  0
 10 13  2  0
  2 14  1  0
 14 15  1  0
 14 16  1  0
 14 17  2  0
  9  4  1  0
  1 18  1  0
  3 19  1  0
  3 20  1  0
  5 21  1  0
  7 22  1  0
  8 23  1  0
  9 24  1  0
 11 25  1  0
 12 26  1  0
 15 27  1  0
 16 28  1  0
M  END
$$$$
