
     RDKit          3D

 62 64  0  0  0  0  0  0  0  0999 V2000
    4.1978   -1.5351   -3.3366 C   0  0  1  0  0  0  0  0  0  0  0  0
    4.4633   -0.4343   -2.4074 N   0  0  0  0  0  0  0  0  0  0  0  0
    2.7223   -1.9808   -3.2532 C   0  0  0  0  0  0  0  0  0  0  0  0
    2.3858   -2.7230   -1.9492 C   0  0  0  0  0  0  0  0  0  0  0  0
    2.3674   -1.8091   -0.7623 C   0  0  0  0  0  0  0  0  0  0  0  0
    3.4323   -1.8717    0.1403 O   0  0  0  0  0  0  0  0  0  0  0  0
    1.3702   -0.9793   -0.6231 N   0  0  0  0  0  0  0  0  0  0  0  0
    1.1203   -0.0106    0.4513 C   0  0  1  0  0  0  0  0  0  0  0  0
    0.7752   -0.7157    1.7788 C   0  0  0  0  0  0  0  0  0  0  0  0
   -0.6608   -1.8362    1.5872 S   0  0  0  0  0  0  0  0  0  0  0  0
   -1.9852   -0.5531    1.6774 C   0  0  1  0  0  0  0  0  0  0  0  0
   -2.9253   -0.6171    0.4817 C   0  0  0  0  0  0  0  0  0  0  0  0
   -2.4606   -1.0167   -0.7893 C   0  0  0  0  0  0  0  0  0  0  0  0
   -3.3224   -1.0521   -1.8845 C   0  0  0  0  0  0  0  0  0  0  0  0
   -4.6528   -0.6712   -1.7381 C   0  0  0  0  0  0  0  0  0  0  0  0
   -5.1192   -0.2164   -0.5049 C   0  0  0  0  0  0  0  0  0  0  0  0
   -4.2554   -0.1406    0.6086 C   0  0  0  0  0  0  0  0  0  0  0  0
   -4.7175    0.4119    1.9179 C   0  0  0  0  0  0  0  0  0  0  0  0
   -5.8511    1.2475    2.0153 C   0  0  0  0  0  0  0  0  0  0  0  0
   -6.2773    1.7267    3.2552 C   0  0  0  0  0  0  0  0  0  0  0  0
   -5.5836    1.3855    4.4138 C   0  0  0  0  0  0  0  0  0  0  0  0
   -4.4443    0.5852    4.3351 C   0  0  0  0  0  0  0  0  0  0  0  0
   -3.9782    0.1256    3.0883 C   0  0  0  0  0  0  0  0  0  0  0  0
   -2.7549   -0.7662    3.0010 C   0  0  2  0  0  0  0  0  0  0  0  0
   -1.8941   -0.5733    4.0984 O   0  0  0  0  0  0  0  0  0  0  0  0
    2.2494    0.9818    0.5723 C   0  0  0  0  0  0  0  0  0  0  0  0
    2.8855    1.1616    1.8059 O   0  0  0  0  0  0  0  0  0  0  0  0
    2.5975    1.6610   -0.4839 N   0  0  0  0  0  0  0  0  0  0  0  0
    3.6552    2.6663   -0.5494 C   0  0  0  0  0  0  0  0  0  0  0  0
    3.2400    3.9162    0.1615 C   0  0  0  0  0  0  0  0  0  0  0  0
    2.0125    4.5038   -0.1283 O   0  0  0  0  0  0  0  0  0  0  0  0
    4.0116    4.4513    1.0015 O   0  0  0  0  0  0  0  0  0  0  0  0
    4.5470   -1.1299   -4.7449 C   0  0  0  0  0  0  0  0  0  0  0  0
    5.5642   -1.7942   -5.4232 O   0  0  0  0  0  0  0  0  0  0  0  0
    3.9260   -0.1895   -5.3105 O   0  0  0  0  0  0  0  0  0  0  0  0
    4.8432   -2.3974   -3.0569 H   0  0  0  0  0  0  0  0  0  0  0  0
    3.9308    0.4141   -2.7097 H   0  0  0  0  0  0  0  0  0  0  0  0
    5.4813   -0.1967   -2.4494 H   0  0  0  0  0  0  0  0  0  0  0  0
    2.5144   -2.6800   -4.0935 H   0  0  0  0  0  0  0  0  0  0  0  0
    2.0455   -1.1067   -3.3803 H   0  0  0  0  0  0  0  0  0  0  0  0
    1.3818   -3.1897   -2.0514 H   0  0  0  0  0  0  0  0  0  0  0  0
    3.1132   -3.5465   -1.7812 H   0  0  0  0  0  0  0  0  0  0  0  0
    3.5324   -1.2626    0.9383 H   0  0  0  0  0  0  0  0  0  0  0  0
    0.2280    0.5785    0.1531 H   0  0  0  0  0  0  0  0  0  0  0  0
    1.6289   -1.3269    2.1314 H   0  0  0  0  0  0  0  0  0  0  0  0
    0.5629    0.0338    2.5710 H   0  0  0  0  0  0  0  0  0  0  0  0
   -1.5507    0.4690    1.6847 H   0  0  0  0  0  0  0  0  0  0  0  0
   -1.4309   -1.3037   -0.9469 H   0  0  0  0  0  0  0  0  0  0  0  0
   -2.9573   -1.3794   -2.8496 H   0  0  0  0  0  0  0  0  0  0  0  0
   -5.3236   -0.7175   -2.5865 H   0  0  0  0  0  0  0  0  0  0  0  0
   -6.1611    0.0590   -0.4329 H   0  0  0  0  0  0  0  0  0  0  0  0
   -6.4048    1.5554    1.1405 H   0  0  0  0  0  0  0  0  0  0  0  0
   -7.1509    2.3629    3.3175 H   0  0  0  0  0  0  0  0  0  0  0  0
   -5.9261    1.7465    5.3750 H   0  0  0  0  0  0  0  0  0  0  0  0
   -3.9266    0.3292    5.2506 H   0  0  0  0  0  0  0  0  0  0  0  0
   -3.1170   -1.8172    3.0337 H   0  0  0  0  0  0  0  0  0  0  0  0
   -1.5834    0.3700    4.0732 H   0  0  0  0  0  0  0  0  0  0  0  0
    3.6547    1.8024    1.9474 H   0  0  0  0  0  0  0  0  0  0  0  0
    3.8381    2.9175   -1.6146 H   0  0  0  0  0  0  0  0  0  0  0  0
    4.6022    2.2578   -0.1341 H   0  0  0  0  0  0  0  0  0  0  0  0
    1.7208    5.3544    0.3382 H   0  0  0  0  0  0  0  0  0  0  0  0
    5.8134   -1.5340   -6.3700 H   0  0  0  0  0  0  0  0  0  0  0  0
  1  2  1  0
  1  3  1  0
  3  4  1  0
  4  5  1  0
  5  6  1  0
  5  7  2  3
  7  8  1  0
  8  9  1  0
  9 10  1  0
 10 11  1  0
 11 12  1  0
 12 13  2  0
 13 14  1  0
 14 15  2  0
 15 16  1  0
 16 17  2  0
 17 18  1  0
 18 19  2  0
 19 20  1  0
 20 21  2  0
 21 22  1  0
 22 23  2  0
 23 24  1  0
 24 25  1  0
  8 26  1  0
 26 27  1  0
 26 28  2  3
 28 29  1  0
 29 30  1  0
 30 31  1  0
 30 32  2  0
  1 33  1  0
 33 34  1  0
 33 35  2  0
 24 11  1  0
 17 12  1  0
 23 18  1  0
  1 36  1  1
  2 37  1  0
  2 38  1  0
  3 39  1  0
  3 40  1  0
  4 41  1  0
  4 42  1  0
  6 43  1  0
  8 44  1  6
  9 45  1  0
  9 46  1  0
 11 47  1  1
 13 48  1  0
 14 49  1  0
 15 50  1  0
 16 51  1  0
 19 52  1  0
 20 53  1  0
 21 54  1  0
 22 55  1  0
 24 56  1  6
 25 57  1  0
 27 58  1  0
 29 59  1  0
 29 60  1  0
 31 61  1  0
 34 62  1  0
M  END
$$$$
