
     RDKit          3D

 51 52  0  0  0  0  0  0  0  0999 V2000
    5.7660   -1.8335   -1.9301 C   0  0  0  0  0  0  0  0  0  0  0  0
    6.4630   -0.6841   -1.4602 O   0  0  0  0  0  0  0  0  0  0  0  0
    6.0331    0.1333   -0.4021 C   0  0  0  0  0  0  0  0  0  0  0  0
    4.8362   -0.1203    0.2988 C   0  0  0  0  0  0  0  0  0  0  0  0
    4.4341    0.7141    1.3608 C   0  0  0  0  0  0  0  0  0  0  0  0
    3.1765    0.4906    2.1154 C   0  0  0  0  0  0  0  0  0  0  0  0
    2.5878   -0.7091    2.2330 C   0  0  0  0  0  0  0  0  0  0  0  0
    1.3338   -0.9382    2.9852 C   0  0  0  0  0  0  0  0  0  0  0  0
    0.8888   -2.1150    3.0558 O   0  0  0  0  0  0  0  0  0  0  0  0
    0.5454    0.1669    3.6364 C   0  0  0  0  0  0  0  0  0  0  0  0
   -0.1884    0.9744    2.6064 C   0  0  0  0  0  0  0  0  0  0  0  0
    0.1797    2.1575    2.3699 O   0  0  0  0  0  0  0  0  0  0  0  0
   -1.3262    0.3804    1.8754 C   0  0  0  0  0  0  0  0  0  0  0  0
   -1.9795    1.0433    0.9105 C   0  0  0  0  0  0  0  0  0  0  0  0
   -3.1140    0.4724    0.1428 C   0  0  0  0  0  0  0  0  0  0  0  0
   -3.9084   -0.5763    0.6390 C   0  0  0  0  0  0  0  0  0  0  0  0
   -4.9729   -1.0758   -0.1135 C   0  0  0  0  0  0  0  0  0  0  0  0
   -5.2734   -0.5320   -1.3752 C   0  0  0  0  0  0  0  0  0  0  0  0
   -6.3321   -1.0061   -2.1649 O   0  0  0  0  0  0  0  0  0  0  0  0
   -7.3837   -2.2837   -1.7290 S   0  0  0  0  0  6  0  0  0  0  0  0
   -8.4944   -2.5203   -2.9682 O   0  0  0  0  0  0  0  0  0  0  0  0
   -8.1154   -1.9285   -0.4649 O   0  0  0  0  0  0  0  0  0  0  0  0
   -6.5910   -3.5441   -1.5227 O   0  0  0  0  0  0  0  0  0  0  0  0
   -4.4978    0.5252   -1.8736 C   0  0  0  0  0  0  0  0  0  0  0  0
   -4.8241    1.0528   -3.1334 O   0  0  0  0  0  0  0  0  0  0  0  0
   -4.1294    2.1227   -3.7663 C   0  0  0  0  0  0  0  0  0  0  0  0
   -3.4256    1.0253   -1.1089 C   0  0  0  0  0  0  0  0  0  0  0  0
    5.2276    1.8219    1.6923 C   0  0  0  0  0  0  0  0  0  0  0  0
    6.4134    2.0771    1.0025 C   0  0  0  0  0  0  0  0  0  0  0  0
    6.8219    1.2391   -0.0379 C   0  0  0  0  0  0  0  0  0  0  0  0
    8.0147    1.5241   -0.7025 O   0  0  0  0  0  0  0  0  0  0  0  0
    6.3379   -2.2876   -2.7649 H   0  0  0  0  0  0  0  0  0  0  0  0
    4.7612   -1.5444   -2.3043 H   0  0  0  0  0  0  0  0  0  0  0  0
    5.6712   -2.5825   -1.1157 H   0  0  0  0  0  0  0  0  0  0  0  0
    4.2100   -0.9471   -0.0007 H   0  0  0  0  0  0  0  0  0  0  0  0
    2.7556    1.3456    2.6260 H   0  0  0  0  0  0  0  0  0  0  0  0
    3.0464   -1.5803    1.7848 H   0  0  0  0  0  0  0  0  0  0  0  0
    1.2172    0.8138    4.2398 H   0  0  0  0  0  0  0  0  0  0  0  0
   -0.1939   -0.2669    4.3445 H   0  0  0  0  0  0  0  0  0  0  0  0
   -1.6009   -0.6352    2.1249 H   0  0  0  0  0  0  0  0  0  0  0  0
   -1.6413    2.0357    0.6348 H   0  0  0  0  0  0  0  0  0  0  0  0
   -3.7314   -1.0013    1.6172 H   0  0  0  0  0  0  0  0  0  0  0  0
   -5.5583   -1.8817    0.3040 H   0  0  0  0  0  0  0  0  0  0  0  0
   -9.0688   -3.2655   -2.6580 H   0  0  0  0  0  0  0  0  0  0  0  0
   -4.6012    2.3301   -4.7484 H   0  0  0  0  0  0  0  0  0  0  0  0
   -3.0680    1.8426   -3.9342 H   0  0  0  0  0  0  0  0  0  0  0  0
   -4.1900    3.0394   -3.1425 H   0  0  0  0  0  0  0  0  0  0  0  0
   -2.8225    1.8404   -1.4870 H   0  0  0  0  0  0  0  0  0  0  0  0
    4.9337    2.4870    2.4954 H   0  0  0  0  0  0  0  0  0  0  0  0
    7.0188    2.9315    1.2777 H   0  0  0  0  0  0  0  0  0  0  0  0
    8.3588    0.9519   -1.4641 H   0  0  0  0  0  0  0  0  0  0  0  0
  1  2  1  0
  2  3  1  0
  3  4  2  0
  4  5  1  0
  5  6  1  0
  6  7  2  0
  7  8  1  0
  8  9  2  0
  8 10  1  0
 10 11  1  0
 11 12  2  0
 11 13  1  0
 13 14  2  0
 14 15  1  0
 15 16  2  0
 16 17  1  0
 17 18  2  0
 18 19  1  0
 19 20  1  0
 20 21  1  0
 20 22  2  0
 20 23  2  0
 18 24  1  0
 24 25  1  0
 25 26  1  0
 24 27  2  0
  5 28  2  0
 28 29  1  0
 29 30  2  0
 30 31  1  0
 30  3  1  0
 27 15  1  0
  1 32  1  0
  1 33  1  0
  1 34  1  0
  4 35  1  0
  6 36  1  0
  7 37  1  0
 10 38  1  0
 10 39  1  0
 13 40  1  0
 14 41  1  0
 16 42  1  0
 17 43  1  0
 21 44  1  0
 26 45  1  0
 26 46  1  0
 26 47  1  0
 27 48  1  0
 28 49  1  0
 29 50  1  0
 31 51  1  0
M  END
$$$$
