
     RDKit          3D

 43 46  0  0  0  0  0  0  0  0999 V2000
   -1.6017   -0.6522    0.4428 C   0  0  2  0  0  0  0  0  0  0  0  0
   -0.2544   -0.4001   -0.1945 C   0  0  0  0  0  0  0  0  0  0  0  0
    0.0693   -1.0804   -1.2060 O   0  0  0  0  0  0  0  0  0  0  0  0
    0.6194    0.6412    0.2772 N   0  0  0  0  0  0  0  0  0  0  0  0
    2.0098    0.7360   -0.0751 C   0  0  0  0  0  0  0  0  0  0  0  0
    2.6080    2.0006   -0.1737 C   0  0  0  0  0  0  0  0  0  0  0  0
    3.9623    2.1253   -0.4936 C   0  0  0  0  0  0  0  0  0  0  0  0
    4.7449    0.9819   -0.7049 C   0  0  0  0  0  0  0  0  0  0  0  0
    6.1067    1.0953   -1.0255 C   0  0  0  0  0  0  0  0  0  0  0  0
    6.8784   -0.0532   -1.2244 C   0  0  0  0  0  0  0  0  0  0  0  0
    6.2994   -1.3192   -1.1038 C   0  0  0  0  0  0  0  0  0  0  0  0
    4.9443   -1.4458   -0.7849 C   0  0  0  0  0  0  0  0  0  0  0  0
    4.1570   -0.3005   -0.5858 C   0  0  0  0  0  0  0  0  0  0  0  0
    2.7957   -0.4150   -0.2649 C   0  0  0  0  0  0  0  0  0  0  0  0
   -2.6981    0.2032   -0.1586 C   0  0  0  0  0  0  0  0  0  0  0  0
   -2.5018    1.5183   -0.6057 C   0  0  0  0  0  0  0  0  0  0  0  0
   -3.9685    2.1582   -1.1402 S   0  0  0  0  0  0  0  0  0  0  0  0
   -4.8708    0.7904   -0.7983 C   0  0  0  0  0  0  0  0  0  0  0  0
   -4.0509   -0.1933   -0.2598 C   0  0  0  0  0  0  0  0  0  0  0  0
   -4.6098   -1.4224    0.1254 C   0  0  0  0  0  0  0  0  0  0  0  0
   -5.9887   -1.6329   -0.0511 C   0  0  0  0  0  0  0  0  0  0  0  0
   -6.7050   -3.1616    0.4248 Cl  0  0  0  0  0  0  0  0  0  0  0  0
   -6.7985   -0.6231   -0.6045 C   0  0  0  0  0  0  0  0  0  0  0  0
   -6.2383    0.6046   -0.9821 C   0  0  0  0  0  0  0  0  0  0  0  0
   -1.5573   -0.4438    2.2598 P   0  0  0  0  0  5  0  0  0  0  0  0
   -1.5795    1.2008    2.6589 O   0  0  0  0  0  0  0  0  0  0  0  0
   -0.1522   -1.1547    2.8811 O   0  0  0  0  0  0  0  0  0  0  0  0
   -2.7665   -1.1147    2.8715 O   0  0  0  0  0  0  0  0  0  0  0  0
   -1.8342   -1.7207    0.2538 H   0  0  0  0  0  0  0  0  0  0  0  0
    0.2100    1.4188    0.8400 H   0  0  0  0  0  0  0  0  0  0  0  0
    2.0180    2.8941   -0.0118 H   0  0  0  0  0  0  0  0  0  0  0  0
    4.3974    3.1144   -0.5733 H   0  0  0  0  0  0  0  0  0  0  0  0
    6.5730    2.0687   -1.1203 H   0  0  0  0  0  0  0  0  0  0  0  0
    7.9283    0.0384   -1.4712 H   0  0  0  0  0  0  0  0  0  0  0  0
    6.9024   -2.2048   -1.2579 H   0  0  0  0  0  0  0  0  0  0  0  0
    4.5126   -2.4356   -0.6959 H   0  0  0  0  0  0  0  0  0  0  0  0
    2.3566   -1.3972   -0.1400 H   0  0  0  0  0  0  0  0  0  0  0  0
   -1.5653    2.0565   -0.6135 H   0  0  0  0  0  0  0  0  0  0  0  0
   -4.0051   -2.2063    0.5589 H   0  0  0  0  0  0  0  0  0  0  0  0
   -7.8598   -0.7898   -0.7372 H   0  0  0  0  0  0  0  0  0  0  0  0
   -6.8551    1.3886   -1.4021 H   0  0  0  0  0  0  0  0  0  0  0  0
   -1.4522    1.2242    3.6407 H   0  0  0  0  0  0  0  0  0  0  0  0
   -0.1797   -2.0921    2.5624 H   0  0  0  0  0  0  0  0  0  0  0  0
  1  2  1  0
  2  3  2  0
  2  4  1  0
  4  5  1  0
  5  6  2  0
  6  7  1  0
  7  8  2  0
  8  9  1  0
  9 10  2  0
 10 11  1  0
 11 12  2  0
 12 13  1  0
 13 14  2  0
  1 15  1  0
 15 16  2  0
 16 17  1  0
 17 18  1  0
 18 19  2  0
 19 20  1  0
 20 21  2  0
 21 22  1  0
 21 23  1  0
 23 24  2  0
  1 25  1  0
 25 26  1  0
 25 27  1  0
 25 28  2  0
 14  5  1  0
 19 15  1  0
 13  8  1  0
 24 18  1  0
  1 29  1  1
  4 30  1  0
  6 31  1  0
  7 32  1  0
  9 33  1  0
 10 34  1  0
 11 35  1  0
 12 36  1  0
 14 37  1  0
 16 38  1  0
 20 39  1  0
 23 40  1  0
 24 41  1  0
 26 42  1  0
 27 43  1  0
M  END
$$$$
