
     RDKit          3D

 38 39  0  0  0  0  0  0  0  0999 V2000
    0.9108   -0.7632    3.2392 C   0  0  0  0  0  0  0  0  0  0  0  0
    0.4744   -0.1175    1.9892 N   0  0  0  0  0  0  0  0  0  0  0  0
    1.0312   -0.7768    0.7818 C   0  0  0  0  0  0  0  0  0  0  0  0
    2.5751   -0.8380    0.8021 C   0  0  0  0  0  0  0  0  0  0  0  0
    3.3038    0.8270    1.0309 S   0  0  0  0  0  0  0  0  0  0  0  0
    5.0481    0.3110    0.8260 C   0  0  0  0  0  0  0  0  0  0  0  0
    5.5393    0.5862   -0.5934 C   0  0  0  0  0  0  0  0  0  0  0  0
    6.8689    0.2211   -0.6972 F   0  0  0  0  0  0  0  0  0  0  0  0
    4.8027   -0.1433   -1.5085 F   0  0  0  0  0  0  0  0  0  0  0  0
    5.4209    1.9337   -0.8834 F   0  0  0  0  0  0  0  0  0  0  0  0
    0.5924   -0.0679   -0.4328 N   0  0  0  0  0  0  0  0  0  0  0  0
   -0.7903    0.1789   -0.7350 C   0  0  0  0  0  0  0  0  0  0  0  0
   -1.1746    0.4922   -2.0455 C   0  0  0  0  0  0  0  0  0  0  0  0
   -2.5175    0.7364   -2.3577 C   0  0  0  0  0  0  0  0  0  0  0  0
   -2.9228    1.0990   -4.0320 Cl  0  0  0  0  0  0  0  0  0  0  0  0
   -3.4967    0.6801   -1.3430 C   0  0  0  0  0  0  0  0  0  0  0  0
   -3.1053    0.3736   -0.0308 C   0  0  0  0  0  0  0  0  0  0  0  0
   -1.7608    0.1328    0.2711 C   0  0  0  0  0  0  0  0  0  0  0  0
   -1.2671   -0.2007    1.9146 S   0  0  0  0  0  6  0  0  0  0  0  0
   -1.7490   -1.5701    2.3085 O   0  0  0  0  0  0  0  0  0  0  0  0
   -1.8527    0.8313    2.8372 O   0  0  0  0  0  0  0  0  0  0  0  0
   -5.2081    0.9699   -1.6878 S   0  0  0  0  0  6  0  0  0  0  0  0
   -5.8745   -0.3838   -2.5328 N   0  0  0  0  0  0  0  0  0  0  0  0
   -5.3607    2.2130   -2.5185 O   0  0  0  0  0  0  0  0  0  0  0  0
   -5.9665    1.1620   -0.4041 O   0  0  0  0  0  0  0  0  0  0  0  0
    0.3219   -0.3827    4.1017 H   0  0  0  0  0  0  0  0  0  0  0  0
    1.9680   -0.5052    3.4544 H   0  0  0  0  0  0  0  0  0  0  0  0
    0.8005   -1.8689    3.1864 H   0  0  0  0  0  0  0  0  0  0  0  0
    0.6591   -1.8256    0.7223 H   0  0  0  0  0  0  0  0  0  0  0  0
    2.9263   -1.5162    1.6075 H   0  0  0  0  0  0  0  0  0  0  0  0
    2.9310   -1.2716   -0.1563 H   0  0  0  0  0  0  0  0  0  0  0  0
    5.6642    0.9000    1.5378 H   0  0  0  0  0  0  0  0  0  0  0  0
    5.1863   -0.7629    1.0742 H   0  0  0  0  0  0  0  0  0  0  0  0
    1.3018    0.2028   -1.1527 H   0  0  0  0  0  0  0  0  0  0  0  0
   -0.4278    0.5359   -2.8287 H   0  0  0  0  0  0  0  0  0  0  0  0
   -3.8420    0.3240    0.7607 H   0  0  0  0  0  0  0  0  0  0  0  0
   -5.6643   -1.2330   -1.9619 H   0  0  0  0  0  0  0  0  0  0  0  0
   -5.3456   -0.4838   -3.4274 H   0  0  0  0  0  0  0  0  0  0  0  0
  1  2  1  0
  2  3  1  0
  3  4  1  0
  4  5  1  0
  5  6  1  0
  6  7  1  0
  7  8  1  0
  7  9  1  0
  7 10  1  0
  3 11  1  0
 11 12  1  0
 12 13  2  0
 13 14  1  0
 14 15  1  0
 14 16  2  0
 16 17  1  0
 17 18  2  0
 18 19  1  0
 19 20  2  0
 19 21  2  0
 16 22  1  0
 22 23  1  0
 22 24  2  0
 22 25  2  0
 19  2  1  0
 18 12  1  0
  1 26  1  0
  1 27  1  0
  1 28  1  0
  3 29  1  0
  4 30  1  0
  4 31  1  0
  6 32  1  0
  6 33  1  0
 11 34  1  0
 13 35  1  0
 17 36  1  0
 23 37  1  0
 23 38  1  0
M  END
$$$$
