
     RDKit          3D

 20 20  0  0  0  0  0  0  0  0999 V2000
   -2.2036   -1.9332    0.6615 N   0  0  0  0  0  0  0  0  0  0  0  0
   -1.0639   -1.0140    0.6317 C   0  0  1  0  0  0  0  0  0  0  0  0
   -0.4169   -1.0294   -0.7640 C   0  0  0  0  0  0  0  0  0  0  0  0
    0.8632   -0.2483   -0.7886 C   0  0  0  0  0  0  0  0  0  0  0  0
    0.9967    1.0862   -1.1504 C   0  0  0  0  0  0  0  0  0  0  0  0
    2.3044    1.5658   -1.0103 C   0  0  0  0  0  0  0  0  0  0  0  0
    3.1978    0.6170   -0.5291 C   0  0  0  0  0  0  0  0  0  0  0  0
    2.3591   -0.8187   -0.2747 S   0  0  0  0  0  0  0  0  0  0  0  0
   -1.4893    0.3778    1.0269 C   0  0  0  0  0  0  0  0  0  0  0  0
   -0.8591    1.0159    2.0906 O   0  0  0  0  0  0  0  0  0  0  0  0
   -2.3988    0.9731    0.3881 O   0  0  0  0  0  0  0  0  0  0  0  0
   -2.9512   -1.5871    0.0160 H   0  0  0  0  0  0  0  0  0  0  0  0
   -2.6031   -1.9417    1.6286 H   0  0  0  0  0  0  0  0  0  0  0  0
   -0.3124   -1.3779    1.3680 H   0  0  0  0  0  0  0  0  0  0  0  0
   -1.1217   -0.6197   -1.5206 H   0  0  0  0  0  0  0  0  0  0  0  0
   -0.1930   -2.0794   -1.0515 H   0  0  0  0  0  0  0  0  0  0  0  0
    0.1740    1.6980   -1.4969 H   0  0  0  0  0  0  0  0  0  0  0  0
    2.5908    2.5818   -1.2467 H   0  0  0  0  0  0  0  0  0  0  0  0
    4.2507    0.7792   -0.3423 H   0  0  0  0  0  0  0  0  0  0  0  0
   -1.1240    1.9547    2.3637 H   0  0  0  0  0  0  0  0  0  0  0  0
  1  2  1  0
  2  3  1  0
  3  4  1  0
  4  5  2  0
  5  6  1  0
  6  7  2  0
  7  8  1  0
  2  9  1  0
  9 10  1  0
  9 11  2  0
  8  4  1  0
  1 12  1  0
  1 13  1  0
  2 14  1  1
  3 15  1  0
  3 16  1  0
  5 17  1  0
  6 18  1  0
  7 19  1  0
 10 20  1  0
M  END
$$$$
