
     RDKit          3D

 62 64  0  0  0  0  0  0  0  0999 V2000
    1.2781   -1.8882   -1.7155 C   0  0  2  0  0  0  0  0  0  0  0  0
    1.9381   -0.9259   -2.7051 C   0  0  0  0  0  0  0  0  0  0  0  0
    0.9500    0.2225   -2.8938 C   0  0  0  0  0  0  0  0  0  0  0  0
   -0.4095   -0.3225   -2.4744 C   0  0  0  0  0  0  0  0  0  0  0  0
   -0.1334   -1.5309   -1.7123 N   0  0  0  0  0  0  0  0  0  0  0  0
   -1.1456   -2.3189   -1.0581 C   0  0  0  0  0  0  0  0  0  0  0  0
   -0.8361   -3.4188   -0.5248 O   0  0  0  0  0  0  0  0  0  0  0  0
   -2.5594   -1.8299   -0.9482 C   0  0  0  0  0  0  0  0  0  0  0  0
   -2.6161   -0.7210    0.0129 N   0  0  0  0  0  0  0  0  0  0  0  0
   -3.9183   -0.0265    0.0085 C   0  0  0  0  0  0  0  0  0  0  0  0
   -3.6741    1.4287    0.4455 C   0  0  0  0  0  0  0  0  0  0  0  0
   -4.9401    2.3009    0.4672 C   0  0  0  0  0  0  0  0  0  0  0  0
   -5.8209    2.0142    1.6940 C   0  0  0  0  0  0  0  0  0  0  0  0
   -6.8546    0.8937    1.4857 C   0  0  0  0  0  0  0  0  0  0  0  0
   -6.3892   -0.3114    0.6496 C   0  0  0  0  0  0  0  0  0  0  0  0
   -4.9408   -0.7542    0.9214 C   0  0  0  0  0  0  0  0  0  0  0  0
    1.8699   -1.7425   -0.3369 C   0  0  0  0  0  0  0  0  0  0  0  0
    2.6820   -2.6135    0.0771 O   0  0  0  0  0  0  0  0  0  0  0  0
    1.5577   -0.6029    0.4797 N   0  0  0  0  0  0  0  0  0  0  0  0
    2.2821   -0.3045    1.7117 C   0  0  0  0  0  0  0  0  0  0  0  0
    3.6686    0.1808    1.3881 C   0  0  0  0  0  0  0  0  0  0  0  0
    4.7882   -0.6194    1.6590 C   0  0  0  0  0  0  0  0  0  0  0  0
    6.0708   -0.1751    1.3252 C   0  0  0  0  0  0  0  0  0  0  0  0
    6.2560    1.0764    0.7128 C   0  0  0  0  0  0  0  0  0  0  0  0
    5.1297    1.8722    0.4360 C   0  0  0  0  0  0  0  0  0  0  0  0
    3.8478    1.4266    0.7696 C   0  0  0  0  0  0  0  0  0  0  0  0
    7.6205    1.5392    0.3550 C   0  0  0  0  0  0  0  0  0  0  0  0
    8.5984    0.6053   -0.1103 N   0  0  0  0  0  0  0  0  0  0  0  0
    7.9510    2.7886    0.4653 N   0  0  0  0  0  0  0  0  0  0  0  0
    1.3995   -2.9351   -2.0739 H   0  0  0  0  0  0  0  0  0  0  0  0
    2.9274   -0.5531   -2.3568 H   0  0  0  0  0  0  0  0  0  0  0  0
    2.0819   -1.4436   -3.6792 H   0  0  0  0  0  0  0  0  0  0  0  0
    0.9374    0.5765   -3.9474 H   0  0  0  0  0  0  0  0  0  0  0  0
    1.2354    1.0678   -2.2293 H   0  0  0  0  0  0  0  0  0  0  0  0
   -0.9471    0.4223   -1.8490 H   0  0  0  0  0  0  0  0  0  0  0  0
   -1.0174   -0.5767   -3.3695 H   0  0  0  0  0  0  0  0  0  0  0  0
   -3.2177   -2.6640   -0.6216 H   0  0  0  0  0  0  0  0  0  0  0  0
   -2.8965   -1.4995   -1.9543 H   0  0  0  0  0  0  0  0  0  0  0  0
   -2.4040   -1.0842    0.9729 H   0  0  0  0  0  0  0  0  0  0  0  0
   -4.3162    0.0111   -1.0316 H   0  0  0  0  0  0  0  0  0  0  0  0
   -3.1770    1.4497    1.4406 H   0  0  0  0  0  0  0  0  0  0  0  0
   -2.9599    1.8853   -0.2751 H   0  0  0  0  0  0  0  0  0  0  0  0
   -4.6125    3.3620    0.5244 H   0  0  0  0  0  0  0  0  0  0  0  0
   -5.5161    2.1931   -0.4776 H   0  0  0  0  0  0  0  0  0  0  0  0
   -5.1889    1.7785    2.5781 H   0  0  0  0  0  0  0  0  0  0  0  0
   -6.3767    2.9417    1.9539 H   0  0  0  0  0  0  0  0  0  0  0  0
   -7.1773    0.5325    2.4868 H   0  0  0  0  0  0  0  0  0  0  0  0
   -7.7554    1.3239    0.9956 H   0  0  0  0  0  0  0  0  0  0  0  0
   -6.5342   -0.0945   -0.4310 H   0  0  0  0  0  0  0  0  0  0  0  0
   -7.0678   -1.1615    0.8821 H   0  0  0  0  0  0  0  0  0  0  0  0
   -4.6797   -0.6222    1.9943 H   0  0  0  0  0  0  0  0  0  0  0  0
   -4.8898   -1.8440    0.7168 H   0  0  0  0  0  0  0  0  0  0  0  0
    0.8231    0.0705    0.1673 H   0  0  0  0  0  0  0  0  0  0  0  0
    2.3035   -1.2046    2.3641 H   0  0  0  0  0  0  0  0  0  0  0  0
    1.7441    0.4916    2.2708 H   0  0  0  0  0  0  0  0  0  0  0  0
    4.6700   -1.5883    2.1281 H   0  0  0  0  0  0  0  0  0  0  0  0
    6.9189   -0.8051    1.5617 H   0  0  0  0  0  0  0  0  0  0  0  0
    5.2358    2.8287   -0.0598 H   0  0  0  0  0  0  0  0  0  0  0  0
    2.9919    2.0485    0.5370 H   0  0  0  0  0  0  0  0  0  0  0  0
    8.3492   -0.3908   -0.2984 H   0  0  0  0  0  0  0  0  0  0  0  0
    9.5707    0.9221   -0.3223 H   0  0  0  0  0  0  0  0  0  0  0  0
    7.2945    3.5203    0.8175 H   0  0  0  0  0  0  0  0  0  0  0  0
  1  2  1  0
  2  3  1  0
  3  4  1  0
  4  5  1  0
  5  6  1  0
  6  7  2  0
  6  8  1  0
  8  9  1  0
  9 10  1  0
 10 11  1  0
 11 12  1  0
 12 13  1  0
 13 14  1  0
 14 15  1  0
 15 16  1  0
  1 17  1  0
 17 18  2  0
 17 19  1  0
 19 20  1  0
 20 21  1  0
 21 22  2  0
 22 23  1  0
 23 24  2  0
 24 25  1  0
 25 26  2  0
 24 27  1  0
 27 28  1  0
 27 29  2  3
  5  1  1  0
 16 10  1  0
 26 21  1  0
  1 30  1  6
  2 31  1  0
  2 32  1  0
  3 33  1  0
  3 34  1  0
  4 35  1  0
  4 36  1  0
  8 37  1  0
  8 38  1  0
  9 39  1  0
 10 40  1  0
 11 41  1  0
 11 42  1  0
 12 43  1  0
 12 44  1  0
 13 45  1  0
 13 46  1  0
 14 47  1  0
 14 48  1  0
 15 49  1  0
 15 50  1  0
 16 51  1  0
 16 52  1  0
 19 53  1  0
 20 54  1  0
 20 55  1  0
 22 56  1  0
 23 57  1  0
 25 58  1  0
 26 59  1  0
 28 60  1  0
 28 61  1  0
 29 62  1  0
M  END
$$$$
