
     RDKit          3D

 40 41  0  0  0  0  0  0  0  0999 V2000
    4.9321    0.9187   -0.9810 C   0  0  0  0  0  0  0  0  0  0  0  0
    3.4923    0.6123   -0.5603 C   0  0  1  0  0  0  0  0  0  0  0  0
    2.6286    0.8441   -1.6431 O   0  0  0  0  0  0  0  0  0  0  0  0
    3.3693   -0.8527   -0.1014 C   0  0  0  0  0  0  0  0  0  0  0  0
    1.9424   -1.2443    0.3206 C   0  0  0  0  0  0  0  0  0  0  0  0
    1.5005   -0.5622    1.6253 C   0  0  0  0  0  0  0  0  0  0  0  0
    0.1587   -1.1058    2.1396 C   0  0  0  0  0  0  0  0  0  0  0  0
   -0.9449   -0.7917    1.2073 N   0  0  0  0  0  0  0  0  0  0  0  0
   -1.4066   -1.7494    0.3158 C   0  0  0  0  0  0  0  0  0  0  0  0
   -0.9048   -2.9089    0.3224 O   0  0  0  0  0  0  0  0  0  0  0  0
   -2.4090   -1.4522   -0.5828 N   0  0  0  0  0  0  0  0  0  0  0  0
   -2.9238   -2.4702   -1.5084 C   0  0  0  0  0  0  0  0  0  0  0  0
   -2.9519   -0.2054   -0.5448 C   0  0  0  0  0  0  0  0  0  0  0  0
   -2.5209    0.7441    0.3155 C   0  0  0  0  0  0  0  0  0  0  0  0
   -3.2364    1.8643    0.1204 N   0  0  0  0  0  0  0  0  0  0  0  0
   -3.1333    3.1439    0.8143 C   0  0  0  0  0  0  0  0  0  0  0  0
   -4.0989    1.5422   -0.8747 C   0  0  0  0  0  0  0  0  0  0  0  0
   -3.9540    0.2651   -1.3148 N   0  0  0  0  0  0  0  0  0  0  0  0
   -1.4988    0.4695    1.2136 C   0  0  0  0  0  0  0  0  0  0  0  0
   -1.0956    1.3570    2.0148 O   0  0  0  0  0  0  0  0  0  0  0  0
    5.2325    0.2765   -1.8365 H   0  0  0  0  0  0  0  0  0  0  0  0
    5.6272    0.7427   -0.1323 H   0  0  0  0  0  0  0  0  0  0  0  0
    5.0176    1.9828   -1.2875 H   0  0  0  0  0  0  0  0  0  0  0  0
    3.2336    1.2840    0.2894 H   0  0  0  0  0  0  0  0  0  0  0  0
    2.5004    1.8269   -1.7033 H   0  0  0  0  0  0  0  0  0  0  0  0
    4.0668   -1.0418    0.7443 H   0  0  0  0  0  0  0  0  0  0  0  0
    3.6757   -1.5184   -0.9384 H   0  0  0  0  0  0  0  0  0  0  0  0
    1.9217   -2.3462    0.4679 H   0  0  0  0  0  0  0  0  0  0  0  0
    1.2301   -1.0016   -0.4968 H   0  0  0  0  0  0  0  0  0  0  0  0
    2.2696   -0.7362    2.4091 H   0  0  0  0  0  0  0  0  0  0  0  0
    1.4117    0.5332    1.4714 H   0  0  0  0  0  0  0  0  0  0  0  0
   -0.0514   -0.6583    3.1359 H   0  0  0  0  0  0  0  0  0  0  0  0
    0.2421   -2.1990    2.3236 H   0  0  0  0  0  0  0  0  0  0  0  0
   -3.4418   -2.0069   -2.3751 H   0  0  0  0  0  0  0  0  0  0  0  0
   -2.0916   -3.0824   -1.9170 H   0  0  0  0  0  0  0  0  0  0  0  0
   -3.6370   -3.1321   -0.9737 H   0  0  0  0  0  0  0  0  0  0  0  0
   -3.3395    3.0012    1.8957 H   0  0  0  0  0  0  0  0  0  0  0  0
   -2.1127    3.5605    0.6824 H   0  0  0  0  0  0  0  0  0  0  0  0
   -3.8687    3.8684    0.4040 H   0  0  0  0  0  0  0  0  0  0  0  0
   -4.8313    2.2282   -1.2804 H   0  0  0  0  0  0  0  0  0  0  0  0
  1  2  1  0
  2  3  1  0
  2  4  1  0
  4  5  1  0
  5  6  1  0
  6  7  1  0
  7  8  1  0
  8  9  1  0
  9 10  2  0
  9 11  1  0
 11 12  1  0
 11 13  1  0
 13 14  2  0
 14 15  1  0
 15 16  1  0
 15 17  1  0
 17 18  2  0
 14 19  1  0
 19 20  2  0
 19  8  1  0
 18 13  1  0
  1 21  1  0
  1 22  1  0
  1 23  1  0
  2 24  1  1
  3 25  1  0
  4 26  1  0
  4 27  1  0
  5 28  1  0
  5 29  1  0
  6 30  1  0
  6 31  1  0
  7 32  1  0
  7 33  1  0
 12 34  1  0
 12 35  1  0
 12 36  1  0
 16 37  1  0
 16 38  1  0
 16 39  1  0
 17 40  1  0
M  END
$$$$
