
     RDKit          3D

 27 28  0  0  0  0  0  0  0  0999 V2000
    2.3910    0.0762    0.3851 C   0  0  2  0  0  0  0  0  0  0  0  0
    3.4468    0.0200   -0.5397 O   0  0  0  0  0  0  0  0  0  0  0  0
    1.5466   -1.2133    0.3545 C   0  0  0  0  0  0  0  0  0  0  0  0
    0.2192   -0.8247   -0.1267 N   0  0  0  0  0  0  0  0  0  0  0  0
   -0.8834   -1.6617    0.3663 C   0  0  0  0  0  0  0  0  0  0  0  0
   -2.1971   -1.1707   -0.2664 C   0  0  0  0  0  0  0  0  0  0  0  0
   -2.4148    0.3376   -0.0248 C   0  0  0  0  0  0  0  0  0  0  0  0
   -1.1680    1.1684   -0.4027 C   0  0  1  0  0  0  0  0  0  0  0  0
   -1.3341    2.5000    0.0073 O   0  0  0  0  0  0  0  0  0  0  0  0
    0.0508    0.5586    0.3064 C   0  0  2  0  0  0  0  0  0  0  0  0
    1.4056    1.2110    0.0462 C   0  0  2  0  0  0  0  0  0  0  0  0
    1.5355    1.6498   -1.2874 O   0  0  0  0  0  0  0  0  0  0  0  0
    2.7928    0.2381    1.4132 H   0  0  0  0  0  0  0  0  0  0  0  0
    4.1255   -0.5942   -0.1552 H   0  0  0  0  0  0  0  0  0  0  0  0
    1.9825   -1.9694   -0.3335 H   0  0  0  0  0  0  0  0  0  0  0  0
    1.4934   -1.6483    1.3790 H   0  0  0  0  0  0  0  0  0  0  0  0
   -0.7128   -2.7183    0.0658 H   0  0  0  0  0  0  0  0  0  0  0  0
   -0.9567   -1.6215    1.4772 H   0  0  0  0  0  0  0  0  0  0  0  0
   -3.0502   -1.7416    0.1587 H   0  0  0  0  0  0  0  0  0  0  0  0
   -2.1664   -1.3624   -1.3614 H   0  0  0  0  0  0  0  0  0  0  0  0
   -3.2857    0.6814   -0.6235 H   0  0  0  0  0  0  0  0  0  0  0  0
   -2.6567    0.4994    1.0491 H   0  0  0  0  0  0  0  0  0  0  0  0
   -1.0215    1.1224   -1.5072 H   0  0  0  0  0  0  0  0  0  0  0  0
   -1.9715    2.9161   -0.6302 H   0  0  0  0  0  0  0  0  0  0  0  0
   -0.1274    0.6003    1.4104 H   0  0  0  0  0  0  0  0  0  0  0  0
    1.5566    2.0791    0.7245 H   0  0  0  0  0  0  0  0  0  0  0  0
    1.4002    0.8678   -1.8850 H   0  0  0  0  0  0  0  0  0  0  0  0
  1  2  1  0
  1  3  1  0
  3  4  1  0
  4  5  1  0
  5  6  1  0
  6  7  1  0
  7  8  1  0
  8  9  1  0
  8 10  1  0
 10 11  1  0
 11 12  1  0
 11  1  1  0
 10  4  1  0
  1 13  1  1
  2 14  1  0
  3 15  1  0
  3 16  1  0
  5 17  1  0
  5 18  1  0
  6 19  1  0
  6 20  1  0
  7 21  1  0
  7 22  1  0
  8 23  1  6
  9 24  1  0
 10 25  1  1
 11 26  1  1
 12 27  1  0
M  END
$$$$
