
     RDKit          2D

189193  0  0  0  0  0  0  0  0999 V2000
   12.5388    0.0000    0.0000 Ga  0  0  0  0  0 15  0  0  0  0  0  0
   10.2808   -1.5631    0.0000 C   0  0  0  0  0  0  0  0  0  0  0  0
    9.4638   -0.3051    0.0000 C   0  0  0  0  0  0  0  0  0  0  0  0
    8.2058   -1.1220    0.0000 O   0  0  0  0  0  0  0  0  0  0  0  0
    8.6469    0.9529    0.0000 C   0  0  0  0  0  0  0  0  0  0  0  0
    7.8299    2.2109    0.0000 C   0  0  0  0  0  0  0  0  0  0  0  0
    7.0129    3.4689    0.0000 O   0  0  0  0  0  0  0  0  0  0  0  0
    7.3889    0.1360    0.0000 N   0  0  0  0  0  0  0  0  0  0  0  0
    6.0523    0.8170    0.0000 C   0  0  0  0  0  0  0  0  0  0  0  0
    6.1080    1.6122    0.0000 O   0  0  0  0  0  0  0  0  0  0  0  0
    4.7943    0.0000    0.0000 C   0  0  0  0  0  0  0  0  0  0  0  0
    4.5597   -1.4815    0.0000 C   0  0  0  0  0  0  0  0  0  0  0  0
    3.8787   -2.8180    0.0000 S   0  0  0  0  0  0  0  0  0  0  0  0
    2.8180   -3.8787    0.0000 S   0  0  0  0  0  0  0  0  0  0  0  0
    1.4815   -4.5597    0.0000 C   0  0  0  0  0  0  0  0  0  0  0  0
   -0.0000   -4.7943    0.0000 C   0  0  0  0  0  0  0  0  0  0  0  0
    0.8170   -6.0523    0.0000 N   0  0  0  0  0  0  0  0  0  0  0  0
    0.1360   -7.3889    0.0000 C   0  0  0  0  0  0  0  0  0  0  0  0
   -1.3620   -7.4674    0.0000 O   0  0  0  0  0  0  0  0  0  0  0  0
    0.9529   -8.6469    0.0000 C   0  0  0  0  0  0  0  0  0  0  0  0
    1.7699   -9.9049    0.0000 C   0  0  0  0  0  0  0  0  0  0  0  0
    2.5868  -11.1629    0.0000 C   0  0  0  0  0  0  0  0  0  0  0  0
    1.9059  -12.4994    0.0000 C   0  0  0  0  0  0  0  0  0  0  0  0
    2.7228  -13.7574    0.0000 C   0  0  0  0  0  0  0  0  0  0  0  0
    4.2208  -13.6789    0.0000 C   0  0  0  0  0  0  0  0  0  0  0  0
    4.9018  -12.3424    0.0000 C   0  0  0  0  0  0  0  0  0  0  0  0
    4.0848  -11.0844    0.0000 C   0  0  0  0  0  0  0  0  0  0  0  0
   -0.3051   -9.4638    0.0000 N   0  0  0  0  0  0  0  0  0  0  0  0
   -0.2266  -10.9618    0.0000 C   0  0  0  0  0  0  0  0  0  0  0  0
    1.1099  -11.6428    0.0000 O   0  0  0  0  0  0  0  0  0  0  0  0
   -1.4846  -11.7787    0.0000 C   0  0  0  0  0  0  0  0  0  0  0  0
   -2.7426  -12.5957    0.0000 N   0  0  0  0  0  0  0  0  0  0  0  0
   -3.8573  -11.5920    0.0000 C   0  0  0  0  0  0  0  0  0  0  0  0
   -5.3245  -11.2801    0.0000 C   0  0  0  0  0  0  0  0  0  0  0  0
   -6.7511  -11.7436    0.0000 N   0  0  0  0  0  0  0  0  0  0  0  0
   -7.5681  -10.4856    0.0000 C   0  0  0  0  0  0  0  0  0  0  0  0
   -8.3850   -9.2276    0.0000 C   0  0  0  0  0  0  0  0  0  0  0  0
   -9.8830   -9.3061    0.0000 O   0  0  0  0  0  1  0  0  0  0  0  0
   -7.8720   -7.8181    0.0000 O   0  0  0  0  0  0  0  0  0  0  0  0
   -7.7548  -12.8584    0.0000 C   0  0  0  0  0  0  0  0  0  0  0  0
   -8.0667  -14.3256    0.0000 C   0  0  0  0  0  0  0  0  0  0  0  0
   -7.6031  -15.7522    0.0000 N   0  0  0  0  0  0  0  0  0  0  0  0
   -8.8611  -16.5691    0.0000 C   0  0  0  0  0  0  0  0  0  0  0  0
  -10.1192  -17.3861    0.0000 C   0  0  0  0  0  0  0  0  0  0  0  0
  -11.4557  -16.7051    0.0000 O   0  0  0  0  0  1  0  0  0  0  0  0
  -10.0407  -18.8840    0.0000 O   0  0  0  0  0  0  0  0  0  0  0  0
   -6.4884  -16.7559    0.0000 C   0  0  0  0  0  0  0  0  0  0  0  0
   -5.0212  -17.0677    0.0000 C   0  0  0  0  0  0  0  0  0  0  0  0
   -3.5946  -16.6042    0.0000 N   0  0  0  0  0  0  0  0  0  0  0  0
   -2.7777  -17.8622    0.0000 C   0  0  0  0  0  0  0  0  0  0  0  0
   -1.9607  -19.1202    0.0000 C   0  0  0  0  0  0  0  0  0  0  0  0
   -2.6417  -20.4567    0.0000 O   0  0  0  0  0  1  0  0  0  0  0  0
   -0.4628  -19.0417    0.0000 O   0  0  0  0  0  0  0  0  0  0  0  0
   -2.5909  -15.4895    0.0000 C   0  0  0  0  0  0  0  0  0  0  0  0
   -2.2791  -14.0223    0.0000 C   0  0  0  0  0  0  0  0  0  0  0  0
   -1.4815   -4.5597    0.0000 C   0  0  0  0  0  0  0  0  0  0  0  0
   -1.7677   -6.0321    0.0000 O   0  0  0  0  0  0  0  0  0  0  0  0
   -2.8180   -3.8787    0.0000 N   0  0  0  0  0  0  0  0  0  0  0  0
   -3.8787   -2.8180    0.0000 C   0  0  0  0  0  0  0  0  0  0  0  0
   -4.4163   -4.2184    0.0000 C   0  0  0  0  0  0  0  0  0  0  0  0
   -4.9538   -5.6188    0.0000 C   0  0  0  0  0  0  0  0  0  0  0  0
   -6.4353   -5.8534    0.0000 C   0  0  0  0  0  0  0  0  0  0  0  0
   -6.9729   -7.2538    0.0000 C   0  0  0  0  0  0  0  0  0  0  0  0
   -6.0289   -8.4195    0.0000 C   0  0  0  0  0  0  0  0  0  0  0  0
   -6.5665   -9.8199    0.0000 O   0  0  0  0  0  0  0  0  0  0  0  0
   -4.5474   -8.1849    0.0000 C   0  0  0  0  0  0  0  0  0  0  0  0
   -4.0098   -6.7845    0.0000 C   0  0  0  0  0  0  0  0  0  0  0  0
   -4.5597   -1.4815    0.0000 C   0  0  0  0  0  0  0  0  0  0  0  0
   -5.9863   -1.9451    0.0000 O   0  0  0  0  0  0  0  0  0  0  0  0
   -4.7943    0.0000    0.0000 N   0  0  0  0  0  0  0  0  0  0  0  0
   -4.5597    1.4815    0.0000 C   0  0  0  0  0  0  0  0  0  0  0  0
   -6.0086    1.0933    0.0000 C   0  0  0  0  0  0  0  0  0  0  0  0
   -7.4575    0.7051    0.0000 C   0  0  0  0  0  0  0  0  0  0  0  0
   -7.9950   -0.6953    0.0000 C   0  0  0  0  0  0  0  0  0  0  0  0
   -9.4930   -0.6168    0.0000 N   0  0  0  0  0  0  0  0  0  0  0  0
   -9.8812    0.8321    0.0000 C   0  0  0  0  0  0  0  0  0  0  0  0
   -8.6232    1.6491    0.0000 C   0  0  0  0  0  0  0  0  0  0  0  0
   -8.7017    3.1470    0.0000 C   0  0  0  0  0  0  0  0  0  0  0  0
  -10.0382    3.8280    0.0000 C   0  0  0  0  0  0  0  0  0  0  0  0
  -11.2962    3.0110    0.0000 C   0  0  0  0  0  0  0  0  0  0  0  0
  -11.2177    1.5131    0.0000 C   0  0  0  0  0  0  0  0  0  0  0  0
   -3.8787    2.8180    0.0000 C   0  0  0  0  0  0  0  0  0  0  0  0
   -5.0922    3.6997    0.0000 O   0  0  0  0  0  0  0  0  0  0  0  0
   -2.8180    3.8787    0.0000 N   0  0  0  0  0  0  0  0  0  0  0  0
   -1.4815    4.5597    0.0000 C   0  0  0  0  0  0  0  0  0  0  0  0
   -2.6473    5.5037    0.0000 C   0  0  0  0  0  0  0  0  0  0  0  0
   -3.8130    6.4476    0.0000 C   0  0  0  0  0  0  0  0  0  0  0  0
   -4.9787    7.3916    0.0000 C   0  0  0  0  0  0  0  0  0  0  0  0
   -6.1444    8.3356    0.0000 C   0  0  0  0  0  0  0  0  0  0  0  0
   -7.3101    9.2796    0.0000 N   0  0  0  0  0  0  0  0  0  0  0  0
    0.0000    4.7943    0.0000 C   0  0  0  0  0  0  0  0  0  0  0  0
    0.0000    6.2943    0.0000 O   0  0  0  0  0  0  0  0  0  0  0  0
    1.4815    4.5597    0.0000 N   0  0  0  0  0  0  0  0  0  0  0  0
    2.8180    3.8787    0.0000 C   0  0  0  0  0  0  0  0  0  0  0  0
    2.8965    5.3766    0.0000 C   0  0  0  0  0  0  0  0  0  0  0  0
    2.9751    6.8746    0.0000 C   0  0  0  0  0  0  0  0  0  0  0  0
    4.3945    5.2981    0.0000 O   0  0  0  0  0  0  0  0  0  0  0  0
    3.8787    2.8180    0.0000 C   0  0  0  0  0  0  0  0  0  0  0  0
    4.9757    3.8411    0.0000 O   0  0  0  0  0  0  0  0  0  0  0  0
    4.5597    1.4815    0.0000 N   0  0  0  0  0  0  0  0  0  0  0  0
   11.0977   -2.8211    0.0000 H   0  0  0  0  0  0  0  0  0  0  0  0
    9.1317   -2.5273    0.0000 H   0  0  0  0  0  0  0  0  0  0  0  0
   11.5388   -0.7461    0.0000 H   0  0  0  0  0  0  0  0  0  0  0  0
   10.7218    0.5119    0.0000 H   0  0  0  0  0  0  0  0  0  0  0  0
    8.1011   -2.6184    0.0000 H   0  0  0  0  0  0  0  0  0  0  0  0
    9.9049    1.7699    0.0000 H   0  0  0  0  0  0  0  0  0  0  0  0
    9.0879    3.0279    0.0000 H   0  0  0  0  0  0  0  0  0  0  0  0
    7.0501    2.0453    0.0000 H   0  0  0  0  0  0  0  0  0  0  0  0
    5.5166    3.5736    0.0000 H   0  0  0  0  0  0  0  0  0  0  0  0
    7.1026   -1.3365    0.0000 H   0  0  0  0  0  0  0  0  0  0  0  0
    6.1425   -0.6575    0.0000 H   0  0  0  0  0  0  0  0  0  0  0  0
    6.0451   -1.2728    0.0000 H   0  0  0  0  0  0  0  0  0  0  0  0
    5.5037   -2.6473    0.0000 H   0  0  0  0  0  0  0  0  0  0  0  0
    2.7536   -5.3545    0.0000 H   0  0  0  0  0  0  0  0  0  0  0  0
    1.4554   -6.0595    0.0000 H   0  0  0  0  0  0  0  0  0  0  0  0
   -0.8170   -6.0523    0.0000 H   0  0  0  0  0  0  0  0  0  0  0  0
    2.3133   -6.1570    0.0000 H   0  0  0  0  0  0  0  0  0  0  0  0
    2.2109   -7.8299    0.0000 H   0  0  0  0  0  0  0  0  0  0  0  0
    0.7470  -11.0020    0.0000 H   0  0  0  0  0  0  0  0  0  0  0  0
    3.0279   -9.0879    0.0000 H   0  0  0  0  0  0  0  0  0  0  0  0
    0.4079  -12.5779    0.0000 H   0  0  0  0  0  0  0  0  0  0  0  0
    2.0418  -15.0939    0.0000 H   0  0  0  0  0  0  0  0  0  0  0  0
    5.0377  -14.9369    0.0000 H   0  0  0  0  0  0  0  0  0  0  0  0
    6.3997  -12.2639    0.0000 H   0  0  0  0  0  0  0  0  0  0  0  0
    4.7658   -9.7479    0.0000 H   0  0  0  0  0  0  0  0  0  0  0  0
   -1.6416   -8.7828    0.0000 H   0  0  0  0  0  0  0  0  0  0  0  0
   -0.5204  -12.9278    0.0000 H   0  0  0  0  0  0  0  0  0  0  0  0
   -2.1421  -10.4305    0.0000 H   0  0  0  0  0  0  0  0  0  0  0  0
   -3.7004  -10.1002    0.0000 H   0  0  0  0  0  0  0  0  0  0  0  0
   -2.6286  -10.7316    0.0000 H   0  0  0  0  0  0  0  0  0  0  0  0
   -6.3852  -10.2195    0.0000 H   0  0  0  0  0  0  0  0  0  0  0  0
   -4.6906   -9.9206    0.0000 H   0  0  0  0  0  0  0  0  0  0  0  0
   -6.2199   -9.8281    0.0000 H   0  0  0  0  0  0  0  0  0  0  0  0
   -8.9163  -11.1432    0.0000 H   0  0  0  0  0  0  0  0  0  0  0  0
   -9.2546  -12.8845    0.0000 H   0  0  0  0  0  0  0  0  0  0  0  0
   -8.6152  -11.6297    0.0000 H   0  0  0  0  0  0  0  0  0  0  0  0
   -9.3524  -15.0981    0.0000 H   0  0  0  0  0  0  0  0  0  0  0  0
   -9.4261  -13.6917    0.0000 H   0  0  0  0  0  0  0  0  0  0  0  0
   -9.8254  -15.4201    0.0000 H   0  0  0  0  0  0  0  0  0  0  0  0
   -8.2036  -17.9173    0.0000 H   0  0  0  0  0  0  0  0  0  0  0  0
   -6.4623  -18.2556    0.0000 H   0  0  0  0  0  0  0  0  0  0  0  0
   -7.7171  -17.6163    0.0000 H   0  0  0  0  0  0  0  0  0  0  0  0
   -4.2487  -18.3535    0.0000 H   0  0  0  0  0  0  0  0  0  0  0  0
   -5.6551  -18.4272    0.0000 H   0  0  0  0  0  0  0  0  0  0  0  0
   -3.9267  -18.8264    0.0000 H   0  0  0  0  0  0  0  0  0  0  0  0
   -1.4295  -17.2047    0.0000 H   0  0  0  0  0  0  0  0  0  0  0  0
   -1.0912  -15.4633    0.0000 H   0  0  0  0  0  0  0  0  0  0  0  0
   -1.7305  -16.7182    0.0000 H   0  0  0  0  0  0  0  0  0  0  0  0
   -0.9933  -13.2497    0.0000 H   0  0  0  0  0  0  0  0  0  0  0  0
   -0.9196  -14.6562    0.0000 H   0  0  0  0  0  0  0  0  0  0  0  0
   -3.5452   -5.1907    0.0000 H   0  0  0  0  0  0  0  0  0  0  0  0
   -5.3750   -2.7134    0.0000 H   0  0  0  0  0  0  0  0  0  0  0  0
   -3.3016   -5.2222    0.0000 H   0  0  0  0  0  0  0  0  0  0  0  0
   -5.8717   -3.8556    0.0000 H   0  0  0  0  0  0  0  0  0  0  0  0
   -7.3793   -4.6877    0.0000 H   0  0  0  0  0  0  0  0  0  0  0  0
   -8.4720   -7.3061    0.0000 H   0  0  0  0  0  0  0  0  0  0  0  0
   -5.9326  -11.1794    0.0000 H   0  0  0  0  0  0  0  0  0  0  0  0
   -3.4683   -9.2268    0.0000 H   0  0  0  0  0  0  0  0  0  0  0  0
   -2.5107   -6.7322    0.0000 H   0  0  0  0  0  0  0  0  0  0  0  0
   -6.2832   -0.1828    0.0000 H   0  0  0  0  0  0  0  0  0  0  0  0
   -5.3545    2.7536    0.0000 H   0  0  0  0  0  0  0  0  0  0  0  0
   -6.1655   -0.3985    0.0000 H   0  0  0  0  0  0  0  0  0  0  0  0
   -6.5705    2.4841    0.0000 H   0  0  0  0  0  0  0  0  0  0  0  0
   -7.1781   -1.9533    0.0000 H   0  0  0  0  0  0  0  0  0  0  0  0
  -10.4369   -1.7825    0.0000 H   0  0  0  0  0  0  0  0  0  0  0  0
   -7.4437    3.9640    0.0000 H   0  0  0  0  0  0  0  0  0  0  0  0
  -10.1167    5.3259    0.0000 H   0  0  0  0  0  0  0  0  0  0  0  0
  -12.6327    3.6920    0.0000 H   0  0  0  0  0  0  0  0  0  0  0  0
  -12.4757    0.6961    0.0000 H   0  0  0  0  0  0  0  0  0  0  0  0
   -3.8411    4.9757    0.0000 H   0  0  0  0  0  0  0  0  0  0  0  0
   -0.9196    5.9504    0.0000 H   0  0  0  0  0  0  0  0  0  0  0  0
   -1.8524    6.7758    0.0000 H   0  0  0  0  0  0  0  0  0  0  0  0
   -3.9464    4.7538    0.0000 H   0  0  0  0  0  0  0  0  0  0  0  0
   -2.8690    7.6134    0.0000 H   0  0  0  0  0  0  0  0  0  0  0  0
   -4.7570    5.2819    0.0000 H   0  0  0  0  0  0  0  0  0  0  0  0
   -4.0347    8.5573    0.0000 H   0  0  0  0  0  0  0  0  0  0  0  0
   -5.9227    6.2259    0.0000 H   0  0  0  0  0  0  0  0  0  0  0  0
   -7.0884    7.1699    0.0000 H   0  0  0  0  0  0  0  0  0  0  0  0
   -5.2004    9.5013    0.0000 H   0  0  0  0  0  0  0  0  0  0  0  0
   -7.0755   10.7611    0.0000 H   0  0  0  0  0  0  0  0  0  0  0  0
   -8.7105    8.7420    0.0000 H   0  0  0  0  0  0  0  0  0  0  0  0
    1.7677    6.0321    0.0000 H   0  0  0  0  0  0  0  0  0  0  0  0
    4.3069    4.0614    0.0000 H   0  0  0  0  0  0  0  0  0  0  0  0
    1.5263    5.9869    0.0000 H   0  0  0  0  0  0  0  0  0  0  0  0
    3.0536    8.3725    0.0000 H   0  0  0  0  0  0  0  0  0  0  0  0
    4.4714    6.9793    0.0000 H   0  0  0  0  0  0  0  0  0  0  0  0
    1.4771    6.9531    0.0000 H   0  0  0  0  0  0  0  0  0  0  0  0
    5.3587    6.4472    0.0000 H   0  0  0  0  0  0  0  0  0  0  0  0
    5.8317    2.2765    0.0000 H   0  0  0  0  0  0  0  0  0  0  0  0
  2  3  1  0
  3  4  1  0
  3  5  1  0
  5  6  1  0
  6  7  1  0
  5  8  1  0
  8  9  1  0
  9 10  2  0
  9 11  1  0
 11 12  1  0
 12 13  1  0
 13 14  1  0
 14 15  1  0
 15 16  1  0
 16 17  1  0
 17 18  1  0
 18 19  2  0
 18 20  1  0
 20 21  1  0
 21 22  1  0
 22 23  2  0
 23 24  1  0
 24 25  2  0
 25 26  1  0
 26 27  2  0
 20 28  1  0
 28 29  1  0
 29 30  2  0
 29 31  1  0
 31 32  1  0
 32 33  1  0
 33 34  1  0
 34 35  1  0
 35 36  1  0
 36 37  1  0
 37 38  1  0
 37 39  2  0
 35 40  1  0
 40 41  1  0
 41 42  1  0
 42 43  1  0
 43 44  1  0
 44 45  1  0
 44 46  2  0
 42 47  1  0
 47 48  1  0
 48 49  1  0
 49 50  1  0
 50 51  1  0
 51 52  1  0
 51 53  2  0
 49 54  1  0
 54 55  1  0
 16 56  1  0
 56 57  2  0
 56 58  1  0
 58 59  1  0
 59 60  1  0
 60 61  1  0
 61 62  2  0
 62 63  1  0
 63 64  2  0
 64 65  1  0
 64 66  1  0
 66 67  2  0
 59 68  1  0
 68 69  2  0
 68 70  1  0
 70 71  1  0
 71 72  1  0
 72 73  1  0
 73 74  2  0
 74 75  1  0
 75 76  1  0
 76 77  2  0
 77 78  1  0
 78 79  2  0
 79 80  1  0
 80 81  2  0
 71 82  1  0
 82 83  2  0
 82 84  1  0
 84 85  1  0
 85 86  1  0
 86 87  1  0
 87 88  1  0
 88 89  1  0
 89 90  1  0
 85 91  1  0
 91 92  2  0
 91 93  1  0
 93 94  1  0
 94 95  1  0
 95 96  1  0
 95 97  1  0
 94 98  1  0
 98 99  2  0
 98100  1  0
100 11  1  0
 27 22  1  0
 55 32  1  0
 67 61  1  0
 77 73  1  0
 81 76  1  0
  2101  1  0
  2102  1  0
  2103  1  0
  3104  1  6
  4105  1  0
  5106  1  1
  6107  1  0
  6108  1  0
  7109  1  0
  8110  1  0
 11111  1  1
 12112  1  0
 12113  1  0
 15114  1  0
 15115  1  0
 16116  1  1
 17117  1  0
 20118  1  6
 21119  1  0
 21120  1  0
 23121  1  0
 24122  1  0
 25123  1  0
 26124  1  0
 27125  1  0
 28126  1  0
 31127  1  0
 31128  1  0
 33129  1  0
 33130  1  0
 34131  1  0
 34132  1  0
 36133  1  0
 36134  1  0
 40135  1  0
 40136  1  0
 41137  1  0
 41138  1  0
 43139  1  0
 43140  1  0
 47141  1  0
 47142  1  0
 48143  1  0
 48144  1  0
 50145  1  0
 50146  1  0
 54147  1  0
 54148  1  0
 55149  1  0
 55150  1  0
 58151  1  0
 59152  1  6
 60153  1  0
 60154  1  0
 62155  1  0
 63156  1  0
 65157  1  0
 66158  1  0
 67159  1  0
 70160  1  0
 71161  1  1
 72162  1  0
 72163  1  0
 74164  1  0
 75165  1  0
 78166  1  0
 79167  1  0
 80168  1  0
 81169  1  0
 84170  1  0
 85171  1  6
 86172  1  0
 86173  1  0
 87174  1  0
 87175  1  0
 88176  1  0
 88177  1  0
 89178  1  0
 89179  1  0
 90180  1  0
 90181  1  0
 93182  1  0
 94183  1  6
 95184  1  6
 96185  1  0
 96186  1  0
 96187  1  0
 97188  1  0
100189  1  0
M  CHG  4   1   3  38  -1  45  -1  52  -1
M  ISO  1   1  68
M  END
$$$$
