
     RDKit          3D

 29 30  0  0  0  0  0  0  0  0999 V2000
    4.9825    0.5036    0.7149 N   0  0  0  0  0  0  0  0  0  0  0  0
    3.6347    0.1964    0.3583 C   0  0  0  0  0  0  0  0  0  0  0  0
    3.3505   -0.9743   -0.2653 N   0  0  0  0  0  0  0  0  0  0  0  0
    2.0800   -1.3001   -0.6206 C   0  0  0  0  0  0  0  0  0  0  0  0
    1.8703   -2.4093   -1.1820 O   0  0  0  0  0  0  0  0  0  0  0  0
    1.0455   -0.4334   -0.3652 N   0  0  0  0  0  0  0  0  0  0  0  0
    1.3028    0.7433    0.2869 C   0  0  0  0  0  0  0  0  0  0  0  0
    2.6027    1.0844    0.6534 C   0  0  0  0  0  0  0  0  0  0  0  0
   -0.3445   -0.7900   -0.7166 C   0  0  1  0  0  0  0  0  0  0  0  0
   -1.0495   -1.4387    0.4620 C   0  0  0  0  0  0  0  0  0  0  0  0
   -2.4846   -1.0329    0.2592 C   0  0  2  0  0  0  0  0  0  0  0  0
   -3.2121   -2.0382   -0.4077 O   0  0  0  0  0  0  0  0  0  0  0  0
   -2.3805    0.2435   -0.5900 C   0  0  1  0  0  0  0  0  0  0  0  0
   -2.6996    1.4952    0.2351 C   0  0  0  0  0  0  0  0  0  0  0  0
   -2.5818    2.6352   -0.5702 O   0  0  0  0  0  0  0  0  0  0  0  0
   -1.0718    0.3533   -1.1135 O   0  0  0  0  0  0  0  0  0  0  0  0
    5.7509   -0.1681    0.4940 H   0  0  0  0  0  0  0  0  0  0  0  0
    5.2197    1.3986    1.1983 H   0  0  0  0  0  0  0  0  0  0  0  0
    0.5010    1.4282    0.5331 H   0  0  0  0  0  0  0  0  0  0  0  0
    2.7995    2.0198    1.1619 H   0  0  0  0  0  0  0  0  0  0  0  0
   -0.3569   -1.4960   -1.5776 H   0  0  0  0  0  0  0  0  0  0  0  0
   -0.9143   -2.5426    0.4672 H   0  0  0  0  0  0  0  0  0  0  0  0
   -0.6774   -1.0168    1.4223 H   0  0  0  0  0  0  0  0  0  0  0  0
   -2.9709   -0.8499    1.2434 H   0  0  0  0  0  0  0  0  0  0  0  0
   -2.7735   -2.2116   -1.2821 H   0  0  0  0  0  0  0  0  0  0  0  0
   -3.1006    0.1986   -1.4374 H   0  0  0  0  0  0  0  0  0  0  0  0
   -1.9951    1.5681    1.0943 H   0  0  0  0  0  0  0  0  0  0  0  0
   -3.7395    1.4250    0.6266 H   0  0  0  0  0  0  0  0  0  0  0  0
   -2.7877    3.4088    0.0164 H   0  0  0  0  0  0  0  0  0  0  0  0
  1  2  1  0
  2  3  2  0
  3  4  1  0
  4  5  2  0
  4  6  1  0
  6  7  1  0
  7  8  2  0
  6  9  1  0
  9 10  1  0
 10 11  1  0
 11 12  1  0
 11 13  1  0
 13 14  1  0
 14 15  1  0
 13 16  1  0
  8  2  1  0
 16  9  1  0
  1 17  1  0
  1 18  1  0
  7 19  1  0
  8 20  1  0
  9 21  1  6
 10 22  1  0
 10 23  1  0
 11 24  1  1
 12 25  1  0
 13 26  1  6
 14 27  1  0
 14 28  1  0
 15 29  1  0
M  END
$$$$
