
     RDKit          3D

 70 72  0  0  0  0  0  0  0  0999 V2000
    1.1940   -3.5721    1.8040 C   0  0  0  0  0  0  0  0  0  0  0  0
    2.0998   -3.6302    0.5802 C   0  0  0  0  0  0  0  0  0  0  0  0
    2.3171   -2.3229    0.0555 O   0  0  0  0  0  0  0  0  0  0  0  0
    1.3583   -1.6174   -0.6823 C   0  0  0  0  0  0  0  0  0  0  0  0
    0.2561   -2.1548   -0.9788 O   0  0  0  0  0  0  0  0  0  0  0  0
    1.6202   -0.1912   -1.1017 C   0  0  2  0  0  0  0  0  0  0  0  0
    3.1270    0.1366   -1.1726 C   0  0  0  0  0  0  0  0  0  0  0  0
    3.3844    1.5621   -1.6806 C   0  0  0  0  0  0  0  0  0  0  0  0
    4.8624    1.8327   -1.7649 C   0  0  0  0  0  0  0  0  0  0  0  0
    5.5594    2.3088   -0.6415 C   0  0  0  0  0  0  0  0  0  0  0  0
    6.9389    2.5272   -0.7095 C   0  0  0  0  0  0  0  0  0  0  0  0
    7.6325    2.2630   -1.8938 C   0  0  0  0  0  0  0  0  0  0  0  0
    6.9484    1.7756   -3.0109 C   0  0  0  0  0  0  0  0  0  0  0  0
    5.5688    1.5556   -2.9473 C   0  0  0  0  0  0  0  0  0  0  0  0
    0.8700    0.8099   -0.3022 N   0  0  0  0  0  0  0  0  0  0  0  0
    0.6856    0.5401    1.1428 C   0  0  1  0  0  0  0  0  0  0  0  0
    2.0057    0.6201    1.9214 C   0  0  0  0  0  0  0  0  0  0  0  0
   -0.2881    1.5533    1.6986 C   0  0  0  0  0  0  0  0  0  0  0  0
    0.0794    2.7508    1.8459 O   0  0  0  0  0  0  0  0  0  0  0  0
   -1.6701    1.2131    1.9164 N   0  0  0  0  0  0  0  0  0  0  0  0
   -2.6948    1.8625    1.0972 C   0  0  0  0  0  0  0  0  0  0  0  0
   -3.4956    0.8319    0.3358 C   0  0  0  0  0  0  0  0  0  0  0  0
   -4.3086    1.2527   -0.7254 C   0  0  0  0  0  0  0  0  0  0  0  0
   -5.0992    0.3313   -1.4364 C   0  0  0  0  0  0  0  0  0  0  0  0
   -5.9166    0.7228   -2.5089 O   0  0  0  0  0  0  0  0  0  0  0  0
   -6.0352    2.0582   -2.9889 C   0  0  0  0  0  0  0  0  0  0  0  0
   -5.0806   -1.0230   -1.0751 C   0  0  0  0  0  0  0  0  0  0  0  0
   -5.8745   -1.9184   -1.8097 O   0  0  0  0  0  0  0  0  0  0  0  0
   -5.9548   -3.3182   -1.5610 C   0  0  0  0  0  0  0  0  0  0  0  0
   -4.2770   -1.4465   -0.0006 C   0  0  0  0  0  0  0  0  0  0  0  0
   -3.4984   -0.5301    0.7199 C   0  0  0  0  0  0  0  0  0  0  0  0
   -2.6064   -1.0475    1.8284 C   0  0  0  0  0  0  0  0  0  0  0  0
   -2.1175    0.0853    2.7475 C   0  0  1  0  0  0  0  0  0  0  0  0
   -1.0761   -0.3515    3.7497 C   0  0  0  0  0  0  0  0  0  0  0  0
   -0.6128    0.5619    4.6916 O   0  0  0  0  0  0  0  0  0  0  0  0
   -0.6328   -1.5317    3.7564 O   0  0  0  0  0  0  0  0  0  0  0  0
    1.0982   -4.5855    2.2470 H   0  0  0  0  0  0  0  0  0  0  0  0
    0.1841   -3.2117    1.5196 H   0  0  0  0  0  0  0  0  0  0  0  0
    1.6267   -2.8858    2.5624 H   0  0  0  0  0  0  0  0  0  0  0  0
    1.6591   -4.2922   -0.1966 H   0  0  0  0  0  0  0  0  0  0  0  0
    3.0796   -4.0565    0.8819 H   0  0  0  0  0  0  0  0  0  0  0  0
    1.2593   -0.1185   -2.1543 H   0  0  0  0  0  0  0  0  0  0  0  0
    3.6115   -0.5814   -1.8716 H   0  0  0  0  0  0  0  0  0  0  0  0
    3.6146    0.0059   -0.1873 H   0  0  0  0  0  0  0  0  0  0  0  0
    2.9140    2.3013   -0.9962 H   0  0  0  0  0  0  0  0  0  0  0  0
    2.9179    1.6942   -2.6816 H   0  0  0  0  0  0  0  0  0  0  0  0
    5.0349    2.5077    0.2851 H   0  0  0  0  0  0  0  0  0  0  0  0
    7.4708    2.8978    0.1572 H   0  0  0  0  0  0  0  0  0  0  0  0
    8.7004    2.4312   -1.9443 H   0  0  0  0  0  0  0  0  0  0  0  0
    7.4877    1.5647   -3.9253 H   0  0  0  0  0  0  0  0  0  0  0  0
    5.0521    1.1684   -3.8168 H   0  0  0  0  0  0  0  0  0  0  0  0
   -0.0822    0.8899   -0.7346 H   0  0  0  0  0  0  0  0  0  0  0  0
    0.2573   -0.4681    1.2959 H   0  0  0  0  0  0  0  0  0  0  0  0
    2.5979   -0.3045    1.7755 H   0  0  0  0  0  0  0  0  0  0  0  0
    2.5990    1.5034    1.6017 H   0  0  0  0  0  0  0  0  0  0  0  0
    1.8095    0.6984    3.0124 H   0  0  0  0  0  0  0  0  0  0  0  0
   -2.2305    2.5779    0.3819 H   0  0  0  0  0  0  0  0  0  0  0  0
   -3.3801    2.4349    1.7582 H   0  0  0  0  0  0  0  0  0  0  0  0
   -4.3184    2.3014   -0.9915 H   0  0  0  0  0  0  0  0  0  0  0  0
   -6.4272    2.7188   -2.1870 H   0  0  0  0  0  0  0  0  0  0  0  0
   -6.7449    2.0752   -3.8411 H   0  0  0  0  0  0  0  0  0  0  0  0
   -5.0484    2.4266   -3.3409 H   0  0  0  0  0  0  0  0  0  0  0  0
   -6.6547   -3.7761   -2.2895 H   0  0  0  0  0  0  0  0  0  0  0  0
   -4.9556   -3.7863   -1.6860 H   0  0  0  0  0  0  0  0  0  0  0  0
   -6.3389   -3.5025   -0.5354 H   0  0  0  0  0  0  0  0  0  0  0  0
   -4.2482   -2.4907    0.2814 H   0  0  0  0  0  0  0  0  0  0  0  0
   -3.1623   -1.7927    2.4391 H   0  0  0  0  0  0  0  0  0  0  0  0
   -1.7456   -1.5657    1.3580 H   0  0  0  0  0  0  0  0  0  0  0  0
   -2.9928    0.4251    3.3453 H   0  0  0  0  0  0  0  0  0  0  0  0
    0.0863    0.2948    5.3742 H   0  0  0  0  0  0  0  0  0  0  0  0
  1  2  1  0
  2  3  1  0
  3  4  1  0
  4  5  2  0
  4  6  1  0
  6  7  1  0
  7  8  1  0
  8  9  1  0
  9 10  2  0
 10 11  1  0
 11 12  2  0
 12 13  1  0
 13 14  2  0
  6 15  1  0
 15 16  1  0
 16 17  1  0
 16 18  1  0
 18 19  2  0
 18 20  1  0
 20 21  1  0
 21 22  1  0
 22 23  2  0
 23 24  1  0
 24 25  1  0
 25 26  1  0
 24 27  2  0
 27 28  1  0
 28 29  1  0
 27 30  1  0
 30 31  2  0
 31 32  1  0
 32 33  1  0
 33 34  1  0
 34 35  1  0
 34 36  2  0
 14  9  1  0
 33 20  1  0
 31 22  1  0
  1 37  1  0
  1 38  1  0
  1 39  1  0
  2 40  1  0
  2 41  1  0
  6 42  1  6
  7 43  1  0
  7 44  1  0
  8 45  1  0
  8 46  1  0
 10 47  1  0
 11 48  1  0
 12 49  1  0
 13 50  1  0
 14 51  1  0
 15 52  1  0
 16 53  1  6
 17 54  1  0
 17 55  1  0
 17 56  1  0
 21 57  1  0
 21 58  1  0
 23 59  1  0
 26 60  1  0
 26 61  1  0
 26 62  1  0
 29 63  1  0
 29 64  1  0
 29 65  1  0
 30 66  1  0
 32 67  1  0
 32 68  1  0
 33 69  1  1
 35 70  1  0
M  END
$$$$
