
     RDKit          3D

 46 49  0  0  0  0  0  0  0  0999 V2000
   -2.7968   -3.0967   -1.4997 C   0  0  0  0  0  0  0  0  0  0  0  0
   -1.8845   -1.8549   -1.4139 C   0  0  0  0  0  0  0  0  0  0  0  0
   -0.5159   -2.3009   -0.8689 C   0  0  0  0  0  0  0  0  0  0  0  0
    0.3021   -1.1717   -0.6160 O   0  0  0  0  0  0  0  0  0  0  0  0
   -0.2223   -0.0489    0.0180 C   0  0  0  0  0  0  0  0  0  0  0  0
   -1.6198    0.1320    0.0628 C   0  0  0  0  0  0  0  0  0  0  0  0
   -2.4570   -0.7522   -0.5848 N   0  0  0  0  0  0  0  0  0  0  0  0
   -3.8091   -0.5138   -0.5956 C   0  0  0  0  0  0  0  0  0  0  0  0
   -4.3834    0.5562    0.1116 C   0  0  0  0  0  0  0  0  0  0  0  0
   -5.8619    0.7387    0.0960 C   0  0  0  0  0  0  0  0  0  0  0  0
   -6.4569    1.8164    0.7470 O   0  0  0  0  0  0  0  0  0  0  0  0
   -6.5981   -0.0864   -0.5105 O   0  0  0  0  0  0  0  0  0  0  0  0
   -3.5349    1.4392    0.8015 C   0  0  0  0  0  0  0  0  0  0  0  0
   -4.0159    2.4125    1.4457 O   0  0  0  0  0  0  0  0  0  0  0  0
   -2.1452    1.2450    0.7629 C   0  0  0  0  0  0  0  0  0  0  0  0
   -1.2673    2.1500    1.3901 C   0  0  0  0  0  0  0  0  0  0  0  0
    0.1137    1.9726    1.3096 C   0  0  0  0  0  0  0  0  0  0  0  0
    0.9341    2.8834    1.8910 F   0  0  0  0  0  0  0  0  0  0  0  0
    0.6450    0.8774    0.6159 C   0  0  0  0  0  0  0  0  0  0  0  0
    2.0669    0.6818    0.5370 N   0  0  0  0  0  0  0  0  0  0  0  0
    2.8781    0.6272    1.7535 C   0  0  0  0  0  0  0  0  0  0  0  0
    3.9981   -0.4089    1.5860 C   0  0  0  0  0  0  0  0  0  0  0  0
    4.7561   -0.2306    0.3294 N   0  0  0  0  0  0  0  0  0  0  0  0
    5.6592    0.9318    0.3743 C   0  0  0  0  0  0  0  0  0  0  0  0
    3.8743   -0.2187   -0.8571 C   0  0  0  0  0  0  0  0  0  0  0  0
    2.7518    0.8220   -0.7483 C   0  0  0  0  0  0  0  0  0  0  0  0
   -3.1779   -3.3706   -0.4926 H   0  0  0  0  0  0  0  0  0  0  0  0
   -2.2406   -3.9645   -1.9155 H   0  0  0  0  0  0  0  0  0  0  0  0
   -3.6480   -2.9159   -2.1881 H   0  0  0  0  0  0  0  0  0  0  0  0
   -1.7290   -1.4690   -2.4457 H   0  0  0  0  0  0  0  0  0  0  0  0
   -0.6507   -2.8605    0.0830 H   0  0  0  0  0  0  0  0  0  0  0  0
   -0.0022   -2.9626   -1.5988 H   0  0  0  0  0  0  0  0  0  0  0  0
   -4.4688   -1.1500   -1.1656 H   0  0  0  0  0  0  0  0  0  0  0  0
   -7.4622    1.9408    0.7369 H   0  0  0  0  0  0  0  0  0  0  0  0
   -1.6460    3.0107    1.9280 H   0  0  0  0  0  0  0  0  0  0  0  0
    3.3081    1.6295    1.9617 H   0  0  0  0  0  0  0  0  0  0  0  0
    2.2500    0.3357    2.6240 H   0  0  0  0  0  0  0  0  0  0  0  0
    3.5468   -1.4254    1.5902 H   0  0  0  0  0  0  0  0  0  0  0  0
    4.6821   -0.3616    2.4617 H   0  0  0  0  0  0  0  0  0  0  0  0
    5.1023    1.8859    0.4781 H   0  0  0  0  0  0  0  0  0  0  0  0
    6.2713    0.9738   -0.5517 H   0  0  0  0  0  0  0  0  0  0  0  0
    6.3629    0.8338    1.2283 H   0  0  0  0  0  0  0  0  0  0  0  0
    3.4166   -1.2256   -0.9733 H   0  0  0  0  0  0  0  0  0  0  0  0
    4.4671   -0.0309   -1.7791 H   0  0  0  0  0  0  0  0  0  0  0  0
    3.1656    1.8486   -0.8361 H   0  0  0  0  0  0  0  0  0  0  0  0
    2.0424    0.6751   -1.5917 H   0  0  0  0  0  0  0  0  0  0  0  0
  1  2  1  0
  2  3  1  0
  3  4  1  0
  4  5  1  0
  5  6  2  0
  6  7  1  0
  7  8  1  0
  8  9  2  0
  9 10  1  0
 10 11  1  0
 10 12  2  0
  9 13  1  0
 13 14  2  0
 13 15  1  0
 15 16  2  0
 16 17  1  0
 17 18  1  0
 17 19  2  0
 19 20  1  0
 20 21  1  0
 21 22  1  0
 22 23  1  0
 23 24  1  0
 23 25  1  0
 25 26  1  0
  7  2  1  0
 26 20  1  0
 19  5  1  0
 15  6  1  0
  1 27  1  0
  1 28  1  0
  1 29  1  0
  2 30  1  0
  3 31  1  0
  3 32  1  0
  8 33  1  0
 11 34  1  0
 16 35  1  0
 21 36  1  0
 21 37  1  0
 22 38  1  0
 22 39  1  0
 24 40  1  0
 24 41  1  0
 24 42  1  0
 25 43  1  0
 25 44  1  0
 26 45  1  0
 26 46  1  0
M  END
$$$$
