
     RDKit          3D

 47 49  0  0  0  0  0  0  0  0999 V2000
    7.5448    0.8921    2.1634 N   0  0  0  0  0  0  0  0  0  0  0  0
    7.1623    0.1470    0.6515 S   0  0  0  0  0  6  0  0  0  0  0  0
    7.7653    0.9477   -0.4686 O   0  0  0  0  0  0  0  0  0  0  0  0
    7.7398   -1.2402    0.6160 O   0  0  0  0  0  0  0  0  0  0  0  0
    5.4140    0.0702    0.4552 C   0  0  0  0  0  0  0  0  0  0  0  0
    4.7251    1.1311   -0.1447 C   0  0  0  0  0  0  0  0  0  0  0  0
    3.3355    1.0785   -0.2891 C   0  0  0  0  0  0  0  0  0  0  0  0
    2.6129   -0.0401    0.1654 C   0  0  0  0  0  0  0  0  0  0  0  0
    3.3104   -1.0918    0.7866 C   0  0  0  0  0  0  0  0  0  0  0  0
    4.6999   -1.0369    0.9284 C   0  0  0  0  0  0  0  0  0  0  0  0
    1.1386   -0.1122    0.0262 C   0  0  0  0  0  0  0  0  0  0  0  0
    0.4779   -0.8200    0.8354 O   0  0  0  0  0  0  0  0  0  0  0  0
    0.4534    0.5961   -1.0208 N   0  0  0  0  0  0  0  0  0  0  0  0
   -1.0047    0.6006   -1.1374 C   0  0  0  0  0  0  0  0  0  0  0  0
   -1.5249   -0.7351   -1.7124 C   0  0  2  0  0  0  0  0  0  0  0  0
   -0.9599   -0.9790   -3.1197 C   0  0  0  0  0  0  0  0  0  0  0  0
   -3.0667   -0.7617   -1.7569 C   0  0  0  0  0  0  0  0  0  0  0  0
   -3.6375   -0.7250   -0.4074 N   0  0  0  0  0  0  0  0  0  0  0  0
   -3.6948   -1.7723    0.4504 C   0  0  0  0  0  0  0  0  0  0  0  0
   -4.2650   -1.3871    1.6580 C   0  0  0  0  0  0  0  0  0  0  0  0
   -4.5549   -0.0477    1.5122 C   0  0  0  0  0  0  0  0  0  0  0  0
   -5.1219    0.8534    2.4107 C   0  0  0  0  0  0  0  0  0  0  0  0
   -5.2859    2.1848    1.9897 C   0  0  0  0  0  0  0  0  0  0  0  0
   -4.8808    2.5806    0.6966 C   0  0  0  0  0  0  0  0  0  0  0  0
   -4.3103    1.6488   -0.1895 C   0  0  0  0  0  0  0  0  0  0  0  0
   -4.1633    0.3291    0.2521 C   0  0  0  0  0  0  0  0  0  0  0  0
    7.0910    1.8330    2.1631 H   0  0  0  0  0  0  0  0  0  0  0  0
    7.0732    0.3309    2.9077 H   0  0  0  0  0  0  0  0  0  0  0  0
    5.2618    2.0046   -0.4928 H   0  0  0  0  0  0  0  0  0  0  0  0
    2.8320    1.9279   -0.7302 H   0  0  0  0  0  0  0  0  0  0  0  0
    2.7818   -1.9626    1.1544 H   0  0  0  0  0  0  0  0  0  0  0  0
    5.2171   -1.8573    1.4096 H   0  0  0  0  0  0  0  0  0  0  0  0
    0.9967    1.1229   -1.7398 H   0  0  0  0  0  0  0  0  0  0  0  0
   -1.4424    0.7953   -0.1357 H   0  0  0  0  0  0  0  0  0  0  0  0
   -1.3157    1.4362   -1.8024 H   0  0  0  0  0  0  0  0  0  0  0  0
   -1.1840   -1.5694   -1.0614 H   0  0  0  0  0  0  0  0  0  0  0  0
    0.1487   -1.0366   -3.0898 H   0  0  0  0  0  0  0  0  0  0  0  0
   -1.3355   -1.9435   -3.5234 H   0  0  0  0  0  0  0  0  0  0  0  0
   -1.2597   -0.1610   -3.8095 H   0  0  0  0  0  0  0  0  0  0  0  0
   -3.4058   -1.6966   -2.2554 H   0  0  0  0  0  0  0  0  0  0  0  0
   -3.4507    0.0812   -2.3695 H   0  0  0  0  0  0  0  0  0  0  0  0
   -3.3357   -2.7670    0.2194 H   0  0  0  0  0  0  0  0  0  0  0  0
   -4.4350   -2.0062    2.5289 H   0  0  0  0  0  0  0  0  0  0  0  0
   -5.4239    0.5414    3.4022 H   0  0  0  0  0  0  0  0  0  0  0  0
   -5.7222    2.9114    2.6628 H   0  0  0  0  0  0  0  0  0  0  0  0
   -5.0076    3.6094    0.3853 H   0  0  0  0  0  0  0  0  0  0  0  0
   -3.9933    1.9597   -1.1751 H   0  0  0  0  0  0  0  0  0  0  0  0
  1  2  1  0
  2  3  2  0
  2  4  2  0
  2  5  1  0
  5  6  2  0
  6  7  1  0
  7  8  2  0
  8  9  1  0
  9 10  2  0
  8 11  1  0
 11 12  2  0
 11 13  1  0
 13 14  1  0
 14 15  1  0
 15 16  1  0
 15 17  1  0
 17 18  1  0
 18 19  1  0
 19 20  2  0
 20 21  1  0
 21 22  2  0
 22 23  1  0
 23 24  2  0
 24 25  1  0
 25 26  2  0
 10  5  1  0
 26 18  1  0
 26 21  1  0
  1 27  1  0
  1 28  1  0
  6 29  1  0
  7 30  1  0
  9 31  1  0
 10 32  1  0
 13 33  1  0
 14 34  1  0
 14 35  1  0
 15 36  1  1
 16 37  1  0
 16 38  1  0
 16 39  1  0
 17 40  1  0
 17 41  1  0
 19 42  1  0
 20 43  1  0
 22 44  1  0
 23 45  1  0
 24 46  1  0
 25 47  1  0
M  END
$$$$
