
     RDKit          3D

 27 29  0  0  0  0  0  0  0  0999 V2000
   -3.7361    1.5266   -0.9842 N   0  0  0  0  0  0  0  0  0  0  0  0
   -3.4043    0.3025   -0.3314 C   0  0  0  0  0  0  0  0  0  0  0  0
   -4.3173   -0.6098    0.0757 N   0  0  0  0  0  0  0  0  0  0  0  0
   -3.6568   -1.6165    0.6388 N   0  0  0  0  0  0  0  0  0  0  0  0
   -2.3403   -1.3468    0.5896 C   0  0  0  0  0  0  0  0  0  0  0  0
   -1.2833   -2.1204    1.0566 C   0  0  0  0  0  0  0  0  0  0  0  0
    0.0203   -1.6180    0.8842 C   0  0  0  0  0  0  0  0  0  0  0  0
    0.2426   -0.3611    0.2530 C   0  0  0  0  0  0  0  0  0  0  0  0
   -0.8663    0.3920   -0.2062 C   0  0  0  0  0  0  0  0  0  0  0  0
   -2.1383   -0.1411   -0.0159 C   0  0  0  0  0  0  0  0  0  0  0  0
    1.6232    0.1567    0.0770 C   0  0  0  0  0  0  0  0  0  0  0  0
    1.9061    1.5219    0.2737 C   0  0  0  0  0  0  0  0  0  0  0  0
    3.2069    2.0069    0.1073 C   0  0  0  0  0  0  0  0  0  0  0  0
    4.2377    1.1380   -0.2575 C   0  0  0  0  0  0  0  0  0  0  0  0
    3.9699   -0.2181   -0.4563 C   0  0  0  0  0  0  0  0  0  0  0  0
    2.6711   -0.7088   -0.2904 C   0  0  0  0  0  0  0  0  0  0  0  0
   -4.7346    1.7637   -1.1750 H   0  0  0  0  0  0  0  0  0  0  0  0
   -2.9904    2.1959   -1.2766 H   0  0  0  0  0  0  0  0  0  0  0  0
   -4.1068   -2.4667    1.0448 H   0  0  0  0  0  0  0  0  0  0  0  0
   -1.4560   -3.0738    1.5389 H   0  0  0  0  0  0  0  0  0  0  0  0
    0.8534   -2.1996    1.2577 H   0  0  0  0  0  0  0  0  0  0  0  0
   -0.7388    1.3436   -0.7058 H   0  0  0  0  0  0  0  0  0  0  0  0
    1.1260    2.2105    0.5733 H   0  0  0  0  0  0  0  0  0  0  0  0
    3.4164    3.0571    0.2647 H   0  0  0  0  0  0  0  0  0  0  0  0
    5.2438    1.5156   -0.3861 H   0  0  0  0  0  0  0  0  0  0  0  0
    4.7688   -0.8898   -0.7430 H   0  0  0  0  0  0  0  0  0  0  0  0
    2.4834   -1.7604   -0.4671 H   0  0  0  0  0  0  0  0  0  0  0  0
  1  2  1  0
  2  3  2  0
  3  4  1  0
  4  5  1  0
  5  6  2  0
  6  7  1  0
  7  8  2  0
  8  9  1  0
  9 10  2  0
  8 11  1  0
 11 12  2  0
 12 13  1  0
 13 14  2  0
 14 15  1  0
 15 16  2  0
 10  2  1  0
 16 11  1  0
 10  5  1  0
  1 17  1  0
  1 18  1  0
  4 19  1  0
  6 20  1  0
  7 21  1  0
  9 22  1  0
 12 23  1  0
 13 24  1  0
 14 25  1  0
 15 26  1  0
 16 27  1  0
M  END
$$$$
