
     RDKit          3D

 19 19  0  0  0  0  0  0  0  0999 V2000
   -1.9946    1.6145   -1.4452 O   0  0  0  0  0  0  0  0  0  0  0  0
   -2.5718    0.5165   -1.2264 C   0  0  0  0  0  0  0  0  0  0  0  0
   -2.3053   -0.2293   -0.0343 N   0  0  0  0  0  0  0  0  0  0  0  0
   -1.3520    0.2169    0.9789 C   0  0  0  0  0  0  0  0  0  0  0  0
    0.0578    0.0298    0.4880 C   0  0  0  0  0  0  0  0  0  0  0  0
    0.8382    1.1366    0.1131 C   0  0  0  0  0  0  0  0  0  0  0  0
    2.1412    0.9510   -0.3600 C   0  0  0  0  0  0  0  0  0  0  0  0
    2.6716   -0.3377   -0.4655 C   0  0  0  0  0  0  0  0  0  0  0  0
    1.8994   -1.4436   -0.0996 C   0  0  0  0  0  0  0  0  0  0  0  0
    0.5960   -1.2626    0.3737 C   0  0  0  0  0  0  0  0  0  0  0  0
   -3.2809    0.1355   -1.9491 H   0  0  0  0  0  0  0  0  0  0  0  0
   -2.8268   -1.1210    0.1212 H   0  0  0  0  0  0  0  0  0  0  0  0
   -1.4930   -0.3828    1.9044 H   0  0  0  0  0  0  0  0  0  0  0  0
   -1.5539    1.2775    1.2449 H   0  0  0  0  0  0  0  0  0  0  0  0
    0.4394    2.1407    0.1853 H   0  0  0  0  0  0  0  0  0  0  0  0
    2.7392    1.8065   -0.6463 H   0  0  0  0  0  0  0  0  0  0  0  0
    3.6800   -0.4794   -0.8324 H   0  0  0  0  0  0  0  0  0  0  0  0
    2.3101   -2.4415   -0.1845 H   0  0  0  0  0  0  0  0  0  0  0  0
    0.0054   -2.1275    0.6498 H   0  0  0  0  0  0  0  0  0  0  0  0
  1  2  2  0
  2  3  1  0
  3  4  1  0
  4  5  1  0
  5  6  2  0
  6  7  1  0
  7  8  2  0
  8  9  1  0
  9 10  2  0
 10  5  1  0
  2 11  1  0
  3 12  1  0
  4 13  1  0
  4 14  1  0
  6 15  1  0
  7 16  1  0
  8 17  1  0
  9 18  1  0
 10 19  1  0
M  END
$$$$
