
     RDKit          3D

 65 65  0  0  0  0  0  0  0  0999 V2000
    0.1196    2.9233    0.4751 C   0  0  2  0  0  0  0  0  0  0  0  0
    0.5477    4.3696    0.7463 C   0  0  0  0  0  0  0  0  0  0  0  0
    1.2869    2.0931   -0.1275 C   0  0  0  0  0  0  0  0  0  0  0  0
    2.1516    1.3710    0.9542 C   0  0  2  0  0  0  0  0  0  0  0  0
    3.5760    1.9429    1.0063 C   0  0  0  0  0  0  0  0  0  0  0  0
    2.0976   -0.1875    0.8107 C   0  0  2  0  0  0  0  0  0  0  0  0
    2.4946   -0.7856    2.0211 O   0  0  0  0  0  0  0  0  0  0  0  0
    2.9244   -0.7767   -0.3862 C   0  0  1  0  0  0  0  0  0  0  0  0
    4.3509   -1.2069    0.0291 C   0  0  0  0  0  0  0  0  0  0  0  0
    2.2151   -1.9112   -1.2301 C   0  0  2  0  0  0  0  0  0  0  0  0
    1.4559   -1.3706   -2.2820 O   0  0  0  0  0  0  0  0  0  0  0  0
    1.4075   -3.0451   -0.5133 C   0  0  1  0  0  0  0  0  0  0  0  0
    2.2595   -3.8364    0.4916 C   0  0  0  0  0  0  0  0  0  0  0  0
    0.0630   -2.6404    0.0635 C   0  0  0  0  0  0  0  0  0  0  0  0
   -0.3070   -3.0934    1.1823 O   0  0  0  0  0  0  0  0  0  0  0  0
   -0.8025   -1.8243   -0.6798 O   0  0  0  0  0  0  0  0  0  0  0  0
   -2.1933   -1.6465   -0.3817 C   0  0  2  0  0  0  0  0  0  0  0  0
   -3.0080   -2.7385   -1.1102 C   0  0  0  0  0  0  0  0  0  0  0  0
   -4.4040   -2.9325   -0.5151 C   0  0  0  0  0  0  0  0  0  0  0  0
   -2.6379   -0.1954   -0.7586 C   0  0  2  0  0  0  0  0  0  0  0  0
   -2.0476    0.2429   -2.1149 C   0  0  0  0  0  0  0  0  0  0  0  0
   -2.2880    0.7866    0.4103 C   0  0  2  0  0  0  0  0  0  0  0  0
   -3.0592    0.4588    1.5432 O   0  0  0  0  0  0  0  0  0  0  0  0
   -2.4273    2.3119    0.0581 C   0  0  1  0  0  0  0  0  0  0  0  0
   -2.9481    3.1669    1.2287 C   0  0  0  0  0  0  0  0  0  0  0  0
   -1.1047    2.8912   -0.4262 C   0  0  0  0  0  0  0  0  0  0  0  0
   -1.0309    3.3496   -1.5574 O   0  0  0  0  0  0  0  0  0  0  0  0
   -0.1758    2.4902    1.4531 H   0  0  0  0  0  0  0  0  0  0  0  0
    0.8490    4.8763   -0.1956 H   0  0  0  0  0  0  0  0  0  0  0  0
   -0.2907    4.9365    1.2044 H   0  0  0  0  0  0  0  0  0  0  0  0
    1.4038    4.3873    1.4532 H   0  0  0  0  0  0  0  0  0  0  0  0
    0.8667    1.3430   -0.8224 H   0  0  0  0  0  0  0  0  0  0  0  0
    1.9172    2.7407   -0.7769 H   0  0  0  0  0  0  0  0  0  0  0  0
    1.7285    1.5942    1.9581 H   0  0  0  0  0  0  0  0  0  0  0  0
    4.1617    1.4456    1.8079 H   0  0  0  0  0  0  0  0  0  0  0  0
    4.0966    1.8265    0.0334 H   0  0  0  0  0  0  0  0  0  0  0  0
    3.5364    3.0271    1.2435 H   0  0  0  0  0  0  0  0  0  0  0  0
    1.0292   -0.4193    0.6424 H   0  0  0  0  0  0  0  0  0  0  0  0
    1.7299   -0.7157    2.6511 H   0  0  0  0  0  0  0  0  0  0  0  0
    3.0874    0.0531   -1.1088 H   0  0  0  0  0  0  0  0  0  0  0  0
    4.3357   -2.0651    0.7274 H   0  0  0  0  0  0  0  0  0  0  0  0
    4.8946   -0.3804    0.5239 H   0  0  0  0  0  0  0  0  0  0  0  0
    4.9439   -1.4933   -0.8655 H   0  0  0  0  0  0  0  0  0  0  0  0
    3.0342   -2.4529   -1.7533 H   0  0  0  0  0  0  0  0  0  0  0  0
    0.9409   -0.6104   -1.9219 H   0  0  0  0  0  0  0  0  0  0  0  0
    1.1554   -3.7756   -1.3145 H   0  0  0  0  0  0  0  0  0  0  0  0
    2.4376   -3.2507    1.4146 H   0  0  0  0  0  0  0  0  0  0  0  0
    1.7360   -4.7744    0.7762 H   0  0  0  0  0  0  0  0  0  0  0  0
    3.2322   -4.1223    0.0383 H   0  0  0  0  0  0  0  0  0  0  0  0
   -2.3507   -1.7910    0.7102 H   0  0  0  0  0  0  0  0  0  0  0  0
   -3.0981   -2.5138   -2.1929 H   0  0  0  0  0  0  0  0  0  0  0  0
   -2.4685   -3.7065   -1.0203 H   0  0  0  0  0  0  0  0  0  0  0  0
   -5.0290   -2.0274   -0.6544 H   0  0  0  0  0  0  0  0  0  0  0  0
   -4.3351   -3.1681    0.5682 H   0  0  0  0  0  0  0  0  0  0  0  0
   -4.9070   -3.7803   -1.0261 H   0  0  0  0  0  0  0  0  0  0  0  0
   -3.7409   -0.1758   -0.8836 H   0  0  0  0  0  0  0  0  0  0  0  0
   -2.6100    1.1061   -2.5262 H   0  0  0  0  0  0  0  0  0  0  0  0
   -0.9882    0.5353   -2.0095 H   0  0  0  0  0  0  0  0  0  0  0  0
   -2.1131   -0.5695   -2.8664 H   0  0  0  0  0  0  0  0  0  0  0  0
   -1.2340    0.5837    0.6917 H   0  0  0  0  0  0  0  0  0  0  0  0
   -4.0159    0.5379    1.2895 H   0  0  0  0  0  0  0  0  0  0  0  0
   -3.1864    2.4244   -0.7465 H   0  0  0  0  0  0  0  0  0  0  0  0
   -2.3411    3.0102    2.1450 H   0  0  0  0  0  0  0  0  0  0  0  0
   -4.0050    2.9118    1.4542 H   0  0  0  0  0  0  0  0  0  0  0  0
   -2.9192    4.2453    0.9609 H   0  0  0  0  0  0  0  0  0  0  0  0
  1  2  1  0
  1  3  1  0
  3  4  1  0
  4  5  1  0
  4  6  1  0
  6  7  1  0
  6  8  1  0
  8  9  1  0
  8 10  1  0
 10 11  1  0
 10 12  1  0
 12 13  1  0
 12 14  1  0
 14 15  2  0
 14 16  1  0
 16 17  1  0
 17 18  1  0
 18 19  1  0
 17 20  1  0
 20 21  1  0
 20 22  1  0
 22 23  1  0
 22 24  1  0
 24 25  1  0
 24 26  1  0
 26 27  2  0
 26  1  1  0
  1 28  1  1
  2 29  1  0
  2 30  1  0
  2 31  1  0
  3 32  1  0
  3 33  1  0
  4 34  1  1
  5 35  1  0
  5 36  1  0
  5 37  1  0
  6 38  1  6
  7 39  1  0
  8 40  1  6
  9 41  1  0
  9 42  1  0
  9 43  1  0
 10 44  1  6
 11 45  1  0
 12 46  1  6
 13 47  1  0
 13 48  1  0
 13 49  1  0
 17 50  1  1
 18 51  1  0
 18 52  1  0
 19 53  1  0
 19 54  1  0
 19 55  1  0
 20 56  1  6
 21 57  1  0
 21 58  1  0
 21 59  1  0
 22 60  1  1
 23 61  1  0
 24 62  1  6
 25 63  1  0
 25 64  1  0
 25 65  1  0
M  END
$$$$
