
     RDKit          3D

  8  8  0  0  0  0  0  0  0  0999 V2000
   -0.7295    0.6936    0.0158 N   0  0  0  0  0  0  0  0  0  0  0  0
   -0.7376   -0.6478    0.0230 C   0  0  0  0  0  0  0  0  0  0  0  0
    0.5126   -1.1480   -0.0077 N   0  0  0  0  0  0  0  0  0  0  0  0
    1.2695   -0.0300   -0.0336 C   0  0  0  0  0  0  0  0  0  0  0  0
    0.5273    1.0936   -0.0197 N   0  0  0  0  0  0  0  0  0  0  0  0
   -1.5587    1.3273    0.0346 H   0  0  0  0  0  0  0  0  0  0  0  0
   -1.6344   -1.2525    0.0500 H   0  0  0  0  0  0  0  0  0  0  0  0
    2.3508   -0.0362   -0.0623 H   0  0  0  0  0  0  0  0  0  0  0  0
  1  2  1  0
  2  3  2  0
  3  4  1  0
  4  5  2  0
  5  1  1  0
  1  6  1  0
  2  7  1  0
  4  8  1  0
M  END
$$$$
