
     RDKit          3D

 32 32  0  0  0  0  0  0  0  0999 V2000
    0.1613    0.0071    0.1845 C   0  0  1  0  0  0  0  0  0  0  0  0
   -0.0575   -1.4257    0.7162 C   0  0  0  0  0  0  0  0  0  0  0  0
    0.0016   -1.5349    2.5386 S   0  0  0  0  0  0  0  0  0  0  0  0
   -0.9106    1.0115    0.6714 C   0  0  0  0  0  0  0  0  0  0  0  0
   -2.2902    0.6553    0.1765 C   0  0  0  0  0  0  0  0  0  0  0  0
   -2.6568    0.9294   -1.1520 C   0  0  0  0  0  0  0  0  0  0  0  0
   -3.9273    0.5788   -1.6191 C   0  0  0  0  0  0  0  0  0  0  0  0
   -4.8382   -0.0504   -0.7662 C   0  0  0  0  0  0  0  0  0  0  0  0
   -4.4797   -0.3311    0.5551 C   0  0  0  0  0  0  0  0  0  0  0  0
   -3.2105    0.0182    1.0265 C   0  0  0  0  0  0  0  0  0  0  0  0
    1.5570    0.4867    0.5074 C   0  0  0  0  0  0  0  0  0  0  0  0
    1.7712    1.1578    1.5549 O   0  0  0  0  0  0  0  0  0  0  0  0
    2.6502    0.1282   -0.3483 N   0  0  0  0  0  0  0  0  0  0  0  0
    4.0191    0.5456   -0.0505 C   0  0  0  0  0  0  0  0  0  0  0  0
    4.9644    0.0322   -1.0897 C   0  0  0  0  0  0  0  0  0  0  0  0
    5.5394   -1.2259   -0.9419 O   0  0  0  0  0  0  0  0  0  0  0  0
    5.2055    0.7189   -2.1183 O   0  0  0  0  0  0  0  0  0  0  0  0
    0.0837   -0.0416   -0.9246 H   0  0  0  0  0  0  0  0  0  0  0  0
   -1.0423   -1.8069    0.3745 H   0  0  0  0  0  0  0  0  0  0  0  0
    0.7148   -2.1039    0.2931 H   0  0  0  0  0  0  0  0  0  0  0  0
    1.4067   -1.4623    2.5838 H   0  0  0  0  0  0  0  0  0  0  0  0
   -0.9056    1.0798    1.7810 H   0  0  0  0  0  0  0  0  0  0  0  0
   -0.6552    2.0267    0.2944 H   0  0  0  0  0  0  0  0  0  0  0  0
   -1.9582    1.4123   -1.8241 H   0  0  0  0  0  0  0  0  0  0  0  0
   -4.2050    0.7932   -2.6430 H   0  0  0  0  0  0  0  0  0  0  0  0
   -5.8208   -0.3221   -1.1296 H   0  0  0  0  0  0  0  0  0  0  0  0
   -5.1848   -0.8215    1.2137 H   0  0  0  0  0  0  0  0  0  0  0  0
   -2.9445   -0.2114    2.0507 H   0  0  0  0  0  0  0  0  0  0  0  0
    2.4545   -0.4530   -1.1957 H   0  0  0  0  0  0  0  0  0  0  0  0
    4.0703    1.6555   -0.0171 H   0  0  0  0  0  0  0  0  0  0  0  0
    4.3196    0.1489    0.9429 H   0  0  0  0  0  0  0  0  0  0  0  0
    6.1679   -1.5956   -1.6451 H   0  0  0  0  0  0  0  0  0  0  0  0
  1  2  1  0
  2  3  1  0
  1  4  1  0
  4  5  1  0
  5  6  2  0
  6  7  1  0
  7  8  2  0
  8  9  1  0
  9 10  2  0
  1 11  1  0
 11 12  2  0
 11 13  1  0
 13 14  1  0
 14 15  1  0
 15 16  1  0
 15 17  2  0
 10  5  1  0
  1 18  1  6
  2 19  1  0
  2 20  1  0
  3 21  1  0
  4 22  1  0
  4 23  1  0
  6 24  1  0
  7 25  1  0
  8 26  1  0
  9 27  1  0
 10 28  1  0
 13 29  1  0
 14 30  1  0
 14 31  1  0
 16 32  1  0
M  END
$$$$
