
     RDKit          3D

 36 38  0  0  0  0  0  0  0  0999 V2000
    2.2246   -0.2305    0.0087 C   0  0  1  0  0  0  0  0  0  0  0  0
    2.7313   -1.5911   -0.4874 C   0  0  0  0  0  0  0  0  0  0  0  0
    3.4928   -1.4442   -2.1447 S   0  0  0  0  0  0  0  0  0  0  0  0
    5.1671   -1.0359   -1.5512 C   0  0  0  0  0  0  0  0  0  0  0  0
    1.2386    0.2663   -0.8700 O   0  0  0  0  0  0  0  0  0  0  0  0
    0.2513    0.9186   -0.0962 C   0  0  1  0  0  0  0  0  0  0  0  0
   -1.0622    0.3335   -0.3809 N   0  0  0  0  0  0  0  0  0  0  0  0
   -1.3475   -0.9771   -0.5858 C   0  0  0  0  0  0  0  0  0  0  0  0
   -2.7210   -1.1652   -0.7278 C   0  0  0  0  0  0  0  0  0  0  0  0
   -3.2742    0.0916   -0.5836 C   0  0  0  0  0  0  0  0  0  0  0  0
   -4.5876    0.5552   -0.5952 C   0  0  0  0  0  0  0  0  0  0  0  0
   -5.6959   -0.3195   -0.8108 N   0  0  0  0  0  0  0  0  0  0  0  0
   -4.7922    1.8895   -0.3870 N   0  0  0  0  0  0  0  0  0  0  0  0
   -3.7467    2.7485   -0.1703 C   0  0  0  0  0  0  0  0  0  0  0  0
   -2.4613    2.2863   -0.1578 N   0  0  0  0  0  0  0  0  0  0  0  0
   -2.2497    0.9639   -0.3701 C   0  0  0  0  0  0  0  0  0  0  0  0
    0.5891    0.7752    1.3929 C   0  0  2  0  0  0  0  0  0  0  0  0
    1.0912    1.9816    1.9225 O   0  0  0  0  0  0  0  0  0  0  0  0
    1.6195   -0.3286    1.4053 C   0  0  2  0  0  0  0  0  0  0  0  0
    2.5833   -0.1281    2.4072 O   0  0  0  0  0  0  0  0  0  0  0  0
    3.0715    0.4906    0.0257 H   0  0  0  0  0  0  0  0  0  0  0  0
    3.4556   -2.0233    0.2356 H   0  0  0  0  0  0  0  0  0  0  0  0
    1.8771   -2.2963   -0.5686 H   0  0  0  0  0  0  0  0  0  0  0  0
    5.5707   -1.8713   -0.9423 H   0  0  0  0  0  0  0  0  0  0  0  0
    5.1508   -0.1054   -0.9484 H   0  0  0  0  0  0  0  0  0  0  0  0
    5.8308   -0.8808   -2.4262 H   0  0  0  0  0  0  0  0  0  0  0  0
    0.2376    1.9927   -0.3871 H   0  0  0  0  0  0  0  0  0  0  0  0
   -0.6063   -1.7646   -0.6154 H   0  0  0  0  0  0  0  0  0  0  0  0
   -3.2364   -2.1016   -0.8929 H   0  0  0  0  0  0  0  0  0  0  0  0
   -6.6688    0.0594   -0.8108 H   0  0  0  0  0  0  0  0  0  0  0  0
   -5.5570   -1.3414   -0.9720 H   0  0  0  0  0  0  0  0  0  0  0  0
   -3.9406    3.7994   -0.0061 H   0  0  0  0  0  0  0  0  0  0  0  0
   -0.3006    0.4766    1.9908 H   0  0  0  0  0  0  0  0  0  0  0  0
    1.8758    2.2575    1.3791 H   0  0  0  0  0  0  0  0  0  0  0  0
    1.0974   -1.3047    1.5510 H   0  0  0  0  0  0  0  0  0  0  0  0
    3.0921   -0.9767    2.4825 H   0  0  0  0  0  0  0  0  0  0  0  0
  1  2  1  0
  2  3  1  0
  3  4  1  0
  1  5  1  0
  5  6  1  0
  6  7  1  0
  7  8  1  0
  8  9  2  0
  9 10  1  0
 10 11  2  0
 11 12  1  0
 11 13  1  0
 13 14  2  0
 14 15  1  0
 15 16  2  0
  6 17  1  0
 17 18  1  0
 17 19  1  0
 19 20  1  0
 19  1  1  0
 16  7  1  0
 16 10  1  0
  1 21  1  1
  2 22  1  0
  2 23  1  0
  4 24  1  0
  4 25  1  0
  4 26  1  0
  6 27  1  6
  8 28  1  0
  9 29  1  0
 12 30  1  0
 12 31  1  0
 14 32  1  0
 17 33  1  1
 18 34  1  0
 19 35  1  1
 20 36  1  0
M  END
$$$$
