
     RDKit          3D

 45 47  0  0  0  0  0  0  0  0999 V2000
    3.4998    1.2295    0.9627 C   0  0  0  0  0  0  0  0  0  0  0  0
    3.8576    0.1035    0.0447 C   0  0  0  0  0  0  0  0  0  0  0  0
    5.0326   -0.5568    0.1242 N   0  0  0  0  0  0  0  0  0  0  0  0
    4.9415   -1.5124   -0.8231 C   0  0  0  0  0  0  0  0  0  0  0  0
    3.7201   -1.4254   -1.4522 C   0  0  0  0  0  0  0  0  0  0  0  0
    3.0418   -0.4012   -0.9080 N   0  0  0  0  0  0  0  0  0  0  0  0
    1.6693   -0.0095   -1.2337 C   0  0  0  0  0  0  0  0  0  0  0  0
    0.6695   -0.8470   -0.4148 C   0  0  0  0  0  0  0  0  0  0  0  0
   -0.8286   -0.3765   -0.4959 C   0  0  0  0  0  0  0  0  0  0  0  0
   -1.2703   -0.5985   -1.9506 C   0  0  0  0  0  0  0  0  0  0  0  0
   -0.9332    0.3256   -2.9916 N   0  0  0  0  0  0  0  0  0  0  0  0
   -1.8676   -1.6639   -2.2681 O   0  0  0  0  0  0  0  0  0  0  0  0
   -1.7501   -1.2139    0.4246 C   0  0  0  0  0  0  0  0  0  0  0  0
   -1.2828   -2.2746    1.2405 C   0  0  0  0  0  0  0  0  0  0  0  0
   -2.1628   -2.9943    2.0546 C   0  0  0  0  0  0  0  0  0  0  0  0
   -3.5213   -2.6833    2.0706 C   0  0  0  0  0  0  0  0  0  0  0  0
   -4.0076   -1.6545    1.2668 C   0  0  0  0  0  0  0  0  0  0  0  0
   -3.1360   -0.9300    0.4505 C   0  0  0  0  0  0  0  0  0  0  0  0
   -0.9741    1.0947   -0.0340 C   0  0  0  0  0  0  0  0  0  0  0  0
   -0.3234    1.5400    1.1407 C   0  0  0  0  0  0  0  0  0  0  0  0
   -0.4773    2.8510    1.5987 C   0  0  0  0  0  0  0  0  0  0  0  0
   -1.3193    3.7342    0.9261 C   0  0  0  0  0  0  0  0  0  0  0  0
   -2.0304    3.2996   -0.1906 C   0  0  0  0  0  0  0  0  0  0  0  0
   -1.8793    1.9902   -0.6550 C   0  0  0  0  0  0  0  0  0  0  0  0
    3.1335    2.0988    0.3787 H   0  0  0  0  0  0  0  0  0  0  0  0
    4.3913    1.5464    1.5435 H   0  0  0  0  0  0  0  0  0  0  0  0
    2.7144    0.8962    1.6702 H   0  0  0  0  0  0  0  0  0  0  0  0
    5.7157   -2.2381   -1.0326 H   0  0  0  0  0  0  0  0  0  0  0  0
    3.3495   -2.0710   -2.2380 H   0  0  0  0  0  0  0  0  0  0  0  0
    1.5052   -0.1806   -2.3177 H   0  0  0  0  0  0  0  0  0  0  0  0
    1.5319    1.0738   -1.0396 H   0  0  0  0  0  0  0  0  0  0  0  0
    1.0235   -0.8542    0.6356 H   0  0  0  0  0  0  0  0  0  0  0  0
    0.7421   -1.8983   -0.7740 H   0  0  0  0  0  0  0  0  0  0  0  0
   -0.3911    1.1963   -2.7995 H   0  0  0  0  0  0  0  0  0  0  0  0
   -1.2239    0.1318   -3.9754 H   0  0  0  0  0  0  0  0  0  0  0  0
   -0.2461   -2.5721    1.2627 H   0  0  0  0  0  0  0  0  0  0  0  0
   -1.7886   -3.7996    2.6737 H   0  0  0  0  0  0  0  0  0  0  0  0
   -4.1984   -3.2443    2.7017 H   0  0  0  0  0  0  0  0  0  0  0  0
   -5.0641   -1.4188    1.2724 H   0  0  0  0  0  0  0  0  0  0  0  0
   -3.5498   -0.1487   -0.1721 H   0  0  0  0  0  0  0  0  0  0  0  0
    0.2896    0.8750    1.7282 H   0  0  0  0  0  0  0  0  0  0  0  0
    0.0452    3.1767    2.4889 H   0  0  0  0  0  0  0  0  0  0  0  0
   -1.4419    4.7473    1.2866 H   0  0  0  0  0  0  0  0  0  0  0  0
   -2.7138    3.9743   -0.6902 H   0  0  0  0  0  0  0  0  0  0  0  0
   -2.4921    1.6829   -1.4902 H   0  0  0  0  0  0  0  0  0  0  0  0
  1  2  1  0
  2  3  2  0
  3  4  1  0
  4  5  2  0
  5  6  1  0
  6  7  1  0
  7  8  1  0
  8  9  1  0
  9 10  1  0
 10 11  1  0
 10 12  2  0
  9 13  1  0
 13 14  2  0
 14 15  1  0
 15 16  2  0
 16 17  1  0
 17 18  2  0
  9 19  1  0
 19 20  2  0
 20 21  1  0
 21 22  2  0
 22 23  1  0
 23 24  2  0
  6  2  1  0
 18 13  1  0
 24 19  1  0
  1 25  1  0
  1 26  1  0
  1 27  1  0
  4 28  1  0
  5 29  1  0
  7 30  1  0
  7 31  1  0
  8 32  1  0
  8 33  1  0
 11 34  1  0
 11 35  1  0
 14 36  1  0
 15 37  1  0
 16 38  1  0
 17 39  1  0
 18 40  1  0
 20 41  1  0
 21 42  1  0
 22 43  1  0
 23 44  1  0
 24 45  1  0
M  END
$$$$
