
     RDKit          3D

 48 49  0  0  0  0  0  0  0  0999 V2000
   -4.3725   -1.1763   -1.5529 C   0  0  0  0  0  0  0  0  0  0  0  0
   -4.6466   -0.8362   -0.0778 C   0  0  0  0  0  0  0  0  0  0  0  0
   -5.7735    0.1936    0.0418 C   0  0  0  0  0  0  0  0  0  0  0  0
   -3.4060   -0.3506    0.6665 C   0  0  0  0  0  0  0  0  0  0  0  0
   -3.1689   -0.6976    2.0236 C   0  0  0  0  0  0  0  0  0  0  0  0
   -4.0765   -1.4366    2.7874 O   0  0  0  0  0  0  0  0  0  0  0  0
   -1.9934   -0.2769    2.6538 C   0  0  0  0  0  0  0  0  0  0  0  0
   -1.0718    0.5250    1.9843 C   0  0  0  0  0  0  0  0  0  0  0  0
   -1.3134    0.9299    0.6660 C   0  0  0  0  0  0  0  0  0  0  0  0
   -0.3363    1.8320   -0.0496 C   0  0  0  0  0  0  0  0  0  0  0  0
    1.0618    1.2263   -0.1008 C   0  0  0  0  0  0  0  0  0  0  0  0
    1.3202    0.0860   -0.9132 C   0  0  0  0  0  0  0  0  0  0  0  0
    0.2431   -0.5691   -1.7443 C   0  0  0  0  0  0  0  0  0  0  0  0
    2.5994   -0.4925   -0.9172 C   0  0  0  0  0  0  0  0  0  0  0  0
    3.6403    0.0529   -0.1539 C   0  0  0  0  0  0  0  0  0  0  0  0
    4.9323   -0.4948   -0.1408 O   0  0  0  0  0  0  0  0  0  0  0  0
    5.3311   -1.6437   -0.8826 C   0  0  0  0  0  0  0  0  0  0  0  0
    6.7728   -1.9205   -0.6195 C   0  0  0  0  0  0  0  0  0  0  0  0
    7.7474   -1.3523   -1.4336 O   0  0  0  0  0  0  0  0  0  0  0  0
    7.1093   -2.6315    0.3647 O   0  0  0  0  0  0  0  0  0  0  0  0
    3.3959    1.1814    0.6246 C   0  0  0  0  0  0  0  0  0  0  0  0
    2.1254    1.7761    0.6694 C   0  0  0  0  0  0  0  0  0  0  0  0
    1.9467    3.0060    1.5254 C   0  0  0  0  0  0  0  0  0  0  0  0
   -2.4904    0.5122    0.0258 C   0  0  0  0  0  0  0  0  0  0  0  0
   -4.2364   -0.2617   -2.1672 H   0  0  0  0  0  0  0  0  0  0  0  0
   -5.2327   -1.7393   -1.9747 H   0  0  0  0  0  0  0  0  0  0  0  0
   -3.4670   -1.8146   -1.6390 H   0  0  0  0  0  0  0  0  0  0  0  0
   -4.9978   -1.7896    0.3654 H   0  0  0  0  0  0  0  0  0  0  0  0
   -5.4750    1.1556   -0.4277 H   0  0  0  0  0  0  0  0  0  0  0  0
   -6.0124    0.3765    1.1112 H   0  0  0  0  0  0  0  0  0  0  0  0
   -6.6909   -0.1818   -0.4598 H   0  0  0  0  0  0  0  0  0  0  0  0
   -5.0171   -1.6580    2.4924 H   0  0  0  0  0  0  0  0  0  0  0  0
   -1.8034   -0.5581    3.6821 H   0  0  0  0  0  0  0  0  0  0  0  0
   -0.1747    0.8386    2.5011 H   0  0  0  0  0  0  0  0  0  0  0  0
   -0.6734    2.0473   -1.0852 H   0  0  0  0  0  0  0  0  0  0  0  0
   -0.3589    2.8190    0.4508 H   0  0  0  0  0  0  0  0  0  0  0  0
   -0.3244    0.1842   -2.3266 H   0  0  0  0  0  0  0  0  0  0  0  0
   -0.4467   -1.1347   -1.0848 H   0  0  0  0  0  0  0  0  0  0  0  0
    0.6727   -1.2827   -2.4792 H   0  0  0  0  0  0  0  0  0  0  0  0
    2.7796   -1.3720   -1.5208 H   0  0  0  0  0  0  0  0  0  0  0  0
    4.7229   -2.5222   -0.5758 H   0  0  0  0  0  0  0  0  0  0  0  0
    5.1869   -1.4601   -1.9691 H   0  0  0  0  0  0  0  0  0  0  0  0
    8.7314   -1.5165   -1.2578 H   0  0  0  0  0  0  0  0  0  0  0  0
    4.2126    1.5954    1.2041 H   0  0  0  0  0  0  0  0  0  0  0  0
    1.7038    3.8780    0.8826 H   0  0  0  0  0  0  0  0  0  0  0  0
    2.8686    3.2526    2.0940 H   0  0  0  0  0  0  0  0  0  0  0  0
    1.1355    2.8476    2.2651 H   0  0  0  0  0  0  0  0  0  0  0  0
   -2.6794    0.8536   -0.9821 H   0  0  0  0  0  0  0  0  0  0  0  0
  1  2  1  0
  2  3  1  0
  2  4  1  0
  4  5  2  0
  5  6  1  0
  5  7  1  0
  7  8  2  0
  8  9  1  0
  9 10  1  0
 10 11  1  0
 11 12  2  0
 12 13  1  0
 12 14  1  0
 14 15  2  0
 15 16  1  0
 16 17  1  0
 17 18  1  0
 18 19  1  0
 18 20  2  0
 15 21  1  0
 21 22  2  0
 22 23  1  0
  9 24  2  0
 24  4  1  0
 22 11  1  0
  1 25  1  0
  1 26  1  0
  1 27  1  0
  2 28  1  0
  3 29  1  0
  3 30  1  0
  3 31  1  0
  6 32  1  0
  7 33  1  0
  8 34  1  0
 10 35  1  0
 10 36  1  0
 13 37  1  0
 13 38  1  0
 13 39  1  0
 14 40  1  0
 17 41  1  0
 17 42  1  0
 19 43  1  0
 21 44  1  0
 23 45  1  0
 23 46  1  0
 23 47  1  0
 24 48  1  0
M  END
$$$$
