
     RDKit          3D

 56 59  0  0  0  0  0  0  0  0999 V2000
   -1.9416   -1.2512    1.3466 C   0  0  2  0  0  0  0  0  0  0  0  0
   -1.5346   -2.0035    0.0641 C   0  0  0  0  0  0  0  0  0  0  0  0
   -1.8517   -1.1305   -1.1755 C   0  0  1  0  0  0  0  0  0  0  0  0
   -3.3721   -0.8527   -1.2089 C   0  0  0  0  0  0  0  0  0  0  0  0
   -3.8056   -0.0975    0.0780 C   0  0  1  0  0  0  0  0  0  0  0  0
   -3.4594   -0.9675    1.3140 C   0  0  0  0  0  0  0  0  0  0  0  0
   -3.0220    1.2381    0.1722 C   0  0  0  0  0  0  0  0  0  0  0  0
   -1.5020    0.9580    0.2006 C   0  0  1  0  0  0  0  0  0  0  0  0
   -1.1670    0.0817    1.4299 C   0  0  0  0  0  0  0  0  0  0  0  0
   -1.0974    0.2270   -1.1085 C   0  0  1  0  0  0  0  0  0  0  0  0
    0.3577    0.0444   -1.1915 N   0  0  0  0  0  0  0  0  0  0  0  0
    1.2637    1.1541   -1.2898 C   0  0  0  0  0  0  0  0  0  0  0  0
    0.8267    2.2911   -1.6216 O   0  0  0  0  0  0  0  0  0  0  0  0
    2.7465    0.9427   -1.0657 C   0  0  0  0  0  0  0  0  0  0  0  0
    3.3830    0.5317   -2.4030 C   0  0  0  0  0  0  0  0  0  0  0  0
    3.3971    2.2438   -0.5501 C   0  0  0  0  0  0  0  0  0  0  0  0
    2.8927   -0.0984   -0.0852 O   0  0  0  0  0  0  0  0  0  0  0  0
    4.1009   -0.4836    0.5107 C   0  0  0  0  0  0  0  0  0  0  0  0
    4.3405   -0.1686    1.8583 C   0  0  0  0  0  0  0  0  0  0  0  0
    3.1384    0.7015    2.7993 Cl  0  0  0  0  0  0  0  0  0  0  0  0
    5.5424   -0.5521    2.4647 C   0  0  0  0  0  0  0  0  0  0  0  0
    6.5000   -1.2637    1.7363 C   0  0  0  0  0  0  0  0  0  0  0  0
    7.6620   -1.6366    2.3271 F   0  0  0  0  0  0  0  0  0  0  0  0
    6.2531   -1.6038    0.4035 C   0  0  0  0  0  0  0  0  0  0  0  0
    5.0546   -1.2223   -0.2065 C   0  0  0  0  0  0  0  0  0  0  0  0
   -5.5782    0.2213    0.0153 S   0  0  0  0  0  6  0  0  0  0  0  0
   -6.1534    1.0875    1.4631 C   0  0  0  0  0  0  0  0  0  0  0  0
   -5.8932    1.0535   -1.1963 O   0  0  0  0  0  0  0  0  0  0  0  0
   -6.3170   -1.0839   -0.0862 O   0  0  0  0  0  0  0  0  0  0  0  0
   -1.7008   -1.8755    2.2344 H   0  0  0  0  0  0  0  0  0  0  0  0
   -2.0903   -2.9650   -0.0008 H   0  0  0  0  0  0  0  0  0  0  0  0
   -0.4565   -2.2637    0.1064 H   0  0  0  0  0  0  0  0  0  0  0  0
   -1.5595   -1.6765   -2.0991 H   0  0  0  0  0  0  0  0  0  0  0  0
   -3.9234   -1.8153   -1.2946 H   0  0  0  0  0  0  0  0  0  0  0  0
   -3.6206   -0.2510   -2.1111 H   0  0  0  0  0  0  0  0  0  0  0  0
   -4.0183   -1.9286    1.2787 H   0  0  0  0  0  0  0  0  0  0  0  0
   -3.7525   -0.4467    2.2510 H   0  0  0  0  0  0  0  0  0  0  0  0
   -3.2657    1.8904   -0.6951 H   0  0  0  0  0  0  0  0  0  0  0  0
   -3.3073    1.7914    1.0930 H   0  0  0  0  0  0  0  0  0  0  0  0
   -0.9635    1.9262    0.2840 H   0  0  0  0  0  0  0  0  0  0  0  0
   -1.4411    0.6201    2.3637 H   0  0  0  0  0  0  0  0  0  0  0  0
   -0.0734   -0.1151    1.4749 H   0  0  0  0  0  0  0  0  0  0  0  0
   -1.4103    0.8437   -1.9814 H   0  0  0  0  0  0  0  0  0  0  0  0
    0.7598   -0.9184   -1.2324 H   0  0  0  0  0  0  0  0  0  0  0  0
    3.0249   -0.4753   -2.7070 H   0  0  0  0  0  0  0  0  0  0  0  0
    3.1161    1.2575   -3.2019 H   0  0  0  0  0  0  0  0  0  0  0  0
    4.4901    0.5137   -2.3273 H   0  0  0  0  0  0  0  0  0  0  0  0
    4.4800    2.0914   -0.3558 H   0  0  0  0  0  0  0  0  0  0  0  0
    2.9131    2.5668    0.3962 H   0  0  0  0  0  0  0  0  0  0  0  0
    3.2979    3.0606   -1.2973 H   0  0  0  0  0  0  0  0  0  0  0  0
    5.7319   -0.3030    3.5011 H   0  0  0  0  0  0  0  0  0  0  0  0
    6.9861   -2.1713   -0.1553 H   0  0  0  0  0  0  0  0  0  0  0  0
    4.8625   -1.5261   -1.2259 H   0  0  0  0  0  0  0  0  0  0  0  0
   -5.6419    2.0675    1.5476 H   0  0  0  0  0  0  0  0  0  0  0  0
   -5.9552    0.4830    2.3711 H   0  0  0  0  0  0  0  0  0  0  0  0
   -7.2462    1.2590    1.3772 H   0  0  0  0  0  0  0  0  0  0  0  0
  1  2  1  0
  2  3  1  0
  3  4  1  0
  4  5  1  0
  5  6  1  0
  5  7  1  0
  7  8  1  0
  8  9  1  0
  8 10  1  0
 10 11  1  0
 11 12  1  0
 12 13  2  0
 12 14  1  0
 14 15  1  0
 14 16  1  0
 14 17  1  0
 17 18  1  0
 18 19  2  0
 19 20  1  0
 19 21  1  0
 21 22  2  0
 22 23  1  0
 22 24  1  0
 24 25  2  0
  5 26  1  6
 26 27  1  0
 26 28  2  0
 26 29  2  0
  6  1  1  0
 25 18  1  0
  9  1  1  0
 10  3  1  0
  1 30  1  1
  2 31  1  0
  2 32  1  0
  3 33  1  6
  4 34  1  0
  4 35  1  0
  6 36  1  0
  6 37  1  0
  7 38  1  0
  7 39  1  0
  8 40  1  1
  9 41  1  0
  9 42  1  0
 10 43  1  6
 11 44  1  0
 15 45  1  0
 15 46  1  0
 15 47  1  0
 16 48  1  0
 16 49  1  0
 16 50  1  0
 21 51  1  0
 24 52  1  0
 25 53  1  0
 27 54  1  0
 27 55  1  0
 27 56  1  0
M  END
$$$$
