
     RDKit          3D

 59 62  0  0  0  0  0  0  0  0999 V2000
    7.6792   -1.5165    0.7229 C   0  0  0  0  0  0  0  0  0  0  0  0
    6.3038   -1.6236    0.1578 C   0  0  0  0  0  0  0  0  0  0  0  0
    5.9007   -2.7276   -0.2996 O   0  0  0  0  0  0  0  0  0  0  0  0
    5.4925   -0.4871    0.0995 O   0  0  0  0  0  0  0  0  0  0  0  0
    4.1758   -0.5104   -0.4419 C   0  0  0  0  0  0  0  0  0  0  0  0
    3.5873    0.8738   -0.3788 C   0  0  0  0  0  0  0  0  0  0  0  0
    4.1933    1.7671   -0.9533 O   0  0  0  0  0  0  0  0  0  0  0  0
    2.2775    1.1844    0.3737 C   0  0  1  0  0  0  0  0  0  0  0  0
    2.4223    0.8507    1.7397 O   0  0  0  0  0  0  0  0  0  0  0  0
    1.9255    2.7064    0.3292 C   0  0  0  0  0  0  0  0  0  0  0  0
    0.3953    2.8227    0.2466 C   0  0  0  0  0  0  0  0  0  0  0  0
   -0.1055    1.3941    0.3956 C   0  0  1  0  0  0  0  0  0  0  0  0
   -1.5354    1.0623   -0.0937 C   0  0  2  0  0  0  0  0  0  0  0  0
   -2.5557    2.0107    0.5734 C   0  0  0  0  0  0  0  0  0  0  0  0
   -3.9902    1.6633    0.1825 C   0  0  2  0  0  0  0  0  0  0  0  0
   -4.8512    2.5353    0.8313 F   0  0  0  0  0  0  0  0  0  0  0  0
   -4.2703    0.2153    0.5245 C   0  0  0  0  0  0  0  0  0  0  0  0
   -5.3132   -0.1090    1.3104 C   0  0  0  0  0  0  0  0  0  0  0  0
   -5.5631   -1.4964    1.6972 C   0  0  0  0  0  0  0  0  0  0  0  0
   -6.5548   -1.7850    2.4175 O   0  0  0  0  0  0  0  0  0  0  0  0
   -4.6469   -2.5431    1.2575 C   0  0  0  0  0  0  0  0  0  0  0  0
   -3.6128   -2.2505    0.4696 C   0  0  0  0  0  0  0  0  0  0  0  0
   -3.3353   -0.8494   -0.0795 C   0  0  1  0  0  0  0  0  0  0  0  0
   -3.6149   -0.9085   -1.6014 C   0  0  0  0  0  0  0  0  0  0  0  0
   -1.8514   -0.4309    0.2710 C   0  0  1  0  0  0  0  0  0  0  0  0
   -0.7337   -1.4175   -0.2193 C   0  0  1  0  0  0  0  0  0  0  0  0
   -0.8176   -1.6348   -1.6024 O   0  0  0  0  0  0  0  0  0  0  0  0
    0.6987   -0.9501    0.1658 C   0  0  0  0  0  0  0  0  0  0  0  0
    0.9902    0.5228   -0.2400 C   0  0  2  0  0  0  0  0  0  0  0  0
    1.0466    0.6462   -1.8005 C   0  0  0  0  0  0  0  0  0  0  0  0
    7.7391   -0.6490    1.4131 H   0  0  0  0  0  0  0  0  0  0  0  0
    7.9334   -2.4398    1.2849 H   0  0  0  0  0  0  0  0  0  0  0  0
    8.4080   -1.3766   -0.1022 H   0  0  0  0  0  0  0  0  0  0  0  0
    4.2164   -0.8336   -1.5044 H   0  0  0  0  0  0  0  0  0  0  0  0
    3.5703   -1.2450    0.1202 H   0  0  0  0  0  0  0  0  0  0  0  0
    2.7560   -0.0776    1.8190 H   0  0  0  0  0  0  0  0  0  0  0  0
    2.3067    3.2297    1.2340 H   0  0  0  0  0  0  0  0  0  0  0  0
    2.3524    3.2244   -0.5562 H   0  0  0  0  0  0  0  0  0  0  0  0
    0.0019    3.4725    1.0588 H   0  0  0  0  0  0  0  0  0  0  0  0
    0.0871    3.2413   -0.7369 H   0  0  0  0  0  0  0  0  0  0  0  0
   -0.1075    1.1982    1.4963 H   0  0  0  0  0  0  0  0  0  0  0  0
   -1.6054    1.2226   -1.1863 H   0  0  0  0  0  0  0  0  0  0  0  0
   -2.4567    1.9613    1.6810 H   0  0  0  0  0  0  0  0  0  0  0  0
   -2.3560    3.0579    0.2593 H   0  0  0  0  0  0  0  0  0  0  0  0
   -4.1231    1.8149   -0.9096 H   0  0  0  0  0  0  0  0  0  0  0  0
   -5.9791    0.6507    1.6996 H   0  0  0  0  0  0  0  0  0  0  0  0
   -4.8138   -3.5674    1.5678 H   0  0  0  0  0  0  0  0  0  0  0  0
   -3.0008   -3.0769    0.1325 H   0  0  0  0  0  0  0  0  0  0  0  0
   -3.2264   -0.0194   -2.1355 H   0  0  0  0  0  0  0  0  0  0  0  0
   -4.7103   -0.9621   -1.7856 H   0  0  0  0  0  0  0  0  0  0  0  0
   -3.1772   -1.8143   -2.0692 H   0  0  0  0  0  0  0  0  0  0  0  0
   -1.7971   -0.4846    1.3846 H   0  0  0  0  0  0  0  0  0  0  0  0
   -0.8840   -2.3888    0.3038 H   0  0  0  0  0  0  0  0  0  0  0  0
   -0.3242   -2.4742   -1.7970 H   0  0  0  0  0  0  0  0  0  0  0  0
    0.7992   -1.0728    1.2652 H   0  0  0  0  0  0  0  0  0  0  0  0
    1.4306   -1.6348   -0.3079 H   0  0  0  0  0  0  0  0  0  0  0  0
    1.7703   -0.0864   -2.2158 H   0  0  0  0  0  0  0  0  0  0  0  0
    1.3727    1.6552   -2.1259 H   0  0  0  0  0  0  0  0  0  0  0  0
    0.0807    0.4602   -2.2991 H   0  0  0  0  0  0  0  0  0  0  0  0
  1  2  1  0
  2  3  2  0
  2  4  1  0
  4  5  1  0
  5  6  1  0
  6  7  2  0
  6  8  1  0
  8  9  1  1
  8 10  1  0
 10 11  1  0
 11 12  1  0
 12 13  1  0
 13 14  1  0
 14 15  1  0
 15 16  1  0
 15 17  1  0
 17 18  2  0
 18 19  1  0
 19 20  2  0
 19 21  1  0
 21 22  2  0
 22 23  1  0
 23 24  1  6
 23 25  1  0
 25 26  1  0
 26 27  1  0
 26 28  1  0
 28 29  1  0
 29 30  1  6
 29  8  1  0
 29 12  1  0
 25 13  1  0
 23 17  1  0
  1 31  1  0
  1 32  1  0
  1 33  1  0
  5 34  1  0
  5 35  1  0
  9 36  1  0
 10 37  1  0
 10 38  1  0
 11 39  1  0
 11 40  1  0
 12 41  1  1
 13 42  1  6
 14 43  1  0
 14 44  1  0
 15 45  1  6
 18 46  1  0
 21 47  1  0
 22 48  1  0
 24 49  1  0
 24 50  1  0
 24 51  1  0
 25 52  1  1
 26 53  1  1
 27 54  1  0
 28 55  1  0
 28 56  1  0
 30 57  1  0
 30 58  1  0
 30 59  1  0
M  END
$$$$
