
     RDKit          3D

 79 84  0  0  0  0  0  0  0  0999 V2000
   10.6677   -1.7484   -1.4174 C   0  0  0  0  0  0  0  0  0  0  0  0
   10.0620   -1.4561   -2.6514 O   0  0  0  0  0  0  0  0  0  0  0  0
    9.0966   -0.5327   -2.3989 N   0  0  0  0  0  0  0  0  0  0  0  0
    7.7333   -0.9279   -2.2186 C   0  0  0  0  0  0  0  0  0  0  0  0
    7.4248   -2.1486   -2.2842 O   0  0  0  0  0  0  0  0  0  0  0  0
    6.7240    0.0707   -2.0066 N   0  0  0  0  0  0  0  0  0  0  0  0
    5.3723   -0.2182   -1.6098 C   0  0  0  0  0  0  0  0  0  0  0  0
    5.0736   -1.2785   -0.7352 C   0  0  0  0  0  0  0  0  0  0  0  0
    3.7531   -1.5222   -0.3463 C   0  0  0  0  0  0  0  0  0  0  0  0
    2.7171   -0.6973   -0.8047 C   0  0  0  0  0  0  0  0  0  0  0  0
    3.0123    0.3625   -1.6722 C   0  0  0  0  0  0  0  0  0  0  0  0
    4.3321    0.6078   -2.0608 C   0  0  0  0  0  0  0  0  0  0  0  0
    1.3300   -0.9691   -0.3938 C   0  0  0  0  0  0  0  0  0  0  0  0
    0.5180   -0.1769    0.4362 C   0  0  0  0  0  0  0  0  0  0  0  0
    0.9600    1.1541    1.0086 C   0  0  0  0  0  0  0  0  0  0  0  0
    0.0364    2.2451    0.6232 N   0  0  0  0  0  0  0  0  0  0  0  0
    0.1562    2.5481   -0.8159 C   0  0  0  0  0  0  0  0  0  0  0  0
    0.3143    3.4531    1.4309 C   0  0  0  0  0  0  0  0  0  0  0  0
   -0.8130    4.4484    1.3194 C   0  0  0  0  0  0  0  0  0  0  0  0
   -2.0422    4.1963    1.9513 C   0  0  0  0  0  0  0  0  0  0  0  0
   -3.0972    5.1057    1.8290 C   0  0  0  0  0  0  0  0  0  0  0  0
   -2.9339    6.2706    1.0745 C   0  0  0  0  0  0  0  0  0  0  0  0
   -1.7152    6.5278    0.4407 C   0  0  0  0  0  0  0  0  0  0  0  0
   -0.6575    5.6209    0.5604 C   0  0  0  0  0  0  0  0  0  0  0  0
   -0.7244   -0.8049    0.7162 C   0  0  0  0  0  0  0  0  0  0  0  0
   -0.8805   -2.0257    0.0823 C   0  0  0  0  0  0  0  0  0  0  0  0
    0.5171   -2.3913   -0.7817 S   0  0  0  0  0  0  0  0  0  0  0  0
   -2.0081   -2.7866    0.2101 N   0  0  0  0  0  0  0  0  0  0  0  0
   -2.1616   -4.0706   -0.5047 C   0  0  0  0  0  0  0  0  0  0  0  0
   -3.2150   -3.9650   -1.5856 C   0  0  0  0  0  0  0  0  0  0  0  0
   -4.4315   -4.6702   -1.4780 C   0  0  0  0  0  0  0  0  0  0  0  0
   -4.6812   -5.4706   -0.4106 F   0  0  0  0  0  0  0  0  0  0  0  0
   -5.4042   -4.5530   -2.4759 C   0  0  0  0  0  0  0  0  0  0  0  0
   -5.1770   -3.7392   -3.5870 C   0  0  0  0  0  0  0  0  0  0  0  0
   -3.9743   -3.0408   -3.7063 C   0  0  0  0  0  0  0  0  0  0  0  0
   -2.9951   -3.1508   -2.7142 C   0  0  0  0  0  0  0  0  0  0  0  0
   -1.8343   -2.4655   -2.8598 F   0  0  0  0  0  0  0  0  0  0  0  0
   -3.0113   -2.3268    1.0307 C   0  0  0  0  0  0  0  0  0  0  0  0
   -4.0536   -3.0228    1.1950 O   0  0  0  0  0  0  0  0  0  0  0  0
   -2.8869   -1.1248    1.6908 N   0  0  0  0  0  0  0  0  0  0  0  0
   -1.7539   -0.3627    1.5552 C   0  0  0  0  0  0  0  0  0  0  0  0
   -1.6416    0.7216    2.1886 O   0  0  0  0  0  0  0  0  0  0  0  0
   -3.9610   -0.6583    2.5337 C   0  0  0  0  0  0  0  0  0  0  0  0
   -3.7691   -0.5236    3.9186 C   0  0  0  0  0  0  0  0  0  0  0  0
   -4.8091   -0.0621    4.7313 C   0  0  0  0  0  0  0  0  0  0  0  0
   -6.0453    0.2670    4.1675 C   0  0  0  0  0  0  0  0  0  0  0  0
   -6.2434    0.1348    2.7901 C   0  0  0  0  0  0  0  0  0  0  0  0
   -5.2057   -0.3262    1.9741 C   0  0  0  0  0  0  0  0  0  0  0  0
   11.4724   -2.4939   -1.5823 H   0  0  0  0  0  0  0  0  0  0  0  0
    9.9321   -2.1885   -0.7080 H   0  0  0  0  0  0  0  0  0  0  0  0
   11.1286   -0.8365   -0.9766 H   0  0  0  0  0  0  0  0  0  0  0  0
    9.3441    0.4826   -2.4123 H   0  0  0  0  0  0  0  0  0  0  0  0
    6.9678    1.0608   -2.2360 H   0  0  0  0  0  0  0  0  0  0  0  0
    5.8591   -1.9025   -0.3310 H   0  0  0  0  0  0  0  0  0  0  0  0
    3.5406   -2.3433    0.3277 H   0  0  0  0  0  0  0  0  0  0  0  0
    2.2227    0.9884   -2.0619 H   0  0  0  0  0  0  0  0  0  0  0  0
    4.5438    1.4336   -2.7285 H   0  0  0  0  0  0  0  0  0  0  0  0
    0.9801    1.0331    2.1138 H   0  0  0  0  0  0  0  0  0  0  0  0
    2.0003    1.4038    0.7056 H   0  0  0  0  0  0  0  0  0  0  0  0
    1.1699    2.9318   -1.0655 H   0  0  0  0  0  0  0  0  0  0  0  0
   -0.5987    3.3045   -1.1157 H   0  0  0  0  0  0  0  0  0  0  0  0
   -0.0566    1.6441   -1.4242 H   0  0  0  0  0  0  0  0  0  0  0  0
    1.2849    3.9135    1.1348 H   0  0  0  0  0  0  0  0  0  0  0  0
    0.4077    3.1872    2.5076 H   0  0  0  0  0  0  0  0  0  0  0  0
   -2.1824    3.2995    2.5402 H   0  0  0  0  0  0  0  0  0  0  0  0
   -4.0417    4.9068    2.3188 H   0  0  0  0  0  0  0  0  0  0  0  0
   -3.7518    6.9732    0.9801 H   0  0  0  0  0  0  0  0  0  0  0  0
   -1.5907    7.4290   -0.1456 H   0  0  0  0  0  0  0  0  0  0  0  0
    0.2785    5.8294    0.0571 H   0  0  0  0  0  0  0  0  0  0  0  0
   -2.4138   -4.8664    0.2290 H   0  0  0  0  0  0  0  0  0  0  0  0
   -1.2129   -4.4052   -0.9715 H   0  0  0  0  0  0  0  0  0  0  0  0
   -6.3373   -5.0946   -2.3880 H   0  0  0  0  0  0  0  0  0  0  0  0
   -5.9325   -3.6513   -4.3570 H   0  0  0  0  0  0  0  0  0  0  0  0
   -3.8004   -2.4129   -4.5707 H   0  0  0  0  0  0  0  0  0  0  0  0
   -2.8157   -0.7794    4.3636 H   0  0  0  0  0  0  0  0  0  0  0  0
   -4.6571    0.0400    5.7980 H   0  0  0  0  0  0  0  0  0  0  0  0
   -6.8493    0.6244    4.7978 H   0  0  0  0  0  0  0  0  0  0  0  0
   -7.2004    0.3911    2.3544 H   0  0  0  0  0  0  0  0  0  0  0  0
   -5.3651   -0.4197    0.9072 H   0  0  0  0  0  0  0  0  0  0  0  0
  1  2  1  0
  2  3  1  0
  3  4  1  0
  4  5  2  0
  4  6  1  0
  6  7  1  0
  7  8  2  0
  8  9  1  0
  9 10  2  0
 10 11  1  0
 11 12  2  0
 10 13  1  0
 13 14  2  0
 14 15  1  0
 15 16  1  0
 16 17  1  0
 16 18  1  0
 18 19  1  0
 19 20  2  0
 20 21  1  0
 21 22  2  0
 22 23  1  0
 23 24  2  0
 14 25  1  0
 25 26  2  0
 26 27  1  0
 26 28  1  0
 28 29  1  0
 29 30  1  0
 30 31  2  0
 31 32  1  0
 31 33  1  0
 33 34  2  0
 34 35  1  0
 35 36  2  0
 36 37  1  0
 28 38  1  0
 38 39  2  0
 38 40  1  0
 40 41  1  0
 41 42  2  0
 40 43  1  0
 43 44  2  0
 44 45  1  0
 45 46  2  0
 46 47  1  0
 47 48  2  0
 12  7  1  0
 27 13  1  0
 36 30  1  0
 48 43  1  0
 24 19  1  0
 41 25  1  0
  1 49  1  0
  1 50  1  0
  1 51  1  0
  3 52  1  0
  6 53  1  0
  8 54  1  0
  9 55  1  0
 11 56  1  0
 12 57  1  0
 15 58  1  0
 15 59  1  0
 17 60  1  0
 17 61  1  0
 17 62  1  0
 18 63  1  0
 18 64  1  0
 20 65  1  0
 21 66  1  0
 22 67  1  0
 23 68  1  0
 24 69  1  0
 29 70  1  0
 29 71  1  0
 33 72  1  0
 34 73  1  0
 35 74  1  0
 44 75  1  0
 45 76  1  0
 46 77  1  0
 47 78  1  0
 48 79  1  0
M  END
$$$$
