
     RDKit          3D

 76 78  0  0  0  0  0  0  0  0999 V2000
   -5.4671    1.3932    2.1883 O   0  0  0  0  0  0  0  0  0  0  0  0
   -6.0119    2.1265    1.1265 C   0  0  0  0  0  0  0  0  0  0  0  0
   -6.5089    1.1919    0.0133 C   0  0  1  0  0  0  0  0  0  0  0  0
   -5.4189    0.4679   -0.5545 O   0  0  0  0  0  0  0  0  0  0  0  0
   -5.3160   -0.8541   -0.0541 C   0  0  2  0  0  0  0  0  0  0  0  0
   -4.1090   -1.4383   -0.5096 O   0  0  0  0  0  0  0  0  0  0  0  0
   -2.9824   -0.9382    0.1979 C   0  0  1  0  0  0  0  0  0  0  0  0
   -2.5154   -2.0024    1.2111 C   0  0  2  0  0  0  0  0  0  0  0  0
   -3.4596   -2.1151    2.2443 O   0  0  0  0  0  0  0  0  0  0  0  0
   -1.1439   -1.6149    1.7986 C   0  0  1  0  0  0  0  0  0  0  0  0
   -0.6479   -2.6326    2.6332 O   0  0  0  0  0  0  0  0  0  0  0  0
   -0.1493   -1.3025    0.6646 C   0  0  2  0  0  0  0  0  0  0  0  0
    1.0664   -0.8665    1.2514 O   0  0  0  0  0  0  0  0  0  0  0  0
    2.2009   -1.3482    0.5532 C   0  0  0  0  0  0  0  0  0  0  0  0
    2.4499   -0.5506   -0.7376 C   0  0  0  0  0  0  0  0  0  0  0  0
    3.6625   -1.0616   -1.5369 C   0  0  0  0  0  0  0  0  0  0  0  0
    5.0184   -0.9448   -0.8169 C   0  0  0  0  0  0  0  0  0  0  0  0
    5.3812    0.5067   -0.4525 C   0  0  0  0  0  0  0  0  0  0  0  0
    6.8408    0.6419    0.0419 C   0  0  0  0  0  0  0  0  0  0  0  0
    7.8615    0.6097   -1.1346 C   0  0  0  0  0  0  0  0  0  0  0  0
    8.3376    2.0116   -1.5335 C   0  0  0  0  0  0  0  0  0  0  0  0
    9.0315    2.7319   -0.3612 C   0  0  0  0  0  0  0  0  0  0  0  0
    8.4538    2.3539    1.0174 C   0  0  0  0  0  0  0  0  0  0  0  0
    6.9902    1.9149    0.9150 C   0  0  0  0  0  0  0  0  0  0  0  0
   -0.6605   -0.2508   -0.1348 O   0  0  0  0  0  0  0  0  0  0  0  0
   -1.8402   -0.6557   -0.8108 C   0  0  2  0  0  0  0  0  0  0  0  0
   -2.2237    0.4438   -1.8131 C   0  0  0  0  0  0  0  0  0  0  0  0
   -2.2754    1.6992   -1.1869 O   0  0  0  0  0  0  0  0  0  0  0  0
   -6.5077   -1.7000   -0.5512 C   0  0  2  0  0  0  0  0  0  0  0  0
   -6.2754   -2.1167   -1.8731 O   0  0  0  0  0  0  0  0  0  0  0  0
   -7.8348   -0.8955   -0.4824 C   0  0  1  0  0  0  0  0  0  0  0  0
   -8.9045   -1.7286   -0.1095 O   0  0  0  0  0  0  0  0  0  0  0  0
   -7.7132    0.3151    0.4646 C   0  0  2  0  0  0  0  0  0  0  0  0
   -8.8904    1.0816    0.4266 O   0  0  0  0  0  0  0  0  0  0  0  0
   -5.1572    2.0607    2.8539 H   0  0  0  0  0  0  0  0  0  0  0  0
   -5.2361    2.8058    0.7073 H   0  0  0  0  0  0  0  0  0  0  0  0
   -6.8585    2.7484    1.4947 H   0  0  0  0  0  0  0  0  0  0  0  0
   -6.8852    1.8532   -0.7987 H   0  0  0  0  0  0  0  0  0  0  0  0
   -5.3426   -0.8615    1.0612 H   0  0  0  0  0  0  0  0  0  0  0  0
   -3.1884    0.0111    0.7516 H   0  0  0  0  0  0  0  0  0  0  0  0
   -2.4249   -2.9770    0.6731 H   0  0  0  0  0  0  0  0  0  0  0  0
   -3.3221   -3.0036    2.6654 H   0  0  0  0  0  0  0  0  0  0  0  0
   -1.2707   -0.6973    2.4155 H   0  0  0  0  0  0  0  0  0  0  0  0
   -0.5242   -3.4458    2.0768 H   0  0  0  0  0  0  0  0  0  0  0  0
   -0.0196   -2.2300    0.0511 H   0  0  0  0  0  0  0  0  0  0  0  0
    3.0707   -1.2119    1.2272 H   0  0  0  0  0  0  0  0  0  0  0  0
    2.1375   -2.4413    0.3479 H   0  0  0  0  0  0  0  0  0  0  0  0
    2.5646    0.5277   -0.4996 H   0  0  0  0  0  0  0  0  0  0  0  0
    1.5622   -0.6436   -1.3980 H   0  0  0  0  0  0  0  0  0  0  0  0
    3.7176   -0.4959   -2.4926 H   0  0  0  0  0  0  0  0  0  0  0  0
    3.4934   -2.1280   -1.8027 H   0  0  0  0  0  0  0  0  0  0  0  0
    5.0247   -1.5757    0.0967 H   0  0  0  0  0  0  0  0  0  0  0  0
    5.7893   -1.3665   -1.4951 H   0  0  0  0  0  0  0  0  0  0  0  0
    5.2189    1.1757   -1.3264 H   0  0  0  0  0  0  0  0  0  0  0  0
    4.6960    0.8360    0.3587 H   0  0  0  0  0  0  0  0  0  0  0  0
    7.0626   -0.2281    0.7012 H   0  0  0  0  0  0  0  0  0  0  0  0
    7.4372    0.1122   -2.0317 H   0  0  0  0  0  0  0  0  0  0  0  0
    8.7494    0.0128   -0.8295 H   0  0  0  0  0  0  0  0  0  0  0  0
    9.0417    1.9368   -2.3902 H   0  0  0  0  0  0  0  0  0  0  0  0
    7.4614    2.6079   -1.8711 H   0  0  0  0  0  0  0  0  0  0  0  0
    8.9355    3.8290   -0.5138 H   0  0  0  0  0  0  0  0  0  0  0  0
   10.1169    2.4908   -0.3711 H   0  0  0  0  0  0  0  0  0  0  0  0
    9.0496    1.5227    1.4554 H   0  0  0  0  0  0  0  0  0  0  0  0
    8.5348    3.2233    1.7052 H   0  0  0  0  0  0  0  0  0  0  0  0
    6.3986    2.7543    0.4854 H   0  0  0  0  0  0  0  0  0  0  0  0
    6.5944    1.7138    1.9345 H   0  0  0  0  0  0  0  0  0  0  0  0
   -1.6478   -1.5772   -1.4101 H   0  0  0  0  0  0  0  0  0  0  0  0
   -3.1865    0.2045   -2.3208 H   0  0  0  0  0  0  0  0  0  0  0  0
   -1.4449    0.4861   -2.6041 H   0  0  0  0  0  0  0  0  0  0  0  0
   -3.2110    1.8385   -0.8897 H   0  0  0  0  0  0  0  0  0  0  0  0
   -6.5668   -2.5972    0.1093 H   0  0  0  0  0  0  0  0  0  0  0  0
   -6.9185   -2.8504   -2.0574 H   0  0  0  0  0  0  0  0  0  0  0  0
   -8.0614   -0.4960   -1.4967 H   0  0  0  0  0  0  0  0  0  0  0  0
   -8.7389   -2.0310    0.8218 H   0  0  0  0  0  0  0  0  0  0  0  0
   -7.5376   -0.0520    1.5039 H   0  0  0  0  0  0  0  0  0  0  0  0
   -9.5527    0.6231    1.0069 H   0  0  0  0  0  0  0  0  0  0  0  0
  1  2  1  0
  2  3  1  0
  3  4  1  0
  4  5  1  0
  5  6  1  0
  6  7  1  0
  7  8  1  0
  8  9  1  0
  8 10  1  0
 10 11  1  0
 10 12  1  0
 12 13  1  0
 13 14  1  0
 14 15  1  0
 15 16  1  0
 16 17  1  0
 17 18  1  0
 18 19  1  0
 19 20  1  0
 20 21  1  0
 21 22  1  0
 22 23  1  0
 23 24  1  0
 12 25  1  0
 25 26  1  0
 26 27  1  0
 27 28  1  0
  5 29  1  0
 29 30  1  0
 29 31  1  0
 31 32  1  0
 31 33  1  0
 33 34  1  0
 33  3  1  0
 26  7  1  0
 24 19  1  0
  1 35  1  0
  2 36  1  0
  2 37  1  0
  3 38  1  6
  5 39  1  1
  7 40  1  1
  8 41  1  6
  9 42  1  0
 10 43  1  1
 11 44  1  0
 12 45  1  6
 14 46  1  0
 14 47  1  0
 15 48  1  0
 15 49  1  0
 16 50  1  0
 16 51  1  0
 17 52  1  0
 17 53  1  0
 18 54  1  0
 18 55  1  0
 19 56  1  0
 20 57  1  0
 20 58  1  0
 21 59  1  0
 21 60  1  0
 22 61  1  0
 22 62  1  0
 23 63  1  0
 23 64  1  0
 24 65  1  0
 24 66  1  0
 26 67  1  6
 27 68  1  0
 27 69  1  0
 28 70  1  0
 29 71  1  1
 30 72  1  0
 31 73  1  6
 32 74  1  0
 33 75  1  1
 34 76  1  0
M  END
$$$$
