
     RDKit          3D

 55 58  0  0  0  0  0  0  0  0999 V2000
   -6.6208   -1.6246   -1.1746 C   0  0  0  0  0  0  0  0  0  0  0  0
   -5.5777   -1.9872   -0.1216 C   0  0  0  0  0  0  0  0  0  0  0  0
   -5.4819   -0.9116    0.9345 C   0  0  0  0  0  0  0  0  0  0  0  0
   -4.5553    0.1560    0.8348 C   0  0  0  0  0  0  0  0  0  0  0  0
   -3.6868    0.2748   -0.3063 N   0  0  0  0  0  0  0  0  0  0  0  0
   -2.2976    0.6138   -0.2110 C   0  0  0  0  0  0  0  0  0  0  0  0
   -1.7415    0.7130    0.9172 O   0  0  0  0  0  0  0  0  0  0  0  0
   -1.5764    0.8541   -1.3877 O   0  0  0  0  0  0  0  0  0  0  0  0
   -0.1780    0.9048   -1.4856 C   0  0  0  0  0  0  0  0  0  0  0  0
    0.6631    0.1538   -0.6336 C   0  0  0  0  0  0  0  0  0  0  0  0
    2.0509    0.2656   -0.7822 C   0  0  0  0  0  0  0  0  0  0  0  0
    2.5894    1.0275   -1.7856 C   0  0  0  0  0  0  0  0  0  0  0  0
    1.7858    1.7578   -2.6632 C   0  0  0  0  0  0  0  0  0  0  0  0
    0.3938    1.6950   -2.5028 C   0  0  0  0  0  0  0  0  0  0  0  0
    4.0037    0.9359   -1.8029 N   0  0  0  0  0  0  0  0  0  0  0  0
    4.8864    1.6597   -2.7120 C   0  0  0  0  0  0  0  0  0  0  0  0
    4.4399    0.2417   -0.5914 C   0  0  1  0  0  0  0  0  0  0  0  0
    4.9294    1.2458    0.2944 O   0  0  0  0  0  0  0  0  0  0  0  0
    4.9855    0.8210    1.5959 N   0  0  0  0  0  0  0  0  0  0  0  0
    5.9837   -0.2368    1.8259 C   0  0  0  0  0  0  0  0  0  0  0  0
    3.6474    0.5733    2.1397 C   0  0  0  0  0  0  0  0  0  0  0  0
    2.9815   -0.5944    1.4360 C   0  0  0  0  0  0  0  0  0  0  0  0
    3.1432   -0.5183   -0.1015 C   0  0  1  0  0  0  0  0  0  0  0  0
    3.1319   -1.9487   -0.6834 C   0  0  0  0  0  0  0  0  0  0  0  0
   -4.5246    1.1363    1.8434 C   0  0  0  0  0  0  0  0  0  0  0  0
   -5.3872    1.0573    2.9380 C   0  0  0  0  0  0  0  0  0  0  0  0
   -6.2992    0.0073    3.0351 C   0  0  0  0  0  0  0  0  0  0  0  0
   -6.3517   -0.9681    2.0380 C   0  0  0  0  0  0  0  0  0  0  0  0
   -6.6647   -2.4234   -1.9445 H   0  0  0  0  0  0  0  0  0  0  0  0
   -7.6231   -1.5285   -0.7052 H   0  0  0  0  0  0  0  0  0  0  0  0
   -6.3588   -0.6666   -1.6709 H   0  0  0  0  0  0  0  0  0  0  0  0
   -4.5940   -2.1545   -0.6092 H   0  0  0  0  0  0  0  0  0  0  0  0
   -5.8624   -2.9541    0.3480 H   0  0  0  0  0  0  0  0  0  0  0  0
   -4.0622    0.0539   -1.2551 H   0  0  0  0  0  0  0  0  0  0  0  0
    0.2514   -0.5336    0.0912 H   0  0  0  0  0  0  0  0  0  0  0  0
    2.2194    2.3554   -3.4541 H   0  0  0  0  0  0  0  0  0  0  0  0
   -0.2454    2.2559   -3.1727 H   0  0  0  0  0  0  0  0  0  0  0  0
    4.6729    2.7477   -2.6565 H   0  0  0  0  0  0  0  0  0  0  0  0
    4.7235    1.3029   -3.7502 H   0  0  0  0  0  0  0  0  0  0  0  0
    5.9484    1.4884   -2.4365 H   0  0  0  0  0  0  0  0  0  0  0  0
    5.2629   -0.4612   -0.8495 H   0  0  0  0  0  0  0  0  0  0  0  0
    5.6903   -1.1981    1.3568 H   0  0  0  0  0  0  0  0  0  0  0  0
    6.9623    0.0791    1.4071 H   0  0  0  0  0  0  0  0  0  0  0  0
    6.1132   -0.3977    2.9168 H   0  0  0  0  0  0  0  0  0  0  0  0
    3.7121    0.3711    3.2311 H   0  0  0  0  0  0  0  0  0  0  0  0
    3.0256    1.4855    2.0054 H   0  0  0  0  0  0  0  0  0  0  0  0
    1.9118   -0.6363    1.7299 H   0  0  0  0  0  0  0  0  0  0  0  0
    3.4374   -1.5297    1.8286 H   0  0  0  0  0  0  0  0  0  0  0  0
    3.2119   -1.9286   -1.7924 H   0  0  0  0  0  0  0  0  0  0  0  0
    2.1906   -2.4729   -0.4098 H   0  0  0  0  0  0  0  0  0  0  0  0
    3.9885   -2.5363   -0.2888 H   0  0  0  0  0  0  0  0  0  0  0  0
   -3.8483    1.9781    1.7705 H   0  0  0  0  0  0  0  0  0  0  0  0
   -5.3559    1.8184    3.7070 H   0  0  0  0  0  0  0  0  0  0  0  0
   -6.9716   -0.0478    3.8814 H   0  0  0  0  0  0  0  0  0  0  0  0
   -7.0726   -1.7717    2.1265 H   0  0  0  0  0  0  0  0  0  0  0  0
  1  2  1  0
  2  3  1  0
  3  4  2  0
  4  5  1  0
  5  6  1  0
  6  7  2  0
  6  8  1  0
  8  9  1  0
  9 10  2  0
 10 11  1  0
 11 12  2  0
 12 13  1  0
 13 14  2  0
 12 15  1  0
 15 16  1  0
 15 17  1  0
 17 18  1  0
 18 19  1  0
 19 20  1  0
 19 21  1  0
 21 22  1  0
 22 23  1  0
 23 24  1  6
  4 25  1  0
 25 26  2  0
 26 27  1  0
 27 28  2  0
 28  3  1  0
 14  9  1  0
 23 17  1  0
 23 11  1  0
  1 29  1  0
  1 30  1  0
  1 31  1  0
  2 32  1  0
  2 33  1  0
  5 34  1  0
 10 35  1  0
 13 36  1  0
 14 37  1  0
 16 38  1  0
 16 39  1  0
 16 40  1  0
 17 41  1  6
 20 42  1  0
 20 43  1  0
 20 44  1  0
 21 45  1  0
 21 46  1  0
 22 47  1  0
 22 48  1  0
 24 49  1  0
 24 50  1  0
 24 51  1  0
 25 52  1  0
 26 53  1  0
 27 54  1  0
 28 55  1  0
M  END
$$$$
