
     RDKit          3D

 32 31  0  0  0  0  0  0  0  0999 V2000
   -2.3742    0.1341    0.1948 C   0  0  1  0  0  0  0  0  0  0  0  0
   -2.5783   -0.2230    1.6037 N   0  0  0  0  0  0  0  0  0  0  0  0
   -2.8812    1.5591   -0.0992 C   0  0  0  0  0  0  0  0  0  0  0  0
   -4.2565    1.6392    0.1555 O   0  0  0  0  0  0  0  0  0  0  0  0
   -0.8847   -0.0299   -0.2135 C   0  0  1  0  0  0  0  0  0  0  0  0
   -0.0670    0.9071    0.4482 O   0  0  0  0  0  0  0  0  0  0  0  0
   -0.3762   -1.4882   -0.0226 C   0  0  2  0  0  0  0  0  0  0  0  0
   -0.1139   -1.7445    1.3356 O   0  0  0  0  0  0  0  0  0  0  0  0
    0.8665   -1.8298   -0.8934 C   0  0  2  0  0  0  0  0  0  0  0  0
    1.1650   -3.1966   -0.7580 O   0  0  0  0  0  0  0  0  0  0  0  0
    2.1226   -1.0193   -0.5277 C   0  0  0  0  0  0  0  0  0  0  0  0
    2.0574    0.2559   -1.1233 O   0  0  0  0  0  0  0  0  0  0  0  0
    3.4279    1.1504   -0.6429 P   0  0  0  0  0  5  0  0  0  0  0  0
    3.3291    2.7006   -1.3134 O   0  0  0  0  0  0  0  0  0  0  0  0
    3.4828    1.2789    1.0444 O   0  0  0  0  0  0  0  0  0  0  0  0
    4.6878    0.4762   -1.1392 O   0  0  0  0  0  0  0  0  0  0  0  0
   -2.9716   -0.5652   -0.4337 H   0  0  0  0  0  0  0  0  0  0  0  0
   -3.6024   -0.3531    1.7717 H   0  0  0  0  0  0  0  0  0  0  0  0
   -2.2645    0.5615    2.2202 H   0  0  0  0  0  0  0  0  0  0  0  0
   -2.3389    2.2972    0.5337 H   0  0  0  0  0  0  0  0  0  0  0  0
   -2.6927    1.8050   -1.1685 H   0  0  0  0  0  0  0  0  0  0  0  0
   -4.5200    2.5748   -0.0453 H   0  0  0  0  0  0  0  0  0  0  0  0
   -0.8306    0.1974   -1.3011 H   0  0  0  0  0  0  0  0  0  0  0  0
   -0.0839    0.7083    1.4189 H   0  0  0  0  0  0  0  0  0  0  0  0
   -1.1959   -2.1630   -0.3676 H   0  0  0  0  0  0  0  0  0  0  0  0
   -0.1816   -2.7262    1.4669 H   0  0  0  0  0  0  0  0  0  0  0  0
    0.6256   -1.6229   -1.9634 H   0  0  0  0  0  0  0  0  0  0  0  0
    0.4895   -3.6956   -1.2881 H   0  0  0  0  0  0  0  0  0  0  0  0
    2.2095   -0.9521    0.5803 H   0  0  0  0  0  0  0  0  0  0  0  0
    3.0111   -1.5650   -0.9201 H   0  0  0  0  0  0  0  0  0  0  0  0
    4.0995    3.1913   -0.9303 H   0  0  0  0  0  0  0  0  0  0  0  0
    2.6398    1.7374    1.2889 H   0  0  0  0  0  0  0  0  0  0  0  0
  1  2  1  0
  1  3  1  0
  3  4  1  0
  1  5  1  0
  5  6  1  0
  5  7  1  0
  7  8  1  0
  7  9  1  0
  9 10  1  0
  9 11  1  0
 11 12  1  0
 12 13  1  0
 13 14  1  0
 13 15  1  0
 13 16  2  0
  1 17  1  6
  2 18  1  0
  2 19  1  0
  3 20  1  0
  3 21  1  0
  4 22  1  0
  5 23  1  6
  6 24  1  0
  7 25  1  6
  8 26  1  0
  9 27  1  6
 10 28  1  0
 11 29  1  0
 11 30  1  0
 14 31  1  0
 15 32  1  0
M  END
$$$$
