
     RDKit          3D

 54 56  0  0  0  0  0  0  0  0999 V2000
   -4.1141   -1.3319    0.4141 C   0  0  0  0  0  0  0  0  0  0  0  0
   -2.7202   -0.8572    0.1151 C   0  0  0  0  0  0  0  0  0  0  0  0
   -1.5616   -1.3187    0.7464 C   0  0  0  0  0  0  0  0  0  0  0  0
   -1.4396   -2.4283    1.7537 C   0  0  0  0  0  0  0  0  0  0  0  0
   -1.1463   -3.7260    1.0638 C   0  0  0  0  0  0  0  0  0  0  0  0
   -2.1652   -4.7132    0.9045 N   0  0  0  0  0  0  0  0  0  0  0  0
    0.0064   -3.9409    0.6022 O   0  0  0  0  0  0  0  0  0  0  0  0
   -0.5286   -0.5642    0.2238 C   0  0  0  0  0  0  0  0  0  0  0  0
   -1.0794    0.3288   -0.6614 C   0  0  0  0  0  0  0  0  0  0  0  0
   -0.2806    1.2554   -1.3407 C   0  0  0  0  0  0  0  0  0  0  0  0
    1.1035    1.2426   -1.0995 C   0  0  0  0  0  0  0  0  0  0  0  0
    1.6751    0.3216   -0.1949 C   0  0  0  0  0  0  0  0  0  0  0  0
    3.0632    0.3579   -0.0007 O   0  0  0  0  0  0  0  0  0  0  0  0
    3.7776   -0.5160    0.8708 C   0  0  0  0  0  0  0  0  0  0  0  0
    5.2708   -0.1937    0.8250 C   0  0  0  0  0  0  0  0  0  0  0  0
    5.8629   -0.4637   -0.5618 C   0  0  0  0  0  0  0  0  0  0  0  0
    7.6537   -0.1307   -0.5818 P   0  0  0  0  0  5  0  0  0  0  0  0
    8.2592   -0.4405   -2.1312 O   0  0  0  0  0  0  0  0  0  0  0  0
    7.9432    1.4910   -0.1918 O   0  0  0  0  0  0  0  0  0  0  0  0
    8.3530   -1.0267    0.4162 O   0  0  0  0  0  0  0  0  0  0  0  0
    0.8424   -0.5997    0.4827 C   0  0  0  0  0  0  0  0  0  0  0  0
   -2.4204    0.1626   -0.7369 N   0  0  0  0  0  0  0  0  0  0  0  0
   -3.3727    0.9787   -1.5020 C   0  0  0  0  0  0  0  0  0  0  0  0
   -4.0265    1.9978   -0.6072 C   0  0  0  0  0  0  0  0  0  0  0  0
   -3.2863    3.0885   -0.1210 C   0  0  0  0  0  0  0  0  0  0  0  0
   -3.8845    4.0238    0.7288 C   0  0  0  0  0  0  0  0  0  0  0  0
   -5.2235    3.8770    1.1004 C   0  0  0  0  0  0  0  0  0  0  0  0
   -5.9667    2.7946    0.6223 C   0  0  0  0  0  0  0  0  0  0  0  0
   -5.3724    1.8571   -0.2281 C   0  0  0  0  0  0  0  0  0  0  0  0
   -4.1067   -2.3816    0.7677 H   0  0  0  0  0  0  0  0  0  0  0  0
   -4.7452   -1.2995   -0.4957 H   0  0  0  0  0  0  0  0  0  0  0  0
   -4.5630   -0.6881    1.1983 H   0  0  0  0  0  0  0  0  0  0  0  0
   -0.6202   -2.1991    2.4675 H   0  0  0  0  0  0  0  0  0  0  0  0
   -2.3695   -2.5081    2.3544 H   0  0  0  0  0  0  0  0  0  0  0  0
   -1.9580   -5.6060    0.4044 H   0  0  0  0  0  0  0  0  0  0  0  0
   -3.1217   -4.5658    1.2953 H   0  0  0  0  0  0  0  0  0  0  0  0
   -0.6962    1.9705   -2.0359 H   0  0  0  0  0  0  0  0  0  0  0  0
    1.7387    1.9503   -1.6170 H   0  0  0  0  0  0  0  0  0  0  0  0
    3.6126   -1.5734    0.5685 H   0  0  0  0  0  0  0  0  0  0  0  0
    3.4139   -0.3776    1.9121 H   0  0  0  0  0  0  0  0  0  0  0  0
    5.7920   -0.8228    1.5790 H   0  0  0  0  0  0  0  0  0  0  0  0
    5.4183    0.8738    1.0978 H   0  0  0  0  0  0  0  0  0  0  0  0
    5.6977   -1.5254   -0.8443 H   0  0  0  0  0  0  0  0  0  0  0  0
    5.3754    0.1872   -1.3183 H   0  0  0  0  0  0  0  0  0  0  0  0
    8.0502   -1.3939   -2.2999 H   0  0  0  0  0  0  0  0  0  0  0  0
    7.8179    1.5466    0.7891 H   0  0  0  0  0  0  0  0  0  0  0  0
    1.2445   -1.3159    1.1853 H   0  0  0  0  0  0  0  0  0  0  0  0
   -4.1307    0.3237   -1.9809 H   0  0  0  0  0  0  0  0  0  0  0  0
   -2.8655    1.4973   -2.3407 H   0  0  0  0  0  0  0  0  0  0  0  0
   -2.2479    3.2146   -0.3980 H   0  0  0  0  0  0  0  0  0  0  0  0
   -3.3093    4.8621    1.1003 H   0  0  0  0  0  0  0  0  0  0  0  0
   -5.6849    4.6015    1.7590 H   0  0  0  0  0  0  0  0  0  0  0  0
   -7.0034    2.6811    0.9117 H   0  0  0  0  0  0  0  0  0  0  0  0
   -5.9615    1.0228   -0.5876 H   0  0  0  0  0  0  0  0  0  0  0  0
  1  2  1  0
  2  3  2  0
  3  4  1  0
  4  5  1  0
  5  6  1  0
  5  7  2  0
  3  8  1  0
  8  9  2  0
  9 10  1  0
 10 11  2  0
 11 12  1  0
 12 13  1  0
 13 14  1  0
 14 15  1  0
 15 16  1  0
 16 17  1  0
 17 18  1  0
 17 19  1  0
 17 20  2  0
 12 21  2  0
  9 22  1  0
 22 23  1  0
 23 24  1  0
 24 25  2  0
 25 26  1  0
 26 27  2  0
 27 28  1  0
 28 29  2  0
 22  2  1  0
 29 24  1  0
 21  8  1  0
  1 30  1  0
  1 31  1  0
  1 32  1  0
  4 33  1  0
  4 34  1  0
  6 35  1  0
  6 36  1  0
 10 37  1  0
 11 38  1  0
 14 39  1  0
 14 40  1  0
 15 41  1  0
 15 42  1  0
 16 43  1  0
 16 44  1  0
 18 45  1  0
 19 46  1  0
 21 47  1  0
 23 48  1  0
 23 49  1  0
 25 50  1  0
 26 51  1  0
 27 52  1  0
 28 53  1  0
 29 54  1  0
M  END
$$$$
