
     RDKit          3D

 40 42  0  0  0  0  0  0  0  0999 V2000
    4.8875   -0.4880    1.3747 C   0  0  0  0  0  0  0  0  0  0  0  0
    4.2641    0.4266    0.4788 O   0  0  0  0  0  0  0  0  0  0  0  0
    2.9842    0.2542   -0.0703 C   0  0  0  0  0  0  0  0  0  0  0  0
    2.4995    1.2384   -0.9351 C   0  0  0  0  0  0  0  0  0  0  0  0
    1.2219    1.1269   -1.5131 C   0  0  0  0  0  0  0  0  0  0  0  0
    0.7162    2.1034   -2.3881 O   0  0  0  0  0  0  0  0  0  0  0  0
    1.4167    3.2797   -2.7791 C   0  0  0  0  0  0  0  0  0  0  0  0
    0.4198    0.0146   -1.2032 C   0  0  0  0  0  0  0  0  0  0  0  0
   -0.9083   -0.1171   -1.8304 C   0  0  0  0  0  0  0  0  0  0  0  0
   -2.0628   -0.1493   -1.1482 C   0  0  0  0  0  0  0  0  0  0  0  0
   -3.3800   -0.4349   -1.7237 C   0  0  0  0  0  0  0  0  0  0  0  0
   -3.6147   -0.6440   -2.9433 O   0  0  0  0  0  0  0  0  0  0  0  0
   -4.3844   -0.4638   -0.7165 N   0  0  0  0  0  0  0  0  0  0  0  0
   -3.6947   -0.1621    0.4904 C   0  0  0  0  0  0  0  0  0  0  0  0
   -4.2764   -0.0160    1.7488 C   0  0  0  0  0  0  0  0  0  0  0  0
   -3.4555    0.3578    2.8238 C   0  0  0  0  0  0  0  0  0  0  0  0
   -2.0836    0.6004    2.6204 C   0  0  0  0  0  0  0  0  0  0  0  0
   -1.5159    0.4587    1.3435 C   0  0  0  0  0  0  0  0  0  0  0  0
   -2.3379    0.0430    0.2882 C   0  0  0  0  0  0  0  0  0  0  0  0
    0.9067   -0.9991   -0.3538 C   0  0  0  0  0  0  0  0  0  0  0  0
    0.0937   -2.1170   -0.0988 O   0  0  0  0  0  0  0  0  0  0  0  0
    0.4331   -3.1820    0.7826 C   0  0  0  0  0  0  0  0  0  0  0  0
    2.1860   -0.8664    0.2169 C   0  0  0  0  0  0  0  0  0  0  0  0
    5.8895   -0.0997    1.6497 H   0  0  0  0  0  0  0  0  0  0  0  0
    4.2804   -0.5912    2.2989 H   0  0  0  0  0  0  0  0  0  0  0  0
    5.0118   -1.4771    0.8855 H   0  0  0  0  0  0  0  0  0  0  0  0
    3.1305    2.0900   -1.1504 H   0  0  0  0  0  0  0  0  0  0  0  0
    1.6399    3.9049   -1.8889 H   0  0  0  0  0  0  0  0  0  0  0  0
    0.7809    3.8658   -3.4737 H   0  0  0  0  0  0  0  0  0  0  0  0
    2.3576    3.0077   -3.3025 H   0  0  0  0  0  0  0  0  0  0  0  0
   -0.9374   -0.2105   -2.9091 H   0  0  0  0  0  0  0  0  0  0  0  0
   -5.4076   -0.6291   -0.8427 H   0  0  0  0  0  0  0  0  0  0  0  0
   -5.3371   -0.1760    1.8921 H   0  0  0  0  0  0  0  0  0  0  0  0
   -3.8831    0.4784    3.8106 H   0  0  0  0  0  0  0  0  0  0  0  0
   -1.4647    0.9131    3.4514 H   0  0  0  0  0  0  0  0  0  0  0  0
   -0.4738    0.6958    1.1991 H   0  0  0  0  0  0  0  0  0  0  0  0
    1.3492   -3.6973    0.4246 H   0  0  0  0  0  0  0  0  0  0  0  0
   -0.4004   -3.9135    0.8034 H   0  0  0  0  0  0  0  0  0  0  0  0
    0.5883   -2.7912    1.8104 H   0  0  0  0  0  0  0  0  0  0  0  0
    2.5607   -1.6338    0.8773 H   0  0  0  0  0  0  0  0  0  0  0  0
  1  2  1  0
  2  3  1  0
  3  4  2  0
  4  5  1  0
  5  6  1  0
  6  7  1  0
  5  8  2  0
  8  9  1  0
  9 10  2  0
 10 11  1  0
 11 12  2  0
 11 13  1  0
 13 14  1  0
 14 15  2  0
 15 16  1  0
 16 17  2  0
 17 18  1  0
 18 19  2  0
  8 20  1  0
 20 21  1  0
 21 22  1  0
 20 23  2  0
 23  3  1  0
 19 10  1  0
 19 14  1  0
  1 24  1  0
  1 25  1  0
  1 26  1  0
  4 27  1  0
  7 28  1  0
  7 29  1  0
  7 30  1  0
  9 31  1  0
 13 32  1  0
 15 33  1  0
 16 34  1  0
 17 35  1  0
 18 36  1  0
 22 37  1  0
 22 38  1  0
 22 39  1  0
 23 40  1  0
M  END
$$$$
