
     RDKit          3D

 61 65  0  0  0  0  0  0  0  0999 V2000
    1.1625   -0.1574   -0.7203 C   0  0  2  0  0  0  0  0  0  0  0  0
    1.7095   -0.3597   -2.1281 C   0  0  0  0  0  0  0  0  0  0  0  0
    3.2140   -0.6062   -1.9311 C   0  0  0  0  0  0  0  0  0  0  0  0
    3.4629   -0.7253   -0.3990 C   0  0  2  0  0  0  0  0  0  0  0  0
    4.1835    0.5555    0.1322 C   0  0  0  0  0  0  0  0  0  0  0  0
    5.6789    0.2260    0.0695 C   0  0  0  0  0  0  0  0  0  0  0  0
    5.6600   -1.2508    0.0632 C   0  0  0  0  0  0  0  0  0  0  0  0
    6.6778   -1.9735    0.2231 O   0  0  0  0  0  0  0  0  0  0  0  0
    4.4001   -1.7662   -0.1517 O   0  0  0  0  0  0  0  0  0  0  0  0
    2.0427   -1.0372    0.1787 C   0  0  2  0  0  0  0  0  0  0  0  0
    1.7750   -2.5709    0.0012 C   0  0  0  0  0  0  0  0  0  0  0  0
    1.7477   -0.6356    1.6486 C   0  0  0  0  0  0  0  0  0  0  0  0
    0.2529   -0.8220    1.9975 C   0  0  0  0  0  0  0  0  0  0  0  0
   -0.6993   -0.0712    1.0099 C   0  0  1  0  0  0  0  0  0  0  0  0
   -0.3540   -0.3769   -0.4891 C   0  0  1  0  0  0  0  0  0  0  0  0
   -1.2214    0.4761   -1.4497 C   0  0  1  0  0  0  0  0  0  0  0  0
   -2.7034    0.1810   -1.2041 C   0  0  0  0  0  0  0  0  0  0  0  0
   -3.0751    0.4084    0.2426 C   0  0  0  0  0  0  0  0  0  0  0  0
   -4.2349    1.0341    0.5165 C   0  0  0  0  0  0  0  0  0  0  0  0
   -4.7412    1.1720    1.8876 C   0  0  0  0  0  0  0  0  0  0  0  0
   -5.8147    1.7970    2.0959 O   0  0  0  0  0  0  0  0  0  0  0  0
   -4.0301    0.5184    3.0270 C   0  0  0  0  0  0  0  0  0  0  0  0
   -2.5339    0.4006    2.7251 C   0  0  0  0  0  0  0  0  0  0  0  0
   -2.2334   -0.2618    1.3402 C   0  0  2  0  0  0  0  0  0  0  0  0
   -2.6265   -1.7608    1.3946 C   0  0  0  0  0  0  0  0  0  0  0  0
   -0.8878    2.2830   -1.2868 S   0  0  0  0  0  0  0  0  0  0  0  0
   -1.3751    2.7056   -2.9641 C   0  0  0  0  0  0  0  0  0  0  0  0
   -2.7532    3.2096   -3.2526 C   0  0  0  0  0  0  0  0  0  0  0  0
   -0.5640    2.6025   -3.8703 O   0  0  0  0  0  0  0  0  0  0  0  0
    1.3795    0.9065   -0.4627 H   0  0  0  0  0  0  0  0  0  0  0  0
    1.5329    0.5402   -2.7568 H   0  0  0  0  0  0  0  0  0  0  0  0
    1.2310   -1.2398   -2.6108 H   0  0  0  0  0  0  0  0  0  0  0  0
    3.8070    0.2110   -2.3972 H   0  0  0  0  0  0  0  0  0  0  0  0
    3.4988   -1.5506   -2.4453 H   0  0  0  0  0  0  0  0  0  0  0  0
    3.9589    0.7501    1.1965 H   0  0  0  0  0  0  0  0  0  0  0  0
    3.9382    1.4714   -0.4483 H   0  0  0  0  0  0  0  0  0  0  0  0
    6.1260    0.6005   -0.8760 H   0  0  0  0  0  0  0  0  0  0  0  0
    6.2280    0.6206    0.9517 H   0  0  0  0  0  0  0  0  0  0  0  0
    0.7352   -2.8741    0.2178 H   0  0  0  0  0  0  0  0  0  0  0  0
    1.9980   -2.9147   -1.0299 H   0  0  0  0  0  0  0  0  0  0  0  0
    2.4226   -3.1497    0.6938 H   0  0  0  0  0  0  0  0  0  0  0  0
    2.3761   -1.2340    2.3432 H   0  0  0  0  0  0  0  0  0  0  0  0
    1.9665    0.4368    1.8256 H   0  0  0  0  0  0  0  0  0  0  0  0
    0.0150   -1.9013    2.0455 H   0  0  0  0  0  0  0  0  0  0  0  0
    0.1101   -0.4261    3.0241 H   0  0  0  0  0  0  0  0  0  0  0  0
   -0.4745    1.0082    1.1624 H   0  0  0  0  0  0  0  0  0  0  0  0
   -0.5906   -1.4337   -0.7191 H   0  0  0  0  0  0  0  0  0  0  0  0
   -0.9880    0.1610   -2.4904 H   0  0  0  0  0  0  0  0  0  0  0  0
   -2.9160   -0.8790   -1.4620 H   0  0  0  0  0  0  0  0  0  0  0  0
   -3.3188    0.7993   -1.8909 H   0  0  0  0  0  0  0  0  0  0  0  0
   -4.8324    1.4506   -0.2862 H   0  0  0  0  0  0  0  0  0  0  0  0
   -4.1682    1.1219    3.9504 H   0  0  0  0  0  0  0  0  0  0  0  0
   -4.4689   -0.4856    3.2062 H   0  0  0  0  0  0  0  0  0  0  0  0
   -2.0677   -0.1785    3.5500 H   0  0  0  0  0  0  0  0  0  0  0  0
   -2.0998    1.4250    2.7547 H   0  0  0  0  0  0  0  0  0  0  0  0
   -2.2642   -2.3129    0.5049 H   0  0  0  0  0  0  0  0  0  0  0  0
   -2.2199   -2.2543    2.3017 H   0  0  0  0  0  0  0  0  0  0  0  0
   -3.7308   -1.8776    1.4238 H   0  0  0  0  0  0  0  0  0  0  0  0
   -3.3448    3.2835   -2.3161 H   0  0  0  0  0  0  0  0  0  0  0  0
   -3.2657    2.5147   -3.9501 H   0  0  0  0  0  0  0  0  0  0  0  0
   -2.6928    4.2162   -3.7167 H   0  0  0  0  0  0  0  0  0  0  0  0
  1  2  1  0
  2  3  1  0
  3  4  1  0
  4  5  1  0
  5  6  1  0
  6  7  1  0
  7  8  2  0
  7  9  1  0
  4 10  1  0
 10 11  1  1
 10 12  1  0
 12 13  1  0
 13 14  1  0
 14 15  1  0
 15 16  1  0
 16 17  1  0
 17 18  1  0
 18 19  2  0
 19 20  1  0
 20 21  2  0
 20 22  1  0
 22 23  1  0
 23 24  1  0
 24 25  1  1
 16 26  1  0
 26 27  1  0
 27 28  1  0
 27 29  2  0
 10  1  1  0
 24 14  1  0
 15  1  1  0
 24 18  1  0
  4  9  1  6
  1 30  1  1
  2 31  1  0
  2 32  1  0
  3 33  1  0
  3 34  1  0
  5 35  1  0
  5 36  1  0
  6 37  1  0
  6 38  1  0
 11 39  1  0
 11 40  1  0
 11 41  1  0
 12 42  1  0
 12 43  1  0
 13 44  1  0
 13 45  1  0
 14 46  1  6
 15 47  1  6
 16 48  1  6
 17 49  1  0
 17 50  1  0
 19 51  1  0
 22 52  1  0
 22 53  1  0
 23 54  1  0
 23 55  1  0
 25 56  1  0
 25 57  1  0
 25 58  1  0
 28 59  1  0
 28 60  1  0
 28 61  1  0
M  END
$$$$
