
     RDKit          3D

 50 51  0  0  0  0  0  0  0  0999 V2000
   -2.5079   -1.3023    3.5059 C   0  0  0  0  0  0  0  0  0  0  0  0
   -1.0947   -1.3422    2.9298 C   0  0  0  0  0  0  0  0  0  0  0  0
   -1.1204   -1.4918    1.4237 C   0  0  0  0  0  0  0  0  0  0  0  0
   -1.7303   -2.4444    0.9562 O   0  0  0  0  0  0  0  0  0  0  0  0
   -0.4872   -0.4370    0.4947 C   0  0  0  0  0  0  0  0  0  0  0  0
    1.0321   -0.2973    0.8753 C   0  0  0  0  0  0  0  0  0  0  0  0
    1.8843    0.6120   -0.0630 C   0  0  0  0  0  0  0  0  0  0  0  0
    3.0935    1.1980    0.6967 C   0  0  0  0  0  0  0  0  0  0  0  0
    2.2712   -0.1106   -1.3086 N   0  0  0  0  0  0  0  0  0  0  0  0
    3.4236   -1.0207   -1.1669 C   0  0  0  0  0  0  0  0  0  0  0  0
    2.4887    0.8086   -2.4389 C   0  0  0  0  0  0  0  0  0  0  0  0
   -0.5498   -0.8947   -0.9856 C   0  0  0  0  0  0  0  0  0  0  0  0
   -0.8865   -0.0031   -2.0333 C   0  0  0  0  0  0  0  0  0  0  0  0
   -0.8572   -0.4184   -3.3674 C   0  0  0  0  0  0  0  0  0  0  0  0
   -0.4588   -1.7145   -3.6908 C   0  0  0  0  0  0  0  0  0  0  0  0
   -0.0731   -2.5952   -2.6818 C   0  0  0  0  0  0  0  0  0  0  0  0
   -0.1029   -2.1884   -1.3457 C   0  0  0  0  0  0  0  0  0  0  0  0
   -1.3219    0.8444    0.7296 C   0  0  0  0  0  0  0  0  0  0  0  0
   -0.8152    2.0006    1.3701 C   0  0  0  0  0  0  0  0  0  0  0  0
   -1.6350    3.1095    1.5995 C   0  0  0  0  0  0  0  0  0  0  0  0
   -2.9759    3.0849    1.2183 C   0  0  0  0  0  0  0  0  0  0  0  0
   -3.5055    1.9467    0.6135 C   0  0  0  0  0  0  0  0  0  0  0  0
   -2.6930    0.8351    0.3801 C   0  0  0  0  0  0  0  0  0  0  0  0
   -2.4562   -1.1740    4.6076 H   0  0  0  0  0  0  0  0  0  0  0  0
   -3.0455   -2.2493    3.2865 H   0  0  0  0  0  0  0  0  0  0  0  0
   -3.0751   -0.4493    3.0761 H   0  0  0  0  0  0  0  0  0  0  0  0
   -0.5418   -2.1996    3.3693 H   0  0  0  0  0  0  0  0  0  0  0  0
   -0.5811   -0.4085    3.2351 H   0  0  0  0  0  0  0  0  0  0  0  0
    1.4831   -1.3101    0.9112 H   0  0  0  0  0  0  0  0  0  0  0  0
    1.1272    0.0685    1.9173 H   0  0  0  0  0  0  0  0  0  0  0  0
    1.2482    1.4818   -0.3356 H   0  0  0  0  0  0  0  0  0  0  0  0
    2.7408    1.8657    1.5112 H   0  0  0  0  0  0  0  0  0  0  0  0
    3.7307    1.8029    0.0199 H   0  0  0  0  0  0  0  0  0  0  0  0
    3.7066    0.3933    1.1547 H   0  0  0  0  0  0  0  0  0  0  0  0
    3.4859   -1.6818   -2.0575 H   0  0  0  0  0  0  0  0  0  0  0  0
    4.3786   -0.4577   -1.0796 H   0  0  0  0  0  0  0  0  0  0  0  0
    3.3125   -1.6803   -0.2837 H   0  0  0  0  0  0  0  0  0  0  0  0
    1.5923    1.4432   -2.6040 H   0  0  0  0  0  0  0  0  0  0  0  0
    3.3692    1.4636   -2.2655 H   0  0  0  0  0  0  0  0  0  0  0  0
    2.6499    0.2298   -3.3737 H   0  0  0  0  0  0  0  0  0  0  0  0
   -1.1454    1.0276   -1.8359 H   0  0  0  0  0  0  0  0  0  0  0  0
   -1.1255    0.2746   -4.1543 H   0  0  0  0  0  0  0  0  0  0  0  0
   -0.4291   -2.0297   -4.7258 H   0  0  0  0  0  0  0  0  0  0  0  0
    0.2641   -3.5918   -2.9355 H   0  0  0  0  0  0  0  0  0  0  0  0
    0.2463   -2.8817   -0.5914 H   0  0  0  0  0  0  0  0  0  0  0  0
    0.2062    2.0691    1.7074 H   0  0  0  0  0  0  0  0  0  0  0  0
   -1.2296    3.9893    2.0826 H   0  0  0  0  0  0  0  0  0  0  0  0
   -3.6070    3.9450    1.4008 H   0  0  0  0  0  0  0  0  0  0  0  0
   -4.5496    1.9221    0.3295 H   0  0  0  0  0  0  0  0  0  0  0  0
   -3.1338   -0.0417   -0.0780 H   0  0  0  0  0  0  0  0  0  0  0  0
  1  2  1  0
  2  3  1  0
  3  4  2  0
  3  5  1  0
  5  6  1  0
  6  7  1  0
  7  8  1  0
  7  9  1  0
  9 10  1  0
  9 11  1  0
  5 12  1  0
 12 13  2  0
 13 14  1  0
 14 15  2  0
 15 16  1  0
 16 17  2  0
  5 18  1  0
 18 19  2  0
 19 20  1  0
 20 21  2  0
 21 22  1  0
 22 23  2  0
 17 12  1  0
 23 18  1  0
  1 24  1  0
  1 25  1  0
  1 26  1  0
  2 27  1  0
  2 28  1  0
  6 29  1  0
  6 30  1  0
  7 31  1  0
  8 32  1  0
  8 33  1  0
  8 34  1  0
 10 35  1  0
 10 36  1  0
 10 37  1  0
 11 38  1  0
 11 39  1  0
 11 40  1  0
 13 41  1  0
 14 42  1  0
 15 43  1  0
 16 44  1  0
 17 45  1  0
 19 46  1  0
 20 47  1  0
 21 48  1  0
 22 49  1  0
 23 50  1  0
M  END
$$$$
