
     RDKit          3D

 45 47  0  0  0  0  0  0  0  0999 V2000
   -6.2188   -1.3374    0.5001 C   0  0  0  0  0  0  0  0  0  0  0  0
   -5.1855   -0.3561    0.3502 N   0  0  0  0  0  0  0  0  0  0  0  0
   -5.0023    0.0370   -0.9859 C   0  0  0  0  0  0  0  0  0  0  0  0
   -3.6034    0.7575   -1.1298 C   0  0  0  0  0  0  0  0  0  0  0  0
   -2.9230    0.4931    0.1338 C   0  0  0  0  0  0  0  0  0  0  0  0
   -3.7268    1.2873    1.2070 C   0  0  0  0  0  0  0  0  0  0  0  0
   -5.0387    0.5631    1.4035 C   0  0  0  0  0  0  0  0  0  0  0  0
   -1.5342    0.6600    0.3870 C   0  0  0  0  0  0  0  0  0  0  0  0
   -1.4178    1.5974    1.4558 O   0  0  0  0  0  0  0  0  0  0  0  0
   -0.2809    0.3375    0.0866 C   0  0  0  0  0  0  0  0  0  0  0  0
   -0.7726   -0.9536   -0.9052 C   0  0  0  0  0  0  0  0  0  0  0  0
   -0.0182   -1.7281   -1.5616 C   0  0  0  0  0  0  0  0  0  0  0  0
    1.3938   -1.6361   -1.5474 C   0  0  0  0  0  0  0  0  0  0  0  0
    1.8598   -0.5855   -0.7275 C   0  0  0  0  0  0  0  0  0  0  0  0
    3.2805   -0.3879   -0.5959 N   0  0  0  0  0  0  0  0  0  0  0  0
    3.8480    0.4599    0.4159 C   0  0  0  0  0  0  0  0  0  0  0  0
    3.0740    1.0593    1.2013 O   0  0  0  0  0  0  0  0  0  0  0  0
    5.2868    0.5950    0.5394 C   0  0  0  0  0  0  0  0  0  0  0  0
    6.1326    0.9521   -0.4607 C   0  0  0  0  0  0  0  0  0  0  0  0
    5.5911    1.4544   -1.6112 F   0  0  0  0  0  0  0  0  0  0  0  0
    7.5058    0.8465   -0.3261 C   0  0  0  0  0  0  0  0  0  0  0  0
    8.0469    0.3471    0.8931 C   0  0  0  0  0  0  0  0  0  0  0  0
    9.3882    0.1939    0.9791 F   0  0  0  0  0  0  0  0  0  0  0  0
    7.1903   -0.0055    1.9015 C   0  0  0  0  0  0  0  0  0  0  0  0
    5.8464    0.1116    1.7495 C   0  0  0  0  0  0  0  0  0  0  0  0
    5.0455   -0.2499    2.7350 F   0  0  0  0  0  0  0  0  0  0  0  0
    0.9362    0.0244   -0.2051 N   0  0  0  0  0  0  0  0  0  0  0  0
   -5.9430   -2.0612    1.3318 H   0  0  0  0  0  0  0  0  0  0  0  0
   -6.3608   -1.9934   -0.3852 H   0  0  0  0  0  0  0  0  0  0  0  0
   -7.1958   -0.8313    0.7954 H   0  0  0  0  0  0  0  0  0  0  0  0
   -5.0221   -0.8759   -1.6230 H   0  0  0  0  0  0  0  0  0  0  0  0
   -5.7430    0.7509   -1.3905 H   0  0  0  0  0  0  0  0  0  0  0  0
   -3.1902    0.3437   -2.0634 H   0  0  0  0  0  0  0  0  0  0  0  0
   -3.7979    1.8192   -1.3274 H   0  0  0  0  0  0  0  0  0  0  0  0
   -3.2020   -0.6165    0.5017 H   0  0  0  0  0  0  0  0  0  0  0  0
   -3.1388    1.3568    2.0817 H   0  0  0  0  0  0  0  0  0  0  0  0
   -3.9082    2.2469    0.7223 H   0  0  0  0  0  0  0  0  0  0  0  0
   -4.9526   -0.0075    2.3922 H   0  0  0  0  0  0  0  0  0  0  0  0
   -5.8349    1.2853    1.5546 H   0  0  0  0  0  0  0  0  0  0  0  0
   -1.8377   -0.9883   -0.8249 H   0  0  0  0  0  0  0  0  0  0  0  0
   -0.4288   -2.5822   -2.1829 H   0  0  0  0  0  0  0  0  0  0  0  0
    2.0461   -2.2351   -2.0770 H   0  0  0  0  0  0  0  0  0  0  0  0
    3.9194   -0.8599   -1.2292 H   0  0  0  0  0  0  0  0  0  0  0  0
    8.2108    1.1101   -1.0581 H   0  0  0  0  0  0  0  0  0  0  0  0
    7.6754   -0.3983    2.8190 H   0  0  0  0  0  0  0  0  0  0  0  0
  1  2  1  0
  2  3  1  0
  3  4  1  0
  4  5  1  0
  5  6  1  0
  6  7  1  0
  5  8  1  0
  8  9  2  0
  8 10  1  0
 10 11  2  0
 11 12  1  0
 12 13  2  0
 13 14  1  0
 14 15  1  0
 15 16  1  0
 16 17  2  0
 16 18  1  0
 18 19  2  0
 19 20  1  0
 19 21  1  0
 21 22  2  0
 22 23  1  0
 22 24  1  0
 24 25  2  0
 25 26  1  0
 14 27  2  0
  7  2  1  0
 27 10  1  0
 25 18  1  0
  1 28  1  0
  1 29  1  0
  1 30  1  0
  3 31  1  0
  3 32  1  0
  4 33  1  0
  4 34  1  0
  5 35  1  0
  6 36  1  0
  6 37  1  0
  7 38  1  0
  7 39  1  0
 11 40  1  0
 12 41  1  0
 13 42  1  0
 15 43  1  0
 21 44  1  0
 24 45  1  0
M  END
$$$$
