
     RDKit          3D

 55 54  0  0  0  0  0  0  0  0999 V2000
    0.4861   -0.1266    1.6892 C   0  0  0  0  0  0  0  0  0  0  0  0
    1.5092    0.1330    0.6133 C   0  0  0  0  0  0  0  0  0  0  0  0
    2.1312   -1.1815    0.1186 C   0  0  0  0  0  0  0  0  0  0  0  0
    2.9868   -0.9989   -1.1478 C   0  0  0  0  0  0  0  0  0  0  0  0
    4.1816   -0.0400   -0.9941 C   0  0  0  0  0  0  0  0  0  0  0  0
    5.2174   -0.5351    0.0298 C   0  0  0  0  0  0  0  0  0  0  0  0
    6.4491    0.3812    0.1118 C   0  0  0  0  0  0  0  0  0  0  0  0
    7.3929    0.2128   -1.0862 C   0  0  0  0  0  0  0  0  0  0  0  0
    8.6256    1.0393   -0.8978 C   0  0  0  0  0  0  0  0  0  0  0  0
    8.6344    2.3713   -1.2994 O   0  0  0  0  0  0  0  0  0  0  0  0
    9.6407    0.5423   -0.3405 O   0  0  0  0  0  0  0  0  0  0  0  0
   -0.7927   -0.4814    1.4618 C   0  0  0  0  0  0  0  0  0  0  0  0
   -1.4267   -0.6086    0.0947 C   0  0  0  0  0  0  0  0  0  0  0  0
   -2.2811    0.6209   -0.2877 C   0  0  2  0  0  0  0  0  0  0  0  0
   -1.4616    1.7466   -0.4859 O   0  0  0  0  0  0  0  0  0  0  0  0
   -3.4181    0.9530    0.7131 C   0  0  0  0  0  0  0  0  0  0  0  0
   -4.4038   -0.1986    1.0098 C   0  0  0  0  0  0  0  0  0  0  0  0
   -5.1527   -0.7546   -0.2178 C   0  0  0  0  0  0  0  0  0  0  0  0
   -6.1929    0.2240   -0.8089 C   0  0  0  0  0  0  0  0  0  0  0  0
   -7.6437   -0.1301   -0.4427 C   0  0  0  0  0  0  0  0  0  0  0  0
   -7.9411    0.0533    1.0442 C   0  0  0  0  0  0  0  0  0  0  0  0
    0.8081   -0.0181    2.7210 H   0  0  0  0  0  0  0  0  0  0  0  0
    1.0611    0.7063   -0.2254 H   0  0  0  0  0  0  0  0  0  0  0  0
    2.3090    0.7652    1.0539 H   0  0  0  0  0  0  0  0  0  0  0  0
    2.7338   -1.6421    0.9298 H   0  0  0  0  0  0  0  0  0  0  0  0
    1.3249   -1.9063   -0.1250 H   0  0  0  0  0  0  0  0  0  0  0  0
    3.3631   -1.9949   -1.4683 H   0  0  0  0  0  0  0  0  0  0  0  0
    2.3349   -0.6218   -1.9659 H   0  0  0  0  0  0  0  0  0  0  0  0
    3.8270    0.9754   -0.7176 H   0  0  0  0  0  0  0  0  0  0  0  0
    4.6618    0.0445   -1.9910 H   0  0  0  0  0  0  0  0  0  0  0  0
    4.7496   -0.5512    1.0367 H   0  0  0  0  0  0  0  0  0  0  0  0
    5.5329   -1.5730   -0.2147 H   0  0  0  0  0  0  0  0  0  0  0  0
    6.1261    1.4425    0.1957 H   0  0  0  0  0  0  0  0  0  0  0  0
    7.0056    0.1253    1.0408 H   0  0  0  0  0  0  0  0  0  0  0  0
    7.6799   -0.8558   -1.1969 H   0  0  0  0  0  0  0  0  0  0  0  0
    6.8927    0.5368   -2.0221 H   0  0  0  0  0  0  0  0  0  0  0  0
    9.4554    2.9491   -1.1643 H   0  0  0  0  0  0  0  0  0  0  0  0
   -1.4345   -0.6351    2.3242 H   0  0  0  0  0  0  0  0  0  0  0  0
   -2.0612   -1.5191    0.0879 H   0  0  0  0  0  0  0  0  0  0  0  0
   -0.6670   -0.7752   -0.6955 H   0  0  0  0  0  0  0  0  0  0  0  0
   -2.7456    0.4031   -1.2715 H   0  0  0  0  0  0  0  0  0  0  0  0
   -1.1059    2.0247    0.3980 H   0  0  0  0  0  0  0  0  0  0  0  0
   -2.9712    1.2726    1.6793 H   0  0  0  0  0  0  0  0  0  0  0  0
   -3.9765    1.8326    0.3316 H   0  0  0  0  0  0  0  0  0  0  0  0
   -5.1427    0.1628    1.7552 H   0  0  0  0  0  0  0  0  0  0  0  0
   -3.8571   -1.0307    1.5010 H   0  0  0  0  0  0  0  0  0  0  0  0
   -4.4265   -1.0458   -1.0037 H   0  0  0  0  0  0  0  0  0  0  0  0
   -5.6498   -1.7037    0.0791 H   0  0  0  0  0  0  0  0  0  0  0  0
   -5.9881    1.2747   -0.5177 H   0  0  0  0  0  0  0  0  0  0  0  0
   -6.1117    0.1857   -1.9172 H   0  0  0  0  0  0  0  0  0  0  0  0
   -7.8682   -1.1773   -0.7410 H   0  0  0  0  0  0  0  0  0  0  0  0
   -8.3233    0.5343   -1.0193 H   0  0  0  0  0  0  0  0  0  0  0  0
   -7.6586    1.0756    1.3743 H   0  0  0  0  0  0  0  0  0  0  0  0
   -7.3908   -0.6985    1.6471 H   0  0  0  0  0  0  0  0  0  0  0  0
   -9.0276   -0.0888    1.2236 H   0  0  0  0  0  0  0  0  0  0  0  0
  1  2  1  0
  2  3  1  0
  3  4  1  0
  4  5  1  0
  5  6  1  0
  6  7  1  0
  7  8  1  0
  8  9  1  0
  9 10  1  0
  9 11  2  0
  1 12  2  0
 12 13  1  0
 13 14  1  0
 14 15  1  0
 14 16  1  0
 16 17  1  0
 17 18  1  0
 18 19  1  0
 19 20  1  0
 20 21  1  0
  1 22  1  0
  2 23  1  0
  2 24  1  0
  3 25  1  0
  3 26  1  0
  4 27  1  0
  4 28  1  0
  5 29  1  0
  5 30  1  0
  6 31  1  0
  6 32  1  0
  7 33  1  0
  7 34  1  0
  8 35  1  0
  8 36  1  0
 10 37  1  0
 12 38  1  0
 13 39  1  0
 13 40  1  0
 14 41  1  6
 15 42  1  0
 16 43  1  0
 16 44  1  0
 17 45  1  0
 17 46  1  0
 18 47  1  0
 18 48  1  0
 19 49  1  0
 19 50  1  0
 20 51  1  0
 20 52  1  0
 21 53  1  0
 21 54  1  0
 21 55  1  0
M  END
$$$$
