
     RDKit          3D

 34 35  0  0  0  0  0  0  0  0999 V2000
    4.3406    1.7676   -1.2798 N   0  0  0  0  0  0  0  0  0  0  0  0
    3.7882    0.8300   -0.3562 C   0  0  0  0  0  0  0  0  0  0  0  0
    4.4025    0.6655    0.9288 N   0  0  0  0  0  0  0  0  0  0  0  0
    2.7371    0.1457   -0.7040 N   0  0  0  0  0  0  0  0  0  0  0  0
    2.0608   -0.8445    0.1296 C   0  0  0  0  0  0  0  0  0  0  0  0
    0.8607   -1.4255   -0.6288 C   0  0  0  0  0  0  0  0  0  0  0  0
    0.0918   -2.4199    0.1989 C   0  0  0  0  0  0  0  0  0  0  0  0
   -0.9958   -1.7284    0.7216 O   0  0  0  0  0  0  0  0  0  0  0  0
   -1.1612   -0.5896   -0.0985 C   0  0  0  0  0  0  0  0  0  0  0  0
   -1.2899    0.6603    0.8129 C   0  0  0  0  0  0  0  0  0  0  0  0
   -2.7471    0.9527    1.1856 C   0  0  0  0  0  0  0  0  0  0  0  0
   -3.6003    1.2520   -0.0634 C   0  0  0  0  0  0  0  0  0  0  0  0
   -3.1055    0.5248   -1.3299 C   0  0  0  0  0  0  0  0  0  0  0  0
   -2.4191   -0.8008   -0.9841 C   0  0  0  0  0  0  0  0  0  0  0  0
   -0.0400   -0.4073   -0.9412 O   0  0  0  0  0  0  0  0  0  0  0  0
    5.1831    2.3293   -1.0260 H   0  0  0  0  0  0  0  0  0  0  0  0
    3.9082    1.9035   -2.2208 H   0  0  0  0  0  0  0  0  0  0  0  0
    4.0416   -0.0073    1.6398 H   0  0  0  0  0  0  0  0  0  0  0  0
    5.2438    1.2307    1.1789 H   0  0  0  0  0  0  0  0  0  0  0  0
    1.7121   -0.3643    1.0706 H   0  0  0  0  0  0  0  0  0  0  0  0
    2.7702   -1.6648    0.3764 H   0  0  0  0  0  0  0  0  0  0  0  0
    1.2160   -1.9060   -1.5671 H   0  0  0  0  0  0  0  0  0  0  0  0
    0.6979   -2.8542    1.0233 H   0  0  0  0  0  0  0  0  0  0  0  0
   -0.2812   -3.2484   -0.4426 H   0  0  0  0  0  0  0  0  0  0  0  0
   -0.8758    1.5536    0.2939 H   0  0  0  0  0  0  0  0  0  0  0  0
   -0.6924    0.5189    1.7399 H   0  0  0  0  0  0  0  0  0  0  0  0
   -3.1664    0.0730    1.7220 H   0  0  0  0  0  0  0  0  0  0  0  0
   -2.7881    1.8200    1.8795 H   0  0  0  0  0  0  0  0  0  0  0  0
   -4.6514    0.9558    0.1456 H   0  0  0  0  0  0  0  0  0  0  0  0
   -3.5979    2.3466   -0.2585 H   0  0  0  0  0  0  0  0  0  0  0  0
   -2.3845    1.1734   -1.8748 H   0  0  0  0  0  0  0  0  0  0  0  0
   -3.9651    0.3342   -2.0083 H   0  0  0  0  0  0  0  0  0  0  0  0
   -2.1395   -1.3293   -1.9217 H   0  0  0  0  0  0  0  0  0  0  0  0
   -3.1533   -1.4473   -0.4534 H   0  0  0  0  0  0  0  0  0  0  0  0
  1  2  1  0
  2  3  1  0
  2  4  2  3
  4  5  1  0
  5  6  1  0
  6  7  1  0
  7  8  1  0
  8  9  1  0
  9 10  1  0
 10 11  1  0
 11 12  1  0
 12 13  1  0
 13 14  1  0
  9 15  1  0
 15  6  1  0
 14  9  1  0
  1 16  1  0
  1 17  1  0
  3 18  1  0
  3 19  1  0
  5 20  1  0
  5 21  1  0
  6 22  1  0
  7 23  1  0
  7 24  1  0
 10 25  1  0
 10 26  1  0
 11 27  1  0
 11 28  1  0
 12 29  1  0
 12 30  1  0
 13 31  1  0
 13 32  1  0
 14 33  1  0
 14 34  1  0
M  END
$$$$
