
     RDKit          3D

 49 51  0  0  0  0  0  0  0  0999 V2000
   -0.3851   -1.2014    2.4541 C   0  0  1  0  0  0  0  0  0  0  0  0
    0.5631   -0.8313    1.3071 C   0  0  0  0  0  0  0  0  0  0  0  0
    1.6348   -1.7455    1.2681 O   0  0  0  0  0  0  0  0  0  0  0  0
    2.4992   -1.5227   -0.1875 P   0  0  0  0  0  5  0  0  0  0  0  0
    3.8746   -2.5073   -0.1455 O   0  0  0  0  0  0  0  0  0  0  0  0
    1.6343   -1.9357   -1.3581 O   0  0  0  0  0  0  0  0  0  0  0  0
    3.0175    0.2146   -0.3890 C   0  0  0  0  0  0  0  0  0  0  0  0
    4.1085    0.4077   -1.8317 P   0  0  0  0  0  5  0  0  0  0  0  0
    3.2999   -0.1394   -3.2174 O   0  0  0  0  0  0  0  0  0  0  0  0
    5.3693   -0.3998   -1.6117 O   0  0  0  0  0  0  0  0  0  0  0  0
    4.4968    2.0594   -1.9674 O   0  0  0  0  0  0  0  0  0  0  0  0
    5.2840    2.2854   -3.4597 P   0  0  0  0  0  5  0  0  0  0  0  0
    6.5883    1.2179   -3.6266 O   0  0  0  0  0  0  0  0  0  0  0  0
    4.1974    2.0507   -4.7363 O   0  0  0  0  0  0  0  0  0  0  0  0
    5.8049    3.7033   -3.5215 O   0  0  0  0  0  0  0  0  0  0  0  0
   -1.3341   -0.1658    2.6188 O   0  0  0  0  0  0  0  0  0  0  0  0
   -2.6167   -0.7167    2.4162 C   0  0  1  0  0  0  0  0  0  0  0  0
   -3.4495    0.2033    1.6388 N   0  0  0  0  0  0  0  0  0  0  0  0
   -4.7923    0.3785    1.7425 C   0  0  0  0  0  0  0  0  0  0  0  0
   -5.2995    1.2368    0.8145 N   0  0  0  0  0  0  0  0  0  0  0  0
   -4.2085    1.5898    0.1089 C   0  0  0  0  0  0  0  0  0  0  0  0
   -4.1014    2.4326   -0.9919 C   0  0  0  0  0  0  0  0  0  0  0  0
   -5.2365    3.1035   -1.5392 N   0  0  0  0  0  0  0  0  0  0  0  0
   -2.8623    2.5976   -1.5450 N   0  0  0  0  0  0  0  0  0  0  0  0
   -1.7617    1.9546   -1.0371 C   0  0  0  0  0  0  0  0  0  0  0  0
   -1.8804    1.1270    0.0441 N   0  0  0  0  0  0  0  0  0  0  0  0
   -3.1088    0.9697    0.5935 C   0  0  0  0  0  0  0  0  0  0  0  0
   -2.4672   -2.0479    1.7001 C   0  0  2  0  0  0  0  0  0  0  0  0
   -3.5027   -2.9289    2.0508 O   0  0  0  0  0  0  0  0  0  0  0  0
   -1.1193   -2.5212    2.1805 C   0  0  2  0  0  0  0  0  0  0  0  0
   -1.2531   -3.2559    3.3714 O   0  0  0  0  0  0  0  0  0  0  0  0
    0.2154   -1.2794    3.3878 H   0  0  0  0  0  0  0  0  0  0  0  0
   -0.0179   -0.8295    0.3561 H   0  0  0  0  0  0  0  0  0  0  0  0
    0.9530    0.1923    1.5004 H   0  0  0  0  0  0  0  0  0  0  0  0
    3.5270   -3.4199    0.0195 H   0  0  0  0  0  0  0  0  0  0  0  0
    3.5578    0.5429    0.5225 H   0  0  0  0  0  0  0  0  0  0  0  0
    2.1223    0.8542   -0.5316 H   0  0  0  0  0  0  0  0  0  0  0  0
    3.4937   -1.1094   -3.2646 H   0  0  0  0  0  0  0  0  0  0  0  0
    7.1951    1.4403   -2.8760 H   0  0  0  0  0  0  0  0  0  0  0  0
    3.4256    2.6330   -4.5212 H   0  0  0  0  0  0  0  0  0  0  0  0
   -3.0813   -0.8760    3.4162 H   0  0  0  0  0  0  0  0  0  0  0  0
   -5.4054   -0.1239    2.4796 H   0  0  0  0  0  0  0  0  0  0  0  0
   -6.1862    2.9810   -1.1225 H   0  0  0  0  0  0  0  0  0  0  0  0
   -5.1268    3.7288   -2.3680 H   0  0  0  0  0  0  0  0  0  0  0  0
   -0.7937    2.1015   -1.4962 H   0  0  0  0  0  0  0  0  0  0  0  0
   -2.4411   -1.8915    0.5952 H   0  0  0  0  0  0  0  0  0  0  0  0
   -3.4226   -3.7098    1.4432 H   0  0  0  0  0  0  0  0  0  0  0  0
   -0.6286   -3.1461    1.3971 H   0  0  0  0  0  0  0  0  0  0  0  0
   -0.3796   -3.7016    3.5265 H   0  0  0  0  0  0  0  0  0  0  0  0
  1  2  1  0
  2  3  1  0
  3  4  1  0
  4  5  1  0
  4  6  2  0
  4  7  1  0
  7  8  1  0
  8  9  1  0
  8 10  2  0
  8 11  1  0
 11 12  1  0
 12 13  1  0
 12 14  1  0
 12 15  2  0
  1 16  1  0
 16 17  1  0
 17 18  1  0
 18 19  1  0
 19 20  2  0
 20 21  1  0
 21 22  2  0
 22 23  1  0
 22 24  1  0
 24 25  2  0
 25 26  1  0
 26 27  2  0
 17 28  1  0
 28 29  1  0
 28 30  1  0
 30 31  1  0
 30  1  1  0
 27 18  1  0
 27 21  1  0
  1 32  1  1
  2 33  1  0
  2 34  1  0
  5 35  1  0
  7 36  1  0
  7 37  1  0
  9 38  1  0
 13 39  1  0
 14 40  1  0
 17 41  1  1
 19 42  1  0
 23 43  1  0
 23 44  1  0
 25 45  1  0
 28 46  1  6
 29 47  1  0
 30 48  1  6
 31 49  1  0
M  END
$$$$
