
     RDKit          3D

 69 72  0  0  0  0  0  0  0  0999 V2000
    2.7272   -4.7006    3.2460 C   0  0  0  0  0  0  0  0  0  0  0  0
    3.4324   -3.4487    3.7565 C   0  0  0  0  0  0  0  0  0  0  0  0
    3.2756   -2.3684    2.8362 O   0  0  0  0  0  0  0  0  0  0  0  0
    2.1079   -1.6063    2.6498 C   0  0  0  0  0  0  0  0  0  0  0  0
    2.0826   -0.6625    1.6049 C   0  0  0  0  0  0  0  0  0  0  0  0
    3.2459   -0.4822    0.7762 N   0  0  0  0  0  0  0  0  0  0  0  0
    3.1747   -0.1778   -0.6276 C   0  0  0  0  0  0  0  0  0  0  0  0
    2.1228   -0.4328   -1.2737 O   0  0  0  0  0  0  0  0  0  0  0  0
    4.3301    0.3775   -1.3571 C   0  0  0  0  0  0  0  0  0  0  0  0
    5.3821    0.9312   -0.7447 C   0  0  0  0  0  0  0  0  0  0  0  0
    6.5320    1.4919   -1.5314 C   0  0  0  0  0  0  0  0  0  0  0  0
    7.2134    0.4270   -2.2964 N   0  0  0  0  0  0  0  0  0  0  0  0
    8.0188   -0.4256   -1.4041 C   0  0  0  0  0  0  0  0  0  0  0  0
    8.0824    1.0229   -3.3233 C   0  0  0  0  0  0  0  0  0  0  0  0
    0.9368    0.1276    1.4044 C   0  0  0  0  0  0  0  0  0  0  0  0
   -0.1970   -0.0291    2.2200 C   0  0  0  0  0  0  0  0  0  0  0  0
   -1.3686    0.7356    2.0283 C   0  0  0  0  0  0  0  0  0  0  0  0
   -1.4232    1.7389    0.9999 N   0  0  0  0  0  0  0  0  0  0  0  0
   -2.3087    1.6679   -0.1321 C   0  0  0  0  0  0  0  0  0  0  0  0
   -2.9962    0.4848   -0.4541 C   0  0  0  0  0  0  0  0  0  0  0  0
   -3.8503    0.4408   -1.5585 C   0  0  0  0  0  0  0  0  0  0  0  0
   -4.0309    1.5795   -2.3664 C   0  0  0  0  0  0  0  0  0  0  0  0
   -4.8900    1.5833   -3.4788 O   0  0  0  0  0  0  0  0  0  0  0  0
   -5.7711    0.5216   -3.8469 C   0  0  0  0  0  0  0  0  0  0  0  0
   -6.8815    0.3807   -2.8470 C   0  0  0  0  0  0  0  0  0  0  0  0
   -7.6993    1.4750   -2.5298 C   0  0  0  0  0  0  0  0  0  0  0  0
   -8.7232    1.3157   -1.5939 C   0  0  0  0  0  0  0  0  0  0  0  0
   -8.9255    0.0734   -0.9902 C   0  0  0  0  0  0  0  0  0  0  0  0
   -8.0972   -0.9967   -1.3357 C   0  0  0  0  0  0  0  0  0  0  0  0
   -7.1042   -0.8224   -2.2484 N   0  0  0  0  0  0  0  0  0  0  0  0
   -3.3286    2.7537   -2.0555 C   0  0  0  0  0  0  0  0  0  0  0  0
   -3.5216    4.1937   -3.0437 Cl  0  0  0  0  0  0  0  0  0  0  0  0
   -2.4737    2.7949   -0.9488 C   0  0  0  0  0  0  0  0  0  0  0  0
   -2.4744    0.5262    2.8766 C   0  0  0  0  0  0  0  0  0  0  0  0
   -2.3953   -0.4412    3.8826 C   0  0  0  0  0  0  0  0  0  0  0  0
   -1.2603   -1.1672    4.0468 N   0  0  0  0  0  0  0  0  0  0  0  0
   -0.1714   -0.9901    3.2533 C   0  0  0  0  0  0  0  0  0  0  0  0
    0.9730   -1.7624    3.4685 C   0  0  0  0  0  0  0  0  0  0  0  0
   -3.6787    1.3095    2.7462 C   0  0  0  0  0  0  0  0  0  0  0  0
   -4.6448    1.9377    2.6400 N   0  0  0  0  0  0  0  0  0  0  0  0
    1.6350   -4.5289    3.1561 H   0  0  0  0  0  0  0  0  0  0  0  0
    3.1311   -4.9814    2.2504 H   0  0  0  0  0  0  0  0  0  0  0  0
    2.8987   -5.5394    3.9529 H   0  0  0  0  0  0  0  0  0  0  0  0
    3.0681   -3.1673    4.7669 H   0  0  0  0  0  0  0  0  0  0  0  0
    4.5162   -3.6722    3.8477 H   0  0  0  0  0  0  0  0  0  0  0  0
    4.1825   -0.6932    1.1874 H   0  0  0  0  0  0  0  0  0  0  0  0
    4.2996    0.3614   -2.4407 H   0  0  0  0  0  0  0  0  0  0  0  0
    5.4182    1.0131    0.3337 H   0  0  0  0  0  0  0  0  0  0  0  0
    6.1227    2.2669   -2.2182 H   0  0  0  0  0  0  0  0  0  0  0  0
    7.2415    2.0035   -0.8419 H   0  0  0  0  0  0  0  0  0  0  0  0
    8.4995   -1.2412   -1.9862 H   0  0  0  0  0  0  0  0  0  0  0  0
    8.8092    0.1619   -0.8856 H   0  0  0  0  0  0  0  0  0  0  0  0
    7.3711   -0.9104   -0.6429 H   0  0  0  0  0  0  0  0  0  0  0  0
    8.5974    0.2259   -3.9021 H   0  0  0  0  0  0  0  0  0  0  0  0
    8.8460    1.6923   -2.8671 H   0  0  0  0  0  0  0  0  0  0  0  0
    7.4736    1.6069   -4.0467 H   0  0  0  0  0  0  0  0  0  0  0  0
    0.9429    0.8722    0.6197 H   0  0  0  0  0  0  0  0  0  0  0  0
   -0.7532    2.5385    1.0671 H   0  0  0  0  0  0  0  0  0  0  0  0
   -2.8700   -0.4096    0.1417 H   0  0  0  0  0  0  0  0  0  0  0  0
   -4.3591   -0.4870   -1.7760 H   0  0  0  0  0  0  0  0  0  0  0  0
   -6.2151    0.7579   -4.8365 H   0  0  0  0  0  0  0  0  0  0  0  0
   -5.2039   -0.4277   -3.9571 H   0  0  0  0  0  0  0  0  0  0  0  0
   -7.5417    2.4384   -2.9989 H   0  0  0  0  0  0  0  0  0  0  0  0
   -9.3588    2.1533   -1.3374 H   0  0  0  0  0  0  0  0  0  0  0  0
   -9.7168   -0.0596   -0.2638 H   0  0  0  0  0  0  0  0  0  0  0  0
   -8.2434   -1.9661   -0.8783 H   0  0  0  0  0  0  0  0  0  0  0  0
   -1.9428    3.7103   -0.7185 H   0  0  0  0  0  0  0  0  0  0  0  0
   -3.2346   -0.6153    4.5445 H   0  0  0  0  0  0  0  0  0  0  0  0
    0.9644   -2.4801    4.2767 H   0  0  0  0  0  0  0  0  0  0  0  0
  1  2  1  0
  2  3  1  0
  3  4  1  0
  4  5  2  0
  5  6  1  0
  6  7  1  0
  7  8  2  0
  7  9  1  0
  9 10  2  0
 10 11  1  0
 11 12  1  0
 12 13  1  0
 12 14  1  0
  5 15  1  0
 15 16  2  0
 16 17  1  0
 17 18  1  0
 18 19  1  0
 19 20  2  0
 20 21  1  0
 21 22  2  0
 22 23  1  0
 23 24  1  0
 24 25  1  0
 25 26  2  0
 26 27  1  0
 27 28  2  0
 28 29  1  0
 29 30  2  0
 22 31  1  0
 31 32  1  0
 31 33  2  0
 17 34  2  0
 34 35  1  0
 35 36  2  0
 36 37  1  0
 37 38  2  0
 34 39  1  0
 39 40  3  0
 38  4  1  0
 37 16  1  0
 33 19  1  0
 30 25  1  0
  1 41  1  0
  1 42  1  0
  1 43  1  0
  2 44  1  0
  2 45  1  0
  6 46  1  0
  9 47  1  0
 10 48  1  0
 11 49  1  0
 11 50  1  0
 13 51  1  0
 13 52  1  0
 13 53  1  0
 14 54  1  0
 14 55  1  0
 14 56  1  0
 15 57  1  0
 18 58  1  0
 20 59  1  0
 21 60  1  0
 24 61  1  0
 24 62  1  0
 26 63  1  0
 27 64  1  0
 28 65  1  0
 29 66  1  0
 33 67  1  0
 35 68  1  0
 38 69  1  0
M  END
$$$$
