
     RDKit          3D

 48 50  0  0  0  0  0  0  0  0999 V2000
   -2.6964   -2.7402    0.0355 C   0  0  0  0  0  0  0  0  0  0  0  0
   -2.4708   -1.3768   -0.6116 C   0  0  0  0  0  0  0  0  0  0  0  0
   -1.0508   -1.2651   -1.1799 C   0  0  0  0  0  0  0  0  0  0  0  0
   -0.8276    0.0333   -1.9717 C   0  0  0  0  0  0  0  0  0  0  0  0
   -0.7507    1.1996   -1.0864 N   0  0  0  0  0  0  0  0  0  0  0  0
    0.3433    1.7736   -0.5043 C   0  0  0  0  0  0  0  0  0  0  0  0
    1.7657    1.3337   -0.7229 C   0  0  0  0  0  0  0  0  0  0  0  0
    2.0540    0.0153   -0.0478 C   0  0  0  0  0  0  0  0  0  0  0  0
    1.9937   -0.1037    1.3565 C   0  0  0  0  0  0  0  0  0  0  0  0
    1.6822    1.0315    2.1229 O   0  0  0  0  0  0  0  0  0  0  0  0
    1.5495    1.0401    3.5402 C   0  0  0  0  0  0  0  0  0  0  0  0
    2.2450   -1.3536    1.9526 C   0  0  0  0  0  0  0  0  0  0  0  0
    2.5548   -2.4641    1.1660 C   0  0  0  0  0  0  0  0  0  0  0  0
    2.6269   -2.3539   -0.2243 C   0  0  0  0  0  0  0  0  0  0  0  0
    2.9331   -3.5033   -0.9680 O   0  0  0  0  0  0  0  0  0  0  0  0
    3.0006   -3.5472   -2.3896 C   0  0  0  0  0  0  0  0  0  0  0  0
    2.3868   -1.1065   -0.8277 C   0  0  0  0  0  0  0  0  0  0  0  0
    0.0372    2.8452    0.2802 N   0  0  0  0  0  0  0  0  0  0  0  0
   -1.3003    2.9258    0.1678 C   0  0  0  0  0  0  0  0  0  0  0  0
   -2.1803    3.8380    0.7385 C   0  0  0  0  0  0  0  0  0  0  0  0
   -1.7283    4.8773    1.6066 N   0  0  0  0  0  0  0  0  0  0  0  0
   -3.5074    3.7102    0.4383 N   0  0  0  0  0  0  0  0  0  0  0  0
   -3.9588    2.7207   -0.3980 C   0  0  0  0  0  0  0  0  0  0  0  0
   -5.2809    2.6258   -0.6759 F   0  0  0  0  0  0  0  0  0  0  0  0
   -3.0827    1.8305   -0.9541 N   0  0  0  0  0  0  0  0  0  0  0  0
   -1.7680    1.9545   -0.6481 C   0  0  0  0  0  0  0  0  0  0  0  0
   -2.5797   -3.5491   -0.7170 H   0  0  0  0  0  0  0  0  0  0  0  0
   -3.7248   -2.7886    0.4516 H   0  0  0  0  0  0  0  0  0  0  0  0
   -1.9706   -2.8998    0.8614 H   0  0  0  0  0  0  0  0  0  0  0  0
   -3.2175   -1.2357   -1.4230 H   0  0  0  0  0  0  0  0  0  0  0  0
   -2.6286   -0.5953    0.1610 H   0  0  0  0  0  0  0  0  0  0  0  0
   -0.3244   -1.3312   -0.3449 H   0  0  0  0  0  0  0  0  0  0  0  0
   -0.8637   -2.1220   -1.8637 H   0  0  0  0  0  0  0  0  0  0  0  0
   -1.6449    0.1733   -2.7123 H   0  0  0  0  0  0  0  0  0  0  0  0
    0.1133   -0.0557   -2.5535 H   0  0  0  0  0  0  0  0  0  0  0  0
    2.4567    2.1015   -0.3128 H   0  0  0  0  0  0  0  0  0  0  0  0
    1.9643    1.2847   -1.8147 H   0  0  0  0  0  0  0  0  0  0  0  0
    1.2856    2.0649    3.8723 H   0  0  0  0  0  0  0  0  0  0  0  0
    2.5097    0.7483    4.0155 H   0  0  0  0  0  0  0  0  0  0  0  0
    0.7404    0.3463    3.8517 H   0  0  0  0  0  0  0  0  0  0  0  0
    2.2021   -1.4791    3.0257 H   0  0  0  0  0  0  0  0  0  0  0  0
    2.7398   -3.4193    1.6410 H   0  0  0  0  0  0  0  0  0  0  0  0
    2.0199   -3.2632   -2.8270 H   0  0  0  0  0  0  0  0  0  0  0  0
    3.7954   -2.8634   -2.7555 H   0  0  0  0  0  0  0  0  0  0  0  0
    3.2465   -4.5805   -2.7091 H   0  0  0  0  0  0  0  0  0  0  0  0
    2.4382   -1.0058   -1.9033 H   0  0  0  0  0  0  0  0  0  0  0  0
   -2.4117    5.5496    2.0199 H   0  0  0  0  0  0  0  0  0  0  0  0
   -0.7159    4.9792    1.8418 H   0  0  0  0  0  0  0  0  0  0  0  0
  1  2  1  0
  2  3  1  0
  3  4  1  0
  4  5  1  0
  5  6  1  0
  6  7  1  0
  7  8  1  0
  8  9  2  0
  9 10  1  0
 10 11  1  0
  9 12  1  0
 12 13  2  0
 13 14  1  0
 14 15  1  0
 15 16  1  0
 14 17  2  0
  6 18  2  0
 18 19  1  0
 19 20  2  0
 20 21  1  0
 20 22  1  0
 22 23  2  0
 23 24  1  0
 23 25  1  0
 25 26  2  0
 26  5  1  0
 17  8  1  0
 26 19  1  0
  1 27  1  0
  1 28  1  0
  1 29  1  0
  2 30  1  0
  2 31  1  0
  3 32  1  0
  3 33  1  0
  4 34  1  0
  4 35  1  0
  7 36  1  0
  7 37  1  0
 11 38  1  0
 11 39  1  0
 11 40  1  0
 12 41  1  0
 13 42  1  0
 16 43  1  0
 16 44  1  0
 16 45  1  0
 17 46  1  0
 21 47  1  0
 21 48  1  0
M  END
$$$$
