
     RDKit          3D

 52 55  0  0  0  0  0  0  0  0999 V2000
   -5.4763   -3.8359   -0.9799 C   0  0  0  0  0  0  0  0  0  0  0  0
   -6.1140   -2.6075   -0.3397 C   0  0  0  0  0  0  0  0  0  0  0  0
   -5.4485   -1.4154   -0.7576 O   0  0  0  0  0  0  0  0  0  0  0  0
   -4.1941   -0.9709   -0.3034 C   0  0  0  0  0  0  0  0  0  0  0  0
   -3.6367    0.1633   -0.9143 C   0  0  0  0  0  0  0  0  0  0  0  0
   -4.3642    0.7759   -1.9505 O   0  0  0  0  0  0  0  0  0  0  0  0
   -4.0188    1.9946   -2.6097 C   0  0  0  0  0  0  0  0  0  0  0  0
   -4.3047    3.1955   -1.7141 C   0  0  0  0  0  0  0  0  0  0  0  0
   -2.3809    0.6416   -0.4893 C   0  0  0  0  0  0  0  0  0  0  0  0
   -1.6899    0.0053    0.5575 C   0  0  0  0  0  0  0  0  0  0  0  0
   -0.4316    0.4452    1.0255 C   0  0  0  0  0  0  0  0  0  0  0  0
    0.1849    1.6408    0.5167 N   0  0  0  0  0  0  0  0  0  0  0  0
    1.6097    1.8208    0.4331 C   0  0  0  0  0  0  0  0  0  0  0  0
    2.1451    3.1136    0.5052 C   0  0  0  0  0  0  0  0  0  0  0  0
    3.5230    3.3123    0.4168 C   0  0  0  0  0  0  0  0  0  0  0  0
    4.3801    2.2246    0.2402 C   0  0  0  0  0  0  0  0  0  0  0  0
    3.8677    0.9184    0.1361 C   0  0  0  0  0  0  0  0  0  0  0  0
    2.4742    0.7282    0.2324 C   0  0  0  0  0  0  0  0  0  0  0  0
    4.7980   -0.2246   -0.0637 C   0  0  0  0  0  0  0  0  0  0  0  0
    4.4024   -1.5078   -0.4578 C   0  0  0  0  0  0  0  0  0  0  0  0
    5.7787   -2.4663   -0.5787 S   0  0  0  0  0  0  0  0  0  0  0  0
    6.8147   -1.2310   -0.1132 C   0  0  0  0  0  0  0  0  0  0  0  0
    8.3035   -1.3402   -0.0552 C   0  0  0  0  0  0  0  0  0  0  0  0
    8.8525   -1.1000   -1.3214 O   0  0  0  0  0  0  0  0  0  0  0  0
    6.1423   -0.0830    0.1132 N   0  0  0  0  0  0  0  0  0  0  0  0
    0.1857   -0.2484    2.0211 N   0  0  0  0  0  0  0  0  0  0  0  0
   -0.3744   -1.3533    2.5734 C   0  0  0  0  0  0  0  0  0  0  0  0
   -1.5851   -1.7886    2.1455 N   0  0  0  0  0  0  0  0  0  0  0  0
   -2.2534   -1.1401    1.1571 C   0  0  0  0  0  0  0  0  0  0  0  0
   -3.4958   -1.6177    0.7335 C   0  0  0  0  0  0  0  0  0  0  0  0
   -4.4199   -3.9438   -0.6593 H   0  0  0  0  0  0  0  0  0  0  0  0
   -5.5100   -3.7450   -2.0861 H   0  0  0  0  0  0  0  0  0  0  0  0
   -6.0350   -4.7464   -0.6772 H   0  0  0  0  0  0  0  0  0  0  0  0
   -7.1715   -2.5501   -0.6733 H   0  0  0  0  0  0  0  0  0  0  0  0
   -6.1219   -2.6917    0.7675 H   0  0  0  0  0  0  0  0  0  0  0  0
   -2.9581    1.9831   -2.9381 H   0  0  0  0  0  0  0  0  0  0  0  0
   -4.6443    2.0845   -3.5226 H   0  0  0  0  0  0  0  0  0  0  0  0
   -5.3766    3.2029   -1.4239 H   0  0  0  0  0  0  0  0  0  0  0  0
   -4.0748    4.1328   -2.2632 H   0  0  0  0  0  0  0  0  0  0  0  0
   -3.6831    3.1603   -0.7961 H   0  0  0  0  0  0  0  0  0  0  0  0
   -1.9391    1.4907   -0.9851 H   0  0  0  0  0  0  0  0  0  0  0  0
   -0.4237    2.4678    0.3240 H   0  0  0  0  0  0  0  0  0  0  0  0
    1.4935    3.9674    0.6423 H   0  0  0  0  0  0  0  0  0  0  0  0
    3.9287    4.3136    0.4841 H   0  0  0  0  0  0  0  0  0  0  0  0
    5.4447    2.4098    0.1709 H   0  0  0  0  0  0  0  0  0  0  0  0
    2.0535   -0.2625    0.1489 H   0  0  0  0  0  0  0  0  0  0  0  0
    3.3998   -1.8429   -0.6812 H   0  0  0  0  0  0  0  0  0  0  0  0
    8.7114   -0.6219    0.6914 H   0  0  0  0  0  0  0  0  0  0  0  0
    8.5837   -2.3640    0.2697 H   0  0  0  0  0  0  0  0  0  0  0  0
    8.8121   -0.1184   -1.4669 H   0  0  0  0  0  0  0  0  0  0  0  0
    0.1421   -1.8835    3.3615 H   0  0  0  0  0  0  0  0  0  0  0  0
   -3.9053   -2.4920    1.2197 H   0  0  0  0  0  0  0  0  0  0  0  0
  1  2  1  0
  2  3  1  0
  3  4  1  0
  4  5  2  0
  5  6  1  0
  6  7  1  0
  7  8  1  0
  5  9  1  0
  9 10  2  0
 10 11  1  0
 11 12  1  0
 12 13  1  0
 13 14  2  0
 14 15  1  0
 15 16  2  0
 16 17  1  0
 17 18  2  0
 17 19  1  0
 19 20  2  0
 20 21  1  0
 21 22  1  0
 22 23  1  0
 23 24  1  0
 22 25  2  0
 11 26  2  0
 26 27  1  0
 27 28  2  0
 28 29  1  0
 29 30  2  0
 30  4  1  0
 29 10  1  0
 18 13  1  0
 25 19  1  0
  1 31  1  0
  1 32  1  0
  1 33  1  0
  2 34  1  0
  2 35  1  0
  7 36  1  0
  7 37  1  0
  8 38  1  0
  8 39  1  0
  8 40  1  0
  9 41  1  0
 12 42  1  0
 14 43  1  0
 15 44  1  0
 16 45  1  0
 18 46  1  0
 20 47  1  0
 23 48  1  0
 23 49  1  0
 24 50  1  0
 27 51  1  0
 30 52  1  0
M  END
$$$$
