
     RDKit          3D

 28 30  0  0  0  0  0  0  0  0999 V2000
    5.7414    0.7863   -1.2834 O   0  0  0  0  0  0  0  0  0  0  0  0
    4.3852    0.6194   -1.0124 C   0  0  0  0  0  0  0  0  0  0  0  0
    3.4143    1.1587   -1.8653 C   0  0  0  0  0  0  0  0  0  0  0  0
    2.0555    0.9855   -1.5841 C   0  0  0  0  0  0  0  0  0  0  0  0
    1.6497    0.2682   -0.4425 C   0  0  0  0  0  0  0  0  0  0  0  0
    2.6329   -0.2691    0.4072 C   0  0  0  0  0  0  0  0  0  0  0  0
    3.9904   -0.0937    0.1226 C   0  0  0  0  0  0  0  0  0  0  0  0
    0.2173    0.0694   -0.1205 C   0  0  0  0  0  0  0  0  0  0  0  0
   -0.8764    0.5348   -0.8558 C   0  0  0  0  0  0  0  0  0  0  0  0
   -1.9745    0.0960   -0.1539 C   0  0  0  0  0  0  0  0  0  0  0  0
   -1.5100   -0.5900    0.9346 C   0  0  0  0  0  0  0  0  0  0  0  0
   -0.1994   -0.5985    0.9427 O   0  0  0  0  0  0  0  0  0  0  0  0
   -2.3786   -1.1698    1.8596 C   0  0  0  0  0  0  0  0  0  0  0  0
   -3.7636   -1.0281    1.6401 C   0  0  0  0  0  0  0  0  0  0  0  0
   -4.2431   -0.3186    0.5144 C   0  0  0  0  0  0  0  0  0  0  0  0
   -5.6163   -0.1924    0.3194 O   0  0  0  0  0  0  0  0  0  0  0  0
   -3.3358    0.2551   -0.4011 C   0  0  0  0  0  0  0  0  0  0  0  0
   -1.8783   -1.8893    3.0012 C   0  0  0  0  0  0  0  0  0  0  0  0
   -1.4757   -2.4678    3.9191 N   0  0  0  0  0  0  0  0  0  0  0  0
    6.0594    1.2981   -2.0981 H   0  0  0  0  0  0  0  0  0  0  0  0
    3.7113    1.7126   -2.7468 H   0  0  0  0  0  0  0  0  0  0  0  0
    1.3316    1.4143   -2.2626 H   0  0  0  0  0  0  0  0  0  0  0  0
    2.3528   -0.8258    1.2930 H   0  0  0  0  0  0  0  0  0  0  0  0
    4.7367   -0.5129    0.7856 H   0  0  0  0  0  0  0  0  0  0  0  0
   -0.8802    1.1106   -1.7710 H   0  0  0  0  0  0  0  0  0  0  0  0
   -4.4703   -1.4641    2.3360 H   0  0  0  0  0  0  0  0  0  0  0  0
   -5.9935    0.3091   -0.4763 H   0  0  0  0  0  0  0  0  0  0  0  0
   -3.6830    0.8018   -1.2687 H   0  0  0  0  0  0  0  0  0  0  0  0
  1  2  1  0
  2  3  2  0
  3  4  1  0
  4  5  2  0
  5  6  1  0
  6  7  2  0
  5  8  1  0
  8  9  2  0
  9 10  1  0
 10 11  2  0
 11 12  1  0
 11 13  1  0
 13 14  2  0
 14 15  1  0
 15 16  1  0
 15 17  2  0
 13 18  1  0
 18 19  3  0
  7  2  1  0
 12  8  1  0
 17 10  1  0
  1 20  1  0
  3 21  1  0
  4 22  1  0
  6 23  1  0
  7 24  1  0
  9 25  1  0
 14 26  1  0
 16 27  1  0
 17 28  1  0
M  END
$$$$
