
     RDKit          3D

 48 49  0  0  0  0  0  0  0  0999 V2000
   -0.2272   -1.0846   -1.7367 C   0  0  0  0  0  0  0  0  0  0  0  0
    0.6664   -0.1076   -1.9395 C   0  0  0  0  0  0  0  0  0  0  0  0
    1.7473    0.2055   -0.9815 C   0  0  0  0  0  0  0  0  0  0  0  0
    2.9941   -0.3855   -1.2279 C   0  0  0  0  0  0  0  0  0  0  0  0
    4.0827   -0.1525   -0.3904 C   0  0  0  0  0  0  0  0  0  0  0  0
    5.3008   -0.7806   -0.6916 O   0  0  0  0  0  0  0  0  0  0  0  0
    6.4927   -0.6361    0.0739 C   0  0  0  0  0  0  0  0  0  0  0  0
    3.9248    0.6929    0.7158 C   0  0  0  0  0  0  0  0  0  0  0  0
    2.6924    1.3043    0.9814 C   0  0  0  0  0  0  0  0  0  0  0  0
    2.5809    2.1281    2.1027 O   0  0  0  0  0  0  0  0  0  0  0  0
    1.5792    1.0810    0.1305 C   0  0  0  0  0  0  0  0  0  0  0  0
    0.2738    1.7567    0.4160 C   0  0  0  0  0  0  0  0  0  0  0  0
    0.2100    2.6779    1.2751 O   0  0  0  0  0  0  0  0  0  0  0  0
   -0.8899    1.3622   -0.2570 O   0  0  0  0  0  0  0  0  0  0  0  0
   -2.2056    1.8754   -0.0280 C   0  0  2  0  0  0  0  0  0  0  0  0
   -2.2962    3.3551   -0.4197 C   0  0  0  0  0  0  0  0  0  0  0  0
   -2.6730    1.6158    1.4292 C   0  0  0  0  0  0  0  0  0  0  0  0
   -3.9843    0.8742    1.4588 C   0  0  0  0  0  0  0  0  0  0  0  0
   -4.1035   -0.4357    1.2035 C   0  0  0  0  0  0  0  0  0  0  0  0
   -2.9534   -1.3419    1.0362 C   0  0  0  0  0  0  0  0  0  0  0  0
   -2.1413   -1.4826    1.9908 O   0  0  0  0  0  0  0  0  0  0  0  0
   -2.8444   -2.1961   -0.2044 C   0  0  1  0  0  0  0  0  0  0  0  0
   -3.1615   -1.4167   -1.3292 O   0  0  0  0  0  0  0  0  0  0  0  0
   -1.4587   -2.8798   -0.3788 C   0  0  1  0  0  0  0  0  0  0  0  0
   -1.4925   -3.7149   -1.5087 O   0  0  0  0  0  0  0  0  0  0  0  0
   -0.2588   -1.9039   -0.4709 C   0  0  0  0  0  0  0  0  0  0  0  0
   -0.9472   -1.2801   -2.5204 H   0  0  0  0  0  0  0  0  0  0  0  0
    0.6459    0.4330   -2.8774 H   0  0  0  0  0  0  0  0  0  0  0  0
    3.1215   -1.0426   -2.0807 H   0  0  0  0  0  0  0  0  0  0  0  0
    6.3278   -1.0006    1.1098 H   0  0  0  0  0  0  0  0  0  0  0  0
    6.8107    0.4279    0.0884 H   0  0  0  0  0  0  0  0  0  0  0  0
    7.2978   -1.2409   -0.3913 H   0  0  0  0  0  0  0  0  0  0  0  0
    4.7556    0.8832    1.3816 H   0  0  0  0  0  0  0  0  0  0  0  0
    3.3638    2.2970    2.7237 H   0  0  0  0  0  0  0  0  0  0  0  0
   -2.8716    1.3328   -0.7350 H   0  0  0  0  0  0  0  0  0  0  0  0
   -1.7006    3.9932    0.2648 H   0  0  0  0  0  0  0  0  0  0  0  0
   -1.9202    3.4933   -1.4555 H   0  0  0  0  0  0  0  0  0  0  0  0
   -3.3548    3.6900   -0.3816 H   0  0  0  0  0  0  0  0  0  0  0  0
   -2.8064    2.5769    1.9719 H   0  0  0  0  0  0  0  0  0  0  0  0
   -1.9089    1.0506    2.0021 H   0  0  0  0  0  0  0  0  0  0  0  0
   -4.8879    1.4545    1.6003 H   0  0  0  0  0  0  0  0  0  0  0  0
   -5.0963   -0.8537    1.0946 H   0  0  0  0  0  0  0  0  0  0  0  0
   -3.6054   -3.0038   -0.0914 H   0  0  0  0  0  0  0  0  0  0  0  0
   -3.4776   -2.0389   -2.0354 H   0  0  0  0  0  0  0  0  0  0  0  0
   -1.2989   -3.5161    0.5237 H   0  0  0  0  0  0  0  0  0  0  0  0
   -0.7271   -4.3424   -1.4282 H   0  0  0  0  0  0  0  0  0  0  0  0
   -0.2552   -1.2271    0.4064 H   0  0  0  0  0  0  0  0  0  0  0  0
    0.6801   -2.4970   -0.4200 H   0  0  0  0  0  0  0  0  0  0  0  0
  1  2  2  0
  2  3  1  0
  3  4  2  0
  4  5  1  0
  5  6  1  0
  6  7  1  0
  5  8  2  0
  8  9  1  0
  9 10  1  0
  9 11  2  0
 11 12  1  0
 12 13  2  0
 12 14  1  0
 14 15  1  0
 15 16  1  0
 15 17  1  0
 17 18  1  0
 18 19  2  0
 19 20  1  0
 20 21  2  0
 20 22  1  0
 22 23  1  0
 22 24  1  0
 24 25  1  0
 24 26  1  0
 26  1  1  0
 11  3  1  0
  1 27  1  0
  2 28  1  0
  4 29  1  0
  7 30  1  0
  7 31  1  0
  7 32  1  0
  8 33  1  0
 10 34  1  0
 15 35  1  6
 16 36  1  0
 16 37  1  0
 16 38  1  0
 17 39  1  0
 17 40  1  0
 18 41  1  0
 19 42  1  0
 22 43  1  1
 23 44  1  0
 24 45  1  1
 25 46  1  0
 26 47  1  0
 26 48  1  0
M  END
$$$$
