
     RDKit          3D

 42 44  0  0  0  0  0  0  0  0999 V2000
   -3.7087   -0.6287   -0.3880 C   0  0  2  0  0  0  0  0  0  0  0  0
   -4.1918   -0.2840    1.0415 C   0  0  0  0  0  0  0  0  0  0  0  0
   -3.5773   -1.1661    2.1310 C   0  0  0  0  0  0  0  0  0  0  0  0
   -4.1643   -2.0310   -0.8421 C   0  0  0  0  0  0  0  0  0  0  0  0
   -5.5598   -2.1551   -0.7768 O   0  0  0  0  0  0  0  0  0  0  0  0
   -2.2463   -0.5164   -0.4850 N   0  0  0  0  0  0  0  0  0  0  0  0
   -1.5131    0.7215   -0.4626 C   0  0  0  0  0  0  0  0  0  0  0  0
   -0.1519    0.6758   -0.3677 N   0  0  0  0  0  0  0  0  0  0  0  0
    0.5465    1.8087   -0.3402 N   0  0  0  0  0  0  0  0  0  0  0  0
   -0.0063    3.0226   -0.4364 C   0  0  0  0  0  0  0  0  0  0  0  0
   -1.3831    3.1595   -0.5429 C   0  0  0  0  0  0  0  0  0  0  0  0
   -2.1505    1.9857   -0.5540 C   0  0  0  0  0  0  0  0  0  0  0  0
    0.9017    4.0192   -0.4458 N   0  0  0  0  0  0  0  0  0  0  0  0
    2.0878    3.3656   -0.3524 C   0  0  0  0  0  0  0  0  0  0  0  0
    1.8748    1.9928   -0.2831 C   0  0  0  0  0  0  0  0  0  0  0  0
    2.9085    0.9349   -0.1874 C   0  0  0  0  0  0  0  0  0  0  0  0
    4.1782    1.1377   -0.7526 C   0  0  0  0  0  0  0  0  0  0  0  0
    5.1614    0.1480   -0.6654 C   0  0  0  0  0  0  0  0  0  0  0  0
    4.8974   -1.0632   -0.0035 C   0  0  0  0  0  0  0  0  0  0  0  0
    3.6317   -1.2613    0.5723 C   0  0  0  0  0  0  0  0  0  0  0  0
    2.6483   -0.2717    0.4836 C   0  0  0  0  0  0  0  0  0  0  0  0
    5.9348   -2.1139    0.0920 C   0  0  0  0  0  0  0  0  0  0  0  0
    5.6635   -3.3104    0.7508 O   0  0  0  0  0  0  0  0  0  0  0  0
    7.0726   -1.9366   -0.4216 O   0  0  0  0  0  0  0  0  0  0  0  0
   -4.1721    0.0898   -1.0977 H   0  0  0  0  0  0  0  0  0  0  0  0
   -3.9391    0.7726    1.2696 H   0  0  0  0  0  0  0  0  0  0  0  0
   -5.2990   -0.3641    1.0937 H   0  0  0  0  0  0  0  0  0  0  0  0
   -2.4685   -1.1285    2.0911 H   0  0  0  0  0  0  0  0  0  0  0  0
   -3.9181   -2.2166    2.0276 H   0  0  0  0  0  0  0  0  0  0  0  0
   -3.9021   -0.7979    3.1270 H   0  0  0  0  0  0  0  0  0  0  0  0
   -3.7046   -2.8154   -0.2058 H   0  0  0  0  0  0  0  0  0  0  0  0
   -3.8172   -2.2156   -1.8846 H   0  0  0  0  0  0  0  0  0  0  0  0
   -5.9275   -1.6346   -1.5381 H   0  0  0  0  0  0  0  0  0  0  0  0
   -1.6826   -1.3958   -0.5395 H   0  0  0  0  0  0  0  0  0  0  0  0
   -1.8473    4.1339   -0.6250 H   0  0  0  0  0  0  0  0  0  0  0  0
   -3.2227    2.0753   -0.6456 H   0  0  0  0  0  0  0  0  0  0  0  0
    3.0473    3.8647   -0.3274 H   0  0  0  0  0  0  0  0  0  0  0  0
    4.4077    2.0563   -1.2777 H   0  0  0  0  0  0  0  0  0  0  0  0
    6.1279    0.3318   -1.1180 H   0  0  0  0  0  0  0  0  0  0  0  0
    3.4011   -2.1790    1.0985 H   0  0  0  0  0  0  0  0  0  0  0  0
    1.6962   -0.4453    0.9662 H   0  0  0  0  0  0  0  0  0  0  0  0
    6.3665   -4.0363    0.8218 H   0  0  0  0  0  0  0  0  0  0  0  0
  1  2  1  0
  2  3  1  0
  1  4  1  0
  4  5  1  0
  1  6  1  0
  6  7  1  0
  7  8  2  0
  8  9  1  0
  9 10  1  0
 10 11  1  0
 11 12  2  0
 10 13  2  0
 13 14  1  0
 14 15  2  0
 15 16  1  0
 16 17  2  0
 17 18  1  0
 18 19  2  0
 19 20  1  0
 20 21  2  0
 19 22  1  0
 22 23  1  0
 22 24  2  0
 12  7  1  0
 21 16  1  0
 15  9  1  0
  1 25  1  6
  2 26  1  0
  2 27  1  0
  3 28  1  0
  3 29  1  0
  3 30  1  0
  4 31  1  0
  4 32  1  0
  5 33  1  0
  6 34  1  0
 11 35  1  0
 12 36  1  0
 14 37  1  0
 17 38  1  0
 18 39  1  0
 20 40  1  0
 21 41  1  0
 23 42  1  0
M  END
$$$$
