
     RDKit          3D

 71 73  0  0  0  0  0  0  0  0999 V2000
   -0.0498   -4.9092    1.5766 C   0  0  0  0  0  0  0  0  0  0  0  0
   -0.9157   -3.8758    0.8479 C   0  0  2  0  0  0  0  0  0  0  0  0
   -0.4453   -3.7057   -0.6034 C   0  0  0  0  0  0  0  0  0  0  0  0
   -1.3189   -2.6907   -1.3405 C   0  0  0  0  0  0  0  0  0  0  0  0
   -1.3949   -1.4209   -0.5993 N   0  0  0  0  0  0  0  0  0  0  0  0
   -1.6832   -1.4344    0.8504 C   0  0  2  0  0  0  0  0  0  0  0  0
   -0.8669   -2.5215    1.5757 C   0  0  0  0  0  0  0  0  0  0  0  0
   -3.1604   -1.5785    1.1083 C   0  0  0  0  0  0  0  0  0  0  0  0
   -3.7631   -0.7983    2.0903 O   0  0  0  0  0  0  0  0  0  0  0  0
   -3.8504   -2.4162    0.4681 O   0  0  0  0  0  0  0  0  0  0  0  0
   -1.5232   -0.1980   -1.3544 C   0  0  0  0  0  0  0  0  0  0  0  0
   -2.0892   -0.2207   -2.4822 O   0  0  0  0  0  0  0  0  0  0  0  0
   -0.9310    1.1014   -0.8555 C   0  0  2  0  0  0  0  0  0  0  0  0
   -2.0252    2.0293   -0.2782 C   0  0  0  0  0  0  0  0  0  0  0  0
   -3.0400    2.5254   -1.3259 C   0  0  0  0  0  0  0  0  0  0  0  0
   -4.0069    3.5598   -0.7347 C   0  0  0  0  0  0  0  0  0  0  0  0
   -3.3388    4.8378   -0.4779 N   0  0  0  0  0  0  0  0  0  0  0  0
   -4.0261    5.9457    0.1192 C   0  0  0  0  0  0  0  0  0  0  0  0
   -3.3280    7.1728    0.3457 N   0  0  0  0  0  0  0  0  0  0  0  0
   -5.2740    5.8378    0.4530 N   0  0  0  0  0  0  0  0  0  0  0  0
   -0.1789    1.7714   -1.9333 N   0  0  0  0  0  0  0  0  0  0  0  0
    1.3603    0.9944   -2.2089 S   0  0  0  0  0  6  0  0  0  0  0  0
    2.0830    1.7254   -3.3045 O   0  0  0  0  0  0  0  0  0  0  0  0
    1.0939   -0.4157   -2.6573 O   0  0  0  0  0  0  0  0  0  0  0  0
    2.3854    0.9941   -0.7547 C   0  0  0  0  0  0  0  0  0  0  0  0
    2.2070    2.0091    0.2005 C   0  0  0  0  0  0  0  0  0  0  0  0
    2.9131    1.9909    1.4019 C   0  0  0  0  0  0  0  0  0  0  0  0
    3.8077    0.9593    1.6723 C   0  0  0  0  0  0  0  0  0  0  0  0
    4.0252   -0.0516    0.7281 C   0  0  0  0  0  0  0  0  0  0  0  0
    3.3586   -0.0110   -0.5174 C   0  0  0  0  0  0  0  0  0  0  0  0
    3.6866   -0.9943   -1.5196 N   0  0  0  0  0  0  0  0  0  0  0  0
    4.6326   -2.0840   -1.2735 C   0  0  0  0  0  0  0  0  0  0  0  0
    4.7386   -2.4191    0.2232 C   0  0  0  0  0  0  0  0  0  0  0  0
    3.4772   -3.1340    0.7325 C   0  0  0  0  0  0  0  0  0  0  0  0
    5.0283   -1.1382    1.0242 C   0  0  0  0  0  0  0  0  0  0  0  0
   -0.1070   -5.8899    1.0580 H   0  0  0  0  0  0  0  0  0  0  0  0
   -0.4140   -5.0464    2.6171 H   0  0  0  0  0  0  0  0  0  0  0  0
    1.0113   -4.5829    1.6094 H   0  0  0  0  0  0  0  0  0  0  0  0
   -1.9618   -4.2540    0.8476 H   0  0  0  0  0  0  0  0  0  0  0  0
    0.6115   -3.3599   -0.6263 H   0  0  0  0  0  0  0  0  0  0  0  0
   -0.5005   -4.6806   -1.1351 H   0  0  0  0  0  0  0  0  0  0  0  0
   -2.3393   -3.1037   -1.4865 H   0  0  0  0  0  0  0  0  0  0  0  0
   -0.8755   -2.5260   -2.3472 H   0  0  0  0  0  0  0  0  0  0  0  0
   -1.3734   -0.4735    1.3080 H   0  0  0  0  0  0  0  0  0  0  0  0
   -1.2386   -2.6375    2.6181 H   0  0  0  0  0  0  0  0  0  0  0  0
    0.1908   -2.1804    1.6397 H   0  0  0  0  0  0  0  0  0  0  0  0
   -4.7529   -0.8844    2.2877 H   0  0  0  0  0  0  0  0  0  0  0  0
   -0.2394    0.8763   -0.0185 H   0  0  0  0  0  0  0  0  0  0  0  0
   -2.5728    1.4960    0.5287 H   0  0  0  0  0  0  0  0  0  0  0  0
   -1.5236    2.9001    0.1967 H   0  0  0  0  0  0  0  0  0  0  0  0
   -2.5187    2.9698   -2.2009 H   0  0  0  0  0  0  0  0  0  0  0  0
   -3.6422    1.6648   -1.6863 H   0  0  0  0  0  0  0  0  0  0  0  0
   -4.8359    3.7266   -1.4560 H   0  0  0  0  0  0  0  0  0  0  0  0
   -4.4436    3.1673    0.2097 H   0  0  0  0  0  0  0  0  0  0  0  0
   -2.3367    4.9662   -0.7465 H   0  0  0  0  0  0  0  0  0  0  0  0
   -2.3227    7.2658    0.0801 H   0  0  0  0  0  0  0  0  0  0  0  0
   -3.8095    7.9921    0.7790 H   0  0  0  0  0  0  0  0  0  0  0  0
   -5.7966    6.6298    0.8893 H   0  0  0  0  0  0  0  0  0  0  0  0
    0.0198    2.7627   -1.6683 H   0  0  0  0  0  0  0  0  0  0  0  0
    1.5072    2.8141    0.0307 H   0  0  0  0  0  0  0  0  0  0  0  0
    2.7561    2.7742    2.1323 H   0  0  0  0  0  0  0  0  0  0  0  0
    4.3398    0.9530    2.6157 H   0  0  0  0  0  0  0  0  0  0  0  0
    3.4739   -0.7987   -2.5214 H   0  0  0  0  0  0  0  0  0  0  0  0
    4.3176   -2.9834   -1.8456 H   0  0  0  0  0  0  0  0  0  0  0  0
    5.6328   -1.7791   -1.6509 H   0  0  0  0  0  0  0  0  0  0  0  0
    5.5953   -3.1153    0.3616 H   0  0  0  0  0  0  0  0  0  0  0  0
    3.5986   -3.4051    1.8027 H   0  0  0  0  0  0  0  0  0  0  0  0
    3.3088   -4.0691    0.1571 H   0  0  0  0  0  0  0  0  0  0  0  0
    2.5802   -2.4883    0.6309 H   0  0  0  0  0  0  0  0  0  0  0  0
    6.0407   -0.7623    0.7604 H   0  0  0  0  0  0  0  0  0  0  0  0
    5.0325   -1.3754    2.1110 H   0  0  0  0  0  0  0  0  0  0  0  0
  1  2  1  0
  2  3  1  0
  3  4  1  0
  4  5  1  0
  5  6  1  0
  6  7  1  0
  6  8  1  0
  8  9  1  0
  8 10  2  0
  5 11  1  0
 11 12  2  0
 11 13  1  0
 13 14  1  0
 14 15  1  0
 15 16  1  0
 16 17  1  0
 17 18  1  0
 18 19  1  0
 18 20  2  3
 13 21  1  0
 21 22  1  0
 22 23  2  0
 22 24  2  0
 22 25  1  0
 25 26  2  0
 26 27  1  0
 27 28  2  0
 28 29  1  0
 29 30  2  0
 30 31  1  0
 31 32  1  0
 32 33  1  0
 33 34  1  0
 33 35  1  0
  7  2  1  0
 30 25  1  0
 35 29  1  0
  1 36  1  0
  1 37  1  0
  1 38  1  0
  2 39  1  6
  3 40  1  0
  3 41  1  0
  4 42  1  0
  4 43  1  0
  6 44  1  1
  7 45  1  0
  7 46  1  0
  9 47  1  0
 13 48  1  1
 14 49  1  0
 14 50  1  0
 15 51  1  0
 15 52  1  0
 16 53  1  0
 16 54  1  0
 17 55  1  0
 19 56  1  0
 19 57  1  0
 20 58  1  0
 21 59  1  0
 26 60  1  0
 27 61  1  0
 28 62  1  0
 31 63  1  0
 32 64  1  0
 32 65  1  0
 33 66  1  0
 34 67  1  0
 34 68  1  0
 34 69  1  0
 35 70  1  0
 35 71  1  0
M  END
$$$$
