
     RDKit          3D

 51 52  0  0  0  0  0  0  0  0999 V2000
   -2.7567   -0.2764    0.4562 C   0  0  2  0  0  0  0  0  0  0  0  0
   -3.3773    1.1405    0.4368 C   0  0  0  0  0  0  0  0  0  0  0  0
   -2.3856    2.3314    0.5000 C   0  0  0  0  0  0  0  0  0  0  0  0
   -1.5869    2.5185   -0.7960 C   0  0  0  0  0  0  0  0  0  0  0  0
   -1.4556    2.2756    1.7193 C   0  0  0  0  0  0  0  0  0  0  0  0
   -1.9545   -0.5010   -0.7664 N   0  0  0  0  0  0  0  0  0  0  0  0
   -0.9182   -1.5542   -0.6911 C   0  0  1  0  0  0  0  0  0  0  0  0
    0.2077   -1.1881    0.3034 C   0  0  0  0  0  0  0  0  0  0  0  0
    1.4512   -2.0000    0.0568 C   0  0  0  0  0  0  0  0  0  0  0  0
    1.7255   -3.2401    0.5925 C   0  0  0  0  0  0  0  0  0  0  0  0
    2.9079   -3.6810    0.1171 N   0  0  0  0  0  0  0  0  0  0  0  0
    3.3283   -2.6979   -0.7068 C   0  0  0  0  0  0  0  0  0  0  0  0
    2.4616   -1.6670   -0.7707 N   0  0  0  0  0  0  0  0  0  0  0  0
    2.6431   -0.4296   -1.5331 C   0  0  0  0  0  0  0  0  0  0  0  0
    3.0176    0.7112   -0.6207 C   0  0  0  0  0  0  0  0  0  0  0  0
    2.3102    1.9238   -0.6743 C   0  0  0  0  0  0  0  0  0  0  0  0
    2.6453    2.9764    0.1839 C   0  0  0  0  0  0  0  0  0  0  0  0
    1.7388    4.4767    0.1274 Cl  0  0  0  0  0  0  0  0  0  0  0  0
    3.7037    2.8331    1.0861 C   0  0  0  0  0  0  0  0  0  0  0  0
    4.4321    1.6402    1.1269 C   0  0  0  0  0  0  0  0  0  0  0  0
    5.7675    1.4663    2.2507 Cl  0  0  0  0  0  0  0  0  0  0  0  0
    4.0949    0.5845    0.2730 C   0  0  0  0  0  0  0  0  0  0  0  0
   -1.5120   -2.9197   -0.4433 C   0  0  0  0  0  0  0  0  0  0  0  0
   -2.0242   -3.6459   -1.5137 O   0  0  0  0  0  0  0  0  0  0  0  0
   -1.5880   -3.3910    0.7237 O   0  0  0  0  0  0  0  0  0  0  0  0
   -3.8692   -1.2887    0.5826 C   0  0  0  0  0  0  0  0  0  0  0  0
   -4.0560   -1.9602    1.7870 O   0  0  0  0  0  0  0  0  0  0  0  0
   -4.6537   -1.5031   -0.3811 O   0  0  0  0  0  0  0  0  0  0  0  0
   -2.1259   -0.3594    1.3624 H   0  0  0  0  0  0  0  0  0  0  0  0
   -4.0130    1.2506   -0.4699 H   0  0  0  0  0  0  0  0  0  0  0  0
   -4.0616    1.2338    1.3102 H   0  0  0  0  0  0  0  0  0  0  0  0
   -3.0096    3.2458    0.6169 H   0  0  0  0  0  0  0  0  0  0  0  0
   -2.2625    2.4911   -1.6770 H   0  0  0  0  0  0  0  0  0  0  0  0
   -0.8123    1.7358   -0.9076 H   0  0  0  0  0  0  0  0  0  0  0  0
   -1.0772    3.5051   -0.7841 H   0  0  0  0  0  0  0  0  0  0  0  0
   -0.7017    1.4692    1.6147 H   0  0  0  0  0  0  0  0  0  0  0  0
   -0.9146    3.2402    1.8251 H   0  0  0  0  0  0  0  0  0  0  0  0
   -2.0446    2.1048    2.6454 H   0  0  0  0  0  0  0  0  0  0  0  0
   -2.5751   -0.6745   -1.5923 H   0  0  0  0  0  0  0  0  0  0  0  0
   -0.4440   -1.5978   -1.6975 H   0  0  0  0  0  0  0  0  0  0  0  0
   -0.1158   -1.3461    1.3537 H   0  0  0  0  0  0  0  0  0  0  0  0
    0.4527   -0.1130    0.1989 H   0  0  0  0  0  0  0  0  0  0  0  0
    1.1063   -3.7916    1.2871 H   0  0  0  0  0  0  0  0  0  0  0  0
    4.2646   -2.7350   -1.2488 H   0  0  0  0  0  0  0  0  0  0  0  0
    3.4478   -0.5625   -2.2884 H   0  0  0  0  0  0  0  0  0  0  0  0
    1.7072   -0.2057   -2.0897 H   0  0  0  0  0  0  0  0  0  0  0  0
    1.4998    2.0512   -1.3796 H   0  0  0  0  0  0  0  0  0  0  0  0
    3.9633    3.6485    1.7496 H   0  0  0  0  0  0  0  0  0  0  0  0
    4.6674   -0.3337    0.3108 H   0  0  0  0  0  0  0  0  0  0  0  0
   -2.4448   -4.5561   -1.3699 H   0  0  0  0  0  0  0  0  0  0  0  0
   -4.8038   -2.6350    1.8950 H   0  0  0  0  0  0  0  0  0  0  0  0
  1  2  1  0
  2  3  1  0
  3  4  1  0
  3  5  1  0
  1  6  1  0
  6  7  1  0
  7  8  1  0
  8  9  1  0
  9 10  2  0
 10 11  1  0
 11 12  2  0
 12 13  1  0
 13 14  1  0
 14 15  1  0
 15 16  2  0
 16 17  1  0
 17 18  1  0
 17 19  2  0
 19 20  1  0
 20 21  1  0
 20 22  2  0
  7 23  1  0
 23 24  1  0
 23 25  2  0
  1 26  1  0
 26 27  1  0
 26 28  2  0
 13  9  1  0
 22 15  1  0
  1 29  1  1
  2 30  1  0
  2 31  1  0
  3 32  1  0
  4 33  1  0
  4 34  1  0
  4 35  1  0
  5 36  1  0
  5 37  1  0
  5 38  1  0
  6 39  1  0
  7 40  1  6
  8 41  1  0
  8 42  1  0
 10 43  1  0
 12 44  1  0
 14 45  1  0
 14 46  1  0
 16 47  1  0
 19 48  1  0
 22 49  1  0
 24 50  1  0
 27 51  1  0
M  END
$$$$
