
     RDKit          3D

 26 27  0  0  0  0  0  0  0  0999 V2000
   -2.2811   -0.0076   -0.3038 C   0  0  1  0  0  0  0  0  0  0  0  0
   -1.7217    0.1485   -1.5821 O   0  0  0  0  0  0  0  0  0  0  0  0
   -1.3192    0.5468    0.7545 C   0  0  0  0  0  0  0  0  0  0  0  0
   -0.0347   -0.2298    0.7769 C   0  0  0  0  0  0  0  0  0  0  0  0
    0.2089   -1.4034    1.4841 C   0  0  0  0  0  0  0  0  0  0  0  0
    1.4506   -1.8676    1.2153 N   0  0  0  0  0  0  0  0  0  0  0  0
    1.9880   -1.0043    0.3358 C   0  0  0  0  0  0  0  0  0  0  0  0
    1.1093    0.0065    0.0390 C   0  0  0  0  0  0  0  0  0  0  0  0
    1.4311    1.0163   -0.8687 C   0  0  0  0  0  0  0  0  0  0  0  0
    2.7000    0.9735   -1.4748 C   0  0  0  0  0  0  0  0  0  0  0  0
    3.6060   -0.0656   -1.1668 C   0  0  0  0  0  0  0  0  0  0  0  0
    3.2509   -1.0728   -0.2509 C   0  0  0  0  0  0  0  0  0  0  0  0
   -3.5899    0.7238   -0.2335 C   0  0  0  0  0  0  0  0  0  0  0  0
   -3.6986    2.0085   -0.7583 O   0  0  0  0  0  0  0  0  0  0  0  0
   -4.5821    0.1893    0.3303 O   0  0  0  0  0  0  0  0  0  0  0  0
   -2.4534   -1.0906   -0.0961 H   0  0  0  0  0  0  0  0  0  0  0  0
   -2.2294   -0.4489   -2.1917 H   0  0  0  0  0  0  0  0  0  0  0  0
   -1.7917    0.4810    1.7592 H   0  0  0  0  0  0  0  0  0  0  0  0
   -1.1047    1.6190    0.5534 H   0  0  0  0  0  0  0  0  0  0  0  0
   -0.4889   -1.8955    2.1491 H   0  0  0  0  0  0  0  0  0  0  0  0
    1.8929   -2.7303    1.6034 H   0  0  0  0  0  0  0  0  0  0  0  0
    0.7318    1.8078   -1.1038 H   0  0  0  0  0  0  0  0  0  0  0  0
    2.9830    1.7413   -2.1830 H   0  0  0  0  0  0  0  0  0  0  0  0
    4.5787   -0.0889   -1.6405 H   0  0  0  0  0  0  0  0  0  0  0  0
    3.9362   -1.8759   -0.0127 H   0  0  0  0  0  0  0  0  0  0  0  0
   -4.5719    2.5189   -0.7056 H   0  0  0  0  0  0  0  0  0  0  0  0
  1  2  1  0
  1  3  1  0
  3  4  1  0
  4  5  2  0
  5  6  1  0
  6  7  1  0
  7  8  2  0
  8  9  1  0
  9 10  2  0
 10 11  1  0
 11 12  2  0
  1 13  1  0
 13 14  1  0
 13 15  2  0
  8  4  1  0
 12  7  1  0
  1 16  1  1
  2 17  1  0
  3 18  1  0
  3 19  1  0
  5 20  1  0
  6 21  1  0
  9 22  1  0
 10 23  1  0
 11 24  1  0
 12 25  1  0
 14 26  1  0
M  END
$$$$
