
     RDKit          3D

 31 32  0  0  0  0  0  0  0  0999 V2000
    6.0697   -0.3774   -0.5148 O   0  0  0  0  0  0  0  0  0  0  0  0
    4.6912   -0.1771   -0.5117 C   0  0  0  0  0  0  0  0  0  0  0  0
    3.8738   -0.9859   -1.3079 C   0  0  0  0  0  0  0  0  0  0  0  0
    2.4885   -0.7961   -1.3148 C   0  0  0  0  0  0  0  0  0  0  0  0
    1.9086    0.2145   -0.5307 C   0  0  0  0  0  0  0  0  0  0  0  0
    0.4148    0.3968   -0.5103 C   0  0  0  0  0  0  0  0  0  0  0  0
   -0.2190   -0.4745    0.5779 C   0  0  0  0  0  0  0  0  0  0  0  0
   -1.7129   -0.2919    0.5984 C   0  0  0  0  0  0  0  0  0  0  0  0
   -2.2917    0.7203    1.3811 C   0  0  0  0  0  0  0  0  0  0  0  0
   -3.6803    0.9123    1.3751 C   0  0  0  0  0  0  0  0  0  0  0  0
   -4.2620    1.9099    2.1542 O   0  0  0  0  0  0  0  0  0  0  0  0
   -4.4919    0.0979    0.5790 C   0  0  0  0  0  0  0  0  0  0  0  0
   -3.9211   -0.9049   -0.2164 C   0  0  0  0  0  0  0  0  0  0  0  0
   -4.7211   -1.7157   -1.0184 O   0  0  0  0  0  0  0  0  0  0  0  0
   -2.5352   -1.0947   -0.2089 C   0  0  0  0  0  0  0  0  0  0  0  0
    2.7312    1.0160    0.2777 C   0  0  0  0  0  0  0  0  0  0  0  0
    4.1162    0.8241    0.2829 C   0  0  0  0  0  0  0  0  0  0  0  0
    6.6885    0.1911    0.0515 H   0  0  0  0  0  0  0  0  0  0  0  0
    4.3122   -1.7646   -1.9191 H   0  0  0  0  0  0  0  0  0  0  0  0
    1.8680   -1.4367   -1.9293 H   0  0  0  0  0  0  0  0  0  0  0  0
    0.1688    1.4660   -0.3254 H   0  0  0  0  0  0  0  0  0  0  0  0
   -0.0106    0.1265   -1.5022 H   0  0  0  0  0  0  0  0  0  0  0  0
    0.2066   -0.2045    1.5698 H   0  0  0  0  0  0  0  0  0  0  0  0
    0.0269   -1.5437    0.3930 H   0  0  0  0  0  0  0  0  0  0  0  0
   -1.6650    1.3586    1.9921 H   0  0  0  0  0  0  0  0  0  0  0  0
   -3.7024    2.5174    2.7413 H   0  0  0  0  0  0  0  0  0  0  0  0
   -5.5642    0.2481    0.5757 H   0  0  0  0  0  0  0  0  0  0  0  0
   -5.7279   -1.6037   -1.0473 H   0  0  0  0  0  0  0  0  0  0  0  0
   -2.0999   -1.8659   -0.8328 H   0  0  0  0  0  0  0  0  0  0  0  0
    2.2997    1.7871    0.9041 H   0  0  0  0  0  0  0  0  0  0  0  0
    4.7406    1.4510    0.9068 H   0  0  0  0  0  0  0  0  0  0  0  0
  1  2  1  0
  2  3  2  0
  3  4  1  0
  4  5  2  0
  5  6  1  0
  6  7  1  0
  7  8  1  0
  8  9  2  0
  9 10  1  0
 10 11  1  0
 10 12  2  0
 12 13  1  0
 13 14  1  0
 13 15  2  0
  5 16  1  0
 16 17  2  0
 17  2  1  0
 15  8  1  0
  1 18  1  0
  3 19  1  0
  4 20  1  0
  6 21  1  0
  6 22  1  0
  7 23  1  0
  7 24  1  0
  9 25  1  0
 11 26  1  0
 12 27  1  0
 14 28  1  0
 15 29  1  0
 16 30  1  0
 17 31  1  0
M  END
$$$$
