
     RDKit          3D

 43 45  0  0  0  0  0  0  0  0999 V2000
    7.1549   -0.8281    0.3147 N   0  0  0  0  0  0  0  0  0  0  0  0
    6.3922   -1.6509   -0.6240 C   0  0  0  0  0  0  0  0  0  0  0  0
    5.1670   -0.9139   -1.1923 C   0  0  0  0  0  0  0  0  0  0  0  0
    4.0884   -0.6621   -0.1379 C   0  0  0  0  0  0  0  0  0  0  0  0
    2.9331   -0.1148   -0.7683 O   0  0  0  0  0  0  0  0  0  0  0  0
    1.7525    0.2331   -0.0956 C   0  0  0  0  0  0  0  0  0  0  0  0
    1.5996    0.0735    1.2943 C   0  0  0  0  0  0  0  0  0  0  0  0
    0.4012    0.4332    1.9178 C   0  0  0  0  0  0  0  0  0  0  0  0
   -0.6669    0.9486    1.1657 C   0  0  0  0  0  0  0  0  0  0  0  0
   -0.5048    1.1206   -0.2192 C   0  0  0  0  0  0  0  0  0  0  0  0
    0.6933    0.7604   -0.8416 C   0  0  0  0  0  0  0  0  0  0  0  0
   -1.9331    1.3251    1.8347 C   0  0  0  0  0  0  0  0  0  0  0  0
   -3.2326    1.2491    1.3519 C   0  0  0  0  0  0  0  0  0  0  0  0
   -4.0660    1.7172    2.2998 N   0  0  0  0  0  0  0  0  0  0  0  0
   -3.3687    2.0934    3.3595 N   0  0  0  0  0  0  0  0  0  0  0  0
   -2.0661    1.8643    3.1030 C   0  0  0  0  0  0  0  0  0  0  0  0
   -3.6906    0.6193    0.0958 C   0  0  0  0  0  0  0  0  0  0  0  0
   -3.2530   -0.6782   -0.2163 C   0  0  0  0  0  0  0  0  0  0  0  0
   -3.6910   -1.3212   -1.3781 C   0  0  0  0  0  0  0  0  0  0  0  0
   -3.1021   -2.9434   -1.7152 Cl  0  0  0  0  0  0  0  0  0  0  0  0
   -4.5886   -0.6684   -2.2421 C   0  0  0  0  0  0  0  0  0  0  0  0
   -5.0573   -1.2741   -3.4086 O   0  0  0  0  0  0  0  0  0  0  0  0
   -5.0270    0.6230   -1.9343 C   0  0  0  0  0  0  0  0  0  0  0  0
   -4.5796    1.2781   -0.7819 C   0  0  0  0  0  0  0  0  0  0  0  0
   -5.0142    2.5854   -0.5544 O   0  0  0  0  0  0  0  0  0  0  0  0
    6.5940   -0.6884    1.1853 H   0  0  0  0  0  0  0  0  0  0  0  0
    7.3351    0.1096   -0.1122 H   0  0  0  0  0  0  0  0  0  0  0  0
    7.0587   -1.9326   -1.4673 H   0  0  0  0  0  0  0  0  0  0  0  0
    6.0753   -2.5918   -0.1233 H   0  0  0  0  0  0  0  0  0  0  0  0
    5.4802    0.0521   -1.6448 H   0  0  0  0  0  0  0  0  0  0  0  0
    4.7306   -1.5387   -2.0018 H   0  0  0  0  0  0  0  0  0  0  0  0
    4.4644    0.0574    0.6203 H   0  0  0  0  0  0  0  0  0  0  0  0
    3.8196   -1.6210    0.3569 H   0  0  0  0  0  0  0  0  0  0  0  0
    2.3989   -0.3288    1.9016 H   0  0  0  0  0  0  0  0  0  0  0  0
    0.3033    0.2921    2.9870 H   0  0  0  0  0  0  0  0  0  0  0  0
   -1.2959    1.5498   -0.8200 H   0  0  0  0  0  0  0  0  0  0  0  0
    0.8015    0.8970   -1.9101 H   0  0  0  0  0  0  0  0  0  0  0  0
   -5.1083    1.7509    2.2459 H   0  0  0  0  0  0  0  0  0  0  0  0
   -1.2645    2.0875    3.7945 H   0  0  0  0  0  0  0  0  0  0  0  0
   -2.5766   -1.1973    0.4525 H   0  0  0  0  0  0  0  0  0  0  0  0
   -4.7800   -2.2056   -3.6910 H   0  0  0  0  0  0  0  0  0  0  0  0
   -5.7106    1.1288   -2.6051 H   0  0  0  0  0  0  0  0  0  0  0  0
   -4.6665    3.1578    0.2039 H   0  0  0  0  0  0  0  0  0  0  0  0
  1  2  1  0
  2  3  1  0
  3  4  1  0
  4  5  1  0
  5  6  1  0
  6  7  2  0
  7  8  1  0
  8  9  2  0
  9 10  1  0
 10 11  2  0
  9 12  1  0
 12 13  2  0
 13 14  1  0
 14 15  1  0
 15 16  2  0
 13 17  1  0
 17 18  2  0
 18 19  1  0
 19 20  1  0
 19 21  2  0
 21 22  1  0
 21 23  1  0
 23 24  2  0
 24 25  1  0
 11  6  1  0
 16 12  1  0
 24 17  1  0
  1 26  1  0
  1 27  1  0
  2 28  1  0
  2 29  1  0
  3 30  1  0
  3 31  1  0
  4 32  1  0
  4 33  1  0
  7 34  1  0
  8 35  1  0
 10 36  1  0
 11 37  1  0
 14 38  1  0
 16 39  1  0
 18 40  1  0
 22 41  1  0
 23 42  1  0
 25 43  1  0
M  END
$$$$
