
     RDKit          3D

 23 24  0  0  0  0  0  0  0  0999 V2000
    2.4870   -1.0927   -0.0740 C   0  0  0  0  0  0  0  0  0  0  0  0
    1.5249    0.0587    0.0603 C   0  0  0  0  0  0  0  0  0  0  0  0
    2.0382    1.3605    0.1868 C   0  0  0  0  0  0  0  0  0  0  0  0
    1.1828    2.4507    0.3381 C   0  0  0  0  0  0  0  0  0  0  0  0
   -0.1970    2.2611    0.3661 C   0  0  0  0  0  0  0  0  0  0  0  0
   -0.7373    0.9741    0.2251 C   0  0  0  0  0  0  0  0  0  0  0  0
    0.1197   -0.1392    0.0456 C   0  0  0  0  0  0  0  0  0  0  0  0
   -0.4828   -1.5335   -0.0420 C   0  0  0  0  0  0  0  0  0  0  0  0
   -1.8639   -1.5165   -0.7079 C   0  0  0  0  0  0  0  0  0  0  0  0
   -2.7239   -0.5249   -0.0718 N   0  0  0  0  0  0  0  0  0  0  0  0
   -2.1997    0.7619    0.2600 C   0  0  0  0  0  0  0  0  0  0  0  0
   -2.9835    1.6903    0.5957 O   0  0  0  0  0  0  0  0  0  0  0  0
    2.2369   -1.8868    0.6607 H   0  0  0  0  0  0  0  0  0  0  0  0
    2.4333   -1.5066   -1.1026 H   0  0  0  0  0  0  0  0  0  0  0  0
    3.5343   -0.7763    0.1185 H   0  0  0  0  0  0  0  0  0  0  0  0
    3.1072    1.5341    0.1789 H   0  0  0  0  0  0  0  0  0  0  0  0
    1.5924    3.4473    0.4417 H   0  0  0  0  0  0  0  0  0  0  0  0
   -0.8420    3.1216    0.4936 H   0  0  0  0  0  0  0  0  0  0  0  0
   -0.5750   -1.9467    0.9854 H   0  0  0  0  0  0  0  0  0  0  0  0
    0.1630   -2.2151   -0.6335 H   0  0  0  0  0  0  0  0  0  0  0  0
   -1.7502   -1.2603   -1.7836 H   0  0  0  0  0  0  0  0  0  0  0  0
   -2.3312   -2.5221   -0.6349 H   0  0  0  0  0  0  0  0  0  0  0  0
   -3.7329   -0.7395    0.0937 H   0  0  0  0  0  0  0  0  0  0  0  0
  1  2  1  0
  2  3  2  0
  3  4  1  0
  4  5  2  0
  5  6  1  0
  6  7  2  0
  7  8  1  0
  8  9  1  0
  9 10  1  0
 10 11  1  0
 11 12  2  0
  7  2  1  0
 11  6  1  0
  1 13  1  0
  1 14  1  0
  1 15  1  0
  3 16  1  0
  4 17  1  0
  5 18  1  0
  8 19  1  0
  8 20  1  0
  9 21  1  0
  9 22  1  0
 10 23  1  0
M  END
$$$$
