
     RDKit          3D

 47 49  0  0  0  0  0  0  0  0999 V2000
    5.1203    0.7477    0.2799 C   0  0  0  0  0  0  0  0  0  0  0  0
    4.4477   -0.4466   -0.4187 C   0  0  0  0  0  0  0  0  0  0  0  0
    4.8619   -0.4982   -1.8909 C   0  0  0  0  0  0  0  0  0  0  0  0
    2.9769   -0.3760   -0.3368 N   0  0  0  0  0  0  0  0  0  0  0  0
    2.4740   -0.6663    1.0147 C   0  0  0  0  0  0  0  0  0  0  0  0
    0.9833   -1.0232    0.9696 C   0  0  0  0  0  0  0  0  0  0  0  0
    0.1098    0.1675    0.5275 C   0  0  0  0  0  0  0  0  0  0  0  0
   -1.4095   -0.0039    0.8143 C   0  0  0  0  0  0  0  0  0  0  0  0
   -1.7424   -0.2537    2.2790 C   0  0  0  0  0  0  0  0  0  0  0  0
   -1.0692    0.4513    3.3257 N   0  0  0  0  0  0  0  0  0  0  0  0
   -2.6695   -1.0517    2.5875 O   0  0  0  0  0  0  0  0  0  0  0  0
   -2.0276   -1.0575   -0.0960 C   0  0  0  0  0  0  0  0  0  0  0  0
   -1.8447   -2.4465   -0.0677 C   0  0  0  0  0  0  0  0  0  0  0  0
   -2.5439   -3.2427   -0.9891 C   0  0  0  0  0  0  0  0  0  0  0  0
   -3.4304   -2.6545   -1.9101 C   0  0  0  0  0  0  0  0  0  0  0  0
   -3.6348   -1.2668   -1.9083 C   0  0  0  0  0  0  0  0  0  0  0  0
   -2.9232   -0.4945   -0.9892 C   0  0  0  0  0  0  0  0  0  0  0  0
   -3.0000    0.9241   -0.7285 C   0  0  0  0  0  0  0  0  0  0  0  0
   -3.7769    1.9017   -1.3517 C   0  0  0  0  0  0  0  0  0  0  0  0
   -3.6760    3.2236   -0.8927 C   0  0  0  0  0  0  0  0  0  0  0  0
   -2.8109    3.5424    0.1708 C   0  0  0  0  0  0  0  0  0  0  0  0
   -2.0407    2.5416    0.7849 C   0  0  0  0  0  0  0  0  0  0  0  0
   -2.1517    1.2239    0.3230 C   0  0  0  0  0  0  0  0  0  0  0  0
    4.7585    1.7079   -0.1459 H   0  0  0  0  0  0  0  0  0  0  0  0
    6.2226    0.6939    0.1523 H   0  0  0  0  0  0  0  0  0  0  0  0
    4.9081    0.7320    1.3687 H   0  0  0  0  0  0  0  0  0  0  0  0
    4.8121   -1.3865    0.0538 H   0  0  0  0  0  0  0  0  0  0  0  0
    4.5471    0.4281   -2.4179 H   0  0  0  0  0  0  0  0  0  0  0  0
    4.3843   -1.3702   -2.3865 H   0  0  0  0  0  0  0  0  0  0  0  0
    5.9641   -0.6075   -1.9787 H   0  0  0  0  0  0  0  0  0  0  0  0
    2.6633    0.5835   -0.6166 H   0  0  0  0  0  0  0  0  0  0  0  0
    2.6291    0.2067    1.6868 H   0  0  0  0  0  0  0  0  0  0  0  0
    3.0114   -1.5373    1.4513 H   0  0  0  0  0  0  0  0  0  0  0  0
    0.8490   -1.8700    0.2647 H   0  0  0  0  0  0  0  0  0  0  0  0
    0.6825   -1.3639    1.9828 H   0  0  0  0  0  0  0  0  0  0  0  0
    0.4758    1.0931    1.0207 H   0  0  0  0  0  0  0  0  0  0  0  0
    0.2539    0.3222   -0.5653 H   0  0  0  0  0  0  0  0  0  0  0  0
   -1.3232    0.2701    4.3220 H   0  0  0  0  0  0  0  0  0  0  0  0
   -0.3317    1.1609    3.1280 H   0  0  0  0  0  0  0  0  0  0  0  0
   -1.1960   -2.9088    0.6634 H   0  0  0  0  0  0  0  0  0  0  0  0
   -2.4092   -4.3165   -0.9828 H   0  0  0  0  0  0  0  0  0  0  0  0
   -3.9701   -3.2773   -2.6116 H   0  0  0  0  0  0  0  0  0  0  0  0
   -4.3361   -0.8133   -2.5962 H   0  0  0  0  0  0  0  0  0  0  0  0
   -4.4416    1.6520   -2.1682 H   0  0  0  0  0  0  0  0  0  0  0  0
   -4.2660    4.0019   -1.3590 H   0  0  0  0  0  0  0  0  0  0  0  0
   -2.7376    4.5653    0.5166 H   0  0  0  0  0  0  0  0  0  0  0  0
   -1.3729    2.7918    1.5978 H   0  0  0  0  0  0  0  0  0  0  0  0
  1  2  1  0
  2  3  1  0
  2  4  1  0
  4  5  1  0
  5  6  1  0
  6  7  1  0
  7  8  1  0
  8  9  1  0
  9 10  1  0
  9 11  2  0
  8 12  1  0
 12 13  2  0
 13 14  1  0
 14 15  2  0
 15 16  1  0
 16 17  2  0
 17 18  1  0
 18 19  2  0
 19 20  1  0
 20 21  2  0
 21 22  1  0
 22 23  2  0
 23  8  1  0
 17 12  1  0
 23 18  1  0
  1 24  1  0
  1 25  1  0
  1 26  1  0
  2 27  1  0
  3 28  1  0
  3 29  1  0
  3 30  1  0
  4 31  1  0
  5 32  1  0
  5 33  1  0
  6 34  1  0
  6 35  1  0
  7 36  1  0
  7 37  1  0
 10 38  1  0
 10 39  1  0
 13 40  1  0
 14 41  1  0
 15 42  1  0
 16 43  1  0
 19 44  1  0
 20 45  1  0
 21 46  1  0
 22 47  1  0
M  END
$$$$
