
     RDKit          3D

 39 40  0  0  0  0  0  0  0  0999 V2000
   -4.6798    1.8637   -0.7042 C   0  0  0  0  0  0  0  0  0  0  0  0
   -4.6225    0.3325   -0.6413 C   0  0  0  0  0  0  0  0  0  0  0  0
   -4.8618   -0.2853   -2.0245 C   0  0  0  0  0  0  0  0  0  0  0  0
   -3.3037   -0.1427   -0.0490 C   0  0  0  0  0  0  0  0  0  0  0  0
   -2.0883    0.1529   -0.6989 C   0  0  0  0  0  0  0  0  0  0  0  0
   -0.8647   -0.2654   -0.1671 C   0  0  0  0  0  0  0  0  0  0  0  0
    0.3121    0.0549   -0.8606 O   0  0  0  0  0  0  0  0  0  0  0  0
    1.6003   -0.0199   -0.3150 C   0  0  0  0  0  0  0  0  0  0  0  0
    2.5522   -0.8529   -0.9211 C   0  0  0  0  0  0  0  0  0  0  0  0
    2.1318   -1.7993   -2.3403 Cl  0  0  0  0  0  0  0  0  0  0  0  0
    3.8427   -0.9494   -0.3908 C   0  0  0  0  0  0  0  0  0  0  0  0
    4.1986   -0.2126    0.7485 C   0  0  0  0  0  0  0  0  0  0  0  0
    5.5966   -0.2922    1.2965 C   0  0  0  0  0  0  0  0  0  0  0  0
    6.4664    0.7269    0.6337 C   0  0  0  0  0  0  0  0  0  0  0  0
    7.1117    0.4163   -0.5591 O   0  0  0  0  0  0  0  0  0  0  0  0
    6.5830    1.8784    1.1321 O   0  0  0  0  0  0  0  0  0  0  0  0
    3.2579    0.6485    1.3331 C   0  0  0  0  0  0  0  0  0  0  0  0
    1.9650    0.7493    0.8078 C   0  0  0  0  0  0  0  0  0  0  0  0
    0.8460    1.8966    1.5321 Cl  0  0  0  0  0  0  0  0  0  0  0  0
   -0.8497   -1.0103    1.0234 C   0  0  0  0  0  0  0  0  0  0  0  0
   -2.0440   -1.3114    1.6781 C   0  0  0  0  0  0  0  0  0  0  0  0
   -3.2708   -0.8824    1.1538 C   0  0  0  0  0  0  0  0  0  0  0  0
   -4.4522   -1.1937    1.8272 O   0  0  0  0  0  0  0  0  0  0  0  0
   -3.9197    2.2667   -1.4064 H   0  0  0  0  0  0  0  0  0  0  0  0
   -5.6842    2.1927   -1.0469 H   0  0  0  0  0  0  0  0  0  0  0  0
   -4.5002    2.2926    0.3049 H   0  0  0  0  0  0  0  0  0  0  0  0
   -5.4697    0.0095    0.0010 H   0  0  0  0  0  0  0  0  0  0  0  0
   -4.8117   -1.3933   -1.9598 H   0  0  0  0  0  0  0  0  0  0  0  0
   -4.1065    0.0663   -2.7588 H   0  0  0  0  0  0  0  0  0  0  0  0
   -5.8704   -0.0050   -2.3965 H   0  0  0  0  0  0  0  0  0  0  0  0
   -2.0857    0.7178   -1.6221 H   0  0  0  0  0  0  0  0  0  0  0  0
    4.5686   -1.5976   -0.8666 H   0  0  0  0  0  0  0  0  0  0  0  0
    6.0199   -1.3055    1.1246 H   0  0  0  0  0  0  0  0  0  0  0  0
    5.5905   -0.1241    2.3958 H   0  0  0  0  0  0  0  0  0  0  0  0
    7.6908    1.1011   -1.0300 H   0  0  0  0  0  0  0  0  0  0  0  0
    3.5341    1.2501    2.1907 H   0  0  0  0  0  0  0  0  0  0  0  0
    0.0820   -1.3658    1.4432 H   0  0  0  0  0  0  0  0  0  0  0  0
   -2.0156   -1.8840    2.5965 H   0  0  0  0  0  0  0  0  0  0  0  0
   -4.4490   -1.7237    2.6910 H   0  0  0  0  0  0  0  0  0  0  0  0
  1  2  1  0
  2  3  1  0
  2  4  1  0
  4  5  2  0
  5  6  1  0
  6  7  1  0
  7  8  1  0
  8  9  2  0
  9 10  1  0
  9 11  1  0
 11 12  2  0
 12 13  1  0
 13 14  1  0
 14 15  1  0
 14 16  2  0
 12 17  1  0
 17 18  2  0
 18 19  1  0
  6 20  2  0
 20 21  1  0
 21 22  2  0
 22 23  1  0
 22  4  1  0
 18  8  1  0
  1 24  1  0
  1 25  1  0
  1 26  1  0
  2 27  1  0
  3 28  1  0
  3 29  1  0
  3 30  1  0
  5 31  1  0
 11 32  1  0
 13 33  1  0
 13 34  1  0
 15 35  1  0
 17 36  1  0
 20 37  1  0
 21 38  1  0
 23 39  1  0
M  END
$$$$
