
     RDKit          3D

 35 37  0  0  0  0  0  0  0  0999 V2000
   -4.4342   -0.7657   -0.2771 C   0  0  0  0  0  0  0  0  0  0  0  0
   -3.2350   -0.5852    0.6613 C   0  0  0  0  0  0  0  0  0  0  0  0
   -3.4293    0.5832    1.5899 C   0  0  0  0  0  0  0  0  0  0  0  0
   -4.0383    1.7521    1.1398 O   0  0  0  0  0  0  0  0  0  0  0  0
   -2.9973    0.5205    2.7722 O   0  0  0  0  0  0  0  0  0  0  0  0
   -1.9448   -0.4357   -0.1199 C   0  0  0  0  0  0  0  0  0  0  0  0
   -1.7396    0.6629   -0.9761 C   0  0  0  0  0  0  0  0  0  0  0  0
   -0.5439    0.7949   -1.6849 C   0  0  0  0  0  0  0  0  0  0  0  0
    0.4543   -0.1742   -1.5604 C   0  0  0  0  0  0  0  0  0  0  0  0
    2.0214    0.0313   -2.3978 S   0  0  0  0  0  0  0  0  0  0  0  0
    2.7980    0.5471   -0.8632 C   0  0  0  0  0  0  0  0  0  0  0  0
    3.0185   -0.3445    0.2230 C   0  0  0  0  0  0  0  0  0  0  0  0
    3.6839    0.1461    1.3650 C   0  0  0  0  0  0  0  0  0  0  0  0
    4.0898    1.4798    1.4431 C   0  0  0  0  0  0  0  0  0  0  0  0
    3.8388    2.3506    0.3851 C   0  0  0  0  0  0  0  0  0  0  0  0
    3.1945    1.8872   -0.7611 C   0  0  0  0  0  0  0  0  0  0  0  0
    2.5509   -1.7671    0.2400 C   0  0  0  0  0  0  0  0  0  0  0  0
    3.1801   -2.5962    0.9525 O   0  0  0  0  0  0  0  0  0  0  0  0
    1.3755   -2.2941   -0.5526 C   0  0  0  0  0  0  0  0  0  0  0  0
    0.2697   -1.2780   -0.7137 C   0  0  0  0  0  0  0  0  0  0  0  0
   -0.9292   -1.4010    0.0074 C   0  0  0  0  0  0  0  0  0  0  0  0
   -4.2802   -1.6586   -0.9200 H   0  0  0  0  0  0  0  0  0  0  0  0
   -5.3608   -0.9205    0.3164 H   0  0  0  0  0  0  0  0  0  0  0  0
   -4.5753    0.1217   -0.9300 H   0  0  0  0  0  0  0  0  0  0  0  0
   -3.1858   -1.5037    1.2887 H   0  0  0  0  0  0  0  0  0  0  0  0
   -4.1543    2.5480    1.7555 H   0  0  0  0  0  0  0  0  0  0  0  0
   -2.5008    1.4239   -1.0882 H   0  0  0  0  0  0  0  0  0  0  0  0
   -0.3915    1.6545   -2.3250 H   0  0  0  0  0  0  0  0  0  0  0  0
    3.8709   -0.4989    2.2149 H   0  0  0  0  0  0  0  0  0  0  0  0
    4.5913    1.8410    2.3317 H   0  0  0  0  0  0  0  0  0  0  0  0
    4.1480    3.3858    0.4513 H   0  0  0  0  0  0  0  0  0  0  0  0
    3.0148    2.5718   -1.5806 H   0  0  0  0  0  0  0  0  0  0  0  0
    0.9785   -3.2036   -0.0500 H   0  0  0  0  0  0  0  0  0  0  0  0
    1.7305   -2.6293   -1.5502 H   0  0  0  0  0  0  0  0  0  0  0  0
   -1.0688   -2.2460    0.6706 H   0  0  0  0  0  0  0  0  0  0  0  0
  1  2  1  0
  2  3  1  0
  3  4  1  0
  3  5  2  0
  2  6  1  0
  6  7  2  0
  7  8  1  0
  8  9  2  0
  9 10  1  0
 10 11  1  0
 11 12  2  0
 12 13  1  0
 13 14  2  0
 14 15  1  0
 15 16  2  0
 12 17  1  0
 17 18  2  0
 17 19  1  0
 19 20  1  0
 20 21  2  0
 21  6  1  0
 20  9  1  0
 16 11  1  0
  1 22  1  0
  1 23  1  0
  1 24  1  0
  2 25  1  0
  4 26  1  0
  7 27  1  0
  8 28  1  0
 13 29  1  0
 14 30  1  0
 15 31  1  0
 16 32  1  0
 19 33  1  0
 19 34  1  0
 21 35  1  0
M  END
$$$$
