
     RDKit          3D

 49 52  0  0  0  0  0  0  0  0999 V2000
   -1.6769   -2.4497    0.5862 C   0  0  0  0  0  0  0  0  0  0  0  0
   -2.0684   -1.0743   -0.0537 C   0  0  2  0  0  0  0  0  0  0  0  0
   -1.4567   -0.9798   -1.4758 C   0  0  0  0  0  0  0  0  0  0  0  0
    0.0880   -0.9245   -1.4214 C   0  0  0  0  0  0  0  0  0  0  0  0
    0.6317    0.1852   -0.4707 C   0  0  1  0  0  0  0  0  0  0  0  0
   -0.0342    0.1406    0.9364 C   0  0  1  0  0  0  0  0  0  0  0  0
    0.4209    1.3723    1.7341 C   0  0  0  0  0  0  0  0  0  0  0  0
    1.9261    1.3316    1.9946 C   0  0  0  0  0  0  0  0  0  0  0  0
    2.7388    1.0012    0.7604 C   0  0  0  0  0  0  0  0  0  0  0  0
    4.0572    1.2739    0.7789 C   0  0  0  0  0  0  0  0  0  0  0  0
    4.9416    0.8191   -0.3427 C   0  0  0  0  0  0  0  0  0  0  0  0
    4.2411    1.0890   -1.6707 C   0  0  0  0  0  0  0  0  0  0  0  0
    2.8526    0.4173   -1.7409 C   0  0  0  0  0  0  0  0  0  0  0  0
    2.1825    0.1175   -0.3593 C   0  0  2  0  0  0  0  0  0  0  0  0
   -1.5678    0.1323    0.7550 C   0  0  2  0  0  0  0  0  0  0  0  0
   -2.4541    0.1599    1.9951 C   0  0  0  0  0  0  0  0  0  0  0  0
   -3.8124   -0.3869    1.5146 C   0  0  0  0  0  0  0  0  0  0  0  0
   -3.6163   -0.8877    0.0585 C   0  0  2  0  0  0  0  0  0  0  0  0
   -4.3215   -2.0913   -0.1320 O   0  0  0  0  0  0  0  0  0  0  0  0
   -4.1472    0.1332   -0.8797 C   0  0  0  0  0  0  0  0  0  0  0  0
   -4.5804    0.9627   -1.6401 C   0  0  0  0  0  0  0  0  0  0  0  0
   -2.1193   -2.5789    1.5953 H   0  0  0  0  0  0  0  0  0  0  0  0
   -2.0424   -3.2848   -0.0481 H   0  0  0  0  0  0  0  0  0  0  0  0
   -0.5862   -2.5936    0.6907 H   0  0  0  0  0  0  0  0  0  0  0  0
   -1.7755   -1.8511   -2.0879 H   0  0  0  0  0  0  0  0  0  0  0  0
   -1.8068   -0.0638   -1.9980 H   0  0  0  0  0  0  0  0  0  0  0  0
    0.4502   -0.7339   -2.4541 H   0  0  0  0  0  0  0  0  0  0  0  0
    0.4948   -1.9147   -1.1293 H   0  0  0  0  0  0  0  0  0  0  0  0
    0.3648    1.1632   -0.9343 H   0  0  0  0  0  0  0  0  0  0  0  0
    0.2925   -0.7624    1.4936 H   0  0  0  0  0  0  0  0  0  0  0  0
    0.1645    2.3055    1.1847 H   0  0  0  0  0  0  0  0  0  0  0  0
   -0.0971    1.4057    2.7165 H   0  0  0  0  0  0  0  0  0  0  0  0
    2.2335    2.3208    2.4001 H   0  0  0  0  0  0  0  0  0  0  0  0
    2.1413    0.5656    2.7713 H   0  0  0  0  0  0  0  0  0  0  0  0
    4.4955    1.8394    1.5970 H   0  0  0  0  0  0  0  0  0  0  0  0
    5.9091    1.3637   -0.3049 H   0  0  0  0  0  0  0  0  0  0  0  0
    5.1421   -0.2693   -0.2383 H   0  0  0  0  0  0  0  0  0  0  0  0
    4.8772    0.7263   -2.5070 H   0  0  0  0  0  0  0  0  0  0  0  0
    4.1234    2.1888   -1.7942 H   0  0  0  0  0  0  0  0  0  0  0  0
    2.2005    1.0712   -2.3604 H   0  0  0  0  0  0  0  0  0  0  0  0
    2.9533   -0.5425   -2.2939 H   0  0  0  0  0  0  0  0  0  0  0  0
    2.4558   -0.9242   -0.0764 H   0  0  0  0  0  0  0  0  0  0  0  0
   -1.8173    1.0631    0.1886 H   0  0  0  0  0  0  0  0  0  0  0  0
   -2.0310   -0.4889    2.7929 H   0  0  0  0  0  0  0  0  0  0  0  0
   -2.5602    1.1951    2.3866 H   0  0  0  0  0  0  0  0  0  0  0  0
   -4.5978    0.3988    1.5905 H   0  0  0  0  0  0  0  0  0  0  0  0
   -4.1210   -1.2261    2.1766 H   0  0  0  0  0  0  0  0  0  0  0  0
   -4.1287   -2.4058   -1.0547 H   0  0  0  0  0  0  0  0  0  0  0  0
   -4.9597    1.6910   -2.3075 H   0  0  0  0  0  0  0  0  0  0  0  0
  2  1  1  1
  2  3  1  0
  3  4  1  0
  4  5  1  0
  5  6  1  0
  6  7  1  0
  7  8  1  0
  8  9  1  0
  9 10  2  0
 10 11  1  0
 11 12  1  0
 12 13  1  0
 13 14  1  0
  6 15  1  0
 15 16  1  0
 16 17  1  0
 17 18  1  0
 18 19  1  0
 18 20  1  6
 20 21  3  0
 15  2  1  0
 18  2  1  0
 14  5  1  0
 14  9  1  0
  1 22  1  0
  1 23  1  0
  1 24  1  0
  3 25  1  0
  3 26  1  0
  4 27  1  0
  4 28  1  0
  5 29  1  6
  6 30  1  1
  7 31  1  0
  7 32  1  0
  8 33  1  0
  8 34  1  0
 10 35  1  0
 11 36  1  0
 11 37  1  0
 12 38  1  0
 12 39  1  0
 13 40  1  0
 13 41  1  0
 14 42  1  1
 15 43  1  6
 16 44  1  0
 16 45  1  0
 17 46  1  0
 17 47  1  0
 19 48  1  0
 21 49  1  0
M  END
$$$$
