
     RDKit          3D

 31 33  0  0  0  0  0  0  0  0999 V2000
    3.7881    2.0367   -0.3423 N   0  0  0  0  0  0  0  0  0  0  0  0
    3.4053    0.7194    0.0661 C   0  0  0  0  0  0  0  0  0  0  0  0
    4.3675   -0.1632    0.5995 C   0  0  0  0  0  0  0  0  0  0  0  0
    4.0055   -1.4635    1.0059 C   0  0  0  0  0  0  0  0  0  0  0  0
    2.6781   -1.9031    0.8860 C   0  0  0  0  0  0  0  0  0  0  0  0
    1.7404   -1.0213    0.3540 C   0  0  0  0  0  0  0  0  0  0  0  0
    2.0838    0.2561   -0.0460 C   0  0  0  0  0  0  0  0  0  0  0  0
    0.8541    0.8958   -0.5273 C   0  0  0  0  0  0  0  0  0  0  0  0
    0.7486    2.0849   -0.9276 O   0  0  0  0  0  0  0  0  0  0  0  0
   -0.2465   -0.0154   -0.4513 N   0  0  0  0  0  0  0  0  0  0  0  0
   -1.6660    0.3465   -0.5317 C   0  0  0  0  0  0  0  0  0  0  0  0
   -2.2180    0.6252    0.8781 C   0  0  0  0  0  0  0  0  0  0  0  0
   -3.7223    0.9125    0.8438 C   0  0  0  0  0  0  0  0  0  0  0  0
   -4.4573   -0.2136    0.1779 C   0  0  0  0  0  0  0  0  0  0  0  0
   -5.6546   -0.4510    0.4890 O   0  0  0  0  0  0  0  0  0  0  0  0
   -3.8224   -0.9819   -0.8497 N   0  0  0  0  0  0  0  0  0  0  0  0
   -2.4617   -0.7347   -1.2224 C   0  0  0  0  0  0  0  0  0  0  0  0
   -1.9533   -1.3775   -2.1800 O   0  0  0  0  0  0  0  0  0  0  0  0
    0.3122   -1.1978    0.1301 C   0  0  0  0  0  0  0  0  0  0  0  0
   -0.3523   -2.2258    0.4281 O   0  0  0  0  0  0  0  0  0  0  0  0
    4.7778    2.3542   -0.2400 H   0  0  0  0  0  0  0  0  0  0  0  0
    3.1060    2.7070   -0.7560 H   0  0  0  0  0  0  0  0  0  0  0  0
    5.3974    0.1546    0.7017 H   0  0  0  0  0  0  0  0  0  0  0  0
    4.7559   -2.1275    1.4148 H   0  0  0  0  0  0  0  0  0  0  0  0
    2.3927   -2.8989    1.1994 H   0  0  0  0  0  0  0  0  0  0  0  0
   -1.7712    1.2705   -1.1417 H   0  0  0  0  0  0  0  0  0  0  0  0
   -2.0311   -0.2492    1.5401 H   0  0  0  0  0  0  0  0  0  0  0  0
   -1.6903    1.5011    1.3142 H   0  0  0  0  0  0  0  0  0  0  0  0
   -3.9130    1.8522    0.2823 H   0  0  0  0  0  0  0  0  0  0  0  0
   -4.0933    1.0426    1.8835 H   0  0  0  0  0  0  0  0  0  0  0  0
   -4.3602   -1.7344   -1.3358 H   0  0  0  0  0  0  0  0  0  0  0  0
  1  2  1  0
  2  3  2  0
  3  4  1  0
  4  5  2  0
  5  6  1  0
  6  7  2  0
  7  8  1  0
  8  9  2  0
  8 10  1  0
 10 11  1  0
 11 12  1  0
 12 13  1  0
 13 14  1  0
 14 15  2  0
 14 16  1  0
 16 17  1  0
 17 18  2  0
 10 19  1  0
 19 20  2  0
  7  2  1  0
 17 11  1  0
 19  6  1  0
  1 21  1  0
  1 22  1  0
  3 23  1  0
  4 24  1  0
  5 25  1  0
 11 26  1  0
 12 27  1  0
 12 28  1  0
 13 29  1  0
 13 30  1  0
 16 31  1  0
M  END
$$$$
