
     RDKit          3D

 42 43  0  0  0  0  0  0  0  0999 V2000
   -0.7047    1.1174   -0.4068 C   0  0  1  0  0  0  0  0  0  0  0  0
   -1.5876    1.9526   -1.3745 C   0  0  0  0  0  0  0  0  0  0  0  0
   -2.9019    2.4015   -0.7315 C   0  0  0  0  0  0  0  0  0  0  0  0
   -1.4304   -0.1312    0.0866 C   0  0  0  0  0  0  0  0  0  0  0  0
   -1.5498   -0.3642    1.4706 C   0  0  0  0  0  0  0  0  0  0  0  0
   -2.2377   -1.4826    1.9489 C   0  0  0  0  0  0  0  0  0  0  0  0
   -2.8349   -2.3759    1.0566 C   0  0  0  0  0  0  0  0  0  0  0  0
   -3.5159   -3.4875    1.5476 O   0  0  0  0  0  0  0  0  0  0  0  0
   -2.7464   -2.1433   -0.3207 C   0  0  0  0  0  0  0  0  0  0  0  0
   -2.0586   -1.0264   -0.8031 C   0  0  0  0  0  0  0  0  0  0  0  0
    0.7326    0.8703   -0.9891 C   0  0  2  0  0  0  0  0  0  0  0  0
    0.8458   -0.1186   -2.1856 C   0  0  0  0  0  0  0  0  0  0  0  0
    1.1140   -1.5855   -1.8364 C   0  0  0  0  0  0  0  0  0  0  0  0
    1.7988    0.6608    0.0876 C   0  0  0  0  0  0  0  0  0  0  0  0
    1.7340   -0.4047    1.0077 C   0  0  0  0  0  0  0  0  0  0  0  0
    2.7195   -0.5654    1.9855 C   0  0  0  0  0  0  0  0  0  0  0  0
    3.7893    0.3286    2.0614 C   0  0  0  0  0  0  0  0  0  0  0  0
    4.7633    0.1556    3.0422 O   0  0  0  0  0  0  0  0  0  0  0  0
    3.8733    1.3865    1.1497 C   0  0  0  0  0  0  0  0  0  0  0  0
    2.8896    1.5504    0.1704 C   0  0  0  0  0  0  0  0  0  0  0  0
   -0.5495    1.7861    0.4712 H   0  0  0  0  0  0  0  0  0  0  0  0
   -1.0383    2.8706   -1.6771 H   0  0  0  0  0  0  0  0  0  0  0  0
   -1.8140    1.3887   -2.3023 H   0  0  0  0  0  0  0  0  0  0  0  0
   -3.5443    1.5272   -0.4962 H   0  0  0  0  0  0  0  0  0  0  0  0
   -3.4537    3.0584   -1.4364 H   0  0  0  0  0  0  0  0  0  0  0  0
   -2.7023    2.9717    0.2005 H   0  0  0  0  0  0  0  0  0  0  0  0
   -1.0995    0.3151    2.1836 H   0  0  0  0  0  0  0  0  0  0  0  0
   -2.3088   -1.6535    3.0155 H   0  0  0  0  0  0  0  0  0  0  0  0
   -3.9604   -4.1531    0.9262 H   0  0  0  0  0  0  0  0  0  0  0  0
   -3.2136   -2.8258   -1.0193 H   0  0  0  0  0  0  0  0  0  0  0  0
   -2.0190   -0.8708   -1.8712 H   0  0  0  0  0  0  0  0  0  0  0  0
    0.9866    1.8483   -1.4568 H   0  0  0  0  0  0  0  0  0  0  0  0
    1.6899    0.2136   -2.8302 H   0  0  0  0  0  0  0  0  0  0  0  0
   -0.0586   -0.0560   -2.8226 H   0  0  0  0  0  0  0  0  0  0  0  0
    2.1294   -1.7023   -1.4034 H   0  0  0  0  0  0  0  0  0  0  0  0
    0.3641   -1.9878   -1.1313 H   0  0  0  0  0  0  0  0  0  0  0  0
    1.0718   -2.1942   -2.7641 H   0  0  0  0  0  0  0  0  0  0  0  0
    0.9387   -1.1306    0.9658 H   0  0  0  0  0  0  0  0  0  0  0  0
    2.6537   -1.3910    2.6828 H   0  0  0  0  0  0  0  0  0  0  0  0
    5.5520    0.7868    3.1222 H   0  0  0  0  0  0  0  0  0  0  0  0
    4.7008    2.0829    1.1981 H   0  0  0  0  0  0  0  0  0  0  0  0
    2.9827    2.3774   -0.5224 H   0  0  0  0  0  0  0  0  0  0  0  0
  1  2  1  0
  2  3  1  0
  1  4  1  0
  4  5  2  0
  5  6  1  0
  6  7  2  0
  7  8  1  0
  7  9  1  0
  9 10  2  0
  1 11  1  0
 11 12  1  0
 12 13  1  0
 11 14  1  0
 14 15  2  0
 15 16  1  0
 16 17  2  0
 17 18  1  0
 17 19  1  0
 19 20  2  0
 10  4  1  0
 20 14  1  0
  1 21  1  1
  2 22  1  0
  2 23  1  0
  3 24  1  0
  3 25  1  0
  3 26  1  0
  5 27  1  0
  6 28  1  0
  8 29  1  0
  9 30  1  0
 10 31  1  0
 11 32  1  6
 12 33  1  0
 12 34  1  0
 13 35  1  0
 13 36  1  0
 13 37  1  0
 15 38  1  0
 16 39  1  0
 18 40  1  0
 19 41  1  0
 20 42  1  0
M  END
$$$$
