
     RDKit          3D

 34 37  0  0  0  0  0  0  0  0999 V2000
   -2.0302   -1.3974    0.1432 C   0  0  2  0  0  0  0  0  0  0  0  0
   -2.7518   -2.1258   -1.0139 C   0  0  0  0  0  0  0  0  0  0  0  0
   -3.6047   -1.3032   -1.8018 O   0  0  0  0  0  0  0  0  0  0  0  0
   -4.4372   -0.1564   -0.8312 P   0  0  1  0  0  5  0  0  0  0  0  0
   -5.1433    1.0051   -1.8371 O   0  0  0  0  0  0  0  0  0  0  0  0
   -5.6786   -0.9376    0.0843 S   0  0  0  0  0  0  0  0  0  0  0  0
   -3.3418    0.6190    0.2300 O   0  0  0  0  0  0  0  0  0  0  0  0
   -2.0670    0.0997   -0.0634 C   0  0  1  0  0  0  0  0  0  0  0  0
   -0.9914    0.5518    0.8846 C   0  0  1  0  0  0  0  0  0  0  0  0
   -1.5178    0.7402    2.1738 O   0  0  0  0  0  0  0  0  0  0  0  0
   -0.0287   -0.6528    0.8630 C   0  0  1  0  0  0  0  0  0  0  0  0
   -0.6807   -1.7655    0.2724 O   0  0  0  0  0  0  0  0  0  0  0  0
    1.1739   -0.3259    0.0947 N   0  0  0  0  0  0  0  0  0  0  0  0
    1.3437   -0.3707   -1.2532 C   0  0  0  0  0  0  0  0  0  0  0  0
    2.5522    0.1066   -1.6614 N   0  0  0  0  0  0  0  0  0  0  0  0
    3.1351    0.4679   -0.5026 C   0  0  0  0  0  0  0  0  0  0  0  0
    4.3772    1.0519   -0.2816 C   0  0  0  0  0  0  0  0  0  0  0  0
    5.2761    1.3372   -1.3534 N   0  0  0  0  0  0  0  0  0  0  0  0
    4.7138    1.3547    1.0081 N   0  0  0  0  0  0  0  0  0  0  0  0
    3.8585    1.0969    2.0497 C   0  0  0  0  0  0  0  0  0  0  0  0
    2.6380    0.5249    1.8202 N   0  0  0  0  0  0  0  0  0  0  0  0
    2.3116    0.2191    0.5410 C   0  0  0  0  0  0  0  0  0  0  0  0
   -2.5557   -1.6533    1.0945 H   0  0  0  0  0  0  0  0  0  0  0  0
   -1.9877   -2.5599   -1.6931 H   0  0  0  0  0  0  0  0  0  0  0  0
   -3.3386   -2.9792   -0.6101 H   0  0  0  0  0  0  0  0  0  0  0  0
   -4.3812    1.4154   -2.3185 H   0  0  0  0  0  0  0  0  0  0  0  0
   -1.7524    0.3768   -1.0996 H   0  0  0  0  0  0  0  0  0  0  0  0
   -0.5175    1.4932    0.5182 H   0  0  0  0  0  0  0  0  0  0  0  0
   -0.8089    1.1918    2.7019 H   0  0  0  0  0  0  0  0  0  0  0  0
    0.2683   -0.9308    1.8990 H   0  0  0  0  0  0  0  0  0  0  0  0
    0.5897   -0.7329   -1.9402 H   0  0  0  0  0  0  0  0  0  0  0  0
    5.0247    1.1099   -2.3412 H   0  0  0  0  0  0  0  0  0  0  0  0
    6.2017    1.7790   -1.1581 H   0  0  0  0  0  0  0  0  0  0  0  0
    4.1509    1.3501    3.0594 H   0  0  0  0  0  0  0  0  0  0  0  0
  1  2  1  0
  2  3  1  0
  3  4  1  0
  4  5  1  6
  4  6  2  0
  4  7  1  0
  7  8  1  0
  8  9  1  0
  9 10  1  0
  9 11  1  0
 11 12  1  0
 11 13  1  0
 13 14  1  0
 14 15  2  0
 15 16  1  0
 16 17  2  0
 17 18  1  0
 17 19  1  0
 19 20  2  0
 20 21  1  0
 21 22  2  0
  8  1  1  0
 22 13  1  0
 12  1  1  0
 22 16  1  0
  1 23  1  1
  2 24  1  0
  2 25  1  0
  5 26  1  0
  8 27  1  6
  9 28  1  6
 10 29  1  0
 11 30  1  1
 14 31  1  0
 18 32  1  0
 18 33  1  0
 20 34  1  0
M  END
$$$$
