
     RDKit          3D

 31 33  0  0  0  0  0  0  0  0999 V2000
    4.8809    0.2188    1.3687 N   0  0  0  0  0  0  0  0  0  0  0  0
    4.4658   -0.1191    0.0397 C   0  0  0  0  0  0  0  0  0  0  0  0
    5.3429   -0.5649   -0.8104 N   0  0  0  0  0  4  0  0  0  0  0  0
    3.0418    0.0329   -0.3506 C   0  0  0  0  0  0  0  0  0  0  0  0
    2.6910    0.4792   -1.6555 C   0  0  0  0  0  0  0  0  0  0  0  0
    1.3419    0.6285   -2.0268 C   0  0  0  0  0  0  0  0  0  0  0  0
    0.3742    0.3250   -1.0751 C   0  0  0  0  0  0  0  0  0  0  0  0
   -0.9572    0.3914   -1.1927 N   0  0  0  0  0  0  0  0  0  0  0  0
   -1.4159   -0.0042    0.0248 C   0  0  0  0  0  0  0  0  0  0  0  0
   -0.4178   -0.3150    0.8970 N   0  0  0  0  0  0  0  0  0  0  0  0
    0.6959   -0.0977    0.1763 C   0  0  0  0  0  0  0  0  0  0  0  0
    2.0177   -0.2571    0.5829 C   0  0  0  0  0  0  0  0  0  0  0  0
   -2.8567   -0.0951    0.3755 C   0  0  0  0  0  0  0  0  0  0  0  0
   -3.8252   -0.2101   -0.6411 C   0  0  0  0  0  0  0  0  0  0  0  0
   -5.1828   -0.3045   -0.3231 C   0  0  0  0  0  0  0  0  0  0  0  0
   -5.5933   -0.2876    1.0099 C   0  0  0  0  0  0  0  0  0  0  0  0
   -4.6470   -0.1767    2.0295 C   0  0  0  0  0  0  0  0  0  0  0  0
   -3.2849   -0.0795    1.7226 C   0  0  0  0  0  0  0  0  0  0  0  0
   -2.3725    0.0458    2.7650 O   0  0  0  0  0  1  0  0  0  0  0  0
    4.2189    0.6611    2.0439 H   0  0  0  0  0  0  0  0  0  0  0  0
    5.8696    0.0749    1.6723 H   0  0  0  0  0  0  0  0  0  0  0  0
    6.3456   -0.6693   -0.5371 H   0  0  0  0  0  0  0  0  0  0  0  0
    5.0739   -0.8572   -1.7762 H   0  0  0  0  0  0  0  0  0  0  0  0
    3.4579    0.7304   -2.3768 H   0  0  0  0  0  0  0  0  0  0  0  0
    1.0682    0.9715   -3.0161 H   0  0  0  0  0  0  0  0  0  0  0  0
   -1.5001    0.7030   -2.0281 H   0  0  0  0  0  0  0  0  0  0  0  0
    2.2407   -0.6102    1.5817 H   0  0  0  0  0  0  0  0  0  0  0  0
   -3.5388   -0.2490   -1.6831 H   0  0  0  0  0  0  0  0  0  0  0  0
   -5.9175   -0.3965   -1.1127 H   0  0  0  0  0  0  0  0  0  0  0  0
   -6.6453   -0.3620    1.2533 H   0  0  0  0  0  0  0  0  0  0  0  0
   -4.9720   -0.1625    3.0622 H   0  0  0  0  0  0  0  0  0  0  0  0
  1  2  1  0
  2  3  2  3
  2  4  1  0
  4  5  2  0
  5  6  1  0
  6  7  2  0
  7  8  1  0
  8  9  1  0
  9 10  2  0
 10 11  1  0
 11 12  2  0
  9 13  1  0
 13 14  2  0
 14 15  1  0
 15 16  2  0
 16 17  1  0
 17 18  2  0
 18 19  1  0
 12  4  1  0
 18 13  1  0
 11  7  1  0
  1 20  1  0
  1 21  1  0
  3 22  1  0
  3 23  1  0
  5 24  1  0
  6 25  1  0
  8 26  1  0
 12 27  1  0
 14 28  1  0
 15 29  1  0
 16 30  1  0
 17 31  1  0
M  CHG  2   3   1  19  -1
M  END
$$$$
