
     RDKit          3D

 53 55  0  0  0  0  0  0  0  0999 V2000
    3.5284    1.6104    2.8215 C   0  0  0  0  0  0  0  0  0  0  0  0
    2.2649    1.1700    2.1281 C   0  0  0  0  0  0  0  0  0  0  0  0
    1.0517    1.2572    2.8279 C   0  0  0  0  0  0  0  0  0  0  0  0
   -0.1520    0.8999    2.2188 C   0  0  0  0  0  0  0  0  0  0  0  0
   -0.1705    0.4370    0.8940 C   0  0  0  0  0  0  0  0  0  0  0  0
    1.0420    0.3398    0.1912 C   0  0  0  0  0  0  0  0  0  0  0  0
    2.2623    0.6738    0.8014 C   0  0  0  0  0  0  0  0  0  0  0  0
    3.5038    0.5085    0.0178 C   0  0  0  0  0  0  0  0  0  0  0  0
    3.5900    1.0604   -1.1124 O   0  0  0  0  0  0  0  0  0  0  0  0
    4.5923   -0.2766    0.5342 N   0  0  0  0  0  0  0  0  0  0  0  0
    5.8299   -0.4970   -0.1622 C   0  0  0  0  0  0  0  0  0  0  0  0
    7.0294   -0.5518    0.5604 C   0  0  0  0  0  0  0  0  0  0  0  0
    8.2067   -0.7836   -0.0791 N   0  0  0  0  0  0  0  0  0  0  0  0
    8.2670   -0.9836   -1.4233 C   0  0  0  0  0  0  0  0  0  0  0  0
    9.5278   -1.2239   -2.0487 N   0  0  0  0  0  0  0  0  0  0  0  0
    7.0909   -0.9624   -2.1816 C   0  0  0  0  0  0  0  0  0  0  0  0
    5.8699   -0.7261   -1.5472 C   0  0  0  0  0  0  0  0  0  0  0  0
   -1.4452    0.0721    0.2297 C   0  0  0  0  0  0  0  0  0  0  0  0
   -1.5157    0.0970   -1.0299 O   0  0  0  0  0  0  0  0  0  0  0  0
   -2.5936   -0.3271    0.9963 N   0  0  0  0  0  0  0  0  0  0  0  0
   -3.9131   -0.5042    0.3929 C   0  0  0  0  0  0  0  0  0  0  0  0
   -4.5314    0.8646    0.0556 C   0  0  0  0  0  0  0  0  0  0  0  0
   -5.9980    0.8136   -0.4408 C   0  0  0  0  0  0  0  0  0  0  0  0
   -6.1987   -0.0861   -1.6638 C   0  0  0  0  0  0  0  0  0  0  0  0
   -6.8464   -1.3578   -1.1456 C   0  0  0  0  0  0  0  0  0  0  0  0
   -7.6428   -0.9452    0.0817 C   0  0  0  0  0  0  0  0  0  0  0  0
   -6.9854    0.3194    0.6286 C   0  0  0  0  0  0  0  0  0  0  0  0
    4.2617    2.0239    2.0982 H   0  0  0  0  0  0  0  0  0  0  0  0
    3.9792    0.7511    3.3594 H   0  0  0  0  0  0  0  0  0  0  0  0
    3.3112    2.4118    3.5597 H   0  0  0  0  0  0  0  0  0  0  0  0
    1.0336    1.6229    3.8475 H   0  0  0  0  0  0  0  0  0  0  0  0
   -1.0687    1.0177    2.7812 H   0  0  0  0  0  0  0  0  0  0  0  0
    1.0432   -0.0270   -0.8291 H   0  0  0  0  0  0  0  0  0  0  0  0
    4.5116   -0.6563    1.5038 H   0  0  0  0  0  0  0  0  0  0  0  0
    7.0278   -0.3992    1.6319 H   0  0  0  0  0  0  0  0  0  0  0  0
    9.5950   -1.3830   -3.0788 H   0  0  0  0  0  0  0  0  0  0  0  0
   10.4023   -1.2427   -1.4785 H   0  0  0  0  0  0  0  0  0  0  0  0
    7.1194   -1.1373   -3.2498 H   0  0  0  0  0  0  0  0  0  0  0  0
    4.9618   -0.7520   -2.1340 H   0  0  0  0  0  0  0  0  0  0  0  0
   -2.4785   -0.5891    2.0007 H   0  0  0  0  0  0  0  0  0  0  0  0
   -4.5613   -1.0505    1.1094 H   0  0  0  0  0  0  0  0  0  0  0  0
   -3.8173   -1.1302   -0.5188 H   0  0  0  0  0  0  0  0  0  0  0  0
   -4.4862    1.5130    0.9582 H   0  0  0  0  0  0  0  0  0  0  0  0
   -3.9135    1.3553   -0.7272 H   0  0  0  0  0  0  0  0  0  0  0  0
   -6.2772    1.8539   -0.7242 H   0  0  0  0  0  0  0  0  0  0  0  0
   -5.2546   -0.3003   -2.2097 H   0  0  0  0  0  0  0  0  0  0  0  0
   -6.8996    0.4094   -2.3722 H   0  0  0  0  0  0  0  0  0  0  0  0
   -6.0626   -2.0902   -0.8545 H   0  0  0  0  0  0  0  0  0  0  0  0
   -7.5013   -1.8196   -1.9160 H   0  0  0  0  0  0  0  0  0  0  0  0
   -7.6488   -1.7569    0.8414 H   0  0  0  0  0  0  0  0  0  0  0  0
   -8.6916   -0.7232   -0.2158 H   0  0  0  0  0  0  0  0  0  0  0  0
   -6.4876    0.1075    1.5992 H   0  0  0  0  0  0  0  0  0  0  0  0
   -7.7622    1.0926    0.8187 H   0  0  0  0  0  0  0  0  0  0  0  0
  1  2  1  0
  2  3  2  0
  3  4  1  0
  4  5  2  0
  5  6  1  0
  6  7  2  0
  7  8  1  0
  8  9  2  0
  8 10  1  0
 10 11  1  0
 11 12  2  0
 12 13  1  0
 13 14  2  0
 14 15  1  0
 14 16  1  0
 16 17  2  0
  5 18  1  0
 18 19  2  0
 18 20  1  0
 20 21  1  0
 21 22  1  0
 22 23  1  0
 23 24  1  0
 24 25  1  0
 25 26  1  0
 26 27  1  0
  7  2  1  0
 17 11  1  0
 27 23  1  0
  1 28  1  0
  1 29  1  0
  1 30  1  0
  3 31  1  0
  4 32  1  0
  6 33  1  0
 10 34  1  0
 12 35  1  0
 15 36  1  0
 15 37  1  0
 16 38  1  0
 17 39  1  0
 20 40  1  0
 21 41  1  0
 21 42  1  0
 22 43  1  0
 22 44  1  0
 23 45  1  0
 24 46  1  0
 24 47  1  0
 25 48  1  0
 25 49  1  0
 26 50  1  0
 26 51  1  0
 27 52  1  0
 27 53  1  0
M  END
$$$$
