
     RDKit          3D

 27 26  0  0  0  0  0  0  0  0999 V2000
    3.3706    0.1655    0.2831 C   0  0  0  0  0  0  0  0  0  0  0  0
    2.6661    0.3022   -1.0661 C   0  0  0  0  0  0  0  0  0  0  0  0
    1.7759   -0.9064   -1.4077 C   0  0  0  0  0  0  0  0  0  0  0  0
    0.6275   -1.1715   -0.4165 C   0  0  0  0  0  0  0  0  0  0  0  0
   -0.4026   -0.0286   -0.3741 C   0  0  0  0  0  0  0  0  0  0  0  0
   -1.5880   -0.3250    0.5714 C   0  0  2  0  0  0  0  0  0  0  0  0
   -2.5294   -1.3904   -0.0075 C   0  0  0  0  0  0  0  0  0  0  0  0
   -2.3452    0.9075    0.8165 N   0  0  0  0  0  0  0  0  0  0  0  0
   -3.1879    1.0807    1.9612 C   0  0  0  0  0  0  0  0  0  0  0  0
   -3.2975    0.1734    2.8283 O   0  0  0  0  0  0  0  0  0  0  0  0
    3.8978   -0.8098    0.3503 H   0  0  0  0  0  0  0  0  0  0  0  0
    4.1174    0.9798    0.3934 H   0  0  0  0  0  0  0  0  0  0  0  0
    2.6419    0.2535    1.1155 H   0  0  0  0  0  0  0  0  0  0  0  0
    3.4440    0.3891   -1.8554 H   0  0  0  0  0  0  0  0  0  0  0  0
    2.0783    1.2433   -1.0896 H   0  0  0  0  0  0  0  0  0  0  0  0
    1.3483   -0.7558   -2.4229 H   0  0  0  0  0  0  0  0  0  0  0  0
    2.4143   -1.8155   -1.4584 H   0  0  0  0  0  0  0  0  0  0  0  0
    1.0322   -1.3591    0.6003 H   0  0  0  0  0  0  0  0  0  0  0  0
    0.1269   -2.1057   -0.7446 H   0  0  0  0  0  0  0  0  0  0  0  0
   -0.7789    0.1813   -1.3996 H   0  0  0  0  0  0  0  0  0  0  0  0
    0.1033    0.8878   -0.0028 H   0  0  0  0  0  0  0  0  0  0  0  0
   -1.1783   -0.6923    1.5390 H   0  0  0  0  0  0  0  0  0  0  0  0
   -2.8845   -1.0900   -1.0164 H   0  0  0  0  0  0  0  0  0  0  0  0
   -3.4132   -1.5192    0.6520 H   0  0  0  0  0  0  0  0  0  0  0  0
   -2.0223   -2.3740   -0.0755 H   0  0  0  0  0  0  0  0  0  0  0  0
   -2.2798    1.7011    0.1391 H   0  0  0  0  0  0  0  0  0  0  0  0
   -3.7367    2.0045    2.0870 H   0  0  0  0  0  0  0  0  0  0  0  0
  1  2  1  0
  2  3  1  0
  3  4  1  0
  4  5  1  0
  5  6  1  0
  6  7  1  0
  6  8  1  0
  8  9  1  0
  9 10  2  0
  1 11  1  0
  1 12  1  0
  1 13  1  0
  2 14  1  0
  2 15  1  0
  3 16  1  0
  3 17  1  0
  4 18  1  0
  4 19  1  0
  5 20  1  0
  5 21  1  0
  6 22  1  1
  7 23  1  0
  7 24  1  0
  7 25  1  0
  8 26  1  0
  9 27  1  0
M  END
$$$$
