
     RDKit          3D

 51 53  0  0  0  0  0  0  0  0999 V2000
   -3.1932   -1.7651    0.0260 C   0  0  2  0  0  0  0  0  0  0  0  0
   -3.4878   -0.4996   -0.6536 N   0  0  0  0  0  0  0  0  0  0  0  0
   -3.4065   -1.5898    1.5457 C   0  0  0  0  0  0  0  0  0  0  0  0
   -2.4174   -0.6378    2.1796 C   0  0  0  0  0  0  0  0  0  0  0  0
   -2.6308    0.7507    2.1259 C   0  0  0  0  0  0  0  0  0  0  0  0
   -1.7023    1.6299    2.6920 C   0  0  0  0  0  0  0  0  0  0  0  0
   -0.5605    1.1313    3.3239 C   0  0  0  0  0  0  0  0  0  0  0  0
   -0.3442   -0.2473    3.3894 C   0  0  0  0  0  0  0  0  0  0  0  0
   -1.2653   -1.1296    2.8177 C   0  0  0  0  0  0  0  0  0  0  0  0
   -1.8099   -2.3136   -0.2926 C   0  0  0  0  0  0  0  0  0  0  0  0
   -1.3654   -3.2699    0.3992 O   0  0  0  0  0  0  0  0  0  0  0  0
   -1.0033   -1.8061   -1.3715 N   0  0  0  0  0  0  0  0  0  0  0  0
   -1.4689   -1.7486   -2.7493 C   0  0  0  0  0  0  0  0  0  0  0  0
   -0.2182   -1.8619   -3.6098 C   0  0  0  0  0  0  0  0  0  0  0  0
    0.9339   -1.4476   -2.7029 C   0  0  0  0  0  0  0  0  0  0  0  0
    0.4515   -1.7496   -1.2848 C   0  0  1  0  0  0  0  0  0  0  0  0
    0.9057   -0.6927   -0.3130 C   0  0  0  0  0  0  0  0  0  0  0  0
    0.1383    0.2636   -0.0163 O   0  0  0  0  0  0  0  0  0  0  0  0
    2.2366   -0.7417    0.2194 N   0  0  0  0  0  0  0  0  0  0  0  0
    2.7694    0.2922    1.1041 C   0  0  0  0  0  0  0  0  0  0  0  0
    2.9203    1.5923    0.3617 C   0  0  0  0  0  0  0  0  0  0  0  0
    2.0762    2.6793    0.6452 C   0  0  0  0  0  0  0  0  0  0  0  0
    2.2025    3.8749   -0.0704 C   0  0  0  0  0  0  0  0  0  0  0  0
    1.1411    5.2253    0.2856 Cl  0  0  0  0  0  0  0  0  0  0  0  0
    3.1716    3.9911   -1.0725 C   0  0  0  0  0  0  0  0  0  0  0  0
    4.0124    2.9126   -1.3608 C   0  0  0  0  0  0  0  0  0  0  0  0
    3.8874    1.7160   -0.6487 C   0  0  0  0  0  0  0  0  0  0  0  0
   -3.9309   -2.5246   -0.3173 H   0  0  0  0  0  0  0  0  0  0  0  0
   -2.6392    0.1109   -0.6847 H   0  0  0  0  0  0  0  0  0  0  0  0
   -3.8045   -0.6950   -1.6299 H   0  0  0  0  0  0  0  0  0  0  0  0
   -3.3502   -2.5826    2.0444 H   0  0  0  0  0  0  0  0  0  0  0  0
   -4.4389   -1.2169    1.7251 H   0  0  0  0  0  0  0  0  0  0  0  0
   -3.5132    1.1516    1.6433 H   0  0  0  0  0  0  0  0  0  0  0  0
   -1.8685    2.6982    2.6413 H   0  0  0  0  0  0  0  0  0  0  0  0
    0.1574    1.8128    3.7615 H   0  0  0  0  0  0  0  0  0  0  0  0
    0.5407   -0.6327    3.8791 H   0  0  0  0  0  0  0  0  0  0  0  0
   -1.0808   -2.1947    2.8759 H   0  0  0  0  0  0  0  0  0  0  0  0
   -1.9573   -0.7714   -2.9426 H   0  0  0  0  0  0  0  0  0  0  0  0
   -2.1715   -2.5825   -2.9674 H   0  0  0  0  0  0  0  0  0  0  0  0
   -0.0783   -2.9191   -3.9261 H   0  0  0  0  0  0  0  0  0  0  0  0
   -0.2813   -1.2139   -4.5109 H   0  0  0  0  0  0  0  0  0  0  0  0
    1.8612   -2.0111   -2.9447 H   0  0  0  0  0  0  0  0  0  0  0  0
    1.1245   -0.3587   -2.8393 H   0  0  0  0  0  0  0  0  0  0  0  0
    0.8403   -2.7428   -0.9672 H   0  0  0  0  0  0  0  0  0  0  0  0
    2.8559   -1.5426   -0.0394 H   0  0  0  0  0  0  0  0  0  0  0  0
    3.7656   -0.0242    1.4823 H   0  0  0  0  0  0  0  0  0  0  0  0
    2.1062    0.4049    1.9873 H   0  0  0  0  0  0  0  0  0  0  0  0
    1.3184    2.5968    1.4142 H   0  0  0  0  0  0  0  0  0  0  0  0
    3.2721    4.9141   -1.6291 H   0  0  0  0  0  0  0  0  0  0  0  0
    4.7594    3.0029   -2.1387 H   0  0  0  0  0  0  0  0  0  0  0  0
    4.5396    0.8846   -0.8862 H   0  0  0  0  0  0  0  0  0  0  0  0
  1  2  1  0
  1  3  1  0
  3  4  1  0
  4  5  2  0
  5  6  1  0
  6  7  2  0
  7  8  1  0
  8  9  2  0
  1 10  1  0
 10 11  2  0
 10 12  1  0
 12 13  1  0
 13 14  1  0
 14 15  1  0
 15 16  1  0
 16 17  1  0
 17 18  2  0
 17 19  1  0
 19 20  1  0
 20 21  1  0
 21 22  2  0
 22 23  1  0
 23 24  1  0
 23 25  2  0
 25 26  1  0
 26 27  2  0
  9  4  1  0
 16 12  1  0
 27 21  1  0
  1 28  1  6
  2 29  1  0
  2 30  1  0
  3 31  1  0
  3 32  1  0
  5 33  1  0
  6 34  1  0
  7 35  1  0
  8 36  1  0
  9 37  1  0
 13 38  1  0
 13 39  1  0
 14 40  1  0
 14 41  1  0
 15 42  1  0
 15 43  1  0
 16 44  1  1
 19 45  1  0
 20 46  1  0
 20 47  1  0
 22 48  1  0
 25 49  1  0
 26 50  1  0
 27 51  1  0
M  END
$$$$
