
     RDKit          3D

 16 15  0  0  0  0  0  0  0  0999 V2000
    1.0852    0.8591    0.5778 C   0  0  0  0  0  0  0  0  0  0  0  0
    2.1491   -0.1679    0.5541 C   0  0  0  0  0  0  0  0  0  0  0  0
    1.8719   -1.5192    0.3992 O   0  0  0  0  0  1  0  0  0  0  0  0
    3.3414    0.1872    0.7452 O   0  0  0  0  0  0  0  0  0  0  0  0
   -0.1653    0.7544    0.0641 C   0  0  0  0  0  0  0  0  0  0  0  0
   -1.1126    1.8847    0.2755 C   0  0  0  0  0  0  0  0  0  0  0  0
   -0.6885    3.0705    0.8664 O   0  0  0  0  0  1  0  0  0  0  0  0
   -2.3199    1.7824   -0.0690 O   0  0  0  0  0  0  0  0  0  0  0  0
   -0.6572   -0.4610   -0.7134 C   0  0  1  0  0  0  0  0  0  0  0  0
    0.3020   -0.8457   -1.6671 O   0  0  0  0  0  0  0  0  0  0  0  0
   -1.0026   -1.5977    0.2129 C   0  0  0  0  0  0  0  0  0  0  0  0
   -1.5777   -1.3405    1.4521 O   0  0  0  0  0  1  0  0  0  0  0  0
   -0.8434   -2.7915   -0.1561 O   0  0  0  0  0  0  0  0  0  0  0  0
    1.3734    1.7864    1.0583 H   0  0  0  0  0  0  0  0  0  0  0  0
   -1.5927   -0.1960   -1.2565 H   0  0  0  0  0  0  0  0  0  0  0  0
   -0.1631   -1.4052   -2.3435 H   0  0  0  0  0  0  0  0  0  0  0  0
  1  2  1  0
  2  3  1  0
  2  4  2  0
  1  5  2  0
  5  6  1  0
  6  7  1  0
  6  8  2  0
  5  9  1  0
  9 10  1  0
  9 11  1  0
 11 12  1  0
 11 13  2  0
  1 14  1  0
  9 15  1  6
 10 16  1  0
M  CHG  3   3  -1   7  -1  12  -1
M  END
$$$$
