
     RDKit          3D

 53 57  0  0  0  0  0  0  0  0999 V2000
   -0.2887    0.2961    1.0910 C   0  0  1  0  0  0  0  0  0  0  0  0
   -0.0562    1.5676    0.4786 O   0  0  0  0  0  0  0  0  0  0  0  0
   -1.1561    1.9618   -0.2677 C   0  0  0  0  0  0  0  0  0  0  0  0
   -1.2268    3.0464   -0.9025 O   0  0  0  0  0  0  0  0  0  0  0  0
   -2.1735    0.9450   -0.2071 C   0  0  0  0  0  0  0  0  0  0  0  0
   -1.6749   -0.0591    0.5889 C   0  0  0  0  0  0  0  0  0  0  0  0
   -2.4363   -1.1993    0.8412 C   0  0  0  0  0  0  0  0  0  0  0  0
   -3.7105   -1.3024    0.2656 C   0  0  0  0  0  0  0  0  0  0  0  0
   -4.2287   -0.2689   -0.5599 C   0  0  0  0  0  0  0  0  0  0  0  0
   -5.5048   -0.3769   -1.1339 O   0  0  0  0  0  0  0  0  0  0  0  0
   -6.3843   -1.4835   -0.9621 C   0  0  0  0  0  0  0  0  0  0  0  0
   -3.4361    0.8888   -0.8037 C   0  0  0  0  0  0  0  0  0  0  0  0
   -3.8366    1.9755   -1.6020 O   0  0  0  0  0  0  0  0  0  0  0  0
   -5.0756    2.1005   -2.2902 C   0  0  0  0  0  0  0  0  0  0  0  0
    0.7779   -0.7944    0.6974 C   0  0  2  0  0  0  0  0  0  0  0  0
    0.6579   -2.0127    1.5644 N   0  0  0  0  0  0  0  0  0  0  0  0
    0.4514   -1.7505    3.0091 C   0  0  0  0  0  0  0  0  0  0  0  0
    1.7933   -2.9312    1.3676 C   0  0  0  0  0  0  0  0  0  0  0  0
    3.0955   -2.3040    1.8763 C   0  0  0  0  0  0  0  0  0  0  0  0
    3.2867   -0.9331    1.2928 C   0  0  0  0  0  0  0  0  0  0  0  0
    4.5805   -0.3764    1.3195 C   0  0  0  0  0  0  0  0  0  0  0  0
    4.8269    0.7415    0.5403 C   0  0  0  0  0  0  0  0  0  0  0  0
    3.8817    1.2711   -0.2733 C   0  0  0  0  0  0  0  0  0  0  0  0
    4.4426    2.3152   -0.9876 O   0  0  0  0  0  0  0  0  0  0  0  0
    5.8105    2.4567   -0.5863 C   0  0  0  0  0  0  0  0  0  0  0  0
    6.0164    1.4273    0.3876 O   0  0  0  0  0  0  0  0  0  0  0  0
    2.5789    0.7516   -0.3363 C   0  0  0  0  0  0  0  0  0  0  0  0
    1.6620    1.1480   -1.3237 O   0  0  0  0  0  0  0  0  0  0  0  0
    1.9062    2.1306   -2.3238 C   0  0  0  0  0  0  0  0  0  0  0  0
    2.2263   -0.2682    0.5985 C   0  0  0  0  0  0  0  0  0  0  0  0
   -0.3271    0.4881    2.1799 H   0  0  0  0  0  0  0  0  0  0  0  0
   -2.0604   -2.0007    1.4597 H   0  0  0  0  0  0  0  0  0  0  0  0
   -4.2873   -2.1940    0.4682 H   0  0  0  0  0  0  0  0  0  0  0  0
   -7.3184   -1.2943   -1.5295 H   0  0  0  0  0  0  0  0  0  0  0  0
   -6.6401   -1.6053    0.1116 H   0  0  0  0  0  0  0  0  0  0  0  0
   -5.9135   -2.4102   -1.3529 H   0  0  0  0  0  0  0  0  0  0  0  0
   -5.0888    3.0685   -2.8316 H   0  0  0  0  0  0  0  0  0  0  0  0
   -5.9188    2.0953   -1.5679 H   0  0  0  0  0  0  0  0  0  0  0  0
   -5.1856    1.2846   -3.0351 H   0  0  0  0  0  0  0  0  0  0  0  0
    0.5247   -1.1194   -0.3370 H   0  0  0  0  0  0  0  0  0  0  0  0
    1.1190   -0.9397    3.3740 H   0  0  0  0  0  0  0  0  0  0  0  0
    0.6358   -2.6629    3.6174 H   0  0  0  0  0  0  0  0  0  0  0  0
   -0.6043   -1.4765    3.2055 H   0  0  0  0  0  0  0  0  0  0  0  0
    1.6082   -3.8932    1.8939 H   0  0  0  0  0  0  0  0  0  0  0  0
    1.8933   -3.1769    0.2865 H   0  0  0  0  0  0  0  0  0  0  0  0
    3.1039   -2.2438    2.9851 H   0  0  0  0  0  0  0  0  0  0  0  0
    3.9394   -2.9611    1.5719 H   0  0  0  0  0  0  0  0  0  0  0  0
    5.3850   -0.8423    1.8749 H   0  0  0  0  0  0  0  0  0  0  0  0
    5.9745    3.4551   -0.1294 H   0  0  0  0  0  0  0  0  0  0  0  0
    6.4832    2.3025   -1.4558 H   0  0  0  0  0  0  0  0  0  0  0  0
    1.0059    2.2225   -2.9652 H   0  0  0  0  0  0  0  0  0  0  0  0
    2.1025    3.1157   -1.8511 H   0  0  0  0  0  0  0  0  0  0  0  0
    2.7630    1.8250   -2.9602 H   0  0  0  0  0  0  0  0  0  0  0  0
  1  2  1  0
  2  3  1  0
  3  4  2  0
  3  5  1  0
  5  6  2  0
  6  7  1  0
  7  8  2  0
  8  9  1  0
  9 10  1  0
 10 11  1  0
  9 12  2  0
 12 13  1  0
 13 14  1  0
  1 15  1  0
 15 16  1  0
 16 17  1  0
 16 18  1  0
 18 19  1  0
 19 20  1  0
 20 21  2  0
 21 22  1  0
 22 23  2  0
 23 24  1  0
 24 25  1  0
 25 26  1  0
 23 27  1  0
 27 28  1  0
 28 29  1  0
 27 30  2  0
  6  1  1  0
 30 15  1  0
 12  5  1  0
 30 20  1  0
 26 22  1  0
  1 31  1  1
  7 32  1  0
  8 33  1  0
 11 34  1  0
 11 35  1  0
 11 36  1  0
 14 37  1  0
 14 38  1  0
 14 39  1  0
 15 40  1  6
 17 41  1  0
 17 42  1  0
 17 43  1  0
 18 44  1  0
 18 45  1  0
 19 46  1  0
 19 47  1  0
 21 48  1  0
 25 49  1  0
 25 50  1  0
 29 51  1  0
 29 52  1  0
 29 53  1  0
M  END
$$$$
