
     RDKit          3D

 49 48  0  0  0  0  0  0  0  0999 V2000
    7.4720    0.1478    0.9730 C   0  0  0  0  0  0  0  0  0  0  0  0
    6.3909   -0.4792    0.0972 C   0  0  0  0  0  0  0  0  0  0  0  0
    5.8503    0.5324   -0.9236 C   0  0  0  0  0  0  0  0  0  0  0  0
    4.8921   -0.1023   -1.9477 C   0  0  0  0  0  0  0  0  0  0  0  0
    3.6168   -0.7221   -1.3480 C   0  0  0  0  0  0  0  0  0  0  0  0
    2.7333    0.3060   -0.6257 C   0  0  0  0  0  0  0  0  0  0  0  0
    1.3948   -0.3156   -0.2083 C   0  0  0  0  0  0  0  0  0  0  0  0
    0.5158    0.7113    0.5218 C   0  0  0  0  0  0  0  0  0  0  0  0
   -0.7817    0.0978    1.0727 C   0  0  0  0  0  0  0  0  0  0  0  0
   -1.8107   -0.1975   -0.0322 C   0  0  0  0  0  0  0  0  0  0  0  0
   -3.1015   -0.8269    0.5156 C   0  0  0  0  0  0  0  0  0  0  0  0
   -3.9515    0.1664    1.3282 C   0  0  0  0  0  0  0  0  0  0  0  0
   -5.3463   -0.4024    1.6653 C   0  0  0  0  0  0  0  0  0  0  0  0
   -6.4719    0.1635    0.7824 C   0  0  0  0  0  0  0  0  0  0  0  0
   -6.3537   -0.2669   -0.6852 C   0  0  0  0  0  0  0  0  0  0  0  0
   -7.5458    0.1789   -1.4794 C   0  0  0  0  0  0  0  0  0  0  0  0
   -7.6185   -0.0862   -2.6684 O   0  0  0  0  0  0  0  0  0  0  0  0
    8.3314    0.4766    0.3506 H   0  0  0  0  0  0  0  0  0  0  0  0
    7.0627    1.0210    1.5246 H   0  0  0  0  0  0  0  0  0  0  0  0
    7.8338   -0.6000    1.7097 H   0  0  0  0  0  0  0  0  0  0  0  0
    5.5688   -0.8289    0.7569 H   0  0  0  0  0  0  0  0  0  0  0  0
    6.8213   -1.3570   -0.4321 H   0  0  0  0  0  0  0  0  0  0  0  0
    6.7057    0.9644   -1.4882 H   0  0  0  0  0  0  0  0  0  0  0  0
    5.3513    1.3741   -0.3982 H   0  0  0  0  0  0  0  0  0  0  0  0
    4.5997    0.6750   -2.6871 H   0  0  0  0  0  0  0  0  0  0  0  0
    5.4384   -0.8918   -2.5085 H   0  0  0  0  0  0  0  0  0  0  0  0
    3.0367   -1.1691   -2.1850 H   0  0  0  0  0  0  0  0  0  0  0  0
    3.8790   -1.5509   -0.6569 H   0  0  0  0  0  0  0  0  0  0  0  0
    3.2567    0.6705    0.2840 H   0  0  0  0  0  0  0  0  0  0  0  0
    2.5427    1.1702   -1.2996 H   0  0  0  0  0  0  0  0  0  0  0  0
    1.5876   -1.1818    0.4624 H   0  0  0  0  0  0  0  0  0  0  0  0
    0.8704   -0.6800   -1.1168 H   0  0  0  0  0  0  0  0  0  0  0  0
    0.2744    1.5570   -0.1591 H   0  0  0  0  0  0  0  0  0  0  0  0
    1.0893    1.1250    1.3804 H   0  0  0  0  0  0  0  0  0  0  0  0
   -1.2167    0.8273    1.7880 H   0  0  0  0  0  0  0  0  0  0  0  0
   -0.5499   -0.8317    1.6373 H   0  0  0  0  0  0  0  0  0  0  0  0
   -1.3737   -0.9143   -0.7583 H   0  0  0  0  0  0  0  0  0  0  0  0
   -2.0539    0.7360   -0.5855 H   0  0  0  0  0  0  0  0  0  0  0  0
   -2.8513   -1.7082    1.1462 H   0  0  0  0  0  0  0  0  0  0  0  0
   -3.6903   -1.1994   -0.3486 H   0  0  0  0  0  0  0  0  0  0  0  0
   -4.0436    1.1314    0.7832 H   0  0  0  0  0  0  0  0  0  0  0  0
   -3.4260    0.3794    2.2836 H   0  0  0  0  0  0  0  0  0  0  0  0
   -5.5863   -0.1319    2.7171 H   0  0  0  0  0  0  0  0  0  0  0  0
   -5.3510   -1.5140    1.6198 H   0  0  0  0  0  0  0  0  0  0  0  0
   -7.4407   -0.2030    1.1885 H   0  0  0  0  0  0  0  0  0  0  0  0
   -6.4775    1.2739    0.8496 H   0  0  0  0  0  0  0  0  0  0  0  0
   -5.4461    0.1856   -1.1377 H   0  0  0  0  0  0  0  0  0  0  0  0
   -6.2765   -1.3741   -0.7466 H   0  0  0  0  0  0  0  0  0  0  0  0
   -8.3507    0.7379   -1.0113 H   0  0  0  0  0  0  0  0  0  0  0  0
  1  2  1  0
  2  3  1  0
  3  4  1  0
  4  5  1  0
  5  6  1  0
  6  7  1  0
  7  8  1  0
  8  9  1  0
  9 10  1  0
 10 11  1  0
 11 12  1  0
 12 13  1  0
 13 14  1  0
 14 15  1  0
 15 16  1  0
 16 17  2  0
  1 18  1  0
  1 19  1  0
  1 20  1  0
  2 21  1  0
  2 22  1  0
  3 23  1  0
  3 24  1  0
  4 25  1  0
  4 26  1  0
  5 27  1  0
  5 28  1  0
  6 29  1  0
  6 30  1  0
  7 31  1  0
  7 32  1  0
  8 33  1  0
  8 34  1  0
  9 35  1  0
  9 36  1  0
 10 37  1  0
 10 38  1  0
 11 39  1  0
 11 40  1  0
 12 41  1  0
 12 42  1  0
 13 43  1  0
 13 44  1  0
 14 45  1  0
 14 46  1  0
 15 47  1  0
 15 48  1  0
 16 49  1  0
M  END
$$$$
