
     RDKit          3D

 33 33  0  0  0  0  0  0  0  0999 V2000
   -0.4601   -1.6228    0.4230 C   0  0  1  0  0  0  0  0  0  0  0  0
   -0.6718   -2.3413   -0.7721 O   0  0  0  0  0  0  0  0  0  0  0  0
    0.8250   -1.0277    0.4275 O   0  0  0  0  0  0  0  0  0  0  0  0
    1.0490   -0.2336   -0.7324 C   0  0  2  0  0  0  0  0  0  0  0  0
    2.3262    0.5860   -0.5124 C   0  0  0  0  0  0  0  0  0  0  0  0
    3.3989   -0.2860   -0.2440 O   0  0  0  0  0  0  0  0  0  0  0  0
    4.7906    0.6407    0.0353 S   0  0  0  0  0  6  0  0  0  0  0  0
    6.0832   -0.3942    0.3211 O   0  0  0  0  0  0  0  0  0  0  0  0
    4.5962    1.5140    1.2437 O   0  0  0  0  0  0  0  0  0  0  0  0
    5.1046    1.4966   -1.1607 O   0  0  0  0  0  0  0  0  0  0  0  0
   -0.1547    0.7016   -1.0848 C   0  0  1  0  0  0  0  0  0  0  0  0
   -0.8560    0.1893   -2.1896 O   0  0  0  0  0  0  0  0  0  0  0  0
   -1.1201    0.8417    0.1039 C   0  0  2  0  0  0  0  0  0  0  0  0
   -0.4857    1.5867    1.1134 O   0  0  0  0  0  0  0  0  0  0  0  0
   -1.5521   -0.5480    0.6634 C   0  0  1  0  0  0  0  0  0  0  0  0
   -2.8407   -1.0020    0.1052 N   0  0  0  0  0  0  0  0  0  0  0  0
   -4.1837   -0.4471    1.0625 S   0  0  0  0  0  6  0  0  0  0  0  0
   -4.1174    1.2205    1.2708 O   0  0  0  0  0  0  0  0  0  0  0  0
   -5.4688   -0.8127    0.3739 O   0  0  0  0  0  0  0  0  0  0  0  0
   -4.1488   -1.1134    2.4090 O   0  0  0  0  0  0  0  0  0  0  0  0
   -0.4883   -2.3371    1.2794 H   0  0  0  0  0  0  0  0  0  0  0  0
   -1.3178   -3.0672   -0.5678 H   0  0  0  0  0  0  0  0  0  0  0  0
    1.2581   -0.9087   -1.5940 H   0  0  0  0  0  0  0  0  0  0  0  0
    2.1610    1.2791    0.3432 H   0  0  0  0  0  0  0  0  0  0  0  0
    2.5344    1.1748   -1.4344 H   0  0  0  0  0  0  0  0  0  0  0  0
    6.0734   -1.0278   -0.4402 H   0  0  0  0  0  0  0  0  0  0  0  0
    0.2020    1.7272   -1.3447 H   0  0  0  0  0  0  0  0  0  0  0  0
   -0.2999    0.3710   -2.9920 H   0  0  0  0  0  0  0  0  0  0  0  0
   -2.0085    1.4120   -0.2525 H   0  0  0  0  0  0  0  0  0  0  0  0
   -1.2009    1.9328    1.7090 H   0  0  0  0  0  0  0  0  0  0  0  0
   -1.6439   -0.4539    1.7702 H   0  0  0  0  0  0  0  0  0  0  0  0
   -2.9688   -0.6500   -0.8710 H   0  0  0  0  0  0  0  0  0  0  0  0
   -4.4144    1.5993    0.4051 H   0  0  0  0  0  0  0  0  0  0  0  0
  1  2  1  0
  1  3  1  0
  3  4  1  0
  4  5  1  0
  5  6  1  0
  6  7  1  0
  7  8  1  0
  7  9  2  0
  7 10  2  0
  4 11  1  0
 11 12  1  0
 11 13  1  0
 13 14  1  0
 13 15  1  0
 15 16  1  0
 16 17  1  0
 17 18  1  0
 17 19  2  0
 17 20  2  0
 15  1  1  0
  1 21  1  1
  2 22  1  0
  4 23  1  6
  5 24  1  0
  5 25  1  0
  8 26  1  0
 11 27  1  6
 12 28  1  0
 13 29  1  6
 14 30  1  0
 15 31  1  1
 16 32  1  0
 18 33  1  0
M  END
$$$$
