
     RDKit          3D

 29 30  0  0  0  0  0  0  0  0999 V2000
    4.9140    1.6186    0.8799 N   0  0  0  0  0  0  0  0  0  0  0  0
    3.4905    1.7225    0.8289 C   0  0  0  0  0  0  0  0  0  0  0  0
    2.9192    2.7042    1.3739 O   0  0  0  0  0  0  0  0  0  0  0  0
    2.6856    0.6987    0.1487 C   0  0  0  0  0  0  0  0  0  0  0  0
    1.3406    0.7411    0.0728 N   0  0  0  0  0  0  0  0  0  0  0  0
    0.9951   -0.3352   -0.6097 N   0  0  0  0  0  0  0  0  0  0  0  0
    2.1098   -1.0193   -0.9171 C   0  0  0  0  0  0  0  0  0  0  0  0
    3.2094   -0.3911   -0.4575 N   0  0  0  0  0  0  0  0  0  0  0  0
   -0.3820   -0.7461   -0.8738 C   0  0  2  0  0  0  0  0  0  0  0  0
   -1.1884    0.3923   -1.0966 O   0  0  0  0  0  0  0  0  0  0  0  0
   -2.3596    0.2675   -0.3151 C   0  0  2  0  0  0  0  0  0  0  0  0
   -2.3733    1.3705    0.7550 C   0  0  0  0  0  0  0  0  0  0  0  0
   -2.3052    2.6361    0.1554 O   0  0  0  0  0  0  0  0  0  0  0  0
   -2.3950   -1.1300    0.3138 C   0  0  1  0  0  0  0  0  0  0  0  0
   -3.1963   -2.0099   -0.4425 O   0  0  0  0  0  0  0  0  0  0  0  0
   -0.9402   -1.5357    0.3028 C   0  0  1  0  0  0  0  0  0  0  0  0
   -0.7689   -2.9163    0.1120 O   0  0  0  0  0  0  0  0  0  0  0  0
    5.4764    2.3518    1.3661 H   0  0  0  0  0  0  0  0  0  0  0  0
    5.4128    0.8158    0.4364 H   0  0  0  0  0  0  0  0  0  0  0  0
    2.1263   -1.9590   -1.4539 H   0  0  0  0  0  0  0  0  0  0  0  0
   -0.4099   -1.3686   -1.7970 H   0  0  0  0  0  0  0  0  0  0  0  0
   -3.2471    0.4099   -0.9707 H   0  0  0  0  0  0  0  0  0  0  0  0
   -1.4958    1.2513    1.4263 H   0  0  0  0  0  0  0  0  0  0  0  0
   -3.2937    1.2919    1.3778 H   0  0  0  0  0  0  0  0  0  0  0  0
   -3.2052    2.8210   -0.2209 H   0  0  0  0  0  0  0  0  0  0  0  0
   -2.7841   -1.1147    1.3560 H   0  0  0  0  0  0  0  0  0  0  0  0
   -2.8642   -2.0079   -1.3788 H   0  0  0  0  0  0  0  0  0  0  0  0
   -0.4534   -1.2091    1.2529 H   0  0  0  0  0  0  0  0  0  0  0  0
   -1.0175   -3.3500    0.9695 H   0  0  0  0  0  0  0  0  0  0  0  0
  1  2  1  0
  2  3  2  0
  2  4  1  0
  4  5  2  0
  5  6  1  0
  6  7  1  0
  7  8  2  0
  6  9  1  0
  9 10  1  0
 10 11  1  0
 11 12  1  0
 12 13  1  0
 11 14  1  0
 14 15  1  0
 14 16  1  0
 16 17  1  0
  8  4  1  0
 16  9  1  0
  1 18  1  0
  1 19  1  0
  7 20  1  0
  9 21  1  6
 11 22  1  6
 12 23  1  0
 12 24  1  0
 13 25  1  0
 14 26  1  1
 15 27  1  0
 16 28  1  1
 17 29  1  0
M  END
$$$$
