
     RDKit          3D

 33 35  0  0  0  0  0  0  0  0999 V2000
   -1.5175    3.4900    0.3087 O   0  0  0  0  0  0  0  0  0  0  0  0
   -1.9322    2.1629    0.2019 C   0  0  0  0  0  0  0  0  0  0  0  0
   -1.2172    1.3631    1.2625 C   0  0  2  0  0  0  0  0  0  0  0  0
    0.1563    1.4856    1.0212 O   0  0  0  0  0  0  0  0  0  0  0  0
    0.4080    0.6842   -0.1167 C   0  0  2  0  0  0  0  0  0  0  0  0
   -0.6279   -0.3291   -0.2017 C   0  0  1  0  0  0  0  0  0  0  0  0
   -0.3516   -1.6262   -0.0037 O   0  0  0  0  0  0  0  0  0  0  0  0
   -2.5356   -1.9485   -0.0588 V   0  0  0  0  0  6  0  0  0  0  0  0
   -2.9734   -1.3259   -1.4718 O   0  0  0  0  0  0  0  0  0  0  0  0
   -2.8532   -2.8817    1.1445 O   0  0  0  0  0  0  0  0  0  0  0  0
   -1.8228   -3.2663   -0.9320 O   0  0  0  0  0  0  0  0  0  0  0  0
   -2.5471   -0.6231    0.7595 O   0  0  0  0  0  0  0  0  0  0  0  0
   -1.3795   -0.0991    1.1309 C   0  0  2  0  0  0  0  0  0  0  0  0
    1.7626    0.2298   -0.1763 N   0  0  0  0  0  0  0  0  0  0  0  0
    2.5189   -0.0317    0.8970 C   0  0  0  0  0  0  0  0  0  0  0  0
    3.8236   -0.4686    0.7330 C   0  0  0  0  0  0  0  0  0  0  0  0
    4.3538   -0.6377   -0.5297 C   0  0  0  0  0  0  0  0  0  0  0  0
    5.5467   -1.0370   -0.7069 O   0  0  0  0  0  0  0  0  0  0  0  0
    3.5668   -0.3661   -1.5826 N   0  0  0  0  0  0  0  0  0  0  0  0
    2.3268    0.0489   -1.3859 C   0  0  0  0  0  0  0  0  0  0  0  0
    1.6298    0.2903   -2.4271 O   0  0  0  0  0  0  0  0  0  0  0  0
   -2.0315    4.0922   -0.2817 H   0  0  0  0  0  0  0  0  0  0  0  0
   -1.7735    1.7621   -0.7959 H   0  0  0  0  0  0  0  0  0  0  0  0
   -3.0213    2.1606    0.4647 H   0  0  0  0  0  0  0  0  0  0  0  0
   -1.4584    1.6756    2.2775 H   0  0  0  0  0  0  0  0  0  0  0  0
    0.2805    1.4160   -0.9710 H   0  0  0  0  0  0  0  0  0  0  0  0
   -1.3026   -0.2048   -1.0604 H   0  0  0  0  0  0  0  0  0  0  0  0
   -3.5096   -0.5824   -1.7463 H   0  0  0  0  0  0  0  0  0  0  0  0
   -3.1159   -3.7726    1.3643 H   0  0  0  0  0  0  0  0  0  0  0  0
   -0.8652   -0.6022    1.9523 H   0  0  0  0  0  0  0  0  0  0  0  0
    2.0910    0.1048    1.9026 H   0  0  0  0  0  0  0  0  0  0  0  0
    4.4282   -0.6778    1.5957 H   0  0  0  0  0  0  0  0  0  0  0  0
    3.9431   -0.4854   -2.5679 H   0  0  0  0  0  0  0  0  0  0  0  0
  1  2  1  0
  2  3  1  0
  3  4  1  0
  4  5  1  0
  5  6  1  0
  6  7  1  0
  7  8  1  0
  8  9  1  0
  8 10  1  0
  8 11  2  0
  8 12  1  0
 12 13  1  0
  5 14  1  0
 14 15  1  0
 15 16  2  0
 16 17  1  0
 17 18  2  0
 17 19  1  0
 19 20  1  0
 20 21  2  0
 13  3  1  0
 20 14  1  0
 13  6  1  0
  1 22  1  0
  2 23  1  0
  2 24  1  0
  3 25  1  1
  5 26  1  6
  6 27  1  6
  9 28  1  0
 10 29  1  0
 13 30  1  1
 15 31  1  0
 16 32  1  0
 19 33  1  0
M  RAD  1   8   2
M  END
$$$$
