
     RDKit          3D

 45 47  0  0  0  0  0  0  0  0999 V2000
    5.5068    0.8181    0.0899 C   0  0  0  0  0  0  0  0  0  0  0  0
    4.2104    1.5830    0.3315 C   0  0  0  0  0  0  0  0  0  0  0  0
    3.0614    0.6836    0.2593 N   0  0  0  0  0  0  0  0  0  0  0  0
    2.6908   -0.1837    1.3415 C   0  0  0  0  0  0  0  0  0  0  0  0
    3.4628   -0.3279    2.3274 O   0  0  0  0  0  0  0  0  0  0  0  0
    1.4309   -0.9454    1.3068 C   0  0  0  0  0  0  0  0  0  0  0  0
    1.2589   -2.1160    1.9550 N   0  0  0  0  0  0  0  0  0  0  0  0
    0.0326   -2.5495    1.7025 N   0  0  0  0  0  0  0  0  0  0  0  0
   -0.6041   -1.6742    0.9010 C   0  0  0  0  0  0  0  0  0  0  0  0
    0.2611   -0.6295    0.6323 C   0  0  0  0  0  0  0  0  0  0  0  0
   -0.0301    0.5728   -0.0974 N   0  0  0  0  0  0  0  0  0  0  0  0
   -0.0281    1.8662    0.5991 C   0  0  0  0  0  0  0  0  0  0  0  0
    0.5309    3.0008   -0.2899 C   0  0  0  0  0  0  0  0  0  0  0  0
    0.6028    2.6454   -1.7176 N   0  0  0  0  0  0  0  0  0  0  0  0
   -0.5623    1.8609   -2.1306 C   0  0  0  0  0  0  0  0  0  0  0  0
   -0.4808    0.4762   -1.4907 C   0  0  0  0  0  0  0  0  0  0  0  0
   -2.0271   -1.7814    0.5247 C   0  0  0  0  0  0  0  0  0  0  0  0
   -2.8958   -0.7199    0.8256 C   0  0  0  0  0  0  0  0  0  0  0  0
   -4.2546   -0.7997    0.5081 C   0  0  0  0  0  0  0  0  0  0  0  0
   -5.3119    0.5485    0.8956 Cl  0  0  0  0  0  0  0  0  0  0  0  0
   -4.7636   -1.9500   -0.1067 C   0  0  0  0  0  0  0  0  0  0  0  0
   -6.1200   -2.0313   -0.4179 O   0  0  0  0  0  0  0  0  0  0  0  0
   -3.9041   -3.0145   -0.4072 C   0  0  0  0  0  0  0  0  0  0  0  0
   -2.5395   -2.9372   -0.1060 C   0  0  0  0  0  0  0  0  0  0  0  0
   -1.7209   -4.0093   -0.4669 O   0  0  0  0  0  0  0  0  0  0  0  0
    5.4723    0.3144   -0.8995 H   0  0  0  0  0  0  0  0  0  0  0  0
    5.6642    0.0564    0.8815 H   0  0  0  0  0  0  0  0  0  0  0  0
    6.3633    1.5246    0.1022 H   0  0  0  0  0  0  0  0  0  0  0  0
    4.1093    2.3679   -0.4490 H   0  0  0  0  0  0  0  0  0  0  0  0
    4.2391    2.0872    1.3216 H   0  0  0  0  0  0  0  0  0  0  0  0
    2.4996    0.6799   -0.6202 H   0  0  0  0  0  0  0  0  0  0  0  0
   -0.3719   -3.4227    2.1079 H   0  0  0  0  0  0  0  0  0  0  0  0
    0.5621    1.8082    1.5396 H   0  0  0  0  0  0  0  0  0  0  0  0
   -1.0736    2.1125    0.8835 H   0  0  0  0  0  0  0  0  0  0  0  0
    1.5554    3.2575    0.0543 H   0  0  0  0  0  0  0  0  0  0  0  0
   -0.0966    3.9109   -0.1555 H   0  0  0  0  0  0  0  0  0  0  0  0
    0.6131    3.5324   -2.2736 H   0  0  0  0  0  0  0  0  0  0  0  0
   -1.5057    2.3715   -1.8298 H   0  0  0  0  0  0  0  0  0  0  0  0
   -0.5682    1.7524   -3.2371 H   0  0  0  0  0  0  0  0  0  0  0  0
    0.2483   -0.1382   -2.0629 H   0  0  0  0  0  0  0  0  0  0  0  0
   -1.4737   -0.0158   -1.5455 H   0  0  0  0  0  0  0  0  0  0  0  0
   -2.5203    0.1653    1.3227 H   0  0  0  0  0  0  0  0  0  0  0  0
   -6.5138   -2.8519   -0.8632 H   0  0  0  0  0  0  0  0  0  0  0  0
   -4.2944   -3.9020   -0.8897 H   0  0  0  0  0  0  0  0  0  0  0  0
   -0.7152   -3.9960   -0.3568 H   0  0  0  0  0  0  0  0  0  0  0  0
  1  2  1  0
  2  3  1  0
  3  4  1  0
  4  5  2  0
  4  6  1  0
  6  7  2  0
  7  8  1  0
  8  9  1  0
  9 10  2  0
 10 11  1  0
 11 12  1  0
 12 13  1  0
 13 14  1  0
 14 15  1  0
 15 16  1  0
  9 17  1  0
 17 18  2  0
 18 19  1  0
 19 20  1  0
 19 21  2  0
 21 22  1  0
 21 23  1  0
 23 24  2  0
 24 25  1  0
 10  6  1  0
 16 11  1  0
 24 17  1  0
  1 26  1  0
  1 27  1  0
  1 28  1  0
  2 29  1  0
  2 30  1  0
  3 31  1  0
  8 32  1  0
 12 33  1  0
 12 34  1  0
 13 35  1  0
 13 36  1  0
 14 37  1  0
 15 38  1  0
 15 39  1  0
 16 40  1  0
 16 41  1  0
 18 42  1  0
 22 43  1  0
 23 44  1  0
 25 45  1  0
M  END
$$$$
