
     RDKit          3D

 34 35  0  0  0  0  0  0  0  0999 V2000
    5.3614   -1.8132   -0.5634 N   0  0  0  0  0  0  0  0  0  0  0  0
    4.9728   -0.6213    0.1190 C   0  0  0  0  0  0  0  0  0  0  0  0
    3.7071   -0.3341    0.2170 N   0  0  0  0  0  0  0  0  0  0  0  0
    3.1572    0.8431    0.8815 C   0  0  0  0  0  0  0  0  0  0  0  0
    1.6596    0.8148    0.7800 C   0  0  0  0  0  0  0  0  0  0  0  0
    0.8960    0.1587    1.7577 C   0  0  0  0  0  0  0  0  0  0  0  0
   -0.4963    0.1010    1.6453 C   0  0  0  0  0  0  0  0  0  0  0  0
   -1.1423    0.6869    0.5457 C   0  0  0  0  0  0  0  0  0  0  0  0
   -0.3782    1.3323   -0.4389 C   0  0  0  0  0  0  0  0  0  0  0  0
    1.0141    1.3895   -0.3257 C   0  0  0  0  0  0  0  0  0  0  0  0
   -2.7118    0.6214    0.4178 B   0  0  0  0  0  0  0  0  0  0  0  0
   -3.4411   -0.3654    1.1943 O   0  0  0  0  0  0  0  0  0  0  0  0
   -3.9081   -1.2009    0.1722 C   0  0  0  0  0  0  0  0  0  0  0  0
   -3.8390   -0.4118   -1.1588 C   0  0  1  0  0  0  0  0  0  0  0  0
   -5.2104   -0.2821   -1.8380 C   0  0  0  0  0  0  0  0  0  0  0  0
   -6.1210    0.3963   -1.0134 O   0  0  0  0  0  0  0  0  0  0  0  0
   -3.3229    0.8615   -0.8778 O   0  0  0  0  0  0  0  0  0  0  0  0
    5.9833    0.2283    0.6783 N   0  0  0  0  0  0  0  0  0  0  0  0
    4.6415   -2.4461   -0.9782 H   0  0  0  0  0  0  0  0  0  0  0  0
    6.3698   -2.0670   -0.6562 H   0  0  0  0  0  0  0  0  0  0  0  0
    3.5511    1.7655    0.4007 H   0  0  0  0  0  0  0  0  0  0  0  0
    3.4633    0.8494    1.9509 H   0  0  0  0  0  0  0  0  0  0  0  0
    1.3788   -0.3083    2.6074 H   0  0  0  0  0  0  0  0  0  0  0  0
   -1.0644   -0.4048    2.4167 H   0  0  0  0  0  0  0  0  0  0  0  0
   -0.8538    1.7897   -1.2981 H   0  0  0  0  0  0  0  0  0  0  0  0
    1.5890    1.8820   -1.1003 H   0  0  0  0  0  0  0  0  0  0  0  0
   -4.9437   -1.5240    0.4150 H   0  0  0  0  0  0  0  0  0  0  0  0
   -3.2720   -2.1133    0.1165 H   0  0  0  0  0  0  0  0  0  0  0  0
   -3.1516   -0.9335   -1.8647 H   0  0  0  0  0  0  0  0  0  0  0  0
   -5.6102   -1.2956   -2.0542 H   0  0  0  0  0  0  0  0  0  0  0  0
   -5.0995    0.2468   -2.8122 H   0  0  0  0  0  0  0  0  0  0  0  0
   -5.9242    1.3649   -1.1058 H   0  0  0  0  0  0  0  0  0  0  0  0
    6.9904   -0.0296    0.5829 H   0  0  0  0  0  0  0  0  0  0  0  0
    5.7549    1.1102    1.1866 H   0  0  0  0  0  0  0  0  0  0  0  0
  1  2  1  0
  2  3  2  3
  3  4  1  0
  4  5  1  0
  5  6  2  0
  6  7  1  0
  7  8  2  0
  8  9  1  0
  9 10  2  0
  8 11  1  0
 11 12  1  0
 12 13  1  0
 13 14  1  0
 14 15  1  0
 15 16  1  0
 14 17  1  0
  2 18  1  0
 10  5  1  0
 17 11  1  0
  1 19  1  0
  1 20  1  0
  4 21  1  0
  4 22  1  0
  6 23  1  0
  7 24  1  0
  9 25  1  0
 10 26  1  0
 13 27  1  0
 13 28  1  0
 14 29  1  6
 15 30  1  0
 15 31  1  0
 16 32  1  0
 18 33  1  0
 18 34  1  0
M  END
$$$$
