
     RDKit          3D

 82 84  0  0  0  0  0  0  0  0999 V2000
   10.9456    3.0443    0.6261 C   0  0  0  0  0  0  0  0  0  0  0  0
    9.4353    2.8230    0.6976 C   0  0  0  0  0  0  0  0  0  0  0  0
    8.7820    2.6759   -0.6881 C   0  0  0  0  0  0  0  0  0  0  0  0
    9.2592    1.4569   -1.5027 C   0  0  0  0  0  0  0  0  0  0  0  0
    8.9292    0.0964   -0.8652 C   0  0  0  0  0  0  0  0  0  0  0  0
    7.4437   -0.1262   -0.7325 C   0  0  0  0  0  0  0  0  0  0  0  0
    6.6735   -0.4366   -1.8630 C   0  0  0  0  0  0  0  0  0  0  0  0
    5.2923   -0.6207   -1.7509 C   0  0  0  0  0  0  0  0  0  0  0  0
    4.6558   -0.5015   -0.5019 C   0  0  0  0  0  0  0  0  0  0  0  0
    5.4297   -0.1733    0.6252 C   0  0  0  0  0  0  0  0  0  0  0  0
    6.8105    0.0088    0.5118 C   0  0  0  0  0  0  0  0  0  0  0  0
    3.1912   -0.6848   -0.3589 C   0  0  0  0  0  0  0  0  0  0  0  0
    2.5828   -0.0444    0.5417 O   0  0  0  0  0  0  0  0  0  0  0  0
    2.4602   -1.5686   -1.2304 N   0  0  0  0  0  0  0  0  0  0  0  0
    1.0589   -1.8552   -1.0851 C   0  0  0  0  0  0  0  0  0  0  0  0
    0.4741   -2.0353    0.1797 C   0  0  0  0  0  0  0  0  0  0  0  0
   -0.8869   -2.3331    0.2935 C   0  0  0  0  0  0  0  0  0  0  0  0
   -1.6865   -2.4543   -0.8524 C   0  0  0  0  0  0  0  0  0  0  0  0
   -1.0893   -2.3286   -2.1161 C   0  0  0  0  0  0  0  0  0  0  0  0
    0.2711   -2.0313   -2.2305 C   0  0  0  0  0  0  0  0  0  0  0  0
   -3.4154   -2.8220   -0.7175 S   0  0  0  0  0  6  0  0  0  0  0  0
   -3.5542   -4.1542   -0.0347 O   0  0  0  0  0  0  0  0  0  0  0  0
   -3.9994   -2.9594   -2.0948 O   0  0  0  0  0  0  0  0  0  0  0  0
   -4.3290   -1.6126    0.1831 N   0  0  0  0  0  0  0  0  0  0  0  0
   -3.9398   -1.5872    1.6111 C   0  0  0  0  0  0  0  0  0  0  0  0
   -5.1720   -1.4565    2.5207 C   0  0  0  0  0  0  0  0  0  0  0  0
   -5.8274   -0.1414    2.3749 N   0  0  0  0  0  0  0  0  0  0  0  0
   -5.1750    0.8932    3.1986 C   0  0  0  0  0  0  0  0  0  0  0  0
   -5.8494    2.2596    2.9509 C   0  0  0  0  0  0  0  0  0  0  0  0
   -7.0448    2.1436    2.1980 O   0  0  0  0  0  0  0  0  0  0  0  0
   -7.8926    1.1794    2.7900 C   0  0  0  0  0  0  0  0  0  0  0  0
   -7.2591   -0.2251    2.7258 C   0  0  0  0  0  0  0  0  0  0  0  0
   -4.4463   -0.2572   -0.4393 C   0  0  2  0  0  0  0  0  0  0  0  0
   -5.8777   -0.0204   -1.0265 C   0  0  0  0  0  0  0  0  0  0  0  0
   -6.4611   -1.1781   -1.8516 C   0  0  0  0  0  0  0  0  0  0  0  0
   -6.0086    1.3155   -1.7741 C   0  0  0  0  0  0  0  0  0  0  0  0
   -3.2613    0.1534   -1.3036 C   0  0  0  0  0  0  0  0  0  0  0  0
   -2.2634    0.6803   -0.7398 O   0  0  0  0  0  0  0  0  0  0  0  0
   -3.2250   -0.0442   -2.7214 N   0  0  0  0  0  0  0  0  0  0  0  0
   -2.1900    0.4388   -3.4494 O   0  0  0  0  0  0  0  0  0  0  0  0
   11.3285    3.3029    1.6358 H   0  0  0  0  0  0  0  0  0  0  0  0
   11.4611    2.1209    0.2902 H   0  0  0  0  0  0  0  0  0  0  0  0
   11.1851    3.8784   -0.0672 H   0  0  0  0  0  0  0  0  0  0  0  0
    9.2175    1.9404    1.3329 H   0  0  0  0  0  0  0  0  0  0  0  0
    8.9799    3.7035    1.2004 H   0  0  0  0  0  0  0  0  0  0  0  0
    7.6795    2.6250   -0.5600 H   0  0  0  0  0  0  0  0  0  0  0  0
    8.9889    3.5950   -1.2786 H   0  0  0  0  0  0  0  0  0  0  0  0
   10.3544    1.5221   -1.6715 H   0  0  0  0  0  0  0  0  0  0  0  0
    8.7875    1.5041   -2.5084 H   0  0  0  0  0  0  0  0  0  0  0  0
    9.3520   -0.7045   -1.5099 H   0  0  0  0  0  0  0  0  0  0  0  0
    9.4362   -0.0033    0.1177 H   0  0  0  0  0  0  0  0  0  0  0  0
    7.1428   -0.5267   -2.8350 H   0  0  0  0  0  0  0  0  0  0  0  0
    4.7282   -0.8240   -2.6504 H   0  0  0  0  0  0  0  0  0  0  0  0
    4.9670   -0.0683    1.5989 H   0  0  0  0  0  0  0  0  0  0  0  0
    7.3841    0.2560    1.3960 H   0  0  0  0  0  0  0  0  0  0  0  0
    2.9457   -1.9941   -2.0502 H   0  0  0  0  0  0  0  0  0  0  0  0
    1.0724   -1.9774    1.0792 H   0  0  0  0  0  0  0  0  0  0  0  0
   -1.3010   -2.4846    1.2778 H   0  0  0  0  0  0  0  0  0  0  0  0
   -1.6740   -2.4530   -3.0177 H   0  0  0  0  0  0  0  0  0  0  0  0
    0.7112   -1.9268   -3.2143 H   0  0  0  0  0  0  0  0  0  0  0  0
   -3.1889   -0.7936    1.8125 H   0  0  0  0  0  0  0  0  0  0  0  0
   -3.4653   -2.5456    1.9073 H   0  0  0  0  0  0  0  0  0  0  0  0
   -4.8738   -1.6350    3.5790 H   0  0  0  0  0  0  0  0  0  0  0  0
   -5.8721   -2.2771    2.2417 H   0  0  0  0  0  0  0  0  0  0  0  0
   -4.0969    0.9743    2.9446 H   0  0  0  0  0  0  0  0  0  0  0  0
   -5.2517    0.6344    4.2797 H   0  0  0  0  0  0  0  0  0  0  0  0
   -6.0521    2.7735    3.9172 H   0  0  0  0  0  0  0  0  0  0  0  0
   -5.1503    2.9078    2.3807 H   0  0  0  0  0  0  0  0  0  0  0  0
   -8.1233    1.4551    3.8449 H   0  0  0  0  0  0  0  0  0  0  0  0
   -8.8585    1.1731    2.2418 H   0  0  0  0  0  0  0  0  0  0  0  0
   -7.3974   -0.7350    3.7068 H   0  0  0  0  0  0  0  0  0  0  0  0
   -7.7869   -0.8222    1.9496 H   0  0  0  0  0  0  0  0  0  0  0  0
   -4.4089    0.5048    0.3715 H   0  0  0  0  0  0  0  0  0  0  0  0
   -6.5571    0.0663   -0.1509 H   0  0  0  0  0  0  0  0  0  0  0  0
   -7.5306   -0.9725   -2.0721 H   0  0  0  0  0  0  0  0  0  0  0  0
   -6.4257   -2.1269   -1.2774 H   0  0  0  0  0  0  0  0  0  0  0  0
   -5.9477   -1.3110   -2.8201 H   0  0  0  0  0  0  0  0  0  0  0  0
   -5.4911    1.2843   -2.7541 H   0  0  0  0  0  0  0  0  0  0  0  0
   -5.5830    2.1410   -1.1645 H   0  0  0  0  0  0  0  0  0  0  0  0
   -7.0804    1.5429   -1.9581 H   0  0  0  0  0  0  0  0  0  0  0  0
   -3.9641   -0.5819   -3.2148 H   0  0  0  0  0  0  0  0  0  0  0  0
   -2.4823    1.3408   -3.7384 H   0  0  0  0  0  0  0  0  0  0  0  0
  1  2  1  0
  2  3  1  0
  3  4  1  0
  4  5  1  0
  5  6  1  0
  6  7  2  0
  7  8  1  0
  8  9  2  0
  9 10  1  0
 10 11  2  0
  9 12  1  0
 12 13  2  0
 12 14  1  0
 14 15  1  0
 15 16  2  0
 16 17  1  0
 17 18  2  0
 18 19  1  0
 19 20  2  0
 18 21  1  0
 21 22  2  0
 21 23  2  0
 21 24  1  0
 24 25  1  0
 25 26  1  0
 26 27  1  0
 27 28  1  0
 28 29  1  0
 29 30  1  0
 30 31  1  0
 31 32  1  0
 24 33  1  0
 33 34  1  0
 34 35  1  0
 34 36  1  0
 33 37  1  0
 37 38  2  0
 37 39  1  0
 39 40  1  0
 11  6  1  0
 20 15  1  0
 32 27  1  0
  1 41  1  0
  1 42  1  0
  1 43  1  0
  2 44  1  0
  2 45  1  0
  3 46  1  0
  3 47  1  0
  4 48  1  0
  4 49  1  0
  5 50  1  0
  5 51  1  0
  7 52  1  0
  8 53  1  0
 10 54  1  0
 11 55  1  0
 14 56  1  0
 16 57  1  0
 17 58  1  0
 19 59  1  0
 20 60  1  0
 25 61  1  0
 25 62  1  0
 26 63  1  0
 26 64  1  0
 28 65  1  0
 28 66  1  0
 29 67  1  0
 29 68  1  0
 31 69  1  0
 31 70  1  0
 32 71  1  0
 32 72  1  0
 33 73  1  1
 34 74  1  0
 35 75  1  0
 35 76  1  0
 35 77  1  0
 36 78  1  0
 36 79  1  0
 36 80  1  0
 39 81  1  0
 40 82  1  0
M  END
$$$$
