
     RDKit          3D

 75 80  0  0  0  0  0  0  0  0999 V2000
   -7.8757   -2.1836   -1.7440 C   0  0  0  0  0  0  0  0  0  0  0  0
   -6.6036   -1.6329   -1.2536 N   0  0  0  0  0  0  0  0  0  0  0  0
   -5.8594   -0.9846   -2.3598 C   0  0  0  0  0  0  0  0  0  0  0  0
   -4.7890    0.0101   -1.8630 C   0  0  0  0  0  0  0  0  0  0  0  0
   -4.4304   -0.2615   -0.4655 N   0  0  0  0  0  0  0  0  0  0  0  0
   -5.5025   -0.3733    0.5333 C   0  0  0  0  0  0  0  0  0  0  0  0
   -6.8401   -0.6975   -0.1401 C   0  0  0  0  0  0  0  0  0  0  0  0
   -3.0507   -0.3459   -0.0572 C   0  0  0  0  0  0  0  0  0  0  0  0
   -2.1449   -1.1314   -0.7807 C   0  0  0  0  0  0  0  0  0  0  0  0
   -0.8158   -1.2343   -0.3726 C   0  0  0  0  0  0  0  0  0  0  0  0
   -0.3616   -0.5594    0.7725 C   0  0  0  0  0  0  0  0  0  0  0  0
    1.0412   -0.7560    1.2080 C   0  0  0  0  0  0  0  0  0  0  0  0
    1.2974   -0.8857    2.4361 O   0  0  0  0  0  0  0  0  0  0  0  0
    2.1003   -0.8131    0.2378 N   0  0  0  0  0  0  0  0  0  0  0  0
    3.4604   -1.1329    0.5660 C   0  0  0  0  0  0  0  0  0  0  0  0
    3.9018   -1.4650    1.8037 N   0  0  0  0  0  0  0  0  0  0  0  0
    5.2078   -1.6972    1.7218 N   0  0  0  0  0  0  0  0  0  0  0  0
    5.5955   -1.5174    0.4477 C   0  0  0  0  0  0  0  0  0  0  0  0
    6.8720   -1.6450   -0.0919 C   0  0  0  0  0  0  0  0  0  0  0  0
    7.0266   -1.3949   -1.4684 C   0  0  0  0  0  0  0  0  0  0  0  0
    5.9104   -1.0355   -2.2706 C   0  0  0  0  0  0  0  0  0  0  0  0
    6.0976   -0.7305   -3.7311 C   0  0  0  0  0  0  0  0  0  0  0  0
    6.3813    0.7344   -3.9225 C   0  0  0  0  0  0  0  0  0  0  0  0
    7.7011    1.2134   -3.8705 C   0  0  0  0  0  0  0  0  0  0  0  0
    7.9603    2.5806   -4.0111 C   0  0  0  0  0  0  0  0  0  0  0  0
    9.2364    3.0364   -3.9642 F   0  0  0  0  0  0  0  0  0  0  0  0
    6.9045    3.4782   -4.1952 C   0  0  0  0  0  0  0  0  0  0  0  0
    5.5876    3.0108   -4.2356 C   0  0  0  0  0  0  0  0  0  0  0  0
    4.5642    3.8835   -4.4062 F   0  0  0  0  0  0  0  0  0  0  0  0
    5.3247    1.6443   -4.0955 C   0  0  0  0  0  0  0  0  0  0  0  0
    4.6320   -0.9073   -1.6803 C   0  0  0  0  0  0  0  0  0  0  0  0
    4.5209   -1.1616   -0.3155 C   0  0  0  0  0  0  0  0  0  0  0  0
   -1.2679    0.2381    1.5149 C   0  0  0  0  0  0  0  0  0  0  0  0
   -0.8048    1.0064    2.6463 N   0  0  0  0  0  0  0  0  0  0  0  0
   -1.4988    1.1425    3.9360 C   0  0  0  0  0  0  0  0  0  0  0  0
   -2.2494   -0.1375    4.3502 C   0  0  0  0  0  0  0  0  0  0  0  0
   -2.9881    0.0699    5.6947 C   0  0  0  0  0  0  0  0  0  0  0  0
   -3.1722    1.4337    6.0495 O   0  0  0  0  0  0  0  0  0  0  0  0
   -3.5877    2.1887    4.9290 C   0  0  0  0  0  0  0  0  0  0  0  0
   -2.4136    2.3848    3.9585 C   0  0  0  0  0  0  0  0  0  0  0  0
   -2.6044    0.3345    1.0853 C   0  0  0  0  0  0  0  0  0  0  0  0
   -8.3680   -2.7747   -0.9422 H   0  0  0  0  0  0  0  0  0  0  0  0
   -7.6914   -2.8723   -2.5967 H   0  0  0  0  0  0  0  0  0  0  0  0
   -8.5649   -1.3738   -2.0727 H   0  0  0  0  0  0  0  0  0  0  0  0
   -5.3548   -1.7788   -2.9517 H   0  0  0  0  0  0  0  0  0  0  0  0
   -6.5484   -0.4416   -3.0471 H   0  0  0  0  0  0  0  0  0  0  0  0
   -3.9017   -0.0223   -2.5309 H   0  0  0  0  0  0  0  0  0  0  0  0
   -5.1967    1.0428   -1.9230 H   0  0  0  0  0  0  0  0  0  0  0  0
   -5.2553   -1.1941    1.2423 H   0  0  0  0  0  0  0  0  0  0  0  0
   -5.5926    0.5749    1.1050 H   0  0  0  0  0  0  0  0  0  0  0  0
   -7.5151   -1.1511    0.6198 H   0  0  0  0  0  0  0  0  0  0  0  0
   -7.3170    0.2392   -0.5101 H   0  0  0  0  0  0  0  0  0  0  0  0
   -2.4741   -1.6909   -1.6470 H   0  0  0  0  0  0  0  0  0  0  0  0
   -0.1483   -1.8743   -0.9363 H   0  0  0  0  0  0  0  0  0  0  0  0
    1.8771   -0.5856   -0.7567 H   0  0  0  0  0  0  0  0  0  0  0  0
    5.8124   -1.9713    2.5277 H   0  0  0  0  0  0  0  0  0  0  0  0
    7.7172   -1.9212    0.5250 H   0  0  0  0  0  0  0  0  0  0  0  0
    8.0114   -1.4770   -1.9110 H   0  0  0  0  0  0  0  0  0  0  0  0
    5.1878   -1.0218   -4.3008 H   0  0  0  0  0  0  0  0  0  0  0  0
    6.9316   -1.3387   -4.1454 H   0  0  0  0  0  0  0  0  0  0  0  0
    8.5262    0.5284   -3.7191 H   0  0  0  0  0  0  0  0  0  0  0  0
    7.1065    4.5363   -4.3024 H   0  0  0  0  0  0  0  0  0  0  0  0
    4.2998    1.2949   -4.1193 H   0  0  0  0  0  0  0  0  0  0  0  0
    3.7691   -0.6172   -2.2658 H   0  0  0  0  0  0  0  0  0  0  0  0
    0.1625    1.3996    2.6015 H   0  0  0  0  0  0  0  0  0  0  0  0
   -0.7198    1.3059    4.7161 H   0  0  0  0  0  0  0  0  0  0  0  0
   -1.5343   -0.9847    4.4348 H   0  0  0  0  0  0  0  0  0  0  0  0
   -3.0048   -0.4101    3.5858 H   0  0  0  0  0  0  0  0  0  0  0  0
   -3.9731   -0.4466    5.6719 H   0  0  0  0  0  0  0  0  0  0  0  0
   -2.3929   -0.4102    6.5002 H   0  0  0  0  0  0  0  0  0  0  0  0
   -4.4465    1.7017    4.4102 H   0  0  0  0  0  0  0  0  0  0  0  0
   -3.9420    3.1819    5.2770 H   0  0  0  0  0  0  0  0  0  0  0  0
   -2.8071    2.6329    2.9529 H   0  0  0  0  0  0  0  0  0  0  0  0
   -1.8132    3.2615    4.2873 H   0  0  0  0  0  0  0  0  0  0  0  0
   -3.3030    0.9521    1.6248 H   0  0  0  0  0  0  0  0  0  0  0  0
  1  2  1  0
  2  3  1  0
  3  4  1  0
  4  5  1  0
  5  6  1  0
  6  7  1  0
  5  8  1  0
  8  9  2  0
  9 10  1  0
 10 11  2  0
 11 12  1  0
 12 13  2  0
 12 14  1  0
 14 15  1  0
 15 16  2  0
 16 17  1  0
 17 18  1  0
 18 19  2  0
 19 20  1  0
 20 21  2  0
 21 22  1  0
 22 23  1  0
 23 24  2  0
 24 25  1  0
 25 26  1  0
 25 27  2  0
 27 28  1  0
 28 29  1  0
 28 30  2  0
 21 31  1  0
 31 32  2  0
 11 33  1  0
 33 34  1  0
 34 35  1  0
 35 36  1  0
 36 37  1  0
 37 38  1  0
 38 39  1  0
 39 40  1  0
 33 41  2  0
  7  2  1  0
 41  8  1  0
 32 15  1  0
 40 35  1  0
 32 18  1  0
 30 23  1  0
  1 42  1  0
  1 43  1  0
  1 44  1  0
  3 45  1  0
  3 46  1  0
  4 47  1  0
  4 48  1  0
  6 49  1  0
  6 50  1  0
  7 51  1  0
  7 52  1  0
  9 53  1  0
 10 54  1  0
 14 55  1  0
 17 56  1  0
 19 57  1  0
 20 58  1  0
 22 59  1  0
 22 60  1  0
 24 61  1  0
 27 62  1  0
 30 63  1  0
 31 64  1  0
 34 65  1  0
 35 66  1  0
 36 67  1  0
 36 68  1  0
 37 69  1  0
 37 70  1  0
 39 71  1  0
 39 72  1  0
 40 73  1  0
 40 74  1  0
 41 75  1  0
M  END
$$$$
