
     RDKit          3D

 40 40  0  0  0  0  0  0  0  0999 V2000
    0.8414   -0.5891   -0.5654 C   0  0  2  0  0  0  0  0  0  0  0  0
   -0.2505    0.3749   -0.3767 N   0  0  0  0  0  0  0  0  0  0  0  0
   -1.6203   -0.0291   -0.2623 C   0  0  0  0  0  0  0  0  0  0  0  0
   -1.9256   -1.2512   -0.3201 O   0  0  0  0  0  0  0  0  0  0  0  0
   -2.6051    0.9549   -0.0883 O   0  0  0  0  0  0  0  0  0  0  0  0
   -4.0163    0.7303    0.0495 C   0  0  0  0  0  0  0  0  0  0  0  0
   -4.6805    2.1052    0.2190 C   0  0  0  0  0  0  0  0  0  0  0  0
   -4.3107   -0.1215    1.2992 C   0  0  0  0  0  0  0  0  0  0  0  0
   -4.5846    0.0559   -1.2138 C   0  0  0  0  0  0  0  0  0  0  0  0
    0.9931   -1.4164    0.6820 C   0  0  0  0  0  0  0  0  0  0  0  0
    1.0991   -2.6304    0.6122 O   0  0  0  0  0  0  0  0  0  0  0  0
    2.1544    0.1383   -0.9941 C   0  0  0  0  0  0  0  0  0  0  0  0
    3.1872   -0.7951   -1.6758 C   0  0  0  0  0  0  0  0  0  0  0  0
    4.1156   -1.5107   -0.6886 C   0  0  0  0  0  0  0  0  0  0  0  0
    4.8102   -0.5083    0.2318 C   0  0  0  0  0  0  0  0  0  0  0  0
    3.7812    0.2958    1.0253 C   0  0  0  0  0  0  0  0  0  0  0  0
    2.8015    1.0343    0.0989 C   0  0  0  0  0  0  0  0  0  0  0  0
    0.5454   -1.2635   -1.4006 H   0  0  0  0  0  0  0  0  0  0  0  0
   -0.0525    1.4009   -0.3721 H   0  0  0  0  0  0  0  0  0  0  0  0
   -4.2779    2.6194    1.1183 H   0  0  0  0  0  0  0  0  0  0  0  0
   -5.7819    2.0054    0.3321 H   0  0  0  0  0  0  0  0  0  0  0  0
   -4.4725    2.7452   -0.6655 H   0  0  0  0  0  0  0  0  0  0  0  0
   -5.4058   -0.1876    1.4778 H   0  0  0  0  0  0  0  0  0  0  0  0
   -3.9260   -1.1553    1.1848 H   0  0  0  0  0  0  0  0  0  0  0  0
   -3.8324    0.3322    2.1935 H   0  0  0  0  0  0  0  0  0  0  0  0
   -4.3018    0.6362   -2.1181 H   0  0  0  0  0  0  0  0  0  0  0  0
   -5.6935   -0.0006   -1.1612 H   0  0  0  0  0  0  0  0  0  0  0  0
   -4.2008   -0.9782   -1.3288 H   0  0  0  0  0  0  0  0  0  0  0  0
    0.9910   -0.9366    1.6550 H   0  0  0  0  0  0  0  0  0  0  0  0
    1.8347    0.8363   -1.8018 H   0  0  0  0  0  0  0  0  0  0  0  0
    2.6739   -1.5500   -2.3095 H   0  0  0  0  0  0  0  0  0  0  0  0
    3.8184   -0.1845   -2.3595 H   0  0  0  0  0  0  0  0  0  0  0  0
    4.8871   -2.0706   -1.2600 H   0  0  0  0  0  0  0  0  0  0  0  0
    3.5497   -2.2500   -0.0865 H   0  0  0  0  0  0  0  0  0  0  0  0
    5.4451    0.1799   -0.3687 H   0  0  0  0  0  0  0  0  0  0  0  0
    5.4707   -1.0560    0.9381 H   0  0  0  0  0  0  0  0  0  0  0  0
    4.3151    1.0431    1.6513 H   0  0  0  0  0  0  0  0  0  0  0  0
    3.2396   -0.3768    1.7196 H   0  0  0  0  0  0  0  0  0  0  0  0
    3.3635    1.8502   -0.4076 H   0  0  0  0  0  0  0  0  0  0  0  0
    2.0209    1.5233    0.7187 H   0  0  0  0  0  0  0  0  0  0  0  0
  1  2  1  0
  2  3  1  0
  3  4  2  0
  3  5  1  0
  5  6  1  0
  6  7  1  0
  6  8  1  0
  6  9  1  0
  1 10  1  0
 10 11  2  0
  1 12  1  0
 12 13  1  0
 13 14  1  0
 14 15  1  0
 15 16  1  0
 16 17  1  0
 17 12  1  0
  1 18  1  6
  2 19  1  0
  7 20  1  0
  7 21  1  0
  7 22  1  0
  8 23  1  0
  8 24  1  0
  8 25  1  0
  9 26  1  0
  9 27  1  0
  9 28  1  0
 10 29  1  0
 12 30  1  0
 13 31  1  0
 13 32  1  0
 14 33  1  0
 14 34  1  0
 15 35  1  0
 15 36  1  0
 16 37  1  0
 16 38  1  0
 17 39  1  0
 17 40  1  0
M  END
$$$$
