
     RDKit          3D

 45 46  0  0  0  0  0  0  0  0999 V2000
    3.1538    2.8107    1.3312 O   0  0  0  0  0  0  0  0  0  0  0  0
    2.0405    2.0407    0.9700 C   0  0  0  0  0  0  0  0  0  0  0  0
    2.2646    0.5728    1.3637 C   0  0  1  0  0  0  0  0  0  0  0  0
    1.0553   -0.1647    1.2109 O   0  0  0  0  0  0  0  0  0  0  0  0
    0.9446   -0.7440   -0.0781 C   0  0  2  0  0  0  0  0  0  0  0  0
   -0.3693   -1.2374   -0.2651 O   0  0  0  0  0  0  0  0  0  0  0  0
   -1.3047   -0.1806   -0.4301 C   0  0  1  0  0  0  0  0  0  0  0  0
   -1.7677   -0.1447   -1.9012 C   0  0  2  0  0  0  0  0  0  0  0  0
   -0.7109    0.2165   -2.7555 O   0  0  0  0  0  0  0  0  0  0  0  0
   -2.9616    0.8114   -2.0755 C   0  0  1  0  0  0  0  0  0  0  0  0
   -3.4718    0.6790   -3.3774 O   0  0  0  0  0  0  0  0  0  0  0  0
   -4.0503    0.4687   -1.0414 C   0  0  0  0  0  0  0  0  0  0  0  0
   -5.1014    1.3877   -1.1651 O   0  0  0  0  0  0  0  0  0  0  0  0
   -3.5231    0.5517    0.2721 O   0  0  0  0  0  0  0  0  0  0  0  0
   -2.5318   -0.4418    0.4773 C   0  0  2  0  0  0  0  0  0  0  0  0
   -2.1435   -0.4428    1.9617 C   0  0  0  0  0  0  0  0  0  0  0  0
   -1.6478    0.8128    2.3393 O   0  0  0  0  0  0  0  0  0  0  0  0
    1.9616   -1.9025   -0.2192 C   0  0  2  0  0  0  0  0  0  0  0  0
    1.4307   -3.0945    0.3056 O   0  0  0  0  0  0  0  0  0  0  0  0
    3.2831   -1.5805    0.5178 C   0  0  1  0  0  0  0  0  0  0  0  0
    4.3552   -2.1674   -0.1757 O   0  0  0  0  0  0  0  0  0  0  0  0
    3.4867   -0.0583    0.6305 C   0  0  2  0  0  0  0  0  0  0  0  0
    4.6604    0.2235    1.3509 O   0  0  0  0  0  0  0  0  0  0  0  0
    2.9475    3.7406    1.0527 H   0  0  0  0  0  0  0  0  0  0  0  0
    1.1394    2.4230    1.5001 H   0  0  0  0  0  0  0  0  0  0  0  0
    1.8641    2.1248   -0.1252 H   0  0  0  0  0  0  0  0  0  0  0  0
    2.4894    0.5627    2.4535 H   0  0  0  0  0  0  0  0  0  0  0  0
    1.1772    0.0041   -0.8746 H   0  0  0  0  0  0  0  0  0  0  0  0
   -0.8978    0.8269   -0.1643 H   0  0  0  0  0  0  0  0  0  0  0  0
   -2.0969   -1.1691   -2.1875 H   0  0  0  0  0  0  0  0  0  0  0  0
   -0.4213    1.1333   -2.5067 H   0  0  0  0  0  0  0  0  0  0  0  0
   -2.6145    1.8583   -1.9021 H   0  0  0  0  0  0  0  0  0  0  0  0
   -3.9729    1.5124   -3.5773 H   0  0  0  0  0  0  0  0  0  0  0  0
   -4.4494   -0.5550   -1.2461 H   0  0  0  0  0  0  0  0  0  0  0  0
   -5.8227    1.0718   -0.5605 H   0  0  0  0  0  0  0  0  0  0  0  0
   -2.9456   -1.4543    0.2560 H   0  0  0  0  0  0  0  0  0  0  0  0
   -1.3801   -1.2294    2.1550 H   0  0  0  0  0  0  0  0  0  0  0  0
   -3.0447   -0.6819    2.5693 H   0  0  0  0  0  0  0  0  0  0  0  0
   -1.3830    0.7293    3.2920 H   0  0  0  0  0  0  0  0  0  0  0  0
    2.1794   -2.0322   -1.3073 H   0  0  0  0  0  0  0  0  0  0  0  0
    0.8959   -3.5189   -0.4155 H   0  0  0  0  0  0  0  0  0  0  0  0
    3.2260   -1.9985    1.5529 H   0  0  0  0  0  0  0  0  0  0  0  0
    5.0818   -2.3174    0.4840 H   0  0  0  0  0  0  0  0  0  0  0  0
    3.5620    0.3659   -0.4004 H   0  0  0  0  0  0  0  0  0  0  0  0
    5.4138    0.1875    0.7054 H   0  0  0  0  0  0  0  0  0  0  0  0
  1  2  1  0
  2  3  1  0
  3  4  1  0
  4  5  1  0
  5  6  1  0
  6  7  1  0
  7  8  1  0
  8  9  1  0
  8 10  1  0
 10 11  1  0
 10 12  1  0
 12 13  1  0
 12 14  1  0
 14 15  1  0
 15 16  1  0
 16 17  1  0
  5 18  1  0
 18 19  1  0
 18 20  1  0
 20 21  1  0
 20 22  1  0
 22 23  1  0
 22  3  1  0
 15  7  1  0
  1 24  1  0
  2 25  1  0
  2 26  1  0
  3 27  1  1
  5 28  1  6
  7 29  1  1
  8 30  1  6
  9 31  1  0
 10 32  1  1
 11 33  1  0
 12 34  1  0
 13 35  1  0
 15 36  1  6
 16 37  1  0
 16 38  1  0
 17 39  1  0
 18 40  1  6
 19 41  1  0
 20 42  1  1
 21 43  1  0
 22 44  1  6
 23 45  1  0
M  END
$$$$
