
     RDKit          3D

 66 70  0  0  0  0  0  0  0  0999 V2000
    7.0883    2.1432   -0.1315 C   0  0  2  0  0  0  0  0  0  0  0  0
    6.2981    3.1193    0.4918 O   0  0  0  0  0  0  0  0  0  0  0  0
    6.2703    1.3310   -0.9403 O   0  0  0  0  0  0  0  0  0  0  0  0
    6.7256   -0.0017   -0.8191 C   0  0  2  0  0  0  0  0  0  0  0  0
    5.5567   -0.9013   -0.3965 C   0  0  0  0  0  0  0  0  0  0  0  0
    5.0587   -0.4830    0.8535 O   0  0  0  0  0  0  0  0  0  0  0  0
    3.6868   -1.4233    1.2303 P   0  0  0  0  0  5  0  0  0  0  0  0
    4.0933   -3.0669    1.1855 O   0  0  0  0  0  0  0  0  0  0  0  0
    3.2314   -1.0918    2.6341 O   0  0  0  0  0  0  0  0  0  0  0  0
    2.4320   -1.1353    0.1129 O   0  0  0  0  0  0  0  0  0  0  0  0
    1.9161    0.4788    0.3041 P   0  0  0  0  0  5  0  0  0  0  0  0
    3.2233    1.5457    0.1708 O   0  0  0  0  0  0  0  0  0  0  0  0
    1.2621    0.6641    1.6560 O   0  0  0  0  0  0  0  0  0  0  0  0
    0.7896    0.8650   -0.9165 O   0  0  0  0  0  0  0  0  0  0  0  0
   -0.2143   -0.1234   -0.9249 C   0  0  0  0  0  0  0  0  0  0  0  0
   -1.3106    0.2691   -1.9235 C   0  0  1  0  0  0  0  0  0  0  0  0
   -2.2312   -0.7967   -2.0355 O   0  0  0  0  0  0  0  0  0  0  0  0
   -3.4853   -0.3385   -1.5787 C   0  0  1  0  0  0  0  0  0  0  0  0
   -4.1054   -1.3384   -0.7079 N   0  0  0  0  0  0  0  0  0  0  0  0
   -3.4901   -2.2250    0.1219 C   0  0  0  0  0  0  0  0  0  0  0  0
   -4.3538   -2.9162    0.9189 N   0  0  0  0  0  0  0  0  0  0  0  0
   -5.5463   -2.4112    0.5570 C   0  0  0  0  0  0  0  0  0  0  0  0
   -5.4027   -1.4634   -0.4056 C   0  0  0  0  0  0  0  0  0  0  0  0
   -6.4506   -0.7444   -0.9039 N   0  0  0  0  0  0  0  0  0  0  0  0
   -7.7055   -1.0103   -0.4172 C   0  0  0  0  0  0  0  0  0  0  0  0
   -7.8488   -1.9704    0.5469 N   0  0  0  0  0  0  0  0  0  0  0  0
   -8.9353   -2.4078    1.1953 C   0  0  0  0  0  0  0  0  0  0  0  0
   -8.5089   -3.3808    2.0888 C   0  0  0  0  0  0  0  0  0  0  0  0
   -7.1650   -3.5505    2.0013 N   0  0  0  0  0  0  0  0  0  0  0  0
   -6.8137   -2.6688    1.0456 C   0  0  0  0  0  0  0  0  0  0  0  0
   -3.2930    0.9715   -0.8296 C   0  0  2  0  0  0  0  0  0  0  0  0
   -4.4208    1.8072   -1.0141 O   0  0  0  0  0  0  0  0  0  0  0  0
   -4.7161    2.6926    0.4133 P   0  0  0  0  0  5  0  0  0  0  0  0
   -5.1608    1.6313    1.6549 O   0  0  0  0  0  0  0  0  0  0  0  0
   -3.3284    3.5493    0.8681 O   0  0  0  0  0  0  0  0  0  0  0  0
   -5.8451    3.6666    0.1650 O   0  0  0  0  0  0  0  0  0  0  0  0
   -2.0583    1.5342   -1.4852 C   0  0  2  0  0  0  0  0  0  0  0  0
   -2.4060    2.3042   -2.6087 O   0  0  0  0  0  0  0  0  0  0  0  0
    7.8898   -0.0569    0.1809 C   0  0  1  0  0  0  0  0  0  0  0  0
    9.1149   -0.1283   -0.5050 O   0  0  0  0  0  0  0  0  0  0  0  0
    7.7661    1.2615    0.9030 C   0  0  1  0  0  0  0  0  0  0  0  0
    9.0122    1.7898    1.2765 O   0  0  0  0  0  0  0  0  0  0  0  0
    7.8487    2.6302   -0.7872 H   0  0  0  0  0  0  0  0  0  0  0  0
    6.9233    3.7962    0.8616 H   0  0  0  0  0  0  0  0  0  0  0  0
    7.0686   -0.3464   -1.8201 H   0  0  0  0  0  0  0  0  0  0  0  0
    4.7711   -0.8308   -1.1836 H   0  0  0  0  0  0  0  0  0  0  0  0
    5.9237   -1.9510   -0.3426 H   0  0  0  0  0  0  0  0  0  0  0  0
    3.8900   -3.3560    0.2603 H   0  0  0  0  0  0  0  0  0  0  0  0
    3.4700    1.5208   -0.7878 H   0  0  0  0  0  0  0  0  0  0  0  0
    0.2137   -1.0982   -1.2504 H   0  0  0  0  0  0  0  0  0  0  0  0
   -0.6770   -0.2457    0.0820 H   0  0  0  0  0  0  0  0  0  0  0  0
   -0.8327    0.4287   -2.9158 H   0  0  0  0  0  0  0  0  0  0  0  0
   -4.1336   -0.1770   -2.4699 H   0  0  0  0  0  0  0  0  0  0  0  0
   -2.4164   -2.3539    0.1689 H   0  0  0  0  0  0  0  0  0  0  0  0
   -8.5624   -0.4623   -0.7869 H   0  0  0  0  0  0  0  0  0  0  0  0
   -9.9461   -2.0525    1.0417 H   0  0  0  0  0  0  0  0  0  0  0  0
   -9.1441   -3.9327    2.7684 H   0  0  0  0  0  0  0  0  0  0  0  0
   -3.0613    0.7338    0.2389 H   0  0  0  0  0  0  0  0  0  0  0  0
   -5.2256    2.2004    2.4628 H   0  0  0  0  0  0  0  0  0  0  0  0
   -3.1150    4.1181    0.0858 H   0  0  0  0  0  0  0  0  0  0  0  0
   -1.4831    2.1544   -0.7581 H   0  0  0  0  0  0  0  0  0  0  0  0
   -1.5914    2.8096   -2.8665 H   0  0  0  0  0  0  0  0  0  0  0  0
    7.8074   -0.9010    0.9060 H   0  0  0  0  0  0  0  0  0  0  0  0
    9.2251   -1.0740   -0.7862 H   0  0  0  0  0  0  0  0  0  0  0  0
    7.1050    1.1468    1.7950 H   0  0  0  0  0  0  0  0  0  0  0  0
    9.3225    1.2522    2.0512 H   0  0  0  0  0  0  0  0  0  0  0  0
  1  2  1  0
  1  3  1  0
  3  4  1  0
  4  5  1  0
  5  6  1  0
  6  7  1  0
  7  8  1  0
  7  9  2  0
  7 10  1  0
 10 11  1  0
 11 12  1  0
 11 13  2  0
 11 14  1  0
 14 15  1  0
 15 16  1  0
 16 17  1  0
 17 18  1  0
 18 19  1  0
 19 20  1  0
 20 21  2  0
 21 22  1  0
 22 23  2  0
 23 24  1  0
 24 25  2  0
 25 26  1  0
 26 27  1  0
 27 28  2  0
 28 29  1  0
 29 30  2  0
 18 31  1  0
 31 32  1  0
 32 33  1  0
 33 34  1  0
 33 35  1  0
 33 36  2  0
 31 37  1  0
 37 38  1  0
  4 39  1  0
 39 40  1  0
 39 41  1  0
 41 42  1  0
 41  1  1  0
 37 16  1  0
 23 19  1  0
 30 26  1  0
 30 22  1  0
  1 43  1  6
  2 44  1  0
  4 45  1  6
  5 46  1  0
  5 47  1  0
  8 48  1  0
 12 49  1  0
 15 50  1  0
 15 51  1  0
 16 52  1  6
 18 53  1  6
 20 54  1  0
 25 55  1  0
 27 56  1  0
 28 57  1  0
 31 58  1  1
 34 59  1  0
 35 60  1  0
 37 61  1  1
 38 62  1  0
 39 63  1  1
 40 64  1  0
 41 65  1  1
 42 66  1  0
M  END
$$$$
