
     RDKit          3D

 90 93  0  0  0  0  0  0  0  0999 V2000
   10.3210    1.8731   -0.6185 C   0  0  0  0  0  0  0  0  0  0  0  0
    8.8296    1.9516   -0.6573 C   0  0  0  0  0  0  0  0  0  0  0  0
    8.2195    1.5973   -1.7019 O   0  0  0  0  0  0  0  0  0  0  0  0
    8.1151    2.5127    0.4537 N   0  0  0  0  0  0  0  0  0  0  0  0
    6.6863    2.4753    0.5864 C   0  0  0  0  0  0  0  0  0  0  0  0
    6.1069    3.3924    1.2984 N   0  0  0  0  0  0  0  0  0  0  0  0
    5.9308    1.3946    0.0032 N   0  0  0  0  0  0  0  0  0  0  0  0
    4.4773    1.3960   -0.1556 C   0  0  0  0  0  0  0  0  0  0  0  0
    3.8097    0.7694    1.0755 C   0  0  0  0  0  0  0  0  0  0  0  0
    2.2805    0.9543    1.0837 C   0  0  0  0  0  0  0  0  0  0  0  0
    1.5404    0.1450   -0.0003 C   0  0  2  0  0  0  0  0  0  0  0  0
    0.1098    0.4750    0.0366 N   0  0  0  0  0  0  0  0  0  0  0  0
   -0.6430    0.7785   -1.1531 C   0  0  0  0  0  0  0  0  0  0  0  0
   -0.1573    0.5103   -2.2859 O   0  0  0  0  0  0  0  0  0  0  0  0
   -1.9749    1.4883   -1.0903 C   0  0  2  0  0  0  0  0  0  0  0  0
   -1.7444    2.9963   -0.8915 C   0  0  0  0  0  0  0  0  0  0  0  0
   -3.0591    3.7913   -0.9665 C   0  0  0  0  0  0  0  0  0  0  0  0
   -2.8270    5.3049   -0.8744 C   0  0  0  0  0  0  0  0  0  0  0  0
   -2.3374    5.7090    0.4823 C   0  0  0  0  0  0  0  0  0  0  0  0
   -0.9802    5.9328    0.6919 O   0  0  0  0  0  0  0  0  0  0  0  0
   -3.1490    5.8159    1.4404 O   0  0  0  0  0  0  0  0  0  0  0  0
   -2.8155    0.9548   -0.0110 N   0  0  0  0  0  0  0  0  0  0  0  0
   -4.1363    0.4252   -0.2191 C   0  0  0  0  0  0  0  0  0  0  0  0
   -5.0245    0.6758    0.6394 O   0  0  0  0  0  0  0  0  0  0  0  0
   -4.4670   -0.4427   -1.4256 C   0  0  2  0  0  0  0  0  0  0  0  0
   -5.8774   -1.0762   -1.3692 C   0  0  0  0  0  0  0  0  0  0  0  0
   -5.9929   -2.1947   -0.3737 C   0  0  0  0  0  0  0  0  0  0  0  0
   -6.4423   -2.0902    0.9242 C   0  0  0  0  0  0  0  0  0  0  0  0
   -6.3674   -3.3063    1.4845 N   0  0  0  0  0  0  0  0  0  0  0  0
   -5.8795   -4.1165    0.5264 C   0  0  0  0  0  0  0  0  0  0  0  0
   -5.6357   -3.4693   -0.6325 N   0  0  0  0  0  0  0  0  0  0  0  0
   -3.4453   -1.4829   -1.6355 N   0  0  0  0  0  0  0  0  0  0  0  0
   -2.8344   -1.7827   -2.9268 C   0  0  2  0  0  0  0  0  0  0  0  0
   -3.7830   -2.3307   -3.8026 O   0  0  0  0  0  0  0  0  0  0  0  0
   -1.7213   -2.8119   -2.6299 C   0  0  0  0  0  0  0  0  0  0  0  0
   -1.3968   -2.6337   -1.1400 C   0  0  2  0  0  0  0  0  0  0  0  0
   -0.9899   -3.8686   -0.4709 N   0  0  0  0  0  0  0  0  0  0  0  0
   -0.1224   -3.8697    0.6771 C   0  0  0  0  0  0  0  0  0  0  0  0
    0.5132   -4.9239    0.9508 O   0  0  0  0  0  0  0  0  0  0  0  0
    0.0658   -2.6413    1.5566 C   0  0  1  0  0  0  0  0  0  0  0  0
    0.0568   -3.0145    3.0409 C   0  0  0  0  0  0  0  0  0  0  0  0
    1.5267   -3.1541    3.4357 C   0  0  0  0  0  0  0  0  0  0  0  0
    2.3073   -2.3243    2.4218 C   0  0  0  0  0  0  0  0  0  0  0  0
    1.3758   -2.0492    1.3410 N   0  0  0  0  0  0  0  0  0  0  0  0
    1.7500   -1.3482    0.1468 C   0  0  0  0  0  0  0  0  0  0  0  0
    2.2772   -1.9914   -0.7996 O   0  0  0  0  0  0  0  0  0  0  0  0
   -2.6688   -2.0958   -0.6177 C   0  0  0  0  0  0  0  0  0  0  0  0
   -3.0267   -2.1477    0.5898 O   0  0  0  0  0  0  0  0  0  0  0  0
   10.7499    2.8627   -0.8796 H   0  0  0  0  0  0  0  0  0  0  0  0
   10.6870    1.1142   -1.3422 H   0  0  0  0  0  0  0  0  0  0  0  0
   10.6583    1.5852    0.3993 H   0  0  0  0  0  0  0  0  0  0  0  0
    8.6611    3.0460    1.1681 H   0  0  0  0  0  0  0  0  0  0  0  0
    5.0803    3.4261    1.4774 H   0  0  0  0  0  0  0  0  0  0  0  0
    6.4381    0.5263   -0.2791 H   0  0  0  0  0  0  0  0  0  0  0  0
    4.2245    0.7973   -1.0560 H   0  0  0  0  0  0  0  0  0  0  0  0
    4.1087    2.4289   -0.3341 H   0  0  0  0  0  0  0  0  0  0  0  0
    4.2150    1.2478    1.9925 H   0  0  0  0  0  0  0  0  0  0  0  0
    4.0738   -0.3080    1.1279 H   0  0  0  0  0  0  0  0  0  0  0  0
    1.8879    0.6741    2.0843 H   0  0  0  0  0  0  0  0  0  0  0  0
    2.0492    2.0341    0.9491 H   0  0  0  0  0  0  0  0  0  0  0  0
    1.9527    0.4595   -0.9828 H   0  0  0  0  0  0  0  0  0  0  0  0
   -0.3615    0.5257    0.9667 H   0  0  0  0  0  0  0  0  0  0  0  0
   -2.4801    1.3486   -2.0698 H   0  0  0  0  0  0  0  0  0  0  0  0
   -1.2564    3.1676    0.0933 H   0  0  0  0  0  0  0  0  0  0  0  0
   -1.0567    3.3654   -1.6848 H   0  0  0  0  0  0  0  0  0  0  0  0
   -3.7469    3.4736   -0.1525 H   0  0  0  0  0  0  0  0  0  0  0  0
   -3.5587    3.5747   -1.9360 H   0  0  0  0  0  0  0  0  0  0  0  0
   -3.7847    5.8298   -1.0807 H   0  0  0  0  0  0  0  0  0  0  0  0
   -2.0972    5.6266   -1.6487 H   0  0  0  0  0  0  0  0  0  0  0  0
   -0.6317    6.1914    1.6072 H   0  0  0  0  0  0  0  0  0  0  0  0
   -2.5538    1.1899    0.9733 H   0  0  0  0  0  0  0  0  0  0  0  0
   -4.4752    0.2323   -2.3085 H   0  0  0  0  0  0  0  0  0  0  0  0
   -6.6384   -0.2961   -1.1495 H   0  0  0  0  0  0  0  0  0  0  0  0
   -6.1265   -1.4828   -2.3728 H   0  0  0  0  0  0  0  0  0  0  0  0
   -6.8004   -1.2003    1.4247 H   0  0  0  0  0  0  0  0  0  0  0  0
   -6.6320   -3.5694    2.4594 H   0  0  0  0  0  0  0  0  0  0  0  0
   -5.6995   -5.1737    0.6695 H   0  0  0  0  0  0  0  0  0  0  0  0
   -2.3803   -0.8594   -3.3551 H   0  0  0  0  0  0  0  0  0  0  0  0
   -4.3012   -1.5685   -4.1701 H   0  0  0  0  0  0  0  0  0  0  0  0
   -0.8245   -2.6288   -3.2609 H   0  0  0  0  0  0  0  0  0  0  0  0
   -2.0989   -3.8401   -2.8259 H   0  0  0  0  0  0  0  0  0  0  0  0
   -0.6015   -1.8755   -1.0519 H   0  0  0  0  0  0  0  0  0  0  0  0
   -1.2135   -4.7887   -0.9135 H   0  0  0  0  0  0  0  0  0  0  0  0
   -0.7177   -1.8822    1.3790 H   0  0  0  0  0  0  0  0  0  0  0  0
   -0.5164   -3.9436    3.2547 H   0  0  0  0  0  0  0  0  0  0  0  0
   -0.3954   -2.1821    3.6248 H   0  0  0  0  0  0  0  0  0  0  0  0
    1.8324   -4.2208    3.3624 H   0  0  0  0  0  0  0  0  0  0  0  0
    1.7003   -2.7963    4.4738 H   0  0  0  0  0  0  0  0  0  0  0  0
    3.1858   -2.8881    2.0400 H   0  0  0  0  0  0  0  0  0  0  0  0
    2.6439   -1.3764    2.8892 H   0  0  0  0  0  0  0  0  0  0  0  0
  1  2  1  0
  2  3  2  0
  2  4  1  0
  4  5  1  0
  5  6  2  3
  5  7  1  0
  7  8  1  0
  8  9  1  0
  9 10  1  0
 10 11  1  0
 11 12  1  0
 12 13  1  0
 13 14  2  0
 13 15  1  0
 15 16  1  0
 16 17  1  0
 17 18  1  0
 18 19  1  0
 19 20  1  0
 19 21  2  0
 15 22  1  0
 22 23  1  0
 23 24  2  0
 23 25  1  0
 25 26  1  0
 26 27  1  0
 27 28  2  0
 28 29  1  0
 29 30  1  0
 30 31  2  0
 25 32  1  0
 32 33  1  0
 33 34  1  0
 33 35  1  0
 35 36  1  0
 36 37  1  0
 37 38  1  0
 38 39  2  0
 38 40  1  0
 40 41  1  0
 41 42  1  0
 42 43  1  0
 43 44  1  0
 44 45  1  0
 45 46  2  0
 36 47  1  0
 47 48  2  0
 45 11  1  0
 31 27  1  0
 47 32  1  0
 44 40  1  0
  1 49  1  0
  1 50  1  0
  1 51  1  0
  4 52  1  0
  6 53  1  0
  7 54  1  0
  8 55  1  0
  8 56  1  0
  9 57  1  0
  9 58  1  0
 10 59  1  0
 10 60  1  0
 11 61  1  6
 12 62  1  0
 15 63  1  6
 16 64  1  0
 16 65  1  0
 17 66  1  0
 17 67  1  0
 18 68  1  0
 18 69  1  0
 20 70  1  0
 22 71  1  0
 25 72  1  6
 26 73  1  0
 26 74  1  0
 28 75  1  0
 29 76  1  0
 30 77  1  0
 33 78  1  6
 34 79  1  0
 35 80  1  0
 35 81  1  0
 36 82  1  6
 37 83  1  0
 40 84  1  1
 41 85  1  0
 41 86  1  0
 42 87  1  0
 42 88  1  0
 43 89  1  0
 43 90  1  0
M  END
$$$$
