
     RDKit          3D

 41 43  0  0  0  0  0  0  0  0999 V2000
   -4.8758    1.7021   -1.6095 C   0  0  0  0  0  0  0  0  0  0  0  0
   -4.2701    0.4340   -1.3788 O   0  0  0  0  0  0  0  0  0  0  0  0
   -2.9022    0.1570   -1.5291 C   0  0  0  0  0  0  0  0  0  0  0  0
   -2.4055   -1.1461   -1.2676 C   0  0  0  0  0  0  0  0  0  0  0  0
   -3.2114   -2.2191   -0.8383 O   0  0  0  0  0  0  0  0  0  0  0  0
   -4.6098   -2.1781   -0.5780 C   0  0  0  0  0  0  0  0  0  0  0  0
   -1.0273   -1.3914   -1.4391 C   0  0  0  0  0  0  0  0  0  0  0  0
   -0.4324   -2.7357   -1.1310 C   0  0  0  0  0  0  0  0  0  0  0  0
   -0.2503   -2.9400    0.6552 S   0  0  0  0  0  4  0  0  0  0  0  0
    0.6514   -4.1565    0.8143 O   0  0  0  0  0  0  0  0  0  0  0  0
    0.7705   -1.5805    1.1656 C   0  0  0  0  0  0  0  0  0  0  0  0
    0.3574   -0.6509    2.0656 N   0  0  0  0  0  0  0  0  0  0  0  0
    1.3999    0.1982    2.1068 C   0  0  0  0  0  0  0  0  0  0  0  0
    2.3848   -0.2138    1.2612 C   0  0  0  0  0  0  0  0  0  0  0  0
    2.0025   -1.3430    0.6542 N   0  0  0  0  0  0  0  0  0  0  0  0
    3.5720    0.4953    1.0990 C   0  0  0  0  0  0  0  0  0  0  0  0
    3.7392    1.6832    1.8553 C   0  0  0  0  0  0  0  0  0  0  0  0
    4.8963    2.4717    1.7667 O   0  0  0  0  0  0  0  0  0  0  0  0
    6.0233    2.1668    0.9502 C   0  0  0  0  0  0  0  0  0  0  0  0
    6.9361    3.2001    1.0362 F   0  0  0  0  0  0  0  0  0  0  0  0
    6.6224    1.0000    1.3894 F   0  0  0  0  0  0  0  0  0  0  0  0
    2.7095    2.1034    2.7326 C   0  0  0  0  0  0  0  0  0  0  0  0
    1.5228    1.3581    2.8646 C   0  0  0  0  0  0  0  0  0  0  0  0
   -0.1976   -0.3866   -1.8273 N   0  0  0  0  0  0  0  0  0  0  0  0
   -0.6504    0.8649   -2.0795 C   0  0  0  0  0  0  0  0  0  0  0  0
   -2.0031    1.1597   -1.9382 C   0  0  0  0  0  0  0  0  0  0  0  0
   -4.7287    2.0093   -2.6664 H   0  0  0  0  0  0  0  0  0  0  0  0
   -4.4443    2.4620   -0.9244 H   0  0  0  0  0  0  0  0  0  0  0  0
   -5.9644    1.6240   -1.4115 H   0  0  0  0  0  0  0  0  0  0  0  0
   -5.1664   -1.9255   -1.5047 H   0  0  0  0  0  0  0  0  0  0  0  0
   -4.9401   -3.1813   -0.2391 H   0  0  0  0  0  0  0  0  0  0  0  0
   -4.8294   -1.4496    0.2306 H   0  0  0  0  0  0  0  0  0  0  0  0
   -1.0773   -3.5463   -1.5310 H   0  0  0  0  0  0  0  0  0  0  0  0
    0.5648   -2.8286   -1.6123 H   0  0  0  0  0  0  0  0  0  0  0  0
    2.5235   -1.9005   -0.0587 H   0  0  0  0  0  0  0  0  0  0  0  0
    4.3265    0.1363    0.4127 H   0  0  0  0  0  0  0  0  0  0  0  0
    5.7105    2.0562   -0.1095 H   0  0  0  0  0  0  0  0  0  0  0  0
    2.8329    3.0108    3.3099 H   0  0  0  0  0  0  0  0  0  0  0  0
    0.7326    1.6786    3.5311 H   0  0  0  0  0  0  0  0  0  0  0  0
    0.0439    1.6349   -2.3884 H   0  0  0  0  0  0  0  0  0  0  0  0
   -2.3364    2.1669   -2.1466 H   0  0  0  0  0  0  0  0  0  0  0  0
  1  2  1  0
  2  3  1  0
  3  4  2  0
  4  5  1  0
  5  6  1  0
  4  7  1  0
  7  8  1  0
  8  9  1  0
  9 10  2  0
  9 11  1  0
 11 12  2  0
 12 13  1  0
 13 14  2  0
 14 15  1  0
 14 16  1  0
 16 17  2  0
 17 18  1  0
 18 19  1  0
 19 20  1  0
 19 21  1  0
 17 22  1  0
 22 23  2  0
  7 24  2  0
 24 25  1  0
 25 26  2  0
 26  3  1  0
 15 11  1  0
 23 13  1  0
  1 27  1  0
  1 28  1  0
  1 29  1  0
  6 30  1  0
  6 31  1  0
  6 32  1  0
  8 33  1  0
  8 34  1  0
 15 35  1  0
 16 36  1  0
 19 37  1  0
 22 38  1  0
 23 39  1  0
 25 40  1  0
 26 41  1  0
M  END
$$$$
