
     RDKit          3D

 59 59  0  0  0  0  0  0  0  0999 V2000
    7.0779    0.2242    2.3018 C   0  0  0  0  0  0  0  0  0  0  0  0
    6.3122    1.2183    1.4335 C   0  0  0  0  0  0  0  0  0  0  0  0
    5.6456    0.5134    0.2432 C   0  0  0  0  0  0  0  0  0  0  0  0
    4.9944    1.4927   -0.7488 C   0  0  0  0  0  0  0  0  0  0  0  0
    3.8657    2.3838   -0.1778 C   0  0  0  0  0  0  0  0  0  0  0  0
    2.6007    1.6507    0.3273 C   0  0  2  0  0  0  0  0  0  0  0  0
    2.8929    0.8549    1.4459 O   0  0  0  0  0  0  0  0  0  0  0  0
    1.9509    0.8107   -0.7446 C   0  0  0  0  0  0  0  0  0  0  0  0
    0.8487    0.0910   -0.4859 C   0  0  0  0  0  0  0  0  0  0  0  0
    0.1812   -0.7360   -1.5625 C   0  0  1  0  0  0  0  0  0  0  0  0
    1.0463   -1.9345   -1.9979 C   0  0  2  0  0  0  0  0  0  0  0  0
    1.9313   -1.5620   -3.0217 O   0  0  0  0  0  0  0  0  0  0  0  0
    0.0668   -3.0031   -2.4834 C   0  0  0  0  0  0  0  0  0  0  0  0
   -1.2028   -2.6494   -1.8038 C   0  0  0  0  0  0  0  0  0  0  0  0
   -2.1683   -3.3966   -1.7888 O   0  0  0  0  0  0  0  0  0  0  0  0
   -1.1628   -1.3347   -1.0954 C   0  0  2  0  0  0  0  0  0  0  0  0
   -2.3484   -0.4132   -1.4597 C   0  0  0  0  0  0  0  0  0  0  0  0
   -3.6329   -0.7829   -0.7029 C   0  0  0  0  0  0  0  0  0  0  0  0
   -4.7715    0.1912   -1.0424 C   0  0  0  0  0  0  0  0  0  0  0  0
   -6.0588   -0.1165   -0.2486 C   0  0  0  0  0  0  0  0  0  0  0  0
   -6.2953    0.8369    0.9351 C   0  0  0  0  0  0  0  0  0  0  0  0
   -5.2477    0.6837    2.0437 C   0  0  0  0  0  0  0  0  0  0  0  0
   -5.6281    1.4997    3.2383 C   0  0  0  0  0  0  0  0  0  0  0  0
   -6.4209    0.9404    4.2355 O   0  0  0  0  0  0  0  0  0  0  0  0
   -5.2652    2.7035    3.3227 O   0  0  0  0  0  0  0  0  0  0  0  0
    7.8832   -0.2639    1.7125 H   0  0  0  0  0  0  0  0  0  0  0  0
    7.5400    0.7579    3.1589 H   0  0  0  0  0  0  0  0  0  0  0  0
    6.3890   -0.5529    2.6965 H   0  0  0  0  0  0  0  0  0  0  0  0
    7.0193    1.9928    1.0647 H   0  0  0  0  0  0  0  0  0  0  0  0
    5.5449    1.7120    2.0654 H   0  0  0  0  0  0  0  0  0  0  0  0
    4.9054   -0.2330    0.5971 H   0  0  0  0  0  0  0  0  0  0  0  0
    6.4240   -0.0540   -0.3129 H   0  0  0  0  0  0  0  0  0  0  0  0
    4.6180    0.9140   -1.6173 H   0  0  0  0  0  0  0  0  0  0  0  0
    5.7882    2.1614   -1.1478 H   0  0  0  0  0  0  0  0  0  0  0  0
    3.5536    3.0847   -0.9829 H   0  0  0  0  0  0  0  0  0  0  0  0
    4.2680    3.0218    0.6370 H   0  0  0  0  0  0  0  0  0  0  0  0
    1.8575    2.4292    0.6203 H   0  0  0  0  0  0  0  0  0  0  0  0
    3.0093    1.4715    2.2154 H   0  0  0  0  0  0  0  0  0  0  0  0
    2.3547    0.8105   -1.7521 H   0  0  0  0  0  0  0  0  0  0  0  0
    0.4166    0.1237    0.5112 H   0  0  0  0  0  0  0  0  0  0  0  0
    0.0045   -0.0880   -2.4532 H   0  0  0  0  0  0  0  0  0  0  0  0
    1.6118   -2.3282   -1.1190 H   0  0  0  0  0  0  0  0  0  0  0  0
    2.5794   -2.3077   -3.1186 H   0  0  0  0  0  0  0  0  0  0  0  0
   -0.0788   -2.9553   -3.5845 H   0  0  0  0  0  0  0  0  0  0  0  0
    0.4089   -4.0172   -2.1836 H   0  0  0  0  0  0  0  0  0  0  0  0
   -1.1480   -1.5341   -0.0002 H   0  0  0  0  0  0  0  0  0  0  0  0
   -2.5323   -0.4444   -2.5569 H   0  0  0  0  0  0  0  0  0  0  0  0
   -2.0795    0.6326   -1.1905 H   0  0  0  0  0  0  0  0  0  0  0  0
   -3.4310   -0.7642    0.3883 H   0  0  0  0  0  0  0  0  0  0  0  0
   -3.9505   -1.8103   -0.9778 H   0  0  0  0  0  0  0  0  0  0  0  0
   -4.9936    0.0977   -2.1285 H   0  0  0  0  0  0  0  0  0  0  0  0
   -4.4442    1.2397   -0.8670 H   0  0  0  0  0  0  0  0  0  0  0  0
   -6.9247   -0.0066   -0.9378 H   0  0  0  0  0  0  0  0  0  0  0  0
   -6.0734   -1.1707    0.1062 H   0  0  0  0  0  0  0  0  0  0  0  0
   -7.3014    0.6155    1.3555 H   0  0  0  0  0  0  0  0  0  0  0  0
   -6.3077    1.8884    0.5720 H   0  0  0  0  0  0  0  0  0  0  0  0
   -5.1670   -0.3831    2.3453 H   0  0  0  0  0  0  0  0  0  0  0  0
   -4.2552    1.0240    1.6790 H   0  0  0  0  0  0  0  0  0  0  0  0
   -6.7007    1.4845    5.0428 H   0  0  0  0  0  0  0  0  0  0  0  0
  1  2  1  0
  2  3  1  0
  3  4  1  0
  4  5  1  0
  5  6  1  0
  6  7  1  0
  6  8  1  0
  8  9  2  0
  9 10  1  0
 10 11  1  0
 11 12  1  0
 11 13  1  0
 13 14  1  0
 14 15  2  0
 14 16  1  0
 16 17  1  0
 17 18  1  0
 18 19  1  0
 19 20  1  0
 20 21  1  0
 21 22  1  0
 22 23  1  0
 23 24  1  0
 23 25  2  0
 16 10  1  0
  1 26  1  0
  1 27  1  0
  1 28  1  0
  2 29  1  0
  2 30  1  0
  3 31  1  0
  3 32  1  0
  4 33  1  0
  4 34  1  0
  5 35  1  0
  5 36  1  0
  6 37  1  1
  7 38  1  0
  8 39  1  0
  9 40  1  0
 10 41  1  6
 11 42  1  1
 12 43  1  0
 13 44  1  0
 13 45  1  0
 16 46  1  1
 17 47  1  0
 17 48  1  0
 18 49  1  0
 18 50  1  0
 19 51  1  0
 19 52  1  0
 20 53  1  0
 20 54  1  0
 21 55  1  0
 21 56  1  0
 22 57  1  0
 22 58  1  0
 24 59  1  0
M  END
$$$$
