
     RDKit          3D

 65 69  0  0  0  0  0  0  0  0999 V2000
   -0.5555   -1.0301   -0.9798 C   0  0  1  0  0  0  0  0  0  0  0  0
   -0.3096   -1.0689   -2.5033 C   0  0  0  0  0  0  0  0  0  0  0  0
    1.2011   -0.8687   -2.7156 C   0  0  0  0  0  0  0  0  0  0  0  0
    1.7830   -0.9543   -1.3117 C   0  0  1  0  0  0  0  0  0  0  0  0
    3.1780   -0.3637   -1.0342 C   0  0  2  0  0  0  0  0  0  0  0  0
    4.2458   -0.9308   -1.9778 C   0  0  0  0  0  0  0  0  0  0  0  0
    5.5751   -0.2053   -1.7545 C   0  0  0  0  0  0  0  0  0  0  0  0
    5.9311   -0.0285   -0.2939 C   0  0  0  0  0  0  0  0  0  0  0  0
    7.2377    0.3841    0.0144 C   0  0  0  0  0  0  0  0  0  0  0  0
    7.6251    0.5984    1.3399 C   0  0  0  0  0  0  0  0  0  0  0  0
    8.9228    1.0031    1.6450 O   0  0  0  0  0  0  0  0  0  0  0  0
    6.7064    0.4014    2.3684 C   0  0  0  0  0  0  0  0  0  0  0  0
    5.4003    0.0021    2.0812 C   0  0  0  0  0  0  0  0  0  0  0  0
    4.9744   -0.1836    0.7477 C   0  0  0  0  0  0  0  0  0  0  0  0
    3.5724   -0.7088    0.4325 C   0  0  1  0  0  0  0  0  0  0  0  0
    2.4745   -0.2485    1.4409 C   0  0  0  0  0  0  0  0  0  0  0  0
    1.0477   -0.7154    1.0528 C   0  0  0  0  0  0  0  0  0  0  0  0
    0.7039   -0.3439   -0.4063 C   0  0  2  0  0  0  0  0  0  0  0  0
    0.5587    1.2067   -0.5392 C   0  0  0  0  0  0  0  0  0  0  0  0
   -1.7639   -0.3247   -0.6874 O   0  0  0  0  0  0  0  0  0  0  0  0
   -2.4594   -0.4513    0.5195 C   0  0  0  0  0  0  0  0  0  0  0  0
   -2.1169   -1.3104    1.3768 O   0  0  0  0  0  0  0  0  0  0  0  0
   -3.6614    0.4029    0.7639 C   0  0  0  0  0  0  0  0  0  0  0  0
   -4.9081   -0.2403    0.1455 C   0  0  0  0  0  0  0  0  0  0  0  0
   -6.1570    0.6463    0.3174 C   0  0  0  0  0  0  0  0  0  0  0  0
   -6.6102    0.7840    1.7690 C   0  0  0  0  0  0  0  0  0  0  0  0
   -8.1146    1.0313    1.7151 C   0  0  0  0  0  0  0  0  0  0  0  0
   -8.5781    0.6553    0.3085 C   0  0  0  0  0  0  0  0  0  0  0  0
   -7.3680    0.0734   -0.4075 C   0  0  0  0  0  0  0  0  0  0  0  0
   -0.6307   -2.0806   -0.6140 H   0  0  0  0  0  0  0  0  0  0  0  0
   -0.8709   -0.2581   -3.0178 H   0  0  0  0  0  0  0  0  0  0  0  0
   -0.6376   -2.0463   -2.9198 H   0  0  0  0  0  0  0  0  0  0  0  0
    1.6193   -1.6620   -3.3730 H   0  0  0  0  0  0  0  0  0  0  0  0
    1.4073    0.1263   -3.1669 H   0  0  0  0  0  0  0  0  0  0  0  0
    1.8553   -2.0487   -1.0900 H   0  0  0  0  0  0  0  0  0  0  0  0
    3.1587    0.7370   -1.1788 H   0  0  0  0  0  0  0  0  0  0  0  0
    4.3775   -2.0219   -1.8036 H   0  0  0  0  0  0  0  0  0  0  0  0
    3.9438   -0.7872   -3.0373 H   0  0  0  0  0  0  0  0  0  0  0  0
    5.5185    0.8017   -2.2227 H   0  0  0  0  0  0  0  0  0  0  0  0
    6.3791   -0.7737   -2.2713 H   0  0  0  0  0  0  0  0  0  0  0  0
    7.9580    0.5372   -0.7805 H   0  0  0  0  0  0  0  0  0  0  0  0
    9.6152    1.1537    0.9206 H   0  0  0  0  0  0  0  0  0  0  0  0
    7.0078    0.5504    3.3976 H   0  0  0  0  0  0  0  0  0  0  0  0
    4.7379   -0.1641    2.9163 H   0  0  0  0  0  0  0  0  0  0  0  0
    3.6340   -1.8173    0.5225 H   0  0  0  0  0  0  0  0  0  0  0  0
    2.6777   -0.6846    2.4405 H   0  0  0  0  0  0  0  0  0  0  0  0
    2.5024    0.8557    1.5530 H   0  0  0  0  0  0  0  0  0  0  0  0
    0.3152   -0.2534    1.7487 H   0  0  0  0  0  0  0  0  0  0  0  0
    0.9840   -1.8178    1.1893 H   0  0  0  0  0  0  0  0  0  0  0  0
    1.4698    1.7568   -0.2395 H   0  0  0  0  0  0  0  0  0  0  0  0
   -0.2563    1.5712    0.1216 H   0  0  0  0  0  0  0  0  0  0  0  0
    0.3095    1.5112   -1.5765 H   0  0  0  0  0  0  0  0  0  0  0  0
   -3.8008    0.5355    1.8586 H   0  0  0  0  0  0  0  0  0  0  0  0
   -3.4889    1.4036    0.3121 H   0  0  0  0  0  0  0  0  0  0  0  0
   -4.7297   -0.3942   -0.9422 H   0  0  0  0  0  0  0  0  0  0  0  0
   -5.0816   -1.2378    0.6075 H   0  0  0  0  0  0  0  0  0  0  0  0
   -5.9511    1.6609   -0.0948 H   0  0  0  0  0  0  0  0  0  0  0  0
   -6.0847    1.6237    2.2739 H   0  0  0  0  0  0  0  0  0  0  0  0
   -6.4146   -0.1562    2.3317 H   0  0  0  0  0  0  0  0  0  0  0  0
   -8.6364    0.4140    2.4789 H   0  0  0  0  0  0  0  0  0  0  0  0
   -8.3333    2.1037    1.9133 H   0  0  0  0  0  0  0  0  0  0  0  0
   -9.4089   -0.0828    0.3433 H   0  0  0  0  0  0  0  0  0  0  0  0
   -8.9279    1.5649   -0.2279 H   0  0  0  0  0  0  0  0  0  0  0  0
   -7.3629    0.3504   -1.4843 H   0  0  0  0  0  0  0  0  0  0  0  0
   -7.3898   -1.0359   -0.3159 H   0  0  0  0  0  0  0  0  0  0  0  0
  1  2  1  0
  2  3  1  0
  3  4  1  0
  4  5  1  0
  5  6  1  0
  6  7  1  0
  7  8  1  0
  8  9  2  0
  9 10  1  0
 10 11  1  0
 10 12  2  0
 12 13  1  0
 13 14  2  0
 14 15  1  0
 15 16  1  0
 16 17  1  0
 17 18  1  0
 18 19  1  1
  1 20  1  0
 20 21  1  0
 21 22  2  0
 21 23  1  0
 23 24  1  0
 24 25  1  0
 25 26  1  0
 26 27  1  0
 27 28  1  0
 28 29  1  0
 18  1  1  0
 29 25  1  0
 18  4  1  0
 15  5  1  0
 14  8  1  0
  1 30  1  1
  2 31  1  0
  2 32  1  0
  3 33  1  0
  3 34  1  0
  4 35  1  1
  5 36  1  1
  6 37  1  0
  6 38  1  0
  7 39  1  0
  7 40  1  0
  9 41  1  0
 11 42  1  0
 12 43  1  0
 13 44  1  0
 15 45  1  6
 16 46  1  0
 16 47  1  0
 17 48  1  0
 17 49  1  0
 19 50  1  0
 19 51  1  0
 19 52  1  0
 23 53  1  0
 23 54  1  0
 24 55  1  0
 24 56  1  0
 25 57  1  0
 26 58  1  0
 26 59  1  0
 27 60  1  0
 27 61  1  0
 28 62  1  0
 28 63  1  0
 29 64  1  0
 29 65  1  0
M  END
$$$$
