
     RDKit          3D

 54 54  0  0  0  0  0  0  0  0999 V2000
    7.1476   -1.7244   -1.1795 C   0  0  0  0  0  0  0  0  0  0  0  0
    6.5803   -0.8663   -0.0360 C   0  0  0  0  0  0  0  0  0  0  0  0
    7.7046   -0.4301    0.9057 C   0  0  0  0  0  0  0  0  0  0  0  0
    5.8848    0.3319   -0.5405 N   0  0  0  0  0  0  0  0  0  0  0  0
    4.6014    0.0103   -1.1848 C   0  0  0  0  0  0  0  0  0  0  0  0
    3.6808    1.2447   -1.2350 C   0  0  0  0  0  0  0  0  0  0  0  0
    4.2093    2.2304   -2.0875 O   0  0  0  0  0  0  0  0  0  0  0  0
    3.3877    1.8254    0.1649 C   0  0  0  0  0  0  0  0  0  0  0  0
    2.8130    0.8408    1.0260 O   0  0  0  0  0  0  0  0  0  0  0  0
    1.4970    0.3563    0.9522 C   0  0  0  0  0  0  0  0  0  0  0  0
    1.1449   -0.7212    1.7734 C   0  0  0  0  0  0  0  0  0  0  0  0
   -0.1496   -1.2473    1.7421 C   0  0  0  0  0  0  0  0  0  0  0  0
   -1.1119   -0.7061    0.8768 C   0  0  0  0  0  0  0  0  0  0  0  0
   -2.5141   -1.2419    0.8688 C   0  0  0  0  0  0  0  0  0  0  0  0
   -3.2894   -0.5039    1.7901 O   0  0  0  0  0  0  0  0  0  0  0  0
   -4.6566   -0.8547    1.6847 C   0  0  0  0  0  0  0  0  0  0  0  0
   -5.3936    0.1560    0.8100 C   0  0  0  0  0  0  0  0  0  0  0  0
   -6.7687   -0.1671    0.7876 O   0  0  0  0  0  0  0  0  0  0  0  0
   -7.4689    0.6730   -0.1145 C   0  0  0  0  0  0  0  0  0  0  0  0
   -8.8285    1.0121    0.4953 C   0  0  0  0  0  0  0  0  0  0  0  0
   -7.6568   -0.0523   -1.4501 C   0  0  0  0  0  0  0  0  0  0  0  0
   -0.7708    0.3885    0.0685 C   0  0  0  0  0  0  0  0  0  0  0  0
    0.5242    0.9147    0.1003 C   0  0  0  0  0  0  0  0  0  0  0  0
    7.8348   -1.1272   -1.8161 H   0  0  0  0  0  0  0  0  0  0  0  0
    7.7064   -2.5910   -0.7662 H   0  0  0  0  0  0  0  0  0  0  0  0
    6.3264   -2.1238   -1.8099 H   0  0  0  0  0  0  0  0  0  0  0  0
    5.8793   -1.4897    0.5637 H   0  0  0  0  0  0  0  0  0  0  0  0
    8.4563    0.1803    0.3605 H   0  0  0  0  0  0  0  0  0  0  0  0
    7.2859    0.1778    1.7360 H   0  0  0  0  0  0  0  0  0  0  0  0
    8.2086   -1.3184    1.3432 H   0  0  0  0  0  0  0  0  0  0  0  0
    6.4987    0.8220   -1.2336 H   0  0  0  0  0  0  0  0  0  0  0  0
    4.7749   -0.3498   -2.2232 H   0  0  0  0  0  0  0  0  0  0  0  0
    4.0696   -0.7968   -0.6331 H   0  0  0  0  0  0  0  0  0  0  0  0
    2.7189    0.9139   -1.6799 H   0  0  0  0  0  0  0  0  0  0  0  0
    5.0016    2.6285   -1.6418 H   0  0  0  0  0  0  0  0  0  0  0  0
    4.3353    2.1752    0.6263 H   0  0  0  0  0  0  0  0  0  0  0  0
    2.7237    2.7125    0.0911 H   0  0  0  0  0  0  0  0  0  0  0  0
    1.8802   -1.1533    2.4404 H   0  0  0  0  0  0  0  0  0  0  0  0
   -0.4006   -2.0763    2.3923 H   0  0  0  0  0  0  0  0  0  0  0  0
   -2.5019   -2.3186    1.1538 H   0  0  0  0  0  0  0  0  0  0  0  0
   -2.9246   -1.1627   -0.1643 H   0  0  0  0  0  0  0  0  0  0  0  0
   -5.0964   -0.8206    2.7041 H   0  0  0  0  0  0  0  0  0  0  0  0
   -4.8269   -1.8898    1.3021 H   0  0  0  0  0  0  0  0  0  0  0  0
   -5.2457    1.1715    1.2428 H   0  0  0  0  0  0  0  0  0  0  0  0
   -4.9608    0.1252   -0.2153 H   0  0  0  0  0  0  0  0  0  0  0  0
   -6.9499    1.6440   -0.3073 H   0  0  0  0  0  0  0  0  0  0  0  0
   -9.4059    1.6717   -0.1875 H   0  0  0  0  0  0  0  0  0  0  0  0
   -9.4124    0.0860    0.6863 H   0  0  0  0  0  0  0  0  0  0  0  0
   -8.6835    1.5456    1.4587 H   0  0  0  0  0  0  0  0  0  0  0  0
   -8.2352    0.5818   -2.1556 H   0  0  0  0  0  0  0  0  0  0  0  0
   -8.1960   -1.0119   -1.2986 H   0  0  0  0  0  0  0  0  0  0  0  0
   -6.6694   -0.2692   -1.9086 H   0  0  0  0  0  0  0  0  0  0  0  0
   -1.5091    0.8361   -0.5857 H   0  0  0  0  0  0  0  0  0  0  0  0
    0.7506    1.7583   -0.5355 H   0  0  0  0  0  0  0  0  0  0  0  0
  1  2  1  0
  2  3  1  0
  2  4  1  0
  4  5  1  0
  5  6  1  0
  6  7  1  0
  6  8  1  0
  8  9  1  0
  9 10  1  0
 10 11  2  0
 11 12  1  0
 12 13  2  0
 13 14  1  0
 14 15  1  0
 15 16  1  0
 16 17  1  0
 17 18  1  0
 18 19  1  0
 19 20  1  0
 19 21  1  0
 13 22  1  0
 22 23  2  0
 23 10  1  0
  1 24  1  0
  1 25  1  0
  1 26  1  0
  2 27  1  0
  3 28  1  0
  3 29  1  0
  3 30  1  0
  4 31  1  0
  5 32  1  0
  5 33  1  0
  6 34  1  0
  7 35  1  0
  8 36  1  0
  8 37  1  0
 11 38  1  0
 12 39  1  0
 14 40  1  0
 14 41  1  0
 16 42  1  0
 16 43  1  0
 17 44  1  0
 17 45  1  0
 19 46  1  0
 20 47  1  0
 20 48  1  0
 20 49  1  0
 21 50  1  0
 21 51  1  0
 21 52  1  0
 22 53  1  0
 23 54  1  0
M  END
$$$$
