
     RDKit          3D

 51 53  0  0  0  0  0  0  0  0999 V2000
    5.3556   -0.1697   -1.4524 C   0  0  0  0  0  0  0  0  0  0  0  0
    4.5061    0.0645   -0.2630 N   0  0  0  0  0  4  0  0  0  0  0  0
    5.2928   -0.2214    0.9622 C   0  0  0  0  0  0  0  0  0  0  0  0
    3.9982    1.4531   -0.2357 C   0  0  0  0  0  0  0  0  0  0  0  0
    2.6387    1.4302    0.4566 C   0  0  0  0  0  0  0  0  0  0  0  0
    2.2043   -0.0333    0.4660 C   0  0  0  0  0  0  0  0  0  0  0  0
    3.2920   -0.7773   -0.3030 C   0  0  0  0  0  0  0  0  0  0  0  0
    0.9375   -0.2089   -0.1686 O   0  0  0  0  0  0  0  0  0  0  0  0
   -0.2697    0.2145    0.3998 C   0  0  0  0  0  0  0  0  0  0  0  0
   -0.2773    0.7241    1.5555 O   0  0  0  0  0  0  0  0  0  0  0  0
   -1.5709   -0.0151   -0.3575 C   0  0  0  0  0  0  0  0  0  0  0  0
   -1.3513    0.2892   -1.7195 O   0  0  0  0  0  0  0  0  0  0  0  0
   -2.7019    0.9221    0.1764 C   0  0  0  0  0  0  0  0  0  0  0  0
   -4.0377    0.7422   -0.5472 C   0  0  0  0  0  0  0  0  0  0  0  0
   -4.7718    2.0539   -0.3487 C   0  0  0  0  0  0  0  0  0  0  0  0
   -3.6927    3.1263   -0.2972 C   0  0  0  0  0  0  0  0  0  0  0  0
   -2.3822    2.4208    0.0503 C   0  0  0  0  0  0  0  0  0  0  0  0
   -2.0096   -1.4764   -0.1869 C   0  0  0  0  0  0  0  0  0  0  0  0
   -2.5359   -2.2113   -1.2719 C   0  0  0  0  0  0  0  0  0  0  0  0
   -2.9786   -3.5254   -1.0955 C   0  0  0  0  0  0  0  0  0  0  0  0
   -2.9238   -4.1212    0.1650 C   0  0  0  0  0  0  0  0  0  0  0  0
   -2.4364   -3.4004    1.2556 C   0  0  0  0  0  0  0  0  0  0  0  0
   -1.9926   -2.0859    1.0866 C   0  0  0  0  0  0  0  0  0  0  0  0
    5.7034   -1.2264   -1.4855 H   0  0  0  0  0  0  0  0  0  0  0  0
    4.7998    0.0340   -2.3950 H   0  0  0  0  0  0  0  0  0  0  0  0
    6.2483    0.4944   -1.4352 H   0  0  0  0  0  0  0  0  0  0  0  0
    5.6396   -1.2789    0.9745 H   0  0  0  0  0  0  0  0  0  0  0  0
    6.1923    0.4316    1.0182 H   0  0  0  0  0  0  0  0  0  0  0  0
    4.6887   -0.0484    1.8804 H   0  0  0  0  0  0  0  0  0  0  0  0
    3.8491    1.8460   -1.2685 H   0  0  0  0  0  0  0  0  0  0  0  0
    4.6958    2.1510    0.2815 H   0  0  0  0  0  0  0  0  0  0  0  0
    1.9136    2.0749   -0.0877 H   0  0  0  0  0  0  0  0  0  0  0  0
    2.7352    1.8029    1.4999 H   0  0  0  0  0  0  0  0  0  0  0  0
    2.1648   -0.4187    1.5101 H   0  0  0  0  0  0  0  0  0  0  0  0
    3.4628   -1.7894    0.1300 H   0  0  0  0  0  0  0  0  0  0  0  0
    2.9468   -0.9250   -1.3534 H   0  0  0  0  0  0  0  0  0  0  0  0
   -0.6671   -0.3362   -2.0773 H   0  0  0  0  0  0  0  0  0  0  0  0
   -2.8802    0.7017    1.2548 H   0  0  0  0  0  0  0  0  0  0  0  0
   -3.8833    0.5765   -1.6361 H   0  0  0  0  0  0  0  0  0  0  0  0
   -4.6176   -0.1082   -0.1268 H   0  0  0  0  0  0  0  0  0  0  0  0
   -5.3202    2.0287    0.6191 H   0  0  0  0  0  0  0  0  0  0  0  0
   -5.4939    2.2415   -1.1728 H   0  0  0  0  0  0  0  0  0  0  0  0
   -3.6049    3.6180   -1.2912 H   0  0  0  0  0  0  0  0  0  0  0  0
   -3.9446    3.8983    0.4624 H   0  0  0  0  0  0  0  0  0  0  0  0
   -1.6351    2.6162   -0.7498 H   0  0  0  0  0  0  0  0  0  0  0  0
   -1.9746    2.8115    1.0083 H   0  0  0  0  0  0  0  0  0  0  0  0
   -2.6175   -1.7714   -2.2570 H   0  0  0  0  0  0  0  0  0  0  0  0
   -3.3729   -4.0799   -1.9373 H   0  0  0  0  0  0  0  0  0  0  0  0
   -3.2699   -5.1379    0.2989 H   0  0  0  0  0  0  0  0  0  0  0  0
   -2.4094   -3.8578    2.2362 H   0  0  0  0  0  0  0  0  0  0  0  0
   -1.6420   -1.5437    1.9548 H   0  0  0  0  0  0  0  0  0  0  0  0
  1  2  1  0
  2  3  1  0
  2  4  1  0
  4  5  1  0
  5  6  1  0
  6  7  1  0
  6  8  1  0
  8  9  1  0
  9 10  2  0
  9 11  1  0
 11 12  1  0
 11 13  1  0
 13 14  1  0
 14 15  1  0
 15 16  1  0
 16 17  1  0
 11 18  1  0
 18 19  2  0
 19 20  1  0
 20 21  2  0
 21 22  1  0
 22 23  2  0
  7  2  1  0
 17 13  1  0
 23 18  1  0
  1 24  1  0
  1 25  1  0
  1 26  1  0
  3 27  1  0
  3 28  1  0
  3 29  1  0
  4 30  1  0
  4 31  1  0
  5 32  1  0
  5 33  1  0
  6 34  1  0
  7 35  1  0
  7 36  1  0
 12 37  1  0
 13 38  1  0
 14 39  1  0
 14 40  1  0
 15 41  1  0
 15 42  1  0
 16 43  1  0
 16 44  1  0
 17 45  1  0
 17 46  1  0
 19 47  1  0
 20 48  1  0
 21 49  1  0
 22 50  1  0
 23 51  1  0
M  CHG  1   2   1
M  END
$$$$
