
     RDKit          3D

 24 24  0  0  0  0  0  0  0  0999 V2000
   -3.2039   -1.2209   -0.4164 N   0  0  0  0  0  0  0  0  0  0  0  0
   -1.8491   -0.6873   -0.5695 C   0  0  2  0  0  0  0  0  0  0  0  0
   -1.1404   -0.6659    0.7968 C   0  0  0  0  0  0  0  0  0  0  0  0
    0.3155   -0.2939    0.6659 C   0  0  0  0  0  0  0  0  0  0  0  0
    0.7334    1.0307    0.8760 C   0  0  0  0  0  0  0  0  0  0  0  0
    2.0793    1.3778    0.7246 C   0  0  0  0  0  0  0  0  0  0  0  0
    3.0189    0.4094    0.3564 C   0  0  0  0  0  0  0  0  0  0  0  0
    4.3564    0.7696    0.2092 O   0  0  0  0  0  0  0  0  0  0  0  0
    2.6062   -0.9119    0.1375 C   0  0  0  0  0  0  0  0  0  0  0  0
    1.2608   -1.2614    0.2879 C   0  0  0  0  0  0  0  0  0  0  0  0
   -1.8898    0.6872   -1.1880 C   0  0  0  0  0  0  0  0  0  0  0  0
   -2.5536    1.7261   -0.5415 O   0  0  0  0  0  0  0  0  0  0  0  0
   -1.3166    0.8993   -2.2900 O   0  0  0  0  0  0  0  0  0  0  0  0
   -3.7765   -0.5631    0.1622 H   0  0  0  0  0  0  0  0  0  0  0  0
   -3.6508   -1.2774   -1.3609 H   0  0  0  0  0  0  0  0  0  0  0  0
   -1.2858   -1.3722   -1.2434 H   0  0  0  0  0  0  0  0  0  0  0  0
   -1.6587    0.0383    1.4849 H   0  0  0  0  0  0  0  0  0  0  0  0
   -1.2141   -1.6745    1.2600 H   0  0  0  0  0  0  0  0  0  0  0  0
    0.0174    1.7943    1.1536 H   0  0  0  0  0  0  0  0  0  0  0  0
    2.3920    2.4009    0.8907 H   0  0  0  0  0  0  0  0  0  0  0  0
    5.0610    0.0917   -0.0571 H   0  0  0  0  0  0  0  0  0  0  0  0
    3.3259   -1.6671   -0.1517 H   0  0  0  0  0  0  0  0  0  0  0  0
    0.9547   -2.2846    0.1080 H   0  0  0  0  0  0  0  0  0  0  0  0
   -2.5822    2.6548   -0.9447 H   0  0  0  0  0  0  0  0  0  0  0  0
  1  2  1  0
  2  3  1  0
  3  4  1  0
  4  5  2  0
  5  6  1  0
  6  7  2  0
  7  8  1  0
  7  9  1  0
  9 10  2  0
  2 11  1  0
 11 12  1  0
 11 13  2  0
 10  4  1  0
  1 14  1  0
  1 15  1  0
  2 16  1  6
  3 17  1  0
  3 18  1  0
  5 19  1  0
  6 20  1  0
  8 21  1  0
  9 22  1  0
 10 23  1  0
 12 24  1  0
M  END
$$$$
