
     RDKit          3D

 57 59  0  0  0  0  0  0  0  0999 V2000
   -1.2911    0.5063    0.4766 C   0  0  2  0  0  0  0  0  0  0  0  0
   -1.7581   -0.8172    0.9020 N   0  0  0  0  0  0  0  0  0  0  0  0
   -2.2238    1.1449   -0.6035 C   0  0  0  0  0  0  0  0  0  0  0  0
   -2.6101    0.1946   -1.7297 C   0  0  0  0  0  0  0  0  0  0  0  0
   -1.9971    0.3135   -2.9918 C   0  0  0  0  0  0  0  0  0  0  0  0
   -2.3455   -0.5492   -4.0351 C   0  0  0  0  0  0  0  0  0  0  0  0
   -3.3118   -1.5369   -3.8348 C   0  0  0  0  0  0  0  0  0  0  0  0
   -3.9332   -1.6629   -2.5909 C   0  0  0  0  0  0  0  0  0  0  0  0
   -3.5886   -0.8031   -1.5440 C   0  0  0  0  0  0  0  0  0  0  0  0
   -3.4622    1.8299   -0.0336 C   0  0  0  0  0  0  0  0  0  0  0  0
   -3.9733    2.9670   -0.6894 C   0  0  0  0  0  0  0  0  0  0  0  0
   -5.1271    3.6022   -0.2214 C   0  0  0  0  0  0  0  0  0  0  0  0
   -5.7944    3.1050    0.8990 C   0  0  0  0  0  0  0  0  0  0  0  0
   -5.3125    1.9681    1.5497 C   0  0  0  0  0  0  0  0  0  0  0  0
   -4.1589    1.3282    1.0862 C   0  0  0  0  0  0  0  0  0  0  0  0
    0.1517    0.4198    0.0071 C   0  0  0  0  0  0  0  0  0  0  0  0
    0.3957   -0.0588   -1.1339 O   0  0  0  0  0  0  0  0  0  0  0  0
    1.2524    0.8029    0.8571 N   0  0  0  0  0  0  0  0  0  0  0  0
    1.1117    1.3482    2.1990 C   0  0  0  0  0  0  0  0  0  0  0  0
    2.5295    1.5102    2.7319 C   0  0  0  0  0  0  0  0  0  0  0  0
    3.4397    1.4585    1.5086 C   0  0  0  0  0  0  0  0  0  0  0  0
    2.6445    0.7150    0.4351 C   0  0  1  0  0  0  0  0  0  0  0  0
    3.0769   -0.7260    0.3407 C   0  0  0  0  0  0  0  0  0  0  0  0
    2.7214   -1.5455    1.2321 O   0  0  0  0  0  0  0  0  0  0  0  0
    3.9190   -1.1538   -0.7390 N   0  0  0  0  0  0  0  0  0  0  0  0
    4.4079   -2.5257   -0.8579 C   0  0  0  0  0  0  0  0  0  0  0  0
    5.5383   -2.7792    0.1441 C   0  0  0  0  0  0  0  0  0  0  0  0
    6.0862   -4.1968    0.0103 C   0  0  0  0  0  0  0  0  0  0  0  0
   -1.3323    1.1821    1.3563 H   0  0  0  0  0  0  0  0  0  0  0  0
   -1.2459   -1.0829    1.7746 H   0  0  0  0  0  0  0  0  0  0  0  0
   -1.5096   -1.5312    0.1786 H   0  0  0  0  0  0  0  0  0  0  0  0
   -1.6196    1.9697   -1.0481 H   0  0  0  0  0  0  0  0  0  0  0  0
   -1.2469    1.0738   -3.1704 H   0  0  0  0  0  0  0  0  0  0  0  0
   -1.8660   -0.4508   -5.0004 H   0  0  0  0  0  0  0  0  0  0  0  0
   -3.5801   -2.2036   -4.6440 H   0  0  0  0  0  0  0  0  0  0  0  0
   -4.6835   -2.4276   -2.4372 H   0  0  0  0  0  0  0  0  0  0  0  0
   -4.0842   -0.9208   -0.5900 H   0  0  0  0  0  0  0  0  0  0  0  0
   -3.4783    3.3616   -1.5682 H   0  0  0  0  0  0  0  0  0  0  0  0
   -5.5064    4.4783   -0.7313 H   0  0  0  0  0  0  0  0  0  0  0  0
   -6.6887    3.5969    1.2592 H   0  0  0  0  0  0  0  0  0  0  0  0
   -5.8366    1.5779    2.4126 H   0  0  0  0  0  0  0  0  0  0  0  0
   -3.8243    0.4432    1.6055 H   0  0  0  0  0  0  0  0  0  0  0  0
    0.5331    0.6519    2.8440 H   0  0  0  0  0  0  0  0  0  0  0  0
    0.6067    2.3373    2.1496 H   0  0  0  0  0  0  0  0  0  0  0  0
    2.7730    0.6619    3.4090 H   0  0  0  0  0  0  0  0  0  0  0  0
    2.6493    2.4664    3.2862 H   0  0  0  0  0  0  0  0  0  0  0  0
    4.4124    0.9728    1.7462 H   0  0  0  0  0  0  0  0  0  0  0  0
    3.6402    2.4966    1.1626 H   0  0  0  0  0  0  0  0  0  0  0  0
    2.7723    1.2239   -0.5460 H   0  0  0  0  0  0  0  0  0  0  0  0
    4.1566   -0.4758   -1.4979 H   0  0  0  0  0  0  0  0  0  0  0  0
    4.7927   -2.6839   -1.8893 H   0  0  0  0  0  0  0  0  0  0  0  0
    3.5711   -3.2389   -0.6915 H   0  0  0  0  0  0  0  0  0  0  0  0
    6.3612   -2.0537   -0.0357 H   0  0  0  0  0  0  0  0  0  0  0  0
    5.1658   -2.6352    1.1808 H   0  0  0  0  0  0  0  0  0  0  0  0
    6.4948   -4.3583   -1.0100 H   0  0  0  0  0  0  0  0  0  0  0  0
    5.2842   -4.9400    0.2066 H   0  0  0  0  0  0  0  0  0  0  0  0
    6.9018   -4.3511    0.7478 H   0  0  0  0  0  0  0  0  0  0  0  0
  1  2  1  0
  1  3  1  0
  3  4  1  0
  4  5  2  0
  5  6  1  0
  6  7  2  0
  7  8  1  0
  8  9  2  0
  3 10  1  0
 10 11  2  0
 11 12  1  0
 12 13  2  0
 13 14  1  0
 14 15  2  0
  1 16  1  0
 16 17  2  0
 16 18  1  0
 18 19  1  0
 19 20  1  0
 20 21  1  0
 21 22  1  0
 22 23  1  0
 23 24  2  0
 23 25  1  0
 25 26  1  0
 26 27  1  0
 27 28  1  0
  9  4  1  0
 15 10  1  0
 22 18  1  0
  1 29  1  1
  2 30  1  0
  2 31  1  0
  3 32  1  0
  5 33  1  0
  6 34  1  0
  7 35  1  0
  8 36  1  0
  9 37  1  0
 11 38  1  0
 12 39  1  0
 13 40  1  0
 14 41  1  0
 15 42  1  0
 19 43  1  0
 19 44  1  0
 20 45  1  0
 20 46  1  0
 21 47  1  0
 21 48  1  0
 22 49  1  6
 25 50  1  0
 26 51  1  0
 26 52  1  0
 27 53  1  0
 27 54  1  0
 28 55  1  0
 28 56  1  0
 28 57  1  0
M  END
$$$$
