
     RDKit          3D

 25 25  0  0  0  0  0  0  0  0999 V2000
    2.9979   -1.3940    1.2603 O   0  0  0  0  0  1  0  0  0  0  0  0
    3.0353    0.1398    0.5754 S   0  0  0  0  0  6  0  0  0  0  0  0
    2.4094    1.1252    1.5216 O   0  0  0  0  0  0  0  0  0  0  0  0
    4.4642    0.5347    0.3316 O   0  0  0  0  0  0  0  0  0  0  0  0
    2.1529    0.1444   -0.9817 C   0  0  0  0  0  0  0  0  0  0  0  0
    0.8780   -0.7216   -0.9536 C   0  0  0  0  0  0  0  0  0  0  0  0
   -0.1574   -0.2398   -0.0057 N   0  0  0  0  0  4  0  0  0  0  0  0
   -1.2740   -1.2066    0.0429 C   0  0  0  0  0  0  0  0  0  0  0  0
   -2.3600   -0.7449    1.0430 C   0  0  0  0  0  0  0  0  0  0  0  0
   -2.2110    0.6103    1.4285 O   0  0  0  0  0  0  0  0  0  0  0  0
   -2.0211    1.4141    0.2839 C   0  0  0  0  0  0  0  0  0  0  0  0
   -0.6603    1.1079   -0.3737 C   0  0  0  0  0  0  0  0  0  0  0  0
    2.8326   -0.2688   -1.7569 H   0  0  0  0  0  0  0  0  0  0  0  0
    1.9231    1.1883   -1.2774 H   0  0  0  0  0  0  0  0  0  0  0  0
    1.1789   -1.7612   -0.6925 H   0  0  0  0  0  0  0  0  0  0  0  0
    0.4619   -0.7620   -1.9859 H   0  0  0  0  0  0  0  0  0  0  0  0
    0.2583   -0.1972    0.9543 H   0  0  0  0  0  0  0  0  0  0  0  0
   -1.7335   -1.3106   -0.9671 H   0  0  0  0  0  0  0  0  0  0  0  0
   -0.9058   -2.2120    0.3496 H   0  0  0  0  0  0  0  0  0  0  0  0
   -2.2899   -1.3678    1.9600 H   0  0  0  0  0  0  0  0  0  0  0  0
   -3.3741   -0.9106    0.6158 H   0  0  0  0  0  0  0  0  0  0  0  0
   -2.0517    2.4819    0.5883 H   0  0  0  0  0  0  0  0  0  0  0  0
   -2.8503    1.2648   -0.4464 H   0  0  0  0  0  0  0  0  0  0  0  0
   -0.7720    1.2074   -1.4773 H   0  0  0  0  0  0  0  0  0  0  0  0
    0.0683    1.8783   -0.0370 H   0  0  0  0  0  0  0  0  0  0  0  0
  1  2  1  0
  2  3  2  0
  2  4  2  0
  2  5  1  0
  5  6  1  0
  6  7  1  0
  7  8  1  0
  8  9  1  0
  9 10  1  0
 10 11  1  0
 11 12  1  0
 12  7  1  0
  5 13  1  0
  5 14  1  0
  6 15  1  0
  6 16  1  0
  7 17  1  0
  8 18  1  0
  8 19  1  0
  9 20  1  0
  9 21  1  0
 11 22  1  0
 11 23  1  0
 12 24  1  0
 12 25  1  0
M  CHG  2   1  -1   7   1
M  END
$$$$
