
     RDKit          3D

 62 65  0  0  0  0  0  0  0  0999 V2000
    9.7607   -0.1597   -0.2279 C   0  0  0  0  0  0  0  0  0  0  0  0
    8.7537    1.0108   -0.2138 C   0  0  0  0  0  0  0  0  0  0  0  0
    8.8465    1.7278   -1.5765 C   0  0  0  0  0  0  0  0  0  0  0  0
    9.1808    1.9327    0.8499 N   0  0  0  0  0  0  0  0  0  0  0  0
    7.2979    0.5574    0.0228 C   0  0  0  0  0  0  0  0  0  0  0  0
    6.2847    1.5271    0.1851 C   0  0  0  0  0  0  0  0  0  0  0  0
    4.9542    1.1540    0.3897 C   0  0  0  0  0  0  0  0  0  0  0  0
    4.5959   -0.1980    0.4453 C   0  0  0  0  0  0  0  0  0  0  0  0
    5.5834   -1.1729    0.2500 C   0  0  0  0  0  0  0  0  0  0  0  0
    6.9155   -0.8041    0.0438 C   0  0  0  0  0  0  0  0  0  0  0  0
    3.1793   -0.5759    0.6350 C   0  0  0  0  0  0  0  0  0  0  0  0
    2.2381    0.0198   -0.1466 N   0  0  0  0  0  0  0  0  0  0  0  0
    0.9175   -0.2771   -0.0274 C   0  0  0  0  0  0  0  0  0  0  0  0
   -0.0301    0.3522   -0.9017 N   0  0  0  0  0  0  0  0  0  0  0  0
   -1.4556    0.2943   -0.7251 C   0  0  0  0  0  0  0  0  0  0  0  0
   -2.0377    0.3340    0.5542 C   0  0  0  0  0  0  0  0  0  0  0  0
   -3.4276    0.2999    0.6991 C   0  0  0  0  0  0  0  0  0  0  0  0
   -4.2576    0.2505   -0.4315 C   0  0  0  0  0  0  0  0  0  0  0  0
   -5.7532    0.1773   -0.2740 C   0  0  0  0  0  0  0  0  0  0  0  0
   -6.2068   -1.2865   -0.1763 C   0  0  0  0  0  0  0  0  0  0  0  0
   -7.6676   -1.4483   -0.0187 N   0  0  0  0  0  0  0  0  0  0  0  0
   -8.4886   -1.1186   -1.2023 C   0  0  0  0  0  0  0  0  0  0  0  0
   -9.1856    0.2429   -1.0737 C   0  0  0  0  0  0  0  0  0  0  0  0
   -9.8792    0.3368    0.1507 O   0  0  0  0  0  0  0  0  0  0  0  0
   -8.9479    0.3207    1.2097 C   0  0  0  0  0  0  0  0  0  0  0  0
   -8.2297   -1.0338    1.2836 C   0  0  0  0  0  0  0  0  0  0  0  0
   -3.6773    0.2210   -1.7089 C   0  0  0  0  0  0  0  0  0  0  0  0
   -2.2875    0.2562   -1.8534 C   0  0  0  0  0  0  0  0  0  0  0  0
    0.5178   -1.2045    0.8830 N   0  0  0  0  0  0  0  0  0  0  0  0
    1.4124   -1.8190    1.6971 C   0  0  0  0  0  0  0  0  0  0  0  0
    2.7715   -1.5158    1.6019 C   0  0  0  0  0  0  0  0  0  0  0  0
    3.8892   -2.2592    2.7414 Cl  0  0  0  0  0  0  0  0  0  0  0  0
    9.5714   -0.8445   -1.0827 H   0  0  0  0  0  0  0  0  0  0  0  0
    9.7083   -0.7323    0.7232 H   0  0  0  0  0  0  0  0  0  0  0  0
   10.7982    0.2267   -0.3300 H   0  0  0  0  0  0  0  0  0  0  0  0
    8.5371    1.0449   -2.3972 H   0  0  0  0  0  0  0  0  0  0  0  0
    8.1911    2.6238   -1.6049 H   0  0  0  0  0  0  0  0  0  0  0  0
    9.8879    2.0648   -1.7697 H   0  0  0  0  0  0  0  0  0  0  0  0
    8.6675    2.8410    0.7872 H   0  0  0  0  0  0  0  0  0  0  0  0
    8.9628    1.5118    1.7833 H   0  0  0  0  0  0  0  0  0  0  0  0
    6.5147    2.5829    0.1450 H   0  0  0  0  0  0  0  0  0  0  0  0
    4.2025    1.9244    0.5125 H   0  0  0  0  0  0  0  0  0  0  0  0
    5.3210   -2.2235    0.2379 H   0  0  0  0  0  0  0  0  0  0  0  0
    7.6301   -1.5999   -0.1034 H   0  0  0  0  0  0  0  0  0  0  0  0
    0.3410    0.8128   -1.7636 H   0  0  0  0  0  0  0  0  0  0  0  0
   -1.4222    0.4136    1.4402 H   0  0  0  0  0  0  0  0  0  0  0  0
   -3.8575    0.3191    1.6931 H   0  0  0  0  0  0  0  0  0  0  0  0
   -6.0485    0.7304    0.6406 H   0  0  0  0  0  0  0  0  0  0  0  0
   -6.2336    0.6686   -1.1443 H   0  0  0  0  0  0  0  0  0  0  0  0
   -5.6922   -1.7741    0.6811 H   0  0  0  0  0  0  0  0  0  0  0  0
   -5.8761   -1.8349   -1.0860 H   0  0  0  0  0  0  0  0  0  0  0  0
   -9.2685   -1.9024   -1.3115 H   0  0  0  0  0  0  0  0  0  0  0  0
   -7.8813   -1.1349   -2.1340 H   0  0  0  0  0  0  0  0  0  0  0  0
   -8.4691    1.0841   -1.1964 H   0  0  0  0  0  0  0  0  0  0  0  0
   -9.9218    0.3381   -1.8994 H   0  0  0  0  0  0  0  0  0  0  0  0
   -9.4993    0.4763    2.1609 H   0  0  0  0  0  0  0  0  0  0  0  0
   -8.2276    1.1633    1.1256 H   0  0  0  0  0  0  0  0  0  0  0  0
   -7.4436   -0.9915    2.0692 H   0  0  0  0  0  0  0  0  0  0  0  0
   -8.9649   -1.8031    1.6035 H   0  0  0  0  0  0  0  0  0  0  0  0
   -4.3012    0.1709   -2.5929 H   0  0  0  0  0  0  0  0  0  0  0  0
   -1.8562    0.2392   -2.8465 H   0  0  0  0  0  0  0  0  0  0  0  0
    1.0627   -2.5370    2.4272 H   0  0  0  0  0  0  0  0  0  0  0  0
  1  2  1  0
  2  3  1  0
  2  4  1  0
  2  5  1  0
  5  6  2  0
  6  7  1  0
  7  8  2  0
  8  9  1  0
  9 10  2  0
  8 11  1  0
 11 12  2  0
 12 13  1  0
 13 14  1  0
 14 15  1  0
 15 16  2  0
 16 17  1  0
 17 18  2  0
 18 19  1  0
 19 20  1  0
 20 21  1  0
 21 22  1  0
 22 23  1  0
 23 24  1  0
 24 25  1  0
 25 26  1  0
 18 27  1  0
 27 28  2  0
 13 29  2  0
 29 30  1  0
 30 31  2  0
 31 32  1  0
 10  5  1  0
 31 11  1  0
 28 15  1  0
 26 21  1  0
  1 33  1  0
  1 34  1  0
  1 35  1  0
  3 36  1  0
  3 37  1  0
  3 38  1  0
  4 39  1  0
  4 40  1  0
  6 41  1  0
  7 42  1  0
  9 43  1  0
 10 44  1  0
 14 45  1  0
 16 46  1  0
 17 47  1  0
 19 48  1  0
 19 49  1  0
 20 50  1  0
 20 51  1  0
 22 52  1  0
 22 53  1  0
 23 54  1  0
 23 55  1  0
 25 56  1  0
 25 57  1  0
 26 58  1  0
 26 59  1  0
 27 60  1  0
 28 61  1  0
 30 62  1  0
M  END
$$$$
