
     RDKit          3D

 43 46  0  0  0  0  0  0  0  0999 V2000
   -1.4422    5.1208    0.0341 C   0  0  0  0  0  0  0  0  0  0  0  0
   -0.7764    3.7949    0.2553 C   0  0  0  0  0  0  0  0  0  0  0  0
   -1.5221    2.6037    0.1382 C   0  0  0  0  0  0  0  0  0  0  0  0
   -0.8649    1.3823    0.3159 C   0  0  0  0  0  0  0  0  0  0  0  0
    0.4962    1.3339    0.5699 C   0  0  0  0  0  0  0  0  0  0  0  0
    1.2604    2.5014    0.6617 C   0  0  0  0  0  0  0  0  0  0  0  0
    0.6136    3.7358    0.5028 C   0  0  0  0  0  0  0  0  0  0  0  0
    0.9371    0.0564    0.6632 N   0  0  0  0  0  0  0  0  0  0  0  0
    2.3204   -0.3934    0.8544 C   0  0  0  0  0  0  0  0  0  0  0  0
    3.0175   -0.5445   -0.4998 C   0  0  0  0  0  0  0  0  0  0  0  0
    4.4627   -1.0177   -0.3281 C   0  0  0  0  0  0  0  0  0  0  0  0
    5.1112   -1.1333   -1.6304 N   0  0  0  0  0  0  0  0  0  0  0  0
   -0.1537   -0.7163    0.4388 C   0  0  0  0  0  0  0  0  0  0  0  0
   -1.2915    0.0610    0.2389 C   0  0  0  0  0  0  0  0  0  0  0  0
   -2.5229   -0.5678   -0.0028 C   0  0  0  0  0  0  0  0  0  0  0  0
   -2.5730   -1.9583   -0.0650 C   0  0  0  0  0  0  0  0  0  0  0  0
   -3.9629   -2.3369   -0.3203 C   0  0  0  0  0  0  0  0  0  0  0  0
   -4.4001   -3.5114   -0.4405 O   0  0  0  0  0  0  0  0  0  0  0  0
   -4.7836   -1.1795   -0.4102 N   0  0  0  0  0  0  0  0  0  0  0  0
   -3.8968   -0.0851   -0.2008 C   0  0  0  0  0  0  0  0  0  0  0  0
   -4.2874    1.1074   -0.1492 O   0  0  0  0  0  0  0  0  0  0  0  0
   -1.4272   -2.7631    0.1148 C   0  0  0  0  0  0  0  0  0  0  0  0
   -1.5081   -4.2601    0.0412 C   0  0  0  0  0  0  0  0  0  0  0  0
   -0.1946   -2.1223    0.3737 C   0  0  0  0  0  0  0  0  0  0  0  0
   -2.5017    5.0868    0.3662 H   0  0  0  0  0  0  0  0  0  0  0  0
   -1.4088    5.3748   -1.0459 H   0  0  0  0  0  0  0  0  0  0  0  0
   -0.9278    5.9191    0.6104 H   0  0  0  0  0  0  0  0  0  0  0  0
   -2.5665    2.6580   -0.1027 H   0  0  0  0  0  0  0  0  0  0  0  0
    2.3269    2.4704    0.8366 H   0  0  0  0  0  0  0  0  0  0  0  0
    1.1959    4.6470    0.5632 H   0  0  0  0  0  0  0  0  0  0  0  0
    2.8725    0.3323    1.4885 H   0  0  0  0  0  0  0  0  0  0  0  0
    2.3340   -1.3601    1.4010 H   0  0  0  0  0  0  0  0  0  0  0  0
    3.0118    0.4345   -1.0271 H   0  0  0  0  0  0  0  0  0  0  0  0
    2.4593   -1.2806   -1.1187 H   0  0  0  0  0  0  0  0  0  0  0  0
    5.0203   -0.2810    0.2913 H   0  0  0  0  0  0  0  0  0  0  0  0
    4.4816   -2.0027    0.1906 H   0  0  0  0  0  0  0  0  0  0  0  0
    6.1134   -1.3818   -1.4654 H   0  0  0  0  0  0  0  0  0  0  0  0
    4.6848   -1.9430   -2.1373 H   0  0  0  0  0  0  0  0  0  0  0  0
   -5.8166   -1.1424   -0.5570 H   0  0  0  0  0  0  0  0  0  0  0  0
   -2.1929   -4.6368    0.8296 H   0  0  0  0  0  0  0  0  0  0  0  0
   -1.8898   -4.5659   -0.9555 H   0  0  0  0  0  0  0  0  0  0  0  0
   -0.5123   -4.7287    0.1909 H   0  0  0  0  0  0  0  0  0  0  0  0
    0.7044   -2.7079    0.5110 H   0  0  0  0  0  0  0  0  0  0  0  0
  1  2  1  0
  2  3  2  0
  3  4  1  0
  4  5  2  0
  5  6  1  0
  6  7  2  0
  5  8  1  0
  8  9  1  0
  9 10  1  0
 10 11  1  0
 11 12  1  0
  8 13  1  0
 13 14  2  0
 14 15  1  0
 15 16  2  0
 16 17  1  0
 17 18  2  0
 17 19  1  0
 19 20  1  0
 20 21  2  0
 16 22  1  0
 22 23  1  0
 22 24  2  0
  7  2  1  0
 24 13  1  0
 14  4  1  0
 20 15  1  0
  1 25  1  0
  1 26  1  0
  1 27  1  0
  3 28  1  0
  6 29  1  0
  7 30  1  0
  9 31  1  0
  9 32  1  0
 10 33  1  0
 10 34  1  0
 11 35  1  0
 11 36  1  0
 12 37  1  0
 12 38  1  0
 19 39  1  0
 23 40  1  0
 23 41  1  0
 23 42  1  0
 24 43  1  0
M  END
$$$$
