
     RDKit          3D

124123  0  0  0  0  0  0  0  0999 V2000
   -6.8546    0.2035   -1.8651 C   0  0  2  0  0  0  0  0  0  0  0  0
   -8.0457    0.5678   -2.6339 N   0  0  0  0  0  0  0  0  0  0  0  0
   -5.6145    0.2243   -2.7860 C   0  0  0  0  0  0  0  0  0  0  0  0
   -4.2816    0.1061   -2.0265 C   0  0  0  0  0  0  0  0  0  0  0  0
   -3.9548   -1.3137   -1.6771 C   0  0  0  0  0  0  0  0  0  0  0  0
   -3.6151   -2.1887   -2.7135 O   0  0  0  0  0  0  0  0  0  0  0  0
   -3.9994   -1.6836   -0.4277 N   0  0  0  0  0  0  0  0  0  0  0  0
   -3.7032   -3.0068    0.1296 C   0  0  1  0  0  0  0  0  0  0  0  0
   -2.2421   -3.0885    0.6038 C   0  0  0  0  0  0  0  0  0  0  0  0
   -1.0567   -3.0169   -0.7855 S   0  0  0  0  0  0  0  0  0  0  0  0
   -0.6959   -0.9135   -0.6138 S   0  0  0  0  0  0  0  0  0  0  0  0
    0.7310   -1.0871    0.5160 C   0  0  0  0  0  0  0  0  0  0  0  0
    2.0492   -1.1544   -0.2648 C   0  0  2  0  0  0  0  0  0  0  0  0
    2.0957   -2.4056   -1.0280 N   0  0  0  0  0  0  0  0  0  0  0  0
    2.9021   -2.7117   -2.0072 C   0  0  0  0  0  0  0  0  0  0  0  0
    2.7674   -3.9555   -2.6189 O   0  0  0  0  0  0  0  0  0  0  0  0
    3.9462   -1.7611   -2.5448 C   0  0  0  0  0  0  0  0  0  0  0  0
    5.3247   -2.4210   -2.7124 C   0  0  0  0  0  0  0  0  0  0  0  0
    6.0025   -2.7535   -1.3667 C   0  0  1  0  0  0  0  0  0  0  0  0
    5.3582   -3.9058   -0.7328 N   0  0  0  0  0  0  0  0  0  0  0  0
    7.4701   -3.0223   -1.5708 C   0  0  0  0  0  0  0  0  0  0  0  0
    7.8824   -4.0179   -2.4522 O   0  0  0  0  0  0  0  0  0  0  0  0
    8.3281   -2.3533   -0.9348 O   0  0  0  0  0  0  0  0  0  0  0  0
    3.2064   -1.1031    0.7098 C   0  0  0  0  0  0  0  0  0  0  0  0
    3.6257   -2.2942    1.2977 O   0  0  0  0  0  0  0  0  0  0  0  0
    3.7929    0.0072    1.0626 N   0  0  0  0  0  0  0  0  0  0  0  0
    3.5042    1.3625    0.5912 C   0  0  0  0  0  0  0  0  0  0  0  0
    4.0563    1.5968   -0.7912 C   0  0  0  0  0  0  0  0  0  0  0  0
    3.1639    1.8944   -1.8175 O   0  0  0  0  0  0  0  0  0  0  0  0
    5.3298    1.5385   -1.0609 N   0  0  0  0  0  0  0  0  0  0  0  0
    6.4002    1.2646   -0.1036 C   0  0  0  0  0  0  0  0  0  0  0  0
    7.7468    1.2019   -0.8265 C   0  0  0  0  0  0  0  0  0  0  0  0
    8.1683    2.5779   -1.3757 C   0  0  0  0  0  0  0  0  0  0  0  0
    9.3919    2.5075   -2.1902 N   0  0  0  0  0  0  0  0  0  0  0  0
   10.5894    2.2422   -1.3816 C   0  0  0  0  0  0  0  0  0  0  0  0
   11.8452    2.5325   -2.2119 C   0  0  0  0  0  0  0  0  0  0  0  0
   13.1446    2.1078   -1.5049 C   0  0  0  0  0  0  0  0  0  0  0  0
   13.4520    2.8854   -0.2164 C   0  0  0  0  0  0  0  0  0  0  0  0
   13.6259    4.3099   -0.4893 N   0  0  0  0  0  0  0  0  0  0  0  0
   -4.6140   -3.2547    1.2978 C   0  0  0  0  0  0  0  0  0  0  0  0
   -5.2376   -4.5011    1.4093 O   0  0  0  0  0  0  0  0  0  0  0  0
   -4.7832   -2.3209    2.1901 N   0  0  0  0  0  0  0  0  0  0  0  0
   -5.6203   -2.4410    3.3786 C   0  0  0  0  0  0  0  0  0  0  0  0
   -5.5899   -1.1628    4.1541 C   0  0  0  0  0  0  0  0  0  0  0  0
   -4.4294   -0.3820    4.1313 O   0  0  0  0  0  0  0  0  0  0  0  0
   -6.6310   -0.8363    4.8655 N   0  0  0  0  0  0  0  0  0  0  0  0
   -6.7796    0.3673    5.6822 C   0  0  0  0  0  0  0  0  0  0  0  0
   -7.0771    1.5983    4.8153 C   0  0  0  0  0  0  0  0  0  0  0  0
   -8.4217    1.4626    4.0750 C   0  0  0  0  0  0  0  0  0  0  0  0
   -8.7788    2.6880    3.3400 N   0  0  0  0  0  0  0  0  0  0  0  0
   -8.1478    2.7661    2.0127 C   0  0  0  0  0  0  0  0  0  0  0  0
   -9.0097    2.0748    0.9483 C   0  0  0  0  0  0  0  0  0  0  0  0
  -10.4210    2.6780    0.8662 C   0  0  0  0  0  0  0  0  0  0  0  0
  -11.2328    2.1041   -0.3011 C   0  0  0  0  0  0  0  0  0  0  0  0
  -11.5713    0.7028   -0.0640 N   0  0  0  0  0  0  0  0  0  0  0  0
   -7.0659   -1.1463   -1.2367 C   0  0  0  0  0  0  0  0  0  0  0  0
   -7.2064   -1.2494    0.1436 O   0  0  0  0  0  0  0  0  0  0  0  0
   -7.1561   -2.1780   -1.9557 O   0  0  0  0  0  0  0  0  0  0  0  0
   -6.7066    0.9534   -1.0558 H   0  0  0  0  0  0  0  0  0  0  0  0
   -8.8731    0.5499   -1.9942 H   0  0  0  0  0  0  0  0  0  0  0  0
   -7.9475    1.5622   -2.9438 H   0  0  0  0  0  0  0  0  0  0  0  0
   -5.5996    1.1991   -3.3214 H   0  0  0  0  0  0  0  0  0  0  0  0
   -5.6930   -0.5647   -3.5666 H   0  0  0  0  0  0  0  0  0  0  0  0
   -3.4662    0.4891   -2.6771 H   0  0  0  0  0  0  0  0  0  0  0  0
   -4.2958    0.7441   -1.1153 H   0  0  0  0  0  0  0  0  0  0  0  0
   -3.3693   -3.1589   -2.5803 H   0  0  0  0  0  0  0  0  0  0  0  0
   -3.9059   -3.8077   -0.6101 H   0  0  0  0  0  0  0  0  0  0  0  0
   -2.0288   -2.2924    1.3496 H   0  0  0  0  0  0  0  0  0  0  0  0
   -2.0828   -4.0640    1.1117 H   0  0  0  0  0  0  0  0  0  0  0  0
    0.7364   -0.1916    1.1731 H   0  0  0  0  0  0  0  0  0  0  0  0
    0.6150   -1.9777    1.1710 H   0  0  0  0  0  0  0  0  0  0  0  0
    2.0687   -0.2997   -0.9696 H   0  0  0  0  0  0  0  0  0  0  0  0
    2.0730   -4.6223   -2.3027 H   0  0  0  0  0  0  0  0  0  0  0  0
    3.6003   -1.4069   -3.5390 H   0  0  0  0  0  0  0  0  0  0  0  0
    4.0683   -0.8664   -1.9111 H   0  0  0  0  0  0  0  0  0  0  0  0
    5.9670   -1.7000   -3.2659 H   0  0  0  0  0  0  0  0  0  0  0  0
    5.2427   -3.3331   -3.3438 H   0  0  0  0  0  0  0  0  0  0  0  0
    5.8981   -1.8756   -0.6920 H   0  0  0  0  0  0  0  0  0  0  0  0
    5.8049   -4.0690    0.1991 H   0  0  0  0  0  0  0  0  0  0  0  0
    5.5204   -4.7618   -1.3126 H   0  0  0  0  0  0  0  0  0  0  0  0
    8.8666   -4.2102   -2.5949 H   0  0  0  0  0  0  0  0  0  0  0  0
    4.3894   -2.3098    1.9634 H   0  0  0  0  0  0  0  0  0  0  0  0
    3.9713    2.0884    1.2887 H   0  0  0  0  0  0  0  0  0  0  0  0
    2.4099    1.5514    0.6110 H   0  0  0  0  0  0  0  0  0  0  0  0
    3.4884    2.0527   -2.7643 H   0  0  0  0  0  0  0  0  0  0  0  0
    6.2296    0.2832    0.3841 H   0  0  0  0  0  0  0  0  0  0  0  0
    6.4232    2.0541    0.6788 H   0  0  0  0  0  0  0  0  0  0  0  0
    7.6808    0.4638   -1.6560 H   0  0  0  0  0  0  0  0  0  0  0  0
    8.5080    0.8416   -0.1027 H   0  0  0  0  0  0  0  0  0  0  0  0
    7.3554    2.9779   -2.0189 H   0  0  0  0  0  0  0  0  0  0  0  0
    8.3007    3.2995   -0.5392 H   0  0  0  0  0  0  0  0  0  0  0  0
    9.2867    1.7497   -2.9057 H   0  0  0  0  0  0  0  0  0  0  0  0
   10.6039    1.1781   -1.0573 H   0  0  0  0  0  0  0  0  0  0  0  0
   10.5938    2.8963   -0.4830 H   0  0  0  0  0  0  0  0  0  0  0  0
   11.8820    3.6111   -2.4751 H   0  0  0  0  0  0  0  0  0  0  0  0
   11.7790    1.9656   -3.1663 H   0  0  0  0  0  0  0  0  0  0  0  0
   13.0925    1.0232   -1.2659 H   0  0  0  0  0  0  0  0  0  0  0  0
   13.9917    2.2465   -2.2117 H   0  0  0  0  0  0  0  0  0  0  0  0
   12.6570    2.7285    0.5446 H   0  0  0  0  0  0  0  0  0  0  0  0
   14.3967    2.4807    0.2093 H   0  0  0  0  0  0  0  0  0  0  0  0
   12.6793    4.7500   -0.5511 H   0  0  0  0  0  0  0  0  0  0  0  0
   14.0884    4.7399    0.3443 H   0  0  0  0  0  0  0  0  0  0  0  0
   -5.8553   -4.7444    2.1730 H   0  0  0  0  0  0  0  0  0  0  0  0
   -5.2381   -3.2593    4.0257 H   0  0  0  0  0  0  0  0  0  0  0  0
   -6.6663   -2.6668    3.0751 H   0  0  0  0  0  0  0  0  0  0  0  0
   -4.3241    0.4781    4.6522 H   0  0  0  0  0  0  0  0  0  0  0  0
   -5.8718    0.5334    6.3006 H   0  0  0  0  0  0  0  0  0  0  0  0
   -7.6220    0.2111    6.3893 H   0  0  0  0  0  0  0  0  0  0  0  0
   -6.2547    1.7533    4.0873 H   0  0  0  0  0  0  0  0  0  0  0  0
   -7.1124    2.4875    5.4813 H   0  0  0  0  0  0  0  0  0  0  0  0
   -9.2221    1.2684    4.8208 H   0  0  0  0  0  0  0  0  0  0  0  0
   -8.3968    0.5847    3.3929 H   0  0  0  0  0  0  0  0  0  0  0  0
   -8.5072    3.5298    3.9002 H   0  0  0  0  0  0  0  0  0  0  0  0
   -8.0250    3.8343    1.7254 H   0  0  0  0  0  0  0  0  0  0  0  0
   -7.1312    2.3157    2.0137 H   0  0  0  0  0  0  0  0  0  0  0  0
   -8.5068    2.1972   -0.0341 H   0  0  0  0  0  0  0  0  0  0  0  0
   -9.0705    0.9887    1.1694 H   0  0  0  0  0  0  0  0  0  0  0  0
  -10.9695    2.4947    1.8159 H   0  0  0  0  0  0  0  0  0  0  0  0
  -10.3382    3.7779    0.7246 H   0  0  0  0  0  0  0  0  0  0  0  0
  -10.6727    2.2121   -1.2567 H   0  0  0  0  0  0  0  0  0  0  0  0
  -12.1725    2.6922   -0.3921 H   0  0  0  0  0  0  0  0  0  0  0  0
  -12.2983    0.4287   -0.7640 H   0  0  0  0  0  0  0  0  0  0  0  0
  -10.7311    0.1184   -0.2776 H   0  0  0  0  0  0  0  0  0  0  0  0
   -7.3772   -2.1463    0.5819 H   0  0  0  0  0  0  0  0  0  0  0  0
  1  2  1  0
  1  3  1  0
  3  4  1  0
  4  5  1  0
  5  6  1  0
  5  7  2  3
  7  8  1  0
  8  9  1  0
  9 10  1  0
 10 11  1  0
 11 12  1  0
 12 13  1  0
 13 14  1  0
 14 15  2  3
 15 16  1  0
 15 17  1  0
 17 18  1  0
 18 19  1  0
 19 20  1  0
 19 21  1  0
 21 22  1  0
 21 23  2  0
 13 24  1  0
 24 25  1  0
 24 26  2  3
 26 27  1  0
 27 28  1  0
 28 29  1  0
 28 30  2  3
 30 31  1  0
 31 32  1  0
 32 33  1  0
 33 34  1  0
 34 35  1  0
 35 36  1  0
 36 37  1  0
 37 38  1  0
 38 39  1  0
  8 40  1  0
 40 41  1  0
 40 42  2  3
 42 43  1  0
 43 44  1  0
 44 45  1  0
 44 46  2  3
 46 47  1  0
 47 48  1  0
 48 49  1  0
 49 50  1  0
 50 51  1  0
 51 52  1  0
 52 53  1  0
 53 54  1  0
 54 55  1  0
  1 56  1  0
 56 57  1  0
 56 58  2  0
  1 59  1  1
  2 60  1  0
  2 61  1  0
  3 62  1  0
  3 63  1  0
  4 64  1  0
  4 65  1  0
  6 66  1  0
  8 67  1  6
  9 68  1  0
  9 69  1  0
 12 70  1  0
 12 71  1  0
 13 72  1  6
 16 73  1  0
 17 74  1  0
 17 75  1  0
 18 76  1  0
 18 77  1  0
 19 78  1  1
 20 79  1  0
 20 80  1  0
 22 81  1  0
 25 82  1  0
 27 83  1  0
 27 84  1  0
 29 85  1  0
 31 86  1  0
 31 87  1  0
 32 88  1  0
 32 89  1  0
 33 90  1  0
 33 91  1  0
 34 92  1  0
 35 93  1  0
 35 94  1  0
 36 95  1  0
 36 96  1  0
 37 97  1  0
 37 98  1  0
 38 99  1  0
 38100  1  0
 39101  1  0
 39102  1  0
 41103  1  0
 43104  1  0
 43105  1  0
 45106  1  0
 47107  1  0
 47108  1  0
 48109  1  0
 48110  1  0
 49111  1  0
 49112  1  0
 50113  1  0
 51114  1  0
 51115  1  0
 52116  1  0
 52117  1  0
 53118  1  0
 53119  1  0
 54120  1  0
 54121  1  0
 55122  1  0
 55123  1  0
 57124  1  0
M  END
$$$$
