
     RDKit          3D

 31 30  0  0  0  0  0  0  0  0999 V2000
   -4.0449   -1.4078   -1.2617 C   0  0  0  0  0  0  0  0  0  0  0  0
   -2.9771   -1.1530   -0.2535 C   0  0  0  0  0  0  0  0  0  0  0  0
   -3.1439   -1.5260    0.9395 O   0  0  0  0  0  0  0  0  0  0  0  0
   -1.7794   -0.5511   -0.6580 O   0  0  0  0  0  0  0  0  0  0  0  0
   -0.7071   -0.2267    0.2329 C   0  0  2  0  0  0  0  0  0  0  0  0
   -1.0928    1.0275    1.0480 C   0  0  0  0  0  0  0  0  0  0  0  0
   -1.2034    2.2635    0.2050 C   0  0  0  0  0  0  0  0  0  0  0  0
   -2.1773    2.3493   -0.7821 O   0  0  0  0  0  1  0  0  0  0  0  0
   -0.4247    3.2341    0.3950 O   0  0  0  0  0  0  0  0  0  0  0  0
    0.5904   -0.0934   -0.6250 C   0  0  0  0  0  0  0  0  0  0  0  0
    1.9160   -0.0377    0.0846 N   0  0  0  0  0  4  0  0  0  0  0  0
    2.9652   -0.4657   -0.8770 C   0  0  0  0  0  0  0  0  0  0  0  0
    1.9770   -0.9431    1.2565 C   0  0  0  0  0  0  0  0  0  0  0  0
    2.2473    1.3451    0.5083 C   0  0  0  0  0  0  0  0  0  0  0  0
   -3.9429   -2.4403   -1.6553 H   0  0  0  0  0  0  0  0  0  0  0  0
   -5.0460   -1.2893   -0.7959 H   0  0  0  0  0  0  0  0  0  0  0  0
   -3.9527   -0.6866   -2.1007 H   0  0  0  0  0  0  0  0  0  0  0  0
   -0.5910   -1.0796    0.9337 H   0  0  0  0  0  0  0  0  0  0  0  0
   -0.3948    1.1794    1.8925 H   0  0  0  0  0  0  0  0  0  0  0  0
   -2.0808    0.8581    1.5249 H   0  0  0  0  0  0  0  0  0  0  0  0
    0.5734   -0.9859   -1.2936 H   0  0  0  0  0  0  0  0  0  0  0  0
    0.4834    0.7706   -1.3186 H   0  0  0  0  0  0  0  0  0  0  0  0
    3.9834   -0.3990   -0.4304 H   0  0  0  0  0  0  0  0  0  0  0  0
    2.9529    0.1712   -1.7905 H   0  0  0  0  0  0  0  0  0  0  0  0
    2.8150   -1.5227   -1.1937 H   0  0  0  0  0  0  0  0  0  0  0  0
    1.6691   -1.9753    0.9767 H   0  0  0  0  0  0  0  0  0  0  0  0
    1.3240   -0.5857    2.0816 H   0  0  0  0  0  0  0  0  0  0  0  0
    3.0092   -0.9948    1.6708 H   0  0  0  0  0  0  0  0  0  0  0  0
    2.1483    2.0620   -0.3369 H   0  0  0  0  0  0  0  0  0  0  0  0
    1.6099    1.6924    1.3393 H   0  0  0  0  0  0  0  0  0  0  0  0
    3.2939    1.4101    0.8831 H   0  0  0  0  0  0  0  0  0  0  0  0
  1  2  1  0
  2  3  2  0
  2  4  1  0
  4  5  1  0
  5  6  1  0
  6  7  1  0
  7  8  1  0
  7  9  2  0
  5 10  1  0
 10 11  1  0
 11 12  1  0
 11 13  1  0
 11 14  1  0
  1 15  1  0
  1 16  1  0
  1 17  1  0
  5 18  1  1
  6 19  1  0
  6 20  1  0
 10 21  1  0
 10 22  1  0
 12 23  1  0
 12 24  1  0
 12 25  1  0
 13 26  1  0
 13 27  1  0
 13 28  1  0
 14 29  1  0
 14 30  1  0
 14 31  1  0
M  CHG  2   8  -1  11   1
M  END
$$$$
