
     RDKit          3D

 41 41  0  0  0  0  0  0  0  0999 V2000
    5.7375    2.0485   -0.2617 C   0  0  0  0  0  0  0  0  0  0  0  0
    5.0933    0.6905   -0.5251 C   0  0  0  0  0  0  0  0  0  0  0  0
    3.7180    0.5898    0.1449 C   0  0  0  0  0  0  0  0  0  0  0  0
    3.0711   -0.7757   -0.1326 C   0  0  0  0  0  0  0  0  0  0  0  0
    1.7496   -0.9728    0.6278 C   0  0  0  0  0  0  0  0  0  0  0  0
    0.5960   -0.1498    0.0294 C   0  0  0  0  0  0  0  0  0  0  0  0
   -0.7222   -0.3354    0.7972 C   0  0  0  0  0  0  0  0  0  0  0  0
   -1.3319   -1.7358    0.6045 C   0  0  0  0  0  0  0  0  0  0  0  0
   -2.7729   -1.8269    1.1482 C   0  0  0  0  0  0  0  0  0  0  0  0
   -3.8487   -1.6527    0.0633 C   0  0  0  0  0  0  0  0  0  0  0  0
   -3.8653   -0.2663   -0.5128 C   0  0  0  0  0  0  0  0  0  0  0  0
   -4.3699    0.8201    0.0671 C   0  0  0  0  0  0  0  0  0  0  0  0
   -5.0132    0.8474    1.3006 O   0  0  0  0  0  0  0  0  0  0  0  0
   -4.1202    1.9671   -0.8005 C   0  0  0  0  0  0  0  0  0  0  0  0
   -4.4613    3.1553   -0.5633 O   0  0  0  0  0  0  0  0  0  0  0  0
   -3.4198    1.5612   -1.9672 N   0  0  0  0  0  0  0  0  0  0  0  0
   -3.2593    0.1613   -1.7772 C   0  0  0  0  0  0  0  0  0  0  0  0
   -2.6635   -0.5898   -2.5932 O   0  0  0  0  0  0  0  0  0  0  0  0
    5.1019    2.8630   -0.6699 H   0  0  0  0  0  0  0  0  0  0  0  0
    5.8777    2.2040    0.8293 H   0  0  0  0  0  0  0  0  0  0  0  0
    6.7305    2.0912   -0.7569 H   0  0  0  0  0  0  0  0  0  0  0  0
    5.7621   -0.1060   -0.1318 H   0  0  0  0  0  0  0  0  0  0  0  0
    4.9863    0.5500   -1.6230 H   0  0  0  0  0  0  0  0  0  0  0  0
    3.8346    0.7283    1.2424 H   0  0  0  0  0  0  0  0  0  0  0  0
    3.0688    1.4006   -0.2482 H   0  0  0  0  0  0  0  0  0  0  0  0
    3.7738   -1.5750    0.1906 H   0  0  0  0  0  0  0  0  0  0  0  0
    2.9005   -0.9002   -1.2247 H   0  0  0  0  0  0  0  0  0  0  0  0
    1.4922   -2.0515    0.5729 H   0  0  0  0  0  0  0  0  0  0  0  0
    1.8883   -0.7126    1.7000 H   0  0  0  0  0  0  0  0  0  0  0  0
    0.8549    0.9288    0.0696 H   0  0  0  0  0  0  0  0  0  0  0  0
    0.4485   -0.4209   -1.0390 H   0  0  0  0  0  0  0  0  0  0  0  0
   -1.4322    0.4356    0.4353 H   0  0  0  0  0  0  0  0  0  0  0  0
   -0.5569   -0.1454    1.8804 H   0  0  0  0  0  0  0  0  0  0  0  0
   -0.7085   -2.4684    1.1605 H   0  0  0  0  0  0  0  0  0  0  0  0
   -1.3032   -2.0275   -0.4681 H   0  0  0  0  0  0  0  0  0  0  0  0
   -2.9129   -2.8380    1.5895 H   0  0  0  0  0  0  0  0  0  0  0  0
   -2.9365   -1.0978    1.9723 H   0  0  0  0  0  0  0  0  0  0  0  0
   -4.8444   -1.8665    0.5087 H   0  0  0  0  0  0  0  0  0  0  0  0
   -3.6899   -2.3949   -0.7485 H   0  0  0  0  0  0  0  0  0  0  0  0
   -5.3660    1.7168    1.6812 H   0  0  0  0  0  0  0  0  0  0  0  0
   -3.0870    2.1503   -2.7622 H   0  0  0  0  0  0  0  0  0  0  0  0
  1  2  1  0
  2  3  1  0
  3  4  1  0
  4  5  1  0
  5  6  1  0
  6  7  1  0
  7  8  1  0
  8  9  1  0
  9 10  1  0
 10 11  1  0
 11 12  2  0
 12 13  1  0
 12 14  1  0
 14 15  2  0
 14 16  1  0
 16 17  1  0
 17 18  2  0
 17 11  1  0
  1 19  1  0
  1 20  1  0
  1 21  1  0
  2 22  1  0
  2 23  1  0
  3 24  1  0
  3 25  1  0
  4 26  1  0
  4 27  1  0
  5 28  1  0
  5 29  1  0
  6 30  1  0
  6 31  1  0
  7 32  1  0
  7 33  1  0
  8 34  1  0
  8 35  1  0
  9 36  1  0
  9 37  1  0
 10 38  1  0
 10 39  1  0
 13 40  1  0
 16 41  1  0
M  END
$$$$
