
     RDKit          3D

 54 57  0  0  0  0  0  0  0  0999 V2000
    5.3554   -0.9003   -1.3250 C   0  0  2  0  0  0  0  0  0  0  0  0
    4.0693   -1.0554   -2.1512 C   0  0  0  0  0  0  0  0  0  0  0  0
    2.8522   -0.7652   -1.3133 C   0  0  0  0  0  0  0  0  0  0  0  0
    2.3216    0.5421   -1.2653 C   0  0  0  0  0  0  0  0  0  0  0  0
    1.2350    0.7785   -0.4280 C   0  0  0  0  0  0  0  0  0  0  0  0
    0.6769   -0.2108    0.3406 C   0  0  0  0  0  0  0  0  0  0  0  0
    1.1843   -1.5137    0.3238 C   0  0  0  0  0  0  0  0  0  0  0  0
    2.2833   -1.7847   -0.5100 C   0  0  0  0  0  0  0  0  0  0  0  0
   -0.3540    0.2839    1.0592 N   0  0  0  0  0  0  0  0  0  0  0  0
   -1.2507   -0.4229    1.9753 C   0  0  0  0  0  0  0  0  0  0  0  0
   -2.6030   -0.5848    1.3500 C   0  0  0  0  0  0  0  0  0  0  0  0
   -2.9864   -1.5283    0.4210 C   0  0  0  0  0  0  0  0  0  0  0  0
   -2.1650   -2.6367   -0.1485 C   0  0  0  0  0  0  0  0  0  0  0  0
   -4.2225   -1.2717    0.0766 O   0  0  0  0  0  0  0  0  0  0  0  0
   -4.6057   -0.2100    0.7532 C   0  0  0  0  0  0  0  0  0  0  0  0
   -3.6268    0.2642    1.5584 N   0  0  0  0  0  0  0  0  0  0  0  0
   -5.9502    0.4141    0.6495 C   0  0  0  0  0  0  0  0  0  0  0  0
   -6.9728   -0.1076   -0.1842 C   0  0  0  0  0  0  0  0  0  0  0  0
   -6.7620   -1.5473   -1.1770 Cl  0  0  0  0  0  0  0  0  0  0  0  0
   -8.2203    0.5283   -0.2395 C   0  0  0  0  0  0  0  0  0  0  0  0
   -8.4680    1.6724    0.5190 C   0  0  0  0  0  0  0  0  0  0  0  0
   -7.4705    2.1925    1.3413 C   0  0  0  0  0  0  0  0  0  0  0  0
   -6.2220    1.5705    1.4077 C   0  0  0  0  0  0  0  0  0  0  0  0
   -0.4424    1.5969    0.7351 C   0  0  0  0  0  0  0  0  0  0  0  0
    0.5359    1.9414   -0.1892 C   0  0  0  0  0  0  0  0  0  0  0  0
    5.4880    0.4494   -0.9046 O   0  0  0  0  0  0  0  0  0  0  0  0
    5.4516    0.5479    0.5037 C   0  0  0  0  0  0  0  0  0  0  0  0
    5.4751    2.0149    0.9016 C   0  0  0  0  0  0  0  0  0  0  0  0
    6.5407   -1.2626   -2.1697 C   0  0  0  0  0  0  0  0  0  0  0  0
    7.1401   -2.5099   -2.0232 O   0  0  0  0  0  0  0  0  0  0  0  0
    6.9750   -0.4555   -3.0354 O   0  0  0  0  0  0  0  0  0  0  0  0
    5.3143   -1.6353   -0.4825 H   0  0  0  0  0  0  0  0  0  0  0  0
    4.0967   -0.3698   -3.0274 H   0  0  0  0  0  0  0  0  0  0  0  0
    4.0023   -2.0924   -2.5495 H   0  0  0  0  0  0  0  0  0  0  0  0
    2.7512    1.3462   -1.8502 H   0  0  0  0  0  0  0  0  0  0  0  0
    0.7621   -2.3004    0.9321 H   0  0  0  0  0  0  0  0  0  0  0  0
    2.6990   -2.7845   -0.5255 H   0  0  0  0  0  0  0  0  0  0  0  0
   -1.3493    0.1630    2.9144 H   0  0  0  0  0  0  0  0  0  0  0  0
   -0.8419   -1.4142    2.2559 H   0  0  0  0  0  0  0  0  0  0  0  0
   -1.6556   -3.1908    0.6668 H   0  0  0  0  0  0  0  0  0  0  0  0
   -2.8178   -3.3410   -0.7051 H   0  0  0  0  0  0  0  0  0  0  0  0
   -1.4100   -2.2186   -0.8456 H   0  0  0  0  0  0  0  0  0  0  0  0
   -9.0039    0.1336   -0.8741 H   0  0  0  0  0  0  0  0  0  0  0  0
   -9.4350    2.1562    0.4691 H   0  0  0  0  0  0  0  0  0  0  0  0
   -7.6641    3.0804    1.9294 H   0  0  0  0  0  0  0  0  0  0  0  0
   -5.4674    1.9993    2.0553 H   0  0  0  0  0  0  0  0  0  0  0  0
   -1.1828    2.2742    1.1412 H   0  0  0  0  0  0  0  0  0  0  0  0
    0.7078    2.9149   -0.6289 H   0  0  0  0  0  0  0  0  0  0  0  0
    6.3390    0.0433    0.9480 H   0  0  0  0  0  0  0  0  0  0  0  0
    4.5200    0.0940    0.9127 H   0  0  0  0  0  0  0  0  0  0  0  0
    5.4520    2.1044    2.0082 H   0  0  0  0  0  0  0  0  0  0  0  0
    6.3993    2.4979    0.5195 H   0  0  0  0  0  0  0  0  0  0  0  0
    4.5892    2.5356    0.4793 H   0  0  0  0  0  0  0  0  0  0  0  0
    7.9329   -2.7757   -2.5950 H   0  0  0  0  0  0  0  0  0  0  0  0
  1  2  1  0
  2  3  1  0
  3  4  2  0
  4  5  1  0
  5  6  2  0
  6  7  1  0
  7  8  2  0
  6  9  1  0
  9 10  1  0
 10 11  1  0
 11 12  2  0
 12 13  1  0
 12 14  1  0
 14 15  1  0
 15 16  2  0
 15 17  1  0
 17 18  2  0
 18 19  1  0
 18 20  1  0
 20 21  2  0
 21 22  1  0
 22 23  2  0
  9 24  1  0
 24 25  2  0
  1 26  1  0
 26 27  1  0
 27 28  1  0
  1 29  1  0
 29 30  1  0
 29 31  2  0
  8  3  1  0
 16 11  1  0
 23 17  1  0
 25  5  1  0
  1 32  1  1
  2 33  1  0
  2 34  1  0
  4 35  1  0
  7 36  1  0
  8 37  1  0
 10 38  1  0
 10 39  1  0
 13 40  1  0
 13 41  1  0
 13 42  1  0
 20 43  1  0
 21 44  1  0
 22 45  1  0
 23 46  1  0
 24 47  1  0
 25 48  1  0
 27 49  1  0
 27 50  1  0
 28 51  1  0
 28 52  1  0
 28 53  1  0
 30 54  1  0
M  END
$$$$
