
     RDKit          3D

 49 51  0  0  0  0  0  0  0  0999 V2000
   -2.7205   -3.4691    1.2812 C   0  0  0  0  0  0  0  0  0  0  0  0
   -2.8917   -2.7220   -0.0549 C   0  0  0  0  0  0  0  0  0  0  0  0
   -2.4028   -3.6130   -1.2127 C   0  0  0  0  0  0  0  0  0  0  0  0
   -4.3877   -2.4065   -0.2641 C   0  0  0  0  0  0  0  0  0  0  0  0
   -2.0750   -1.4418   -0.0242 C   0  0  0  0  0  0  0  0  0  0  0  0
   -2.5934   -0.2011   -0.1443 N   0  0  0  0  0  0  0  0  0  0  0  0
   -1.5980    0.6670   -0.0616 N   0  0  0  0  0  0  0  0  0  0  0  0
   -0.4320   -0.0005    0.0912 C   0  0  0  0  0  0  0  0  0  0  0  0
    0.8658    0.6256    0.1356 N   0  0  0  0  0  0  0  0  0  0  0  0
    2.1196   -0.0708    0.0536 C   0  0  0  0  0  0  0  0  0  0  0  0
    2.1613   -1.2705   -0.3296 O   0  0  0  0  0  0  0  0  0  0  0  0
    3.3375    0.6365    0.3351 N   0  0  0  0  0  0  0  0  0  0  0  0
    4.6208    0.0057    0.4876 C   0  0  0  0  0  0  0  0  0  0  0  0
    5.7787    0.6989    0.1002 C   0  0  0  0  0  0  0  0  0  0  0  0
    7.0397    0.1158    0.2590 C   0  0  0  0  0  0  0  0  0  0  0  0
    7.1562   -1.1583    0.8201 C   0  0  0  0  0  0  0  0  0  0  0  0
    6.0124   -1.8476    1.2307 C   0  0  0  0  0  0  0  0  0  0  0  0
    4.7492   -1.2683    1.0728 C   0  0  0  0  0  0  0  0  0  0  0  0
   -0.6994   -1.3578    0.1346 C   0  0  0  0  0  0  0  0  0  0  0  0
   -1.7988    2.0856   -0.1330 C   0  0  0  0  0  0  0  0  0  0  0  0
   -1.3053    2.9300    0.8740 C   0  0  0  0  0  0  0  0  0  0  0  0
   -1.5355    4.3069    0.8131 C   0  0  0  0  0  0  0  0  0  0  0  0
   -2.2727    4.8488   -0.2431 C   0  0  0  0  0  0  0  0  0  0  0  0
   -2.7916    4.0129   -1.2419 C   0  0  0  0  0  0  0  0  0  0  0  0
   -3.5556    4.5654   -2.3170 N   0  0  0  0  0  0  0  0  0  0  0  0
   -2.5592    2.6310   -1.1785 C   0  0  0  0  0  0  0  0  0  0  0  0
   -3.3276   -4.4001    1.2904 H   0  0  0  0  0  0  0  0  0  0  0  0
   -1.6579   -3.7502    1.4456 H   0  0  0  0  0  0  0  0  0  0  0  0
   -3.0474   -2.8291    2.1294 H   0  0  0  0  0  0  0  0  0  0  0  0
   -1.3378   -3.8977   -1.0728 H   0  0  0  0  0  0  0  0  0  0  0  0
   -3.0031   -4.5468   -1.2692 H   0  0  0  0  0  0  0  0  0  0  0  0
   -2.4964   -3.0771   -2.1822 H   0  0  0  0  0  0  0  0  0  0  0  0
   -4.9873   -3.3423   -0.2885 H   0  0  0  0  0  0  0  0  0  0  0  0
   -4.7737   -1.7700    0.5616 H   0  0  0  0  0  0  0  0  0  0  0  0
   -4.5446   -1.8699   -1.2250 H   0  0  0  0  0  0  0  0  0  0  0  0
    0.9143    1.6651    0.1963 H   0  0  0  0  0  0  0  0  0  0  0  0
    3.2993    1.6808    0.3550 H   0  0  0  0  0  0  0  0  0  0  0  0
    5.7016    1.6878   -0.3342 H   0  0  0  0  0  0  0  0  0  0  0  0
    7.9267    0.6530   -0.0510 H   0  0  0  0  0  0  0  0  0  0  0  0
    8.1329   -1.6076    0.9447 H   0  0  0  0  0  0  0  0  0  0  0  0
    6.1051   -2.8278    1.6803 H   0  0  0  0  0  0  0  0  0  0  0  0
    3.8811   -1.8048    1.4313 H   0  0  0  0  0  0  0  0  0  0  0  0
   -0.0126   -2.1811    0.2661 H   0  0  0  0  0  0  0  0  0  0  0  0
   -0.7563    2.5194    1.7120 H   0  0  0  0  0  0  0  0  0  0  0  0
   -1.1486    4.9540    1.5897 H   0  0  0  0  0  0  0  0  0  0  0  0
   -2.4461    5.9169   -0.2793 H   0  0  0  0  0  0  0  0  0  0  0  0
   -3.9474    3.9512   -3.0654 H   0  0  0  0  0  0  0  0  0  0  0  0
   -3.7350    5.5928   -2.3727 H   0  0  0  0  0  0  0  0  0  0  0  0
   -2.9606    1.9805   -1.9460 H   0  0  0  0  0  0  0  0  0  0  0  0
  1  2  1  0
  2  3  1  0
  2  4  1  0
  2  5  1  0
  5  6  2  0
  6  7  1  0
  7  8  1  0
  8  9  1  0
  9 10  1  0
 10 11  2  0
 10 12  1  0
 12 13  1  0
 13 14  2  0
 14 15  1  0
 15 16  2  0
 16 17  1  0
 17 18  2  0
  8 19  2  0
  7 20  1  0
 20 21  2  0
 21 22  1  0
 22 23  2  0
 23 24  1  0
 24 25  1  0
 24 26  2  0
 19  5  1  0
 26 20  1  0
 18 13  1  0
  1 27  1  0
  1 28  1  0
  1 29  1  0
  3 30  1  0
  3 31  1  0
  3 32  1  0
  4 33  1  0
  4 34  1  0
  4 35  1  0
  9 36  1  0
 12 37  1  0
 14 38  1  0
 15 39  1  0
 16 40  1  0
 17 41  1  0
 18 42  1  0
 19 43  1  0
 21 44  1  0
 22 45  1  0
 23 46  1  0
 25 47  1  0
 25 48  1  0
 26 49  1  0
M  END
$$$$
