
     RDKit          3D

 41 41  0  0  0  0  0  0  0  0999 V2000
   -4.3210    1.4182    0.8123 C   0  0  2  0  0  0  0  0  0  0  0  0
   -4.6038    2.5740   -0.1506 C   0  0  0  0  0  0  0  0  0  0  0  0
   -3.2761    0.5428    0.2736 N   0  0  0  0  0  0  0  0  0  0  0  0
   -2.5924   -0.4191    1.0902 C   0  0  0  0  0  0  0  0  0  0  0  0
   -2.8985   -0.5534    2.3062 O   0  0  0  0  0  0  0  0  0  0  0  0
   -1.4802   -1.2478    0.5154 C   0  0  0  0  0  0  0  0  0  0  0  0
   -0.0995   -0.6967    0.9031 C   0  0  0  0  0  0  0  0  0  0  0  0
    0.2174    0.6842    0.3050 C   0  0  0  0  0  0  0  0  0  0  0  0
    0.5555    0.6135   -1.4905 P   0  0  2  0  0  5  0  0  0  0  0  0
    1.3151    2.0438   -1.9826 O   0  0  0  0  0  0  0  0  0  0  0  0
   -0.7464    0.4744   -2.2455 O   0  0  0  0  0  0  0  0  0  0  0  0
    1.5601   -0.7355   -1.8662 O   0  0  0  0  0  0  0  0  0  0  0  0
    2.8686   -0.9246   -1.3967 C   0  0  0  0  0  0  0  0  0  0  0  0
    3.4924   -2.1463   -1.6711 C   0  0  0  0  0  0  0  0  0  0  0  0
    4.7928   -2.3998   -1.2265 C   0  0  0  0  0  0  0  0  0  0  0  0
    5.4990   -1.4273   -0.4972 C   0  0  0  0  0  0  0  0  0  0  0  0
    4.8757   -0.1975   -0.2268 C   0  0  0  0  0  0  0  0  0  0  0  0
    3.5746    0.0542   -0.6725 C   0  0  0  0  0  0  0  0  0  0  0  0
    6.8384   -1.6825   -0.0359 N   0  0  0  0  0  4  0  0  0  0  0  0
    7.5261   -0.7277    0.6777 O   0  0  0  0  0  1  0  0  0  0  0  0
    7.3973   -2.7732   -0.2747 O   0  0  0  0  0  0  0  0  0  0  0  0
   -5.5769    0.6335    1.0588 C   0  0  0  0  0  0  0  0  0  0  0  0
   -6.2424    0.7581    2.2742 O   0  0  0  0  0  0  0  0  0  0  0  0
   -6.0433   -0.1190    0.1612 O   0  0  0  0  0  0  0  0  0  0  0  0
   -3.9674    1.8572    1.7715 H   0  0  0  0  0  0  0  0  0  0  0  0
   -5.3747    3.2498    0.2780 H   0  0  0  0  0  0  0  0  0  0  0  0
   -3.6756    3.1614   -0.3160 H   0  0  0  0  0  0  0  0  0  0  0  0
   -4.9635    2.1909   -1.1301 H   0  0  0  0  0  0  0  0  0  0  0  0
   -3.0052    0.6252   -0.7325 H   0  0  0  0  0  0  0  0  0  0  0  0
   -1.5784   -1.3208   -0.5869 H   0  0  0  0  0  0  0  0  0  0  0  0
   -1.5711   -2.2821    0.9118 H   0  0  0  0  0  0  0  0  0  0  0  0
   -0.0427   -0.6235    2.0113 H   0  0  0  0  0  0  0  0  0  0  0  0
    0.6815   -1.4236    0.5931 H   0  0  0  0  0  0  0  0  0  0  0  0
   -0.6064    1.4021    0.4982 H   0  0  0  0  0  0  0  0  0  0  0  0
    1.1213    1.0814    0.8108 H   0  0  0  0  0  0  0  0  0  0  0  0
    0.7044    2.7679   -1.6934 H   0  0  0  0  0  0  0  0  0  0  0  0
    2.9628   -2.9077   -2.2299 H   0  0  0  0  0  0  0  0  0  0  0  0
    5.2450   -3.3568   -1.4532 H   0  0  0  0  0  0  0  0  0  0  0  0
    5.3948    0.5732    0.3281 H   0  0  0  0  0  0  0  0  0  0  0  0
    3.1384    1.0162   -0.4530 H   0  0  0  0  0  0  0  0  0  0  0  0
   -7.0956    0.2427    2.4544 H   0  0  0  0  0  0  0  0  0  0  0  0
  1  2  1  0
  1  3  1  0
  3  4  1  0
  4  5  2  0
  4  6  1  0
  6  7  1  0
  7  8  1  0
  8  9  1  0
  9 10  1  6
  9 11  2  0
  9 12  1  0
 12 13  1  0
 13 14  2  0
 14 15  1  0
 15 16  2  0
 16 17  1  0
 17 18  2  0
 16 19  1  0
 19 20  1  0
 19 21  2  0
  1 22  1  0
 22 23  1  0
 22 24  2  0
 18 13  1  0
  1 25  1  1
  2 26  1  0
  2 27  1  0
  2 28  1  0
  3 29  1  0
  6 30  1  0
  6 31  1  0
  7 32  1  0
  7 33  1  0
  8 34  1  0
  8 35  1  0
 10 36  1  0
 14 37  1  0
 15 38  1  0
 17 39  1  0
 18 40  1  0
 23 41  1  0
M  CHG  2  19   1  20  -1
M  END
$$$$
