
     RDKit          3D

 49 51  0  0  0  0  0  0  0  0999 V2000
    6.8946    2.0608   -0.2853 C   0  0  0  0  0  0  0  0  0  0  0  0
    7.2241    0.6112    0.1235 C   0  0  0  0  0  0  0  0  0  0  0  0
    8.1053   -0.0308   -0.9641 C   0  0  0  0  0  0  0  0  0  0  0  0
    7.9813    0.6259    1.4644 C   0  0  0  0  0  0  0  0  0  0  0  0
    5.9461   -0.1889    0.2752 C   0  0  0  0  0  0  0  0  0  0  0  0
    5.8342   -1.5203    0.6253 C   0  0  0  0  0  0  0  0  0  0  0  0
    4.5311   -1.8576    0.6575 N   0  0  0  0  0  0  0  0  0  0  0  0
    3.9038   -0.7115    0.3181 C   0  0  0  0  0  0  0  0  0  0  0  0
    2.4212   -0.5762    0.2426 C   0  0  0  0  0  0  0  0  0  0  0  0
    1.7879   -0.0073    1.8514 S   0  0  0  0  0  0  0  0  0  0  0  0
    0.0852    0.0156    1.3009 C   0  0  0  0  0  0  0  0  0  0  0  0
   -0.5656    1.0956    0.7214 C   0  0  0  0  0  0  0  0  0  0  0  0
   -1.8629    0.8609    0.3917 N   0  0  0  0  0  0  0  0  0  0  0  0
   -2.2391   -0.3987    0.7114 C   0  0  0  0  0  0  0  0  0  0  0  0
   -3.5495   -0.9308    0.4770 N   0  0  0  0  0  0  0  0  0  0  0  0
   -4.6261   -0.1794   -0.1071 C   0  0  0  0  0  0  0  0  0  0  0  0
   -4.4743    1.0406   -0.3909 O   0  0  0  0  0  0  0  0  0  0  0  0
   -5.9673   -0.8345   -0.3340 C   0  0  0  0  0  0  0  0  0  0  0  0
   -6.5224   -0.5309   -1.7483 C   0  0  0  0  0  0  0  0  0  0  0  0
   -7.5588    0.5999   -1.7134 C   0  0  0  0  0  0  0  0  0  0  0  0
   -8.7184    0.2656   -0.8626 N   0  0  0  0  0  0  0  0  0  0  0  0
   -8.4032   -0.5802    0.3077 C   0  0  0  0  0  0  0  0  0  0  0  0
   -6.9526   -0.4194    0.7799 C   0  0  0  0  0  0  0  0  0  0  0  0
   -0.9847   -1.2759    1.4131 S   0  0  0  0  0  0  0  0  0  0  0  0
    4.7353    0.2804    0.0954 O   0  0  0  0  0  0  0  0  0  0  0  0
    6.3482    2.0803   -1.2534 H   0  0  0  0  0  0  0  0  0  0  0  0
    6.2604    2.5508    0.4853 H   0  0  0  0  0  0  0  0  0  0  0  0
    7.8251    2.6580   -0.3999 H   0  0  0  0  0  0  0  0  0  0  0  0
    8.3902   -1.0674   -0.6825 H   0  0  0  0  0  0  0  0  0  0  0  0
    7.5619   -0.0692   -1.9332 H   0  0  0  0  0  0  0  0  0  0  0  0
    9.0385    0.5555   -1.1086 H   0  0  0  0  0  0  0  0  0  0  0  0
    8.2642   -0.4042    1.7709 H   0  0  0  0  0  0  0  0  0  0  0  0
    8.9117    1.2285    1.3821 H   0  0  0  0  0  0  0  0  0  0  0  0
    7.3479    1.0666    2.2646 H   0  0  0  0  0  0  0  0  0  0  0  0
    6.6454   -2.2010    0.8465 H   0  0  0  0  0  0  0  0  0  0  0  0
    1.9698   -1.5581   -0.0150 H   0  0  0  0  0  0  0  0  0  0  0  0
    2.1600    0.1607   -0.5465 H   0  0  0  0  0  0  0  0  0  0  0  0
   -0.0887    2.0493    0.5401 H   0  0  0  0  0  0  0  0  0  0  0  0
   -3.7236   -1.9233    0.7523 H   0  0  0  0  0  0  0  0  0  0  0  0
   -5.8307   -1.9373   -0.2725 H   0  0  0  0  0  0  0  0  0  0  0  0
   -5.7047   -0.2700   -2.4561 H   0  0  0  0  0  0  0  0  0  0  0  0
   -7.0175   -1.4421   -2.1515 H   0  0  0  0  0  0  0  0  0  0  0  0
   -7.9192    0.7905   -2.7465 H   0  0  0  0  0  0  0  0  0  0  0  0
   -7.0729    1.5339   -1.3511 H   0  0  0  0  0  0  0  0  0  0  0  0
   -9.1365    1.1635   -0.5226 H   0  0  0  0  0  0  0  0  0  0  0  0
   -9.0895   -0.3318    1.1474 H   0  0  0  0  0  0  0  0  0  0  0  0
   -8.5863   -1.6438    0.0419 H   0  0  0  0  0  0  0  0  0  0  0  0
   -6.7970    0.6433    1.0725 H   0  0  0  0  0  0  0  0  0  0  0  0
   -6.7821   -1.0467    1.6819 H   0  0  0  0  0  0  0  0  0  0  0  0
  1  2  1  0
  2  3  1  0
  2  4  1  0
  2  5  1  0
  5  6  2  0
  6  7  1  0
  7  8  2  0
  8  9  1  0
  9 10  1  0
 10 11  1  0
 11 12  2  0
 12 13  1  0
 13 14  2  0
 14 15  1  0
 15 16  1  0
 16 17  2  0
 16 18  1  0
 18 19  1  0
 19 20  1  0
 20 21  1  0
 21 22  1  0
 22 23  1  0
 14 24  1  0
  8 25  1  0
 25  5  1  0
 24 11  1  0
 23 18  1  0
  1 26  1  0
  1 27  1  0
  1 28  1  0
  3 29  1  0
  3 30  1  0
  3 31  1  0
  4 32  1  0
  4 33  1  0
  4 34  1  0
  6 35  1  0
  9 36  1  0
  9 37  1  0
 12 38  1  0
 15 39  1  0
 18 40  1  0
 19 41  1  0
 19 42  1  0
 20 43  1  0
 20 44  1  0
 21 45  1  0
 22 46  1  0
 22 47  1  0
 23 48  1  0
 23 49  1  0
M  END
$$$$
