
     RDKit          3D

 63 63  0  0  0  0  0  0  0  0999 V2000
    5.2110    0.3909    4.1217 C   0  0  0  0  0  0  0  0  0  0  0  0
    3.9088    0.4958    3.3279 C   0  0  0  0  0  0  0  0  0  0  0  0
    4.1343    0.4844    1.8077 C   0  0  0  0  0  0  0  0  0  0  0  0
    4.5449   -0.9067    1.2851 C   0  0  0  0  0  0  0  0  0  0  0  0
    4.7386   -0.9867   -0.2519 C   0  0  2  0  0  0  0  0  0  0  0  0
    5.9669   -0.1819   -0.7038 C   0  0  0  0  0  0  0  0  0  0  0  0
    3.4961   -0.5701   -1.0780 C   0  0  0  0  0  0  0  0  0  0  0  0
    2.2251   -1.3869   -0.7497 C   0  0  2  0  0  0  0  0  0  0  0  0
    2.4633   -2.7664   -0.8829 O   0  0  0  0  0  0  0  0  0  0  0  0
    1.0742   -0.9719   -1.6354 C   0  0  0  0  0  0  0  0  0  0  0  0
    0.4838    0.2281   -1.4989 C   0  0  0  0  0  0  0  0  0  0  0  0
   -0.6762    0.6789   -2.3601 C   0  0  1  0  0  0  0  0  0  0  0  0
   -0.3320    0.7381   -3.8632 C   0  0  2  0  0  0  0  0  0  0  0  0
    0.2337    1.9753   -4.2081 O   0  0  0  0  0  0  0  0  0  0  0  0
   -1.6557    0.5352   -4.5969 C   0  0  0  0  0  0  0  0  0  0  0  0
   -2.5110   -0.1607   -3.6024 C   0  0  0  0  0  0  0  0  0  0  0  0
   -3.5796   -0.6702   -3.9017 O   0  0  0  0  0  0  0  0  0  0  0  0
   -1.9211   -0.2244   -2.2305 C   0  0  2  0  0  0  0  0  0  0  0  0
   -2.8818    0.2895   -1.1343 C   0  0  0  0  0  0  0  0  0  0  0  0
   -3.9067   -0.7764   -0.7092 C   0  0  0  0  0  0  0  0  0  0  0  0
   -4.9179   -0.2450    0.3191 C   0  0  0  0  0  0  0  0  0  0  0  0
   -4.2919   -0.0185    1.7041 C   0  0  0  0  0  0  0  0  0  0  0  0
   -5.3405    0.3282    2.7215 C   0  0  0  0  0  0  0  0  0  0  0  0
   -5.9673    1.5099    2.7039 C   0  0  0  0  0  0  0  0  0  0  0  0
   -6.9879    1.8770    3.6982 C   0  0  0  0  0  0  0  0  0  0  0  0
   -7.5957    3.1255    3.6195 O   0  0  0  0  0  0  0  0  0  0  0  0
   -7.3175    1.0776    4.6162 O   0  0  0  0  0  0  0  0  0  0  0  0
    5.6735   -0.6090    3.9915 H   0  0  0  0  0  0  0  0  0  0  0  0
    5.9278    1.1760    3.7998 H   0  0  0  0  0  0  0  0  0  0  0  0
    4.9959    0.5319    5.2019 H   0  0  0  0  0  0  0  0  0  0  0  0
    3.2251   -0.3304    3.6208 H   0  0  0  0  0  0  0  0  0  0  0  0
    3.4134    1.4527    3.6014 H   0  0  0  0  0  0  0  0  0  0  0  0
    4.9022    1.2419    1.5438 H   0  0  0  0  0  0  0  0  0  0  0  0
    3.1787    0.7892    1.3329 H   0  0  0  0  0  0  0  0  0  0  0  0
    3.7862   -1.6556    1.5973 H   0  0  0  0  0  0  0  0  0  0  0  0
    5.4969   -1.2140    1.7675 H   0  0  0  0  0  0  0  0  0  0  0  0
    4.9589   -2.0509   -0.4908 H   0  0  0  0  0  0  0  0  0  0  0  0
    6.8603   -0.4686   -0.1092 H   0  0  0  0  0  0  0  0  0  0  0  0
    5.7935    0.9090   -0.5935 H   0  0  0  0  0  0  0  0  0  0  0  0
    6.1861   -0.3928   -1.7724 H   0  0  0  0  0  0  0  0  0  0  0  0
    3.2956    0.5131   -0.9350 H   0  0  0  0  0  0  0  0  0  0  0  0
    3.7296   -0.7060   -2.1578 H   0  0  0  0  0  0  0  0  0  0  0  0
    1.9224   -1.1946    0.3013 H   0  0  0  0  0  0  0  0  0  0  0  0
    2.7578   -2.9329   -1.8171 H   0  0  0  0  0  0  0  0  0  0  0  0
    0.7058   -1.6741   -2.3781 H   0  0  0  0  0  0  0  0  0  0  0  0
    0.8452    0.9151   -0.7383 H   0  0  0  0  0  0  0  0  0  0  0  0
   -0.9481    1.7130   -2.0435 H   0  0  0  0  0  0  0  0  0  0  0  0
    0.3562   -0.0905   -4.1515 H   0  0  0  0  0  0  0  0  0  0  0  0
    1.1595    1.9699   -3.8499 H   0  0  0  0  0  0  0  0  0  0  0  0
   -1.5136   -0.0910   -5.5042 H   0  0  0  0  0  0  0  0  0  0  0  0
   -2.1257    1.5049   -4.8705 H   0  0  0  0  0  0  0  0  0  0  0  0
   -1.6320   -1.2779   -2.0222 H   0  0  0  0  0  0  0  0  0  0  0  0
   -3.4064    1.2051   -1.4875 H   0  0  0  0  0  0  0  0  0  0  0  0
   -2.2765    0.5660   -0.2447 H   0  0  0  0  0  0  0  0  0  0  0  0
   -4.4784   -1.1152   -1.5977 H   0  0  0  0  0  0  0  0  0  0  0  0
   -3.3796   -1.6632   -0.2938 H   0  0  0  0  0  0  0  0  0  0  0  0
   -5.3709    0.6988   -0.0558 H   0  0  0  0  0  0  0  0  0  0  0  0
   -5.7348   -0.9941    0.4158 H   0  0  0  0  0  0  0  0  0  0  0  0
   -3.7772   -0.9478    2.0314 H   0  0  0  0  0  0  0  0  0  0  0  0
   -3.5401    0.7981    1.6671 H   0  0  0  0  0  0  0  0  0  0  0  0
   -5.5611   -0.3968    3.4962 H   0  0  0  0  0  0  0  0  0  0  0  0
   -5.7224    2.2340    1.9359 H   0  0  0  0  0  0  0  0  0  0  0  0
   -8.3015    3.4032    4.2911 H   0  0  0  0  0  0  0  0  0  0  0  0
  1  2  1  0
  2  3  1  0
  3  4  1  0
  4  5  1  0
  5  6  1  0
  5  7  1  0
  7  8  1  0
  8  9  1  0
  8 10  1  0
 10 11  2  0
 11 12  1  0
 12 13  1  0
 13 14  1  0
 13 15  1  0
 15 16  1  0
 16 17  2  0
 16 18  1  0
 18 19  1  0
 19 20  1  0
 20 21  1  0
 21 22  1  0
 22 23  1  0
 23 24  2  0
 24 25  1  0
 25 26  1  0
 25 27  2  0
 18 12  1  0
  1 28  1  0
  1 29  1  0
  1 30  1  0
  2 31  1  0
  2 32  1  0
  3 33  1  0
  3 34  1  0
  4 35  1  0
  4 36  1  0
  5 37  1  1
  6 38  1  0
  6 39  1  0
  6 40  1  0
  7 41  1  0
  7 42  1  0
  8 43  1  1
  9 44  1  0
 10 45  1  0
 11 46  1  0
 12 47  1  1
 13 48  1  6
 14 49  1  0
 15 50  1  0
 15 51  1  0
 18 52  1  1
 19 53  1  0
 19 54  1  0
 20 55  1  0
 20 56  1  0
 21 57  1  0
 21 58  1  0
 22 59  1  0
 22 60  1  0
 23 61  1  0
 24 62  1  0
 26 63  1  0
M  END
$$$$
