
     RDKit          3D

 27 28  0  0  0  0  0  0  0  0999 V2000
   -4.1557   -1.0958    1.1013 N   0  0  0  0  0  0  0  0  0  0  0  0
   -3.0385   -0.6868    0.3080 C   0  0  0  0  0  0  0  0  0  0  0  0
   -2.4463    0.5670    0.5159 C   0  0  0  0  0  0  0  0  0  0  0  0
   -1.3537    0.9664   -0.2595 C   0  0  0  0  0  0  0  0  0  0  0  0
   -0.8409    0.1148   -1.2470 C   0  0  0  0  0  0  0  0  0  0  0  0
   -1.4352   -1.1368   -1.4592 C   0  0  0  0  0  0  0  0  0  0  0  0
   -2.5284   -1.5362   -0.6841 C   0  0  0  0  0  0  0  0  0  0  0  0
    0.5416    0.6223   -2.2118 S   0  0  0  0  0  6  0  0  0  0  0  0
    0.0648    1.5277   -3.3119 O   0  0  0  0  0  0  0  0  0  0  0  0
    1.2280   -0.5696   -2.8185 O   0  0  0  0  0  0  0  0  0  0  0  0
    1.6741    1.4748   -1.2147 N   0  0  0  0  0  0  0  0  0  0  0  0
    2.2556    0.8811   -0.0503 C   0  0  0  0  0  0  0  0  0  0  0  0
    1.9517   -0.3990    0.2998 N   0  0  0  0  0  0  0  0  0  0  0  0
    2.4932   -0.9697    1.4068 C   0  0  0  0  0  0  0  0  0  0  0  0
    3.3758   -0.2413    2.2028 C   0  0  0  0  0  0  0  0  0  0  0  0
    3.6786    1.0679    1.8313 C   0  0  0  0  0  0  0  0  0  0  0  0
    3.1156    1.6036    0.7169 N   0  0  0  0  0  0  0  0  0  0  0  0
   -4.6037   -2.0277    0.9536 H   0  0  0  0  0  0  0  0  0  0  0  0
   -4.5428   -0.4699    1.8424 H   0  0  0  0  0  0  0  0  0  0  0  0
   -2.8310    1.2335    1.2776 H   0  0  0  0  0  0  0  0  0  0  0  0
   -0.9067    1.9375   -0.0887 H   0  0  0  0  0  0  0  0  0  0  0  0
   -1.0545   -1.8036   -2.2220 H   0  0  0  0  0  0  0  0  0  0  0  0
   -2.9774   -2.5063   -0.8564 H   0  0  0  0  0  0  0  0  0  0  0  0
    1.9218    2.4571   -1.4679 H   0  0  0  0  0  0  0  0  0  0  0  0
    2.2380   -1.9879    1.6680 H   0  0  0  0  0  0  0  0  0  0  0  0
    3.8158   -0.6818    3.0881 H   0  0  0  0  0  0  0  0  0  0  0  0
    4.3602    1.6589    2.4283 H   0  0  0  0  0  0  0  0  0  0  0  0
  1  2  1  0
  2  3  2  0
  3  4  1  0
  4  5  2  0
  5  6  1  0
  6  7  2  0
  5  8  1  0
  8  9  2  0
  8 10  2  0
  8 11  1  0
 11 12  1  0
 12 13  2  0
 13 14  1  0
 14 15  2  0
 15 16  1  0
 16 17  2  0
  7  2  1  0
 17 12  1  0
  1 18  1  0
  1 19  1  0
  3 20  1  0
  4 21  1  0
  6 22  1  0
  7 23  1  0
 11 24  1  0
 14 25  1  0
 15 26  1  0
 16 27  1  0
M  END
$$$$
