
     RDKit          3D

 39 42  0  0  0  0  0  0  0  0999 V2000
    3.6151    2.6969   -2.2353 N   0  0  0  0  0  0  0  0  0  0  0  0
    3.5218    1.3479   -1.7788 C   0  0  0  0  0  0  0  0  0  0  0  0
    4.4262    0.4160   -2.2250 N   0  0  0  0  0  0  0  0  0  0  0  0
    4.3669   -0.8853   -1.8167 C   0  0  0  0  0  0  0  0  0  0  0  0
    5.1972   -1.7305   -2.2420 O   0  0  0  0  0  0  0  0  0  0  0  0
    3.3640   -1.2412   -0.9273 C   0  0  0  0  0  0  0  0  0  0  0  0
    2.4855   -0.3092   -0.4920 C   0  0  0  0  0  0  0  0  0  0  0  0
    2.5320    0.9840   -0.9031 N   0  0  0  0  0  0  0  0  0  0  0  0
    1.6007   -0.8830    0.3364 N   0  0  0  0  0  0  0  0  0  0  0  0
    1.9754   -2.1898    0.3541 C   0  0  0  0  0  0  0  0  0  0  0  0
    3.0706   -2.4495   -0.4118 N   0  0  0  0  0  0  0  0  0  0  0  0
    0.4166   -0.2816    0.9538 C   0  0  2  0  0  0  0  0  0  0  0  0
    0.0475   -1.0045    2.1034 O   0  0  0  0  0  0  0  0  0  0  0  0
   -1.3492   -0.8731    2.2188 C   0  0  2  0  0  0  0  0  0  0  0  0
   -1.9387   -2.1179    2.8958 C   0  0  0  0  0  0  0  0  0  0  0  0
   -1.6362   -3.2801    2.1696 O   0  0  0  0  0  0  0  0  0  0  0  0
   -1.9326   -0.6375    0.8224 C   0  0  1  0  0  0  0  0  0  0  0  0
   -2.7875    0.4643    0.8148 O   0  0  0  0  0  0  0  0  0  0  0  0
   -2.2679    1.3496   -0.1471 C   0  0  1  0  0  0  0  0  0  0  0  0
   -0.9785    0.9694   -0.5603 O   0  0  0  0  0  0  0  0  0  0  0  0
   -0.7595   -0.2962   -0.0179 C   0  0  1  0  0  0  0  0  0  0  0  0
   -3.3781    1.4098   -1.5879 P   0  0  0  0  0  5  0  0  0  0  0  0
   -4.9203    1.9036   -1.0968 O   0  0  0  0  0  0  0  0  0  0  0  0
   -2.7693    2.5013   -2.7287 O   0  0  0  0  0  0  0  0  0  0  0  0
   -3.4699    0.0362   -2.2121 O   0  0  0  0  0  0  0  0  0  0  0  0
    2.9348    3.4184   -1.9085 H   0  0  0  0  0  0  0  0  0  0  0  0
    4.3672    2.9762   -2.9035 H   0  0  0  0  0  0  0  0  0  0  0  0
    1.8348    1.6837   -0.5650 H   0  0  0  0  0  0  0  0  0  0  0  0
    1.4481   -2.9572    0.9058 H   0  0  0  0  0  0  0  0  0  0  0  0
    0.6531    0.7607    1.2674 H   0  0  0  0  0  0  0  0  0  0  0  0
   -1.5621    0.0048    2.8712 H   0  0  0  0  0  0  0  0  0  0  0  0
   -1.5508   -2.1990    3.9371 H   0  0  0  0  0  0  0  0  0  0  0  0
   -3.0428   -2.0132    2.9602 H   0  0  0  0  0  0  0  0  0  0  0  0
   -0.7066   -3.5333    2.4085 H   0  0  0  0  0  0  0  0  0  0  0  0
   -2.4630   -1.5279    0.4153 H   0  0  0  0  0  0  0  0  0  0  0  0
   -2.2141    2.3656    0.2966 H   0  0  0  0  0  0  0  0  0  0  0  0
   -0.6231   -1.0441   -0.8316 H   0  0  0  0  0  0  0  0  0  0  0  0
   -4.7836    2.7981   -0.6942 H   0  0  0  0  0  0  0  0  0  0  0  0
   -2.7237    3.3677   -2.2513 H   0  0  0  0  0  0  0  0  0  0  0  0
  1  2  1  0
  2  3  2  0
  3  4  1  0
  4  5  2  0
  4  6  1  0
  6  7  2  0
  7  8  1  0
  7  9  1  0
  9 10  1  0
 10 11  2  0
  9 12  1  0
 12 13  1  0
 13 14  1  0
 14 15  1  0
 15 16  1  0
 14 17  1  0
 17 18  1  0
 18 19  1  0
 19 20  1  0
 20 21  1  0
 19 22  1  0
 22 23  1  0
 22 24  1  0
 22 25  2  0
  8  2  1  0
 21 12  1  0
 11  6  1  0
 21 17  1  0
  1 26  1  0
  1 27  1  0
  8 28  1  0
 10 29  1  0
 12 30  1  1
 14 31  1  1
 15 32  1  0
 15 33  1  0
 16 34  1  0
 17 35  1  6
 19 36  1  1
 21 37  1  6
 23 38  1  0
 24 39  1  0
M  END
$$$$
