
     RDKit          3D

 42 44  0  0  0  0  0  0  0  0999 V2000
    1.4889    1.1884    1.0159 C   0  0  1  0  0  0  0  0  0  0  0  0
    2.1061    2.5380    0.6118 C   0  0  0  0  0  0  0  0  0  0  0  0
    3.2167    2.8330    1.4155 O   0  0  0  0  0  0  0  0  0  0  0  0
    0.2697    0.8588    0.1322 C   0  0  0  0  0  0  0  0  0  0  0  0
   -0.4314   -0.4314    0.5824 C   0  0  0  0  0  0  0  0  0  0  0  0
   -1.6609   -0.6969   -0.2607 C   0  0  0  0  0  0  0  0  0  0  0  0
   -1.5322   -1.5680   -1.3571 C   0  0  0  0  0  0  0  0  0  0  0  0
   -2.6205   -1.8490   -2.1810 C   0  0  0  0  0  0  0  0  0  0  0  0
   -3.8579   -1.2598   -1.9360 C   0  0  0  0  0  0  0  0  0  0  0  0
   -4.0177   -0.3710   -0.8646 C   0  0  0  0  0  0  0  0  0  0  0  0
   -2.9160   -0.0718   -0.0157 C   0  0  0  0  0  0  0  0  0  0  0  0
   -3.1113    0.8445    1.0420 C   0  0  0  0  0  0  0  0  0  0  0  0
   -4.3608    1.4325    1.2532 C   0  0  0  0  0  0  0  0  0  0  0  0
   -5.4347    1.1239    0.4198 C   0  0  0  0  0  0  0  0  0  0  0  0
   -5.2666    0.2280   -0.6357 C   0  0  0  0  0  0  0  0  0  0  0  0
    2.4967    0.1233    0.9363 N   0  0  0  0  0  0  0  0  0  0  0  0
    2.9469   -0.6331    1.9569 C   0  0  0  0  0  0  0  0  0  0  0  0
    3.8691   -1.5362    1.5642 N   0  0  0  0  0  0  0  0  0  0  0  0
    3.9956   -1.3276    0.2364 C   0  0  0  0  0  0  0  0  0  0  0  0
    3.1537   -0.3064   -0.1563 C   0  0  0  0  0  0  0  0  0  0  0  0
    4.9085   -2.1033   -0.6214 C   0  0  0  0  0  0  0  0  0  0  0  0
    5.0071   -1.8537   -2.0253 N   0  0  0  0  0  0  0  0  0  0  0  0
    5.6179   -3.0077   -0.1057 O   0  0  0  0  0  0  0  0  0  0  0  0
    1.1342    1.2835    2.0675 H   0  0  0  0  0  0  0  0  0  0  0  0
    2.4360    2.5018   -0.4484 H   0  0  0  0  0  0  0  0  0  0  0  0
    1.3475    3.3492    0.6997 H   0  0  0  0  0  0  0  0  0  0  0  0
    2.8616    3.1034    2.3024 H   0  0  0  0  0  0  0  0  0  0  0  0
   -0.4513    1.7034    0.1850 H   0  0  0  0  0  0  0  0  0  0  0  0
    0.5878    0.7544   -0.9284 H   0  0  0  0  0  0  0  0  0  0  0  0
   -0.6969   -0.3826    1.6589 H   0  0  0  0  0  0  0  0  0  0  0  0
    0.2767   -1.2839    0.4899 H   0  0  0  0  0  0  0  0  0  0  0  0
   -0.5803   -2.0365   -1.5765 H   0  0  0  0  0  0  0  0  0  0  0  0
   -2.5029   -2.5274   -3.0163 H   0  0  0  0  0  0  0  0  0  0  0  0
   -4.6901   -1.4934   -2.5897 H   0  0  0  0  0  0  0  0  0  0  0  0
   -2.3105    1.1257    1.7100 H   0  0  0  0  0  0  0  0  0  0  0  0
   -4.4962    2.1331    2.0672 H   0  0  0  0  0  0  0  0  0  0  0  0
   -6.3997    1.5836    0.5899 H   0  0  0  0  0  0  0  0  0  0  0  0
   -6.1124    0.0051   -1.2755 H   0  0  0  0  0  0  0  0  0  0  0  0
    2.6073   -0.5338    2.9798 H   0  0  0  0  0  0  0  0  0  0  0  0
    3.0218    0.0945   -1.1521 H   0  0  0  0  0  0  0  0  0  0  0  0
    4.4377   -1.1165   -2.4941 H   0  0  0  0  0  0  0  0  0  0  0  0
    5.6627   -2.4183   -2.6099 H   0  0  0  0  0  0  0  0  0  0  0  0
  1  2  1  0
  2  3  1  0
  1  4  1  0
  4  5  1  0
  5  6  1  0
  6  7  2  0
  7  8  1  0
  8  9  2  0
  9 10  1  0
 10 11  2  0
 11 12  1  0
 12 13  2  0
 13 14  1  0
 14 15  2  0
  1 16  1  0
 16 17  1  0
 17 18  2  0
 18 19  1  0
 19 20  2  0
 19 21  1  0
 21 22  1  0
 21 23  2  0
 11  6  1  0
 20 16  1  0
 15 10  1  0
  1 24  1  1
  2 25  1  0
  2 26  1  0
  3 27  1  0
  4 28  1  0
  4 29  1  0
  5 30  1  0
  5 31  1  0
  7 32  1  0
  8 33  1  0
  9 34  1  0
 12 35  1  0
 13 36  1  0
 14 37  1  0
 15 38  1  0
 17 39  1  0
 20 40  1  0
 22 41  1  0
 22 42  1  0
M  END
$$$$
