
     RDKit          3D

 36 37  0  0  0  0  0  0  0  0999 V2000
   -2.1248    3.3557    0.4298 N   0  0  0  0  0  0  0  0  0  0  0  0
   -2.6148    2.1362   -0.1269 C   0  0  0  0  0  0  0  0  0  0  0  0
   -1.7291    1.1665   -0.5112 N   0  0  0  0  0  0  0  0  0  0  0  0
   -2.2248    0.0213   -1.0368 C   0  0  0  0  0  0  0  0  0  0  0  0
   -3.5488   -0.2003   -1.1850 C   0  0  0  0  0  0  0  0  0  0  0  0
   -3.7700   -1.4269   -1.6959 N   0  0  0  0  0  0  0  0  0  0  0  0
   -2.5088   -1.9206   -1.8445 C   0  0  0  0  0  0  0  0  0  0  0  0
   -1.5421   -1.0493   -1.4574 N   0  0  0  0  0  0  0  0  0  0  0  0
   -0.1014   -1.2808   -1.3987 C   0  0  0  0  0  0  0  0  0  0  0  0
    0.2869   -1.8455   -0.0268 C   0  0  0  0  0  0  0  0  0  0  0  0
    1.8131   -2.0132    0.1240 C   0  0  0  0  0  0  0  0  0  0  0  0
    2.4721   -0.9517    1.0258 C   0  0  0  0  0  0  0  0  0  0  0  0
    2.4843    0.4642    0.4249 C   0  0  0  0  0  0  0  0  0  0  0  0
    1.2061    0.9907    0.4144 F   0  0  0  0  0  0  0  0  0  0  0  0
    2.9760    0.4332   -0.8684 F   0  0  0  0  0  0  0  0  0  0  0  0
    3.5409    1.5653    1.4218 P   0  0  0  0  0  5  0  0  0  0  0  0
    2.9368    1.6619    2.9997 O   0  0  0  0  0  0  0  0  0  0  0  0
    5.1254    0.9699    1.4604 O   0  0  0  0  0  0  0  0  0  0  0  0
    3.5409    2.9467    0.8075 O   0  0  0  0  0  0  0  0  0  0  0  0
   -4.4593    0.7719   -0.7981 C   0  0  0  0  0  0  0  0  0  0  0  0
   -5.6998    0.5898   -0.9218 O   0  0  0  0  0  0  0  0  0  0  0  0
   -3.9691    1.9367   -0.2729 N   0  0  0  0  0  0  0  0  0  0  0  0
   -1.0980    3.5072    0.5441 H   0  0  0  0  0  0  0  0  0  0  0  0
   -2.7836    4.1080    0.7298 H   0  0  0  0  0  0  0  0  0  0  0  0
   -2.3027   -2.9142   -2.2210 H   0  0  0  0  0  0  0  0  0  0  0  0
    0.4330   -0.3283   -1.5960 H   0  0  0  0  0  0  0  0  0  0  0  0
    0.1906   -2.0005   -2.1945 H   0  0  0  0  0  0  0  0  0  0  0  0
   -0.1963   -2.8416    0.0812 H   0  0  0  0  0  0  0  0  0  0  0  0
   -0.1243   -1.2013    0.7806 H   0  0  0  0  0  0  0  0  0  0  0  0
    2.3188   -2.0428   -0.8661 H   0  0  0  0  0  0  0  0  0  0  0  0
    2.0026   -3.0033    0.5939 H   0  0  0  0  0  0  0  0  0  0  0  0
    3.5216   -1.2741    1.2026 H   0  0  0  0  0  0  0  0  0  0  0  0
    1.9621   -0.9359    2.0138 H   0  0  0  0  0  0  0  0  0  0  0  0
    3.2155    0.8150    3.4307 H   0  0  0  0  0  0  0  0  0  0  0  0
    5.4073    0.9344    0.5116 H   0  0  0  0  0  0  0  0  0  0  0  0
   -4.6362    2.6841    0.0255 H   0  0  0  0  0  0  0  0  0  0  0  0
  1  2  1  0
  2  3  2  0
  3  4  1  0
  4  5  2  0
  5  6  1  0
  6  7  2  0
  7  8  1  0
  8  9  1  0
  9 10  1  0
 10 11  1  0
 11 12  1  0
 12 13  1  0
 13 14  1  0
 13 15  1  0
 13 16  1  0
 16 17  1  0
 16 18  1  0
 16 19  2  0
  5 20  1  0
 20 21  2  0
 20 22  1  0
 22  2  1  0
  8  4  1  0
  1 23  1  0
  1 24  1  0
  7 25  1  0
  9 26  1  0
  9 27  1  0
 10 28  1  0
 10 29  1  0
 11 30  1  0
 11 31  1  0
 12 32  1  0
 12 33  1  0
 17 34  1  0
 18 35  1  0
 22 36  1  0
M  END
$$$$
