
     RDKit          3D

 55 58  0  0  0  0  0  0  0  0999 V2000
    4.9671   -0.4404   -1.7593 O   0  0  0  0  0  0  0  0  0  0  0  0
    4.5723   -0.8797   -0.4838 C   0  0  2  0  0  0  0  0  0  0  0  0
    3.1622   -0.3424   -0.1598 C   0  0  0  0  0  0  0  0  0  0  0  0
    2.0780   -0.8974   -1.1126 C   0  0  2  0  0  0  0  0  0  0  0  0
    2.2119   -0.3900   -2.4177 O   0  0  0  0  0  0  0  0  0  0  0  0
    0.6906   -0.6338   -0.5837 C   0  0  0  0  0  0  0  0  0  0  0  0
    0.2263    0.6033   -0.3727 C   0  0  0  0  0  0  0  0  0  0  0  0
   -1.1054    0.8455    0.2306 C   0  0  0  0  0  0  0  0  0  0  0  0
   -1.1949    1.6049    1.4170 C   0  0  0  0  0  0  0  0  0  0  0  0
   -2.4095    1.8556    1.9694 N   0  0  0  0  0  0  0  0  0  0  0  0
   -3.5651    1.3890    1.4363 C   0  0  0  0  0  0  0  0  0  0  0  0
   -4.7803    1.6860    2.0645 C   0  0  0  0  0  0  0  0  0  0  0  0
   -5.9821    1.2337    1.5181 C   0  0  0  0  0  0  0  0  0  0  0  0
   -5.9769    0.4890    0.3382 C   0  0  0  0  0  0  0  0  0  0  0  0
   -4.7701    0.1863   -0.2986 C   0  0  0  0  0  0  0  0  0  0  0  0
   -3.5426    0.6217    0.2484 C   0  0  0  0  0  0  0  0  0  0  0  0
   -2.2937    0.3451   -0.3622 C   0  0  0  0  0  0  0  0  0  0  0  0
   -2.2249   -0.4174   -1.6335 C   0  0  0  0  0  0  0  0  0  0  0  0
   -2.5068   -1.7931   -1.6503 C   0  0  0  0  0  0  0  0  0  0  0  0
   -2.4118   -2.5152   -2.8437 C   0  0  0  0  0  0  0  0  0  0  0  0
   -2.0328   -1.8701   -4.0248 C   0  0  0  0  0  0  0  0  0  0  0  0
   -1.9386   -2.5724   -5.1806 F   0  0  0  0  0  0  0  0  0  0  0  0
   -1.7489   -0.5010   -4.0137 C   0  0  0  0  0  0  0  0  0  0  0  0
   -1.8441    0.2248   -2.8226 C   0  0  0  0  0  0  0  0  0  0  0  0
    0.0303    2.1882    2.0745 C   0  0  0  0  0  0  0  0  0  0  0  0
    0.9725    1.1630    2.6923 C   0  0  0  0  0  0  0  0  0  0  0  0
    0.0998    2.0232    3.5872 C   0  0  0  0  0  0  0  0  0  0  0  0
    5.6078   -0.3797    0.5378 C   0  0  0  0  0  0  0  0  0  0  0  0
    5.3885   -0.9723    1.8970 C   0  0  0  0  0  0  0  0  0  0  0  0
    5.7292   -2.2997    2.1371 O   0  0  0  0  0  0  0  0  0  0  0  0
    4.8749   -0.2779    2.8147 O   0  0  0  0  0  0  0  0  0  0  0  0
    4.7759   -1.1763   -2.3977 H   0  0  0  0  0  0  0  0  0  0  0  0
    4.5579   -1.9964   -0.4437 H   0  0  0  0  0  0  0  0  0  0  0  0
    2.8948   -0.6423    0.8771 H   0  0  0  0  0  0  0  0  0  0  0  0
    3.1715    0.7692   -0.1938 H   0  0  0  0  0  0  0  0  0  0  0  0
    2.1993   -2.0011   -1.1668 H   0  0  0  0  0  0  0  0  0  0  0  0
    2.1975    0.6010   -2.3650 H   0  0  0  0  0  0  0  0  0  0  0  0
    0.0706   -1.4874   -0.3372 H   0  0  0  0  0  0  0  0  0  0  0  0
    0.8705    1.4568   -0.5429 H   0  0  0  0  0  0  0  0  0  0  0  0
   -4.7948    2.2718    2.9754 H   0  0  0  0  0  0  0  0  0  0  0  0
   -6.9196    1.4666    2.0064 H   0  0  0  0  0  0  0  0  0  0  0  0
   -6.9119    0.1479   -0.0874 H   0  0  0  0  0  0  0  0  0  0  0  0
   -4.8112   -0.3803   -1.2188 H   0  0  0  0  0  0  0  0  0  0  0  0
   -2.7919   -2.3038   -0.7387 H   0  0  0  0  0  0  0  0  0  0  0  0
   -2.6288   -3.5756   -2.8511 H   0  0  0  0  0  0  0  0  0  0  0  0
   -1.4532   -0.0016   -4.9273 H   0  0  0  0  0  0  0  0  0  0  0  0
   -1.6179    1.2840   -2.8239 H   0  0  0  0  0  0  0  0  0  0  0  0
    0.5087    3.1009    1.6604 H   0  0  0  0  0  0  0  0  0  0  0  0
    0.6476    0.1017    2.6314 H   0  0  0  0  0  0  0  0  0  0  0  0
    2.0427    1.4593    2.6795 H   0  0  0  0  0  0  0  0  0  0  0  0
   -0.7297    1.4605    4.0669 H   0  0  0  0  0  0  0  0  0  0  0  0
    0.6570    2.8257    4.1151 H   0  0  0  0  0  0  0  0  0  0  0  0
    5.5807    0.7309    0.5967 H   0  0  0  0  0  0  0  0  0  0  0  0
    6.6246   -0.6696    0.1953 H   0  0  0  0  0  0  0  0  0  0  0  0
    5.5768   -2.7186    3.0467 H   0  0  0  0  0  0  0  0  0  0  0  0
  1  2  1  0
  2  3  1  0
  3  4  1  0
  4  5  1  0
  4  6  1  0
  6  7  2  0
  7  8  1  0
  8  9  2  0
  9 10  1  0
 10 11  2  0
 11 12  1  0
 12 13  2  0
 13 14  1  0
 14 15  2  0
 15 16  1  0
 16 17  2  0
 17 18  1  0
 18 19  2  0
 19 20  1  0
 20 21  2  0
 21 22  1  0
 21 23  1  0
 23 24  2  0
  9 25  1  0
 25 26  1  0
 26 27  1  0
  2 28  1  0
 28 29  1  0
 29 30  1  0
 29 31  2  0
 17  8  1  0
 24 18  1  0
 27 25  1  0
 16 11  1  0
  1 32  1  0
  2 33  1  6
  3 34  1  0
  3 35  1  0
  4 36  1  6
  5 37  1  0
  6 38  1  0
  7 39  1  0
 12 40  1  0
 13 41  1  0
 14 42  1  0
 15 43  1  0
 19 44  1  0
 20 45  1  0
 23 46  1  0
 24 47  1  0
 25 48  1  0
 26 49  1  0
 26 50  1  0
 27 51  1  0
 27 52  1  0
 28 53  1  0
 28 54  1  0
 30 55  1  0
M  END
$$$$
