
     RDKit          3D

101106  0  0  0  0  0  0  0  0999 V2000
   -3.6411   -1.8056   -1.8571 C   0  0  2  0  0  0  0  0  0  0  0  0
   -3.7046   -3.3414   -1.6763 C   0  0  0  0  0  0  0  0  0  0  0  0
   -4.3374   -3.8017   -0.3429 C   0  0  0  0  0  0  0  0  0  0  0  0
   -5.8008   -4.2372   -0.5051 C   0  0  0  0  0  0  0  0  0  0  0  0
   -6.4055   -4.6436    0.8413 C   0  0  0  0  0  0  0  0  0  0  0  0
   -7.8005   -5.0355    0.6678 N   0  0  0  0  0  0  0  0  0  0  0  0
   -2.8638   -1.1901   -0.7783 N   0  0  0  0  0  0  0  0  0  0  0  0
   -1.5682   -1.1505   -0.6616 C   0  0  0  0  0  0  0  0  0  0  0  0
   -0.7169   -1.7402   -1.6018 O   0  0  0  0  0  0  0  0  0  0  0  0
   -0.9751   -0.4629    0.5410 C   0  0  1  0  0  0  0  0  0  0  0  0
   -0.9356   -1.4117    1.7529 C   0  0  0  0  0  0  0  0  0  0  0  0
   -0.0230   -2.5948    1.5340 C   0  0  0  0  0  0  0  0  0  0  0  0
   -0.5223   -3.7781    0.9737 C   0  0  0  0  0  0  0  0  0  0  0  0
    0.3312   -4.8514    0.7060 C   0  0  0  0  0  0  0  0  0  0  0  0
   -0.3939   -6.4405   -0.0753 Br  0  0  0  0  0  0  0  0  0  0  0  0
    1.7007   -4.7545    0.9956 C   0  0  0  0  0  0  0  0  0  0  0  0
    2.5312   -5.8403    0.7121 O   0  0  0  0  0  0  0  0  0  0  0  0
    2.2077   -3.5675    1.5624 C   0  0  0  0  0  0  0  0  0  0  0  0
    4.0675   -3.3480    1.9684 Br  0  0  0  0  0  0  0  0  0  0  0  0
    1.3444   -2.4998    1.8309 C   0  0  0  0  0  0  0  0  0  0  0  0
    0.3738    0.0265    0.2495 N   0  0  0  0  0  0  0  0  0  0  0  0
    0.6890    1.0102   -0.5460 C   0  0  0  0  0  0  0  0  0  0  0  0
   -0.2940    1.7425   -1.2213 O   0  0  0  0  0  0  0  0  0  0  0  0
    2.0753    1.3505   -0.7486 N   0  0  0  0  0  0  0  0  0  0  0  0
    3.1430    0.6830    0.0156 C   0  0  0  0  0  0  0  0  0  0  0  0
    4.2391    1.6842    0.4074 C   0  0  0  0  0  0  0  0  0  0  0  0
    4.6787    2.6110   -0.7595 C   0  0  0  0  0  0  0  0  0  0  0  0
    3.9315    2.3376   -2.0783 C   0  0  0  0  0  0  0  0  0  0  0  0
    2.4190    2.2774   -1.8383 C   0  0  0  0  0  0  0  0  0  0  0  0
    6.1413    2.5757   -0.9670 N   0  0  0  0  0  0  0  0  0  0  0  0
    6.8920    3.8200   -0.7180 C   0  0  0  0  0  0  0  0  0  0  0  0
    8.3314    3.7471   -1.1492 C   0  0  0  0  0  0  0  0  0  0  0  0
    9.1336    4.8984   -1.1091 C   0  0  0  0  0  0  0  0  0  0  0  0
   10.4806    4.8303   -1.4776 C   0  0  0  0  0  0  0  0  0  0  0  0
   11.0349    3.6124   -1.8805 C   0  0  0  0  0  0  0  0  0  0  0  0
   10.2428    2.4612   -1.9156 C   0  0  0  0  0  0  0  0  0  0  0  0
    8.8926    2.5262   -1.5508 C   0  0  0  0  0  0  0  0  0  0  0  0
    8.0920    1.3460   -1.5929 N   0  0  0  0  0  0  0  0  0  0  0  0
    6.8222    1.3476   -1.3256 C   0  0  0  0  0  0  0  0  0  0  0  0
    6.1209    0.1461   -1.3927 O   0  0  0  0  0  0  0  0  0  0  0  0
   -5.0168   -1.1855   -1.9092 C   0  0  0  0  0  0  0  0  0  0  0  0
   -5.8658   -1.6115   -2.7372 O   0  0  0  0  0  0  0  0  0  0  0  0
   -5.3511   -0.0692   -1.0739 N   0  0  0  0  0  0  0  0  0  0  0  0
   -6.0745   -0.2853    0.1791 C   0  0  0  0  0  0  0  0  0  0  0  0
   -5.2268    0.2338    1.3413 C   0  0  0  0  0  0  0  0  0  0  0  0
   -4.6951    1.5814    1.0651 N   0  0  0  0  0  0  0  0  0  0  0  0
   -4.9832    2.2367   -0.2238 C   0  0  0  0  0  0  0  0  0  0  0  0
   -4.8031    1.2551   -1.3905 C   0  0  0  0  0  0  0  0  0  0  0  0
   -4.0453    2.3164    2.1273 C   0  0  0  0  0  0  0  0  0  0  0  0
   -3.1818    1.6663    3.0273 C   0  0  0  0  0  0  0  0  0  0  0  0
   -2.5587    2.3962    4.0418 C   0  0  0  0  0  0  0  0  0  0  0  0
   -2.7925    3.7286    4.1667 N   0  0  0  0  0  0  0  0  0  0  0  0
   -3.6285    4.3859    3.3214 C   0  0  0  0  0  0  0  0  0  0  0  0
   -4.2702    3.6953    2.2908 C   0  0  0  0  0  0  0  0  0  0  0  0
   -3.1632   -1.5754   -2.8336 H   0  0  0  0  0  0  0  0  0  0  0  0
   -2.6680   -3.7383   -1.7174 H   0  0  0  0  0  0  0  0  0  0  0  0
   -4.2340   -3.7972   -2.5418 H   0  0  0  0  0  0  0  0  0  0  0  0
   -4.2603   -3.0055    0.4286 H   0  0  0  0  0  0  0  0  0  0  0  0
   -3.7640   -4.6769    0.0343 H   0  0  0  0  0  0  0  0  0  0  0  0
   -6.4033   -3.4109   -0.9329 H   0  0  0  0  0  0  0  0  0  0  0  0
   -5.8507   -5.1011   -1.2036 H   0  0  0  0  0  0  0  0  0  0  0  0
   -5.8282   -5.4892    1.2788 H   0  0  0  0  0  0  0  0  0  0  0  0
   -6.3555   -3.7817    1.5429 H   0  0  0  0  0  0  0  0  0  0  0  0
   -7.8230   -5.9430    0.1478 H   0  0  0  0  0  0  0  0  0  0  0  0
   -8.1969   -5.2278    1.6162 H   0  0  0  0  0  0  0  0  0  0  0  0
   -1.0439   -2.2061   -2.4370 H   0  0  0  0  0  0  0  0  0  0  0  0
   -1.6180    0.4001    0.8225 H   0  0  0  0  0  0  0  0  0  0  0  0
   -1.9660   -1.7645    1.9815 H   0  0  0  0  0  0  0  0  0  0  0  0
   -0.5961   -0.8419    2.6458 H   0  0  0  0  0  0  0  0  0  0  0  0
   -1.5732   -3.8608    0.7341 H   0  0  0  0  0  0  0  0  0  0  0  0
    3.5257   -5.8347    0.8974 H   0  0  0  0  0  0  0  0  0  0  0  0
    1.7411   -1.5902    2.2634 H   0  0  0  0  0  0  0  0  0  0  0  0
   -1.2851    1.5676   -1.1252 H   0  0  0  0  0  0  0  0  0  0  0  0
    3.5746   -0.1349   -0.5994 H   0  0  0  0  0  0  0  0  0  0  0  0
    2.7490    0.2304    0.9495 H   0  0  0  0  0  0  0  0  0  0  0  0
    3.8476    2.3147    1.2364 H   0  0  0  0  0  0  0  0  0  0  0  0
    5.1021    1.1260    0.8294 H   0  0  0  0  0  0  0  0  0  0  0  0
    4.3835    3.6443   -0.4609 H   0  0  0  0  0  0  0  0  0  0  0  0
    4.1563    3.1463   -2.8072 H   0  0  0  0  0  0  0  0  0  0  0  0
    4.2591    1.3787   -2.5306 H   0  0  0  0  0  0  0  0  0  0  0  0
    2.0448    3.2931   -1.5850 H   0  0  0  0  0  0  0  0  0  0  0  0
    1.9268    1.9479   -2.7794 H   0  0  0  0  0  0  0  0  0  0  0  0
    6.4054    4.6552   -1.2679 H   0  0  0  0  0  0  0  0  0  0  0  0
    6.8571    4.0502    0.3686 H   0  0  0  0  0  0  0  0  0  0  0  0
    8.7157    5.8455   -0.7905 H   0  0  0  0  0  0  0  0  0  0  0  0
   11.0954    5.7206   -1.4474 H   0  0  0  0  0  0  0  0  0  0  0  0
   12.0782    3.5602   -2.1639 H   0  0  0  0  0  0  0  0  0  0  0  0
   10.6778    1.5199   -2.2273 H   0  0  0  0  0  0  0  0  0  0  0  0
    6.5845   -0.7194   -1.6424 H   0  0  0  0  0  0  0  0  0  0  0  0
   -6.3010   -1.3610    0.3346 H   0  0  0  0  0  0  0  0  0  0  0  0
   -7.0393    0.2652    0.1443 H   0  0  0  0  0  0  0  0  0  0  0  0
   -5.8485    0.2558    2.2623 H   0  0  0  0  0  0  0  0  0  0  0  0
   -4.3846   -0.4724    1.4987 H   0  0  0  0  0  0  0  0  0  0  0  0
   -4.3013    3.0993   -0.3897 H   0  0  0  0  0  0  0  0  0  0  0  0
   -6.0280    2.6158   -0.2129 H   0  0  0  0  0  0  0  0  0  0  0  0
   -5.3053    1.6567   -2.2964 H   0  0  0  0  0  0  0  0  0  0  0  0
   -3.7183    1.1677   -1.6113 H   0  0  0  0  0  0  0  0  0  0  0  0
   -2.9760    0.6088    2.9431 H   0  0  0  0  0  0  0  0  0  0  0  0
   -1.8872    1.9016    4.7309 H   0  0  0  0  0  0  0  0  0  0  0  0
   -3.7988    5.4463    3.4513 H   0  0  0  0  0  0  0  0  0  0  0  0
   -4.9478    4.2318    1.6396 H   0  0  0  0  0  0  0  0  0  0  0  0
  1  2  1  0
  2  3  1  0
  3  4  1  0
  4  5  1  0
  5  6  1  0
  1  7  1  0
  7  8  2  3
  8  9  1  0
  8 10  1  0
 10 11  1  0
 11 12  1  0
 12 13  2  0
 13 14  1  0
 14 15  1  0
 14 16  2  0
 16 17  1  0
 16 18  1  0
 18 19  1  0
 18 20  2  0
 10 21  1  0
 21 22  2  3
 22 23  1  0
 22 24  1  0
 24 25  1  0
 25 26  1  0
 26 27  1  0
 27 28  1  0
 28 29  1  0
 27 30  1  0
 30 31  1  0
 31 32  1  0
 32 33  2  0
 33 34  1  0
 34 35  2  0
 35 36  1  0
 36 37  2  0
 37 38  1  0
 38 39  2  0
 39 40  1  0
  1 41  1  0
 41 42  2  0
 41 43  1  0
 43 44  1  0
 44 45  1  0
 45 46  1  0
 46 47  1  0
 47 48  1  0
 46 49  1  0
 49 50  2  0
 50 51  1  0
 51 52  2  0
 52 53  1  0
 53 54  2  0
 20 12  1  0
 29 24  1  0
 39 30  1  0
 48 43  1  0
 54 49  1  0
 37 32  1  0
  1 55  1  6
  2 56  1  0
  2 57  1  0
  3 58  1  0
  3 59  1  0
  4 60  1  0
  4 61  1  0
  5 62  1  0
  5 63  1  0
  6 64  1  0
  6 65  1  0
  9 66  1  0
 10 67  1  1
 11 68  1  0
 11 69  1  0
 13 70  1  0
 17 71  1  0
 20 72  1  0
 23 73  1  0
 25 74  1  0
 25 75  1  0
 26 76  1  0
 26 77  1  0
 27 78  1  0
 28 79  1  0
 28 80  1  0
 29 81  1  0
 29 82  1  0
 31 83  1  0
 31 84  1  0
 33 85  1  0
 34 86  1  0
 35 87  1  0
 36 88  1  0
 40 89  1  0
 44 90  1  0
 44 91  1  0
 45 92  1  0
 45 93  1  0
 47 94  1  0
 47 95  1  0
 48 96  1  0
 48 97  1  0
 50 98  1  0
 51 99  1  0
 53100  1  0
 54101  1  0
M  END
$$$$
