
     RDKit          3D

 63 64  0  0  0  0  0  0  0  0999 V2000
    8.1269    1.6222   -2.9273 C   0  0  0  0  0  0  0  0  0  0  0  0
    8.2542    0.5821   -1.9067 C   0  0  0  0  0  0  0  0  0  0  0  0
    8.3563   -0.2748   -1.0651 C   0  0  0  0  0  0  0  0  0  0  0  0
    8.4737   -1.3162   -0.0391 C   0  0  0  0  0  0  0  0  0  0  0  0
    7.3149   -2.2067   -0.0870 N   0  0  0  0  0  0  0  0  0  0  0  0
    5.9779   -1.8278    0.2972 C   0  0  0  0  0  0  0  0  0  0  0  0
    4.9348   -2.7564    0.1513 C   0  0  0  0  0  0  0  0  0  0  0  0
    3.6269   -2.4202    0.5114 C   0  0  0  0  0  0  0  0  0  0  0  0
    3.3427   -1.1517    1.0308 C   0  0  0  0  0  0  0  0  0  0  0  0
    4.3751   -0.2169    1.1743 C   0  0  0  0  0  0  0  0  0  0  0  0
    5.6842   -0.5508    0.8150 C   0  0  0  0  0  0  0  0  0  0  0  0
    1.6904   -0.7234    1.4597 S   0  0  0  0  0  6  0  0  0  0  0  0
    0.9825   -1.9471    1.9703 O   0  0  0  0  0  0  0  0  0  0  0  0
    1.7141    0.3111    2.5501 O   0  0  0  0  0  0  0  0  0  0  0  0
    0.8822   -0.0717   -0.0079 C   0  0  0  0  0  0  0  0  0  0  0  0
   -0.6487    0.1777    0.1421 C   0  0  0  0  0  0  0  0  0  0  0  0
   -1.1829    0.7454   -1.1972 C   0  0  0  0  0  0  0  0  0  0  0  0
   -2.7048    0.9493   -1.1538 C   0  0  0  0  0  0  0  0  0  0  0  0
   -3.1547    1.4360    0.1584 N   0  0  0  0  0  0  0  0  0  0  0  0
   -2.1963    2.0768    1.0730 C   0  0  0  0  0  0  0  0  0  0  0  0
   -0.9042    1.2474    1.2537 C   0  0  0  0  0  0  0  0  0  0  0  0
   -4.5689    1.4718    0.4305 C   0  0  0  0  0  0  0  0  0  0  0  0
   -4.9946    1.9836    1.5015 O   0  0  0  0  0  0  0  0  0  0  0  0
   -5.4648    0.9304   -0.5064 O   0  0  0  0  0  0  0  0  0  0  0  0
   -6.8935    0.8694   -0.3840 C   0  0  0  0  0  0  0  0  0  0  0  0
   -7.4916    2.2862   -0.2921 C   0  0  0  0  0  0  0  0  0  0  0  0
   -7.4277    0.1868   -1.6523 C   0  0  0  0  0  0  0  0  0  0  0  0
   -7.2975    0.0277    0.8416 C   0  0  0  0  0  0  0  0  0  0  0  0
   -1.3614   -1.1424    0.4483 C   0  0  0  0  0  0  0  0  0  0  0  0
   -2.0921   -1.2523    1.4713 O   0  0  0  0  0  0  0  0  0  0  0  0
   -1.2332   -2.2659   -0.4322 N   0  0  0  0  0  0  0  0  0  0  0  0
   -1.8474   -3.4374   -0.1413 O   0  0  0  0  0  0  0  0  0  0  0  0
    7.1029    2.0479   -2.8952 H   0  0  0  0  0  0  0  0  0  0  0  0
    8.8674    2.4249   -2.7319 H   0  0  0  0  0  0  0  0  0  0  0  0
    8.3134    1.1827   -3.9287 H   0  0  0  0  0  0  0  0  0  0  0  0
    8.5665   -0.8567    0.9670 H   0  0  0  0  0  0  0  0  0  0  0  0
    9.3980   -1.8994   -0.2366 H   0  0  0  0  0  0  0  0  0  0  0  0
    7.4835   -3.1906   -0.3981 H   0  0  0  0  0  0  0  0  0  0  0  0
    5.1349   -3.7428   -0.2480 H   0  0  0  0  0  0  0  0  0  0  0  0
    2.8362   -3.1481    0.3806 H   0  0  0  0  0  0  0  0  0  0  0  0
    4.1677    0.7728    1.5611 H   0  0  0  0  0  0  0  0  0  0  0  0
    6.4567    0.1941    0.9437 H   0  0  0  0  0  0  0  0  0  0  0  0
    1.0788   -0.7765   -0.8427 H   0  0  0  0  0  0  0  0  0  0  0  0
    1.3925    0.8782   -0.2785 H   0  0  0  0  0  0  0  0  0  0  0  0
   -0.9318    0.0738   -2.0470 H   0  0  0  0  0  0  0  0  0  0  0  0
   -0.6966    1.7248   -1.4061 H   0  0  0  0  0  0  0  0  0  0  0  0
   -3.1931   -0.0264   -1.3704 H   0  0  0  0  0  0  0  0  0  0  0  0
   -3.0102    1.6683   -1.9443 H   0  0  0  0  0  0  0  0  0  0  0  0
   -1.9373    3.0760    0.6594 H   0  0  0  0  0  0  0  0  0  0  0  0
   -2.6451    2.2464    2.0752 H   0  0  0  0  0  0  0  0  0  0  0  0
   -0.0603    1.9724    1.2777 H   0  0  0  0  0  0  0  0  0  0  0  0
   -0.9109    0.7701    2.2578 H   0  0  0  0  0  0  0  0  0  0  0  0
   -7.2064    2.7862    0.6557 H   0  0  0  0  0  0  0  0  0  0  0  0
   -7.1312    2.9097   -1.1383 H   0  0  0  0  0  0  0  0  0  0  0  0
   -8.6017    2.2447   -0.3298 H   0  0  0  0  0  0  0  0  0  0  0  0
   -8.5360    0.1048   -1.6252 H   0  0  0  0  0  0  0  0  0  0  0  0
   -6.9997   -0.8343   -1.7494 H   0  0  0  0  0  0  0  0  0  0  0  0
   -7.1379    0.7684   -2.5539 H   0  0  0  0  0  0  0  0  0  0  0  0
   -8.3978   -0.1284    0.8627 H   0  0  0  0  0  0  0  0  0  0  0  0
   -6.7991   -0.9647    0.8057 H   0  0  0  0  0  0  0  0  0  0  0  0
   -7.0109    0.5277    1.7890 H   0  0  0  0  0  0  0  0  0  0  0  0
   -0.6902   -2.1917   -1.3201 H   0  0  0  0  0  0  0  0  0  0  0  0
   -1.1746   -3.9562    0.3694 H   0  0  0  0  0  0  0  0  0  0  0  0
  1  2  1  0
  2  3  3  0
  3  4  1  0
  4  5  1  0
  5  6  1  0
  6  7  2  0
  7  8  1  0
  8  9  2  0
  9 10  1  0
 10 11  2  0
  9 12  1  0
 12 13  2  0
 12 14  2  0
 12 15  1  0
 15 16  1  0
 16 17  1  0
 17 18  1  0
 18 19  1  0
 19 20  1  0
 20 21  1  0
 19 22  1  0
 22 23  2  0
 22 24  1  0
 24 25  1  0
 25 26  1  0
 25 27  1  0
 25 28  1  0
 16 29  1  0
 29 30  2  0
 29 31  1  0
 31 32  1  0
 11  6  1  0
 21 16  1  0
  1 33  1  0
  1 34  1  0
  1 35  1  0
  4 36  1  0
  4 37  1  0
  5 38  1  0
  7 39  1  0
  8 40  1  0
 10 41  1  0
 11 42  1  0
 15 43  1  0
 15 44  1  0
 17 45  1  0
 17 46  1  0
 18 47  1  0
 18 48  1  0
 20 49  1  0
 20 50  1  0
 21 51  1  0
 21 52  1  0
 26 53  1  0
 26 54  1  0
 26 55  1  0
 27 56  1  0
 27 57  1  0
 27 58  1  0
 28 59  1  0
 28 60  1  0
 28 61  1  0
 31 62  1  0
 32 63  1  0
M  END
$$$$
