
     RDKit          3D

 69 71  0  0  0  0  0  0  0  0999 V2000
   -1.7570    0.7965    0.0585 C   0  0  2  0  0  0  0  0  0  0  0  0
   -2.6903   -0.4198    0.2491 C   0  0  0  0  0  0  0  0  0  0  0  0
   -2.0165   -1.6185    0.9610 C   0  0  0  0  0  0  0  0  0  0  0  0
   -1.5619   -1.2576    2.4019 C   0  0  0  0  0  0  0  0  0  0  0  0
   -1.4885   -2.4718    3.3501 C   0  0  0  0  0  0  0  0  0  0  0  0
   -1.1807   -3.7654    2.5914 C   0  0  0  0  0  0  0  0  0  0  0  0
   -2.2748   -4.0872    1.5546 C   0  0  0  0  0  0  0  0  0  0  0  0
   -2.9644   -2.8328    0.9787 C   0  0  0  0  0  0  0  0  0  0  0  0
   -2.4953    1.8965   -0.5739 N   0  0  0  0  0  0  0  0  0  0  0  0
   -3.4486    2.6923    0.1526 C   0  0  0  0  0  0  0  0  0  0  0  0
   -3.5264    2.5772    1.4067 O   0  0  0  0  0  0  0  0  0  0  0  0
   -4.3098    3.6268   -0.5305 N   0  0  0  0  0  0  0  0  0  0  0  0
   -4.7376    4.8506    0.1595 C   0  0  0  0  0  0  0  0  0  0  0  0
   -6.0638    5.3525   -0.4184 C   0  0  0  0  0  0  0  0  0  0  0  0
   -5.9919    5.4511   -1.8267 O   0  0  0  0  0  0  0  0  0  0  0  0
   -5.8446    4.1598   -2.3827 C   0  0  0  0  0  0  0  0  0  0  0  0
   -4.5004    3.5430   -1.9837 C   0  0  0  0  0  0  0  0  0  0  0  0
   -0.5559    0.4256   -0.7786 C   0  0  0  0  0  0  0  0  0  0  0  0
   -0.7201    0.1017   -1.9868 O   0  0  0  0  0  0  0  0  0  0  0  0
    0.7543    0.3815   -0.1824 N   0  0  0  0  0  0  0  0  0  0  0  0
    1.9540   -0.1497   -0.8541 C   0  0  1  0  0  0  0  0  0  0  0  0
    2.3541    0.7773   -2.0170 C   0  0  0  0  0  0  0  0  0  0  0  0
    3.1128   -0.2379    0.1650 C   0  0  0  0  0  0  0  0  0  0  0  0
    4.2654   -0.7879   -0.4437 O   0  0  0  0  0  0  0  0  0  0  0  0
    5.3130   -0.8578    0.4988 C   0  0  0  0  0  0  0  0  0  0  0  0
    6.5217   -1.4483   -0.1673 C   0  0  0  0  0  0  0  0  0  0  0  0
    6.7098   -2.8404   -0.1883 C   0  0  0  0  0  0  0  0  0  0  0  0
    7.8151   -3.3916   -0.8443 C   0  0  0  0  0  0  0  0  0  0  0  0
    8.7312   -2.5594   -1.4937 C   0  0  0  0  0  0  0  0  0  0  0  0
    8.5406   -1.1748   -1.4927 C   0  0  0  0  0  0  0  0  0  0  0  0
    7.4367   -0.6195   -0.8379 C   0  0  0  0  0  0  0  0  0  0  0  0
    1.6740   -1.5068   -1.3678 C   0  0  0  0  0  0  0  0  0  0  0  0
    1.4536   -2.5699   -1.7686 N   0  0  0  0  0  0  0  0  0  0  0  0
   -1.4028    1.1450    1.0522 H   0  0  0  0  0  0  0  0  0  0  0  0
   -3.0552   -0.7447   -0.7507 H   0  0  0  0  0  0  0  0  0  0  0  0
   -3.5839   -0.1097    0.8337 H   0  0  0  0  0  0  0  0  0  0  0  0
   -1.1198   -1.9176    0.3733 H   0  0  0  0  0  0  0  0  0  0  0  0
   -0.5564   -0.7865    2.3483 H   0  0  0  0  0  0  0  0  0  0  0  0
   -2.2526   -0.5113    2.8524 H   0  0  0  0  0  0  0  0  0  0  0  0
   -0.7056   -2.2960    4.1193 H   0  0  0  0  0  0  0  0  0  0  0  0
   -2.4594   -2.5883    3.8805 H   0  0  0  0  0  0  0  0  0  0  0  0
   -1.0916   -4.6077    3.3110 H   0  0  0  0  0  0  0  0  0  0  0  0
   -0.2000   -3.6574    2.0771 H   0  0  0  0  0  0  0  0  0  0  0  0
   -1.8162   -4.6693    0.7256 H   0  0  0  0  0  0  0  0  0  0  0  0
   -3.0482   -4.7340    2.0234 H   0  0  0  0  0  0  0  0  0  0  0  0
   -3.3185   -3.0598   -0.0508 H   0  0  0  0  0  0  0  0  0  0  0  0
   -3.8586   -2.5893    1.5949 H   0  0  0  0  0  0  0  0  0  0  0  0
   -2.2987    2.1336   -1.5721 H   0  0  0  0  0  0  0  0  0  0  0  0
   -3.9576    5.6316    0.0294 H   0  0  0  0  0  0  0  0  0  0  0  0
   -4.8753    4.6686    1.2471 H   0  0  0  0  0  0  0  0  0  0  0  0
   -6.2731    6.3612   -0.0042 H   0  0  0  0  0  0  0  0  0  0  0  0
   -6.9027    4.6911   -0.1012 H   0  0  0  0  0  0  0  0  0  0  0  0
   -6.6845    3.4923   -2.0814 H   0  0  0  0  0  0  0  0  0  0  0  0
   -5.8817    4.2456   -3.4891 H   0  0  0  0  0  0  0  0  0  0  0  0
   -3.6755    4.0863   -2.4934 H   0  0  0  0  0  0  0  0  0  0  0  0
   -4.4960    2.4820   -2.3157 H   0  0  0  0  0  0  0  0  0  0  0  0
    0.8400    0.7054    0.8081 H   0  0  0  0  0  0  0  0  0  0  0  0
    3.2798    0.4154   -2.5143 H   0  0  0  0  0  0  0  0  0  0  0  0
    1.5574    0.8273   -2.7875 H   0  0  0  0  0  0  0  0  0  0  0  0
    2.5364    1.8067   -1.6403 H   0  0  0  0  0  0  0  0  0  0  0  0
    2.7857   -0.8745    1.0210 H   0  0  0  0  0  0  0  0  0  0  0  0
    3.3273    0.7863    0.5505 H   0  0  0  0  0  0  0  0  0  0  0  0
    5.0252   -1.4967    1.3654 H   0  0  0  0  0  0  0  0  0  0  0  0
    5.5676    0.1564    0.8842 H   0  0  0  0  0  0  0  0  0  0  0  0
    6.0016   -3.4973    0.3016 H   0  0  0  0  0  0  0  0  0  0  0  0
    7.9591   -4.4643   -0.8529 H   0  0  0  0  0  0  0  0  0  0  0  0
    9.5852   -2.9877   -2.0023 H   0  0  0  0  0  0  0  0  0  0  0  0
    9.2461   -0.5319   -2.0031 H   0  0  0  0  0  0  0  0  0  0  0  0
    7.2948    0.4541   -0.8542 H   0  0  0  0  0  0  0  0  0  0  0  0
  1  2  1  0
  2  3  1  0
  3  4  1  0
  4  5  1  0
  5  6  1  0
  6  7  1  0
  7  8  1  0
  1  9  1  0
  9 10  1  0
 10 11  2  0
 10 12  1  0
 12 13  1  0
 13 14  1  0
 14 15  1  0
 15 16  1  0
 16 17  1  0
  1 18  1  0
 18 19  2  0
 18 20  1  0
 20 21  1  0
 21 22  1  0
 21 23  1  0
 23 24  1  0
 24 25  1  0
 25 26  1  0
 26 27  2  0
 27 28  1  0
 28 29  2  0
 29 30  1  0
 30 31  2  0
 21 32  1  6
 32 33  3  0
  8  3  1  0
 17 12  1  0
 31 26  1  0
  1 34  1  1
  2 35  1  0
  2 36  1  0
  3 37  1  0
  4 38  1  0
  4 39  1  0
  5 40  1  0
  5 41  1  0
  6 42  1  0
  6 43  1  0
  7 44  1  0
  7 45  1  0
  8 46  1  0
  8 47  1  0
  9 48  1  0
 13 49  1  0
 13 50  1  0
 14 51  1  0
 14 52  1  0
 16 53  1  0
 16 54  1  0
 17 55  1  0
 17 56  1  0
 20 57  1  0
 22 58  1  0
 22 59  1  0
 22 60  1  0
 23 61  1  0
 23 62  1  0
 25 63  1  0
 25 64  1  0
 27 65  1  0
 28 66  1  0
 29 67  1  0
 30 68  1  0
 31 69  1  0
M  END
$$$$
