
     RDKit          3D

 57 60  0  0  0  0  0  0  0  0999 V2000
    0.6246    0.7961    0.5522 C   0  0  2  0  0  0  0  0  0  0  0  0
    1.3108    2.0165    1.1545 C   0  0  0  0  0  0  0  0  0  0  0  0
    2.8124    1.7747    0.9156 C   0  0  0  0  0  0  0  0  0  0  0  0
    2.9354    0.4773    0.0536 C   0  0  2  0  0  0  0  0  0  0  0  0
    3.1117   -0.6492    0.9317 O   0  0  0  0  0  0  0  0  0  0  0  0
    4.2437   -0.8890    1.7243 C   0  0  0  0  0  0  0  0  0  0  0  0
    4.2891   -2.1077    2.5805 C   0  0  0  0  0  0  0  0  0  0  0  0
    5.2396   -0.1164    1.6873 O   0  0  0  0  0  0  0  0  0  0  0  0
    4.0821    0.5130   -0.9612 C   0  0  0  0  0  0  0  0  0  0  0  0
    4.5560   -0.7389   -1.6421 C   0  0  0  0  0  0  0  0  0  0  0  0
    4.6109    1.5722   -1.2652 O   0  0  0  0  0  0  0  0  0  0  0  0
    1.5298    0.3835   -0.6208 C   0  0  2  0  0  0  0  0  0  0  0  0
    1.4483    1.3680   -1.8382 C   0  0  0  0  0  0  0  0  0  0  0  0
    1.0933   -1.0312   -1.0762 C   0  0  0  0  0  0  0  0  0  0  0  0
   -0.4051   -1.0700   -1.4602 C   0  0  0  0  0  0  0  0  0  0  0  0
   -1.3419   -0.4923   -0.3576 C   0  0  2  0  0  0  0  0  0  0  0  0
   -2.8160   -0.3574   -0.8290 C   0  0  1  0  0  0  0  0  0  0  0  0
   -3.4029   -1.7009   -1.3217 C   0  0  0  0  0  0  0  0  0  0  0  0
   -4.8535   -1.5241   -1.7770 C   0  0  0  0  0  0  0  0  0  0  0  0
   -5.6626   -0.8332   -0.7231 C   0  0  0  0  0  0  0  0  0  0  0  0
   -6.9152   -0.9642   -0.7145 O   0  0  0  0  0  0  0  0  0  0  0  0
   -5.0154    0.0303    0.2784 C   0  0  0  0  0  0  0  0  0  0  0  0
   -3.6807    0.2284    0.2918 C   0  0  0  0  0  0  0  0  0  0  0  0
   -3.0419    1.0685    1.3591 C   0  0  0  0  0  0  0  0  0  0  0  0
   -3.8469    1.5891    2.5261 C   0  0  0  0  0  0  0  0  0  0  0  0
   -1.7242    1.3320    1.3140 C   0  0  0  0  0  0  0  0  0  0  0  0
   -0.8627    0.8978    0.1539 C   0  0  1  0  0  0  0  0  0  0  0  0
    0.6765    0.0035    1.3390 H   0  0  0  0  0  0  0  0  0  0  0  0
    1.0961    2.1020    2.2420 H   0  0  0  0  0  0  0  0  0  0  0  0
    0.9756    2.9456    0.6435 H   0  0  0  0  0  0  0  0  0  0  0  0
    3.2329    2.6652    0.4017 H   0  0  0  0  0  0  0  0  0  0  0  0
    3.3396    1.6741    1.8877 H   0  0  0  0  0  0  0  0  0  0  0  0
    4.8283   -1.8899    3.5264 H   0  0  0  0  0  0  0  0  0  0  0  0
    3.2573   -2.4376    2.8235 H   0  0  0  0  0  0  0  0  0  0  0  0
    4.8132   -2.9210    2.0371 H   0  0  0  0  0  0  0  0  0  0  0  0
    4.3906   -0.6515   -2.7363 H   0  0  0  0  0  0  0  0  0  0  0  0
    4.0161   -1.6341   -1.2713 H   0  0  0  0  0  0  0  0  0  0  0  0
    5.6400   -0.8783   -1.4478 H   0  0  0  0  0  0  0  0  0  0  0  0
    1.7803    2.3912   -1.5683 H   0  0  0  0  0  0  0  0  0  0  0  0
    2.0968    1.0107   -2.6658 H   0  0  0  0  0  0  0  0  0  0  0  0
    0.4325    1.4569   -2.2641 H   0  0  0  0  0  0  0  0  0  0  0  0
    1.6963   -1.3549   -1.9510 H   0  0  0  0  0  0  0  0  0  0  0  0
    1.2612   -1.7733   -0.2658 H   0  0  0  0  0  0  0  0  0  0  0  0
   -0.6594   -2.1362   -1.6365 H   0  0  0  0  0  0  0  0  0  0  0  0
   -0.5698   -0.5386   -2.4206 H   0  0  0  0  0  0  0  0  0  0  0  0
   -1.3163   -1.2087    0.4967 H   0  0  0  0  0  0  0  0  0  0  0  0
   -2.8429    0.3589   -1.6813 H   0  0  0  0  0  0  0  0  0  0  0  0
   -2.8306   -2.0856   -2.1907 H   0  0  0  0  0  0  0  0  0  0  0  0
   -3.3561   -2.4566   -0.5064 H   0  0  0  0  0  0  0  0  0  0  0  0
   -5.2931   -2.5212   -1.9960 H   0  0  0  0  0  0  0  0  0  0  0  0
   -4.8824   -0.9162   -2.7071 H   0  0  0  0  0  0  0  0  0  0  0  0
   -5.6555    0.4745    1.0282 H   0  0  0  0  0  0  0  0  0  0  0  0
   -3.2163    2.1124    3.2768 H   0  0  0  0  0  0  0  0  0  0  0  0
   -4.6093    2.3090    2.1618 H   0  0  0  0  0  0  0  0  0  0  0  0
   -4.3500    0.7440    3.0412 H   0  0  0  0  0  0  0  0  0  0  0  0
   -1.2726    1.9189    2.1039 H   0  0  0  0  0  0  0  0  0  0  0  0
   -0.9978    1.6638   -0.6368 H   0  0  0  0  0  0  0  0  0  0  0  0
  1  2  1  0
  2  3  1  0
  3  4  1  0
  4  5  1  1
  5  6  1  0
  6  7  1  0
  6  8  2  0
  4  9  1  0
  9 10  1  0
  9 11  2  0
  4 12  1  0
 12 13  1  6
 12 14  1  0
 14 15  1  0
 15 16  1  0
 16 17  1  0
 17 18  1  0
 18 19  1  0
 19 20  1  0
 20 21  2  0
 20 22  1  0
 22 23  2  0
 23 24  1  0
 24 25  1  0
 24 26  2  0
 26 27  1  0
 12  1  1  0
 27 16  1  0
 27  1  1  0
 23 17  1  0
  1 28  1  1
  2 29  1  0
  2 30  1  0
  3 31  1  0
  3 32  1  0
  7 33  1  0
  7 34  1  0
  7 35  1  0
 10 36  1  0
 10 37  1  0
 10 38  1  0
 13 39  1  0
 13 40  1  0
 13 41  1  0
 14 42  1  0
 14 43  1  0
 15 44  1  0
 15 45  1  0
 16 46  1  1
 17 47  1  6
 18 48  1  0
 18 49  1  0
 19 50  1  0
 19 51  1  0
 22 52  1  0
 25 53  1  0
 25 54  1  0
 25 55  1  0
 26 56  1  0
 27 57  1  6
M  END
$$$$
