
     RDKit          3D

 49 52  0  0  0  0  0  0  0  0999 V2000
   -3.5155    2.4236    2.1563 N   0  0  0  0  0  0  0  0  0  0  0  0
   -4.6560    1.6174    1.8492 C   0  0  0  0  0  0  0  0  0  0  0  0
   -5.8266    2.0120    2.2445 N   0  0  0  0  0  0  0  0  0  0  0  0
   -4.4923    0.3474    1.0980 C   0  0  0  0  0  0  0  0  0  0  0  0
   -5.4480   -0.0561    0.1508 C   0  0  0  0  0  0  0  0  0  0  0  0
   -5.2790   -1.2442   -0.5626 C   0  0  0  0  0  0  0  0  0  0  0  0
   -4.1541   -2.0498   -0.3444 C   0  0  0  0  0  0  0  0  0  0  0  0
   -3.9953   -3.2300   -1.0707 O   0  0  0  0  0  0  0  0  0  0  0  0
   -3.1901   -1.6617    0.6064 C   0  0  0  0  0  0  0  0  0  0  0  0
   -1.9488   -2.4826    0.8494 C   0  0  0  0  0  0  0  0  0  0  0  0
   -0.7851   -1.8155    0.2681 N   0  0  0  0  0  0  0  0  0  0  0  0
    0.3013   -1.2414    1.0373 C   0  0  0  0  0  0  0  0  0  0  0  0
    1.2590   -0.6057    0.0116 C   0  0  0  0  0  0  0  0  0  0  0  0
    0.7527   -0.9775   -1.4014 C   0  0  2  0  0  0  0  0  0  0  0  0
    0.5063    0.2272   -2.2118 N   0  0  0  0  0  0  0  0  0  0  0  0
    1.9600    0.7301   -3.0270 S   0  0  0  0  0  6  0  0  0  0  0  0
    1.6670    1.9567   -3.8439 O   0  0  0  0  0  0  0  0  0  0  0  0
    2.4284   -0.3585   -3.9526 O   0  0  0  0  0  0  0  0  0  0  0  0
    3.2316    1.1104   -1.8801 C   0  0  0  0  0  0  0  0  0  0  0  0
    4.2972    0.2741   -1.5514 C   0  0  0  0  0  0  0  0  0  0  0  0
    5.1189    0.8451   -0.5793 C   0  0  0  0  0  0  0  0  0  0  0  0
    4.7084    2.0974   -0.1576 C   0  0  0  0  0  0  0  0  0  0  0  0
    3.3097    2.5394   -0.9750 S   0  0  0  0  0  0  0  0  0  0  0  0
    5.4165    2.7990    0.8111 C   0  0  0  0  0  0  0  0  0  0  0  0
    6.5632    2.1953    1.3478 C   0  0  0  0  0  0  0  0  0  0  0  0
    6.9563    0.9183    0.8987 C   0  0  0  0  0  0  0  0  0  0  0  0
    6.2292    0.2647   -0.0551 N   0  0  0  0  0  0  0  0  0  0  0  0
   -0.5160   -1.6927   -1.1140 C   0  0  0  0  0  0  0  0  0  0  0  0
   -1.2608   -2.1842   -2.0038 O   0  0  0  0  0  0  0  0  0  0  0  0
   -3.3656   -0.4625    1.3169 C   0  0  0  0  0  0  0  0  0  0  0  0
   -2.5701    2.1895    1.7804 H   0  0  0  0  0  0  0  0  0  0  0  0
   -3.6232    3.2957    2.7208 H   0  0  0  0  0  0  0  0  0  0  0  0
   -6.6982    1.4632    2.0723 H   0  0  0  0  0  0  0  0  0  0  0  0
   -6.3152    0.5577   -0.0571 H   0  0  0  0  0  0  0  0  0  0  0  0
   -6.0222   -1.5351   -1.2941 H   0  0  0  0  0  0  0  0  0  0  0  0
   -4.6759   -3.5254   -1.7608 H   0  0  0  0  0  0  0  0  0  0  0  0
   -2.0374   -3.5060    0.4274 H   0  0  0  0  0  0  0  0  0  0  0  0
   -1.8050   -2.6021    1.9456 H   0  0  0  0  0  0  0  0  0  0  0  0
    0.8182   -2.0422    1.6090 H   0  0  0  0  0  0  0  0  0  0  0  0
   -0.0914   -0.4738    1.7385 H   0  0  0  0  0  0  0  0  0  0  0  0
    1.2667    0.4968    0.1562 H   0  0  0  0  0  0  0  0  0  0  0  0
    2.2915   -0.9878    0.1648 H   0  0  0  0  0  0  0  0  0  0  0  0
    1.4517   -1.6838   -1.9030 H   0  0  0  0  0  0  0  0  0  0  0  0
   -0.1727   -0.0037   -2.9737 H   0  0  0  0  0  0  0  0  0  0  0  0
    4.4601   -0.7035   -1.9860 H   0  0  0  0  0  0  0  0  0  0  0  0
    5.0941    3.7777    1.1418 H   0  0  0  0  0  0  0  0  0  0  0  0
    7.1431    2.7077    2.1043 H   0  0  0  0  0  0  0  0  0  0  0  0
    7.8399    0.4506    1.3119 H   0  0  0  0  0  0  0  0  0  0  0  0
   -2.6264   -0.1714    2.0532 H   0  0  0  0  0  0  0  0  0  0  0  0
  1  2  1  0
  2  3  2  3
  2  4  1  0
  4  5  2  0
  5  6  1  0
  6  7  2  0
  7  8  1  0
  7  9  1  0
  9 10  1  0
 10 11  1  0
 11 12  1  0
 12 13  1  0
 13 14  1  0
 14 15  1  0
 15 16  1  0
 16 17  2  0
 16 18  2  0
 16 19  1  0
 19 20  2  0
 20 21  1  0
 21 22  2  0
 22 23  1  0
 22 24  1  0
 24 25  2  0
 25 26  1  0
 26 27  2  0
 14 28  1  0
 28 29  2  0
  9 30  2  0
 30  4  1  0
 28 11  1  0
 23 19  1  0
 27 21  1  0
  1 31  1  0
  1 32  1  0
  3 33  1  0
  5 34  1  0
  6 35  1  0
  8 36  1  0
 10 37  1  0
 10 38  1  0
 12 39  1  0
 12 40  1  0
 13 41  1  0
 13 42  1  0
 14 43  1  6
 15 44  1  0
 20 45  1  0
 24 46  1  0
 25 47  1  0
 26 48  1  0
 30 49  1  0
M  END
$$$$
