
     RDKit          3D

 56 59  0  0  0  0  0  0  0  0999 V2000
    1.0099    0.5963    0.9134 C   0  0  2  0  0  0  0  0  0  0  0  0
    1.9742    1.7456    1.1744 C   0  0  0  0  0  0  0  0  0  0  0  0
    3.3657    1.0845    1.1907 C   0  0  0  0  0  0  0  0  0  0  0  0
    3.1652   -0.4133    0.7865 C   0  0  2  0  0  0  0  0  0  0  0  0
    3.0286   -1.1829    1.9618 O   0  0  0  0  0  0  0  0  0  0  0  0
    4.2986   -1.0220   -0.0470 C   0  0  0  0  0  0  0  0  0  0  0  0
    4.1696   -2.1673   -0.4559 O   0  0  0  0  0  0  0  0  0  0  0  0
    5.5666   -0.2723   -0.3717 C   0  0  0  0  0  0  0  0  0  0  0  0
    6.5276   -1.1404   -0.9080 O   0  0  0  0  0  0  0  0  0  0  0  0
    1.7990   -0.3783    0.0276 C   0  0  2  0  0  0  0  0  0  0  0  0
    2.0264    0.1576   -1.4288 C   0  0  0  0  0  0  0  0  0  0  0  0
    1.0173   -1.7206   -0.0090 C   0  0  0  0  0  0  0  0  0  0  0  0
   -0.4499   -1.5454   -0.4974 C   0  0  2  0  0  0  0  0  0  0  0  0
   -0.4678   -1.3137   -1.8803 O   0  0  0  0  0  0  0  0  0  0  0  0
   -1.2282   -0.4270    0.2907 C   0  0  1  0  0  0  0  0  0  0  0  0
   -1.3316   -0.9039    1.5949 F   0  0  0  0  0  0  0  0  0  0  0  0
   -0.4078    0.9117    0.3773 C   0  0  1  0  0  0  0  0  0  0  0  0
   -1.1204    1.9096    1.3132 C   0  0  0  0  0  0  0  0  0  0  0  0
   -2.5391    2.2108    0.8384 C   0  0  0  0  0  0  0  0  0  0  0  0
   -3.3328    0.9418    0.6326 C   0  0  0  0  0  0  0  0  0  0  0  0
   -4.6287    0.9284    0.9974 C   0  0  0  0  0  0  0  0  0  0  0  0
   -5.5225   -0.1872    0.6595 C   0  0  0  0  0  0  0  0  0  0  0  0
   -6.7153   -0.1753    1.0637 O   0  0  0  0  0  0  0  0  0  0  0  0
   -5.0480   -1.2963   -0.2221 C   0  0  0  0  0  0  0  0  0  0  0  0
   -3.5417   -1.5027   -0.0471 C   0  0  0  0  0  0  0  0  0  0  0  0
   -2.7163   -0.1817   -0.2150 C   0  0  2  0  0  0  0  0  0  0  0  0
   -2.7989    0.2706   -1.7003 C   0  0  0  0  0  0  0  0  0  0  0  0
    0.8601    0.1177    1.9118 H   0  0  0  0  0  0  0  0  0  0  0  0
    1.7567    2.2385    2.1472 H   0  0  0  0  0  0  0  0  0  0  0  0
    1.9076    2.5007    0.3602 H   0  0  0  0  0  0  0  0  0  0  0  0
    3.8261    1.1736    2.1989 H   0  0  0  0  0  0  0  0  0  0  0  0
    4.0112    1.6367    0.4778 H   0  0  0  0  0  0  0  0  0  0  0  0
    3.8958   -1.1564    2.4463 H   0  0  0  0  0  0  0  0  0  0  0  0
    5.9688    0.1868    0.5583 H   0  0  0  0  0  0  0  0  0  0  0  0
    5.3354    0.5248   -1.1120 H   0  0  0  0  0  0  0  0  0  0  0  0
    7.3248   -0.5822   -1.1028 H   0  0  0  0  0  0  0  0  0  0  0  0
    1.1019    0.4790   -1.9370 H   0  0  0  0  0  0  0  0  0  0  0  0
    2.7079    1.0322   -1.4487 H   0  0  0  0  0  0  0  0  0  0  0  0
    2.4837   -0.6320   -2.0618 H   0  0  0  0  0  0  0  0  0  0  0  0
    1.5412   -2.4509   -0.6622 H   0  0  0  0  0  0  0  0  0  0  0  0
    0.9840   -2.1735    1.0055 H   0  0  0  0  0  0  0  0  0  0  0  0
   -0.9626   -2.5142   -0.2958 H   0  0  0  0  0  0  0  0  0  0  0  0
   -0.2549   -2.1759   -2.3244 H   0  0  0  0  0  0  0  0  0  0  0  0
   -0.3265    1.3970   -0.6125 H   0  0  0  0  0  0  0  0  0  0  0  0
   -0.5568    2.8672    1.3412 H   0  0  0  0  0  0  0  0  0  0  0  0
   -1.1587    1.5119    2.3515 H   0  0  0  0  0  0  0  0  0  0  0  0
   -3.0210    2.8742    1.5903 H   0  0  0  0  0  0  0  0  0  0  0  0
   -2.4984    2.7700   -0.1211 H   0  0  0  0  0  0  0  0  0  0  0  0
   -5.0503    1.7664    1.5403 H   0  0  0  0  0  0  0  0  0  0  0  0
   -5.5780   -2.2376    0.0403 H   0  0  0  0  0  0  0  0  0  0  0  0
   -5.2853   -1.0528   -1.2792 H   0  0  0  0  0  0  0  0  0  0  0  0
   -3.2105   -2.2672   -0.7822 H   0  0  0  0  0  0  0  0  0  0  0  0
   -3.3825   -1.9348    0.9649 H   0  0  0  0  0  0  0  0  0  0  0  0
   -2.0341    1.0294   -1.9532 H   0  0  0  0  0  0  0  0  0  0  0  0
   -2.6967   -0.5839   -2.3999 H   0  0  0  0  0  0  0  0  0  0  0  0
   -3.7884    0.7281   -1.9169 H   0  0  0  0  0  0  0  0  0  0  0  0
  1  2  1  0
  2  3  1  0
  3  4  1  0
  4  5  1  1
  4  6  1  0
  6  7  2  0
  6  8  1  0
  8  9  1  0
  4 10  1  0
 10 11  1  6
 10 12  1  0
 12 13  1  0
 13 14  1  0
 13 15  1  0
 15 16  1  1
 15 17  1  0
 17 18  1  0
 18 19  1  0
 19 20  1  0
 20 21  2  0
 21 22  1  0
 22 23  2  0
 22 24  1  0
 24 25  1  0
 25 26  1  0
 26 27  1  6
 10  1  1  0
 26 15  1  0
 17  1  1  0
 26 20  1  0
  1 28  1  1
  2 29  1  0
  2 30  1  0
  3 31  1  0
  3 32  1  0
  5 33  1  0
  8 34  1  0
  8 35  1  0
  9 36  1  0
 11 37  1  0
 11 38  1  0
 11 39  1  0
 12 40  1  0
 12 41  1  0
 13 42  1  6
 14 43  1  0
 17 44  1  6
 18 45  1  0
 18 46  1  0
 19 47  1  0
 19 48  1  0
 21 49  1  0
 24 50  1  0
 24 51  1  0
 25 52  1  0
 25 53  1  0
 27 54  1  0
 27 55  1  0
 27 56  1  0
M  END
$$$$
