
     RDKit          3D

 37 40  0  0  0  0  0  0  0  0999 V2000
   -4.5146    3.0756    0.1064 N   0  0  0  0  0  0  0  0  0  0  0  0
   -3.1791    3.0263    0.6092 C   0  0  0  0  0  0  0  0  0  0  0  0
   -2.7064    4.0308    1.2043 O   0  0  0  0  0  0  0  0  0  0  0  0
   -2.3244    1.8457    0.4024 C   0  0  0  0  0  0  0  0  0  0  0  0
   -0.9738    1.9182    0.3081 N   0  0  0  0  0  0  0  0  0  0  0  0
   -0.4957    0.6930    0.1191 N   0  0  0  0  0  0  0  0  0  0  0  0
   -1.5309   -0.1708    0.0927 C   0  0  0  0  0  0  0  0  0  0  0  0
   -2.7086    0.5179    0.2843 C   0  0  0  0  0  0  0  0  0  0  0  0
   -3.9557   -0.1383    0.3657 C   0  0  0  0  0  0  0  0  0  0  0  0
   -3.9881   -1.5418    0.1848 C   0  0  0  0  0  0  0  0  0  0  0  0
   -2.7741   -2.2078   -0.0604 C   0  0  0  0  0  0  0  0  0  0  0  0
   -1.5703   -1.5506   -0.1092 C   0  0  0  0  0  0  0  0  0  0  0  0
   -0.6381   -2.5195   -0.4214 C   0  0  0  0  0  0  0  0  0  0  0  0
   -1.2833   -3.7064   -0.5350 N   0  0  0  0  0  0  0  0  0  0  0  0
   -2.5783   -3.5109   -0.3105 N   0  0  0  0  0  0  0  0  0  0  0  0
    0.9058    0.4031    0.0588 C   0  0  0  0  0  0  0  0  0  0  0  0
    1.7191    1.0731   -0.8651 C   0  0  0  0  0  0  0  0  0  0  0  0
    3.0942    0.8234   -0.9041 C   0  0  0  0  0  0  0  0  0  0  0  0
    3.6704   -0.0899   -0.0105 C   0  0  0  0  0  0  0  0  0  0  0  0
    2.8633   -0.7348    0.9364 C   0  0  0  0  0  0  0  0  0  0  0  0
    1.4887   -0.4846    0.9753 C   0  0  0  0  0  0  0  0  0  0  0  0
    5.4047   -0.3921   -0.0484 S   0  0  0  0  0  6  0  0  0  0  0  0
    6.2110    0.7199    1.0007 N   0  0  0  0  0  0  0  0  0  0  0  0
    5.6857   -1.7987    0.4006 O   0  0  0  0  0  0  0  0  0  0  0  0
    5.9202   -0.2226   -1.4501 O   0  0  0  0  0  0  0  0  0  0  0  0
   -4.8557    2.3746   -0.5868 H   0  0  0  0  0  0  0  0  0  0  0  0
   -5.1264    3.8922    0.3281 H   0  0  0  0  0  0  0  0  0  0  0  0
   -4.8686    0.4003    0.5748 H   0  0  0  0  0  0  0  0  0  0  0  0
   -4.9232   -2.0850    0.2253 H   0  0  0  0  0  0  0  0  0  0  0  0
    0.4203   -2.3867   -0.5899 H   0  0  0  0  0  0  0  0  0  0  0  0
   -3.3062   -4.2585   -0.3467 H   0  0  0  0  0  0  0  0  0  0  0  0
    1.2845    1.7823   -1.5583 H   0  0  0  0  0  0  0  0  0  0  0  0
    3.7084    1.3456   -1.6265 H   0  0  0  0  0  0  0  0  0  0  0  0
    3.2979   -1.4245    1.6487 H   0  0  0  0  0  0  0  0  0  0  0  0
    0.8772   -0.9779    1.7204 H   0  0  0  0  0  0  0  0  0  0  0  0
    5.9550    1.6810    0.6810 H   0  0  0  0  0  0  0  0  0  0  0  0
    5.7951    0.5984    1.9513 H   0  0  0  0  0  0  0  0  0  0  0  0
  1  2  1  0
  2  3  2  0
  2  4  1  0
  4  5  2  0
  5  6  1  0
  6  7  1  0
  7  8  2  0
  8  9  1  0
  9 10  2  0
 10 11  1  0
 11 12  2  0
 12 13  1  0
 13 14  2  0
 14 15  1  0
  6 16  1  0
 16 17  2  0
 17 18  1  0
 18 19  2  0
 19 20  1  0
 20 21  2  0
 19 22  1  0
 22 23  1  0
 22 24  2  0
 22 25  2  0
  8  4  1  0
 15 11  1  0
 21 16  1  0
 12  7  1  0
  1 26  1  0
  1 27  1  0
  9 28  1  0
 10 29  1  0
 13 30  1  0
 15 31  1  0
 17 32  1  0
 18 33  1  0
 20 34  1  0
 21 35  1  0
 23 36  1  0
 23 37  1  0
M  END
$$$$
