
     RDKit          3D

 47 50  0  0  0  0  0  0  0  0999 V2000
   -1.3647    0.2626    1.8822 C   0  0  1  0  0  0  0  0  0  0  0  0
   -1.1272    1.2024    0.3275 S   0  0  0  0  0  0  0  0  0  0  0  0
   -2.8380    0.8383   -0.2971 C   0  0  0  0  0  0  0  0  0  0  0  0
   -2.7087   -0.2172   -1.4101 C   0  0  0  0  0  0  0  0  0  0  0  0
   -3.4328    2.1234   -0.9051 C   0  0  0  0  0  0  0  0  0  0  0  0
   -3.6778    0.2498    0.8827 C   0  0  1  0  0  0  0  0  0  0  0  0
   -2.6867   -0.2768    1.7847 N   0  0  0  0  0  0  0  0  0  0  0  0
   -2.1175   -1.6294    1.9889 C   0  0  0  0  0  0  0  0  0  0  0  0
   -2.5878   -2.7956    2.0415 O   0  0  0  0  0  0  0  0  0  0  0  0
   -0.7439   -1.0364    2.0237 C   0  0  1  0  0  0  0  0  0  0  0  0
    0.0658   -1.4580    0.8778 N   0  0  0  0  0  0  0  0  0  0  0  0
    1.4281   -1.0368    0.7266 C   0  0  0  0  0  0  0  0  0  0  0  0
    1.9034   -0.1571    1.4948 O   0  0  0  0  0  0  0  0  0  0  0  0
    2.2832   -1.6166   -0.3274 C   0  0  0  0  0  0  0  0  0  0  0  0
    2.3705   -2.9445   -0.7122 C   0  0  0  0  0  0  0  0  0  0  0  0
    1.5414   -4.0925   -0.2350 C   0  0  0  0  0  0  0  0  0  0  0  0
    3.3421   -3.0638   -1.5865 O   0  0  0  0  0  0  0  0  0  0  0  0
    3.9235   -1.9207   -1.8069 N   0  0  0  0  0  0  0  0  0  0  0  0
    3.2998   -0.9991   -1.0454 C   0  0  0  0  0  0  0  0  0  0  0  0
    3.6666    0.4329   -1.0528 C   0  0  0  0  0  0  0  0  0  0  0  0
    2.6816    1.4339   -0.9826 C   0  0  0  0  0  0  0  0  0  0  0  0
    3.0436    2.7840   -1.0086 C   0  0  0  0  0  0  0  0  0  0  0  0
    4.3883    3.1466   -1.1184 C   0  0  0  0  0  0  0  0  0  0  0  0
    5.3725    2.1592   -1.2107 C   0  0  0  0  0  0  0  0  0  0  0  0
    5.0143    0.8075   -1.1853 C   0  0  0  0  0  0  0  0  0  0  0  0
   -4.5209    1.2616    1.6136 C   0  0  0  0  0  0  0  0  0  0  0  0
   -5.8940    1.2999    1.3929 O   0  0  0  0  0  0  0  0  0  0  0  0
   -3.9884    2.0961    2.3950 O   0  0  0  0  0  0  0  0  0  0  0  0
   -1.2596    0.9001    2.7876 H   0  0  0  0  0  0  0  0  0  0  0  0
   -3.7028   -0.4382   -1.8553 H   0  0  0  0  0  0  0  0  0  0  0  0
   -2.0346    0.1439   -2.2164 H   0  0  0  0  0  0  0  0  0  0  0  0
   -2.2895   -1.1629   -1.0075 H   0  0  0  0  0  0  0  0  0  0  0  0
   -3.4175    2.9537   -0.1681 H   0  0  0  0  0  0  0  0  0  0  0  0
   -4.4804    1.9496   -1.2322 H   0  0  0  0  0  0  0  0  0  0  0  0
   -2.8374    2.4493   -1.7851 H   0  0  0  0  0  0  0  0  0  0  0  0
   -4.3416   -0.5757    0.5418 H   0  0  0  0  0  0  0  0  0  0  0  0
   -0.2397   -1.2061    3.0002 H   0  0  0  0  0  0  0  0  0  0  0  0
   -0.3468   -2.1015    0.1662 H   0  0  0  0  0  0  0  0  0  0  0  0
    1.3395   -3.9964    0.8523 H   0  0  0  0  0  0  0  0  0  0  0  0
    0.5835   -4.1190   -0.7942 H   0  0  0  0  0  0  0  0  0  0  0  0
    2.0844   -5.0445   -0.4106 H   0  0  0  0  0  0  0  0  0  0  0  0
    1.6332    1.1738   -0.9322 H   0  0  0  0  0  0  0  0  0  0  0  0
    2.2802    3.5493   -0.9521 H   0  0  0  0  0  0  0  0  0  0  0  0
    4.6669    4.1923   -1.1399 H   0  0  0  0  0  0  0  0  0  0  0  0
    6.4134    2.4409   -1.3032 H   0  0  0  0  0  0  0  0  0  0  0  0
    5.7896    0.0544   -1.2566 H   0  0  0  0  0  0  0  0  0  0  0  0
   -6.4766    1.9831    1.8620 H   0  0  0  0  0  0  0  0  0  0  0  0
  1  2  1  0
  2  3  1  0
  3  4  1  0
  3  5  1  0
  3  6  1  0
  6  7  1  0
  7  8  1  0
  8  9  2  0
  8 10  1  0
 10 11  1  0
 11 12  1  0
 12 13  2  0
 12 14  1  0
 14 15  2  0
 15 16  1  0
 15 17  1  0
 17 18  1  0
 18 19  2  0
 19 20  1  0
 20 21  2  0
 21 22  1  0
 22 23  2  0
 23 24  1  0
 24 25  2  0
  6 26  1  0
 26 27  1  0
 26 28  2  0
  7  1  1  0
 19 14  1  0
 25 20  1  0
 10  1  1  0
  1 29  1  1
  4 30  1  0
  4 31  1  0
  4 32  1  0
  5 33  1  0
  5 34  1  0
  5 35  1  0
  6 36  1  6
 10 37  1  1
 11 38  1  0
 16 39  1  0
 16 40  1  0
 16 41  1  0
 21 42  1  0
 22 43  1  0
 23 44  1  0
 24 45  1  0
 25 46  1  0
 27 47  1  0
M  END
$$$$
