
     RDKit          3D

 44 46  0  0  0  0  0  0  0  0999 V2000
    5.5748    0.3895    0.1824 C   0  0  0  0  0  0  0  0  0  0  0  0
    5.7102   -1.0185   -0.3858 C   0  0  0  0  0  0  0  0  0  0  0  0
    4.3652   -1.6668   -0.5021 C   0  0  0  0  0  0  0  0  0  0  0  0
    3.7421   -1.6139   -1.5968 O   0  0  0  0  0  0  0  0  0  0  0  0
    3.7686   -2.2921    0.6394 N   0  0  0  0  0  0  0  0  0  0  0  0
    2.1328   -2.8612    0.6114 S   0  0  0  0  0  6  0  0  0  0  0  0
    2.0058   -3.9300   -0.4380 O   0  0  0  0  0  0  0  0  0  0  0  0
    1.7841   -3.4428    1.9522 O   0  0  0  0  0  0  0  0  0  0  0  0
    1.0445   -1.5226    0.2631 C   0  0  0  0  0  0  0  0  0  0  0  0
   -0.1239   -1.7344   -0.4797 C   0  0  0  0  0  0  0  0  0  0  0  0
   -0.9826   -0.6674   -0.7584 C   0  0  0  0  0  0  0  0  0  0  0  0
   -0.6854    0.6231   -0.2911 C   0  0  0  0  0  0  0  0  0  0  0  0
    0.4844    0.8304    0.4559 C   0  0  0  0  0  0  0  0  0  0  0  0
    1.3422   -0.2372    0.7340 C   0  0  0  0  0  0  0  0  0  0  0  0
   -1.5934    1.7512   -0.5874 C   0  0  0  0  0  0  0  0  0  0  0  0
   -1.2596    2.9711   -1.1500 C   0  0  0  0  0  0  0  0  0  0  0  0
    0.1064    3.4715   -1.4908 C   0  0  0  0  0  0  0  0  0  0  0  0
   -2.3616    3.6524   -1.3584 O   0  0  0  0  0  0  0  0  0  0  0  0
   -3.4113    2.9776   -0.9886 N   0  0  0  0  0  0  0  0  0  0  0  0
   -2.9803    1.7944   -0.5054 C   0  0  0  0  0  0  0  0  0  0  0  0
   -3.8926    0.7694    0.0473 C   0  0  0  0  0  0  0  0  0  0  0  0
   -5.1732    0.6051   -0.5076 C   0  0  0  0  0  0  0  0  0  0  0  0
   -6.0502   -0.3533    0.0100 C   0  0  0  0  0  0  0  0  0  0  0  0
   -5.6619   -1.1463    1.0926 C   0  0  0  0  0  0  0  0  0  0  0  0
   -4.3988   -0.9768    1.6645 C   0  0  0  0  0  0  0  0  0  0  0  0
   -3.5188   -0.0195    1.1506 C   0  0  0  0  0  0  0  0  0  0  0  0
    5.1212    0.3547    1.1962 H   0  0  0  0  0  0  0  0  0  0  0  0
    4.9390    1.0137   -0.4815 H   0  0  0  0  0  0  0  0  0  0  0  0
    6.5785    0.8581    0.2579 H   0  0  0  0  0  0  0  0  0  0  0  0
    6.1924   -0.9676   -1.3862 H   0  0  0  0  0  0  0  0  0  0  0  0
    6.3613   -1.6255    0.2791 H   0  0  0  0  0  0  0  0  0  0  0  0
    4.2999   -2.3468    1.5367 H   0  0  0  0  0  0  0  0  0  0  0  0
   -0.3700   -2.7229   -0.8456 H   0  0  0  0  0  0  0  0  0  0  0  0
   -1.8753   -0.8469   -1.3448 H   0  0  0  0  0  0  0  0  0  0  0  0
    0.7248    1.8135    0.8397 H   0  0  0  0  0  0  0  0  0  0  0  0
    2.2368   -0.0610    1.3177 H   0  0  0  0  0  0  0  0  0  0  0  0
    0.7177    2.6521   -1.9237 H   0  0  0  0  0  0  0  0  0  0  0  0
    0.5996    3.8605   -0.5763 H   0  0  0  0  0  0  0  0  0  0  0  0
    0.0311    4.2910   -2.2356 H   0  0  0  0  0  0  0  0  0  0  0  0
   -5.4893    1.2089   -1.3494 H   0  0  0  0  0  0  0  0  0  0  0  0
   -7.0315   -0.4809   -0.4285 H   0  0  0  0  0  0  0  0  0  0  0  0
   -6.3423   -1.8869    1.4926 H   0  0  0  0  0  0  0  0  0  0  0  0
   -4.1037   -1.5825    2.5116 H   0  0  0  0  0  0  0  0  0  0  0  0
   -2.5574    0.1154    1.6284 H   0  0  0  0  0  0  0  0  0  0  0  0
  1  2  1  0
  2  3  1  0
  3  4  2  0
  3  5  1  0
  5  6  1  0
  6  7  2  0
  6  8  2  0
  6  9  1  0
  9 10  2  0
 10 11  1  0
 11 12  2  0
 12 13  1  0
 13 14  2  0
 12 15  1  0
 15 16  2  0
 16 17  1  0
 16 18  1  0
 18 19  1  0
 19 20  2  0
 20 21  1  0
 21 22  2  0
 22 23  1  0
 23 24  2  0
 24 25  1  0
 25 26  2  0
 14  9  1  0
 20 15  1  0
 26 21  1  0
  1 27  1  0
  1 28  1  0
  1 29  1  0
  2 30  1  0
  2 31  1  0
  5 32  1  0
 10 33  1  0
 11 34  1  0
 13 35  1  0
 14 36  1  0
 17 37  1  0
 17 38  1  0
 17 39  1  0
 22 40  1  0
 23 41  1  0
 24 42  1  0
 25 43  1  0
 26 44  1  0
M  END
$$$$
