
     RDKit          2D

103105  0  0  0  0  0  0  0  0999 V2000
    7.0981    3.0000    0.0000 C   0  0  0  0  0  0  0  0  0  0  0  0
    6.3481    1.7010    0.0000 O   0  0  0  0  0  0  0  0  0  0  0  0
    4.8481    1.7010    0.0000 C   0  0  0  0  0  0  0  0  0  0  0  0
    3.9453    2.8989    0.0000 O   0  0  0  0  0  0  0  0  0  0  0  0
    4.0981    0.4019    0.0000 N   0  0  0  0  0  0  0  0  0  0  0  0
    4.8481   -0.8971    0.0000 C   0  0  0  0  0  0  0  0  0  0  0  0
    3.5490   -1.6471    0.0000 C   0  0  0  0  0  0  0  0  0  0  0  0
    2.7820   -1.2042    0.0000 O   0  0  0  0  0  0  0  0  0  0  0  0
    3.5490   -3.1471    0.0000 N   0  0  0  0  0  0  0  0  0  0  0  0
    2.2500   -3.8971    0.0000 C   0  0  0  0  0  0  0  0  0  0  0  0
    1.5000   -2.5981    0.0000 C   0  0  0  0  0  0  0  0  0  0  0  0
    0.7500   -1.2990    0.0000 C   0  0  0  0  0  0  0  0  0  0  0  0
   -0.7500   -1.2990    0.0000 C   0  0  0  0  0  0  0  0  0  0  0  0
   -1.5000   -0.0000    0.0000 C   0  0  0  0  0  0  0  0  0  0  0  0
   -0.7500    1.2990    0.0000 C   0  0  0  0  0  0  0  0  0  0  0  0
    0.7500    1.2990    0.0000 C   0  0  0  0  0  0  0  0  0  0  0  0
    1.5000   -0.0000    0.0000 C   0  0  0  0  0  0  0  0  0  0  0  0
    3.0000   -5.1962    0.0000 C   0  0  0  0  0  0  0  0  0  0  0  0
    1.7010   -5.9462    0.0000 O   0  0  0  0  0  0  0  0  0  0  0  0
    3.7500   -6.4952    0.0000 C   0  0  0  0  0  0  0  0  0  0  0  0
    4.5000   -7.7942    0.0000 N   0  0  0  0  0  0  0  0  0  0  0  0
    6.0000   -7.7942    0.0000 C   0  0  0  0  0  0  0  0  0  0  0  0
    7.5000   -7.7942    0.0000 C   0  0  0  0  0  0  0  0  0  0  0  0
    8.2500   -9.0933    0.0000 C   0  0  0  0  0  0  0  0  0  0  0  0
    9.7500   -9.0933    0.0000 C   0  0  0  0  0  0  0  0  0  0  0  0
   10.5000   -7.7942    0.0000 C   0  0  0  0  0  0  0  0  0  0  0  0
    9.7500   -6.4952    0.0000 C   0  0  0  0  0  0  0  0  0  0  0  0
    8.2500   -6.4952    0.0000 C   0  0  0  0  0  0  0  0  0  0  0  0
   12.0000   -7.7942    0.0000 C   0  0  0  0  0  0  0  0  0  0  0  0
   12.7500   -9.0933    0.0000 C   0  0  0  0  0  0  0  0  0  0  0  0
   14.2500   -9.0933    0.0000 C   0  0  0  0  0  0  0  0  0  0  0  0
   15.0000   -7.7942    0.0000 C   0  0  0  0  0  0  0  0  0  0  0  0
   14.2500   -6.4952    0.0000 C   0  0  0  0  0  0  0  0  0  0  0  0
   12.7500   -6.4952    0.0000 N   0  0  0  0  0  0  0  0  0  0  0  0
    3.7500   -9.0933    0.0000 N   0  0  0  0  0  0  0  0  0  0  0  0
    4.5000  -10.3923    0.0000 C   0  0  0  0  0  0  0  0  0  0  0  0
    6.0000  -10.3923    0.0000 O   0  0  0  0  0  0  0  0  0  0  0  0
    3.7500  -11.6913    0.0000 C   0  0  0  0  0  0  0  0  0  0  0  0
    5.0490  -12.4413    0.0000 N   0  0  0  0  0  0  0  0  0  0  0  0
    5.0490  -13.9413    0.0000 C   0  0  0  0  0  0  0  0  0  0  0  0
    6.4298  -14.5274    0.0000 O   0  0  0  0  0  0  0  0  0  0  0  0
    3.7500  -14.6913    0.0000 O   0  0  0  0  0  0  0  0  0  0  0  0
    3.7500  -16.1913    0.0000 C   0  0  0  0  0  0  0  0  0  0  0  0
    3.0000  -12.9904    0.0000 C   0  0  0  0  0  0  0  0  0  0  0  0
    2.2500  -14.2894    0.0000 C   0  0  0  0  0  0  0  0  0  0  0  0
    1.7010  -12.2404    0.0000 C   0  0  0  0  0  0  0  0  0  0  0  0
    4.2990  -13.7404    0.0000 C   0  0  0  0  0  0  0  0  0  0  0  0
    6.1471   -0.1471    0.0000 C   0  0  0  0  0  0  0  0  0  0  0  0
    7.4462    0.6029    0.0000 C   0  0  0  0  0  0  0  0  0  0  0  0
    6.8971   -1.4462    0.0000 C   0  0  0  0  0  0  0  0  0  0  0  0
    5.3971    1.1519    0.0000 C   0  0  0  0  0  0  0  0  0  0  0  0
    7.8481    4.2990    0.0000 H   0  0  0  0  0  0  0  0  0  0  0  0
    8.3971    2.2500    0.0000 H   0  0  0  0  0  0  0  0  0  0  0  0
    5.7990    3.7500    0.0000 H   0  0  0  0  0  0  0  0  0  0  0  0
    3.3069    0.3048    0.0000 H   0  0  0  0  0  0  0  0  0  0  0  0
    5.4341   -2.2779    0.0000 H   0  0  0  0  0  0  0  0  0  0  0  0
    4.9298   -3.7332    0.0000 H   0  0  0  0  0  0  0  0  0  0  0  0
    0.9510   -4.6471    0.0000 H   0  0  0  0  0  0  0  0  0  0  0  0
    2.1371   -1.9828    0.0000 H   0  0  0  0  0  0  0  0  0  0  0  0
    0.2010   -3.3481    0.0000 H   0  0  0  0  0  0  0  0  0  0  0  0
   -1.5000   -2.5981    0.0000 H   0  0  0  0  0  0  0  0  0  0  0  0
   -3.0000   -0.0000    0.0000 H   0  0  0  0  0  0  0  0  0  0  0  0
   -1.5000    2.5981    0.0000 H   0  0  0  0  0  0  0  0  0  0  0  0
    1.5000    2.5981    0.0000 H   0  0  0  0  0  0  0  0  0  0  0  0
    2.3791   -0.1080    0.0000 H   0  0  0  0  0  0  0  0  0  0  0  0
    4.3808   -4.6101    0.0000 H   0  0  0  0  0  0  0  0  0  0  0  0
    1.5181   -7.4350    0.0000 H   0  0  0  0  0  0  0  0  0  0  0  0
    2.5521   -7.3979    0.0000 H   0  0  0  0  0  0  0  0  0  0  0  0
    5.0490   -5.7452    0.0000 H   0  0  0  0  0  0  0  0  0  0  0  0
    6.0000   -6.2942    0.0000 H   0  0  0  0  0  0  0  0  0  0  0  0
    6.0000   -9.2942    0.0000 H   0  0  0  0  0  0  0  0  0  0  0  0
    7.5000  -10.3923    0.0000 H   0  0  0  0  0  0  0  0  0  0  0  0
   10.5000  -10.3923    0.0000 H   0  0  0  0  0  0  0  0  0  0  0  0
   10.5000   -5.1962    0.0000 H   0  0  0  0  0  0  0  0  0  0  0  0
    7.5000   -5.1962    0.0000 H   0  0  0  0  0  0  0  0  0  0  0  0
   12.0000  -10.3923    0.0000 H   0  0  0  0  0  0  0  0  0  0  0  0
   15.0000  -10.3923    0.0000 H   0  0  0  0  0  0  0  0  0  0  0  0
   16.5000   -7.7942    0.0000 H   0  0  0  0  0  0  0  0  0  0  0  0
   15.0000   -5.1962    0.0000 H   0  0  0  0  0  0  0  0  0  0  0  0
    2.2500   -9.0933    0.0000 H   0  0  0  0  0  0  0  0  0  0  0  0
    2.5521  -10.7886    0.0000 H   0  0  0  0  0  0  0  0  0  0  0  0
    6.3481  -11.6913    0.0000 H   0  0  0  0  0  0  0  0  0  0  0  0
    3.7500  -17.6913    0.0000 H   0  0  0  0  0  0  0  0  0  0  0  0
    2.2500  -16.1913    0.0000 H   0  0  0  0  0  0  0  0  0  0  0  0
    5.2500  -16.1913    0.0000 H   0  0  0  0  0  0  0  0  0  0  0  0
    1.5000  -15.5885    0.0000 H   0  0  0  0  0  0  0  0  0  0  0  0
    0.8692  -13.7034    0.0000 H   0  0  0  0  0  0  0  0  0  0  0  0
    3.1939  -15.4552    0.0000 H   0  0  0  0  0  0  0  0  0  0  0  0
    0.4019  -11.4904    0.0000 H   0  0  0  0  0  0  0  0  0  0  0  0
    0.7982  -13.4383    0.0000 H   0  0  0  0  0  0  0  0  0  0  0  0
    2.2870  -10.8596    0.0000 H   0  0  0  0  0  0  0  0  0  0  0  0
    5.2429  -14.9062    0.0000 H   0  0  0  0  0  0  0  0  0  0  0  0
    3.3963  -14.9383    0.0000 H   0  0  0  0  0  0  0  0  0  0  0  0
    5.3411  -12.6614    0.0000 H   0  0  0  0  0  0  0  0  0  0  0  0
    8.7452    1.3529    0.0000 H   0  0  0  0  0  0  0  0  0  0  0  0
    7.2116    2.0844    0.0000 H   0  0  0  0  0  0  0  0  0  0  0  0
    8.3489   -0.5950    0.0000 H   0  0  0  0  0  0  0  0  0  0  0  0
    7.6471   -2.7452    0.0000 H   0  0  0  0  0  0  0  0  0  0  0  0
    8.2779   -0.8601    0.0000 H   0  0  0  0  0  0  0  0  0  0  0  0
    5.6992   -2.3489    0.0000 H   0  0  0  0  0  0  0  0  0  0  0  0
    5.1626    2.6335    0.0000 H   0  0  0  0  0  0  0  0  0  0  0  0
    6.7779    1.7380    0.0000 H   0  0  0  0  0  0  0  0  0  0  0  0
    3.9552    0.7385    0.0000 H   0  0  0  0  0  0  0  0  0  0  0  0
  1  2  1  0
  2  3  1  0
  3  4  2  0
  3  5  1  0
  5  6  1  0
  6  7  1  0
  7  8  2  0
  7  9  1  0
  9 10  1  0
 10 11  1  0
 11 12  1  0
 12 13  2  0
 13 14  1  0
 14 15  2  0
 15 16  1  0
 16 17  2  0
 10 18  1  0
 18 19  1  0
 18 20  1  0
 20 21  1  0
 21 22  1  0
 22 23  1  0
 23 24  2  0
 24 25  1  0
 25 26  2  0
 26 27  1  0
 27 28  2  0
 26 29  1  0
 29 30  2  0
 30 31  1  0
 31 32  2  0
 32 33  1  0
 33 34  2  0
 21 35  1  0
 35 36  1  0
 36 37  2  0
 36 38  1  0
 38 39  1  0
 39 40  1  0
 40 41  2  0
 40 42  1  0
 42 43  1  0
 38 44  1  0
 44 45  1  0
 44 46  1  0
 44 47  1  0
  6 48  1  0
 48 49  1  0
 48 50  1  0
 48 51  1  0
 17 12  1  0
 28 23  1  0
 34 29  1  0
  1 52  1  0
  1 53  1  0
  1 54  1  0
  5 55  1  0
  6 56  1  6
  9 57  1  0
 10 58  1  1
 11 59  1  0
 11 60  1  0
 13 61  1  0
 14 62  1  0
 15 63  1  0
 16 64  1  0
 17 65  1  0
 18 66  1  1
 19 67  1  0
 20 68  1  0
 20 69  1  0
 22 70  1  0
 22 71  1  0
 24 72  1  0
 25 73  1  0
 27 74  1  0
 28 75  1  0
 30 76  1  0
 31 77  1  0
 32 78  1  0
 33 79  1  0
 35 80  1  0
 38 81  1  6
 39 82  1  0
 43 83  1  0
 43 84  1  0
 43 85  1  0
 45 86  1  0
 45 87  1  0
 45 88  1  0
 46 89  1  0
 46 90  1  0
 46 91  1  0
 47 92  1  0
 47 93  1  0
 47 94  1  0
 49 95  1  0
 49 96  1  0
 49 97  1  0
 50 98  1  0
 50 99  1  0
 50100  1  0
 51101  1  0
 51102  1  0
 51103  1  0
M  END
$$$$
