
     RDKit          3D

 43 43  0  0  0  0  0  0  0  0999 V2000
    0.9368   -0.2346    0.3298 C   0  0  2  0  0  0  0  0  0  0  0  0
    1.3016   -1.4879   -0.2524 O   0  0  0  0  0  0  0  0  0  0  0  0
    0.3937   -2.5343   -0.4571 C   0  0  0  0  0  0  0  0  0  0  0  0
   -0.9216   -2.3316   -0.2887 C   0  0  0  0  0  0  0  0  0  0  0  0
   -1.4662   -1.0110    0.1907 C   0  0  2  0  0  0  0  0  0  0  0  0
   -2.7552   -0.7838   -0.4689 N   0  0  0  0  0  0  0  0  0  0  0  0
   -3.7863   -0.1281   -0.0139 C   0  0  0  0  0  0  0  0  0  0  0  0
   -4.9407   -0.0044   -0.8441 N   0  0  0  0  0  0  0  0  0  0  0  0
   -3.8039    0.4615    1.2932 N   0  0  0  0  0  0  0  0  0  0  0  0
   -0.4892    0.1463   -0.1319 C   0  0  1  0  0  0  0  0  0  0  0  0
   -0.9260    1.3765    0.5369 N   0  0  0  0  0  0  0  0  0  0  0  0
   -1.5279    2.4760   -0.1612 C   0  0  0  0  0  0  0  0  0  0  0  0
   -1.9939    3.6733    0.6002 C   0  0  0  0  0  0  0  0  0  0  0  0
   -1.7014    2.4269   -1.4089 O   0  0  0  0  0  0  0  0  0  0  0  0
    0.9152   -3.8423   -0.8888 C   0  0  0  0  0  0  0  0  0  0  0  0
    0.0547   -4.9118   -1.1243 O   0  0  0  0  0  0  0  0  0  0  0  0
    2.1557   -3.9958   -1.0468 O   0  0  0  0  0  0  0  0  0  0  0  0
    1.9802    0.8429   -0.0589 C   0  0  2  0  0  0  0  0  0  0  0  0
    2.2343    0.7776   -1.4408 O   0  0  0  0  0  0  0  0  0  0  0  0
    3.2994    0.7339    0.7493 C   0  0  2  0  0  0  0  0  0  0  0  0
    4.0890    1.8628    0.4671 O   0  0  0  0  0  0  0  0  0  0  0  0
    4.1013   -0.5425    0.4392 C   0  0  0  0  0  0  0  0  0  0  0  0
    5.3260   -0.5117    1.1193 O   0  0  0  0  0  0  0  0  0  0  0  0
    0.9232   -0.3522    1.4367 H   0  0  0  0  0  0  0  0  0  0  0  0
   -1.6201   -3.1487   -0.4273 H   0  0  0  0  0  0  0  0  0  0  0  0
   -1.5946   -1.1157    1.2882 H   0  0  0  0  0  0  0  0  0  0  0  0
   -5.7837    0.5120   -0.5084 H   0  0  0  0  0  0  0  0  0  0  0  0
   -4.9552   -0.4261   -1.7995 H   0  0  0  0  0  0  0  0  0  0  0  0
   -4.6425    0.9995    1.6044 H   0  0  0  0  0  0  0  0  0  0  0  0
   -3.0193    0.3734    1.9719 H   0  0  0  0  0  0  0  0  0  0  0  0
   -0.4653    0.2908   -1.2357 H   0  0  0  0  0  0  0  0  0  0  0  0
   -0.8464    1.4327    1.5779 H   0  0  0  0  0  0  0  0  0  0  0  0
   -2.2167    4.5130   -0.0918 H   0  0  0  0  0  0  0  0  0  0  0  0
   -1.2047    3.9961    1.3110 H   0  0  0  0  0  0  0  0  0  0  0  0
   -2.9129    3.4155    1.1663 H   0  0  0  0  0  0  0  0  0  0  0  0
    0.4128   -5.8117   -1.4211 H   0  0  0  0  0  0  0  0  0  0  0  0
    1.5475    1.8410    0.1870 H   0  0  0  0  0  0  0  0  0  0  0  0
    2.5871    1.6641   -1.7150 H   0  0  0  0  0  0  0  0  0  0  0  0
    3.0363    0.7280    1.8343 H   0  0  0  0  0  0  0  0  0  0  0  0
    4.6570    2.0316    1.2639 H   0  0  0  0  0  0  0  0  0  0  0  0
    3.5334   -1.4358    0.7761 H   0  0  0  0  0  0  0  0  0  0  0  0
    4.2870   -0.6189   -0.6555 H   0  0  0  0  0  0  0  0  0  0  0  0
    5.8017   -1.3464    0.8702 H   0  0  0  0  0  0  0  0  0  0  0  0
  1  2  1  0
  2  3  1  0
  3  4  2  0
  4  5  1  0
  5  6  1  0
  6  7  2  3
  7  8  1  0
  7  9  1  0
  5 10  1  0
 10 11  1  0
 11 12  1  0
 12 13  1  0
 12 14  2  0
  3 15  1  0
 15 16  1  0
 15 17  2  0
  1 18  1  0
 18 19  1  0
 18 20  1  0
 20 21  1  0
 20 22  1  0
 22 23  1  0
 10  1  1  0
  1 24  1  1
  4 25  1  0
  5 26  1  1
  8 27  1  0
  8 28  1  0
  9 29  1  0
  9 30  1  0
 10 31  1  6
 11 32  1  0
 13 33  1  0
 13 34  1  0
 13 35  1  0
 16 36  1  0
 18 37  1  6
 19 38  1  0
 20 39  1  1
 21 40  1  0
 22 41  1  0
 22 42  1  0
 23 43  1  0
M  END
$$$$
