
     RDKit          3D

 33 33  0  0  0  0  0  0  0  0999 V2000
    4.1166    1.2343    1.8723 C   0  0  0  0  0  0  0  0  0  0  0  0
    2.8227    0.6059    1.6325 N   0  0  0  0  0  0  0  0  0  0  0  0
    2.5931   -0.2837    0.5318 C   0  0  0  0  0  0  0  0  0  0  0  0
    1.2854   -0.8664    0.3816 N   0  0  0  0  0  0  0  0  0  0  0  0
    0.4939   -0.7883   -0.8491 C   0  0  0  0  0  0  0  0  0  0  0  0
    0.4579    0.6416   -1.3949 C   0  0  0  0  0  0  0  0  0  0  0  0
   -0.7244    0.7699   -2.7858 S   0  0  0  0  0  0  0  0  0  0  0  0
   -2.1186    1.4862   -1.8423 C   0  0  0  0  0  0  0  0  0  0  0  0
   -2.7967    0.4367   -1.0147 C   0  0  0  0  0  0  0  0  0  0  0  0
   -2.8525    0.3591    0.3651 C   0  0  0  0  0  0  0  0  0  0  0  0
   -2.2226    1.2833    1.3589 C   0  0  0  0  0  0  0  0  0  0  0  0
   -3.5162   -0.7600    0.6951 N   0  0  0  0  0  0  0  0  0  0  0  0
   -3.8621   -1.3279   -0.4756 C   0  0  0  0  0  0  0  0  0  0  0  0
   -3.4371   -0.6244   -1.5469 N   0  0  0  0  0  0  0  0  0  0  0  0
    3.5756   -0.5734   -0.2735 N   0  0  0  0  0  0  0  0  0  0  0  0
    3.5049   -1.4881   -1.3351 C   0  0  0  0  0  0  0  0  0  0  0  0
    3.4529   -2.2428   -2.2111 N   0  0  0  0  0  0  0  0  0  0  0  0
    4.8878    0.4546    2.0459 H   0  0  0  0  0  0  0  0  0  0  0  0
    4.4031    1.8531    0.9959 H   0  0  0  0  0  0  0  0  0  0  0  0
    4.0585    1.8873    2.7685 H   0  0  0  0  0  0  0  0  0  0  0  0
    2.0317    0.8250    2.2791 H   0  0  0  0  0  0  0  0  0  0  0  0
    0.7688   -1.1043    1.2583 H   0  0  0  0  0  0  0  0  0  0  0  0
    0.8948   -1.4812   -1.6147 H   0  0  0  0  0  0  0  0  0  0  0  0
   -0.5399   -1.1245   -0.6263 H   0  0  0  0  0  0  0  0  0  0  0  0
    0.2133    1.3592   -0.5853 H   0  0  0  0  0  0  0  0  0  0  0  0
    1.4637    0.9073   -1.7826 H   0  0  0  0  0  0  0  0  0  0  0  0
   -1.7735    2.3400   -1.2242 H   0  0  0  0  0  0  0  0  0  0  0  0
   -2.8553    1.8858   -2.5698 H   0  0  0  0  0  0  0  0  0  0  0  0
   -1.1316    1.0903    1.4092 H   0  0  0  0  0  0  0  0  0  0  0  0
   -2.6611    1.1157    2.3648 H   0  0  0  0  0  0  0  0  0  0  0  0
   -2.4032    2.3393    1.0707 H   0  0  0  0  0  0  0  0  0  0  0  0
   -3.7157   -1.1229    1.6537 H   0  0  0  0  0  0  0  0  0  0  0  0
   -4.4141   -2.2552   -0.5514 H   0  0  0  0  0  0  0  0  0  0  0  0
  1  2  1  0
  2  3  1  0
  3  4  1  0
  4  5  1  0
  5  6  1  0
  6  7  1  0
  7  8  1  0
  8  9  1  0
  9 10  2  0
 10 11  1  0
 10 12  1  0
 12 13  1  0
 13 14  2  0
  3 15  2  0
 15 16  1  0
 16 17  3  0
 14  9  1  0
  1 18  1  0
  1 19  1  0
  1 20  1  0
  2 21  1  0
  4 22  1  0
  5 23  1  0
  5 24  1  0
  6 25  1  0
  6 26  1  0
  8 27  1  0
  8 28  1  0
 11 29  1  0
 11 30  1  0
 11 31  1  0
 12 32  1  0
 13 33  1  0
M  END
$$$$
