
     RDKit          3D

 93 95  0  0  0  0  0  0  0  0999 V2000
    5.4551   -1.2621    3.2046 C   0  0  0  0  0  0  0  0  0  0  0  0
    5.9772   -1.0963    1.8031 C   0  0  0  0  0  0  0  0  0  0  0  0
    5.5776   -0.0454    1.0771 C   0  0  0  0  0  0  0  0  0  0  0  0
    6.9878   -2.0541    1.2876 C   0  0  0  0  0  0  0  0  0  0  0  0
    7.5177   -2.8833    2.0743 O   0  0  0  0  0  0  0  0  0  0  0  0
    7.5045   -2.0728   -0.4378 S   0  0  0  0  0  0  0  0  0  0  0  0
    6.3501   -3.3962   -0.9437 C   0  0  0  0  0  0  0  0  0  0  0  0
    4.9435   -2.8405   -1.1571 C   0  0  0  0  0  0  0  0  0  0  0  0
    4.0379   -3.8952   -1.6023 N   0  0  0  0  0  0  0  0  0  0  0  0
    3.9304   -4.2897   -2.9773 C   0  0  0  0  0  0  0  0  0  0  0  0
    4.8251   -3.9692   -3.8057 O   0  0  0  0  0  0  0  0  0  0  0  0
    2.7022   -5.0105   -3.4534 C   0  0  0  0  0  0  0  0  0  0  0  0
    1.6776   -4.0339   -4.0498 C   0  0  0  0  0  0  0  0  0  0  0  0
    1.4504   -2.8887   -3.1674 N   0  0  0  0  0  0  0  0  0  0  0  0
    0.8669   -3.0183   -1.8635 C   0  0  0  0  0  0  0  0  0  0  0  0
    0.2233   -4.0598   -1.5600 O   0  0  0  0  0  0  0  0  0  0  0  0
    1.0441   -1.9172   -0.8464 C   0  0  2  0  0  0  0  0  0  0  0  0
    1.2490   -2.5030    0.4173 O   0  0  0  0  0  0  0  0  0  0  0  0
   -0.1582   -0.9136   -0.8019 C   0  0  0  0  0  0  0  0  0  0  0  0
   -0.3855   -0.2752   -2.1925 C   0  0  0  0  0  0  0  0  0  0  0  0
   -1.4570   -1.6309   -0.3706 C   0  0  0  0  0  0  0  0  0  0  0  0
    0.1431    0.2165    0.2184 C   0  0  0  0  0  0  0  0  0  0  0  0
    1.3283    0.8898   -0.1447 O   0  0  0  0  0  0  0  0  0  0  0  0
    1.6978    2.0478    1.0528 P   0  0  0  0  0  5  0  0  0  0  0  0
    1.7803    1.3021    2.5707 O   0  0  0  0  0  0  0  0  0  0  0  0
    3.0502    2.6533    0.7499 O   0  0  0  0  0  0  0  0  0  0  0  0
    0.5286    3.2864    1.1078 O   0  0  0  0  0  0  0  0  0  0  0  0
    0.2860    3.8939   -0.4720 P   0  0  0  0  0  5  0  0  0  0  0  0
    0.0946    5.5738   -0.3712 O   0  0  0  0  0  0  0  0  0  0  0  0
    1.4536    3.6080   -1.3935 O   0  0  0  0  0  0  0  0  0  0  0  0
   -1.1198    3.1900   -1.1323 O   0  0  0  0  0  0  0  0  0  0  0  0
   -2.2395    3.7247   -0.4651 C   0  0  0  0  0  0  0  0  0  0  0  0
   -3.4939    2.9521   -0.8859 C   0  0  1  0  0  0  0  0  0  0  0  0
   -3.3514    1.5979   -0.5043 O   0  0  0  0  0  0  0  0  0  0  0  0
   -4.4783    1.2436    0.2608 C   0  0  2  0  0  0  0  0  0  0  0  0
   -5.0943    2.5217    0.8160 C   0  0  2  0  0  0  0  0  0  0  0  0
   -6.4732    2.4101    1.0841 O   0  0  0  0  0  0  0  0  0  0  0  0
   -4.7666    3.5432   -0.2490 C   0  0  2  0  0  0  0  0  0  0  0  0
   -5.8065    3.5984   -1.2091 O   0  0  0  0  0  0  0  0  0  0  0  0
   -5.8538    5.1518   -1.9190 P   0  0  0  0  0  5  0  0  0  0  0  0
   -6.2301    6.3132   -0.7463 O   0  0  0  0  0  0  0  0  0  0  0  0
   -7.0449    5.1715   -3.1198 O   0  0  0  0  0  0  0  0  0  0  0  0
   -4.5189    5.4853   -2.5464 O   0  0  0  0  0  0  0  0  0  0  0  0
   -4.0839    0.3302    1.3354 N   0  0  0  0  0  0  0  0  0  0  0  0
   -4.5743   -0.9125    1.5800 C   0  0  0  0  0  0  0  0  0  0  0  0
   -3.9432   -1.5511    2.6042 N   0  0  0  0  0  0  0  0  0  0  0  0
   -3.0269   -0.6468    2.9984 C   0  0  0  0  0  0  0  0  0  0  0  0
   -3.1105    0.4728    2.2453 C   0  0  0  0  0  0  0  0  0  0  0  0
   -2.2941    1.5385    2.4278 N   0  0  0  0  0  0  0  0  0  0  0  0
   -1.3563    1.4654    3.4191 C   0  0  0  0  0  0  0  0  0  0  0  0
   -1.2463    0.3368    4.1912 N   0  0  0  0  0  0  0  0  0  0  0  0
   -2.0689   -0.7380    4.0016 C   0  0  0  0  0  0  0  0  0  0  0  0
   -1.9353   -1.9067    4.8103 N   0  0  0  0  0  0  0  0  0  0  0  0
    6.1672   -0.8022    3.9212 H   0  0  0  0  0  0  0  0  0  0  0  0
    5.3399   -2.3393    3.4483 H   0  0  0  0  0  0  0  0  0  0  0  0
    4.4596   -0.7837    3.3267 H   0  0  0  0  0  0  0  0  0  0  0  0
    4.8666    0.6660    1.4770 H   0  0  0  0  0  0  0  0  0  0  0  0
    5.9496    0.1354    0.0781 H   0  0  0  0  0  0  0  0  0  0  0  0
    6.3319   -4.2064   -0.1831 H   0  0  0  0  0  0  0  0  0  0  0  0
    6.7253   -3.8282   -1.8948 H   0  0  0  0  0  0  0  0  0  0  0  0
    4.9591   -2.0141   -1.9007 H   0  0  0  0  0  0  0  0  0  0  0  0
    4.5611   -2.4294   -0.2001 H   0  0  0  0  0  0  0  0  0  0  0  0
    3.3313   -4.2515   -0.9198 H   0  0  0  0  0  0  0  0  0  0  0  0
    2.2421   -5.5679   -2.6099 H   0  0  0  0  0  0  0  0  0  0  0  0
    2.9873   -5.7574   -4.2254 H   0  0  0  0  0  0  0  0  0  0  0  0
    2.0570   -3.6683   -5.0291 H   0  0  0  0  0  0  0  0  0  0  0  0
    0.7172   -4.5608   -4.2358 H   0  0  0  0  0  0  0  0  0  0  0  0
    1.8060   -1.9548   -3.4729 H   0  0  0  0  0  0  0  0  0  0  0  0
    1.9638   -1.3580   -1.1450 H   0  0  0  0  0  0  0  0  0  0  0  0
    1.9315   -1.9594    0.8916 H   0  0  0  0  0  0  0  0  0  0  0  0
   -1.1819    0.4984   -2.1443 H   0  0  0  0  0  0  0  0  0  0  0  0
    0.5444    0.2063   -2.5636 H   0  0  0  0  0  0  0  0  0  0  0  0
   -0.7039   -1.0376   -2.9348 H   0  0  0  0  0  0  0  0  0  0  0  0
   -1.3448   -2.0891    0.6353 H   0  0  0  0  0  0  0  0  0  0  0  0
   -2.2997   -0.9121   -0.3321 H   0  0  0  0  0  0  0  0  0  0  0  0
   -1.7381   -2.4251   -1.0928 H   0  0  0  0  0  0  0  0  0  0  0  0
    0.2321   -0.2321    1.2337 H   0  0  0  0  0  0  0  0  0  0  0  0
   -0.7093    0.9303    0.2352 H   0  0  0  0  0  0  0  0  0  0  0  0
    2.3984    0.5387    2.4444 H   0  0  0  0  0  0  0  0  0  0  0  0
   -0.0503    5.8695   -1.3054 H   0  0  0  0  0  0  0  0  0  0  0  0
   -2.3713    4.7929   -0.7483 H   0  0  0  0  0  0  0  0  0  0  0  0
   -2.1337    3.6444    0.6415 H   0  0  0  0  0  0  0  0  0  0  0  0
   -3.5681    2.9952   -1.9952 H   0  0  0  0  0  0  0  0  0  0  0  0
   -5.1971    0.7289   -0.4164 H   0  0  0  0  0  0  0  0  0  0  0  0
   -4.5785    2.8151    1.7568 H   0  0  0  0  0  0  0  0  0  0  0  0
   -6.9196    1.9993    0.2988 H   0  0  0  0  0  0  0  0  0  0  0  0
   -4.5871    4.5225    0.2585 H   0  0  0  0  0  0  0  0  0  0  0  0
   -7.0518    5.9732   -0.3104 H   0  0  0  0  0  0  0  0  0  0  0  0
   -7.8749    4.8956   -2.6552 H   0  0  0  0  0  0  0  0  0  0  0  0
   -5.3745   -1.3633    1.0074 H   0  0  0  0  0  0  0  0  0  0  0  0
   -0.6941    2.3018    3.5932 H   0  0  0  0  0  0  0  0  0  0  0  0
   -2.5587   -2.7325    4.6692 H   0  0  0  0  0  0  0  0  0  0  0  0
   -1.2050   -1.9481    5.5552 H   0  0  0  0  0  0  0  0  0  0  0  0
  1  2  1  0
  2  3  2  3
  2  4  1  0
  4  5  2  0
  4  6  1  0
  6  7  1  0
  7  8  1  0
  8  9  1  0
  9 10  1  0
 10 11  2  0
 10 12  1  0
 12 13  1  0
 13 14  1  0
 14 15  1  0
 15 16  2  0
 15 17  1  0
 17 18  1  0
 17 19  1  0
 19 20  1  0
 19 21  1  0
 19 22  1  0
 22 23  1  0
 23 24  1  0
 24 25  1  0
 24 26  2  0
 24 27  1  0
 27 28  1  0
 28 29  1  0
 28 30  2  0
 28 31  1  0
 31 32  1  0
 32 33  1  0
 33 34  1  0
 34 35  1  0
 35 36  1  0
 36 37  1  0
 36 38  1  0
 38 39  1  0
 39 40  1  0
 40 41  1  0
 40 42  1  0
 40 43  2  0
 35 44  1  0
 44 45  1  0
 45 46  2  0
 46 47  1  0
 47 48  2  0
 48 49  1  0
 49 50  2  0
 50 51  1  0
 51 52  2  0
 52 53  1  0
 38 33  1  0
 48 44  1  0
 52 47  1  0
  1 54  1  0
  1 55  1  0
  1 56  1  0
  3 57  1  0
  3 58  1  0
  7 59  1  0
  7 60  1  0
  8 61  1  0
  8 62  1  0
  9 63  1  0
 12 64  1  0
 12 65  1  0
 13 66  1  0
 13 67  1  0
 14 68  1  0
 17 69  1  6
 18 70  1  0
 20 71  1  0
 20 72  1  0
 20 73  1  0
 21 74  1  0
 21 75  1  0
 21 76  1  0
 22 77  1  0
 22 78  1  0
 25 79  1  0
 29 80  1  0
 32 81  1  0
 32 82  1  0
 33 83  1  6
 35 84  1  6
 36 85  1  1
 37 86  1  0
 38 87  1  1
 41 88  1  0
 42 89  1  0
 45 90  1  0
 50 91  1  0
 53 92  1  0
 53 93  1  0
M  END
$$$$
