
     RDKit          3D

 49 53  0  0  0  0  0  0  0  0999 V2000
    4.3369    2.7108    0.7876 C   0  0  0  0  0  0  0  0  0  0  0  0
    4.0130    1.3837    1.4672 C   0  0  0  0  0  0  0  0  0  0  0  0
    3.1054    0.5382    0.5985 C   0  0  0  0  0  0  0  0  0  0  0  0
    3.5845   -0.2723   -0.4760 C   0  0  0  0  0  0  0  0  0  0  0  0
    4.9535   -0.3628   -0.8073 C   0  0  0  0  0  0  0  0  0  0  0  0
    5.3802   -1.1754   -1.8673 C   0  0  0  0  0  0  0  0  0  0  0  0
    6.7324   -1.2640   -2.1918 O   0  0  0  0  0  0  0  0  0  0  0  0
    4.4493   -1.9043   -2.6101 C   0  0  0  0  0  0  0  0  0  0  0  0
    3.0899   -1.8259   -2.3086 C   0  0  0  0  0  0  0  0  0  0  0  0
    2.6453   -1.0193   -1.2564 C   0  0  0  0  0  0  0  0  0  0  0  0
    1.3099   -0.9474   -0.9928 N   0  0  0  0  0  0  0  0  0  0  0  0
    0.8729   -0.1642    0.0185 C   0  0  0  0  0  0  0  0  0  0  0  0
    1.7186    0.5732    0.8070 C   0  0  0  0  0  0  0  0  0  0  0  0
    0.9057    1.3451    1.8136 C   0  0  0  0  0  0  0  0  0  0  0  0
   -0.4692    0.9499    1.4829 N   0  0  0  0  0  0  0  0  0  0  0  0
   -0.4784    0.0814    0.4529 C   0  0  0  0  0  0  0  0  0  0  0  0
   -1.6635   -0.4316   -0.0649 C   0  0  0  0  0  0  0  0  0  0  0  0
   -2.8903   -0.0413    0.5273 C   0  0  0  0  0  0  0  0  0  0  0  0
   -2.8503    0.8702    1.6252 C   0  0  0  0  0  0  0  0  0  0  0  0
   -4.1497    1.3093    2.2551 C   0  0  0  0  0  0  0  0  0  0  0  0
   -5.0635    0.2179    2.2822 O   0  0  0  0  0  0  0  0  0  0  0  0
   -5.1587   -0.6762    1.2137 C   0  0  0  0  0  0  0  0  0  0  0  0
   -5.9627   -1.6405    1.3029 O   0  0  0  0  0  0  0  0  0  0  0  0
   -4.2683   -0.4717   -0.0139 C   0  0  1  0  0  0  0  0  0  0  0  0
   -4.7532    0.6056   -0.7823 O   0  0  0  0  0  0  0  0  0  0  0  0
   -4.2023   -1.7521   -0.9113 C   0  0  0  0  0  0  0  0  0  0  0  0
   -5.5072   -2.1121   -1.6380 C   0  0  0  0  0  0  0  0  0  0  0  0
   -1.6124    1.3695    2.0843 C   0  0  0  0  0  0  0  0  0  0  0  0
   -1.5591    2.1944    3.0371 O   0  0  0  0  0  0  0  0  0  0  0  0
    4.9996    3.3127    1.4444 H   0  0  0  0  0  0  0  0  0  0  0  0
    4.8559    2.5403   -0.1789 H   0  0  0  0  0  0  0  0  0  0  0  0
    3.4037    3.2844    0.6026 H   0  0  0  0  0  0  0  0  0  0  0  0
    4.9481    0.8393    1.7118 H   0  0  0  0  0  0  0  0  0  0  0  0
    3.5309    1.5959    2.4449 H   0  0  0  0  0  0  0  0  0  0  0  0
    5.7031    0.1929   -0.2634 H   0  0  0  0  0  0  0  0  0  0  0  0
    7.4369   -0.7497   -1.6760 H   0  0  0  0  0  0  0  0  0  0  0  0
    4.7814   -2.5311   -3.4280 H   0  0  0  0  0  0  0  0  0  0  0  0
    2.3797   -2.3923   -2.8985 H   0  0  0  0  0  0  0  0  0  0  0  0
    1.1586    1.0315    2.8488 H   0  0  0  0  0  0  0  0  0  0  0  0
    1.0409    2.4387    1.6728 H   0  0  0  0  0  0  0  0  0  0  0  0
   -1.5968   -1.1084   -0.9003 H   0  0  0  0  0  0  0  0  0  0  0  0
   -4.5823    2.1374    1.6547 H   0  0  0  0  0  0  0  0  0  0  0  0
   -4.0005    1.6679    3.2951 H   0  0  0  0  0  0  0  0  0  0  0  0
   -5.7392    0.5194   -0.8639 H   0  0  0  0  0  0  0  0  0  0  0  0
   -3.4740   -1.5969   -1.7313 H   0  0  0  0  0  0  0  0  0  0  0  0
   -3.8648   -2.6210   -0.3050 H   0  0  0  0  0  0  0  0  0  0  0  0
   -5.7993   -1.3049   -2.3418 H   0  0  0  0  0  0  0  0  0  0  0  0
   -5.3454   -3.0347   -2.2348 H   0  0  0  0  0  0  0  0  0  0  0  0
   -6.3449   -2.3096   -0.9441 H   0  0  0  0  0  0  0  0  0  0  0  0
  1  2  1  0
  2  3  1  0
  3  4  2  0
  4  5  1  0
  5  6  2  0
  6  7  1  0
  6  8  1  0
  8  9  2  0
  9 10  1  0
 10 11  2  0
 11 12  1  0
 12 13  2  0
 13 14  1  0
 14 15  1  0
 15 16  1  0
 16 17  2  0
 17 18  1  0
 18 19  2  0
 19 20  1  0
 20 21  1  0
 21 22  1  0
 22 23  2  0
 22 24  1  0
 24 25  1  6
 24 26  1  0
 26 27  1  0
 19 28  1  0
 28 29  2  0
 13  3  1  0
 28 15  1  0
 10  4  1  0
 16 12  1  0
 24 18  1  0
  1 30  1  0
  1 31  1  0
  1 32  1  0
  2 33  1  0
  2 34  1  0
  5 35  1  0
  7 36  1  0
  8 37  1  0
  9 38  1  0
 14 39  1  0
 14 40  1  0
 17 41  1  0
 20 42  1  0
 20 43  1  0
 25 44  1  0
 26 45  1  0
 26 46  1  0
 27 47  1  0
 27 48  1  0
 27 49  1  0
M  END
$$$$
