
     RDKit          3D

135137  0  0  0  0  0  0  0  0999 V2000
    3.0280   -2.5787   -0.5383 C   0  0  2  0  0  0  0  0  0  0  0  0
    3.3057   -2.0435    0.8013 N   0  0  0  0  0  0  0  0  0  0  0  0
    4.5142   -1.3584    1.1823 C   0  0  0  0  0  0  0  0  0  0  0  0
    4.6488   -1.0141    2.3869 O   0  0  0  0  0  0  0  0  0  0  0  0
    5.5952   -1.0071    0.1696 C   0  0  1  0  0  0  0  0  0  0  0  0
    5.2096    0.0975   -0.7256 N   0  0  0  0  0  0  0  0  0  0  0  0
    4.0718    0.9680   -0.5919 C   0  0  0  0  0  0  0  0  0  0  0  0
    3.4133    1.2541   -1.6273 O   0  0  0  0  0  0  0  0  0  0  0  0
    3.7247    1.6445    0.7175 C   0  0  1  0  0  0  0  0  0  0  0  0
    3.7083    3.1828    0.5917 C   0  0  0  0  0  0  0  0  0  0  0  0
    5.1014    3.7326    0.4174 C   0  0  0  0  0  0  0  0  0  0  0  0
    5.6482    3.8911   -0.8652 C   0  0  0  0  0  0  0  0  0  0  0  0
    6.9631    4.3385   -1.0226 C   0  0  0  0  0  0  0  0  0  0  0  0
    7.7535    4.6303    0.1055 C   0  0  0  0  0  0  0  0  0  0  0  0
    9.0793    5.0758    0.0008 O   0  0  0  0  0  0  0  0  0  0  0  0
    9.7672    5.2732   -1.2316 C   0  0  0  0  0  0  0  0  0  0  0  0
   11.1819    5.7540   -0.9516 C   0  0  0  0  0  0  0  0  0  0  0  0
    7.2054    4.4696    1.3831 C   0  0  0  0  0  0  0  0  0  0  0  0
    5.8915    4.0208    1.5410 C   0  0  0  0  0  0  0  0  0  0  0  0
    2.4520    1.1471    1.2553 N   0  0  0  0  0  0  0  0  0  0  0  0
    1.1567    1.4236    0.6987 C   0  0  0  0  0  0  0  0  0  0  0  0
    1.0398    1.8985   -0.4623 O   0  0  0  0  0  0  0  0  0  0  0  0
   -0.0749    1.1387    1.5023 C   0  0  0  0  0  0  0  0  0  0  0  0
   -0.3934   -0.3561    1.5048 C   0  0  0  0  0  0  0  0  0  0  0  0
   -1.8614   -0.6956    2.5340 S   0  0  0  0  0  0  0  0  0  0  0  0
   -3.2420   -0.0067    1.0561 S   0  0  0  0  0  0  0  0  0  0  0  0
   -3.5601   -1.6606    0.3418 C   0  0  0  0  0  0  0  0  0  0  0  0
   -3.6348   -1.6158   -1.1922 C   0  0  2  0  0  0  0  0  0  0  0  0
   -2.3202   -1.2737   -1.7514 N   0  0  0  0  0  0  0  0  0  0  0  0
   -1.3362   -2.2756   -2.0485 C   0  0  0  0  0  0  0  0  0  0  0  0
   -1.5520   -3.4809   -1.7430 O   0  0  0  0  0  0  0  0  0  0  0  0
   -0.0354   -1.8839   -2.7105 C   0  0  2  0  0  0  0  0  0  0  0  0
    0.4774   -2.9552   -3.6940 C   0  0  0  0  0  0  0  0  0  0  0  0
   -0.4493   -3.1200   -4.8645 C   0  0  0  0  0  0  0  0  0  0  0  0
   -1.3737   -4.2070   -4.9129 N   0  0  0  0  0  0  0  0  0  0  0  0
   -0.4302   -2.2758   -5.7996 O   0  0  0  0  0  0  0  0  0  0  0  0
    0.9968   -1.5771   -1.7140 N   0  0  0  0  0  0  0  0  0  0  0  0
    1.5410   -2.5511   -0.8106 C   0  0  0  0  0  0  0  0  0  0  0  0
    0.7756   -3.3645   -0.2283 O   0  0  0  0  0  0  0  0  0  0  0  0
   -4.7036   -0.6534   -1.6701 C   0  0  0  0  0  0  0  0  0  0  0  0
   -4.3894    0.5395   -1.9365 O   0  0  0  0  0  0  0  0  0  0  0  0
   -6.0864   -1.0508   -1.7565 N   0  0  0  0  0  0  0  0  0  0  0  0
   -6.5597   -2.4211   -1.6280 C   0  0  0  0  0  0  0  0  0  0  0  0
   -8.0792   -2.3435   -1.6937 C   0  0  0  0  0  0  0  0  0  0  0  0
   -8.4021   -0.9768   -2.2901 C   0  0  0  0  0  0  0  0  0  0  0  0
   -7.1610   -0.1137   -2.0547 C   0  0  1  0  0  0  0  0  0  0  0  0
   -7.3711    0.8445   -0.9099 C   0  0  0  0  0  0  0  0  0  0  0  0
   -7.5976    2.0588   -1.1622 O   0  0  0  0  0  0  0  0  0  0  0  0
   -7.3693    0.3775    0.4484 N   0  0  0  0  0  0  0  0  0  0  0  0
   -7.7596    1.2330    1.5715 C   0  0  1  0  0  0  0  0  0  0  0  0
   -8.4111    0.3945    2.6894 C   0  0  0  0  0  0  0  0  0  0  0  0
   -9.7223   -0.2564    2.2171 C   0  0  0  0  0  0  0  0  0  0  0  0
  -10.4603   -0.9884    3.3513 C   0  0  0  0  0  0  0  0  0  0  0  0
   -9.7542   -2.1904    3.7947 N   0  0  0  0  0  0  0  0  0  0  0  0
   -6.5492    1.9715    2.0793 C   0  0  0  0  0  0  0  0  0  0  0  0
   -5.7259    1.3862    2.8354 O   0  0  0  0  0  0  0  0  0  0  0  0
   -6.3045    3.3214    1.6581 N   0  0  0  0  0  0  0  0  0  0  0  0
   -5.1462    4.0879    2.1109 C   0  0  0  0  0  0  0  0  0  0  0  0
   -3.8847    3.5423    1.5135 C   0  0  0  0  0  0  0  0  0  0  0  0
   -3.7667    3.3696    0.1010 N   0  0  0  0  0  0  0  0  0  0  0  0
   -2.9124    3.2555    2.2613 O   0  0  0  0  0  0  0  0  0  0  0  0
    7.0287   -0.7745    0.7473 C   0  0  1  0  0  0  0  0  0  0  0  0
    7.1826    0.5770    1.4626 C   0  0  0  0  0  0  0  0  0  0  0  0
    7.5416   -1.9186    1.6589 C   0  0  0  0  0  0  0  0  0  0  0  0
    7.5519   -3.2845    0.9722 C   0  0  0  0  0  0  0  0  0  0  0  0
    3.6406   -3.9976   -0.7280 C   0  0  1  0  0  0  0  0  0  0  0  0
    3.3790   -4.9483    0.4468 C   0  0  0  0  0  0  0  0  0  0  0  0
    3.1606   -4.5879   -1.9091 O   0  0  0  0  0  0  0  0  0  0  0  0
    3.4966   -1.9187   -1.2982 H   0  0  0  0  0  0  0  0  0  0  0  0
    2.6156   -2.2439    1.5611 H   0  0  0  0  0  0  0  0  0  0  0  0
    5.7011   -1.8947   -0.4819 H   0  0  0  0  0  0  0  0  0  0  0  0
    5.7133    0.1386   -1.6407 H   0  0  0  0  0  0  0  0  0  0  0  0
    4.5109    1.3989    1.4576 H   0  0  0  0  0  0  0  0  0  0  0  0
    3.0671    3.5052   -0.2567 H   0  0  0  0  0  0  0  0  0  0  0  0
    3.2589    3.6188    1.5113 H   0  0  0  0  0  0  0  0  0  0  0  0
    5.0592    3.6594   -1.7438 H   0  0  0  0  0  0  0  0  0  0  0  0
    7.3564    4.4484   -2.0238 H   0  0  0  0  0  0  0  0  0  0  0  0
    9.2373    6.0373   -1.8406 H   0  0  0  0  0  0  0  0  0  0  0  0
    9.8134    4.3159   -1.7947 H   0  0  0  0  0  0  0  0  0  0  0  0
   11.7271    4.9976   -0.3481 H   0  0  0  0  0  0  0  0  0  0  0  0
   11.1530    6.7140   -0.3940 H   0  0  0  0  0  0  0  0  0  0  0  0
   11.7219    5.9090   -1.9095 H   0  0  0  0  0  0  0  0  0  0  0  0
    7.8047    4.6849    2.2586 H   0  0  0  0  0  0  0  0  0  0  0  0
    5.4942    3.8846    2.5393 H   0  0  0  0  0  0  0  0  0  0  0  0
    2.4833    0.6535    2.1759 H   0  0  0  0  0  0  0  0  0  0  0  0
    0.0833    1.4886    2.5452 H   0  0  0  0  0  0  0  0  0  0  0  0
   -0.9282    1.7078    1.0771 H   0  0  0  0  0  0  0  0  0  0  0  0
   -0.5623   -0.7182    0.4697 H   0  0  0  0  0  0  0  0  0  0  0  0
    0.4617   -0.9196    1.9336 H   0  0  0  0  0  0  0  0  0  0  0  0
   -4.5181   -2.0350    0.7582 H   0  0  0  0  0  0  0  0  0  0  0  0
   -2.7680   -2.3821    0.6338 H   0  0  0  0  0  0  0  0  0  0  0  0
   -3.9112   -2.6307   -1.5480 H   0  0  0  0  0  0  0  0  0  0  0  0
   -2.0344   -0.2706   -1.8225 H   0  0  0  0  0  0  0  0  0  0  0  0
   -0.2206   -0.9578   -3.3003 H   0  0  0  0  0  0  0  0  0  0  0  0
    0.6126   -3.9289   -3.1752 H   0  0  0  0  0  0  0  0  0  0  0  0
    1.4755   -2.6487   -4.0765 H   0  0  0  0  0  0  0  0  0  0  0  0
   -1.4058   -4.9169   -4.1482 H   0  0  0  0  0  0  0  0  0  0  0  0
   -2.0286   -4.3050   -5.7201 H   0  0  0  0  0  0  0  0  0  0  0  0
    1.5030   -0.6691   -1.8139 H   0  0  0  0  0  0  0  0  0  0  0  0
   -6.1677   -3.0314   -2.4702 H   0  0  0  0  0  0  0  0  0  0  0  0
   -6.2417   -2.8603   -0.6592 H   0  0  0  0  0  0  0  0  0  0  0  0
   -8.5012   -2.4070   -0.6664 H   0  0  0  0  0  0  0  0  0  0  0  0
   -8.5011   -3.1653   -2.3120 H   0  0  0  0  0  0  0  0  0  0  0  0
   -9.3239   -0.5478   -1.8375 H   0  0  0  0  0  0  0  0  0  0  0  0
   -8.5685   -1.0893   -3.3843 H   0  0  0  0  0  0  0  0  0  0  0  0
   -6.9186    0.4512   -2.9829 H   0  0  0  0  0  0  0  0  0  0  0  0
   -7.0316   -0.5908    0.6497 H   0  0  0  0  0  0  0  0  0  0  0  0
   -8.5151    1.9761    1.2316 H   0  0  0  0  0  0  0  0  0  0  0  0
   -8.6275    1.0559    3.5576 H   0  0  0  0  0  0  0  0  0  0  0  0
   -7.6998   -0.3927    3.0203 H   0  0  0  0  0  0  0  0  0  0  0  0
  -10.3971    0.5357    1.8252 H   0  0  0  0  0  0  0  0  0  0  0  0
   -9.5207   -0.9661    1.3856 H   0  0  0  0  0  0  0  0  0  0  0  0
  -10.6123   -0.3043    4.2146 H   0  0  0  0  0  0  0  0  0  0  0  0
  -11.4658   -1.2869    2.9844 H   0  0  0  0  0  0  0  0  0  0  0  0
   -8.8798   -1.9124    4.2948 H   0  0  0  0  0  0  0  0  0  0  0  0
   -9.4866   -2.7643    2.9622 H   0  0  0  0  0  0  0  0  0  0  0  0
   -6.9892    3.7898    1.0229 H   0  0  0  0  0  0  0  0  0  0  0  0
   -5.2567    5.1469    1.7939 H   0  0  0  0  0  0  0  0  0  0  0  0
   -5.0960    4.0672    3.2214 H   0  0  0  0  0  0  0  0  0  0  0  0
   -2.8858    2.9904   -0.3119 H   0  0  0  0  0  0  0  0  0  0  0  0
   -4.5601    3.6105   -0.5336 H   0  0  0  0  0  0  0  0  0  0  0  0
    7.7180   -0.7319   -0.1267 H   0  0  0  0  0  0  0  0  0  0  0  0
    6.5668    0.6238    2.3831 H   0  0  0  0  0  0  0  0  0  0  0  0
    8.2436    0.7350    1.7515 H   0  0  0  0  0  0  0  0  0  0  0  0
    6.9028    1.4078    0.7841 H   0  0  0  0  0  0  0  0  0  0  0  0
    8.5871   -1.6891    1.9615 H   0  0  0  0  0  0  0  0  0  0  0  0
    6.9444   -1.9853    2.5917 H   0  0  0  0  0  0  0  0  0  0  0  0
    6.5177   -3.6670    0.8535 H   0  0  0  0  0  0  0  0  0  0  0  0
    8.1123   -4.0094    1.5995 H   0  0  0  0  0  0  0  0  0  0  0  0
    8.0450   -3.2203   -0.0209 H   0  0  0  0  0  0  0  0  0  0  0  0
    4.7450   -3.9012   -0.8086 H   0  0  0  0  0  0  0  0  0  0  0  0
    3.8715   -5.9238    0.2478 H   0  0  0  0  0  0  0  0  0  0  0  0
    2.2960   -5.1351    0.5871 H   0  0  0  0  0  0  0  0  0  0  0  0
    3.8070   -4.5402    1.3864 H   0  0  0  0  0  0  0  0  0  0  0  0
    3.5613   -4.0841   -2.6653 H   0  0  0  0  0  0  0  0  0  0  0  0
  1  2  1  0
  2  3  1  0
  3  4  2  0
  3  5  1  0
  5  6  1  0
  6  7  1  0
  7  8  2  0
  7  9  1  0
  9 10  1  0
 10 11  1  0
 11 12  2  0
 12 13  1  0
 13 14  2  0
 14 15  1  0
 15 16  1  0
 16 17  1  0
 14 18  1  0
 18 19  2  0
  9 20  1  0
 20 21  1  0
 21 22  2  0
 21 23  1  0
 23 24  1  0
 24 25  1  0
 25 26  1  0
 26 27  1  0
 27 28  1  0
 28 29  1  0
 29 30  1  0
 30 31  2  0
 30 32  1  0
 32 33  1  0
 33 34  1  0
 34 35  1  0
 34 36  2  0
 32 37  1  0
 37 38  1  0
 38 39  2  0
 28 40  1  0
 40 41  2  0
 40 42  1  0
 42 43  1  0
 43 44  1  0
 44 45  1  0
 45 46  1  0
 46 47  1  0
 47 48  2  0
 47 49  1  0
 49 50  1  0
 50 51  1  0
 51 52  1  0
 52 53  1  0
 53 54  1  0
 50 55  1  0
 55 56  2  0
 55 57  1  0
 57 58  1  0
 58 59  1  0
 59 60  1  0
 59 61  2  0
  5 62  1  0
 62 63  1  0
 62 64  1  0
 64 65  1  0
  1 66  1  0
 66 67  1  0
 66 68  1  0
 38  1  1  0
 46 42  1  0
 19 11  1  0
  1 69  1  6
  2 70  1  0
  5 71  1  6
  6 72  1  0
  9 73  1  1
 10 74  1  0
 10 75  1  0
 12 76  1  0
 13 77  1  0
 16 78  1  0
 16 79  1  0
 17 80  1  0
 17 81  1  0
 17 82  1  0
 18 83  1  0
 19 84  1  0
 20 85  1  0
 23 86  1  0
 23 87  1  0
 24 88  1  0
 24 89  1  0
 27 90  1  0
 27 91  1  0
 28 92  1  6
 29 93  1  0
 32 94  1  6
 33 95  1  0
 33 96  1  0
 35 97  1  0
 35 98  1  0
 37 99  1  0
 43100  1  0
 43101  1  0
 44102  1  0
 44103  1  0
 45104  1  0
 45105  1  0
 46106  1  6
 49107  1  0
 50108  1  6
 51109  1  0
 51110  1  0
 52111  1  0
 52112  1  0
 53113  1  0
 53114  1  0
 54115  1  0
 54116  1  0
 57117  1  0
 58118  1  0
 58119  1  0
 60120  1  0
 60121  1  0
 62122  1  6
 63123  1  0
 63124  1  0
 63125  1  0
 64126  1  0
 64127  1  0
 65128  1  0
 65129  1  0
 65130  1  0
 66131  1  6
 67132  1  0
 67133  1  0
 67134  1  0
 68135  1  0
M  END
$$$$
