
     RDKit          3D

 58 61  0  0  0  0  0  0  0  0999 V2000
   -4.1287    0.0426    0.5545 C   0  0  1  0  0  0  0  0  0  0  0  0
   -4.5467   -1.1150   -0.3836 C   0  0  0  0  0  0  0  0  0  0  0  0
   -3.2493   -1.7374   -0.9306 C   0  0  0  0  0  0  0  0  0  0  0  0
   -2.1511   -1.0698   -0.1153 C   0  0  1  0  0  0  0  0  0  0  0  0
   -0.7058   -1.0686   -0.6473 C   0  0  2  0  0  0  0  0  0  0  0  0
   -0.2015   -2.4832   -0.9550 C   0  0  0  0  0  0  0  0  0  0  0  0
    1.1768   -2.4089   -1.6160 C   0  0  0  0  0  0  0  0  0  0  0  0
    2.1231   -1.4392   -0.9398 C   0  0  0  0  0  0  0  0  0  0  0  0
    1.6768   -0.4501   -0.0284 C   0  0  0  0  0  0  0  0  0  0  0  0
    2.6371    0.3992    0.5576 C   0  0  0  0  0  0  0  0  0  0  0  0
    3.9982    0.3409    0.1954 C   0  0  0  0  0  0  0  0  0  0  0  0
    4.9353    1.2016    0.7858 O   0  0  0  0  0  0  0  0  0  0  0  0
    4.6387    2.2011    1.7564 C   0  0  0  0  0  0  0  0  0  0  0  0
    4.4151   -0.6091   -0.7660 C   0  0  0  0  0  0  0  0  0  0  0  0
    5.7358   -0.7560   -1.2303 O   0  0  0  0  0  0  0  0  0  0  0  0
    7.0866    0.2347   -0.8754 S   0  0  0  0  0  6  0  0  0  0  0  0
    8.4320   -0.3043   -1.8168 N   0  0  0  0  0  0  0  0  0  0  0  0
    6.7829    1.6652   -1.2245 O   0  0  0  0  0  0  0  0  0  0  0  0
    7.4377    0.1257    0.5820 O   0  0  0  0  0  0  0  0  0  0  0  0
    3.4730   -1.4857   -1.3084 C   0  0  0  0  0  0  0  0  0  0  0  0
    0.2172   -0.4336    0.4358 C   0  0  1  0  0  0  0  0  0  0  0  0
   -0.3029    0.9714    0.8763 C   0  0  0  0  0  0  0  0  0  0  0  0
   -1.8070    0.9793    1.2535 C   0  0  0  0  0  0  0  0  0  0  0  0
   -2.6735    0.3497    0.1419 C   0  0  2  0  0  0  0  0  0  0  0  0
   -2.6668    1.2719   -1.1218 C   0  0  0  0  0  0  0  0  0  0  0  0
   -4.9653    1.1718    0.3894 O   0  0  0  0  0  0  0  0  0  0  0  0
   -6.2768    1.0805    1.4620 S   0  0  0  0  0  6  0  0  0  0  0  0
   -7.3634    2.3803    1.1228 N   0  0  0  0  0  0  0  0  0  0  0  0
   -7.0090   -0.2218    1.2933 O   0  0  0  0  0  0  0  0  0  0  0  0
   -5.7915    1.2073    2.8793 O   0  0  0  0  0  0  0  0  0  0  0  0
   -4.1196   -0.3303    1.6076 H   0  0  0  0  0  0  0  0  0  0  0  0
   -5.1305   -1.8734    0.1816 H   0  0  0  0  0  0  0  0  0  0  0  0
   -5.1692   -0.7402   -1.2256 H   0  0  0  0  0  0  0  0  0  0  0  0
   -3.1293   -1.5114   -2.0126 H   0  0  0  0  0  0  0  0  0  0  0  0
   -3.2438   -2.8397   -0.7849 H   0  0  0  0  0  0  0  0  0  0  0  0
   -2.1273   -1.6230    0.8569 H   0  0  0  0  0  0  0  0  0  0  0  0
   -0.6499   -0.4855   -1.5905 H   0  0  0  0  0  0  0  0  0  0  0  0
   -0.1405   -3.0854   -0.0213 H   0  0  0  0  0  0  0  0  0  0  0  0
   -0.8955   -3.0004   -1.6517 H   0  0  0  0  0  0  0  0  0  0  0  0
    1.0513   -2.0912   -2.6743 H   0  0  0  0  0  0  0  0  0  0  0  0
    1.6220   -3.4278   -1.6197 H   0  0  0  0  0  0  0  0  0  0  0  0
    2.3349    1.1053    1.3107 H   0  0  0  0  0  0  0  0  0  0  0  0
    4.2197    1.7329    2.6720 H   0  0  0  0  0  0  0  0  0  0  0  0
    3.9230    2.9401    1.3381 H   0  0  0  0  0  0  0  0  0  0  0  0
    5.5753    2.7300    2.0271 H   0  0  0  0  0  0  0  0  0  0  0  0
    9.2142    0.3665   -1.6451 H   0  0  0  0  0  0  0  0  0  0  0  0
    8.1613   -0.2023   -2.8205 H   0  0  0  0  0  0  0  0  0  0  0  0
    3.8019   -2.2176   -2.0373 H   0  0  0  0  0  0  0  0  0  0  0  0
    0.1782   -1.0783    1.3433 H   0  0  0  0  0  0  0  0  0  0  0  0
    0.2381    1.3051    1.7853 H   0  0  0  0  0  0  0  0  0  0  0  0
   -0.0992    1.7182    0.0806 H   0  0  0  0  0  0  0  0  0  0  0  0
   -2.1354    2.0235    1.4477 H   0  0  0  0  0  0  0  0  0  0  0  0
   -1.9354    0.4138    2.2032 H   0  0  0  0  0  0  0  0  0  0  0  0
   -3.0747    2.2729   -0.8658 H   0  0  0  0  0  0  0  0  0  0  0  0
   -3.2897    0.8563   -1.9403 H   0  0  0  0  0  0  0  0  0  0  0  0
   -1.6541    1.4473   -1.5294 H   0  0  0  0  0  0  0  0  0  0  0  0
   -7.6402    2.2898    0.1196 H   0  0  0  0  0  0  0  0  0  0  0  0
   -6.8129    3.2644    1.2030 H   0  0  0  0  0  0  0  0  0  0  0  0
  1  2  1  0
  2  3  1  0
  3  4  1  0
  4  5  1  0
  5  6  1  0
  6  7  1  0
  7  8  1  0
  8  9  2  0
  9 10  1  0
 10 11  2  0
 11 12  1  0
 12 13  1  0
 11 14  1  0
 14 15  1  0
 15 16  1  0
 16 17  1  0
 16 18  2  0
 16 19  2  0
 14 20  2  0
  9 21  1  0
 21 22  1  0
 22 23  1  0
 23 24  1  0
 24 25  1  6
  1 26  1  0
 26 27  1  0
 27 28  1  0
 27 29  2  0
 27 30  2  0
 24  1  1  0
 24  4  1  0
 21  5  1  0
 20  8  1  0
  1 31  1  1
  2 32  1  0
  2 33  1  0
  3 34  1  0
  3 35  1  0
  4 36  1  1
  5 37  1  6
  6 38  1  0
  6 39  1  0
  7 40  1  0
  7 41  1  0
 10 42  1  0
 13 43  1  0
 13 44  1  0
 13 45  1  0
 17 46  1  0
 17 47  1  0
 20 48  1  0
 21 49  1  1
 22 50  1  0
 22 51  1  0
 23 52  1  0
 23 53  1  0
 25 54  1  0
 25 55  1  0
 25 56  1  0
 28 57  1  0
 28 58  1  0
M  END
$$$$
