
     RDKit          3D

 58 61  0  0  0  0  0  0  0  0999 V2000
  -12.1092   -0.8252    2.9023 Cl  0  0  0  0  0  0  0  0  0  0  0  0
  -10.6764   -0.7652    1.8930 C   0  0  0  0  0  0  0  0  0  0  0  0
   -9.6386    0.1346    2.2035 C   0  0  0  0  0  0  0  0  0  0  0  0
   -8.5198    0.1472    1.3734 C   0  0  0  0  0  0  0  0  0  0  0  0
   -8.4144   -0.6806    0.2872 C   0  0  0  0  0  0  0  0  0  0  0  0
   -7.2487   -0.4887   -0.3523 N   0  0  0  0  0  0  0  0  0  0  0  0
   -6.6046    0.4821    0.3430 C   0  0  0  0  0  0  0  0  0  0  0  0
   -7.3693    0.9017    1.4317 C   0  0  0  0  0  0  0  0  0  0  0  0
   -5.2667    1.0096    0.0071 C   0  0  0  0  0  0  0  0  0  0  0  0
   -4.7066    1.8114    0.8035 O   0  0  0  0  0  0  0  0  0  0  0  0
   -4.6036    0.6330   -1.2104 N   0  0  0  0  0  0  0  0  0  0  0  0
   -3.2332    1.0425   -1.5133 C   0  0  0  0  0  0  0  0  0  0  0  0
   -2.2345    0.2320   -0.6842 C   0  0  0  0  0  0  0  0  0  0  0  0
   -0.9142    0.6586   -0.9624 O   0  0  0  0  0  0  0  0  0  0  0  0
   -0.2999   -0.2029   -1.8984 C   0  0  0  0  0  0  0  0  0  0  0  0
    1.0641    0.3583   -2.2860 C   0  0  0  0  0  0  0  0  0  0  0  0
    1.9186    0.3687   -1.1564 O   0  0  0  0  0  0  0  0  0  0  0  0
    2.2103    1.6931   -0.7616 C   0  0  0  0  0  0  0  0  0  0  0  0
    3.0630    1.6713    0.5061 C   0  0  0  0  0  0  0  0  0  0  0  0
    4.3539    1.0229    0.2691 N   0  0  0  0  0  0  0  0  0  0  0  0
    5.3150    0.8762    1.3256 C   0  0  0  0  0  0  0  0  0  0  0  0
    5.0647    1.3529    2.4664 O   0  0  0  0  0  0  0  0  0  0  0  0
    6.6000    0.1793    1.1070 C   0  0  0  0  0  0  0  0  0  0  0  0
    7.6083    0.0672    2.0650 C   0  0  0  0  0  0  0  0  0  0  0  0
    8.6078   -0.6544    1.4517 C   0  0  0  0  0  0  0  0  0  0  0  0
    8.1839   -0.9478    0.1829 C   0  0  0  0  0  0  0  0  0  0  0  0
    6.9585   -0.4458   -0.0431 N   0  0  0  0  0  0  0  0  0  0  0  0
    8.9747   -1.6798   -0.7017 C   0  0  0  0  0  0  0  0  0  0  0  0
   10.2356   -2.1134   -0.2521 C   0  0  0  0  0  0  0  0  0  0  0  0
   10.6727   -1.8095    1.0579 C   0  0  0  0  0  0  0  0  0  0  0  0
   12.2469   -2.3578    1.6028 Cl  0  0  0  0  0  0  0  0  0  0  0  0
    9.8497   -1.0689    1.9280 C   0  0  0  0  0  0  0  0  0  0  0  0
   -9.4233   -1.5835   -0.0452 C   0  0  0  0  0  0  0  0  0  0  0  0
  -10.5678   -1.6209    0.7724 C   0  0  0  0  0  0  0  0  0  0  0  0
   -9.7055    0.7950    3.0588 H   0  0  0  0  0  0  0  0  0  0  0  0
   -6.9178   -1.0036   -1.1975 H   0  0  0  0  0  0  0  0  0  0  0  0
   -7.1168    1.6554    2.1665 H   0  0  0  0  0  0  0  0  0  0  0  0
   -5.1271    0.1130   -1.9482 H   0  0  0  0  0  0  0  0  0  0  0  0
   -3.1083    2.1288   -1.3128 H   0  0  0  0  0  0  0  0  0  0  0  0
   -3.0340    0.8721   -2.5931 H   0  0  0  0  0  0  0  0  0  0  0  0
   -2.4281    0.4184    0.3928 H   0  0  0  0  0  0  0  0  0  0  0  0
   -2.3987   -0.8603   -0.8481 H   0  0  0  0  0  0  0  0  0  0  0  0
   -0.9141   -0.2917   -2.8235 H   0  0  0  0  0  0  0  0  0  0  0  0
   -0.1547   -1.2149   -1.4563 H   0  0  0  0  0  0  0  0  0  0  0  0
    0.9280    1.3522   -2.7778 H   0  0  0  0  0  0  0  0  0  0  0  0
    1.5128   -0.3123   -3.0493 H   0  0  0  0  0  0  0  0  0  0  0  0
    1.2729    2.2516   -0.5373 H   0  0  0  0  0  0  0  0  0  0  0  0
    2.7716    2.2261   -1.5630 H   0  0  0  0  0  0  0  0  0  0  0  0
    3.2341    2.7163    0.8439 H   0  0  0  0  0  0  0  0  0  0  0  0
    2.5149    1.1264    1.3054 H   0  0  0  0  0  0  0  0  0  0  0  0
    4.5802    0.6755   -0.6885 H   0  0  0  0  0  0  0  0  0  0  0  0
    7.6092    0.4601    3.0736 H   0  0  0  0  0  0  0  0  0  0  0  0
    6.4110   -0.5393   -0.9263 H   0  0  0  0  0  0  0  0  0  0  0  0
    8.6313   -1.9081   -1.7024 H   0  0  0  0  0  0  0  0  0  0  0  0
   10.8718   -2.6834   -0.9169 H   0  0  0  0  0  0  0  0  0  0  0  0
   10.1692   -0.8288    2.9342 H   0  0  0  0  0  0  0  0  0  0  0  0
   -9.3307   -2.2353   -0.9043 H   0  0  0  0  0  0  0  0  0  0  0  0
  -11.3679   -2.3114    0.5386 H   0  0  0  0  0  0  0  0  0  0  0  0
  1  2  1  0
  2  3  2  0
  3  4  1  0
  4  5  2  0
  5  6  1  0
  6  7  1  0
  7  8  2  0
  7  9  1  0
  9 10  2  0
  9 11  1  0
 11 12  1  0
 12 13  1  0
 13 14  1  0
 14 15  1  0
 15 16  1  0
 16 17  1  0
 17 18  1  0
 18 19  1  0
 19 20  1  0
 20 21  1  0
 21 22  2  0
 21 23  1  0
 23 24  2  0
 24 25  1  0
 25 26  2  0
 26 27  1  0
 26 28  1  0
 28 29  2  0
 29 30  1  0
 30 31  1  0
 30 32  2  0
  5 33  1  0
 33 34  2  0
 34  2  1  0
  8  4  1  0
 27 23  1  0
 32 25  1  0
  3 35  1  0
  6 36  1  0
  8 37  1  0
 11 38  1  0
 12 39  1  0
 12 40  1  0
 13 41  1  0
 13 42  1  0
 15 43  1  0
 15 44  1  0
 16 45  1  0
 16 46  1  0
 18 47  1  0
 18 48  1  0
 19 49  1  0
 19 50  1  0
 20 51  1  0
 24 52  1  0
 27 53  1  0
 28 54  1  0
 29 55  1  0
 32 56  1  0
 33 57  1  0
 34 58  1  0
M  END
$$$$
