
     RDKit          3D

 46 48  0  0  0  0  0  0  0  0999 V2000
   -3.9619    0.9792    2.1043 C   0  0  0  0  0  0  0  0  0  0  0  0
   -3.2293    0.4967    0.8284 C   0  0  0  0  0  0  0  0  0  0  0  0
   -1.7463    0.2547    1.2086 C   0  0  0  0  0  0  0  0  0  0  0  0
   -0.9946   -0.1953    0.0813 O   0  0  0  0  0  0  0  0  0  0  0  0
    0.3740   -0.4984    0.1079 C   0  0  0  0  0  0  0  0  0  0  0  0
    0.9818   -0.9281   -1.0771 C   0  0  0  0  0  0  0  0  0  0  0  0
    2.3434   -1.2417   -1.1040 C   0  0  0  0  0  0  0  0  0  0  0  0
    3.1184   -1.1340    0.0609 C   0  0  0  0  0  0  0  0  0  0  0  0
    4.5922   -1.4491    0.0221 C   0  0  0  0  0  0  0  0  0  0  0  0
    5.4007   -0.2927   -0.5874 C   0  0  0  0  0  0  0  0  0  0  0  0
    5.3447    1.1935    0.5044 S   0  0  0  0  0  0  0  0  0  0  0  0
    7.1104    1.0948    0.7455 C   0  0  0  0  0  0  0  0  0  0  0  0
    7.7315    1.8703    1.5178 O   0  0  0  0  0  0  0  0  0  0  0  0
    7.7695    0.0802    0.0180 N   0  0  0  0  0  0  0  0  0  0  0  0
    6.8428   -0.6765   -0.7366 C   0  0  0  0  0  0  0  0  0  0  0  0
    7.2194   -1.6084   -1.4960 O   0  0  0  0  0  0  0  0  0  0  0  0
    2.5131   -0.6984    1.2501 C   0  0  0  0  0  0  0  0  0  0  0  0
    1.1510   -0.3845    1.2764 C   0  0  0  0  0  0  0  0  0  0  0  0
   -3.8530   -0.8344    0.3177 C   0  0  0  0  0  0  0  0  0  0  0  0
   -5.2563   -0.6510   -0.2802 C   0  0  0  0  0  0  0  0  0  0  0  0
   -5.2514    0.4056   -1.3883 C   0  0  0  0  0  0  0  0  0  0  0  0
   -4.7133    1.7435   -0.8739 C   0  0  0  0  0  0  0  0  0  0  0  0
   -3.3045    1.5843   -0.2820 C   0  0  0  0  0  0  0  0  0  0  0  0
   -3.5057    1.9189    2.4839 H   0  0  0  0  0  0  0  0  0  0  0  0
   -3.8924    0.2135    2.9068 H   0  0  0  0  0  0  0  0  0  0  0  0
   -5.0362    1.1776    1.9220 H   0  0  0  0  0  0  0  0  0  0  0  0
   -1.2991    1.2001    1.5890 H   0  0  0  0  0  0  0  0  0  0  0  0
   -1.6870   -0.5115    2.0135 H   0  0  0  0  0  0  0  0  0  0  0  0
    0.3951   -1.0170   -1.9827 H   0  0  0  0  0  0  0  0  0  0  0  0
    2.7950   -1.5670   -2.0332 H   0  0  0  0  0  0  0  0  0  0  0  0
    4.9689   -1.6733    1.0448 H   0  0  0  0  0  0  0  0  0  0  0  0
    4.7416   -2.3687   -0.5858 H   0  0  0  0  0  0  0  0  0  0  0  0
    4.9959   -0.0238   -1.5869 H   0  0  0  0  0  0  0  0  0  0  0  0
    8.8001   -0.0876    0.0337 H   0  0  0  0  0  0  0  0  0  0  0  0
    3.0964   -0.5984    2.1572 H   0  0  0  0  0  0  0  0  0  0  0  0
    0.7140   -0.0526    2.2081 H   0  0  0  0  0  0  0  0  0  0  0  0
   -3.9075   -1.5736    1.1470 H   0  0  0  0  0  0  0  0  0  0  0  0
   -3.2063   -1.2787   -0.4707 H   0  0  0  0  0  0  0  0  0  0  0  0
   -5.5959   -1.6192   -0.7072 H   0  0  0  0  0  0  0  0  0  0  0  0
   -5.9829   -0.3687    0.5107 H   0  0  0  0  0  0  0  0  0  0  0  0
   -6.2877    0.5475   -1.7636 H   0  0  0  0  0  0  0  0  0  0  0  0
   -4.6254    0.0530   -2.2375 H   0  0  0  0  0  0  0  0  0  0  0  0
   -4.6701    2.4633   -1.7196 H   0  0  0  0  0  0  0  0  0  0  0  0
   -5.4079    2.1671   -0.1181 H   0  0  0  0  0  0  0  0  0  0  0  0
   -2.9689    2.5652    0.1207 H   0  0  0  0  0  0  0  0  0  0  0  0
   -2.6162    1.3235   -1.1160 H   0  0  0  0  0  0  0  0  0  0  0  0
  1  2  1  0
  2  3  1  0
  3  4  1  0
  4  5  1  0
  5  6  2  0
  6  7  1  0
  7  8  2  0
  8  9  1  0
  9 10  1  0
 10 11  1  0
 11 12  1  0
 12 13  2  0
 12 14  1  0
 14 15  1  0
 15 16  2  0
  8 17  1  0
 17 18  2  0
  2 19  1  0
 19 20  1  0
 20 21  1  0
 21 22  1  0
 22 23  1  0
 23  2  1  0
 18  5  1  0
 15 10  1  0
  1 24  1  0
  1 25  1  0
  1 26  1  0
  3 27  1  0
  3 28  1  0
  6 29  1  0
  7 30  1  0
  9 31  1  0
  9 32  1  0
 10 33  1  0
 14 34  1  0
 17 35  1  0
 18 36  1  0
 19 37  1  0
 19 38  1  0
 20 39  1  0
 20 40  1  0
 21 41  1  0
 21 42  1  0
 22 43  1  0
 22 44  1  0
 23 45  1  0
 23 46  1  0
M  END
$$$$
