
     RDKit          3D

 62 66  0  0  0  0  0  0  0  0999 V2000
    2.5390   -1.3843   -1.1620 C   0  0  2  0  0  0  0  0  0  0  0  0
    1.0569   -1.6453   -1.5140 C   0  0  0  0  0  0  0  0  0  0  0  0
    0.2959   -0.6321   -0.6705 C   0  0  1  0  0  0  0  0  0  0  0  0
   -1.2221   -0.8142   -0.4395 C   0  0  2  0  0  0  0  0  0  0  0  0
   -1.9564   -0.9577   -1.7899 C   0  0  0  0  0  0  0  0  0  0  0  0
   -3.4677   -1.0785   -1.5988 C   0  0  2  0  0  0  0  0  0  0  0  0
   -4.0667   -1.1582   -2.8468 F   0  0  0  0  0  0  0  0  0  0  0  0
   -3.9792    0.0952   -0.7881 C   0  0  0  0  0  0  0  0  0  0  0  0
   -4.9898    0.8528   -1.2522 C   0  0  0  0  0  0  0  0  0  0  0  0
   -5.4657    2.0158   -0.5049 C   0  0  0  0  0  0  0  0  0  0  0  0
   -6.4247    2.7029   -0.9451 O   0  0  0  0  0  0  0  0  0  0  0  0
   -4.8121    2.3860    0.7459 C   0  0  0  0  0  0  0  0  0  0  0  0
   -3.8179    1.6459    1.2351 C   0  0  0  0  0  0  0  0  0  0  0  0
   -3.3294    0.3481    0.5869 C   0  0  1  0  0  0  0  0  0  0  0  0
   -3.7756   -0.8014    1.5263 C   0  0  0  0  0  0  0  0  0  0  0  0
   -1.7621    0.4316    0.3609 C   0  0  2  0  0  0  0  0  0  0  0  0
   -1.5578    1.5501   -0.4430 F   0  0  0  0  0  0  0  0  0  0  0  0
   -0.9160    0.6971    1.6632 C   0  0  1  0  0  0  0  0  0  0  0  0
   -1.2181   -0.2293    2.6716 O   0  0  0  0  0  0  0  0  0  0  0  0
    0.6189    0.7152    1.3995 C   0  0  0  0  0  0  0  0  0  0  0  0
    1.1059   -0.5384    0.6274 C   0  0  1  0  0  0  0  0  0  0  0  0
    0.9765   -1.8159    1.5267 C   0  0  0  0  0  0  0  0  0  0  0  0
    2.5584   -0.4561    0.0584 C   0  0  2  0  0  0  0  0  0  0  0  0
    2.8213    0.8149   -0.4700 O   0  0  0  0  0  0  0  0  0  0  0  0
    3.4082    0.6095   -1.7379 C   0  0  0  0  0  0  0  0  0  0  0  0
    4.9224    0.8403   -1.6419 C   0  0  0  0  0  0  0  0  0  0  0  0
    2.7996    1.6054   -2.7297 C   0  0  0  0  0  0  0  0  0  0  0  0
    3.1680   -0.7000   -2.2043 O   0  0  0  0  0  0  0  0  0  0  0  0
    3.6406   -0.7873    1.0879 C   0  0  0  0  0  0  0  0  0  0  0  0
    4.1265   -1.9081    1.1386 O   0  0  0  0  0  0  0  0  0  0  0  0
    4.1028    0.2425    2.0853 C   0  0  0  0  0  0  0  0  0  0  0  0
    3.7901   -0.1705    3.3876 O   0  0  0  0  0  0  0  0  0  0  0  0
    3.0546   -2.3543   -0.9961 H   0  0  0  0  0  0  0  0  0  0  0  0
    0.8596   -1.4971   -2.5986 H   0  0  0  0  0  0  0  0  0  0  0  0
    0.7650   -2.6809   -1.2340 H   0  0  0  0  0  0  0  0  0  0  0  0
    0.4015    0.3335   -1.2177 H   0  0  0  0  0  0  0  0  0  0  0  0
   -1.3995   -1.7506    0.1198 H   0  0  0  0  0  0  0  0  0  0  0  0
   -1.6002   -1.8709   -2.3140 H   0  0  0  0  0  0  0  0  0  0  0  0
   -1.7367   -0.0844   -2.4437 H   0  0  0  0  0  0  0  0  0  0  0  0
   -3.6964   -2.0214   -1.0585 H   0  0  0  0  0  0  0  0  0  0  0  0
   -5.4607    0.6372   -2.2029 H   0  0  0  0  0  0  0  0  0  0  0  0
   -5.1419    3.2667    1.2835 H   0  0  0  0  0  0  0  0  0  0  0  0
   -3.4046    1.9425    2.1903 H   0  0  0  0  0  0  0  0  0  0  0  0
   -4.8730   -0.9593    1.4382 H   0  0  0  0  0  0  0  0  0  0  0  0
   -3.5870   -0.5660    2.5939 H   0  0  0  0  0  0  0  0  0  0  0  0
   -3.2813   -1.7626    1.2880 H   0  0  0  0  0  0  0  0  0  0  0  0
   -1.1722    1.7166    2.0313 H   0  0  0  0  0  0  0  0  0  0  0  0
   -0.9095    0.1619    3.5305 H   0  0  0  0  0  0  0  0  0  0  0  0
    1.1618    0.8019    2.3651 H   0  0  0  0  0  0  0  0  0  0  0  0
    0.8549    1.6345    0.8205 H   0  0  0  0  0  0  0  0  0  0  0  0
   -0.0628   -2.1040    1.7559 H   0  0  0  0  0  0  0  0  0  0  0  0
    1.4829   -1.6512    2.5011 H   0  0  0  0  0  0  0  0  0  0  0  0
    1.4482   -2.7014    1.0523 H   0  0  0  0  0  0  0  0  0  0  0  0
    5.1347    1.8584   -1.2508 H   0  0  0  0  0  0  0  0  0  0  0  0
    5.3829    0.0974   -0.9577 H   0  0  0  0  0  0  0  0  0  0  0  0
    5.3966    0.7304   -2.6408 H   0  0  0  0  0  0  0  0  0  0  0  0
    2.9575    2.6478   -2.3786 H   0  0  0  0  0  0  0  0  0  0  0  0
    1.7088    1.4303   -2.8316 H   0  0  0  0  0  0  0  0  0  0  0  0
    3.2637    1.4884   -3.7325 H   0  0  0  0  0  0  0  0  0  0  0  0
    5.1995    0.4015    1.9760 H   0  0  0  0  0  0  0  0  0  0  0  0
    3.6081    1.2182    1.9006 H   0  0  0  0  0  0  0  0  0  0  0  0
    4.4759   -0.8395    3.6482 H   0  0  0  0  0  0  0  0  0  0  0  0
  1  2  1  0
  2  3  1  0
  3  4  1  0
  4  5  1  0
  5  6  1  0
  6  7  1  0
  6  8  1  0
  8  9  2  0
  9 10  1  0
 10 11  2  0
 10 12  1  0
 12 13  2  0
 13 14  1  0
 14 15  1  1
 14 16  1  0
 16 17  1  6
 16 18  1  0
 18 19  1  0
 18 20  1  0
 20 21  1  0
 21 22  1  1
 21 23  1  0
 23 24  1  0
 24 25  1  0
 25 26  1  0
 25 27  1  0
 25 28  1  0
 23 29  1  1
 29 30  2  0
 29 31  1  0
 31 32  1  0
 23  1  1  0
 28  1  1  0
 21  3  1  0
 16  4  1  0
 14  8  1  0
  1 33  1  1
  2 34  1  0
  2 35  1  0
  3 36  1  6
  4 37  1  1
  5 38  1  0
  5 39  1  0
  6 40  1  1
  9 41  1  0
 12 42  1  0
 13 43  1  0
 15 44  1  0
 15 45  1  0
 15 46  1  0
 18 47  1  1
 19 48  1  0
 20 49  1  0
 20 50  1  0
 22 51  1  0
 22 52  1  0
 22 53  1  0
 26 54  1  0
 26 55  1  0
 26 56  1  0
 27 57  1  0
 27 58  1  0
 27 59  1  0
 31 60  1  0
 31 61  1  0
 32 62  1  0
M  END
$$$$
