
     RDKit          3D

 46 49  0  0  0  0  0  0  0  0999 V2000
    8.2604   -0.2206    1.9054 C   0  0  0  0  0  0  0  0  0  0  0  0
    6.8620   -0.1089    1.5092 N   0  0  0  0  0  0  0  0  0  0  0  0
    6.0217   -1.2656    1.3850 C   0  0  0  0  0  0  0  0  0  0  0  0
    6.4932   -2.4111    1.6218 O   0  0  0  0  0  0  0  0  0  0  0  0
    4.6085   -1.1402    0.9834 C   0  0  0  0  0  0  0  0  0  0  0  0
    3.9032    0.0087    0.6819 C   0  0  0  0  0  0  0  0  0  0  0  0
    2.6427   -0.3487    0.3675 N   0  0  0  0  0  0  0  0  0  0  0  0
    2.5096   -1.6636    0.4532 N   0  0  0  0  0  0  0  0  0  0  0  0
    3.6993   -2.1717    0.8287 C   0  0  0  0  0  0  0  0  0  0  0  0
    1.5796    0.5351   -0.0076 C   0  0  0  0  0  0  0  0  0  0  0  0
    0.3428    0.0255   -0.3001 N   0  0  0  0  0  0  0  0  0  0  0  0
   -0.6374    0.8907   -0.6543 C   0  0  0  0  0  0  0  0  0  0  0  0
   -0.4440    2.2270   -0.7174 C   0  0  0  0  0  0  0  0  0  0  0  0
   -1.5872    2.8548   -1.0521 N   0  0  0  0  0  0  0  0  0  0  0  0
   -2.4670    1.8240   -1.1866 C   0  0  0  0  0  0  0  0  0  0  0  0
   -1.9084    0.6056   -0.9608 N   0  0  0  0  0  0  0  0  0  0  0  0
   -2.5731   -0.6989   -0.9151 C   0  0  2  0  0  0  0  0  0  0  0  0
   -3.5701   -0.7571   -1.9162 O   0  0  0  0  0  0  0  0  0  0  0  0
   -4.7968   -1.0662   -1.2927 C   0  0  2  0  0  0  0  0  0  0  0  0
   -5.9337   -0.3036   -1.9864 C   0  0  0  0  0  0  0  0  0  0  0  0
   -7.1715   -0.6167   -1.4064 O   0  0  0  0  0  0  0  0  0  0  0  0
   -4.6860   -0.7206    0.1873 C   0  0  1  0  0  0  0  0  0  0  0  0
   -5.4968   -1.5624    0.9659 O   0  0  0  0  0  0  0  0  0  0  0  0
   -3.2132   -0.9241    0.4600 C   0  0  1  0  0  0  0  0  0  0  0  0
   -2.9341   -2.2161    0.9503 O   0  0  0  0  0  0  0  0  0  0  0  0
    0.8040    2.7611   -0.4212 C   0  0  0  0  0  0  0  0  0  0  0  0
    1.0524    4.1661   -0.4698 N   0  0  0  0  0  0  0  0  0  0  0  0
    1.7977    1.8910   -0.0711 N   0  0  0  0  0  0  0  0  0  0  0  0
    8.8114   -0.8447    1.1707 H   0  0  0  0  0  0  0  0  0  0  0  0
    8.7251    0.7874    1.9398 H   0  0  0  0  0  0  0  0  0  0  0  0
    8.3307   -0.6825    2.9127 H   0  0  0  0  0  0  0  0  0  0  0  0
    6.4796    0.8426    1.3151 H   0  0  0  0  0  0  0  0  0  0  0  0
    4.2729    1.0255    0.6893 H   0  0  0  0  0  0  0  0  0  0  0  0
    3.8898   -3.2261    0.9795 H   0  0  0  0  0  0  0  0  0  0  0  0
   -3.5108    1.9686   -1.4322 H   0  0  0  0  0  0  0  0  0  0  0  0
   -1.8213   -1.4919   -1.1259 H   0  0  0  0  0  0  0  0  0  0  0  0
   -4.9779   -2.1588   -1.4126 H   0  0  0  0  0  0  0  0  0  0  0  0
   -5.7635    0.7906   -1.8992 H   0  0  0  0  0  0  0  0  0  0  0  0
   -5.9460   -0.5537   -3.0717 H   0  0  0  0  0  0  0  0  0  0  0  0
   -7.4091   -1.5285   -1.7194 H   0  0  0  0  0  0  0  0  0  0  0  0
   -4.9519    0.3499    0.3592 H   0  0  0  0  0  0  0  0  0  0  0  0
   -5.4872   -1.1877    1.8851 H   0  0  0  0  0  0  0  0  0  0  0  0
   -2.8562   -0.1824    1.2087 H   0  0  0  0  0  0  0  0  0  0  0  0
   -3.2404   -2.8779    0.2757 H   0  0  0  0  0  0  0  0  0  0  0  0
    0.2974    4.8370   -0.7349 H   0  0  0  0  0  0  0  0  0  0  0  0
    1.9999    4.5392   -0.2392 H   0  0  0  0  0  0  0  0  0  0  0  0
  1  2  1  0
  2  3  1  0
  3  4  2  0
  3  5  1  0
  5  6  2  0
  6  7  1  0
  7  8  1  0
  8  9  2  0
  7 10  1  0
 10 11  2  0
 11 12  1  0
 12 13  2  0
 13 14  1  0
 14 15  2  0
 15 16  1  0
 16 17  1  0
 17 18  1  0
 18 19  1  0
 19 20  1  0
 20 21  1  0
 19 22  1  0
 22 23  1  0
 22 24  1  0
 24 25  1  0
 13 26  1  0
 26 27  1  0
 26 28  2  0
  9  5  1  0
 28 10  1  0
 16 12  1  0
 24 17  1  0
  1 29  1  0
  1 30  1  0
  1 31  1  0
  2 32  1  0
  6 33  1  0
  9 34  1  0
 15 35  1  0
 17 36  1  6
 19 37  1  1
 20 38  1  0
 20 39  1  0
 21 40  1  0
 22 41  1  6
 23 42  1  0
 24 43  1  1
 25 44  1  0
 27 45  1  0
 27 46  1  0
M  END
$$$$
