
     RDKit          3D

 42 44  0  0  0  0  0  0  0  0999 V2000
   -1.9215    4.4721    0.7491 C   0  0  0  0  0  0  0  0  0  0  0  0
   -0.5891    4.0071    0.3796 N   0  0  0  0  0  0  0  0  0  0  0  0
    0.5366    4.7512    0.2565 C   0  0  0  0  0  0  0  0  0  0  0  0
    1.6136    4.0261   -0.1440 N   0  0  0  0  0  0  0  0  0  0  0  0
    1.1122    2.7823   -0.2722 C   0  0  0  0  0  0  0  0  0  0  0  0
    1.7850    1.6343   -0.6729 C   0  0  0  0  0  0  0  0  0  0  0  0
    3.0959    1.6954   -1.0184 F   0  0  0  0  0  0  0  0  0  0  0  0
    1.0574    0.4217   -0.7480 C   0  0  0  0  0  0  0  0  0  0  0  0
    1.7102   -0.7682   -1.2215 N   0  0  0  0  0  0  0  0  0  0  0  0
    2.9531   -1.2631   -0.6900 C   0  0  0  0  0  0  0  0  0  0  0  0
    3.3845   -0.9097    0.6030 C   0  0  0  0  0  0  0  0  0  0  0  0
    4.5849   -1.4149    1.1106 C   0  0  0  0  0  0  0  0  0  0  0  0
    5.3617   -2.2842    0.3399 C   0  0  0  0  0  0  0  0  0  0  0  0
    7.0008   -2.9738    1.0365 Br  0  0  0  0  0  0  0  0  0  0  0  0
    4.9345   -2.6528   -0.9389 C   0  0  0  0  0  0  0  0  0  0  0  0
    3.7339   -2.1504   -1.4516 C   0  0  0  0  0  0  0  0  0  0  0  0
    3.3392   -2.5187   -2.6965 F   0  0  0  0  0  0  0  0  0  0  0  0
   -0.3399    0.4083   -0.4373 C   0  0  0  0  0  0  0  0  0  0  0  0
   -0.9781    1.6061   -0.0371 C   0  0  0  0  0  0  0  0  0  0  0  0
   -0.2127    2.7669    0.0346 C   0  0  0  0  0  0  0  0  0  0  0  0
   -1.1274   -0.8471   -0.4762 C   0  0  0  0  0  0  0  0  0  0  0  0
   -0.5850   -1.9405   -0.1601 O   0  0  0  0  0  0  0  0  0  0  0  0
   -2.5103   -0.8334   -0.8519 N   0  0  0  0  0  0  0  0  0  0  0  0
   -3.2519   -1.9716   -0.8027 O   0  0  0  0  0  0  0  0  0  0  0  0
   -3.9459   -1.9445    0.4210 C   0  0  0  0  0  0  0  0  0  0  0  0
   -4.8015   -3.2018    0.5418 C   0  0  0  0  0  0  0  0  0  0  0  0
   -5.4767   -3.2157    1.7700 O   0  0  0  0  0  0  0  0  0  0  0  0
   -2.3172    3.8540    1.5822 H   0  0  0  0  0  0  0  0  0  0  0  0
   -2.6007    4.3890   -0.1251 H   0  0  0  0  0  0  0  0  0  0  0  0
   -1.8848    5.5322    1.0787 H   0  0  0  0  0  0  0  0  0  0  0  0
    0.5779    5.8152    0.4507 H   0  0  0  0  0  0  0  0  0  0  0  0
    1.2412   -1.3075   -1.9840 H   0  0  0  0  0  0  0  0  0  0  0  0
    2.7892   -0.2546    1.2255 H   0  0  0  0  0  0  0  0  0  0  0  0
    4.9075   -1.1344    2.1051 H   0  0  0  0  0  0  0  0  0  0  0  0
    5.5325   -3.3295   -1.5357 H   0  0  0  0  0  0  0  0  0  0  0  0
   -2.0263    1.6277    0.2323 H   0  0  0  0  0  0  0  0  0  0  0  0
   -2.9343    0.0278   -1.2650 H   0  0  0  0  0  0  0  0  0  0  0  0
   -4.6104   -1.0514    0.4683 H   0  0  0  0  0  0  0  0  0  0  0  0
   -3.2298   -1.9174    1.2743 H   0  0  0  0  0  0  0  0  0  0  0  0
   -5.5271   -3.2539   -0.3019 H   0  0  0  0  0  0  0  0  0  0  0  0
   -4.1459   -4.0969    0.4872 H   0  0  0  0  0  0  0  0  0  0  0  0
   -6.2353   -2.5809    1.6844 H   0  0  0  0  0  0  0  0  0  0  0  0
  1  2  1  0
  2  3  1  0
  3  4  2  0
  4  5  1  0
  5  6  2  0
  6  7  1  0
  6  8  1  0
  8  9  1  0
  9 10  1  0
 10 11  2  0
 11 12  1  0
 12 13  2  0
 13 14  1  0
 13 15  1  0
 15 16  2  0
 16 17  1  0
  8 18  2  0
 18 19  1  0
 19 20  2  0
 18 21  1  0
 21 22  2  0
 21 23  1  0
 23 24  1  0
 24 25  1  0
 25 26  1  0
 26 27  1  0
 20  2  1  0
 20  5  1  0
 16 10  1  0
  1 28  1  0
  1 29  1  0
  1 30  1  0
  3 31  1  0
  9 32  1  0
 11 33  1  0
 12 34  1  0
 15 35  1  0
 19 36  1  0
 23 37  1  0
 25 38  1  0
 25 39  1  0
 26 40  1  0
 26 41  1  0
 27 42  1  0
M  END
$$$$
