
     RDKit          3D

 47 50  0  0  0  0  0  0  0  0999 V2000
    5.8173    0.6022   -1.4612 C   0  0  0  0  0  0  0  0  0  0  0  0
    5.3840    1.3383   -0.2667 N   0  0  0  0  0  0  0  0  0  0  0  0
    6.4412    2.2603    0.1666 C   0  0  0  0  0  0  0  0  0  0  0  0
    5.0388    0.2098    1.0198 S   0  0  0  0  0  6  0  0  0  0  0  0
    4.6156    0.9582    2.2533 O   0  0  0  0  0  0  0  0  0  0  0  0
    6.2671   -0.5956    1.3462 O   0  0  0  0  0  0  0  0  0  0  0  0
    3.7275   -0.8627    0.5368 C   0  0  0  0  0  0  0  0  0  0  0  0
    3.9908   -2.2089    0.1939 C   0  0  0  0  0  0  0  0  0  0  0  0
    2.9480   -3.0597   -0.2073 C   0  0  0  0  0  0  0  0  0  0  0  0
    1.6555   -2.5428   -0.2601 C   0  0  0  0  0  0  0  0  0  0  0  0
    0.4828   -3.2455   -0.6517 N   0  0  0  0  0  0  0  0  0  0  0  0
   -0.5626   -2.2807   -0.5734 C   0  0  0  0  0  0  0  0  0  0  0  0
   -1.7374   -2.5116   -0.9620 O   0  0  0  0  0  0  0  0  0  0  0  0
   -0.0455   -0.9860   -0.0964 C   0  0  0  0  0  0  0  0  0  0  0  0
   -0.6834    0.1802    0.0815 C   0  0  0  0  0  0  0  0  0  0  0  0
   -2.1422    0.3477   -0.0175 C   0  0  0  0  0  0  0  0  0  0  0  0
   -2.7666    1.4670   -0.5464 C   0  0  0  0  0  0  0  0  0  0  0  0
   -4.1154    1.2692   -0.3369 C   0  0  0  0  0  0  0  0  0  0  0  0
   -4.2555    0.0530    0.2888 C   0  0  0  0  0  0  0  0  0  0  0  0
   -5.5667   -0.4787    0.7833 C   0  0  0  0  0  0  0  0  0  0  0  0
   -6.7380    0.2217    0.0666 C   0  0  0  0  0  0  0  0  0  0  0  0
   -6.5398    1.7514    0.0124 C   0  0  0  0  0  0  0  0  0  0  0  0
   -5.2627    2.1342   -0.7615 C   0  0  0  0  0  0  0  0  0  0  0  0
   -3.0509   -0.4986    0.5164 N   0  0  0  0  0  0  0  0  0  0  0  0
    1.3920   -1.2255    0.0640 C   0  0  0  0  0  0  0  0  0  0  0  0
    2.4133   -0.3622    0.4673 C   0  0  0  0  0  0  0  0  0  0  0  0
    5.0013   -0.0620   -1.8159 H   0  0  0  0  0  0  0  0  0  0  0  0
    6.7225   -0.0110   -1.2552 H   0  0  0  0  0  0  0  0  0  0  0  0
    6.0419    1.3114   -2.2867 H   0  0  0  0  0  0  0  0  0  0  0  0
    6.6572    2.9975   -0.6364 H   0  0  0  0  0  0  0  0  0  0  0  0
    7.3778    1.7150    0.4186 H   0  0  0  0  0  0  0  0  0  0  0  0
    6.1044    2.8340    1.0559 H   0  0  0  0  0  0  0  0  0  0  0  0
    5.0003   -2.5966    0.2317 H   0  0  0  0  0  0  0  0  0  0  0  0
    3.1448   -4.0904   -0.4719 H   0  0  0  0  0  0  0  0  0  0  0  0
    0.4149   -4.2295   -0.9943 H   0  0  0  0  0  0  0  0  0  0  0  0
   -0.1019    1.0667    0.2986 H   0  0  0  0  0  0  0  0  0  0  0  0
   -2.2963    2.3210   -1.0162 H   0  0  0  0  0  0  0  0  0  0  0  0
   -5.6192   -1.5738    0.6050 H   0  0  0  0  0  0  0  0  0  0  0  0
   -5.6368   -0.2931    1.8765 H   0  0  0  0  0  0  0  0  0  0  0  0
   -6.8268   -0.1729   -0.9695 H   0  0  0  0  0  0  0  0  0  0  0  0
   -7.6843   -0.0093    0.6013 H   0  0  0  0  0  0  0  0  0  0  0  0
   -6.4765    2.1488    1.0494 H   0  0  0  0  0  0  0  0  0  0  0  0
   -7.4192    2.2206   -0.4786 H   0  0  0  0  0  0  0  0  0  0  0  0
   -5.0193    3.2022   -0.5767 H   0  0  0  0  0  0  0  0  0  0  0  0
   -5.4324    1.9916   -1.8502 H   0  0  0  0  0  0  0  0  0  0  0  0
   -2.8617   -1.3738    1.0540 H   0  0  0  0  0  0  0  0  0  0  0  0
    2.2019    0.6688    0.7185 H   0  0  0  0  0  0  0  0  0  0  0  0
  1  2  1  0
  2  3  1  0
  2  4  1  0
  4  5  2  0
  4  6  2  0
  4  7  1  0
  7  8  2  0
  8  9  1  0
  9 10  2  0
 10 11  1  0
 11 12  1  0
 12 13  2  0
 12 14  1  0
 14 15  2  0
 15 16  1  0
 16 17  2  0
 17 18  1  0
 18 19  2  0
 19 20  1  0
 20 21  1  0
 21 22  1  0
 22 23  1  0
 19 24  1  0
 14 25  1  0
 25 26  2  0
 26  7  1  0
 25 10  1  0
 24 16  1  0
 23 18  1  0
  1 27  1  0
  1 28  1  0
  1 29  1  0
  3 30  1  0
  3 31  1  0
  3 32  1  0
  8 33  1  0
  9 34  1  0
 11 35  1  0
 15 36  1  0
 17 37  1  0
 20 38  1  0
 20 39  1  0
 21 40  1  0
 21 41  1  0
 22 42  1  0
 22 43  1  0
 23 44  1  0
 23 45  1  0
 24 46  1  0
 26 47  1  0
M  END
$$$$
