
     RDKit          3D

 42 43  0  0  0  0  0  0  0  0999 V2000
    6.2041   -0.9826    1.5320 C   0  0  0  0  0  0  0  0  0  0  0  0
    5.8916   -0.7776    0.0798 C   0  0  0  0  0  0  0  0  0  0  0  0
    6.6764   -1.2688   -0.7767 O   0  0  0  0  0  0  0  0  0  0  0  0
    4.6927   -0.0182   -0.3671 C   0  0  0  0  0  0  0  0  0  0  0  0
    3.7957    0.5480    0.5603 C   0  0  0  0  0  0  0  0  0  0  0  0
    2.6740    1.2576    0.1221 C   0  0  0  0  0  0  0  0  0  0  0  0
    2.4249    1.4112   -1.2461 C   0  0  0  0  0  0  0  0  0  0  0  0
    3.3126    0.8581   -2.1759 C   0  0  0  0  0  0  0  0  0  0  0  0
    4.4358    0.1483   -1.7416 C   0  0  0  0  0  0  0  0  0  0  0  0
    1.0079    2.3045   -1.7874 S   0  0  0  0  0  6  0  0  0  0  0  0
    1.3210    3.7740   -1.7769 O   0  0  0  0  0  0  0  0  0  0  0  0
    0.6262    1.8927   -3.1819 O   0  0  0  0  0  0  0  0  0  0  0  0
   -0.3254    1.9932   -0.7257 N   0  0  0  0  0  0  0  0  0  0  0  0
   -0.8422    0.6727   -0.5328 C   0  0  0  0  0  0  0  0  0  0  0  0
   -0.3390   -0.2997   -1.1591 O   0  0  0  0  0  0  0  0  0  0  0  0
   -1.9271    0.4596    0.3807 N   0  0  0  0  0  0  0  0  0  0  0  0
   -2.5288   -0.8641    0.5932 C   0  0  0  0  0  0  0  0  0  0  0  0
   -3.3505   -0.8995    1.9101 C   0  0  0  0  0  0  0  0  0  0  0  0
   -4.8630   -0.6671    1.7119 C   0  0  0  0  0  0  0  0  0  0  0  0
   -5.1503    0.2642    0.5305 C   0  0  0  0  0  0  0  0  0  0  0  0
   -4.5991   -0.2965   -0.7966 C   0  0  0  0  0  0  0  0  0  0  0  0
   -3.4033   -1.2526   -0.6132 C   0  0  0  0  0  0  0  0  0  0  0  0
    6.3478   -0.0004    2.0290 H   0  0  0  0  0  0  0  0  0  0  0  0
    7.1361   -1.5755    1.6504 H   0  0  0  0  0  0  0  0  0  0  0  0
    5.3739   -1.5329    2.0223 H   0  0  0  0  0  0  0  0  0  0  0  0
    3.9536    0.4479    1.6256 H   0  0  0  0  0  0  0  0  0  0  0  0
    1.9987    1.6867    0.8516 H   0  0  0  0  0  0  0  0  0  0  0  0
    3.1379    0.9752   -3.2377 H   0  0  0  0  0  0  0  0  0  0  0  0
    5.1034   -0.2698   -2.4845 H   0  0  0  0  0  0  0  0  0  0  0  0
   -0.7478    2.7948   -0.2070 H   0  0  0  0  0  0  0  0  0  0  0  0
   -2.2706    1.2806    0.9286 H   0  0  0  0  0  0  0  0  0  0  0  0
   -1.7089   -1.6104    0.6910 H   0  0  0  0  0  0  0  0  0  0  0  0
   -3.2184   -1.8936    2.3911 H   0  0  0  0  0  0  0  0  0  0  0  0
   -2.9515   -0.1525    2.6307 H   0  0  0  0  0  0  0  0  0  0  0  0
   -5.3672   -1.6420    1.5303 H   0  0  0  0  0  0  0  0  0  0  0  0
   -5.2962   -0.2350    2.6398 H   0  0  0  0  0  0  0  0  0  0  0  0
   -6.2475    0.4169    0.4395 H   0  0  0  0  0  0  0  0  0  0  0  0
   -4.6964    1.2581    0.7349 H   0  0  0  0  0  0  0  0  0  0  0  0
   -4.2926    0.5546   -1.4431 H   0  0  0  0  0  0  0  0  0  0  0  0
   -5.4076   -0.8410   -1.3314 H   0  0  0  0  0  0  0  0  0  0  0  0
   -2.7964   -1.2695   -1.5435 H   0  0  0  0  0  0  0  0  0  0  0  0
   -3.7842   -2.2861   -0.4570 H   0  0  0  0  0  0  0  0  0  0  0  0
  1  2  1  0
  2  3  2  0
  2  4  1  0
  4  5  2  0
  5  6  1  0
  6  7  2  0
  7  8  1  0
  8  9  2  0
  7 10  1  0
 10 11  2  0
 10 12  2  0
 10 13  1  0
 13 14  1  0
 14 15  2  0
 14 16  1  0
 16 17  1  0
 17 18  1  0
 18 19  1  0
 19 20  1  0
 20 21  1  0
 21 22  1  0
  9  4  1  0
 22 17  1  0
  1 23  1  0
  1 24  1  0
  1 25  1  0
  5 26  1  0
  6 27  1  0
  8 28  1  0
  9 29  1  0
 13 30  1  0
 16 31  1  0
 17 32  1  0
 18 33  1  0
 18 34  1  0
 19 35  1  0
 19 36  1  0
 20 37  1  0
 20 38  1  0
 21 39  1  0
 21 40  1  0
 22 41  1  0
 22 42  1  0
M  END
$$$$
