
     RDKit          3D

 27 28  0  0  0  0  0  0  0  0999 V2000
    1.8398   -2.0037    0.7912 N   0  0  0  0  0  0  0  0  0  0  0  0
    1.8914   -1.0032   -0.2790 C   0  0  1  0  0  0  0  0  0  0  0  0
    1.5870    0.4165    0.2426 C   0  0  0  0  0  0  0  0  0  0  0  0
    0.1812    0.5285    0.7569 C   0  0  0  0  0  0  0  0  0  0  0  0
   -0.2251    0.4570    2.0862 C   0  0  0  0  0  0  0  0  0  0  0  0
   -1.5726    0.5373    2.1725 N   0  0  0  0  0  0  0  0  0  0  0  0
   -2.0200    0.6498    0.9097 C   0  0  0  0  0  0  0  0  0  0  0  0
   -0.9790    0.6440    0.0169 C   0  0  0  0  0  0  0  0  0  0  0  0
   -1.1900    0.7326   -1.3593 C   0  0  0  0  0  0  0  0  0  0  0  0
   -2.5175    0.8341   -1.8137 C   0  0  0  0  0  0  0  0  0  0  0  0
   -3.5903    0.8422   -0.8944 C   0  0  0  0  0  0  0  0  0  0  0  0
   -3.3454    0.7478    0.4880 C   0  0  0  0  0  0  0  0  0  0  0  0
    3.2434   -1.0350   -0.9304 C   0  0  0  0  0  0  0  0  0  0  0  0
    3.3427   -1.1714   -2.3117 O   0  0  0  0  0  0  0  0  0  0  0  0
    4.2885   -0.9162   -0.2350 O   0  0  0  0  0  0  0  0  0  0  0  0
    2.3829   -1.6646    1.6189 H   0  0  0  0  0  0  0  0  0  0  0  0
    0.8466   -2.1255    1.0949 H   0  0  0  0  0  0  0  0  0  0  0  0
    1.1360   -1.2715   -1.0515 H   0  0  0  0  0  0  0  0  0  0  0  0
    1.7198    1.1518   -0.5809 H   0  0  0  0  0  0  0  0  0  0  0  0
    2.3007    0.6909    1.0501 H   0  0  0  0  0  0  0  0  0  0  0  0
    0.4291    0.3409    2.9405 H   0  0  0  0  0  0  0  0  0  0  0  0
   -2.1460    0.5056    3.0447 H   0  0  0  0  0  0  0  0  0  0  0  0
   -0.3634    0.7235   -2.0578 H   0  0  0  0  0  0  0  0  0  0  0  0
   -2.7181    0.9054   -2.8747 H   0  0  0  0  0  0  0  0  0  0  0  0
   -4.6074    0.9195   -1.2557 H   0  0  0  0  0  0  0  0  0  0  0  0
   -4.1608    0.7489    1.1997 H   0  0  0  0  0  0  0  0  0  0  0  0
    4.2466   -1.1854   -2.7687 H   0  0  0  0  0  0  0  0  0  0  0  0
  1  2  1  0
  2  3  1  0
  3  4  1  0
  4  5  2  0
  5  6  1  0
  6  7  1  0
  7  8  2  0
  8  9  1  0
  9 10  2  0
 10 11  1  0
 11 12  2  0
  2 13  1  0
 13 14  1  0
 13 15  2  0
  8  4  1  0
 12  7  1  0
  1 16  1  0
  1 17  1  0
  2 18  1  6
  3 19  1  0
  3 20  1  0
  5 21  1  0
  6 22  1  0
  9 23  1  0
 10 24  1  0
 11 25  1  0
 12 26  1  0
 14 27  1  0
M  END
$$$$
