
     RDKit          3D

 55 50  0  0  0  0  0  0  0  0999 V2000
   -0.0031    0.4041    0.0000 O   0  0  0  0  0  0  0  0  0  0  0  0
   -0.0046    0.4041    0.0000 O   0  0  0  0  0  0  0  0  0  0  0  0
    0.0000    0.0000    0.0000 Mg  0  0  0  0  0 15  0  0  0  0  0  0
   -2.8428    0.7842   -0.5572 O   0  0  0  0  0  0  0  0  0  0  0  0
   -1.5994    1.4194   -0.6916 C   0  0  0  0  0  0  0  0  0  0  0  0
   -0.6595    1.0860    0.4839 C   0  0  1  0  0  0  0  0  0  0  0  0
   -1.2183    1.6061    1.6640 O   0  0  0  0  0  0  0  0  0  0  0  0
   -0.3817   -0.4308    0.6687 C   0  0  1  0  0  0  0  0  0  0  0  0
   -1.5883   -1.0809    0.9877 O   0  0  0  0  0  0  0  0  0  0  0  0
    0.2884   -1.1411   -0.5482 C   0  0  2  0  0  0  0  0  0  0  0  0
    0.3153   -2.5291   -0.3128 O   0  0  0  0  0  0  0  0  0  0  0  0
    1.7308   -0.6329   -0.8572 C   0  0  1  0  0  0  0  0  0  0  0  0
    2.4577   -1.6224   -1.5423 O   0  0  0  0  0  0  0  0  0  0  0  0
    1.7307    0.6000   -1.7149 C   0  0  0  0  0  0  0  0  0  0  0  0
    2.3746    1.7515   -1.2787 O   0  0  0  0  0  1  0  0  0  0  0  0
    1.1988    0.5824   -2.8567 O   0  0  0  0  0  0  0  0  0  0  0  0
   -3.7191    0.8988    0.2119 O   0  0  0  0  0  0  0  0  0  0  0  0
   -2.8335   -0.1554   -0.0545 C   0  0  0  0  0  0  0  0  0  0  0  0
   -1.3842    0.3660   -0.1499 C   0  0  1  0  0  0  0  0  0  0  0  0
   -1.0874    1.1327    0.9913 O   0  0  0  0  0  0  0  0  0  0  0  0
   -0.3573   -0.7881   -0.3343 C   0  0  1  0  0  0  0  0  0  0  0  0
   -0.8454   -1.6818   -1.3062 O   0  0  0  0  0  0  0  0  0  0  0  0
    1.0459   -0.2899   -0.7928 C   0  0  2  0  0  0  0  0  0  0  0  0
    1.8620   -1.3904   -1.1186 O   0  0  0  0  0  0  0  0  0  0  0  0
    1.7648    0.6282    0.2273 C   0  0  1  0  0  0  0  0  0  0  0  0
    1.8433   -0.0041    1.4793 O   0  0  0  0  0  0  0  0  0  0  0  0
    3.1455    0.9769   -0.2573 C   0  0  0  0  0  0  0  0  0  0  0  0
    4.2277    0.1656    0.0630 O   0  0  0  0  0  1  0  0  0  0  0  0
    3.3201    1.9814   -0.9964 O   0  0  0  0  0  0  0  0  0  0  0  0
    0.7846   -0.1960    0.0000 H   0  0  0  0  0  0  0  0  0  0  0  0
   -0.7815   -0.2081    0.0000 H   0  0  0  0  0  0  0  0  0  0  0  0
   -0.7807   -0.2109    0.0000 H   0  0  0  0  0  0  0  0  0  0  0  0
    0.7853   -0.1932    0.0000 H   0  0  0  0  0  0  0  0  0  0  0  0
   -3.3614    1.3076    0.1081 H   0  0  0  0  0  0  0  0  0  0  0  0
   -1.1451    1.1147   -1.6540 H   0  0  0  0  0  0  0  0  0  0  0  0
   -1.7388    2.5233   -0.7497 H   0  0  0  0  0  0  0  0  0  0  0  0
    0.3025    1.6095    0.2967 H   0  0  0  0  0  0  0  0  0  0  0  0
   -0.4852    1.6669    2.3313 H   0  0  0  0  0  0  0  0  0  0  0  0
    0.3182   -0.5188    1.5348 H   0  0  0  0  0  0  0  0  0  0  0  0
   -1.3678   -1.8397    1.5891 H   0  0  0  0  0  0  0  0  0  0  0  0
   -0.3500   -0.9990   -1.4448 H   0  0  0  0  0  0  0  0  0  0  0  0
    0.8668   -2.6848    0.4988 H   0  0  0  0  0  0  0  0  0  0  0  0
    2.2467   -0.3869    0.1016 H   0  0  0  0  0  0  0  0  0  0  0  0
    2.9078   -2.1851   -0.8589 H   0  0  0  0  0  0  0  0  0  0  0  0
   -3.8108    1.4127   -0.6327 H   0  0  0  0  0  0  0  0  0  0  0  0
   -3.1313   -0.6649   -0.9989 H   0  0  0  0  0  0  0  0  0  0  0  0
   -2.9101   -0.8972    0.7691 H   0  0  0  0  0  0  0  0  0  0  0  0
   -1.3280    1.0339   -1.0373 H   0  0  0  0  0  0  0  0  0  0  0  0
   -1.1538    0.5357    1.7822 H   0  0  0  0  0  0  0  0  0  0  0  0
   -0.2570   -1.3227    0.6406 H   0  0  0  0  0  0  0  0  0  0  0  0
   -0.5004   -2.5846   -1.0781 H   0  0  0  0  0  0  0  0  0  0  0  0
    0.9039    0.2968   -1.7275 H   0  0  0  0  0  0  0  0  0  0  0  0
    1.9731   -1.9348   -0.2955 H   0  0  0  0  0  0  0  0  0  0  0  0
    1.1961    1.5802    0.3192 H   0  0  0  0  0  0  0  0  0  0  0  0
    2.0356    0.7048    2.1477 H   0  0  0  0  0  0  0  0  0  0  0  0
  4  5  1  0
  5  6  1  0
  6  7  1  0
  6  8  1  0
  8  9  1  0
  8 10  1  0
 10 11  1  0
 10 12  1  0
 12 13  1  0
 12 14  1  0
 14 15  1  0
 14 16  2  0
 17 18  1  0
 18 19  1  0
 19 20  1  0
 19 21  1  0
 21 22  1  0
 21 23  1  0
 23 24  1  0
 23 25  1  0
 25 26  1  0
 25 27  1  0
 27 28  1  0
 27 29  2  0
  1 30  1  0
  1 31  1  0
  2 32  1  0
  2 33  1  0
  4 34  1  0
  5 35  1  0
  5 36  1  0
  6 37  1  6
  7 38  1  0
  8 39  1  1
  9 40  1  0
 10 41  1  6
 11 42  1  0
 12 43  1  1
 13 44  1  0
 17 45  1  0
 18 46  1  0
 18 47  1  0
 19 48  1  6
 20 49  1  0
 21 50  1  1
 22 51  1  0
 23 52  1  6
 24 53  1  0
 25 54  1  1
 26 55  1  0
M  CHG  3   3   2  15  -1  28  -1
M  END
$$$$
