
     RDKit          3D

 26 28  0  0  0  0  0  0  0  0999 V2000
   -1.6524   -1.6146   -1.1478 C   0  0  0  0  0  0  0  0  0  0  0  0
   -2.0200   -0.6086   -0.1578 N   0  0  0  0  0  0  0  0  0  0  0  0
   -3.0348    0.2738   -0.2595 C   0  0  0  0  0  0  0  0  0  0  0  0
   -3.0890    1.1305    0.7833 N   0  0  0  0  0  0  0  0  0  0  0  0
   -2.0494    0.7659    1.5617 C   0  0  0  0  0  0  0  0  0  0  0  0
   -1.3765   -0.2949    0.9815 C   0  0  0  0  0  0  0  0  0  0  0  0
    0.0992   -1.1198    1.5978 S   0  0  0  0  0  0  0  0  0  0  0  0
    1.2015    0.0195    0.7627 C   0  0  0  0  0  0  0  0  0  0  0  0
    1.4533    1.2538    1.2912 N   0  0  0  0  0  0  0  0  0  0  0  0
    2.2865    2.1440    0.6626 C   0  0  0  0  0  0  0  0  0  0  0  0
    2.8958    1.8109   -0.5157 N   0  0  0  0  0  0  0  0  0  0  0  0
    2.6509    0.5848   -1.0367 C   0  0  0  0  0  0  0  0  0  0  0  0
    1.8335   -0.3061   -0.4312 C   0  0  0  0  0  0  0  0  0  0  0  0
    1.8103   -1.4380   -1.1441 N   0  0  0  0  0  0  0  0  0  0  0  0
    2.6325   -1.1759   -2.1914 C   0  0  0  0  0  0  0  0  0  0  0  0
    3.1778    0.0711   -2.1605 N   0  0  0  0  0  0  0  0  0  0  0  0
   -1.7300    1.4219    2.7951 N   0  0  0  0  0  4  0  0  0  0  0  0
   -2.4786    2.4999    3.2056 O   0  0  0  0  0  1  0  0  0  0  0  0
   -0.8026    1.0126    3.5223 O   0  0  0  0  0  0  0  0  0  0  0  0
   -1.2254   -2.5088   -0.6476 H   0  0  0  0  0  0  0  0  0  0  0  0
   -2.5491   -1.9323   -1.7212 H   0  0  0  0  0  0  0  0  0  0  0  0
   -0.9081   -1.1881   -1.8514 H   0  0  0  0  0  0  0  0  0  0  0  0
   -3.7306    0.3008   -1.0884 H   0  0  0  0  0  0  0  0  0  0  0  0
    2.4646    3.1152    1.1033 H   0  0  0  0  0  0  0  0  0  0  0  0
    1.2977   -2.3241   -0.9406 H   0  0  0  0  0  0  0  0  0  0  0  0
    2.8430   -1.8936   -2.9732 H   0  0  0  0  0  0  0  0  0  0  0  0
  1  2  1  0
  2  3  1  0
  3  4  2  0
  4  5  1  0
  5  6  2  0
  6  7  1  0
  7  8  1  0
  8  9  2  0
  9 10  1  0
 10 11  2  0
 11 12  1  0
 12 13  2  0
 13 14  1  0
 14 15  1  0
 15 16  2  0
  5 17  1  0
 17 18  1  0
 17 19  2  0
  6  2  1  0
 13  8  1  0
 16 12  1  0
  1 20  1  0
  1 21  1  0
  1 22  1  0
  3 23  1  0
 10 24  1  0
 14 25  1  0
 15 26  1  0
M  CHG  2  17   1  18  -1
M  END
$$$$
