
     RDKit          3D

 30 31  0  0  0  0  0  0  0  0999 V2000
    5.2420    0.7120    0.1845 C   0  0  0  0  0  0  0  0  0  0  0  0
    3.9194    0.2000   -0.2845 C   0  0  0  0  0  0  0  0  0  0  0  0
    3.8608   -0.8951   -0.9067 O   0  0  0  0  0  0  0  0  0  0  0  0
    2.7332    0.9751   -0.0641 N   0  0  0  0  0  0  0  0  0  0  0  0
    1.4097    0.5285   -0.4936 C   0  0  0  0  0  0  0  0  0  0  0  0
    0.8895   -0.5723    0.4333 C   0  0  0  0  0  0  0  0  0  0  0  0
   -0.4807   -1.0115    0.0122 C   0  0  0  0  0  0  0  0  0  0  0  0
   -0.7866   -2.0641   -0.8451 C   0  0  0  0  0  0  0  0  0  0  0  0
   -2.1207   -2.1249   -1.0597 N   0  0  0  0  0  0  0  0  0  0  0  0
   -2.6570   -1.1123   -0.3562 C   0  0  0  0  0  0  0  0  0  0  0  0
   -1.6866   -0.4060    0.3064 C   0  0  0  0  0  0  0  0  0  0  0  0
   -1.9919    0.7092    1.0867 C   0  0  0  0  0  0  0  0  0  0  0  0
   -3.3455    1.0941    1.1857 C   0  0  0  0  0  0  0  0  0  0  0  0
   -3.7107    2.1980    1.9523 O   0  0  0  0  0  0  0  0  0  0  0  0
   -4.3439    0.3606    0.5044 C   0  0  0  0  0  0  0  0  0  0  0  0
   -4.0022   -0.7563   -0.2798 C   0  0  0  0  0  0  0  0  0  0  0  0
    5.5750    1.5369   -0.4789 H   0  0  0  0  0  0  0  0  0  0  0  0
    6.0016   -0.0983    0.1668 H   0  0  0  0  0  0  0  0  0  0  0  0
    5.1505    1.0922    1.2234 H   0  0  0  0  0  0  0  0  0  0  0  0
    2.8219    1.9204    0.3730 H   0  0  0  0  0  0  0  0  0  0  0  0
    0.7096    1.3923   -0.4635 H   0  0  0  0  0  0  0  0  0  0  0  0
    1.4577    0.1635   -1.5431 H   0  0  0  0  0  0  0  0  0  0  0  0
    0.8533   -0.1958    1.4782 H   0  0  0  0  0  0  0  0  0  0  0  0
    1.5756   -1.4457    0.4094 H   0  0  0  0  0  0  0  0  0  0  0  0
   -0.0709   -2.7398   -1.2951 H   0  0  0  0  0  0  0  0  0  0  0  0
   -2.6261   -2.8114   -1.6628 H   0  0  0  0  0  0  0  0  0  0  0  0
   -1.2149    1.2623    1.5986 H   0  0  0  0  0  0  0  0  0  0  0  0
   -3.0205    2.7458    2.4528 H   0  0  0  0  0  0  0  0  0  0  0  0
   -5.3810    0.6607    0.5824 H   0  0  0  0  0  0  0  0  0  0  0  0
   -4.7608   -1.3183   -0.8090 H   0  0  0  0  0  0  0  0  0  0  0  0
  1  2  1  0
  2  3  2  0
  2  4  1  0
  4  5  1  0
  5  6  1  0
  6  7  1  0
  7  8  2  0
  8  9  1  0
  9 10  1  0
 10 11  2  0
 11 12  1  0
 12 13  2  0
 13 14  1  0
 13 15  1  0
 15 16  2  0
 11  7  1  0
 16 10  1  0
  1 17  1  0
  1 18  1  0
  1 19  1  0
  4 20  1  0
  5 21  1  0
  5 22  1  0
  6 23  1  0
  6 24  1  0
  8 25  1  0
  9 26  1  0
 12 27  1  0
 14 28  1  0
 15 29  1  0
 16 30  1  0
M  END
$$$$
