
     RDKit          3D

 64 69  0  0  0  0  0  0  0  0999 V2000
    7.9093    0.7682   -2.8301 C   0  0  0  0  0  0  0  0  0  0  0  0
    6.9322    0.5501   -1.7236 C   0  0  0  0  0  0  0  0  0  0  0  0
    6.8037   -0.6296   -1.0735 N   0  0  0  0  0  0  0  0  0  0  0  0
    5.8861   -0.3666   -0.1213 C   0  0  0  0  0  0  0  0  0  0  0  0
    5.5015    0.9494   -0.1962 C   0  0  0  0  0  0  0  0  0  0  0  0
    4.6613    1.6583    0.8209 C   0  0  0  0  0  0  0  0  0  0  0  0
    3.2267    1.1113    0.8763 C   0  0  0  0  0  0  0  0  0  0  0  0
    3.1363   -0.3607    0.7905 N   0  0  0  0  0  0  0  0  0  0  0  0
    2.0375   -0.9685    0.0832 C   0  0  0  0  0  0  0  0  0  0  0  0
    2.2470   -2.0004   -0.6116 O   0  0  0  0  0  0  0  0  0  0  0  0
    0.6674   -0.4143    0.1511 C   0  0  0  0  0  0  0  0  0  0  0  0
   -0.1745   -0.4776   -0.9705 C   0  0  0  0  0  0  0  0  0  0  0  0
   -1.4727    0.0357   -0.9092 C   0  0  0  0  0  0  0  0  0  0  0  0
   -1.9616    0.5928    0.2804 C   0  0  0  0  0  0  0  0  0  0  0  0
   -3.2964    1.1215    0.3099 N   0  0  0  0  0  0  0  0  0  0  0  0
   -4.2296    0.8809    1.3777 C   0  0  0  0  0  0  0  0  0  0  0  0
   -3.8340    0.4257    2.4847 O   0  0  0  0  0  0  0  0  0  0  0  0
   -5.6701    1.1644    1.1910 C   0  0  0  0  0  0  0  0  0  0  0  0
   -6.3494    1.8714    2.1978 C   0  0  0  0  0  0  0  0  0  0  0  0
   -7.6927    2.2167    2.0410 C   0  0  0  0  0  0  0  0  0  0  0  0
   -8.3766    1.8567    0.8806 C   0  0  0  0  0  0  0  0  0  0  0  0
   -7.7252    1.1345   -0.1206 C   0  0  0  0  0  0  0  0  0  0  0  0
   -6.3760    0.7657    0.0242 C   0  0  0  0  0  0  0  0  0  0  0  0
   -5.7551   -0.0786   -1.0259 C   0  0  0  0  0  0  0  0  0  0  0  0
   -5.1433   -1.3000   -0.6921 C   0  0  0  0  0  0  0  0  0  0  0  0
   -4.5428   -2.0822   -1.6830 C   0  0  0  0  0  0  0  0  0  0  0  0
   -4.5565   -1.6579   -3.0141 C   0  0  0  0  0  0  0  0  0  0  0  0
   -5.1749   -0.4527   -3.3573 C   0  0  0  0  0  0  0  0  0  0  0  0
   -5.7761    0.3334   -2.3695 C   0  0  0  0  0  0  0  0  0  0  0  0
   -1.1193    0.6612    1.4025 C   0  0  0  0  0  0  0  0  0  0  0  0
    0.1807    0.1510    1.3408 C   0  0  0  0  0  0  0  0  0  0  0  0
    4.1064   -1.2331    1.4055 C   0  0  0  0  0  0  0  0  0  0  0  0
    3.6928   -2.1258    2.4066 C   0  0  0  0  0  0  0  0  0  0  0  0
    4.5762   -3.0847    2.9082 C   0  0  0  0  0  0  0  0  0  0  0  0
    5.8732   -3.1762    2.3991 C   0  0  0  0  0  0  0  0  0  0  0  0
    6.2955   -2.3013    1.3949 C   0  0  0  0  0  0  0  0  0  0  0  0
    5.4230   -1.3194    0.9002 C   0  0  0  0  0  0  0  0  0  0  0  0
    6.1702    1.5341   -1.2012 N   0  0  0  0  0  0  0  0  0  0  0  0
    8.0900   -0.1845   -3.3706 H   0  0  0  0  0  0  0  0  0  0  0  0
    7.5101    1.5170   -3.5459 H   0  0  0  0  0  0  0  0  0  0  0  0
    8.8672    1.1378   -2.4093 H   0  0  0  0  0  0  0  0  0  0  0  0
    5.1382    1.5420    1.8182 H   0  0  0  0  0  0  0  0  0  0  0  0
    4.6290    2.7453    0.5919 H   0  0  0  0  0  0  0  0  0  0  0  0
    2.6583    1.5687    0.0362 H   0  0  0  0  0  0  0  0  0  0  0  0
    2.7585    1.4532    1.8230 H   0  0  0  0  0  0  0  0  0  0  0  0
    0.1775   -0.9112   -1.8985 H   0  0  0  0  0  0  0  0  0  0  0  0
   -2.1056   -0.0128   -1.7866 H   0  0  0  0  0  0  0  0  0  0  0  0
   -3.6548    1.5660   -0.5651 H   0  0  0  0  0  0  0  0  0  0  0  0
   -5.8306    2.1780    3.0982 H   0  0  0  0  0  0  0  0  0  0  0  0
   -8.2026    2.7710    2.8184 H   0  0  0  0  0  0  0  0  0  0  0  0
   -9.4178    2.1274    0.7614 H   0  0  0  0  0  0  0  0  0  0  0  0
   -8.2830    0.8391   -1.0011 H   0  0  0  0  0  0  0  0  0  0  0  0
   -5.1309   -1.6457    0.3342 H   0  0  0  0  0  0  0  0  0  0  0  0
   -4.0666   -3.0174   -1.4187 H   0  0  0  0  0  0  0  0  0  0  0  0
   -4.0894   -2.2636   -3.7798 H   0  0  0  0  0  0  0  0  0  0  0  0
   -5.1857   -0.1257   -4.3890 H   0  0  0  0  0  0  0  0  0  0  0  0
   -6.2418    1.2705   -2.6486 H   0  0  0  0  0  0  0  0  0  0  0  0
   -1.4545    1.1255    2.3198 H   0  0  0  0  0  0  0  0  0  0  0  0
    0.7990    0.1839    2.2285 H   0  0  0  0  0  0  0  0  0  0  0  0
    2.6786   -2.0857    2.7840 H   0  0  0  0  0  0  0  0  0  0  0  0
    4.2499   -3.7681    3.6815 H   0  0  0  0  0  0  0  0  0  0  0  0
    6.5529   -3.9255    2.7838 H   0  0  0  0  0  0  0  0  0  0  0  0
    7.3079   -2.3782    1.0176 H   0  0  0  0  0  0  0  0  0  0  0  0
    6.1458    2.5395   -1.4833 H   0  0  0  0  0  0  0  0  0  0  0  0
  1  2  1  0
  2  3  2  0
  3  4  1  0
  4  5  2  0
  5  6  1  0
  6  7  1  0
  7  8  1  0
  8  9  1  0
  9 10  2  0
  9 11  1  0
 11 12  2  0
 12 13  1  0
 13 14  2  0
 14 15  1  0
 15 16  1  0
 16 17  2  0
 16 18  1  0
 18 19  2  0
 19 20  1  0
 20 21  2  0
 21 22  1  0
 22 23  2  0
 23 24  1  0
 24 25  2  0
 25 26  1  0
 26 27  2  0
 27 28  1  0
 28 29  2  0
 14 30  1  0
 30 31  2  0
  8 32  1  0
 32 33  2  0
 33 34  1  0
 34 35  2  0
 35 36  1  0
 36 37  2  0
  5 38  1  0
 38  2  1  0
 37  4  1  0
 31 11  1  0
 37 32  1  0
 23 18  1  0
 29 24  1  0
  1 39  1  0
  1 40  1  0
  1 41  1  0
  6 42  1  0
  6 43  1  0
  7 44  1  0
  7 45  1  0
 12 46  1  0
 13 47  1  0
 15 48  1  0
 19 49  1  0
 20 50  1  0
 21 51  1  0
 22 52  1  0
 25 53  1  0
 26 54  1  0
 27 55  1  0
 28 56  1  0
 29 57  1  0
 30 58  1  0
 31 59  1  0
 33 60  1  0
 34 61  1  0
 35 62  1  0
 36 63  1  0
 38 64  1  0
M  END
$$$$
