
     RDKit          3D

 41 44  0  0  0  0  0  0  0  0999 V2000
   -0.0470   -4.9504   -0.6736 O   0  0  0  0  0  0  0  0  0  0  0  0
   -0.3210   -3.8569   -1.5072 C   0  0  0  0  0  0  0  0  0  0  0  0
   -0.6230   -2.6077   -0.6707 C   0  0  1  0  0  0  0  0  0  0  0  0
    0.4901   -2.3016    0.1377 O   0  0  0  0  0  0  0  0  0  0  0  0
    0.5247   -0.9007    0.2429 C   0  0  2  0  0  0  0  0  0  0  0  0
   -0.0482   -0.3222   -1.0445 C   0  0  2  0  0  0  0  0  0  0  0  0
   -0.8412    0.7934   -0.7828 O   0  0  0  0  0  0  0  0  0  0  0  0
   -2.1574    0.4205   -1.1189 C   0  0  2  0  0  0  0  0  0  0  0  0
   -3.1057    0.7794    0.0263 C   0  0  0  0  0  0  0  0  0  0  0  0
   -3.1699    2.5806    0.3062 P   0  0  0  0  0  5  0  0  0  0  0  0
   -4.3103    2.9197    1.5095 O   0  0  0  0  0  0  0  0  0  0  0  0
   -3.6184    3.3657   -1.1238 O   0  0  0  0  0  0  0  0  0  0  0  0
   -1.8138    3.0827    0.7477 O   0  0  0  0  0  0  0  0  0  0  0  0
   -2.2448   -0.9617   -1.3720 O   0  0  0  0  0  0  0  0  0  0  0  0
   -0.9327   -1.3945   -1.5570 C   0  0  2  0  0  0  0  0  0  0  0  0
    1.9307   -0.4270    0.4726 C   0  0  0  0  0  0  0  0  0  0  0  0
    3.1093   -1.0173    0.0129 C   0  0  0  0  0  0  0  0  0  0  0  0
    4.1806   -0.2461    0.3206 N   0  0  0  0  0  0  0  0  0  0  0  0
    3.6840    0.8315    0.9529 C   0  0  0  0  0  0  0  0  0  0  0  0
    2.3296    0.7577    1.0546 C   0  0  0  0  0  0  0  0  0  0  0  0
    1.5919    1.7476    1.6181 N   0  0  0  0  0  0  0  0  0  0  0  0
    2.2459    2.8444    2.1078 C   0  0  0  0  0  0  0  0  0  0  0  0
    3.6113    2.9366    2.0193 N   0  0  0  0  0  0  0  0  0  0  0  0
    4.3532    1.9455    1.4443 C   0  0  0  0  0  0  0  0  0  0  0  0
    5.6053    2.0476    1.3626 O   0  0  0  0  0  0  0  0  0  0  0  0
   -0.9196   -5.2607   -0.3159 H   0  0  0  0  0  0  0  0  0  0  0  0
   -1.1824   -4.0893   -2.1748 H   0  0  0  0  0  0  0  0  0  0  0  0
    0.5680   -3.6698   -2.1472 H   0  0  0  0  0  0  0  0  0  0  0  0
   -1.4909   -2.8273   -0.0073 H   0  0  0  0  0  0  0  0  0  0  0  0
   -0.1020   -0.6044    1.1152 H   0  0  0  0  0  0  0  0  0  0  0  0
    0.7415   -0.0723   -1.7895 H   0  0  0  0  0  0  0  0  0  0  0  0
   -2.4654    0.9679   -2.0370 H   0  0  0  0  0  0  0  0  0  0  0  0
   -4.1299    0.4265   -0.2188 H   0  0  0  0  0  0  0  0  0  0  0  0
   -2.7750    0.2777    0.9608 H   0  0  0  0  0  0  0  0  0  0  0  0
   -3.9962    2.4200    2.3050 H   0  0  0  0  0  0  0  0  0  0  0  0
   -4.5163    3.0065   -1.3375 H   0  0  0  0  0  0  0  0  0  0  0  0
   -0.7464   -1.5811   -2.6394 H   0  0  0  0  0  0  0  0  0  0  0  0
    3.1755   -1.9490   -0.5339 H   0  0  0  0  0  0  0  0  0  0  0  0
    5.1800   -0.4408    0.0891 H   0  0  0  0  0  0  0  0  0  0  0  0
    0.5517    1.6811    1.6799 H   0  0  0  0  0  0  0  0  0  0  0  0
    1.6844    3.6480    2.5658 H   0  0  0  0  0  0  0  0  0  0  0  0
  1  2  1  0
  2  3  1  0
  3  4  1  0
  4  5  1  0
  5  6  1  0
  6  7  1  0
  7  8  1  0
  8  9  1  0
  9 10  1  0
 10 11  1  0
 10 12  1  0
 10 13  2  0
  8 14  1  0
 14 15  1  0
  5 16  1  0
 16 17  2  0
 17 18  1  0
 18 19  1  0
 19 20  2  0
 20 21  1  0
 21 22  1  0
 22 23  2  0
 23 24  1  0
 24 25  2  0
 15  3  1  0
 20 16  1  0
 15  6  1  0
 24 19  1  0
  1 26  1  0
  2 27  1  0
  2 28  1  0
  3 29  1  1
  5 30  1  1
  6 31  1  6
  8 32  1  6
  9 33  1  0
  9 34  1  0
 11 35  1  0
 12 36  1  0
 15 37  1  6
 17 38  1  0
 18 39  1  0
 21 40  1  0
 22 41  1  0
M  END
$$$$
