
     RDKit          3D

 38 38  0  0  0  0  0  0  0  0999 V2000
    6.3978    0.2557    1.0069 O   0  0  0  0  0  0  0  0  0  0  0  0
    6.0129    1.1487    0.0120 C   0  0  0  0  0  0  0  0  0  0  0  0
    6.1321    0.8305   -1.2013 O   0  0  0  0  0  0  0  0  0  0  0  0
    5.4259    2.4726    0.3831 C   0  0  0  0  0  0  0  0  0  0  0  0
    3.9818    2.4616    0.1672 N   0  0  0  0  0  0  0  0  0  0  0  0
    3.0811    1.7437    1.0223 C   0  0  0  0  0  0  0  0  0  0  0  0
    3.5189    1.1087    2.0199 O   0  0  0  0  0  0  0  0  0  0  0  0
    1.6165    1.7047    0.7071 C   0  0  0  0  0  0  0  0  0  0  0  0
    1.3262    0.6321   -0.3464 C   0  0  0  0  0  0  0  0  0  0  0  0
   -0.1671    0.5789   -0.6764 C   0  0  0  0  0  0  0  0  0  0  0  0
   -0.5058   -0.6672   -1.9641 P   0  0  2  0  0  5  0  0  0  0  0  0
    0.0087   -2.2009   -1.4619 O   0  0  0  0  0  0  0  0  0  0  0  0
    0.2318   -0.2842   -3.2273 O   0  0  0  0  0  0  0  0  0  0  0  0
   -2.1945   -0.7033   -2.3040 O   0  0  0  0  0  0  0  0  0  0  0  0
   -3.1933   -1.0941   -1.3992 C   0  0  0  0  0  0  0  0  0  0  0  0
   -2.9134   -1.6300   -0.1278 C   0  0  0  0  0  0  0  0  0  0  0  0
   -3.9548   -1.9999    0.7287 C   0  0  0  0  0  0  0  0  0  0  0  0
   -5.2944   -1.8462    0.3339 C   0  0  0  0  0  0  0  0  0  0  0  0
   -5.5699   -1.3159   -0.9387 C   0  0  0  0  0  0  0  0  0  0  0  0
   -4.5276   -0.9466   -1.7933 C   0  0  0  0  0  0  0  0  0  0  0  0
   -6.3635   -2.2281    1.2188 N   0  0  0  0  0  4  0  0  0  0  0  0
   -6.0894   -2.7470    2.4636 O   0  0  0  0  0  1  0  0  0  0  0  0
   -7.5556   -2.0944    0.8723 O   0  0  0  0  0  0  0  0  0  0  0  0
    6.7847   -0.6501    0.7704 H   0  0  0  0  0  0  0  0  0  0  0  0
    5.6498    2.7127    1.4448 H   0  0  0  0  0  0  0  0  0  0  0  0
    5.8884    3.2615   -0.2484 H   0  0  0  0  0  0  0  0  0  0  0  0
    3.5945    2.9993   -0.6410 H   0  0  0  0  0  0  0  0  0  0  0  0
    1.2966    2.7009    0.3316 H   0  0  0  0  0  0  0  0  0  0  0  0
    1.0431    1.4865    1.6348 H   0  0  0  0  0  0  0  0  0  0  0  0
    1.6534   -0.3577    0.0411 H   0  0  0  0  0  0  0  0  0  0  0  0
    1.9011    0.8599   -1.2713 H   0  0  0  0  0  0  0  0  0  0  0  0
   -0.5081    1.5687   -1.0480 H   0  0  0  0  0  0  0  0  0  0  0  0
   -0.7441    0.3277    0.2375 H   0  0  0  0  0  0  0  0  0  0  0  0
    0.9957   -2.1803   -1.5399 H   0  0  0  0  0  0  0  0  0  0  0  0
   -1.8994   -1.7740    0.2127 H   0  0  0  0  0  0  0  0  0  0  0  0
   -3.7102   -2.4088    1.7005 H   0  0  0  0  0  0  0  0  0  0  0  0
   -6.5910   -1.1863   -1.2739 H   0  0  0  0  0  0  0  0  0  0  0  0
   -4.7587   -0.5393   -2.7696 H   0  0  0  0  0  0  0  0  0  0  0  0
  1  2  1  0
  2  3  2  0
  2  4  1  0
  4  5  1  0
  5  6  1  0
  6  7  2  0
  6  8  1  0
  8  9  1  0
  9 10  1  0
 10 11  1  0
 11 12  1  1
 11 13  2  0
 11 14  1  0
 14 15  1  0
 15 16  2  0
 16 17  1  0
 17 18  2  0
 18 19  1  0
 19 20  2  0
 18 21  1  0
 21 22  1  0
 21 23  2  0
 20 15  1  0
  1 24  1  0
  4 25  1  0
  4 26  1  0
  5 27  1  0
  8 28  1  0
  8 29  1  0
  9 30  1  0
  9 31  1  0
 10 32  1  0
 10 33  1  0
 12 34  1  0
 16 35  1  0
 17 36  1  0
 19 37  1  0
 20 38  1  0
M  CHG  2  21   1  22  -1
M  END
$$$$
