
     RDKit          3D

 28 27  0  0  0  0  0  0  0  0999 V2000
    2.7070    0.4334    0.1251 C   0  0  1  0  0  0  0  0  0  0  0  0
    3.6557   -0.6247   -0.2354 N   0  0  0  0  0  0  0  0  0  0  0  0
    1.5101    0.4772   -0.8398 C   0  0  0  0  0  0  0  0  0  0  0  0
    0.7679   -0.7159   -0.7471 O   0  0  0  0  0  0  0  0  0  0  0  0
   -0.5755   -0.6296   -1.8005 P   0  0  0  0  0  5  0  0  0  0  0  0
   -0.7318    0.8936   -2.5341 O   0  0  0  0  0  0  0  0  0  0  0  0
   -0.4120   -1.6793   -2.8762 O   0  0  0  0  0  0  0  0  0  0  0  0
   -2.0019   -0.9701   -0.9262 O   0  0  0  0  0  0  0  0  0  0  0  0
   -2.1417   -0.0608    0.1494 C   0  0  0  0  0  0  0  0  0  0  0  0
   -1.7602   -0.7580    1.4577 C   0  0  0  0  0  0  0  0  0  0  0  0
   -3.5984    0.3980    0.2067 C   0  0  0  0  0  0  0  0  0  0  0  0
    2.2445    0.2690    1.5467 C   0  0  0  0  0  0  0  0  0  0  0  0
    1.9520    1.3959    2.3085 O   0  0  0  0  0  0  0  0  0  0  0  0
    2.0717   -0.8798    2.0370 O   0  0  0  0  0  0  0  0  0  0  0  0
    3.2373    1.4091    0.0551 H   0  0  0  0  0  0  0  0  0  0  0  0
    3.1566   -1.5415   -0.3045 H   0  0  0  0  0  0  0  0  0  0  0  0
    4.0464   -0.4138   -1.1826 H   0  0  0  0  0  0  0  0  0  0  0  0
    0.8807    1.3545   -0.5646 H   0  0  0  0  0  0  0  0  0  0  0  0
    1.8986    0.6158   -1.8742 H   0  0  0  0  0  0  0  0  0  0  0  0
   -0.1298    0.8669   -3.3202 H   0  0  0  0  0  0  0  0  0  0  0  0
   -1.5236    0.8634    0.0515 H   0  0  0  0  0  0  0  0  0  0  0  0
   -2.3983   -1.6526    1.6226 H   0  0  0  0  0  0  0  0  0  0  0  0
   -0.7006   -1.0834    1.4218 H   0  0  0  0  0  0  0  0  0  0  0  0
   -1.8809   -0.0621    2.3153 H   0  0  0  0  0  0  0  0  0  0  0  0
   -3.8649    0.9138   -0.7403 H   0  0  0  0  0  0  0  0  0  0  0  0
   -4.2770   -0.4718    0.3407 H   0  0  0  0  0  0  0  0  0  0  0  0
   -3.7483    1.1089    1.0475 H   0  0  0  0  0  0  0  0  0  0  0  0
    1.6164    1.3068    3.2602 H   0  0  0  0  0  0  0  0  0  0  0  0
  1  2  1  0
  1  3  1  0
  3  4  1  0
  4  5  1  0
  5  6  1  0
  5  7  2  0
  5  8  1  0
  8  9  1  0
  9 10  1  0
  9 11  1  0
  1 12  1  0
 12 13  1  0
 12 14  2  0
  1 15  1  1
  2 16  1  0
  2 17  1  0
  3 18  1  0
  3 19  1  0
  6 20  1  0
  9 21  1  0
 10 22  1  0
 10 23  1  0
 10 24  1  0
 11 25  1  0
 11 26  1  0
 11 27  1  0
 13 28  1  0
M  END
$$$$
