
     RDKit          3D

 24 24  0  0  0  0  0  0  0  0999 V2000
   -3.2224   -0.5668   -0.9573 N   0  0  0  0  0  0  0  0  0  0  0  0
   -1.9114   -0.6245   -0.3079 C   0  0  1  0  0  0  0  0  0  0  0  0
   -0.9922    0.4627   -0.8931 C   0  0  0  0  0  0  0  0  0  0  0  0
    0.4226    0.3309   -0.3868 C   0  0  0  0  0  0  0  0  0  0  0  0
    1.2974   -0.6009   -0.9690 C   0  0  0  0  0  0  0  0  0  0  0  0
    2.6006   -0.7460   -0.4822 C   0  0  0  0  0  0  0  0  0  0  0  0
    3.4365   -1.6472   -1.0555 F   0  0  0  0  0  0  0  0  0  0  0  0
    3.0395    0.0330    0.5947 C   0  0  0  0  0  0  0  0  0  0  0  0
    4.3395   -0.1194    1.0725 O   0  0  0  0  0  0  0  0  0  0  0  0
    2.1674    0.9580    1.1846 C   0  0  0  0  0  0  0  0  0  0  0  0
    0.8647    1.1044    0.6989 C   0  0  0  0  0  0  0  0  0  0  0  0
   -2.0551   -0.4757    1.1857 C   0  0  0  0  0  0  0  0  0  0  0  0
   -2.6093    0.6825    1.7235 O   0  0  0  0  0  0  0  0  0  0  0  0
   -1.6673   -1.3988    1.9508 O   0  0  0  0  0  0  0  0  0  0  0  0
   -3.8153   -1.3448   -0.5856 H   0  0  0  0  0  0  0  0  0  0  0  0
   -3.6963    0.3333   -0.7111 H   0  0  0  0  0  0  0  0  0  0  0  0
   -1.4620   -1.6185   -0.5323 H   0  0  0  0  0  0  0  0  0  0  0  0
   -1.3951    1.4723   -0.6552 H   0  0  0  0  0  0  0  0  0  0  0  0
   -0.9874    0.3760   -2.0021 H   0  0  0  0  0  0  0  0  0  0  0  0
    0.9677   -1.2151   -1.7979 H   0  0  0  0  0  0  0  0  0  0  0  0
    4.6855    0.4296    1.8508 H   0  0  0  0  0  0  0  0  0  0  0  0
    2.4970    1.5615    2.0207 H   0  0  0  0  0  0  0  0  0  0  0  0
    0.2004    1.8178    1.1709 H   0  0  0  0  0  0  0  0  0  0  0  0
   -2.7051    0.7958    2.7255 H   0  0  0  0  0  0  0  0  0  0  0  0
  1  2  1  0
  2  3  1  0
  3  4  1  0
  4  5  2  0
  5  6  1  0
  6  7  1  0
  6  8  2  0
  8  9  1  0
  8 10  1  0
 10 11  2  0
  2 12  1  0
 12 13  1  0
 12 14  2  0
 11  4  1  0
  1 15  1  0
  1 16  1  0
  2 17  1  1
  3 18  1  0
  3 19  1  0
  5 20  1  0
  9 21  1  0
 10 22  1  0
 11 23  1  0
 13 24  1  0
M  END
$$$$
