
     RDKit          3D

 39 41  0  0  0  0  0  0  0  0999 V2000
    3.8031   -3.0861   -0.5234 N   0  0  0  0  0  0  0  0  0  0  0  0
    3.4606   -2.7396    0.8536 C   0  0  0  0  0  0  0  0  0  0  0  0
    2.3902   -1.6452    0.8854 C   0  0  0  0  0  0  0  0  0  0  0  0
    2.9267   -0.3536    0.4598 N   0  0  0  0  0  0  0  0  0  0  0  0
    2.0778    0.7906    0.3555 C   0  0  0  0  0  0  0  0  0  0  0  0
    2.4918    1.9907   -0.0859 N   0  0  0  0  0  0  0  0  0  0  0  0
    1.4255    2.7748   -0.0499 N   0  0  0  0  0  0  0  0  0  0  0  0
    0.4043    2.0213    0.4109 C   0  0  0  0  0  0  0  0  0  0  0  0
    0.8057    0.7986    0.6673 O   0  0  0  0  0  0  0  0  0  0  0  0
   -0.9792    2.5211    0.6027 C   0  0  0  0  0  0  0  0  0  0  0  0
   -2.0588    1.6576    0.9257 C   0  0  0  0  0  0  0  0  0  0  0  0
   -1.8882    0.2357    1.0261 N   0  0  0  0  0  0  0  0  0  0  0  0
   -1.6048   -0.6178   -0.1005 C   0  0  0  0  0  0  0  0  0  0  0  0
   -1.5750   -0.1135   -1.4160 C   0  0  0  0  0  0  0  0  0  0  0  0
   -1.2696   -0.9550   -2.4893 C   0  0  0  0  0  0  0  0  0  0  0  0
   -0.9989   -2.3072   -2.2660 C   0  0  0  0  0  0  0  0  0  0  0  0
   -0.5243   -3.5708   -3.8860 I   0  0  0  0  0  0  0  0  0  0  0  0
   -1.0410   -2.8211   -0.9676 C   0  0  0  0  0  0  0  0  0  0  0  0
   -1.3441   -1.9841    0.1109 C   0  0  0  0  0  0  0  0  0  0  0  0
   -1.3593   -2.5021    1.3649 F   0  0  0  0  0  0  0  0  0  0  0  0
   -3.3316    2.1975    1.1711 C   0  0  0  0  0  0  0  0  0  0  0  0
   -4.3654    1.3804    1.4961 F   0  0  0  0  0  0  0  0  0  0  0  0
   -3.5512    3.5721    1.0607 C   0  0  0  0  0  0  0  0  0  0  0  0
   -4.7867    4.0836    1.2863 F   0  0  0  0  0  0  0  0  0  0  0  0
   -2.5013    4.4209    0.7134 C   0  0  0  0  0  0  0  0  0  0  0  0
   -1.2251    3.9022    0.4883 C   0  0  0  0  0  0  0  0  0  0  0  0
    4.4248   -3.9264   -0.4941 H   0  0  0  0  0  0  0  0  0  0  0  0
    4.3767   -2.3115   -0.9286 H   0  0  0  0  0  0  0  0  0  0  0  0
    4.3678   -2.4105    1.4083 H   0  0  0  0  0  0  0  0  0  0  0  0
    3.0551   -3.6416    1.3622 H   0  0  0  0  0  0  0  0  0  0  0  0
    1.5499   -1.9361    0.2199 H   0  0  0  0  0  0  0  0  0  0  0  0
    1.9995   -1.5510    1.9216 H   0  0  0  0  0  0  0  0  0  0  0  0
    3.9380   -0.2463    0.2190 H   0  0  0  0  0  0  0  0  0  0  0  0
   -2.1357   -0.2067    1.9398 H   0  0  0  0  0  0  0  0  0  0  0  0
   -1.7855    0.9280   -1.6183 H   0  0  0  0  0  0  0  0  0  0  0  0
   -1.2426   -0.5547   -3.4945 H   0  0  0  0  0  0  0  0  0  0  0  0
   -0.8306   -3.8683   -0.7928 H   0  0  0  0  0  0  0  0  0  0  0  0
   -2.6733    5.4861    0.6265 H   0  0  0  0  0  0  0  0  0  0  0  0
   -0.4252    4.5880    0.2383 H   0  0  0  0  0  0  0  0  0  0  0  0
  1  2  1  0
  2  3  1  0
  3  4  1  0
  4  5  1  0
  5  6  2  0
  6  7  1  0
  7  8  2  0
  8  9  1  0
  8 10  1  0
 10 11  1  0
 11 12  1  0
 12 13  1  0
 13 14  2  0
 14 15  1  0
 15 16  2  0
 16 17  1  0
 16 18  1  0
 18 19  2  0
 19 20  1  0
 11 21  2  0
 21 22  1  0
 21 23  1  0
 23 24  1  0
 23 25  2  0
 25 26  1  0
  9  5  1  0
 26 10  2  0
 19 13  1  0
  1 27  1  0
  1 28  1  0
  2 29  1  0
  2 30  1  0
  3 31  1  0
  3 32  1  0
  4 33  1  0
 12 34  1  0
 14 35  1  0
 15 36  1  0
 18 37  1  0
 25 38  1  0
 26 39  1  0
M  END
$$$$
