
     RDKit          3D

 46 48  0  0  0  0  0  0  0  0999 V2000
   -6.3345   -1.6420   -0.1583 C   0  0  0  0  0  0  0  0  0  0  0  0
   -5.3201   -0.8390    0.4329 O   0  0  0  0  0  0  0  0  0  0  0  0
   -5.0300    0.4579   -0.0050 C   0  0  0  0  0  0  0  0  0  0  0  0
   -5.6908    0.9581   -0.9567 O   0  0  0  0  0  0  0  0  0  0  0  0
   -3.9500    1.2433    0.6500 C   0  0  0  0  0  0  0  0  0  0  0  0
   -3.9661    2.6580    0.6061 C   0  0  0  0  0  0  0  0  0  0  0  0
   -5.0021    3.3376   -0.0358 O   0  0  0  0  0  0  0  0  0  0  0  0
   -2.9455    3.3921    1.2225 C   0  0  0  0  0  0  0  0  0  0  0  0
   -1.9129    2.7401    1.8899 C   0  0  0  0  0  0  0  0  0  0  0  0
   -1.8840    1.3485    1.9453 C   0  0  0  0  0  0  0  0  0  0  0  0
   -2.8921    0.5840    1.3240 C   0  0  0  0  0  0  0  0  0  0  0  0
   -2.8617   -0.8231    1.3449 O   0  0  0  0  0  0  0  0  0  0  0  0
   -1.8387   -1.6258    1.9345 C   0  0  0  0  0  0  0  0  0  0  0  0
   -0.5700   -1.5377    1.1386 C   0  0  0  0  0  0  0  0  0  0  0  0
    0.5292   -2.1911    1.5314 C   0  0  0  0  0  0  0  0  0  0  0  0
    1.8178   -2.1485    0.7985 C   0  0  0  0  0  0  0  0  0  0  0  0
    2.1653   -1.0841   -0.0570 C   0  0  0  0  0  0  0  0  0  0  0  0
    3.4044   -1.0661   -0.7234 C   0  0  0  0  0  0  0  0  0  0  0  0
    3.7214    0.0785   -1.6115 C   0  0  0  0  0  0  0  0  0  0  0  0
    4.9621    0.4791   -2.0767 C   0  0  0  0  0  0  0  0  0  0  0  0
    4.6790    1.5934   -2.8381 C   0  0  0  0  0  0  0  0  0  0  0  0
    3.3551    1.8348   -2.8195 N   0  0  0  0  0  0  0  0  0  0  0  0
    2.8165    0.9124   -2.0766 O   0  0  0  0  0  0  0  0  0  0  0  0
    5.6550    2.4175   -3.5586 C   0  0  0  0  0  0  0  0  0  0  0  0
    7.0079    2.0944   -3.5160 O   0  0  0  0  0  0  0  0  0  0  0  0
    5.2691    3.4196   -4.2175 O   0  0  0  0  0  0  0  0  0  0  0  0
    4.2989   -2.1390   -0.5307 C   0  0  0  0  0  0  0  0  0  0  0  0
    5.4820   -2.2015   -1.1896 F   0  0  0  0  0  0  0  0  0  0  0  0
    3.9632   -3.1855    0.3311 C   0  0  0  0  0  0  0  0  0  0  0  0
    2.7376   -3.1875    0.9974 C   0  0  0  0  0  0  0  0  0  0  0  0
   -7.3218   -1.1438   -0.0561 H   0  0  0  0  0  0  0  0  0  0  0  0
   -6.3709   -2.6223    0.3595 H   0  0  0  0  0  0  0  0  0  0  0  0
   -6.1078   -1.8106   -1.2324 H   0  0  0  0  0  0  0  0  0  0  0  0
   -5.0331    4.3499   -0.0735 H   0  0  0  0  0  0  0  0  0  0  0  0
   -2.9566    4.4742    1.1902 H   0  0  0  0  0  0  0  0  0  0  0  0
   -1.1303    3.3161    2.3669 H   0  0  0  0  0  0  0  0  0  0  0  0
   -1.0648    0.8777    2.4697 H   0  0  0  0  0  0  0  0  0  0  0  0
   -1.6678   -1.3158    2.9880 H   0  0  0  0  0  0  0  0  0  0  0  0
   -2.1830   -2.6814    1.9417 H   0  0  0  0  0  0  0  0  0  0  0  0
   -0.5739   -0.9497    0.2307 H   0  0  0  0  0  0  0  0  0  0  0  0
    0.4687   -2.8199    2.4131 H   0  0  0  0  0  0  0  0  0  0  0  0
    1.4921   -0.2468   -0.1826 H   0  0  0  0  0  0  0  0  0  0  0  0
    5.9359    0.0556   -1.8755 H   0  0  0  0  0  0  0  0  0  0  0  0
    7.6919    2.6556   -4.0094 H   0  0  0  0  0  0  0  0  0  0  0  0
    4.6546   -4.0054    0.4787 H   0  0  0  0  0  0  0  0  0  0  0  0
    2.5005   -4.0118    1.6593 H   0  0  0  0  0  0  0  0  0  0  0  0
  1  2  1  0
  2  3  1  0
  3  4  2  0
  3  5  1  0
  5  6  2  0
  6  7  1  0
  6  8  1  0
  8  9  2  0
  9 10  1  0
 10 11  2  0
 11 12  1  0
 12 13  1  0
 13 14  1  0
 14 15  2  0
 15 16  1  0
 16 17  2  0
 17 18  1  0
 18 19  1  0
 19 20  2  0
 20 21  1  0
 21 22  2  0
 22 23  1  0
 21 24  1  0
 24 25  1  0
 24 26  2  0
 18 27  2  0
 27 28  1  0
 27 29  1  0
 29 30  2  0
 11  5  1  0
 30 16  1  0
 23 19  1  0
  1 31  1  0
  1 32  1  0
  1 33  1  0
  7 34  1  0
  8 35  1  0
  9 36  1  0
 10 37  1  0
 13 38  1  0
 13 39  1  0
 14 40  1  0
 15 41  1  0
 17 42  1  0
 20 43  1  0
 25 44  1  0
 29 45  1  0
 30 46  1  0
M  END
$$$$
