
     RDKit          3D

 49 52  0  0  0  0  0  0  0  0999 V2000
    6.3934    2.3063    0.9333 F   0  0  0  0  0  0  0  0  0  0  0  0
    6.0092    1.2615    1.7528 C   0  0  0  0  0  0  0  0  0  0  0  0
    7.1290    0.7489    2.3848 F   0  0  0  0  0  0  0  0  0  0  0  0
    5.1479    1.7429    2.7236 F   0  0  0  0  0  0  0  0  0  0  0  0
    5.3322    0.2013    0.9206 C   0  0  0  0  0  0  0  0  0  0  0  0
    3.9552    0.2851    0.6472 C   0  0  0  0  0  0  0  0  0  0  0  0
    3.3245   -0.6731   -0.1638 C   0  0  0  0  0  0  0  0  0  0  0  0
    4.0871   -1.7170   -0.7124 C   0  0  0  0  0  0  0  0  0  0  0  0
    5.4597   -1.7904   -0.4679 C   0  0  0  0  0  0  0  0  0  0  0  0
    6.0829   -0.8325    0.3350 C   0  0  0  0  0  0  0  0  0  0  0  0
    1.9105   -0.5833   -0.4222 N   0  0  0  0  0  0  0  0  0  0  0  0
    1.0784   -1.7896   -0.4178 C   0  0  0  0  0  0  0  0  0  0  0  0
   -0.3360   -1.4658    0.0938 C   0  0  0  0  0  0  0  0  0  0  0  0
   -0.9209   -0.2674   -0.5477 N   0  0  0  0  0  0  0  0  0  0  0  0
   -1.3948   -0.5126   -1.9288 C   0  0  0  0  0  0  0  0  0  0  0  0
   -2.8671   -0.9306   -1.9167 C   0  0  0  0  0  0  0  0  0  0  0  0
   -3.6997    0.1335   -1.3506 N   0  0  0  0  0  0  0  0  0  0  0  0
   -4.1777    1.2324   -1.9886 C   0  0  0  0  0  0  0  0  0  0  0  0
   -4.0144    1.4490   -3.2191 O   0  0  0  0  0  0  0  0  0  0  0  0
   -4.8382    2.0852   -1.1705 N   0  0  0  0  0  0  0  0  0  0  0  0
   -4.7562    1.4987    0.0363 C   0  0  0  0  0  0  0  0  0  0  0  0
   -5.2472    1.9652    1.2533 C   0  0  0  0  0  0  0  0  0  0  0  0
   -5.0113    1.1790    2.3965 C   0  0  0  0  0  0  0  0  0  0  0  0
   -4.2968   -0.0367    2.2956 C   0  0  0  0  0  0  0  0  0  0  0  0
   -3.8119   -0.4798    1.0508 C   0  0  0  0  0  0  0  0  0  0  0  0
   -4.0652    0.3206   -0.0657 C   0  0  0  0  0  0  0  0  0  0  0  0
   -0.0310    0.9053   -0.4339 C   0  0  0  0  0  0  0  0  0  0  0  0
    1.3524    0.6284   -1.0268 C   0  0  0  0  0  0  0  0  0  0  0  0
    3.3675    1.0876    1.0755 H   0  0  0  0  0  0  0  0  0  0  0  0
    3.6236   -2.4615   -1.3467 H   0  0  0  0  0  0  0  0  0  0  0  0
    6.0440   -2.5880   -0.9084 H   0  0  0  0  0  0  0  0  0  0  0  0
    7.1512   -0.8999    0.4974 H   0  0  0  0  0  0  0  0  0  0  0  0
    1.5227   -2.5608    0.2492 H   0  0  0  0  0  0  0  0  0  0  0  0
    1.0362   -2.2131   -1.4429 H   0  0  0  0  0  0  0  0  0  0  0  0
   -0.2878   -1.2940    1.1914 H   0  0  0  0  0  0  0  0  0  0  0  0
   -0.9933   -2.3488   -0.0594 H   0  0  0  0  0  0  0  0  0  0  0  0
   -1.3090    0.4021   -2.5572 H   0  0  0  0  0  0  0  0  0  0  0  0
   -0.7990   -1.3004   -2.4362 H   0  0  0  0  0  0  0  0  0  0  0  0
   -3.1933   -1.1402   -2.9585 H   0  0  0  0  0  0  0  0  0  0  0  0
   -2.9982   -1.8708   -1.3413 H   0  0  0  0  0  0  0  0  0  0  0  0
   -5.2884    2.9950   -1.4162 H   0  0  0  0  0  0  0  0  0  0  0  0
   -5.7871    2.9009    1.3195 H   0  0  0  0  0  0  0  0  0  0  0  0
   -5.3770    1.5092    3.3600 H   0  0  0  0  0  0  0  0  0  0  0  0
   -4.1197   -0.6308    3.1826 H   0  0  0  0  0  0  0  0  0  0  0  0
   -3.2634   -1.4082    0.9733 H   0  0  0  0  0  0  0  0  0  0  0  0
    0.0836    1.1704    0.6402 H   0  0  0  0  0  0  0  0  0  0  0  0
   -0.4864    1.7906   -0.9294 H   0  0  0  0  0  0  0  0  0  0  0  0
    2.0054    1.5083   -0.8438 H   0  0  0  0  0  0  0  0  0  0  0  0
    1.2747    0.4880   -2.1263 H   0  0  0  0  0  0  0  0  0  0  0  0
  1  2  1  0
  2  3  1  0
  2  4  1  0
  2  5  1  0
  5  6  2  0
  6  7  1  0
  7  8  2  0
  8  9  1  0
  9 10  2  0
  7 11  1  0
 11 12  1  0
 12 13  1  0
 13 14  1  0
 14 15  1  0
 15 16  1  0
 16 17  1  0
 17 18  1  0
 18 19  2  0
 18 20  1  0
 20 21  1  0
 21 22  2  0
 22 23  1  0
 23 24  2  0
 24 25  1  0
 25 26  2  0
 14 27  1  0
 27 28  1  0
 10  5  1  0
 28 11  1  0
 26 17  1  0
 26 21  1  0
  6 29  1  0
  8 30  1  0
  9 31  1  0
 10 32  1  0
 12 33  1  0
 12 34  1  0
 13 35  1  0
 13 36  1  0
 15 37  1  0
 15 38  1  0
 16 39  1  0
 16 40  1  0
 20 41  1  0
 22 42  1  0
 23 43  1  0
 24 44  1  0
 25 45  1  0
 27 46  1  0
 27 47  1  0
 28 48  1  0
 28 49  1  0
M  END
$$$$
