
     RDKit          3D

 30 31  0  0  0  0  0  0  0  0999 V2000
   -5.7531   -0.1895    0.7218 O   0  0  0  0  0  0  0  0  0  0  0  0
   -5.0927   -0.2012   -0.5027 C   0  0  0  0  0  0  0  0  0  0  0  0
   -5.3493   -1.0991   -1.3488 O   0  0  0  0  0  0  0  0  0  0  0  0
   -4.0444    0.8242   -0.7926 C   0  0  0  0  0  0  0  0  0  0  0  0
   -2.7083    0.3526   -0.2895 C   0  0  0  0  0  0  0  0  0  0  0  0
   -1.8718   -0.4136   -1.1152 C   0  0  0  0  0  0  0  0  0  0  0  0
   -0.6414   -0.8809   -0.6412 C   0  0  0  0  0  0  0  0  0  0  0  0
    0.5402   -2.0843   -1.9213 I   0  0  0  0  0  0  0  0  0  0  0  0
   -0.2369   -0.5825    0.6733 C   0  0  0  0  0  0  0  0  0  0  0  0
    0.9928   -1.0318    1.1663 O   0  0  0  0  0  0  0  0  0  0  0  0
    2.2366   -0.5344    0.7491 C   0  0  0  0  0  0  0  0  0  0  0  0
    3.3956   -1.1965    1.1682 C   0  0  0  0  0  0  0  0  0  0  0  0
    4.6555   -0.7357    0.7768 C   0  0  0  0  0  0  0  0  0  0  0  0
    4.7701    0.3996   -0.0370 C   0  0  0  0  0  0  0  0  0  0  0  0
    6.0256    0.8595   -0.4299 O   0  0  0  0  0  0  0  0  0  0  0  0
    3.6139    1.0738   -0.4545 C   0  0  0  0  0  0  0  0  0  0  0  0
    3.7438    2.7925   -1.6783 I   0  0  0  0  0  0  0  0  0  0  0  0
    2.3533    0.6117   -0.0607 C   0  0  0  0  0  0  0  0  0  0  0  0
   -1.0858    0.1571    1.5097 C   0  0  0  0  0  0  0  0  0  0  0  0
   -0.5225    0.6047    3.4976 I   0  0  0  0  0  0  0  0  0  0  0  0
   -2.3141    0.6216    1.0297 C   0  0  0  0  0  0  0  0  0  0  0  0
   -6.4536   -0.8876    0.9408 H   0  0  0  0  0  0  0  0  0  0  0  0
   -3.9988    1.0170   -1.8869 H   0  0  0  0  0  0  0  0  0  0  0  0
   -4.3223    1.7833   -0.3044 H   0  0  0  0  0  0  0  0  0  0  0  0
   -2.1806   -0.6551   -2.1248 H   0  0  0  0  0  0  0  0  0  0  0  0
    3.3186   -2.0749    1.7963 H   0  0  0  0  0  0  0  0  0  0  0  0
    5.5423   -1.2618    1.1064 H   0  0  0  0  0  0  0  0  0  0  0  0
    6.8763    0.3905   -0.1415 H   0  0  0  0  0  0  0  0  0  0  0  0
    1.4722    1.1494   -0.3844 H   0  0  0  0  0  0  0  0  0  0  0  0
   -2.9614    1.1918    1.6845 H   0  0  0  0  0  0  0  0  0  0  0  0
  1  2  1  0
  2  3  2  0
  2  4  1  0
  4  5  1  0
  5  6  2  0
  6  7  1  0
  7  8  1  0
  7  9  2  0
  9 10  1  0
 10 11  1  0
 11 12  2  0
 12 13  1  0
 13 14  2  0
 14 15  1  0
 14 16  1  0
 16 17  1  0
 16 18  2  0
  9 19  1  0
 19 20  1  0
 19 21  2  0
 21  5  1  0
 18 11  1  0
  1 22  1  0
  4 23  1  0
  4 24  1  0
  6 25  1  0
 12 26  1  0
 13 27  1  0
 15 28  1  0
 18 29  1  0
 21 30  1  0
M  END
$$$$
