
     RDKit          3D

 20 20  0  0  0  0  0  0  0  0999 V2000
   -1.1539   -2.0727    0.9924 O   0  0  0  0  0  0  0  0  0  0  0  0
   -0.4944   -1.2595    0.0574 C   0  0  2  0  0  0  0  0  0  0  0  0
    1.0203   -1.2872    0.3169 C   0  0  0  0  0  0  0  0  0  0  0  0
    1.7142   -0.4471   -0.5893 O   0  0  0  0  0  0  0  0  0  0  0  0
    1.3335    0.9118   -0.4258 C   0  0  2  0  0  0  0  0  0  0  0  0
    1.6666    1.3832    0.8567 O   0  0  0  0  0  0  0  0  0  0  0  0
   -0.1671    1.1121   -0.7112 C   0  0  2  0  0  0  0  0  0  0  0  0
   -0.5116    2.4537   -0.4776 O   0  0  0  0  0  0  0  0  0  0  0  0
   -1.0120    0.1823    0.1761 C   0  0  1  0  0  0  0  0  0  0  0  0
   -2.3544    0.2443   -0.2325 O   0  0  0  0  0  0  0  0  0  0  0  0
   -1.0010   -3.0128    0.7118 H   0  0  0  0  0  0  0  0  0  0  0  0
   -0.6934   -1.6298   -0.9764 H   0  0  0  0  0  0  0  0  0  0  0  0
    1.3850   -2.3258    0.1700 H   0  0  0  0  0  0  0  0  0  0  0  0
    1.2469   -1.0166    1.3728 H   0  0  0  0  0  0  0  0  0  0  0  0
    1.8931    1.5128   -1.1780 H   0  0  0  0  0  0  0  0  0  0  0  0
    2.6554    1.3309    0.9253 H   0  0  0  0  0  0  0  0  0  0  0  0
   -0.3460    0.8573   -1.7833 H   0  0  0  0  0  0  0  0  0  0  0  0
   -1.3574    2.6238   -0.9688 H   0  0  0  0  0  0  0  0  0  0  0  0
   -0.9212    0.5229    1.2358 H   0  0  0  0  0  0  0  0  0  0  0  0
   -2.9026   -0.0835    0.5275 H   0  0  0  0  0  0  0  0  0  0  0  0
  1  2  1  0
  2  3  1  0
  3  4  1  0
  4  5  1  0
  5  6  1  0
  5  7  1  0
  7  8  1  0
  7  9  1  0
  9 10  1  0
  9  2  1  0
  1 11  1  0
  2 12  1  6
  3 13  1  0
  3 14  1  0
  5 15  1  6
  6 16  1  0
  7 17  1  6
  8 18  1  0
  9 19  1  1
 10 20  1  0
M  END
$$$$
