
     RDKit          3D

 28 29  0  0  0  0  0  0  0  0999 V2000
   -4.4385    1.6816   -0.4504 O   0  0  0  0  0  0  0  0  0  0  0  0
   -3.2580    1.1151    0.0286 C   0  0  0  0  0  0  0  0  0  0  0  0
   -2.7709    1.4753    1.2884 C   0  0  0  0  0  0  0  0  0  0  0  0
   -1.5875    0.9194    1.7706 C   0  0  0  0  0  0  0  0  0  0  0  0
   -0.8630    0.0004    0.9977 C   0  0  0  0  0  0  0  0  0  0  0  0
    0.4256   -0.5007    1.5286 C   0  0  0  0  0  0  0  0  0  0  0  0
    0.4523   -0.9709    2.6986 O   0  0  0  0  0  0  0  0  0  0  0  0
    1.6833   -0.4350    0.7410 C   0  0  0  0  0  0  0  0  0  0  0  0
    2.7631   -1.2773    1.0651 C   0  0  0  0  0  0  0  0  0  0  0  0
    3.9517   -1.2204    0.3307 C   0  0  0  0  0  0  0  0  0  0  0  0
    4.0788   -0.3191   -0.7284 C   0  0  0  0  0  0  0  0  0  0  0  0
    3.0189    0.5303   -1.0529 C   0  0  0  0  0  0  0  0  0  0  0  0
    1.8283    0.4780   -0.3219 C   0  0  0  0  0  0  0  0  0  0  0  0
   -1.3632   -0.3959   -0.2685 C   0  0  0  0  0  0  0  0  0  0  0  0
   -2.5611    0.1755   -0.7501 C   0  0  0  0  0  0  0  0  0  0  0  0
   -3.0613   -0.2144   -1.9941 O   0  0  0  0  0  0  0  0  0  0  0  0
   -0.6905   -1.4040   -1.0435 N   0  0  0  0  0  4  0  0  0  0  0  0
   -0.2141   -2.5437   -0.4376 O   0  0  0  0  0  1  0  0  0  0  0  0
   -0.5927   -1.2903   -2.2828 O   0  0  0  0  0  0  0  0  0  0  0  0
   -4.9612    2.3592    0.0924 H   0  0  0  0  0  0  0  0  0  0  0  0
   -3.3074    2.1941    1.8947 H   0  0  0  0  0  0  0  0  0  0  0  0
   -1.2201    1.2283    2.7420 H   0  0  0  0  0  0  0  0  0  0  0  0
    2.6843   -1.9877    1.8786 H   0  0  0  0  0  0  0  0  0  0  0  0
    4.7747   -1.8766    0.5829 H   0  0  0  0  0  0  0  0  0  0  0  0
    4.9997   -0.2765   -1.2953 H   0  0  0  0  0  0  0  0  0  0  0  0
    3.1211    1.2334   -1.8695 H   0  0  0  0  0  0  0  0  0  0  0  0
    1.0277    1.1580   -0.5831 H   0  0  0  0  0  0  0  0  0  0  0  0
   -3.9201    0.1637   -2.3755 H   0  0  0  0  0  0  0  0  0  0  0  0
  1  2  1  0
  2  3  2  0
  3  4  1  0
  4  5  2  0
  5  6  1  0
  6  7  2  0
  6  8  1  0
  8  9  2  0
  9 10  1  0
 10 11  2  0
 11 12  1  0
 12 13  2  0
  5 14  1  0
 14 15  2  0
 15 16  1  0
 14 17  1  0
 17 18  1  0
 17 19  2  0
 15  2  1  0
 13  8  1  0
  1 20  1  0
  3 21  1  0
  4 22  1  0
  9 23  1  0
 10 24  1  0
 11 25  1  0
 12 26  1  0
 13 27  1  0
 16 28  1  0
M  CHG  2  17   1  18  -1
M  END
$$$$
