
     RDKit          3D

 50 50  0  0  0  0  0  0  0  0999 V2000
   -8.4726   -0.1645    0.9729 O   0  0  0  0  0  0  0  0  0  0  0  0
   -7.5789    0.4216    1.8638 C   0  0  0  0  0  0  0  0  0  0  0  0
   -7.4813   -0.0197    3.0401 O   0  0  0  0  0  0  0  0  0  0  0  0
   -6.7113    1.5567    1.4137 C   0  0  0  0  0  0  0  0  0  0  0  0
   -5.2806    1.0948    1.1060 C   0  0  0  0  0  0  0  0  0  0  0  0
   -5.2129    0.2172   -0.1561 C   0  0  0  0  0  0  0  0  0  0  0  0
   -3.7966   -0.3111   -0.4328 C   0  0  0  0  0  0  0  0  0  0  0  0
   -2.8431    0.7812   -0.9369 C   0  0  0  0  0  0  0  0  0  0  0  0
   -1.5449    0.2111   -1.2950 N   0  0  0  0  0  0  0  0  0  0  0  0
   -0.4730    1.0349   -1.7712 C   0  0  0  0  0  0  0  0  0  0  0  0
   -0.6575    2.2677   -1.9632 O   0  0  0  0  0  0  0  0  0  0  0  0
    0.8860    0.4459   -2.0190 C   0  0  0  0  0  0  0  0  0  0  0  0
    1.8942    0.8652   -0.9384 C   0  0  0  0  0  0  0  0  0  0  0  0
    1.5836    0.3054    0.4595 C   0  0  0  0  0  0  0  0  0  0  0  0
    1.9222   -1.4864    0.5908 P   0  0  2  0  0  5  0  0  0  0  0  0
    0.6468   -2.3554   -0.1025 O   0  0  0  0  0  0  0  0  0  0  0  0
    2.0362   -1.8741    2.0482 O   0  0  0  0  0  0  0  0  0  0  0  0
    3.3793   -1.8963   -0.2343 O   0  0  0  0  0  0  0  0  0  0  0  0
    4.6570   -1.4138    0.0876 C   0  0  0  0  0  0  0  0  0  0  0  0
    5.7127   -1.7326   -0.7731 C   0  0  0  0  0  0  0  0  0  0  0  0
    7.0083   -1.2779   -0.5132 C   0  0  0  0  0  0  0  0  0  0  0  0
    7.2738   -0.4929    0.6226 C   0  0  0  0  0  0  0  0  0  0  0  0
    6.2153   -0.1775    1.4910 C   0  0  0  0  0  0  0  0  0  0  0  0
    4.9198   -0.6335    1.2293 C   0  0  0  0  0  0  0  0  0  0  0  0
    8.6059   -0.0209    0.8955 N   0  0  0  0  0  4  0  0  0  0  0  0
    8.8613    0.7472    2.0084 O   0  0  0  0  0  1  0  0  0  0  0  0
    9.5502   -0.2994    0.1275 O   0  0  0  0  0  0  0  0  0  0  0  0
   -9.0569   -0.9410    1.2588 H   0  0  0  0  0  0  0  0  0  0  0  0
   -7.1569    2.0387    0.5166 H   0  0  0  0  0  0  0  0  0  0  0  0
   -6.6779    2.3208    2.2203 H   0  0  0  0  0  0  0  0  0  0  0  0
   -4.8710    0.5404    1.9791 H   0  0  0  0  0  0  0  0  0  0  0  0
   -4.6585    2.0022    0.9571 H   0  0  0  0  0  0  0  0  0  0  0  0
   -5.5811    0.7887   -1.0361 H   0  0  0  0  0  0  0  0  0  0  0  0
   -5.8802   -0.6614   -0.0230 H   0  0  0  0  0  0  0  0  0  0  0  0
   -3.8699   -1.1019   -1.2114 H   0  0  0  0  0  0  0  0  0  0  0  0
   -3.3800   -0.7800    0.4856 H   0  0  0  0  0  0  0  0  0  0  0  0
   -2.6901    1.5434   -0.1443 H   0  0  0  0  0  0  0  0  0  0  0  0
   -3.2820    1.2749   -1.8310 H   0  0  0  0  0  0  0  0  0  0  0  0
   -1.3812   -0.8155   -1.1896 H   0  0  0  0  0  0  0  0  0  0  0  0
    1.2510    0.8101   -3.0034 H   0  0  0  0  0  0  0  0  0  0  0  0
    0.8281   -0.6597   -2.0890 H   0  0  0  0  0  0  0  0  0  0  0  0
    1.9142    1.9756   -0.8786 H   0  0  0  0  0  0  0  0  0  0  0  0
    2.9123    0.5479   -1.2492 H   0  0  0  0  0  0  0  0  0  0  0  0
    0.5284    0.5029    0.7420 H   0  0  0  0  0  0  0  0  0  0  0  0
    2.2245    0.8344    1.1947 H   0  0  0  0  0  0  0  0  0  0  0  0
   -0.1289   -2.1826    0.4887 H   0  0  0  0  0  0  0  0  0  0  0  0
    5.5263   -2.3344   -1.6537 H   0  0  0  0  0  0  0  0  0  0  0  0
    7.8017   -1.5401   -1.2012 H   0  0  0  0  0  0  0  0  0  0  0  0
    6.3884    0.4209    2.3761 H   0  0  0  0  0  0  0  0  0  0  0  0
    4.1394   -0.3774    1.9287 H   0  0  0  0  0  0  0  0  0  0  0  0
  1  2  1  0
  2  3  2  0
  2  4  1  0
  4  5  1  0
  5  6  1  0
  6  7  1  0
  7  8  1  0
  8  9  1  0
  9 10  1  0
 10 11  2  0
 10 12  1  0
 12 13  1  0
 13 14  1  0
 14 15  1  0
 15 16  1  6
 15 17  2  0
 15 18  1  0
 18 19  1  0
 19 20  2  0
 20 21  1  0
 21 22  2  0
 22 23  1  0
 23 24  2  0
 22 25  1  0
 25 26  1  0
 25 27  2  0
 24 19  1  0
  1 28  1  0
  4 29  1  0
  4 30  1  0
  5 31  1  0
  5 32  1  0
  6 33  1  0
  6 34  1  0
  7 35  1  0
  7 36  1  0
  8 37  1  0
  8 38  1  0
  9 39  1  0
 12 40  1  0
 12 41  1  0
 13 42  1  0
 13 43  1  0
 14 44  1  0
 14 45  1  0
 16 46  1  0
 20 47  1  0
 21 48  1  0
 23 49  1  0
 24 50  1  0
M  CHG  2  25   1  26  -1
M  END
$$$$
