
     RDKit          3D

 31 32  0  0  0  0  0  0  0  0999 V2000
   -5.7667   -0.0180   -1.1086 C   0  0  0  0  0  0  0  0  0  0  0  0
   -5.1023   -0.9221   -0.0770 C   0  0  0  0  0  0  0  0  0  0  0  0
   -3.7944   -0.4491    0.2389 O   0  0  0  0  0  0  0  0  0  0  0  0
   -3.5511    0.6569    1.0627 C   0  0  0  0  0  0  0  0  0  0  0  0
   -4.5058    1.2655    1.6160 O   0  0  0  0  0  0  0  0  0  0  0  0
   -2.2144    1.1057    1.2937 N   0  0  0  0  0  2  0  0  0  0  0  0
   -1.0599    0.4951    0.7143 C   0  0  0  0  0  0  0  0  0  0  0  0
    0.2437    0.8868    0.9035 C   0  0  0  0  0  0  0  0  0  0  0  0
    0.9806    0.0317    0.1650 N   0  0  0  0  0  4  0  0  0  0  0  0
    0.1613   -0.8217   -0.4342 N   0  0  0  0  0  0  0  0  0  0  0  0
   -1.0639   -0.5371   -0.0974 O   0  0  0  0  0  0  0  0  0  0  0  0
    2.3859    0.0221    0.0152 N   0  0  0  0  0  0  0  0  0  0  0  0
    3.2176    0.9783    0.7589 C   0  0  0  0  0  0  0  0  0  0  0  0
    4.6588    0.4711    0.8722 C   0  0  0  0  0  0  0  0  0  0  0  0
    5.1568    0.0769   -0.3900 O   0  0  0  0  0  0  0  0  0  0  0  0
    4.4347   -1.0479   -0.8478 C   0  0  0  0  0  0  0  0  0  0  0  0
    2.9772   -0.6771   -1.1326 C   0  0  0  0  0  0  0  0  0  0  0  0
   -6.7594   -0.4324   -1.3839 H   0  0  0  0  0  0  0  0  0  0  0  0
   -5.9089    1.0024   -0.6955 H   0  0  0  0  0  0  0  0  0  0  0  0
   -5.1363    0.0427   -2.0209 H   0  0  0  0  0  0  0  0  0  0  0  0
   -5.7252   -0.9835    0.8419 H   0  0  0  0  0  0  0  0  0  0  0  0
   -5.0149   -1.9439   -0.5025 H   0  0  0  0  0  0  0  0  0  0  0  0
    0.6074    1.7136    1.4982 H   0  0  0  0  0  0  0  0  0  0  0  0
    3.2047    1.9579    0.2343 H   0  0  0  0  0  0  0  0  0  0  0  0
    2.8237    1.1149    1.7879 H   0  0  0  0  0  0  0  0  0  0  0  0
    4.7222   -0.3619    1.6098 H   0  0  0  0  0  0  0  0  0  0  0  0
    5.2951    1.2938    1.2611 H   0  0  0  0  0  0  0  0  0  0  0  0
    4.9007   -1.4069   -1.7896 H   0  0  0  0  0  0  0  0  0  0  0  0
    4.4886   -1.8892   -0.1190 H   0  0  0  0  0  0  0  0  0  0  0  0
    2.4152   -1.6094   -1.3534 H   0  0  0  0  0  0  0  0  0  0  0  0
    2.9290   -0.0152   -2.0240 H   0  0  0  0  0  0  0  0  0  0  0  0
  1  2  1  0
  2  3  1  0
  3  4  1  0
  4  5  2  0
  4  6  1  0
  6  7  1  0
  7  8  2  0
  8  9  1  0
  9 10  2  0
 10 11  1  0
  9 12  1  0
 12 13  1  0
 13 14  1  0
 14 15  1  0
 15 16  1  0
 16 17  1  0
 11  7  1  0
 17 12  1  0
  1 18  1  0
  1 19  1  0
  1 20  1  0
  2 21  1  0
  2 22  1  0
  8 23  1  0
 13 24  1  0
 13 25  1  0
 14 26  1  0
 14 27  1  0
 16 28  1  0
 16 29  1  0
 17 30  1  0
 17 31  1  0
M  CHG  2   6  -1   9   1
M  END
$$$$
