
     RDKit          3D

 23 25  0  0  0  0  0  0  0  0999 V2000
    0.0885    1.2085    0.5997 N   0  0  0  0  0  0  0  0  0  0  0  0
    1.2685    0.4188    0.3800 C   0  0  0  0  0  0  0  0  0  0  0  0
    2.4711    1.0394    0.0104 C   0  0  0  0  0  0  0  0  0  0  0  0
    3.5738    0.2664   -0.3667 C   0  0  0  0  0  0  0  0  0  0  0  0
    3.4796   -1.1283   -0.3838 C   0  0  0  0  0  0  0  0  0  0  0  0
    2.2908   -1.7549    0.0015 C   0  0  0  0  0  0  0  0  0  0  0  0
    1.1920   -0.9860    0.4013 C   0  0  0  0  0  0  0  0  0  0  0  0
   -0.2618   -1.7905    1.0805 S   0  0  0  0  0  0  0  0  0  0  0  0
   -1.4272   -0.7036    0.2542 C   0  0  0  0  0  0  0  0  0  0  0  0
   -2.6131   -1.2262   -0.2739 C   0  0  0  0  0  0  0  0  0  0  0  0
   -3.5915   -0.3660   -0.7809 C   0  0  0  0  0  0  0  0  0  0  0  0
   -3.3886    1.0170   -0.7576 C   0  0  0  0  0  0  0  0  0  0  0  0
   -2.1954    1.5425   -0.2517 C   0  0  0  0  0  0  0  0  0  0  0  0
   -1.2006    0.6850    0.2413 C   0  0  0  0  0  0  0  0  0  0  0  0
    0.1923    2.2405    0.7317 H   0  0  0  0  0  0  0  0  0  0  0  0
    2.5421    2.1194   -0.0200 H   0  0  0  0  0  0  0  0  0  0  0  0
    4.4965    0.7490   -0.6618 H   0  0  0  0  0  0  0  0  0  0  0  0
    4.3326   -1.7241   -0.6818 H   0  0  0  0  0  0  0  0  0  0  0  0
    2.2365   -2.8360    0.0211 H   0  0  0  0  0  0  0  0  0  0  0  0
   -2.7922   -2.2938   -0.2613 H   0  0  0  0  0  0  0  0  0  0  0  0
   -4.5133   -0.7704   -1.1785 H   0  0  0  0  0  0  0  0  0  0  0  0
   -4.1492    1.6811   -1.1473 H   0  0  0  0  0  0  0  0  0  0  0  0
   -2.0315    2.6124   -0.2768 H   0  0  0  0  0  0  0  0  0  0  0  0
  1  2  1  0
  2  3  2  0
  3  4  1  0
  4  5  2  0
  5  6  1  0
  6  7  2  0
  7  8  1  0
  8  9  1  0
  9 10  2  0
 10 11  1  0
 11 12  2  0
 12 13  1  0
 13 14  2  0
 14  1  1  0
  7  2  1  0
 14  9  1  0
  1 15  1  0
  3 16  1  0
  4 17  1  0
  5 18  1  0
  6 19  1  0
 10 20  1  0
 11 21  1  0
 12 22  1  0
 13 23  1  0
M  END
$$$$
