
     RDKit          3D

 49 52  0  0  0  0  0  0  0  0999 V2000
    0.3940   -0.3867   -1.4733 C   0  0  1  0  0  0  0  0  0  0  0  0
    0.5601    1.3679   -0.9207 S   0  0  0  0  0  0  0  0  0  0  0  0
    1.1353    1.0496    0.7947 C   0  0  0  0  0  0  0  0  0  0  0  0
    2.3448    0.1320    0.8477 C   0  0  0  0  0  0  0  0  0  0  0  0
    3.5015    0.5591    1.7246 C   0  0  0  0  0  0  0  0  0  0  0  0
    4.3297    2.0373    1.0388 S   0  0  0  0  0  0  0  0  0  0  0  0
    5.0228    1.1929   -0.3841 C   0  0  0  0  0  0  0  0  0  0  0  0
    4.3968    1.0589   -1.5671 N   0  0  0  0  0  0  0  0  0  0  0  0
    5.2463    0.3792   -2.3278 N   0  0  0  0  0  0  0  0  0  0  0  0
    6.3511    0.1073   -1.6471 N   0  0  0  0  0  0  0  0  0  0  0  0
    6.2340    0.6177   -0.4351 N   0  0  0  0  0  0  0  0  0  0  0  0
    7.2176    0.4852    0.6309 C   0  0  0  0  0  0  0  0  0  0  0  0
    2.2590   -1.0634    0.2180 C   0  0  0  0  0  0  0  0  0  0  0  0
    1.1038   -1.2766   -0.5852 N   0  0  0  0  0  0  0  0  0  0  0  0
   -0.1447   -2.0540   -0.4154 C   0  0  0  0  0  0  0  0  0  0  0  0
   -0.4723   -3.0837    0.2298 O   0  0  0  0  0  0  0  0  0  0  0  0
   -0.8713   -1.0613   -1.2736 C   0  0  1  0  0  0  0  0  0  0  0  0
   -1.8546   -0.2954   -0.5028 N   0  0  0  0  0  0  0  0  0  0  0  0
   -2.7409    0.6393   -1.1388 C   0  0  0  0  0  0  0  0  0  0  0  0
   -2.7121    0.7756   -2.3925 O   0  0  0  0  0  0  0  0  0  0  0  0
   -3.7409    1.4424   -0.3435 C   0  0  2  0  0  0  0  0  0  0  0  0
   -3.2473    1.7637    0.9350 O   0  0  0  0  0  0  0  0  0  0  0  0
   -5.0887    0.7448   -0.2725 C   0  0  0  0  0  0  0  0  0  0  0  0
   -5.1993   -0.5775    0.2008 C   0  0  0  0  0  0  0  0  0  0  0  0
   -6.4485   -1.2010    0.2740 C   0  0  0  0  0  0  0  0  0  0  0  0
   -7.5993   -0.5128   -0.1164 C   0  0  0  0  0  0  0  0  0  0  0  0
   -7.5037    0.8018   -0.5783 C   0  0  0  0  0  0  0  0  0  0  0  0
   -6.2569    1.4303   -0.6537 C   0  0  0  0  0  0  0  0  0  0  0  0
    3.2643   -2.1450    0.2769 C   0  0  0  0  0  0  0  0  0  0  0  0
    4.6272   -1.8709    0.2993 O   0  0  0  0  0  0  0  0  0  0  0  0
    2.8799   -3.3436    0.2230 O   0  0  0  0  0  0  0  0  0  0  0  0
    0.7669   -0.5036   -2.5150 H   0  0  0  0  0  0  0  0  0  0  0  0
    1.3589    2.0271    1.2711 H   0  0  0  0  0  0  0  0  0  0  0  0
    0.3043    0.5873    1.3685 H   0  0  0  0  0  0  0  0  0  0  0  0
    3.0955    0.8351    2.7203 H   0  0  0  0  0  0  0  0  0  0  0  0
    4.2431   -0.2342    1.9221 H   0  0  0  0  0  0  0  0  0  0  0  0
    6.8563   -0.2471    1.3826 H   0  0  0  0  0  0  0  0  0  0  0  0
    8.1847    0.1315    0.2153 H   0  0  0  0  0  0  0  0  0  0  0  0
    7.3776    1.4682    1.1214 H   0  0  0  0  0  0  0  0  0  0  0  0
   -1.2995   -1.5336   -2.1849 H   0  0  0  0  0  0  0  0  0  0  0  0
   -1.9306   -0.4587    0.5261 H   0  0  0  0  0  0  0  0  0  0  0  0
   -3.8665    2.4080   -0.8810 H   0  0  0  0  0  0  0  0  0  0  0  0
   -3.3748    0.9817    1.5321 H   0  0  0  0  0  0  0  0  0  0  0  0
   -4.3218   -1.1271    0.5140 H   0  0  0  0  0  0  0  0  0  0  0  0
   -6.5242   -2.2183    0.6359 H   0  0  0  0  0  0  0  0  0  0  0  0
   -8.5655   -0.9972   -0.0582 H   0  0  0  0  0  0  0  0  0  0  0  0
   -8.3968    1.3354   -0.8767 H   0  0  0  0  0  0  0  0  0  0  0  0
   -6.2052    2.4514   -1.0104 H   0  0  0  0  0  0  0  0  0  0  0  0
    5.3099   -2.6190    0.3074 H   0  0  0  0  0  0  0  0  0  0  0  0
  1  2  1  0
  2  3  1  0
  3  4  1  0
  4  5  1  0
  5  6  1  0
  6  7  1  0
  7  8  2  0
  8  9  1  0
  9 10  2  0
 10 11  1  0
 11 12  1  0
  4 13  2  0
 13 14  1  0
 14 15  1  0
 15 16  2  0
 15 17  1  0
 17 18  1  0
 18 19  1  0
 19 20  2  0
 19 21  1  0
 21 22  1  0
 21 23  1  0
 23 24  2  0
 24 25  1  0
 25 26  2  0
 26 27  1  0
 27 28  2  0
 13 29  1  0
 29 30  1  0
 29 31  2  0
 14  1  1  0
 28 23  1  0
 17  1  1  0
 11  7  1  0
  1 32  1  6
  3 33  1  0
  3 34  1  0
  5 35  1  0
  5 36  1  0
 12 37  1  0
 12 38  1  0
 12 39  1  0
 17 40  1  6
 18 41  1  0
 21 42  1  6
 22 43  1  0
 24 44  1  0
 25 45  1  0
 26 46  1  0
 27 47  1  0
 28 48  1  0
 30 49  1  0
M  END
$$$$
