
     RDKit          3D

 37 39  0  0  0  0  0  0  0  0999 V2000
    0.9392   -1.6604   -0.3695 C   0  0  0  0  0  0  0  0  0  0  0  0
   -0.3659   -2.0756    0.3328 C   0  0  0  0  0  0  0  0  0  0  0  0
   -1.5679   -1.4065   -0.2700 C   0  0  0  0  0  0  0  0  0  0  0  0
   -2.1829   -1.7411   -1.4728 C   0  0  0  0  0  0  0  0  0  0  0  0
   -3.2006   -0.8900   -1.7356 N   0  0  0  0  0  0  0  0  0  0  0  0
   -3.2279   -0.0162   -0.7142 C   0  0  0  0  0  0  0  0  0  0  0  0
   -4.0945    1.0634   -0.5496 C   0  0  0  0  0  0  0  0  0  0  0  0
   -3.9324    1.8688    0.5924 C   0  0  0  0  0  0  0  0  0  0  0  0
   -2.9173    1.5822    1.5320 C   0  0  0  0  0  0  0  0  0  0  0  0
   -2.0564    0.4866    1.3397 C   0  0  0  0  0  0  0  0  0  0  0  0
   -2.2444   -0.2968    0.2000 C   0  0  0  0  0  0  0  0  0  0  0  0
    1.3098   -0.1675   -0.1862 C   0  0  0  0  0  0  0  0  0  0  0  0
    2.3549    0.2492   -1.2464 C   0  0  0  0  0  0  0  0  0  0  0  0
    3.0906    1.5234   -0.8131 C   0  0  0  0  0  0  0  0  0  0  0  0
    3.8358    1.3514    0.4511 N   0  0  0  0  0  0  0  0  0  0  0  0
    3.3281    0.2735    1.3212 C   0  0  0  0  0  0  0  0  0  0  0  0
    1.8006    0.1505    1.2532 C   0  0  0  0  0  0  0  0  0  0  0  0
    0.8343   -1.8883   -1.4539 H   0  0  0  0  0  0  0  0  0  0  0  0
    1.7695   -2.2930    0.0142 H   0  0  0  0  0  0  0  0  0  0  0  0
   -0.3185   -1.8705    1.4210 H   0  0  0  0  0  0  0  0  0  0  0  0
   -0.4886   -3.1746    0.2231 H   0  0  0  0  0  0  0  0  0  0  0  0
   -1.8932   -2.5555   -2.1239 H   0  0  0  0  0  0  0  0  0  0  0  0
   -3.8271   -0.9040   -2.5709 H   0  0  0  0  0  0  0  0  0  0  0  0
   -4.8655    1.2787   -1.2781 H   0  0  0  0  0  0  0  0  0  0  0  0
   -4.5878    2.7154    0.7503 H   0  0  0  0  0  0  0  0  0  0  0  0
   -2.7996    2.2110    2.4049 H   0  0  0  0  0  0  0  0  0  0  0  0
   -1.2740    0.2672    2.0539 H   0  0  0  0  0  0  0  0  0  0  0  0
    0.4044    0.4484   -0.3769 H   0  0  0  0  0  0  0  0  0  0  0  0
    3.1058   -0.5583   -1.3972 H   0  0  0  0  0  0  0  0  0  0  0  0
    1.8488    0.4263   -2.2205 H   0  0  0  0  0  0  0  0  0  0  0  0
    2.3533    2.3452   -0.6850 H   0  0  0  0  0  0  0  0  0  0  0  0
    3.7876    1.8344   -1.6227 H   0  0  0  0  0  0  0  0  0  0  0  0
    4.8348    1.1348    0.2237 H   0  0  0  0  0  0  0  0  0  0  0  0
    3.7884   -0.7001    1.0376 H   0  0  0  0  0  0  0  0  0  0  0  0
    3.6264    0.4917    2.3687 H   0  0  0  0  0  0  0  0  0  0  0  0
    1.4740   -0.6193    1.9822 H   0  0  0  0  0  0  0  0  0  0  0  0
    1.3581    1.1158    1.5845 H   0  0  0  0  0  0  0  0  0  0  0  0
  1  2  1  0
  2  3  1  0
  3  4  2  0
  4  5  1  0
  5  6  1  0
  6  7  2  0
  7  8  1  0
  8  9  2  0
  9 10  1  0
 10 11  2  0
  1 12  1  0
 12 13  1  0
 13 14  1  0
 14 15  1  0
 15 16  1  0
 16 17  1  0
 11  3  1  0
 17 12  1  0
 11  6  1  0
  1 18  1  0
  1 19  1  0
  2 20  1  0
  2 21  1  0
  4 22  1  0
  5 23  1  0
  7 24  1  0
  8 25  1  0
  9 26  1  0
 10 27  1  0
 12 28  1  0
 13 29  1  0
 13 30  1  0
 14 31  1  0
 14 32  1  0
 15 33  1  0
 16 34  1  0
 16 35  1  0
 17 36  1  0
 17 37  1  0
M  END
$$$$
