
     RDKit          3D

 37 38  0  0  0  0  0  0  0  0999 V2000
   -4.9515   -0.4806    5.0380 O   0  0  0  0  0  0  0  0  0  0  0  0
   -4.5882   -1.3157    3.9844 C   0  0  0  0  0  0  0  0  0  0  0  0
   -5.2384   -2.3780    3.7877 O   0  0  0  0  0  0  0  0  0  0  0  0
   -3.4515   -0.9587    3.1057 C   0  0  0  0  0  0  0  0  0  0  0  0
   -3.0782   -1.7986    2.0454 C   0  0  0  0  0  0  0  0  0  0  0  0
   -2.0067   -1.4608    1.2185 C   0  0  0  0  0  0  0  0  0  0  0  0
   -1.2917   -0.2697    1.4251 C   0  0  0  0  0  0  0  0  0  0  0  0
   -0.1691    0.0661    0.5895 N   0  0  0  0  0  0  0  0  0  0  0  0
   -0.1280   -0.1673   -0.8268 C   0  0  0  0  0  0  0  0  0  0  0  0
   -1.1753   -0.5037   -1.4440 O   0  0  0  0  0  0  0  0  0  0  0  0
    1.1076    0.0138   -1.5365 N   0  0  0  0  0  0  0  0  0  0  0  0
    1.2429   -0.1151   -2.9632 C   0  0  0  0  0  0  0  0  0  0  0  0
    0.2200   -0.2589   -3.6863 O   0  0  0  0  0  0  0  0  0  0  0  0
    2.5853   -0.0892   -3.5917 C   0  0  0  0  0  0  0  0  0  0  0  0
    3.6603   -0.7223   -2.9405 C   0  0  0  0  0  0  0  0  0  0  0  0
    4.9345   -0.7328   -3.5140 C   0  0  0  0  0  0  0  0  0  0  0  0
    5.9576   -1.3529   -2.8754 F   0  0  0  0  0  0  0  0  0  0  0  0
    5.1527   -0.1115   -4.7447 C   0  0  0  0  0  0  0  0  0  0  0  0
    6.3891   -0.1206   -5.3016 F   0  0  0  0  0  0  0  0  0  0  0  0
    4.0974    0.5230   -5.4029 C   0  0  0  0  0  0  0  0  0  0  0  0
    2.8156    0.5398   -4.8386 C   0  0  0  0  0  0  0  0  0  0  0  0
    1.5505    1.4114   -5.7007 Cl  0  0  0  0  0  0  0  0  0  0  0  0
   -1.6427    0.5740    2.4959 C   0  0  0  0  0  0  0  0  0  0  0  0
   -0.8989    1.7514    2.6919 O   0  0  0  0  0  0  0  0  0  0  0  0
   -1.1213    2.7131    3.7212 C   0  0  0  0  0  0  0  0  0  0  0  0
   -0.1915    3.7267    3.5949 F   0  0  0  0  0  0  0  0  0  0  0  0
   -0.9726    2.1247    4.9644 F   0  0  0  0  0  0  0  0  0  0  0  0
   -2.3889    3.2544    3.6026 F   0  0  0  0  0  0  0  0  0  0  0  0
   -2.7263    0.2241    3.3275 C   0  0  0  0  0  0  0  0  0  0  0  0
   -5.7278   -0.7160    5.6448 H   0  0  0  0  0  0  0  0  0  0  0  0
   -3.6093   -2.7236    1.8584 H   0  0  0  0  0  0  0  0  0  0  0  0
   -1.7211   -2.1453    0.4306 H   0  0  0  0  0  0  0  0  0  0  0  0
    0.6349    0.5763    1.0196 H   0  0  0  0  0  0  0  0  0  0  0  0
    1.9515    0.2745   -0.9788 H   0  0  0  0  0  0  0  0  0  0  0  0
    3.5105   -1.2294   -1.9954 H   0  0  0  0  0  0  0  0  0  0  0  0
    4.2782    1.0100   -6.3530 H   0  0  0  0  0  0  0  0  0  0  0  0
   -3.0095    0.8675    4.1477 H   0  0  0  0  0  0  0  0  0  0  0  0
  1  2  1  0
  2  3  2  0
  2  4  1  0
  4  5  2  0
  5  6  1  0
  6  7  2  0
  7  8  1  0
  8  9  1  0
  9 10  2  0
  9 11  1  0
 11 12  1  0
 12 13  2  0
 12 14  1  0
 14 15  2  0
 15 16  1  0
 16 17  1  0
 16 18  2  0
 18 19  1  0
 18 20  1  0
 20 21  2  0
 21 22  1  0
  7 23  1  0
 23 24  1  0
 24 25  1  0
 25 26  1  0
 25 27  1  0
 25 28  1  0
 23 29  2  0
 29  4  1  0
 21 14  1  0
  1 30  1  0
  5 31  1  0
  6 32  1  0
  8 33  1  0
 11 34  1  0
 15 35  1  0
 20 36  1  0
 29 37  1  0
M  END
$$$$
