
     RDKit          3D

 73 75  0  0  0  0  0  0  0  0999 V2000
    4.7241   -3.1690    1.8400 C   0  0  0  0  0  0  0  0  0  0  0  0
    5.6267   -3.2766    0.6035 C   0  0  0  0  0  0  0  0  0  0  0  0
    6.8494   -4.1457    0.9266 C   0  0  0  0  0  0  0  0  0  0  0  0
    6.0840   -1.8899    0.0925 C   0  0  0  0  0  0  0  0  0  0  0  0
    4.9356   -1.0160   -0.4610 C   0  0  0  0  0  0  0  0  0  0  0  0
    4.4930    0.0714    0.5405 C   0  0  0  0  0  0  0  0  0  0  0  0
    3.4312    1.0680   -0.0069 C   0  0  1  0  0  0  0  0  0  0  0  0
    4.0374    1.9263   -1.1328 C   0  0  0  0  0  0  0  0  0  0  0  0
    2.0992    0.3704   -0.4481 C   0  0  1  0  0  0  0  0  0  0  0  0
    1.4980   -0.5330    0.6591 C   0  0  0  0  0  0  0  0  0  0  0  0
   -0.0280   -0.4782    0.5127 C   0  0  0  0  0  0  0  0  0  0  0  0
   -0.2567    0.2821   -0.7887 C   0  0  1  0  0  0  0  0  0  0  0  0
   -1.5820    0.9706   -1.0413 C   0  0  0  0  0  0  0  0  0  0  0  0
   -1.6105    1.9402   -2.2121 C   0  0  0  0  0  0  0  0  0  0  0  0
   -0.3535    1.8223   -3.1028 C   0  0  0  0  0  0  0  0  0  0  0  0
    0.9928    1.8488   -2.3291 C   0  0  0  0  0  0  0  0  0  0  0  0
    0.9092    1.2850   -0.8725 C   0  0  2  0  0  0  0  0  0  0  0  0
    0.7230    2.4655    0.1349 C   0  0  0  0  0  0  0  0  0  0  0  0
   -2.6883    0.6712   -0.3333 C   0  0  0  0  0  0  0  0  0  0  0  0
   -3.9890    1.3513   -0.5343 C   0  0  0  0  0  0  0  0  0  0  0  0
   -5.1629    0.8974   -0.0487 C   0  0  0  0  0  0  0  0  0  0  0  0
   -6.3606    1.8232   -0.1036 C   0  0  0  0  0  0  0  0  0  0  0  0
   -7.5723    1.2950    0.6859 C   0  0  1  0  0  0  0  0  0  0  0  0
   -8.2687    0.3528   -0.0898 O   0  0  0  0  0  0  0  0  0  0  0  0
   -7.1104    0.6684    2.0141 C   0  0  0  0  0  0  0  0  0  0  0  0
   -6.2506   -0.5897    1.7829 C   0  0  2  0  0  0  0  0  0  0  0  0
   -5.4911   -0.8427    2.9362 O   0  0  0  0  0  0  0  0  0  0  0  0
   -5.3327   -0.4436    0.5838 C   0  0  0  0  0  0  0  0  0  0  0  0
   -4.8195   -1.5451    0.0203 C   0  0  0  0  0  0  0  0  0  0  0  0
    4.5041   -4.1790    2.2471 H   0  0  0  0  0  0  0  0  0  0  0  0
    5.2129   -2.5631    2.6329 H   0  0  0  0  0  0  0  0  0  0  0  0
    3.7534   -2.7079    1.5705 H   0  0  0  0  0  0  0  0  0  0  0  0
    5.0565   -3.7883   -0.2036 H   0  0  0  0  0  0  0  0  0  0  0  0
    6.5277   -5.1577    1.2535 H   0  0  0  0  0  0  0  0  0  0  0  0
    7.4561   -3.6832    1.7349 H   0  0  0  0  0  0  0  0  0  0  0  0
    7.4860   -4.2662    0.0241 H   0  0  0  0  0  0  0  0  0  0  0  0
    6.8071   -2.0536   -0.7375 H   0  0  0  0  0  0  0  0  0  0  0  0
    6.6450   -1.3562    0.8915 H   0  0  0  0  0  0  0  0  0  0  0  0
    5.2988   -0.5215   -1.3865 H   0  0  0  0  0  0  0  0  0  0  0  0
    4.0754   -1.6552   -0.7486 H   0  0  0  0  0  0  0  0  0  0  0  0
    5.3872    0.6540    0.8546 H   0  0  0  0  0  0  0  0  0  0  0  0
    4.1107   -0.4062    1.4642 H   0  0  0  0  0  0  0  0  0  0  0  0
    3.2083    1.7523    0.8396 H   0  0  0  0  0  0  0  0  0  0  0  0
    3.4388    2.8431   -1.2935 H   0  0  0  0  0  0  0  0  0  0  0  0
    4.0869    1.3597   -2.0860 H   0  0  0  0  0  0  0  0  0  0  0  0
    5.0622    2.2602   -0.8646 H   0  0  0  0  0  0  0  0  0  0  0  0
    2.3335   -0.2885   -1.3144 H   0  0  0  0  0  0  0  0  0  0  0  0
    1.7753   -0.1710    1.6734 H   0  0  0  0  0  0  0  0  0  0  0  0
    1.8574   -1.5776    0.5409 H   0  0  0  0  0  0  0  0  0  0  0  0
   -0.4705    0.0655    1.3760 H   0  0  0  0  0  0  0  0  0  0  0  0
   -0.4650   -1.4995    0.4613 H   0  0  0  0  0  0  0  0  0  0  0  0
   -0.1427   -0.4714   -1.6046 H   0  0  0  0  0  0  0  0  0  0  0  0
   -2.4935    1.7255   -2.8528 H   0  0  0  0  0  0  0  0  0  0  0  0
   -1.7050    2.9806   -1.8359 H   0  0  0  0  0  0  0  0  0  0  0  0
   -0.4184    0.8652   -3.6664 H   0  0  0  0  0  0  0  0  0  0  0  0
   -0.3623    2.6383   -3.8573 H   0  0  0  0  0  0  0  0  0  0  0  0
    1.3602    2.8974   -2.3190 H   0  0  0  0  0  0  0  0  0  0  0  0
    1.7312    1.2709   -2.9250 H   0  0  0  0  0  0  0  0  0  0  0  0
   -0.2182    3.0202   -0.0444 H   0  0  0  0  0  0  0  0  0  0  0  0
    1.5442    3.2041    0.0397 H   0  0  0  0  0  0  0  0  0  0  0  0
    0.7098    2.1142    1.1871 H   0  0  0  0  0  0  0  0  0  0  0  0
   -2.6280   -0.0778    0.4433 H   0  0  0  0  0  0  0  0  0  0  0  0
   -3.9822    2.3193   -1.0218 H   0  0  0  0  0  0  0  0  0  0  0  0
   -6.0686    2.8071    0.3268 H   0  0  0  0  0  0  0  0  0  0  0  0
   -6.6507    1.9933   -1.1634 H   0  0  0  0  0  0  0  0  0  0  0  0
   -8.2427    2.1582    0.9063 H   0  0  0  0  0  0  0  0  0  0  0  0
   -9.1501    0.2188    0.3472 H   0  0  0  0  0  0  0  0  0  0  0  0
   -7.9969    0.4016    2.6298 H   0  0  0  0  0  0  0  0  0  0  0  0
   -6.5265    1.4252    2.5846 H   0  0  0  0  0  0  0  0  0  0  0  0
   -6.9533   -1.4377    1.5985 H   0  0  0  0  0  0  0  0  0  0  0  0
   -5.2407   -1.8032    2.9136 H   0  0  0  0  0  0  0  0  0  0  0  0
   -4.9922   -2.5224    0.4534 H   0  0  0  0  0  0  0  0  0  0  0  0
   -4.2479   -1.4949   -0.8975 H   0  0  0  0  0  0  0  0  0  0  0  0
  1  2  1  0
  2  3  1  0
  2  4  1  0
  4  5  1  0
  5  6  1  0
  6  7  1  0
  7  8  1  0
  7  9  1  0
  9 10  1  0
 10 11  1  0
 11 12  1  0
 12 13  1  0
 13 14  1  0
 14 15  1  0
 15 16  1  0
 16 17  1  0
 17 18  1  1
 13 19  2  0
 19 20  1  0
 20 21  2  0
 21 22  1  0
 22 23  1  0
 23 24  1  0
 23 25  1  0
 25 26  1  0
 26 27  1  0
 26 28  1  0
 28 29  2  3
 17  9  1  0
 28 21  1  0
 17 12  1  0
  1 30  1  0
  1 31  1  0
  1 32  1  0
  2 33  1  0
  3 34  1  0
  3 35  1  0
  3 36  1  0
  4 37  1  0
  4 38  1  0
  5 39  1  0
  5 40  1  0
  6 41  1  0
  6 42  1  0
  7 43  1  1
  8 44  1  0
  8 45  1  0
  8 46  1  0
  9 47  1  6
 10 48  1  0
 10 49  1  0
 11 50  1  0
 11 51  1  0
 12 52  1  6
 14 53  1  0
 14 54  1  0
 15 55  1  0
 15 56  1  0
 16 57  1  0
 16 58  1  0
 18 59  1  0
 18 60  1  0
 18 61  1  0
 19 62  1  0
 20 63  1  0
 22 64  1  0
 22 65  1  0
 23 66  1  1
 24 67  1  0
 25 68  1  0
 25 69  1  0
 26 70  1  6
 27 71  1  0
 29 72  1  0
 29 73  1  0
M  END
$$$$
