
     RDKit          3D

 25 25  0  0  0  0  0  0  0  0999 V2000
   -1.9873   -1.2348   -0.8064 C   0  0  2  0  0  0  0  0  0  0  0  0
   -2.2482   -2.3093    0.0594 O   0  0  0  0  0  0  0  0  0  0  0  0
   -0.5915   -1.0926   -0.9843 O   0  0  0  0  0  0  0  0  0  0  0  0
   -0.2313    0.1988   -0.5452 C   0  0  2  0  0  0  0  0  0  0  0  0
    1.1025    0.1435    0.2043 C   0  0  0  0  0  0  0  0  0  0  0  0
    2.1066   -0.3039   -0.6754 O   0  0  0  0  0  0  0  0  0  0  0  0
    3.5911   -0.3151    0.1638 P   0  0  0  0  0  5  0  0  0  0  0  0
    3.9789    1.2487    0.6864 O   0  0  0  0  0  0  0  0  0  0  0  0
    3.5035   -1.3574    1.4956 O   0  0  0  0  0  0  0  0  0  0  0  0
    4.6752   -0.8053   -0.7684 O   0  0  0  0  0  0  0  0  0  0  0  0
   -1.3533    0.7419    0.3303 C   0  0  1  0  0  0  0  0  0  0  0  0
   -1.4275    2.1417    0.2452 O   0  0  0  0  0  0  0  0  0  0  0  0
   -2.5703    0.0652   -0.2469 C   0  0  1  0  0  0  0  0  0  0  0  0
   -3.1191    0.8390   -1.2844 O   0  0  0  0  0  0  0  0  0  0  0  0
   -2.4483   -1.4707   -1.7899 H   0  0  0  0  0  0  0  0  0  0  0  0
   -1.7134   -2.1598    0.8828 H   0  0  0  0  0  0  0  0  0  0  0  0
   -0.1109    0.8498   -1.4414 H   0  0  0  0  0  0  0  0  0  0  0  0
    1.3341    1.1671    0.5786 H   0  0  0  0  0  0  0  0  0  0  0  0
    0.9963   -0.5563    1.0645 H   0  0  0  0  0  0  0  0  0  0  0  0
    3.9376    1.8058   -0.1316 H   0  0  0  0  0  0  0  0  0  0  0  0
    3.2106   -0.7856    2.2494 H   0  0  0  0  0  0  0  0  0  0  0  0
   -1.2153    0.4202    1.3905 H   0  0  0  0  0  0  0  0  0  0  0  0
   -2.0740    2.4304    0.9411 H   0  0  0  0  0  0  0  0  0  0  0  0
   -3.3318   -0.1167    0.5479 H   0  0  0  0  0  0  0  0  0  0  0  0
   -4.0140    0.4556   -1.4786 H   0  0  0  0  0  0  0  0  0  0  0  0
  1  2  1  0
  1  3  1  0
  3  4  1  0
  4  5  1  0
  5  6  1  0
  6  7  1  0
  7  8  1  0
  7  9  1  0
  7 10  2  0
  4 11  1  0
 11 12  1  0
 11 13  1  0
 13 14  1  0
 13  1  1  0
  1 15  1  6
  2 16  1  0
  4 17  1  6
  5 18  1  0
  5 19  1  0
  8 20  1  0
  9 21  1  0
 11 22  1  1
 12 23  1  0
 13 24  1  1
 14 25  1  0
M  END
$$$$
