
     RDKit          3D

 57 56  0  0  0  0  0  0  0  0999 V2000
    5.9767   -0.2424    0.2233 C   0  0  1  0  0  0  0  0  0  0  0  0
    7.3198   -0.6355    0.3356 O   0  0  0  0  0  0  0  0  0  0  0  0
    5.9058    1.2626   -0.1026 C   0  0  0  0  0  0  0  0  0  0  0  0
    6.3450    2.1521    1.0713 C   0  0  0  0  0  0  0  0  0  0  0  0
    7.8224    2.0895    1.3082 C   0  0  0  0  0  0  0  0  0  0  0  0
    8.3216    1.3780    2.3947 O   0  0  0  0  0  0  0  0  0  0  0  0
    8.6142    2.6650    0.5145 O   0  0  0  0  0  0  0  0  0  0  0  0
    5.3146   -1.0469   -0.8662 C   0  0  0  0  0  0  0  0  0  0  0  0
    3.9862   -1.0735   -1.0051 C   0  0  0  0  0  0  0  0  0  0  0  0
    3.3518   -1.8807   -2.0670 C   0  0  0  0  0  0  0  0  0  0  0  0
    2.0274   -1.9470   -2.2624 C   0  0  0  0  0  0  0  0  0  0  0  0
    1.0094   -1.2079   -1.4373 C   0  0  0  0  0  0  0  0  0  0  0  0
    0.8881   -1.8034   -0.0559 C   0  0  0  0  0  0  0  0  0  0  0  0
    0.1373   -1.2641    0.9209 C   0  0  0  0  0  0  0  0  0  0  0  0
   -0.6665    0.0030    0.7732 C   0  0  0  0  0  0  0  0  0  0  0  0
   -1.8370   -0.1734   -0.1612 C   0  0  0  0  0  0  0  0  0  0  0  0
   -2.9267   -0.9191    0.1027 C   0  0  0  0  0  0  0  0  0  0  0  0
   -3.1541   -1.6949    1.3758 C   0  0  0  0  0  0  0  0  0  0  0  0
   -3.3669   -0.7966    2.5692 C   0  0  0  0  0  0  0  0  0  0  0  0
   -4.4310    0.0102    2.7434 C   0  0  0  0  0  0  0  0  0  0  0  0
   -5.5416    0.1876    1.7407 C   0  0  0  0  0  0  0  0  0  0  0  0
   -5.1939    1.2610    0.7404 C   0  0  0  0  0  0  0  0  0  0  0  0
   -5.9912    1.5870   -0.2902 C   0  0  0  0  0  0  0  0  0  0  0  0
   -7.3136    0.9101   -0.5506 C   0  0  0  0  0  0  0  0  0  0  0  0
   -8.0048    1.4975   -1.7768 C   0  0  0  0  0  0  0  0  0  0  0  0
    5.4473   -0.4334    1.1870 H   0  0  0  0  0  0  0  0  0  0  0  0
    7.3259   -1.5047    0.8162 H   0  0  0  0  0  0  0  0  0  0  0  0
    4.8553    1.5344   -0.3465 H   0  0  0  0  0  0  0  0  0  0  0  0
    6.5208    1.4871   -1.0024 H   0  0  0  0  0  0  0  0  0  0  0  0
    5.8015    1.8599    1.9959 H   0  0  0  0  0  0  0  0  0  0  0  0
    6.0700    3.2052    0.8456 H   0  0  0  0  0  0  0  0  0  0  0  0
    9.3188    1.3179    2.5623 H   0  0  0  0  0  0  0  0  0  0  0  0
    5.9372   -1.6379   -1.5290 H   0  0  0  0  0  0  0  0  0  0  0  0
    3.3766   -0.4951   -0.3225 H   0  0  0  0  0  0  0  0  0  0  0  0
    3.9884   -2.4541   -2.7312 H   0  0  0  0  0  0  0  0  0  0  0  0
    1.6622   -2.5632   -3.0754 H   0  0  0  0  0  0  0  0  0  0  0  0
    1.2846   -0.1331   -1.3848 H   0  0  0  0  0  0  0  0  0  0  0  0
    0.0253   -1.2853   -1.9454 H   0  0  0  0  0  0  0  0  0  0  0  0
    1.4387   -2.7123    0.1739 H   0  0  0  0  0  0  0  0  0  0  0  0
    0.1284   -1.7555    1.8896 H   0  0  0  0  0  0  0  0  0  0  0  0
   -1.0270    0.3354    1.7679 H   0  0  0  0  0  0  0  0  0  0  0  0
   -0.0087    0.8124    0.3919 H   0  0  0  0  0  0  0  0  0  0  0  0
   -1.7993    0.3507   -1.1118 H   0  0  0  0  0  0  0  0  0  0  0  0
   -3.6999   -0.9737   -0.6584 H   0  0  0  0  0  0  0  0  0  0  0  0
   -4.0388   -2.3546    1.2529 H   0  0  0  0  0  0  0  0  0  0  0  0
   -2.2902   -2.3647    1.5633 H   0  0  0  0  0  0  0  0  0  0  0  0
   -2.6236   -0.8345    3.3605 H   0  0  0  0  0  0  0  0  0  0  0  0
   -4.4816    0.5984    3.6552 H   0  0  0  0  0  0  0  0  0  0  0  0
   -6.4582    0.4952    2.2875 H   0  0  0  0  0  0  0  0  0  0  0  0
   -5.7630   -0.7705    1.2265 H   0  0  0  0  0  0  0  0  0  0  0  0
   -4.2546    1.7986    0.8468 H   0  0  0  0  0  0  0  0  0  0  0  0
   -5.6580    2.3741   -0.9621 H   0  0  0  0  0  0  0  0  0  0  0  0
   -7.1480   -0.1756   -0.7196 H   0  0  0  0  0  0  0  0  0  0  0  0
   -7.9774    1.0393    0.3312 H   0  0  0  0  0  0  0  0  0  0  0  0
   -7.3707    1.3606   -2.6789 H   0  0  0  0  0  0  0  0  0  0  0  0
   -8.9733    0.9799   -1.9414 H   0  0  0  0  0  0  0  0  0  0  0  0
   -8.2016    2.5806   -1.6262 H   0  0  0  0  0  0  0  0  0  0  0  0
  1  2  1  0
  1  3  1  0
  3  4  1  0
  4  5  1  0
  5  6  1  0
  5  7  2  0
  1  8  1  0
  8  9  2  0
  9 10  1  0
 10 11  2  0
 11 12  1  0
 12 13  1  0
 13 14  2  0
 14 15  1  0
 15 16  1  0
 16 17  2  0
 17 18  1  0
 18 19  1  0
 19 20  2  0
 20 21  1  0
 21 22  1  0
 22 23  2  0
 23 24  1  0
 24 25  1  0
  1 26  1  1
  2 27  1  0
  3 28  1  0
  3 29  1  0
  4 30  1  0
  4 31  1  0
  6 32  1  0
  8 33  1  0
  9 34  1  0
 10 35  1  0
 11 36  1  0
 12 37  1  0
 12 38  1  0
 13 39  1  0
 14 40  1  0
 15 41  1  0
 15 42  1  0
 16 43  1  0
 17 44  1  0
 18 45  1  0
 18 46  1  0
 19 47  1  0
 20 48  1  0
 21 49  1  0
 21 50  1  0
 22 51  1  0
 23 52  1  0
 24 53  1  0
 24 54  1  0
 25 55  1  0
 25 56  1  0
 25 57  1  0
M  END
$$$$
