
     RDKit          3D

 59 60  0  0  0  0  0  0  0  0999 V2000
   -8.4521   -0.3161   -0.6975 C   0  0  0  0  0  0  0  0  0  0  0  0
   -7.1472    0.5018   -0.5934 C   0  0  0  0  0  0  0  0  0  0  0  0
   -7.5026    1.9322   -0.1272 C   0  0  0  0  0  0  0  0  0  0  0  0
   -6.5042    0.5429   -1.9974 C   0  0  0  0  0  0  0  0  0  0  0  0
   -6.2491   -0.1857    0.3681 N   0  0  0  0  0  0  0  0  0  0  0  0
   -5.0309    0.5596    0.7370 C   0  0  0  0  0  0  0  0  0  0  0  0
   -3.9385   -0.3923    1.2544 C   0  0  0  0  0  0  0  0  0  0  0  0
   -4.3424   -1.0269    2.4432 O   0  0  0  0  0  0  0  0  0  0  0  0
   -3.5171   -1.4196    0.1839 C   0  0  0  0  0  0  0  0  0  0  0  0
   -2.4600   -2.2497    0.6666 O   0  0  0  0  0  0  0  0  0  0  0  0
   -1.1132   -1.8700    0.7888 C   0  0  0  0  0  0  0  0  0  0  0  0
   -0.6232   -0.6324    0.3283 C   0  0  0  0  0  0  0  0  0  0  0  0
    0.7297   -0.3104    0.4739 C   0  0  0  0  0  0  0  0  0  0  0  0
    1.6194   -1.2239    1.0652 C   0  0  0  0  0  0  0  0  0  0  0  0
    3.0101   -0.9072    1.2486 N   0  0  0  0  0  0  0  0  0  0  0  0
    3.7876   -0.1264    0.3281 C   0  0  0  0  0  0  0  0  0  0  0  0
    3.3364    0.1445   -0.8182 O   0  0  0  0  0  0  0  0  0  0  0  0
    5.1004    0.3122    0.7047 N   0  0  0  0  0  0  0  0  0  0  0  0
    5.9676    1.0663   -0.2083 C   0  0  0  0  0  0  0  0  0  0  0  0
    6.5084    0.1218   -1.3121 C   0  0  0  0  0  0  0  0  0  0  0  0
    7.8725    0.5788   -1.8391 C   0  0  0  0  0  0  0  0  0  0  0  0
    8.9357    0.5920   -0.7223 C   0  0  0  0  0  0  0  0  0  0  0  0
    8.3572    0.9082    0.6723 C   0  0  0  0  0  0  0  0  0  0  0  0
    7.0993    1.7781    0.5778 C   0  0  0  0  0  0  0  0  0  0  0  0
    1.1246   -2.4469    1.5390 C   0  0  0  0  0  0  0  0  0  0  0  0
   -0.2273   -2.7691    1.3927 C   0  0  0  0  0  0  0  0  0  0  0  0
   -8.2303   -1.3582   -1.0142 H   0  0  0  0  0  0  0  0  0  0  0  0
   -9.1499    0.1350   -1.4361 H   0  0  0  0  0  0  0  0  0  0  0  0
   -8.9703   -0.3555    0.2850 H   0  0  0  0  0  0  0  0  0  0  0  0
   -7.9099    1.9123    0.9064 H   0  0  0  0  0  0  0  0  0  0  0  0
   -6.6119    2.5949   -0.1430 H   0  0  0  0  0  0  0  0  0  0  0  0
   -8.2659    2.3829   -0.7977 H   0  0  0  0  0  0  0  0  0  0  0  0
   -6.1306   -0.4651   -2.2788 H   0  0  0  0  0  0  0  0  0  0  0  0
   -7.2454    0.8682   -2.7593 H   0  0  0  0  0  0  0  0  0  0  0  0
   -5.6591    1.2587   -2.0477 H   0  0  0  0  0  0  0  0  0  0  0  0
   -6.7788   -0.3715    1.2531 H   0  0  0  0  0  0  0  0  0  0  0  0
   -5.2657    1.3035    1.5312 H   0  0  0  0  0  0  0  0  0  0  0  0
   -4.6112    1.1156   -0.1250 H   0  0  0  0  0  0  0  0  0  0  0  0
   -3.0554    0.2340    1.5004 H   0  0  0  0  0  0  0  0  0  0  0  0
   -5.0356   -1.6987    2.2128 H   0  0  0  0  0  0  0  0  0  0  0  0
   -3.2174   -0.9173   -0.7606 H   0  0  0  0  0  0  0  0  0  0  0  0
   -4.3811   -2.0730   -0.0614 H   0  0  0  0  0  0  0  0  0  0  0  0
   -1.2749    0.0925   -0.1377 H   0  0  0  0  0  0  0  0  0  0  0  0
    1.0714    0.6623    0.1462 H   0  0  0  0  0  0  0  0  0  0  0  0
    3.5108   -1.3435    2.0556 H   0  0  0  0  0  0  0  0  0  0  0  0
    5.4387    0.0825    1.6668 H   0  0  0  0  0  0  0  0  0  0  0  0
    5.3617    1.8662   -0.6903 H   0  0  0  0  0  0  0  0  0  0  0  0
    5.7847    0.0813   -2.1547 H   0  0  0  0  0  0  0  0  0  0  0  0
    6.6148   -0.9119   -0.9133 H   0  0  0  0  0  0  0  0  0  0  0  0
    7.7702    1.6000   -2.2683 H   0  0  0  0  0  0  0  0  0  0  0  0
    8.2023   -0.0975   -2.6571 H   0  0  0  0  0  0  0  0  0  0  0  0
    9.7106    1.3466   -0.9802 H   0  0  0  0  0  0  0  0  0  0  0  0
    9.4399   -0.3981   -0.6818 H   0  0  0  0  0  0  0  0  0  0  0  0
    9.1255    1.4292    1.2835 H   0  0  0  0  0  0  0  0  0  0  0  0
    8.1011   -0.0409    1.1928 H   0  0  0  0  0  0  0  0  0  0  0  0
    6.7551    2.0548    1.5982 H   0  0  0  0  0  0  0  0  0  0  0  0
    7.3647    2.7278    0.0621 H   0  0  0  0  0  0  0  0  0  0  0  0
    1.7911   -3.1564    2.0134 H   0  0  0  0  0  0  0  0  0  0  0  0
   -0.5904   -3.7226    1.7549 H   0  0  0  0  0  0  0  0  0  0  0  0
  1  2  1  0
  2  3  1  0
  2  4  1  0
  2  5  1  0
  5  6  1  0
  6  7  1  0
  7  8  1  0
  7  9  1  0
  9 10  1  0
 10 11  1  0
 11 12  2  0
 12 13  1  0
 13 14  2  0
 14 15  1  0
 15 16  1  0
 16 17  2  0
 16 18  1  0
 18 19  1  0
 19 20  1  0
 20 21  1  0
 21 22  1  0
 22 23  1  0
 23 24  1  0
 14 25  1  0
 25 26  2  0
 26 11  1  0
 24 19  1  0
  1 27  1  0
  1 28  1  0
  1 29  1  0
  3 30  1  0
  3 31  1  0
  3 32  1  0
  4 33  1  0
  4 34  1  0
  4 35  1  0
  5 36  1  0
  6 37  1  0
  6 38  1  0
  7 39  1  0
  8 40  1  0
  9 41  1  0
  9 42  1  0
 12 43  1  0
 13 44  1  0
 15 45  1  0
 18 46  1  0
 19 47  1  0
 20 48  1  0
 20 49  1  0
 21 50  1  0
 21 51  1  0
 22 52  1  0
 22 53  1  0
 23 54  1  0
 23 55  1  0
 24 56  1  0
 24 57  1  0
 25 58  1  0
 26 59  1  0
M  END
$$$$
