
     RDKit          3D

 35 35  0  0  0  0  0  0  0  0999 V2000
    6.3078    0.4304   -0.2104 C   0  0  0  0  0  0  0  0  0  0  0  0
    5.3040    0.8301    0.7841 N   0  0  0  0  0  0  0  0  0  0  0  0
    3.9898    0.8148    0.2484 N   0  0  0  0  0  0  0  0  0  0  0  0
    3.5196   -0.5517   -0.0281 C   0  0  0  0  0  0  0  0  0  0  0  0
    2.0272   -0.5382   -0.2064 C   0  0  0  0  0  0  0  0  0  0  0  0
    1.4668   -0.3556   -1.4789 C   0  0  0  0  0  0  0  0  0  0  0  0
    0.0791   -0.3085   -1.6394 C   0  0  0  0  0  0  0  0  0  0  0  0
   -0.7738   -0.4234   -0.5270 C   0  0  0  0  0  0  0  0  0  0  0  0
   -0.2067   -0.6010    0.7482 C   0  0  0  0  0  0  0  0  0  0  0  0
    1.1814   -0.6490    0.9068 C   0  0  0  0  0  0  0  0  0  0  0  0
   -2.2446   -0.3765   -0.7114 C   0  0  0  0  0  0  0  0  0  0  0  0
   -2.7348   -0.6536   -1.8405 O   0  0  0  0  0  0  0  0  0  0  0  0
   -3.1156   -0.0035    0.3698 N   0  0  0  0  0  0  0  0  0  0  0  0
   -4.5751   -0.0505    0.2500 C   0  0  0  0  0  0  0  0  0  0  0  0
   -5.1984   -0.3966    1.6044 C   0  0  0  0  0  0  0  0  0  0  0  0
   -5.0966    1.2941   -0.2604 C   0  0  0  0  0  0  0  0  0  0  0  0
    7.3188    0.6646    0.1832 H   0  0  0  0  0  0  0  0  0  0  0  0
    6.2614   -0.6620   -0.4058 H   0  0  0  0  0  0  0  0  0  0  0  0
    6.1725    0.9921   -1.1593 H   0  0  0  0  0  0  0  0  0  0  0  0
    5.3561    0.1937    1.6140 H   0  0  0  0  0  0  0  0  0  0  0  0
    3.9625    1.3856   -0.6298 H   0  0  0  0  0  0  0  0  0  0  0  0
    3.7791   -1.2359    0.8099 H   0  0  0  0  0  0  0  0  0  0  0  0
    4.0008   -0.9486   -0.9492 H   0  0  0  0  0  0  0  0  0  0  0  0
    2.1045   -0.2486   -2.3479 H   0  0  0  0  0  0  0  0  0  0  0  0
   -0.3269   -0.1676   -2.6335 H   0  0  0  0  0  0  0  0  0  0  0  0
   -0.8300   -0.7234    1.6239 H   0  0  0  0  0  0  0  0  0  0  0  0
    1.5972   -0.7785    1.8985 H   0  0  0  0  0  0  0  0  0  0  0  0
   -2.7090    0.4891    1.1969 H   0  0  0  0  0  0  0  0  0  0  0  0
   -4.8713   -0.8453   -0.4700 H   0  0  0  0  0  0  0  0  0  0  0  0
   -4.8063   -1.3731    1.9604 H   0  0  0  0  0  0  0  0  0  0  0  0
   -4.9561    0.3825    2.3588 H   0  0  0  0  0  0  0  0  0  0  0  0
   -6.3025   -0.4758    1.5097 H   0  0  0  0  0  0  0  0  0  0  0  0
   -4.6546    1.5184   -1.2543 H   0  0  0  0  0  0  0  0  0  0  0  0
   -6.2017    1.2617   -0.3685 H   0  0  0  0  0  0  0  0  0  0  0  0
   -4.8247    2.1099    0.4434 H   0  0  0  0  0  0  0  0  0  0  0  0
  1  2  1  0
  2  3  1  0
  3  4  1  0
  4  5  1  0
  5  6  2  0
  6  7  1  0
  7  8  2  0
  8  9  1  0
  9 10  2  0
  8 11  1  0
 11 12  2  0
 11 13  1  0
 13 14  1  0
 14 15  1  0
 14 16  1  0
 10  5  1  0
  1 17  1  0
  1 18  1  0
  1 19  1  0
  2 20  1  0
  3 21  1  0
  4 22  1  0
  4 23  1  0
  6 24  1  0
  7 25  1  0
  9 26  1  0
 10 27  1  0
 13 28  1  0
 14 29  1  0
 15 30  1  0
 15 31  1  0
 15 32  1  0
 16 33  1  0
 16 34  1  0
 16 35  1  0
M  END
$$$$
