
     RDKit          3D

 45 48  0  0  0  0  0  0  0  0999 V2000
    0.3856   -0.6083   -0.0075 C   0  0  1  0  0  0  0  0  0  0  0  0
   -0.0931   -0.2666    1.7425 S   0  0  0  0  0  0  0  0  0  0  0  0
   -0.9159    1.3577    1.4899 C   0  0  0  0  0  0  0  0  0  0  0  0
   -1.9603    1.3264    0.3864 C   0  0  0  0  0  0  0  0  0  0  0  0
   -3.3764    1.7675    0.7072 C   0  0  0  0  0  0  0  0  0  0  0  0
   -4.3257    0.6534    0.5556 N   0  0  0  0  0  4  0  0  0  0  0  0
   -4.1590   -0.4832    1.3016 C   0  0  0  0  0  0  0  0  0  0  0  0
   -5.0538   -1.5491    1.1841 C   0  0  0  0  0  0  0  0  0  0  0  0
   -6.1336   -1.4430    0.3100 C   0  0  0  0  0  0  0  0  0  0  0  0
   -6.3116   -0.2746   -0.4281 C   0  0  0  0  0  0  0  0  0  0  0  0
   -5.3980    0.7729   -0.2871 C   0  0  0  0  0  0  0  0  0  0  0  0
   -1.5717    0.9057   -0.8374 C   0  0  0  0  0  0  0  0  0  0  0  0
   -0.3004    0.2732   -0.9202 N   0  0  0  0  0  0  0  0  0  0  0  0
    1.0107    0.6496   -1.4935 C   0  0  0  0  0  0  0  0  0  0  0  0
    1.3893    1.4092   -2.4229 O   0  0  0  0  0  0  0  0  0  0  0  0
    1.6955   -0.1927   -0.4576 C   0  0  1  0  0  0  0  0  0  0  0  0
    2.4102    0.6371    0.5140 N   0  0  0  0  0  0  0  0  0  0  0  0
    3.6242    1.0937    0.3891 C   0  0  0  0  0  0  0  0  0  0  0  0
    4.1588    1.8754    1.4094 O   0  0  0  0  0  0  0  0  0  0  0  0
    4.4962    0.7801   -0.7979 C   0  0  0  0  0  0  0  0  0  0  0  0
    5.2113   -0.5202   -0.5992 C   0  0  0  0  0  0  0  0  0  0  0  0
    6.1309   -0.8016    0.4041 C   0  0  0  0  0  0  0  0  0  0  0  0
    6.6530   -2.0981    0.3250 C   0  0  0  0  0  0  0  0  0  0  0  0
    6.1534   -2.8366   -0.7402 C   0  0  0  0  0  0  0  0  0  0  0  0
    5.0621   -1.8750   -1.5844 S   0  0  0  0  0  0  0  0  0  0  0  0
   -2.3806    1.0105   -2.0690 C   0  0  0  0  0  0  0  0  0  0  0  0
   -3.3013    2.0341   -2.2477 O   0  0  0  0  0  1  0  0  0  0  0  0
   -2.1827    0.1982   -3.0103 O   0  0  0  0  0  0  0  0  0  0  0  0
    0.1729   -1.6695   -0.2668 H   0  0  0  0  0  0  0  0  0  0  0  0
   -0.1407    2.1105    1.2323 H   0  0  0  0  0  0  0  0  0  0  0  0
   -1.3614    1.6644    2.4585 H   0  0  0  0  0  0  0  0  0  0  0  0
   -3.4422    2.1388    1.7523 H   0  0  0  0  0  0  0  0  0  0  0  0
   -3.6531    2.6388    0.0780 H   0  0  0  0  0  0  0  0  0  0  0  0
   -3.3282   -0.5719    1.9914 H   0  0  0  0  0  0  0  0  0  0  0  0
   -4.9118   -2.4483    1.7696 H   0  0  0  0  0  0  0  0  0  0  0  0
   -6.8350   -2.2612    0.2105 H   0  0  0  0  0  0  0  0  0  0  0  0
   -7.1535   -0.1778   -1.1014 H   0  0  0  0  0  0  0  0  0  0  0  0
   -5.5578    1.6806   -0.8558 H   0  0  0  0  0  0  0  0  0  0  0  0
    2.3023   -1.0232   -0.8767 H   0  0  0  0  0  0  0  0  0  0  0  0
    3.6159    2.1021    2.2344 H   0  0  0  0  0  0  0  0  0  0  0  0
    5.2511    1.5859   -0.9182 H   0  0  0  0  0  0  0  0  0  0  0  0
    3.9025    0.7521   -1.7342 H   0  0  0  0  0  0  0  0  0  0  0  0
    6.4178   -0.0925    1.1696 H   0  0  0  0  0  0  0  0  0  0  0  0
    7.3798   -2.4874    1.0253 H   0  0  0  0  0  0  0  0  0  0  0  0
    6.4245   -3.8546   -0.9848 H   0  0  0  0  0  0  0  0  0  0  0  0
  1  2  1  0
  2  3  1  0
  3  4  1  0
  4  5  1  0
  5  6  1  0
  6  7  2  0
  7  8  1  0
  8  9  2  0
  9 10  1  0
 10 11  2  0
  4 12  2  0
 12 13  1  0
 13 14  1  0
 14 15  2  0
 14 16  1  0
 16 17  1  0
 17 18  2  3
 18 19  1  0
 18 20  1  0
 20 21  1  0
 21 22  2  0
 22 23  1  0
 23 24  2  0
 24 25  1  0
 12 26  1  0
 26 27  1  0
 26 28  2  0
 13  1  1  0
 25 21  1  0
 16  1  1  0
 11  6  1  0
  1 29  1  6
  3 30  1  0
  3 31  1  0
  5 32  1  0
  5 33  1  0
  7 34  1  0
  8 35  1  0
  9 36  1  0
 10 37  1  0
 11 38  1  0
 16 39  1  6
 19 40  1  0
 20 41  1  0
 20 42  1  0
 22 43  1  0
 23 44  1  0
 24 45  1  0
M  CHG  2   6   1  27  -1
M  END
$$$$
