
     RDKit          3D

 70 71  0  0  0  0  0  0  0  0999 V2000
   -7.0799   -0.2176   -0.7777 C   0  0  0  0  0  0  0  0  0  0  0  0
   -6.1431   -1.0079    0.1402 C   0  0  0  0  0  0  0  0  0  0  0  0
   -6.3248   -2.5090   -0.0746 C   0  0  0  0  0  0  0  0  0  0  0  0
   -4.7839   -0.6643   -0.1287 O   0  0  0  0  0  0  0  0  0  0  0  0
   -4.1907    0.5309    0.2931 C   0  0  0  0  0  0  0  0  0  0  0  0
   -4.8346    1.3614    0.9907 O   0  0  0  0  0  0  0  0  0  0  0  0
   -2.7616    0.8043   -0.0581 C   0  0  0  0  0  0  0  0  0  0  0  0
   -1.7983   -0.0804    0.7479 C   0  0  0  0  0  0  0  0  0  0  0  0
   -1.8110    0.2116    2.2593 C   0  0  0  0  0  0  0  0  0  0  0  0
   -1.3252    1.6059    2.5765 C   0  0  0  0  0  0  0  0  0  0  0  0
   -0.0323    1.9415    2.7359 C   0  0  0  0  0  0  0  0  0  0  0  0
    1.0995    0.9454    2.6630 C   0  0  0  0  0  0  0  0  0  0  0  0
    2.4830    1.6321    2.7015 C   0  0  1  0  0  0  0  0  0  0  0  0
    2.8274    2.3145    4.0313 C   0  0  1  0  0  0  0  0  0  0  0  0
    2.3932    1.5354    5.1178 O   0  0  0  0  0  0  0  0  0  0  0  0
    4.3562    2.4094    4.0382 C   0  0  0  0  0  0  0  0  0  0  0  0
    4.8715    1.3563    3.0414 C   0  0  1  0  0  0  0  0  0  0  0  0
    5.7590    0.4481    3.6472 O   0  0  0  0  0  0  0  0  0  0  0  0
    3.6310    0.6451    2.4753 C   0  0  2  0  0  0  0  0  0  0  0  0
    3.7820    0.3012    1.0106 C   0  0  0  0  0  0  0  0  0  0  0  0
    3.2663   -0.8296    0.5058 C   0  0  0  0  0  0  0  0  0  0  0  0
    3.2436   -1.0764   -0.9790 C   0  0  1  0  0  0  0  0  0  0  0  0
    4.5583   -1.2581   -1.4358 O   0  0  0  0  0  0  0  0  0  0  0  0
    2.3976   -2.3187   -1.3044 C   0  0  0  0  0  0  0  0  0  0  0  0
    2.1865   -2.4362   -2.7118 O   0  0  0  0  0  0  0  0  0  0  0  0
    1.2821   -1.6687   -3.4656 C   0  0  0  0  0  0  0  0  0  0  0  0
    0.4085   -0.7298   -2.8830 C   0  0  0  0  0  0  0  0  0  0  0  0
   -0.4601    0.0136   -3.6845 C   0  0  0  0  0  0  0  0  0  0  0  0
   -0.4787   -0.1775   -5.0674 C   0  0  0  0  0  0  0  0  0  0  0  0
    0.3624   -1.1320   -5.6636 C   0  0  0  0  0  0  0  0  0  0  0  0
    1.2549   -1.8565   -4.8533 C   0  0  0  0  0  0  0  0  0  0  0  0
    0.3787   -1.3058   -7.1615 C   0  0  0  0  0  0  0  0  0  0  0  0
   -0.8683   -1.0368   -7.6991 F   0  0  0  0  0  0  0  0  0  0  0  0
    1.3027   -0.4366   -7.7103 F   0  0  0  0  0  0  0  0  0  0  0  0
    0.7238   -2.6031   -7.4991 F   0  0  0  0  0  0  0  0  0  0  0  0
   -6.8383   -0.4193   -1.8432 H   0  0  0  0  0  0  0  0  0  0  0  0
   -8.1367   -0.5007   -0.5846 H   0  0  0  0  0  0  0  0  0  0  0  0
   -6.9732    0.8709   -0.5892 H   0  0  0  0  0  0  0  0  0  0  0  0
   -6.3867   -0.7786    1.2017 H   0  0  0  0  0  0  0  0  0  0  0  0
   -6.0872   -2.7830   -1.1249 H   0  0  0  0  0  0  0  0  0  0  0  0
   -7.3704   -2.8079    0.1528 H   0  0  0  0  0  0  0  0  0  0  0  0
   -5.6443   -3.0687    0.6016 H   0  0  0  0  0  0  0  0  0  0  0  0
   -2.6219    0.5897   -1.1389 H   0  0  0  0  0  0  0  0  0  0  0  0
   -2.5235    1.8786    0.0978 H   0  0  0  0  0  0  0  0  0  0  0  0
   -2.0620   -1.1487    0.5867 H   0  0  0  0  0  0  0  0  0  0  0  0
   -0.7741    0.0615    0.3464 H   0  0  0  0  0  0  0  0  0  0  0  0
   -2.8440    0.0963    2.6506 H   0  0  0  0  0  0  0  0  0  0  0  0
   -1.1928   -0.5443    2.7883 H   0  0  0  0  0  0  0  0  0  0  0  0
   -2.0727    2.3892    2.6643 H   0  0  0  0  0  0  0  0  0  0  0  0
    0.1968    2.9858    2.9278 H   0  0  0  0  0  0  0  0  0  0  0  0
    1.0187    0.3908    1.7076 H   0  0  0  0  0  0  0  0  0  0  0  0
    1.0044    0.2096    3.4899 H   0  0  0  0  0  0  0  0  0  0  0  0
    2.5144    2.4088    1.9006 H   0  0  0  0  0  0  0  0  0  0  0  0
    2.3674    3.3294    4.0744 H   0  0  0  0  0  0  0  0  0  0  0  0
    2.4158    2.1244    5.9167 H   0  0  0  0  0  0  0  0  0  0  0  0
    4.7682    2.2566    5.0603 H   0  0  0  0  0  0  0  0  0  0  0  0
    4.6628    3.4234    3.6982 H   0  0  0  0  0  0  0  0  0  0  0  0
    5.4197    1.8863    2.2304 H   0  0  0  0  0  0  0  0  0  0  0  0
    5.2891    0.0288    4.4154 H   0  0  0  0  0  0  0  0  0  0  0  0
    3.4371   -0.2783    3.0696 H   0  0  0  0  0  0  0  0  0  0  0  0
    4.1983    1.0452    0.3357 H   0  0  0  0  0  0  0  0  0  0  0  0
    2.7964   -1.5474    1.1745 H   0  0  0  0  0  0  0  0  0  0  0  0
    2.7906   -0.1824   -1.4661 H   0  0  0  0  0  0  0  0  0  0  0  0
    4.5451   -1.1023   -2.4163 H   0  0  0  0  0  0  0  0  0  0  0  0
    1.4212   -2.2983   -0.7729 H   0  0  0  0  0  0  0  0  0  0  0  0
    2.9379   -3.2246   -0.9549 H   0  0  0  0  0  0  0  0  0  0  0  0
    0.3963   -0.5566   -1.8169 H   0  0  0  0  0  0  0  0  0  0  0  0
   -1.1171    0.7457   -3.2330 H   0  0  0  0  0  0  0  0  0  0  0  0
   -1.1490    0.4219   -5.6706 H   0  0  0  0  0  0  0  0  0  0  0  0
    1.9379   -2.5699   -5.2980 H   0  0  0  0  0  0  0  0  0  0  0  0
  1  2  1  0
  2  3  1  0
  2  4  1  0
  4  5  1  0
  5  6  2  0
  5  7  1  0
  7  8  1  0
  8  9  1  0
  9 10  1  0
 10 11  2  0
 11 12  1  0
 12 13  1  0
 13 14  1  0
 14 15  1  0
 14 16  1  0
 16 17  1  0
 17 18  1  0
 17 19  1  0
 19 20  1  0
 20 21  2  0
 21 22  1  0
 22 23  1  0
 22 24  1  0
 24 25  1  0
 25 26  1  0
 26 27  2  0
 27 28  1  0
 28 29  2  0
 29 30  1  0
 30 31  2  0
 30 32  1  0
 32 33  1  0
 32 34  1  0
 32 35  1  0
 19 13  1  0
 31 26  1  0
  1 36  1  0
  1 37  1  0
  1 38  1  0
  2 39  1  0
  3 40  1  0
  3 41  1  0
  3 42  1  0
  7 43  1  0
  7 44  1  0
  8 45  1  0
  8 46  1  0
  9 47  1  0
  9 48  1  0
 10 49  1  0
 11 50  1  0
 12 51  1  0
 12 52  1  0
 13 53  1  6
 14 54  1  6
 15 55  1  0
 16 56  1  0
 16 57  1  0
 17 58  1  6
 18 59  1  0
 19 60  1  1
 20 61  1  0
 21 62  1  0
 22 63  1  6
 23 64  1  0
 24 65  1  0
 24 66  1  0
 27 67  1  0
 28 68  1  0
 29 69  1  0
 31 70  1  0
M  END
$$$$
