
     RDKit          3D

  7  6  0  0  0  0  0  0  0  0999 V2000
    1.1524   -0.8237   -0.3216 O   0  0  0  0  0  0  0  0  0  0  0  0
    0.3370    0.2452    0.0376 C   0  0  0  0  0  0  0  0  0  0  0  0
    0.8470    1.3671    0.2977 O   0  0  0  0  0  0  0  0  0  0  0  0
   -1.1137    0.0700    0.1142 C   0  0  0  0  0  0  0  0  0  0  0  0
   -1.6342   -1.0468   -0.1436 O   0  0  0  0  0  0  0  0  0  0  0  0
    2.1580   -0.7141   -0.3779 H   0  0  0  0  0  0  0  0  0  0  0  0
   -1.7466    0.9022    0.3937 H   0  0  0  0  0  0  0  0  0  0  0  0
  1  2  1  0
  2  3  2  0
  2  4  1  0
  4  5  2  0
  1  6  1  0
  4  7  1  0
M  END
$$$$
