
     RDKit          3D

 50 52  0  0  0  0  0  0  0  0999 V2000
    7.7074   -0.3257   -0.1026 C   0  0  0  0  0  0  0  0  0  0  0  0
    6.4397    0.3566    0.3188 C   0  0  0  0  0  0  0  0  0  0  0  0
    5.6063    0.9534   -0.6405 C   0  0  0  0  0  0  0  0  0  0  0  0
    4.4374    1.6262   -0.2474 C   0  0  0  0  0  0  0  0  0  0  0  0
    3.5198    2.2315   -1.2744 C   0  0  0  0  0  0  0  0  0  0  0  0
    2.3119    1.4207   -1.4088 N   0  0  0  0  0  0  0  0  0  0  0  0
    2.3227    0.1305   -2.0417 C   0  0  0  0  0  0  0  0  0  0  0  0
    3.3265   -0.2244   -2.7177 O   0  0  0  0  0  0  0  0  0  0  0  0
    1.1699   -0.7886   -1.9399 C   0  0  0  0  0  0  0  0  0  0  0  0
    0.2133   -0.6681   -0.9199 C   0  0  0  0  0  0  0  0  0  0  0  0
   -0.8501   -1.5828   -0.8757 C   0  0  0  0  0  0  0  0  0  0  0  0
   -0.9203   -2.5637   -1.8152 N   0  0  0  0  0  0  0  0  0  0  0  0
    0.0179   -2.6769   -2.7890 C   0  0  0  0  0  0  0  0  0  0  0  0
    1.0511   -1.7986   -2.8433 N   0  0  0  0  0  0  0  0  0  0  0  0
   -1.8879   -1.4977    0.1755 C   0  0  0  0  0  0  0  0  0  0  0  0
   -1.8266   -0.5844    1.0438 O   0  0  0  0  0  0  0  0  0  0  0  0
   -2.9656   -2.4474    0.2160 N   0  0  0  0  0  0  0  0  0  0  0  0
   -4.0487   -2.3594    1.1930 C   0  0  0  0  0  0  0  0  0  0  0  0
   -4.9702   -1.2213    0.8475 C   0  0  0  0  0  0  0  0  0  0  0  0
   -5.8148   -1.3184   -0.2691 C   0  0  0  0  0  0  0  0  0  0  0  0
   -6.6628   -0.2601   -0.6045 C   0  0  0  0  0  0  0  0  0  0  0  0
   -6.6676    0.9064    0.1644 C   0  0  0  0  0  0  0  0  0  0  0  0
   -5.8110    1.0276    1.2691 C   0  0  0  0  0  0  0  0  0  0  0  0
   -5.8395    2.2661    2.1149 C   0  0  0  0  0  0  0  0  0  0  0  0
   -4.9737   -0.0449    1.6154 C   0  0  0  0  0  0  0  0  0  0  0  0
    4.1080    1.6979    1.1148 C   0  0  0  0  0  0  0  0  0  0  0  0
    4.9454    1.1213    2.0729 C   0  0  0  0  0  0  0  0  0  0  0  0
    6.1110    0.4593    1.6791 C   0  0  0  0  0  0  0  0  0  0  0  0
    7.9798   -1.1274    0.6165 H   0  0  0  0  0  0  0  0  0  0  0  0
    8.5303    0.4180   -0.1447 H   0  0  0  0  0  0  0  0  0  0  0  0
    7.5870   -0.7905   -1.1044 H   0  0  0  0  0  0  0  0  0  0  0  0
    5.8660    0.8910   -1.6907 H   0  0  0  0  0  0  0  0  0  0  0  0
    4.0212    2.3293   -2.2619 H   0  0  0  0  0  0  0  0  0  0  0  0
    3.2408    3.2575   -0.9494 H   0  0  0  0  0  0  0  0  0  0  0  0
    1.4119    1.8282   -1.0712 H   0  0  0  0  0  0  0  0  0  0  0  0
    0.3019    0.0989   -0.1624 H   0  0  0  0  0  0  0  0  0  0  0  0
   -0.0572   -3.4684   -3.5218 H   0  0  0  0  0  0  0  0  0  0  0  0
   -2.9883   -3.2362   -0.4686 H   0  0  0  0  0  0  0  0  0  0  0  0
   -4.6293   -3.3075    1.1846 H   0  0  0  0  0  0  0  0  0  0  0  0
   -3.6258   -2.2473    2.2153 H   0  0  0  0  0  0  0  0  0  0  0  0
   -5.8173   -2.2150   -0.8768 H   0  0  0  0  0  0  0  0  0  0  0  0
   -7.3186   -0.3446   -1.4615 H   0  0  0  0  0  0  0  0  0  0  0  0
   -7.3362    1.7153   -0.1031 H   0  0  0  0  0  0  0  0  0  0  0  0
   -6.1205    3.1515    1.5056 H   0  0  0  0  0  0  0  0  0  0  0  0
   -4.8398    2.4593    2.5593 H   0  0  0  0  0  0  0  0  0  0  0  0
   -6.5805    2.1384    2.9313 H   0  0  0  0  0  0  0  0  0  0  0  0
   -4.3244    0.0381    2.4789 H   0  0  0  0  0  0  0  0  0  0  0  0
    3.2039    2.2024    1.4332 H   0  0  0  0  0  0  0  0  0  0  0  0
    4.6909    1.1883    3.1228 H   0  0  0  0  0  0  0  0  0  0  0  0
    6.7546    0.0241    2.4337 H   0  0  0  0  0  0  0  0  0  0  0  0
  1  2  1  0
  2  3  2  0
  3  4  1  0
  4  5  1  0
  5  6  1  0
  6  7  1  0
  7  8  2  0
  7  9  1  0
  9 10  2  0
 10 11  1  0
 11 12  2  0
 12 13  1  0
 13 14  2  0
 11 15  1  0
 15 16  2  0
 15 17  1  0
 17 18  1  0
 18 19  1  0
 19 20  2  0
 20 21  1  0
 21 22  2  0
 22 23  1  0
 23 24  1  0
 23 25  2  0
  4 26  2  0
 26 27  1  0
 27 28  2  0
 28  2  1  0
 14  9  1  0
 25 19  1  0
  1 29  1  0
  1 30  1  0
  1 31  1  0
  3 32  1  0
  5 33  1  0
  5 34  1  0
  6 35  1  0
 10 36  1  0
 13 37  1  0
 17 38  1  0
 18 39  1  0
 18 40  1  0
 20 41  1  0
 21 42  1  0
 22 43  1  0
 24 44  1  0
 24 45  1  0
 24 46  1  0
 25 47  1  0
 26 48  1  0
 27 49  1  0
 28 50  1  0
M  END
$$$$
