
     RDKit          3D

 32 32  0  0  0  0  0  0  0  0999 V2000
    0.6812    0.4553   -1.6174 C   0  0  1  0  0  0  0  0  0  0  0  0
    1.0985    0.1485   -2.9236 O   0  0  0  0  0  0  0  0  0  0  0  0
   -0.7022    1.0841   -1.6376 C   0  0  2  0  0  0  0  0  0  0  0  0
   -0.8155    2.1050   -0.6761 O   0  0  0  0  0  0  0  0  0  0  0  0
   -1.6006   -0.1121   -1.3381 C   0  0  2  0  0  0  0  0  0  0  0  0
   -3.0148    0.2155   -0.8071 C   0  0  0  0  0  0  0  0  0  0  0  0
   -3.1407    0.5614    0.9896 P   0  0  0  0  0  5  0  0  0  0  0  0
   -2.1457   -0.4697    1.8934 O   0  0  0  0  0  0  0  0  0  0  0  0
   -4.7453    0.3087    1.4623 O   0  0  0  0  0  0  0  0  0  0  0  0
   -2.7851    2.0028    1.2763 O   0  0  0  0  0  0  0  0  0  0  0  0
   -0.8958   -0.9807   -0.4881 O   0  0  0  0  0  0  0  0  0  0  0  0
    0.4724   -0.8484   -0.8194 C   0  0  2  0  0  0  0  0  0  0  0  0
    1.3064   -0.8804    0.4657 C   0  0  0  0  0  0  0  0  0  0  0  0
    2.6758   -0.8849    0.1350 O   0  0  0  0  0  0  0  0  0  0  0  0
    3.5787   -0.8341    1.5808 P   0  0  0  0  0  5  0  0  0  0  0  0
    5.2211   -0.9961    1.2083 O   0  0  0  0  0  0  0  0  0  0  0  0
    3.1184   -2.1020    2.6042 O   0  0  0  0  0  0  0  0  0  0  0  0
    3.3575    0.4886    2.2812 O   0  0  0  0  0  0  0  0  0  0  0  0
    1.4265    1.1322   -1.1344 H   0  0  0  0  0  0  0  0  0  0  0  0
    1.4041    1.0004   -3.3320 H   0  0  0  0  0  0  0  0  0  0  0  0
   -0.9454    1.5123   -2.6352 H   0  0  0  0  0  0  0  0  0  0  0  0
   -0.4635    1.7608    0.1861 H   0  0  0  0  0  0  0  0  0  0  0  0
   -1.7556   -0.6466   -2.3054 H   0  0  0  0  0  0  0  0  0  0  0  0
   -3.6631   -0.6638   -1.0086 H   0  0  0  0  0  0  0  0  0  0  0  0
   -3.4433    1.0702   -1.3723 H   0  0  0  0  0  0  0  0  0  0  0  0
   -1.3150    0.0450    2.0539 H   0  0  0  0  0  0  0  0  0  0  0  0
   -4.8890   -0.6657    1.3583 H   0  0  0  0  0  0  0  0  0  0  0  0
    0.7635   -1.7281   -1.4376 H   0  0  0  0  0  0  0  0  0  0  0  0
    1.0422   -1.8072    1.0234 H   0  0  0  0  0  0  0  0  0  0  0  0
    1.0425    0.0069    1.0853 H   0  0  0  0  0  0  0  0  0  0  0  0
    5.4021   -0.2797    0.5487 H   0  0  0  0  0  0  0  0  0  0  0  0
    3.7298   -2.0348    3.3806 H   0  0  0  0  0  0  0  0  0  0  0  0
  1  2  1  0
  1  3  1  0
  3  4  1  0
  3  5  1  0
  5  6  1  0
  6  7  1  0
  7  8  1  0
  7  9  1  0
  7 10  2  0
  5 11  1  0
 11 12  1  0
 12 13  1  0
 13 14  1  0
 14 15  1  0
 15 16  1  0
 15 17  1  0
 15 18  2  0
 12  1  1  0
  1 19  1  1
  2 20  1  0
  3 21  1  6
  4 22  1  0
  5 23  1  6
  6 24  1  0
  6 25  1  0
  8 26  1  0
  9 27  1  0
 12 28  1  6
 13 29  1  0
 13 30  1  0
 16 31  1  0
 17 32  1  0
M  END
$$$$
