
     RDKit          3D

 69 72  0  0  0  0  0  0  0  0999 V2000
   -5.6098   -4.5750   -0.4227 N   0  0  0  0  0  0  0  0  0  0  0  0
   -5.0392   -3.3157   -0.0682 C   0  0  0  0  0  0  0  0  0  0  0  0
   -5.5448   -2.2288   -0.5793 N   0  0  0  0  0  0  0  0  0  0  0  0
   -5.0906   -0.8562   -0.3360 C   0  0  2  0  0  0  0  0  0  0  0  0
   -6.1415    0.1468   -0.8784 C   0  0  0  0  0  0  0  0  0  0  0  0
   -5.6742    1.6197   -0.6943 C   0  0  0  0  0  0  0  0  0  0  0  0
   -6.8304    2.6396   -0.6428 C   0  0  0  0  0  0  0  0  0  0  0  0
   -8.0543    2.1513   -1.4206 C   0  0  0  0  0  0  0  0  0  0  0  0
   -8.6040    0.8350   -0.8388 C   0  0  0  0  0  0  0  0  0  0  0  0
   -7.5176   -0.0614   -0.2085 C   0  0  0  0  0  0  0  0  0  0  0  0
   -3.7557   -0.6414   -1.0086 C   0  0  0  0  0  0  0  0  0  0  0  0
   -3.5946   -1.0066   -2.2056 O   0  0  0  0  0  0  0  0  0  0  0  0
   -2.6889    0.0088   -0.3050 N   0  0  0  0  0  0  0  0  0  0  0  0
   -1.3868    0.2306   -0.9340 C   0  0  0  0  0  0  0  0  0  0  0  0
   -0.4829    1.0433   -0.0420 C   0  0  0  0  0  0  0  0  0  0  0  0
   -0.9524    2.0737    0.5149 O   0  0  0  0  0  0  0  0  0  0  0  0
    0.9083    0.7036    0.1432 N   0  0  0  0  0  0  0  0  0  0  0  0
    1.6570    1.2968    1.2620 C   0  0  0  0  0  0  0  0  0  0  0  0
    2.7003    0.3045    1.7879 C   0  0  0  0  0  0  0  0  0  0  0  0
    3.6401   -0.2356    0.6758 C   0  0  0  0  0  0  0  0  0  0  0  0
    3.1351    0.0677   -0.7499 C   0  0  0  0  0  0  0  0  0  0  0  0
    1.6174   -0.1132   -0.8565 C   0  0  0  0  0  0  0  0  0  0  0  0
    5.0435    0.2870    0.8426 C   0  0  0  0  0  0  0  0  0  0  0  0
    6.1942   -0.4731    0.8727 C   0  0  0  0  0  0  0  0  0  0  0  0
    7.2137    0.4590    0.9817 C   0  0  0  0  0  0  0  0  0  0  0  0
    6.6919    1.7034    0.9836 N   0  0  0  0  0  0  0  0  0  0  0  0
    5.3765    1.5897    0.9064 N   0  0  0  0  0  0  0  0  0  0  0  0
    8.6675    0.1836    0.9848 C   0  0  0  0  0  0  0  0  0  0  0  0
    9.2380   -0.8892    1.7137 C   0  0  0  0  0  0  0  0  0  0  0  0
    8.2548   -1.9040    2.7736 Cl  0  0  0  0  0  0  0  0  0  0  0  0
   10.6281   -1.1102    1.6526 C   0  0  0  0  0  0  0  0  0  0  0  0
   11.3867   -2.4292    2.5369 Cl  0  0  0  0  0  0  0  0  0  0  0  0
   11.4401   -0.2673    0.8883 C   0  0  0  0  0  0  0  0  0  0  0  0
   10.8824    0.8028    0.1912 C   0  0  0  0  0  0  0  0  0  0  0  0
    9.5072    1.0308    0.2419 C   0  0  0  0  0  0  0  0  0  0  0  0
   -3.9308   -3.2807    0.8407 N   0  0  0  0  0  0  0  0  0  0  0  0
   -5.2260   -5.4619   -0.0280 H   0  0  0  0  0  0  0  0  0  0  0  0
   -6.4187   -4.6244   -1.0816 H   0  0  0  0  0  0  0  0  0  0  0  0
   -4.9973   -0.6942    0.7610 H   0  0  0  0  0  0  0  0  0  0  0  0
   -6.2674   -0.0449   -1.9691 H   0  0  0  0  0  0  0  0  0  0  0  0
   -4.9977    1.8846   -1.5363 H   0  0  0  0  0  0  0  0  0  0  0  0
   -5.0863    1.7242    0.2441 H   0  0  0  0  0  0  0  0  0  0  0  0
   -6.4879    3.6114   -1.0596 H   0  0  0  0  0  0  0  0  0  0  0  0
   -7.1245    2.8145    0.4158 H   0  0  0  0  0  0  0  0  0  0  0  0
   -7.7690    1.9986   -2.4850 H   0  0  0  0  0  0  0  0  0  0  0  0
   -8.8479    2.9290   -1.3940 H   0  0  0  0  0  0  0  0  0  0  0  0
   -9.3679    1.0653   -0.0643 H   0  0  0  0  0  0  0  0  0  0  0  0
   -9.1173    0.2768   -1.6520 H   0  0  0  0  0  0  0  0  0  0  0  0
   -7.8432   -1.1202   -0.2965 H   0  0  0  0  0  0  0  0  0  0  0  0
   -7.4327    0.1717    0.8763 H   0  0  0  0  0  0  0  0  0  0  0  0
   -2.8465    0.2962    0.6879 H   0  0  0  0  0  0  0  0  0  0  0  0
   -0.9373   -0.7574   -1.1616 H   0  0  0  0  0  0  0  0  0  0  0  0
   -1.5250    0.7842   -1.8872 H   0  0  0  0  0  0  0  0  0  0  0  0
    0.9717    1.5544    2.0991 H   0  0  0  0  0  0  0  0  0  0  0  0
    2.1545    2.2303    0.9218 H   0  0  0  0  0  0  0  0  0  0  0  0
    2.1544   -0.5525    2.2412 H   0  0  0  0  0  0  0  0  0  0  0  0
    3.2744    0.7821    2.6125 H   0  0  0  0  0  0  0  0  0  0  0  0
    3.6761   -1.3434    0.7847 H   0  0  0  0  0  0  0  0  0  0  0  0
    3.3829    1.1149   -1.0338 H   0  0  0  0  0  0  0  0  0  0  0  0
    3.6396   -0.6060   -1.4767 H   0  0  0  0  0  0  0  0  0  0  0  0
    1.3059    0.1890   -1.8803 H   0  0  0  0  0  0  0  0  0  0  0  0
    1.3616   -1.1844   -0.7073 H   0  0  0  0  0  0  0  0  0  0  0  0
    6.2752   -1.5479    0.7799 H   0  0  0  0  0  0  0  0  0  0  0  0
    4.7199    2.4007    0.8800 H   0  0  0  0  0  0  0  0  0  0  0  0
   12.5086   -0.4358    0.8418 H   0  0  0  0  0  0  0  0  0  0  0  0
   11.5173    1.4562   -0.3932 H   0  0  0  0  0  0  0  0  0  0  0  0
    9.0942    1.8621   -0.3168 H   0  0  0  0  0  0  0  0  0  0  0  0
   -3.4796   -2.3917    1.1458 H   0  0  0  0  0  0  0  0  0  0  0  0
   -3.5485   -4.1720    1.2267 H   0  0  0  0  0  0  0  0  0  0  0  0
  1  2  1  0
  2  3  2  3
  3  4  1  0
  4  5  1  0
  5  6  1  0
  6  7  1  0
  7  8  1  0
  8  9  1  0
  9 10  1  0
  4 11  1  0
 11 12  2  0
 11 13  1  0
 13 14  1  0
 14 15  1  0
 15 16  2  0
 15 17  1  0
 17 18  1  0
 18 19  1  0
 19 20  1  0
 20 21  1  0
 21 22  1  0
 20 23  1  0
 23 24  2  0
 24 25  1  0
 25 26  2  0
 26 27  1  0
 25 28  1  0
 28 29  2  0
 29 30  1  0
 29 31  1  0
 31 32  1  0
 31 33  2  0
 33 34  1  0
 34 35  2  0
  2 36  1  0
 10  5  1  0
 22 17  1  0
 27 23  1  0
 35 28  1  0
  1 37  1  0
  1 38  1  0
  4 39  1  1
  5 40  1  0
  6 41  1  0
  6 42  1  0
  7 43  1  0
  7 44  1  0
  8 45  1  0
  8 46  1  0
  9 47  1  0
  9 48  1  0
 10 49  1  0
 10 50  1  0
 13 51  1  0
 14 52  1  0
 14 53  1  0
 18 54  1  0
 18 55  1  0
 19 56  1  0
 19 57  1  0
 20 58  1  0
 21 59  1  0
 21 60  1  0
 22 61  1  0
 22 62  1  0
 24 63  1  0
 27 64  1  0
 33 65  1  0
 34 66  1  0
 35 67  1  0
 36 68  1  0
 36 69  1  0
M  END
$$$$
