
     RDKit          3D

 46 48  0  0  0  0  0  0  0  0999 V2000
    5.9246   -1.7780   -0.8394 N   0  0  0  0  0  0  0  0  0  0  0  0
    5.8841   -0.4220   -0.2852 C   0  0  1  0  0  0  0  0  0  0  0  0
    4.8432   -0.3271    0.8453 C   0  0  0  0  0  0  0  0  0  0  0  0
    3.4227   -0.5794    0.3353 C   0  0  0  0  0  0  0  0  0  0  0  0
    2.2348   -0.4110    1.7127 S   0  0  0  0  0  0  0  0  0  0  0  0
    0.7281   -0.6816    0.7067 C   0  0  0  0  0  0  0  0  0  0  0  0
    0.2004    0.6342    0.1095 C   0  0  1  0  0  0  0  0  0  0  0  0
   -0.7999    0.3321   -0.8423 O   0  0  0  0  0  0  0  0  0  0  0  0
   -2.0163    0.8879   -0.3926 C   0  0  2  0  0  0  0  0  0  0  0  0
   -1.8651    1.2877    1.0681 C   0  0  2  0  0  0  0  0  0  0  0  0
   -2.6340    2.4207    1.3796 O   0  0  0  0  0  0  0  0  0  0  0  0
   -0.3880    1.5635    1.1772 C   0  0  2  0  0  0  0  0  0  0  0  0
   -0.0979    2.8988    0.8428 O   0  0  0  0  0  0  0  0  0  0  0  0
   -3.1006   -0.0816   -0.5546 N   0  0  0  0  0  0  0  0  0  0  0  0
   -3.0632   -1.4222   -0.3343 C   0  0  0  0  0  0  0  0  0  0  0  0
   -4.2737   -2.0281   -0.4843 N   0  0  0  0  0  0  0  0  0  0  0  0
   -5.0828   -0.9995   -0.8014 C   0  0  0  0  0  0  0  0  0  0  0  0
   -6.4504   -0.9944   -1.0514 C   0  0  0  0  0  0  0  0  0  0  0  0
   -7.2255   -2.1929   -1.0212 N   0  0  0  0  0  0  0  0  0  0  0  0
   -7.0392    0.2084   -1.3254 N   0  0  0  0  0  0  0  0  0  0  0  0
   -6.3115    1.3714   -1.3510 C   0  0  0  0  0  0  0  0  0  0  0  0
   -4.9673    1.3546   -1.1013 N   0  0  0  0  0  0  0  0  0  0  0  0
   -4.3866    0.1594   -0.8356 C   0  0  0  0  0  0  0  0  0  0  0  0
    7.2439   -0.0102    0.2146 C   0  0  0  0  0  0  0  0  0  0  0  0
    7.8790    1.0955   -0.3422 O   0  0  0  0  0  0  0  0  0  0  0  0
    7.8090   -0.6601    1.1355 O   0  0  0  0  0  0  0  0  0  0  0  0
    6.6099   -1.7969   -1.6298 H   0  0  0  0  0  0  0  0  0  0  0  0
    6.2678   -2.4454   -0.1100 H   0  0  0  0  0  0  0  0  0  0  0  0
    5.5857    0.2807   -1.0951 H   0  0  0  0  0  0  0  0  0  0  0  0
    4.8835    0.6913    1.2921 H   0  0  0  0  0  0  0  0  0  0  0  0
    5.0838   -1.0641    1.6433 H   0  0  0  0  0  0  0  0  0  0  0  0
    3.3495   -1.6067   -0.0809 H   0  0  0  0  0  0  0  0  0  0  0  0
    3.1788    0.1547   -0.4611 H   0  0  0  0  0  0  0  0  0  0  0  0
   -0.0500   -1.1364    1.3561 H   0  0  0  0  0  0  0  0  0  0  0  0
    0.9373   -1.4080   -0.1076 H   0  0  0  0  0  0  0  0  0  0  0  0
    1.0357    1.1437   -0.4175 H   0  0  0  0  0  0  0  0  0  0  0  0
   -2.2281    1.7892   -1.0116 H   0  0  0  0  0  0  0  0  0  0  0  0
   -2.1259    0.4387    1.7443 H   0  0  0  0  0  0  0  0  0  0  0  0
   -3.5730    2.1090    1.4579 H   0  0  0  0  0  0  0  0  0  0  0  0
   -0.0129    1.3283    2.2014 H   0  0  0  0  0  0  0  0  0  0  0  0
   -0.1982    3.4316    1.6745 H   0  0  0  0  0  0  0  0  0  0  0  0
   -2.1660   -1.9581   -0.0526 H   0  0  0  0  0  0  0  0  0  0  0  0
   -8.2516   -2.1586   -1.2108 H   0  0  0  0  0  0  0  0  0  0  0  0
   -6.7824   -3.1149   -0.8114 H   0  0  0  0  0  0  0  0  0  0  0  0
   -6.8050    2.3085   -1.5686 H   0  0  0  0  0  0  0  0  0  0  0  0
    8.7932    1.3875   -0.0179 H   0  0  0  0  0  0  0  0  0  0  0  0
  1  2  1  0
  2  3  1  0
  3  4  1  0
  4  5  1  0
  5  6  1  0
  6  7  1  0
  7  8  1  0
  8  9  1  0
  9 10  1  0
 10 11  1  0
 10 12  1  0
 12 13  1  0
  9 14  1  0
 14 15  1  0
 15 16  2  0
 16 17  1  0
 17 18  2  0
 18 19  1  0
 18 20  1  0
 20 21  2  0
 21 22  1  0
 22 23  2  0
  2 24  1  0
 24 25  1  0
 24 26  2  0
 12  7  1  0
 23 14  1  0
 23 17  1  0
  1 27  1  0
  1 28  1  0
  2 29  1  6
  3 30  1  0
  3 31  1  0
  4 32  1  0
  4 33  1  0
  6 34  1  0
  6 35  1  0
  7 36  1  6
  9 37  1  6
 10 38  1  1
 11 39  1  0
 12 40  1  1
 13 41  1  0
 15 42  1  0
 19 43  1  0
 19 44  1  0
 21 45  1  0
 25 46  1  0
M  END
$$$$
