
     RDKit          3D

 67 71  0  0  0  0  0  0  0  0999 V2000
    8.0072   -0.6335   -0.1554 C   0  0  0  0  0  0  0  0  0  0  0  0
    7.3933    0.7053   -0.1659 N   0  0  0  0  0  0  0  0  0  0  0  0
    6.5309    0.9067   -1.3495 C   0  0  0  0  0  0  0  0  0  0  0  0
    5.2285    0.0862   -1.2814 C   0  0  0  0  0  0  0  0  0  0  0  0
    4.6188    0.0486    0.1473 C   0  0  0  0  0  0  0  0  0  0  0  0
    5.2026    1.1549    1.0435 C   0  0  0  0  0  0  0  0  0  0  0  0
    6.7366    1.0340    1.1278 C   0  0  0  0  0  0  0  0  0  0  0  0
    3.1331    0.0672    0.1573 N   0  0  0  0  0  0  0  0  0  0  0  0
    2.5207    1.3534   -0.2727 C   0  0  0  0  0  0  0  0  0  0  0  0
    1.1619    1.1917   -0.9803 C   0  0  0  0  0  0  0  0  0  0  0  0
    0.3929    0.0841   -0.3950 N   0  0  0  0  0  0  0  0  0  0  0  0
    1.0638   -1.2033   -0.1625 C   0  0  0  0  0  0  0  0  0  0  0  0
    2.5530   -1.1197   -0.4976 C   0  0  0  0  0  0  0  0  0  0  0  0
   -1.0347    0.2120   -0.2062 C   0  0  0  0  0  0  0  0  0  0  0  0
   -1.6467    1.1893   -0.7204 O   0  0  0  0  0  0  0  0  0  0  0  0
   -1.8092   -0.7632    0.6579 C   0  0  2  0  0  0  0  0  0  0  0  0
   -3.2496   -0.6721    0.3864 N   0  0  0  0  0  0  0  0  0  0  0  0
   -3.8235   -1.1607   -0.8382 C   0  0  0  0  0  0  0  0  0  0  0  0
   -3.1201   -1.8562   -1.6215 O   0  0  0  0  0  0  0  0  0  0  0  0
   -5.2335   -0.8725   -1.1918 C   0  0  0  0  0  0  0  0  0  0  0  0
   -5.9291   -1.7346   -2.0825 C   0  0  0  0  0  0  0  0  0  0  0  0
   -7.2650   -1.4781   -2.4397 C   0  0  0  0  0  0  0  0  0  0  0  0
   -7.8771   -0.3521   -1.8997 C   0  0  0  0  0  0  0  0  0  0  0  0
   -9.1495    0.1474   -2.0721 C   0  0  0  0  0  0  0  0  0  0  0  0
   -9.1941    1.3015   -1.2965 C   0  0  0  0  0  0  0  0  0  0  0  0
   -8.0105    1.5081   -0.6750 N   0  0  0  0  0  0  0  0  0  0  0  0
   -7.2165    0.4918   -1.0500 C   0  0  0  0  0  0  0  0  0  0  0  0
   -5.8932    0.2687   -0.6743 C   0  0  0  0  0  0  0  0  0  0  0  0
   -1.5329   -0.4951    2.1239 C   0  0  0  0  0  0  0  0  0  0  0  0
   -1.7537    0.7814    2.6762 C   0  0  0  0  0  0  0  0  0  0  0  0
   -1.5041    1.0188    4.0310 C   0  0  0  0  0  0  0  0  0  0  0  0
   -1.0402   -0.0138    4.8492 C   0  0  0  0  0  0  0  0  0  0  0  0
   -0.8292   -1.2872    4.3150 C   0  0  0  0  0  0  0  0  0  0  0  0
   -1.0779   -1.5302    2.9608 C   0  0  0  0  0  0  0  0  0  0  0  0
    8.7834   -0.6850    0.6378 H   0  0  0  0  0  0  0  0  0  0  0  0
    7.2503   -1.4246    0.0322 H   0  0  0  0  0  0  0  0  0  0  0  0
    8.5145   -0.8367   -1.1229 H   0  0  0  0  0  0  0  0  0  0  0  0
    7.0834    0.6532   -2.2809 H   0  0  0  0  0  0  0  0  0  0  0  0
    6.2769    1.9866   -1.4278 H   0  0  0  0  0  0  0  0  0  0  0  0
    5.4386   -0.9552   -1.6096 H   0  0  0  0  0  0  0  0  0  0  0  0
    4.5186    0.5043   -2.0242 H   0  0  0  0  0  0  0  0  0  0  0  0
    4.9429   -0.9076    0.6187 H   0  0  0  0  0  0  0  0  0  0  0  0
    4.9458    2.1590    0.6429 H   0  0  0  0  0  0  0  0  0  0  0  0
    4.7701    1.0794    2.0650 H   0  0  0  0  0  0  0  0  0  0  0  0
    7.1432    2.0025    1.4885 H   0  0  0  0  0  0  0  0  0  0  0  0
    6.9858    0.2848    1.9139 H   0  0  0  0  0  0  0  0  0  0  0  0
    2.3606    1.9711    0.6370 H   0  0  0  0  0  0  0  0  0  0  0  0
    3.1892    1.9357   -0.9411 H   0  0  0  0  0  0  0  0  0  0  0  0
    1.3271    0.9840   -2.0597 H   0  0  0  0  0  0  0  0  0  0  0  0
    0.6108    2.1539   -0.9026 H   0  0  0  0  0  0  0  0  0  0  0  0
    0.9620   -1.4840    0.9070 H   0  0  0  0  0  0  0  0  0  0  0  0
    0.5951   -1.9916   -0.7903 H   0  0  0  0  0  0  0  0  0  0  0  0
    3.0447   -2.0481   -0.1321 H   0  0  0  0  0  0  0  0  0  0  0  0
    2.6879   -1.0677   -1.6008 H   0  0  0  0  0  0  0  0  0  0  0  0
   -1.4852   -1.7965    0.4094 H   0  0  0  0  0  0  0  0  0  0  0  0
   -3.8806   -0.2682    1.1148 H   0  0  0  0  0  0  0  0  0  0  0  0
   -5.4408   -2.6098   -2.4926 H   0  0  0  0  0  0  0  0  0  0  0  0
   -7.7976   -2.1358   -3.1145 H   0  0  0  0  0  0  0  0  0  0  0  0
   -9.9428   -0.2649   -2.6815 H   0  0  0  0  0  0  0  0  0  0  0  0
  -10.0503    1.9555   -1.1961 H   0  0  0  0  0  0  0  0  0  0  0  0
   -7.7678    2.2977   -0.0360 H   0  0  0  0  0  0  0  0  0  0  0  0
   -5.3940    0.9747   -0.0242 H   0  0  0  0  0  0  0  0  0  0  0  0
   -2.1195    1.5913    2.0575 H   0  0  0  0  0  0  0  0  0  0  0  0
   -1.6725    2.0037    4.4471 H   0  0  0  0  0  0  0  0  0  0  0  0
   -0.8477    0.1717    5.8980 H   0  0  0  0  0  0  0  0  0  0  0  0
   -0.4739   -2.0876    4.9512 H   0  0  0  0  0  0  0  0  0  0  0  0
   -0.9113   -2.5248    2.5662 H   0  0  0  0  0  0  0  0  0  0  0  0
  1  2  1  0
  2  3  1  0
  3  4  1  0
  4  5  1  0
  5  6  1  0
  6  7  1  0
  5  8  1  0
  8  9  1  0
  9 10  1  0
 10 11  1  0
 11 12  1  0
 12 13  1  0
 11 14  1  0
 14 15  2  0
 14 16  1  0
 16 17  1  0
 17 18  1  0
 18 19  2  0
 18 20  1  0
 20 21  2  0
 21 22  1  0
 22 23  2  0
 23 24  1  0
 24 25  2  0
 25 26  1  0
 26 27  1  0
 27 28  2  0
 16 29  1  0
 29 30  2  0
 30 31  1  0
 31 32  2  0
 32 33  1  0
 33 34  2  0
  7  2  1  0
 13  8  1  0
 28 20  1  0
 34 29  1  0
 27 23  1  0
  1 35  1  0
  1 36  1  0
  1 37  1  0
  3 38  1  0
  3 39  1  0
  4 40  1  0
  4 41  1  0
  5 42  1  0
  6 43  1  0
  6 44  1  0
  7 45  1  0
  7 46  1  0
  9 47  1  0
  9 48  1  0
 10 49  1  0
 10 50  1  0
 12 51  1  0
 12 52  1  0
 13 53  1  0
 13 54  1  0
 16 55  1  6
 17 56  1  0
 21 57  1  0
 22 58  1  0
 24 59  1  0
 25 60  1  0
 26 61  1  0
 28 62  1  0
 30 63  1  0
 31 64  1  0
 32 65  1  0
 33 66  1  0
 34 67  1  0
M  END
$$$$
