
     RDKit          3D

 38 41  0  0  0  0  0  0  0  0999 V2000
   -4.9428    0.1610    0.0829 C   0  0  0  0  0  0  0  0  0  0  0  0
   -3.7760   -0.7382   -0.2303 C   0  0  0  0  0  0  0  0  0  0  0  0
   -2.4289   -0.3104   -0.0867 C   0  0  0  0  0  0  0  0  0  0  0  0
   -1.3807   -1.2181   -0.3609 C   0  0  0  0  0  0  0  0  0  0  0  0
   -1.6649   -2.5117   -0.8037 C   0  0  0  0  0  0  0  0  0  0  0  0
   -2.9866   -2.9250   -0.9575 C   0  0  0  0  0  0  0  0  0  0  0  0
   -4.0342   -2.0478   -0.6743 C   0  0  0  0  0  0  0  0  0  0  0  0
   -0.0134   -0.7910   -0.2728 N   0  0  0  0  0  0  0  0  0  0  0  0
    0.3242    0.3239    0.3055 C   0  0  0  0  0  0  0  0  0  0  0  0
    1.6045    0.9147    0.1464 N   0  0  0  0  0  0  0  0  0  0  0  0
    1.5001    2.3393    0.4404 C   0  0  0  0  0  0  0  0  0  0  0  0
   -0.0016    2.6201    0.6499 C   0  0  0  0  0  0  0  0  0  0  0  0
   -0.6513    1.2502    0.9379 C   0  0  2  0  0  0  0  0  0  0  0  0
   -0.6743    0.9934    2.3195 O   0  0  0  0  0  0  0  0  0  0  0  0
   -2.0312    1.0558    0.3504 C   0  0  0  0  0  0  0  0  0  0  0  0
   -2.8310    2.0282    0.2927 O   0  0  0  0  0  0  0  0  0  0  0  0
    2.8375    0.2131   -0.1165 C   0  0  0  0  0  0  0  0  0  0  0  0
    3.9094    0.8666   -0.7528 C   0  0  0  0  0  0  0  0  0  0  0  0
    5.1070    0.1886   -1.0004 C   0  0  0  0  0  0  0  0  0  0  0  0
    5.2518   -1.1442   -0.6102 C   0  0  0  0  0  0  0  0  0  0  0  0
    4.2004   -1.8009    0.0322 C   0  0  0  0  0  0  0  0  0  0  0  0
    3.0005   -1.1279    0.2816 C   0  0  0  0  0  0  0  0  0  0  0  0
   -4.8301    0.5908    1.1004 H   0  0  0  0  0  0  0  0  0  0  0  0
   -5.9051   -0.3938    0.0622 H   0  0  0  0  0  0  0  0  0  0  0  0
   -5.0015    0.9757   -0.6687 H   0  0  0  0  0  0  0  0  0  0  0  0
   -0.8587   -3.1967   -1.0345 H   0  0  0  0  0  0  0  0  0  0  0  0
   -3.2011   -3.9292   -1.3000 H   0  0  0  0  0  0  0  0  0  0  0  0
   -5.0520   -2.3962   -0.7999 H   0  0  0  0  0  0  0  0  0  0  0  0
    1.8871    2.9487   -0.4034 H   0  0  0  0  0  0  0  0  0  0  0  0
    2.0676    2.5694    1.3680 H   0  0  0  0  0  0  0  0  0  0  0  0
   -0.4173    3.0542   -0.2869 H   0  0  0  0  0  0  0  0  0  0  0  0
   -0.1629    3.3442    1.4779 H   0  0  0  0  0  0  0  0  0  0  0  0
   -1.2969    1.6478    2.7332 H   0  0  0  0  0  0  0  0  0  0  0  0
    3.8207    1.8956   -1.0721 H   0  0  0  0  0  0  0  0  0  0  0  0
    5.9235    0.6975   -1.4963 H   0  0  0  0  0  0  0  0  0  0  0  0
    6.1801   -1.6667   -0.8018 H   0  0  0  0  0  0  0  0  0  0  0  0
    4.3169   -2.8311    0.3433 H   0  0  0  0  0  0  0  0  0  0  0  0
    2.2111   -1.6503    0.8050 H   0  0  0  0  0  0  0  0  0  0  0  0
  1  2  1  0
  2  3  2  0
  3  4  1  0
  4  5  2  0
  5  6  1  0
  6  7  2  0
  4  8  1  0
  8  9  2  0
  9 10  1  0
 10 11  1  0
 11 12  1  0
 12 13  1  0
 13 14  1  1
 13 15  1  0
 15 16  2  0
 10 17  1  0
 17 18  2  0
 18 19  1  0
 19 20  2  0
 20 21  1  0
 21 22  2  0
  7  2  1  0
 13  9  1  0
 22 17  1  0
 15  3  1  0
  1 23  1  0
  1 24  1  0
  1 25  1  0
  5 26  1  0
  6 27  1  0
  7 28  1  0
 11 29  1  0
 11 30  1  0
 12 31  1  0
 12 32  1  0
 14 33  1  0
 18 34  1  0
 19 35  1  0
 20 36  1  0
 21 37  1  0
 22 38  1  0
M  END
$$$$
