
     RDKit          3D

 59 62  0  0  0  0  0  0  0  0999 V2000
   -6.6486    0.2647   -2.9788 O   0  0  0  0  0  0  0  0  0  0  0  0
   -7.1973    0.7101   -1.7735 C   0  0  0  0  0  0  0  0  0  0  0  0
   -6.4439    0.7796   -0.5723 C   0  0  0  0  0  0  0  0  0  0  0  0
   -4.9734    0.4013   -0.5484 C   0  0  0  0  0  0  0  0  0  0  0  0
   -4.2711    0.9905    0.6071 N   0  0  0  0  0  0  0  0  0  0  0  0
   -2.8160    0.7248    0.6642 C   0  0  0  0  0  0  0  0  0  0  0  0
   -2.4524   -0.7635    0.5042 C   0  0  0  0  0  0  0  0  0  0  0  0
   -0.9447   -0.9934    0.7552 C   0  0  0  0  0  0  0  0  0  0  0  0
   -0.1371    0.2355    0.5698 N   0  0  0  0  0  0  0  0  0  0  0  0
   -0.6028    1.0142   -0.5912 C   0  0  0  0  0  0  0  0  0  0  0  0
   -2.0011    1.6013   -0.3199 C   0  0  0  0  0  0  0  0  0  0  0  0
    1.5459   -0.1831    0.3617 S   0  0  0  0  0  6  0  0  0  0  0  0
    1.7099   -1.0166   -0.8799 O   0  0  0  0  0  0  0  0  0  0  0  0
    2.3578    1.0761    0.2350 O   0  0  0  0  0  0  0  0  0  0  0  0
    2.1027   -1.0765    1.7435 N   0  0  0  0  0  0  0  0  0  0  0  0
    3.4419   -1.5836    1.8894 C   0  0  0  0  0  0  0  0  0  0  0  0
    4.4207   -1.4045    0.8924 C   0  0  0  0  0  0  0  0  0  0  0  0
    5.7272   -1.8940    1.0754 C   0  0  0  0  0  0  0  0  0  0  0  0
    6.7215   -1.7349    0.0984 O   0  0  0  0  0  0  0  0  0  0  0  0
    6.8219   -0.6541   -0.7906 C   0  0  0  0  0  0  0  0  0  0  0  0
    7.3967   -0.8693   -2.0495 C   0  0  0  0  0  0  0  0  0  0  0  0
    7.5236    0.1855   -2.9588 C   0  0  0  0  0  0  0  0  0  0  0  0
    7.0875    1.4671   -2.6102 C   0  0  0  0  0  0  0  0  0  0  0  0
    7.2118    2.4893   -3.4921 F   0  0  0  0  0  0  0  0  0  0  0  0
    6.5317    1.6960   -1.3482 C   0  0  0  0  0  0  0  0  0  0  0  0
    6.4044    0.6431   -0.4369 C   0  0  0  0  0  0  0  0  0  0  0  0
    6.0394   -2.6000    2.2411 C   0  0  0  0  0  0  0  0  0  0  0  0
    5.0743   -2.7867    3.2321 C   0  0  0  0  0  0  0  0  0  0  0  0
    3.7852   -2.2774    3.0606 C   0  0  0  0  0  0  0  0  0  0  0  0
   -7.1109    1.1302    0.6215 C   0  0  0  0  0  0  0  0  0  0  0  0
   -8.4621    1.4821    0.6079 C   0  0  0  0  0  0  0  0  0  0  0  0
   -9.1765    1.4691   -0.5884 C   0  0  0  0  0  0  0  0  0  0  0  0
   -8.5481    1.0799   -1.7712 C   0  0  0  0  0  0  0  0  0  0  0  0
   -5.7212   -0.1294   -3.0610 H   0  0  0  0  0  0  0  0  0  0  0  0
   -4.9301   -0.7063   -0.4975 H   0  0  0  0  0  0  0  0  0  0  0  0
   -4.4896    0.7440   -1.4835 H   0  0  0  0  0  0  0  0  0  0  0  0
   -4.4100    2.0291    0.5899 H   0  0  0  0  0  0  0  0  0  0  0  0
   -2.4901    1.0109    1.6902 H   0  0  0  0  0  0  0  0  0  0  0  0
   -3.0510   -1.3816    1.2084 H   0  0  0  0  0  0  0  0  0  0  0  0
   -2.6818   -1.0951   -0.5320 H   0  0  0  0  0  0  0  0  0  0  0  0
   -0.8185   -1.3414    1.8022 H   0  0  0  0  0  0  0  0  0  0  0  0
   -0.5970   -1.8114    0.0851 H   0  0  0  0  0  0  0  0  0  0  0  0
   -0.6366    0.3692   -1.4990 H   0  0  0  0  0  0  0  0  0  0  0  0
    0.0924    1.8565   -0.8004 H   0  0  0  0  0  0  0  0  0  0  0  0
   -1.8936    2.6177    0.1188 H   0  0  0  0  0  0  0  0  0  0  0  0
   -2.5214    1.7214   -1.2912 H   0  0  0  0  0  0  0  0  0  0  0  0
    1.4300   -1.2040    2.5316 H   0  0  0  0  0  0  0  0  0  0  0  0
    4.1766   -0.9031   -0.0312 H   0  0  0  0  0  0  0  0  0  0  0  0
    7.7377   -1.8589   -2.3262 H   0  0  0  0  0  0  0  0  0  0  0  0
    7.9611    0.0085   -3.9329 H   0  0  0  0  0  0  0  0  0  0  0  0
    6.2055    2.6906   -1.0722 H   0  0  0  0  0  0  0  0  0  0  0  0
    5.9978    0.8439    0.5455 H   0  0  0  0  0  0  0  0  0  0  0  0
    7.0366   -2.9971    2.3827 H   0  0  0  0  0  0  0  0  0  0  0  0
    5.3259   -3.3265    4.1359 H   0  0  0  0  0  0  0  0  0  0  0  0
    3.0496   -2.4289    3.8407 H   0  0  0  0  0  0  0  0  0  0  0  0
   -6.5907    1.1373    1.5705 H   0  0  0  0  0  0  0  0  0  0  0  0
   -8.9568    1.7634    1.5287 H   0  0  0  0  0  0  0  0  0  0  0  0
  -10.2234    1.7438   -0.5966 H   0  0  0  0  0  0  0  0  0  0  0  0
   -9.1189    1.0451   -2.6906 H   0  0  0  0  0  0  0  0  0  0  0  0
  1  2  1  0
  2  3  2  0
  3  4  1  0
  4  5  1  0
  5  6  1  0
  6  7  1  0
  7  8  1  0
  8  9  1  0
  9 10  1  0
 10 11  1  0
  9 12  1  0
 12 13  2  0
 12 14  2  0
 12 15  1  0
 15 16  1  0
 16 17  2  0
 17 18  1  0
 18 19  1  0
 19 20  1  0
 20 21  2  0
 21 22  1  0
 22 23  2  0
 23 24  1  0
 23 25  1  0
 25 26  2  0
 18 27  2  0
 27 28  1  0
 28 29  2  0
  3 30  1  0
 30 31  2  0
 31 32  1  0
 32 33  2  0
 33  2  1  0
 11  6  1  0
 29 16  1  0
 26 20  1  0
  1 34  1  0
  4 35  1  0
  4 36  1  0
  5 37  1  0
  6 38  1  0
  7 39  1  0
  7 40  1  0
  8 41  1  0
  8 42  1  0
 10 43  1  0
 10 44  1  0
 11 45  1  0
 11 46  1  0
 15 47  1  0
 17 48  1  0
 21 49  1  0
 22 50  1  0
 25 51  1  0
 26 52  1  0
 27 53  1  0
 28 54  1  0
 29 55  1  0
 30 56  1  0
 31 57  1  0
 32 58  1  0
 33 59  1  0
M  END
$$$$
