
     RDKit          3D

 83 87  0  0  0  0  0  0  0  0999 V2000
   -8.9120   -3.0758   -0.6594 C   0  0  0  0  0  0  0  0  0  0  0  0
   -8.1735   -2.1733    0.1549 O   0  0  0  0  0  0  0  0  0  0  0  0
   -6.7761   -2.1159    0.1448 C   0  0  0  0  0  0  0  0  0  0  0  0
   -6.1254   -2.8674   -0.6327 O   0  0  0  0  0  0  0  0  0  0  0  0
   -6.0450   -1.1360    0.9959 C   0  0  0  0  0  0  0  0  0  0  0  0
   -6.5313   -0.6838    2.1742 C   0  0  0  0  0  0  0  0  0  0  0  0
   -7.8323   -1.1714    2.7583 C   0  0  0  0  0  0  0  0  0  0  0  0
   -5.7854    0.2851    2.9225 N   0  0  0  0  0  0  0  0  0  0  0  0
   -4.4256    0.6185    2.6111 C   0  0  0  0  0  0  0  0  0  0  0  0
   -3.6519    1.4186    3.6277 C   0  0  0  0  0  0  0  0  0  0  0  0
   -3.8843    0.1955    1.4432 C   0  0  0  0  0  0  0  0  0  0  0  0
   -4.7281   -0.5975    0.4544 C   0  0  0  0  0  0  0  0  0  0  0  0
   -4.9917    0.2464   -0.7782 C   0  0  0  0  0  0  0  0  0  0  0  0
   -4.4654   -0.1349   -2.0252 C   0  0  0  0  0  0  0  0  0  0  0  0
   -4.6946    0.6465   -3.1734 C   0  0  0  0  0  0  0  0  0  0  0  0
   -5.4627    1.8176   -3.0582 C   0  0  0  0  0  0  0  0  0  0  0  0
   -5.9883    2.2010   -1.8227 C   0  0  0  0  0  0  0  0  0  0  0  0
   -5.7550    1.4233   -0.6881 C   0  0  0  0  0  0  0  0  0  0  0  0
   -4.1506    0.2563   -4.4478 N   0  0  0  0  0  4  0  0  0  0  0  0
   -4.3802    1.0199   -5.5694 O   0  0  0  0  0  1  0  0  0  0  0  0
   -3.4603   -0.7785   -4.5564 O   0  0  0  0  0  0  0  0  0  0  0  0
   -2.4885    0.5131    1.0211 C   0  0  0  0  0  0  0  0  0  0  0  0
   -1.8604    1.4891    1.5148 O   0  0  0  0  0  0  0  0  0  0  0  0
   -1.8926   -0.2560    0.0132 O   0  0  0  0  0  0  0  0  0  0  0  0
   -0.5724   -0.0297   -0.4745 C   0  0  0  0  0  0  0  0  0  0  0  0
    0.4663   -0.5818    0.5222 C   0  0  0  0  0  0  0  0  0  0  0  0
    1.8712   -0.2706    0.1773 N   0  0  0  0  0  0  0  0  0  0  0  0
    2.2464   -0.6383   -1.1974 C   0  0  0  0  0  0  0  0  0  0  0  0
    3.7802   -0.5891   -1.3498 C   0  0  0  0  0  0  0  0  0  0  0  0
    4.4286    0.2484   -0.3041 N   0  0  0  0  0  0  0  0  0  0  0  0
    3.6280    1.4776   -0.0972 C   0  0  0  0  0  0  0  0  0  0  0  0
    2.2515    1.1211    0.4955 C   0  0  0  0  0  0  0  0  0  0  0  0
    5.8371    0.5766   -0.6660 C   0  0  0  0  0  0  0  0  0  0  0  0
    6.5534    1.3264    0.4461 C   0  0  0  0  0  0  0  0  0  0  0  0
    6.3579    0.9887    1.8000 C   0  0  0  0  0  0  0  0  0  0  0  0
    7.0553    1.6647    2.8053 C   0  0  0  0  0  0  0  0  0  0  0  0
    7.9625    2.6731    2.4722 C   0  0  0  0  0  0  0  0  0  0  0  0
    8.1766    3.0054    1.1326 C   0  0  0  0  0  0  0  0  0  0  0  0
    7.4810    2.3332    0.1232 C   0  0  0  0  0  0  0  0  0  0  0  0
    6.6552   -0.6665   -0.9820 C   0  0  0  0  0  0  0  0  0  0  0  0
    6.6547   -1.7764   -0.1146 C   0  0  0  0  0  0  0  0  0  0  0  0
    7.4354   -2.8996   -0.4025 C   0  0  0  0  0  0  0  0  0  0  0  0
    8.2311   -2.9243   -1.5501 C   0  0  0  0  0  0  0  0  0  0  0  0
    8.2493   -1.8246   -2.4112 C   0  0  0  0  0  0  0  0  0  0  0  0
    7.4698   -0.6990   -2.1284 C   0  0  0  0  0  0  0  0  0  0  0  0
   -9.9957   -2.9326   -0.4711 H   0  0  0  0  0  0  0  0  0  0  0  0
   -8.7034   -2.8775   -1.7321 H   0  0  0  0  0  0  0  0  0  0  0  0
   -8.6385   -4.1230   -0.4104 H   0  0  0  0  0  0  0  0  0  0  0  0
   -8.6855   -0.7233    2.2076 H   0  0  0  0  0  0  0  0  0  0  0  0
   -7.9198   -0.8764    3.8247 H   0  0  0  0  0  0  0  0  0  0  0  0
   -7.8874   -2.2800    2.7204 H   0  0  0  0  0  0  0  0  0  0  0  0
   -6.2218    0.7021    3.7756 H   0  0  0  0  0  0  0  0  0  0  0  0
   -2.6881    0.9195    3.8626 H   0  0  0  0  0  0  0  0  0  0  0  0
   -4.2170    1.5022    4.5794 H   0  0  0  0  0  0  0  0  0  0  0  0
   -3.4741    2.4460    3.2469 H   0  0  0  0  0  0  0  0  0  0  0  0
   -4.1229   -1.4887    0.1766 H   0  0  0  0  0  0  0  0  0  0  0  0
   -3.8747   -1.0393   -2.0995 H   0  0  0  0  0  0  0  0  0  0  0  0
   -5.6564    2.4388   -3.9230 H   0  0  0  0  0  0  0  0  0  0  0  0
   -6.5776    3.1055   -1.7443 H   0  0  0  0  0  0  0  0  0  0  0  0
   -6.1680    1.7377    0.2622 H   0  0  0  0  0  0  0  0  0  0  0  0
   -0.4759   -0.5648   -1.4419 H   0  0  0  0  0  0  0  0  0  0  0  0
   -0.4283    1.0526   -0.6701 H   0  0  0  0  0  0  0  0  0  0  0  0
    0.2448   -0.1989    1.5423 H   0  0  0  0  0  0  0  0  0  0  0  0
    0.3490   -1.6858    0.5756 H   0  0  0  0  0  0  0  0  0  0  0  0
    1.7875    0.0696   -1.9242 H   0  0  0  0  0  0  0  0  0  0  0  0
    1.8867   -1.6637   -1.4371 H   0  0  0  0  0  0  0  0  0  0  0  0
    4.0288   -0.2178   -2.3703 H   0  0  0  0  0  0  0  0  0  0  0  0
    4.1589   -1.6299   -1.2670 H   0  0  0  0  0  0  0  0  0  0  0  0
    4.1279    2.1818    0.6010 H   0  0  0  0  0  0  0  0  0  0  0  0
    3.4915    2.0146   -1.0642 H   0  0  0  0  0  0  0  0  0  0  0  0
    1.5026    1.8485    0.1181 H   0  0  0  0  0  0  0  0  0  0  0  0
    2.3008    1.2281    1.6012 H   0  0  0  0  0  0  0  0  0  0  0  0
    5.8159    1.2300   -1.5704 H   0  0  0  0  0  0  0  0  0  0  0  0
    5.6590    0.2112    2.0795 H   0  0  0  0  0  0  0  0  0  0  0  0
    6.8935    1.4051    3.8435 H   0  0  0  0  0  0  0  0  0  0  0  0
    8.5026    3.1943    3.2520 H   0  0  0  0  0  0  0  0  0  0  0  0
    8.8852    3.7821    0.8754 H   0  0  0  0  0  0  0  0  0  0  0  0
    7.6678    2.5961   -0.9106 H   0  0  0  0  0  0  0  0  0  0  0  0
    6.0415   -1.7781    0.7765 H   0  0  0  0  0  0  0  0  0  0  0  0
    7.4237   -3.7513    0.2652 H   0  0  0  0  0  0  0  0  0  0  0  0
    8.8357   -3.7945   -1.7707 H   0  0  0  0  0  0  0  0  0  0  0  0
    8.8705   -1.8429   -3.2973 H   0  0  0  0  0  0  0  0  0  0  0  0
    7.5038    0.1471   -2.8033 H   0  0  0  0  0  0  0  0  0  0  0  0
  1  2  1  0
  2  3  1  0
  3  4  2  0
  3  5  1  0
  5  6  2  0
  6  7  1  0
  6  8  1  0
  8  9  1  0
  9 10  1  0
  9 11  2  0
 11 12  1  0
 12 13  1  0
 13 14  2  0
 14 15  1  0
 15 16  2  0
 16 17  1  0
 17 18  2  0
 15 19  1  0
 19 20  1  0
 19 21  2  0
 11 22  1  0
 22 23  2  0
 22 24  1  0
 24 25  1  0
 25 26  1  0
 26 27  1  0
 27 28  1  0
 28 29  1  0
 29 30  1  0
 30 31  1  0
 31 32  1  0
 30 33  1  0
 33 34  1  0
 34 35  2  0
 35 36  1  0
 36 37  2  0
 37 38  1  0
 38 39  2  0
 33 40  1  0
 40 41  2  0
 41 42  1  0
 42 43  2  0
 43 44  1  0
 44 45  2  0
 12  5  1  0
 18 13  1  0
 32 27  1  0
 39 34  1  0
 45 40  1  0
  1 46  1  0
  1 47  1  0
  1 48  1  0
  7 49  1  0
  7 50  1  0
  7 51  1  0
  8 52  1  0
 10 53  1  0
 10 54  1  0
 10 55  1  0
 12 56  1  0
 14 57  1  0
 16 58  1  0
 17 59  1  0
 18 60  1  0
 25 61  1  0
 25 62  1  0
 26 63  1  0
 26 64  1  0
 28 65  1  0
 28 66  1  0
 29 67  1  0
 29 68  1  0
 31 69  1  0
 31 70  1  0
 32 71  1  0
 32 72  1  0
 33 73  1  0
 35 74  1  0
 36 75  1  0
 37 76  1  0
 38 77  1  0
 39 78  1  0
 41 79  1  0
 42 80  1  0
 43 81  1  0
 44 82  1  0
 45 83  1  0
M  CHG  2  19   1  20  -1
M  END
$$$$
