
     RDKit          3D

 69 70  0  0  0  0  0  0  0  0999 V2000
    2.5931   -0.8463   -0.5616 C   0  0  2  0  0  0  0  0  0  0  0  0
    2.3385   -2.0857    0.0490 O   0  0  0  0  0  0  0  0  0  0  0  0
    3.3685    0.0742    0.4044 C   0  0  0  0  0  0  0  0  0  0  0  0
    4.8167   -0.3965    0.5998 C   0  0  0  0  0  0  0  0  0  0  0  0
    5.5899    0.5655    1.5124 C   0  0  0  0  0  0  0  0  0  0  0  0
    6.9874    0.0431    1.8869 C   0  0  0  0  0  0  0  0  0  0  0  0
    7.9575   -0.0420    0.6896 C   0  0  0  0  0  0  0  0  0  0  0  0
    8.1220   -1.4805    0.1768 C   0  0  0  0  0  0  0  0  0  0  0  0
    9.0478   -1.5313   -1.0350 C   0  0  0  0  0  0  0  0  0  0  0  0
    1.2711   -0.2078   -1.0476 C   0  0  0  0  0  0  0  0  0  0  0  0
    0.2035    0.0167    0.0474 C   0  0  1  0  0  0  0  0  0  0  0  0
   -0.7527    0.9380   -0.4353 O   0  0  0  0  0  0  0  0  0  0  0  0
   -2.0273    0.5417    0.0220 C   0  0  1  0  0  0  0  0  0  0  0  0
   -2.2814    1.2494    1.3811 C   0  0  0  0  0  0  0  0  0  0  0  0
   -2.3417    2.6366    1.1932 O   0  0  0  0  0  0  0  0  0  0  0  0
   -2.9696    0.9492   -0.9706 O   0  0  0  0  0  0  0  0  0  0  0  0
   -4.3308    0.7104   -0.6355 C   0  0  1  0  0  0  0  0  0  0  0  0
   -4.8899    1.9184   -0.1408 O   0  0  0  0  0  0  0  0  0  0  0  0
   -6.2573    1.7900    0.2347 C   0  0  2  0  0  0  0  0  0  0  0  0
   -6.4480    1.0175    1.5551 C   0  0  0  0  0  0  0  0  0  0  0  0
   -5.6641    1.5995    2.5593 O   0  0  0  0  0  0  0  0  0  0  0  0
   -7.1563    1.2740   -0.9220 C   0  0  1  0  0  0  0  0  0  0  0  0
   -7.3254    2.2933   -1.8755 O   0  0  0  0  0  0  0  0  0  0  0  0
   -6.5551    0.0398   -1.6158 C   0  0  2  0  0  0  0  0  0  0  0  0
   -6.7340   -1.0941   -0.8052 O   0  0  0  0  0  0  0  0  0  0  0  0
   -5.0626    0.2568   -1.9122 C   0  0  1  0  0  0  0  0  0  0  0  0
   -4.9213    1.2222   -2.9248 O   0  0  0  0  0  0  0  0  0  0  0  0
   -1.9763   -0.9895    0.1733 C   0  0  1  0  0  0  0  0  0  0  0  0
   -2.3501   -1.6078   -1.0331 O   0  0  0  0  0  0  0  0  0  0  0  0
   -0.5157   -1.2764    0.4583 C   0  0  2  0  0  0  0  0  0  0  0  0
   -0.3171   -1.5184    1.8281 O   0  0  0  0  0  0  0  0  0  0  0  0
    3.2142   -0.9955   -1.4777 H   0  0  0  0  0  0  0  0  0  0  0  0
    3.1146   -2.6740   -0.1429 H   0  0  0  0  0  0  0  0  0  0  0  0
    2.8635    0.0932    1.3940 H   0  0  0  0  0  0  0  0  0  0  0  0
    3.3821    1.1094   -0.0025 H   0  0  0  0  0  0  0  0  0  0  0  0
    4.8183   -1.4120    1.0521 H   0  0  0  0  0  0  0  0  0  0  0  0
    5.3160   -0.4414   -0.3916 H   0  0  0  0  0  0  0  0  0  0  0  0
    5.0167    0.7099    2.4546 H   0  0  0  0  0  0  0  0  0  0  0  0
    5.6817    1.5588    1.0204 H   0  0  0  0  0  0  0  0  0  0  0  0
    7.4155    0.7520    2.6292 H   0  0  0  0  0  0  0  0  0  0  0  0
    6.8984   -0.9369    2.4057 H   0  0  0  0  0  0  0  0  0  0  0  0
    7.6214    0.6224   -0.1367 H   0  0  0  0  0  0  0  0  0  0  0  0
    8.9557    0.3249    1.0163 H   0  0  0  0  0  0  0  0  0  0  0  0
    7.1380   -1.9065   -0.1088 H   0  0  0  0  0  0  0  0  0  0  0  0
    8.5523   -2.1145    0.9825 H   0  0  0  0  0  0  0  0  0  0  0  0
   10.0524   -1.1377   -0.7704 H   0  0  0  0  0  0  0  0  0  0  0  0
    8.6253   -0.9300   -1.8680 H   0  0  0  0  0  0  0  0  0  0  0  0
    9.1567   -2.5825   -1.3759 H   0  0  0  0  0  0  0  0  0  0  0  0
    0.8401   -0.8359   -1.8582 H   0  0  0  0  0  0  0  0  0  0  0  0
    1.5129    0.7729   -1.5140 H   0  0  0  0  0  0  0  0  0  0  0  0
    0.6848    0.4848    0.9321 H   0  0  0  0  0  0  0  0  0  0  0  0
   -3.2244    0.8888    1.8439 H   0  0  0  0  0  0  0  0  0  0  0  0
   -1.4601    1.0134    2.0933 H   0  0  0  0  0  0  0  0  0  0  0  0
   -2.5373    3.0278    2.0841 H   0  0  0  0  0  0  0  0  0  0  0  0
   -4.4293   -0.1052    0.1122 H   0  0  0  0  0  0  0  0  0  0  0  0
   -6.6097    2.8206    0.4613 H   0  0  0  0  0  0  0  0  0  0  0  0
   -6.1860   -0.0551    1.4474 H   0  0  0  0  0  0  0  0  0  0  0  0
   -7.5190    1.0725    1.8537 H   0  0  0  0  0  0  0  0  0  0  0  0
   -5.8180    1.0602    3.3781 H   0  0  0  0  0  0  0  0  0  0  0  0
   -8.1580    0.9904   -0.5195 H   0  0  0  0  0  0  0  0  0  0  0  0
   -8.0020    2.9226   -1.5115 H   0  0  0  0  0  0  0  0  0  0  0  0
   -7.0972   -0.1189   -2.5784 H   0  0  0  0  0  0  0  0  0  0  0  0
   -6.5934   -1.8885   -1.3840 H   0  0  0  0  0  0  0  0  0  0  0  0
   -4.6312   -0.7124   -2.2577 H   0  0  0  0  0  0  0  0  0  0  0  0
   -4.0419    1.0640   -3.3576 H   0  0  0  0  0  0  0  0  0  0  0  0
   -2.6359   -1.3408    1.0028 H   0  0  0  0  0  0  0  0  0  0  0  0
   -2.5461   -2.5571   -0.8183 H   0  0  0  0  0  0  0  0  0  0  0  0
   -0.1694   -2.1563   -0.1334 H   0  0  0  0  0  0  0  0  0  0  0  0
   -0.6209   -2.4479    2.0000 H   0  0  0  0  0  0  0  0  0  0  0  0
  1  2  1  0
  1  3  1  0
  3  4  1  0
  4  5  1  0
  5  6  1  0
  6  7  1  0
  7  8  1  0
  8  9  1  0
  1 10  1  0
 10 11  1  0
 11 12  1  0
 12 13  1  0
 13 14  1  0
 14 15  1  0
 13 16  1  6
 16 17  1  0
 17 18  1  0
 18 19  1  0
 19 20  1  0
 20 21  1  0
 19 22  1  0
 22 23  1  0
 22 24  1  0
 24 25  1  0
 24 26  1  0
 26 27  1  0
 13 28  1  0
 28 29  1  0
 28 30  1  0
 30 31  1  0
 30 11  1  0
 26 17  1  0
  1 32  1  6
  2 33  1  0
  3 34  1  0
  3 35  1  0
  4 36  1  0
  4 37  1  0
  5 38  1  0
  5 39  1  0
  6 40  1  0
  6 41  1  0
  7 42  1  0
  7 43  1  0
  8 44  1  0
  8 45  1  0
  9 46  1  0
  9 47  1  0
  9 48  1  0
 10 49  1  0
 10 50  1  0
 11 51  1  1
 14 52  1  0
 14 53  1  0
 15 54  1  0
 17 55  1  1
 19 56  1  1
 20 57  1  0
 20 58  1  0
 21 59  1  0
 22 60  1  1
 23 61  1  0
 24 62  1  6
 25 63  1  0
 26 64  1  6
 27 65  1  0
 28 66  1  1
 29 67  1  0
 30 68  1  6
 31 69  1  0
M  END
$$$$
