
     RDKit          3D

 51 54  0  0  0  0  0  0  0  0999 V2000
    0.5626   -2.6938   -0.5239 C   0  0  0  0  0  0  0  0  0  0  0  0
    0.7095   -1.2309   -0.2253 C   0  0  0  0  0  0  0  0  0  0  0  0
    1.8848   -0.5076   -0.0807 C   0  0  0  0  0  0  0  0  0  0  0  0
    1.5620    0.7681    0.2349 N   0  0  0  0  0  0  0  0  0  0  0  0
    0.2449    0.8959    0.2773 N   0  0  0  0  0  0  0  0  0  0  0  0
   -0.3030   -0.3041    0.0005 C   0  0  0  0  0  0  0  0  0  0  0  0
   -1.7610   -0.5334   -0.0529 C   0  0  0  0  0  0  0  0  0  0  0  0
   -2.2012   -1.6542   -0.4219 O   0  0  0  0  0  0  0  0  0  0  0  0
   -2.6690    0.5283    0.3073 N   0  0  0  0  0  0  0  0  0  0  0  0
   -4.0799    0.4309    0.2880 N   0  0  0  0  0  0  0  0  0  0  0  0
   -4.5775    0.1886   -1.0768 C   0  0  0  0  0  0  0  0  0  0  0  0
   -6.1084    0.2560   -1.0844 C   0  0  0  0  0  0  0  0  0  0  0  0
   -6.6961   -0.7417   -0.0776 C   0  0  0  0  0  0  0  0  0  0  0  0
   -6.0861   -0.5420    1.3161 C   0  0  0  0  0  0  0  0  0  0  0  0
   -4.5560   -0.5831    1.2442 C   0  0  0  0  0  0  0  0  0  0  0  0
    2.4608    1.8758    0.4111 C   0  0  0  0  0  0  0  0  0  0  0  0
    2.3680    2.7078    1.5452 C   0  0  0  0  0  0  0  0  0  0  0  0
    1.1983    2.3918    2.8204 Cl  0  0  0  0  0  0  0  0  0  0  0  0
    3.2484    3.7864    1.6942 C   0  0  0  0  0  0  0  0  0  0  0  0
    4.2175    4.0461    0.7204 C   0  0  0  0  0  0  0  0  0  0  0  0
    5.3183    5.3977    0.9157 Cl  0  0  0  0  0  0  0  0  0  0  0  0
    4.3094    3.2273   -0.4081 C   0  0  0  0  0  0  0  0  0  0  0  0
    3.4345    2.1498   -0.5642 C   0  0  0  0  0  0  0  0  0  0  0  0
    3.2630   -1.0325   -0.1963 C   0  0  0  0  0  0  0  0  0  0  0  0
    4.1986   -0.7939    0.8235 C   0  0  0  0  0  0  0  0  0  0  0  0
    5.5074   -1.2706    0.7048 C   0  0  0  0  0  0  0  0  0  0  0  0
    5.8917   -1.9886   -0.4323 C   0  0  0  0  0  0  0  0  0  0  0  0
    7.5346   -2.5847   -0.5805 Cl  0  0  0  0  0  0  0  0  0  0  0  0
    4.9650   -2.2289   -1.4519 C   0  0  0  0  0  0  0  0  0  0  0  0
    3.6558   -1.7521   -1.3362 C   0  0  0  0  0  0  0  0  0  0  0  0
    1.5240   -3.2282   -0.3839 H   0  0  0  0  0  0  0  0  0  0  0  0
    0.2203   -2.8268   -1.5710 H   0  0  0  0  0  0  0  0  0  0  0  0
   -0.1748   -3.1492    0.1688 H   0  0  0  0  0  0  0  0  0  0  0  0
   -2.2656    1.4420    0.6113 H   0  0  0  0  0  0  0  0  0  0  0  0
   -4.1818    0.9693   -1.7625 H   0  0  0  0  0  0  0  0  0  0  0  0
   -4.2584   -0.8049   -1.4576 H   0  0  0  0  0  0  0  0  0  0  0  0
   -6.4347    1.2860   -0.8209 H   0  0  0  0  0  0  0  0  0  0  0  0
   -6.4865    0.0219   -2.1028 H   0  0  0  0  0  0  0  0  0  0  0  0
   -7.7974   -0.6052   -0.0220 H   0  0  0  0  0  0  0  0  0  0  0  0
   -6.4963   -1.7796   -0.4245 H   0  0  0  0  0  0  0  0  0  0  0  0
   -6.4485   -1.3413    1.9978 H   0  0  0  0  0  0  0  0  0  0  0  0
   -6.4111    0.4389    1.7272 H   0  0  0  0  0  0  0  0  0  0  0  0
   -4.1445   -0.3662    2.2540 H   0  0  0  0  0  0  0  0  0  0  0  0
   -4.2363   -1.6051    0.9489 H   0  0  0  0  0  0  0  0  0  0  0  0
    3.1833    4.4195    2.5703 H   0  0  0  0  0  0  0  0  0  0  0  0
    5.0560    3.4265   -1.1663 H   0  0  0  0  0  0  0  0  0  0  0  0
    3.5086    1.5325   -1.4505 H   0  0  0  0  0  0  0  0  0  0  0  0
    3.9138   -0.2446    1.7125 H   0  0  0  0  0  0  0  0  0  0  0  0
    6.2209   -1.0820    1.4967 H   0  0  0  0  0  0  0  0  0  0  0  0
    5.2588   -2.7805   -2.3358 H   0  0  0  0  0  0  0  0  0  0  0  0
    2.9534   -1.9317   -2.1408 H   0  0  0  0  0  0  0  0  0  0  0  0
  1  2  1  0
  2  3  2  0
  3  4  1  0
  4  5  1  0
  5  6  2  0
  6  7  1  0
  7  8  2  0
  7  9  1  0
  9 10  1  0
 10 11  1  0
 11 12  1  0
 12 13  1  0
 13 14  1  0
 14 15  1  0
  4 16  1  0
 16 17  2  0
 17 18  1  0
 17 19  1  0
 19 20  2  0
 20 21  1  0
 20 22  1  0
 22 23  2  0
  3 24  1  0
 24 25  2  0
 25 26  1  0
 26 27  2  0
 27 28  1  0
 27 29  1  0
 29 30  2  0
  6  2  1  0
 15 10  1  0
 23 16  1  0
 30 24  1  0
  1 31  1  0
  1 32  1  0
  1 33  1  0
  9 34  1  0
 11 35  1  0
 11 36  1  0
 12 37  1  0
 12 38  1  0
 13 39  1  0
 13 40  1  0
 14 41  1  0
 14 42  1  0
 15 43  1  0
 15 44  1  0
 19 45  1  0
 22 46  1  0
 23 47  1  0
 25 48  1  0
 26 49  1  0
 29 50  1  0
 30 51  1  0
M  END
$$$$
