
     RDKit          3D

 61 64  0  0  0  0  0  0  0  0999 V2000
    3.8857   -0.7371    0.7172 C   0  0  2  0  0  0  0  0  0  0  0  0
    4.4205    0.2115    1.5728 F   0  0  0  0  0  0  0  0  0  0  0  0
    5.0103   -1.2855   -0.1944 C   0  0  0  0  0  0  0  0  0  0  0  0
    4.9809   -0.7050   -1.5581 N   0  0  0  0  0  0  0  0  0  0  0  0
    6.2513   -0.9656   -2.2513 C   0  0  0  0  0  0  0  0  0  0  0  0
    4.7031    0.7424   -1.5159 C   0  0  0  0  0  0  0  0  0  0  0  0
    3.2558    0.9936   -1.0558 C   0  0  0  0  0  0  0  0  0  0  0  0
    2.7402   -0.1285   -0.1195 C   0  0  2  0  0  0  0  0  0  0  0  0
    1.6104    0.3111    0.7264 N   0  0  0  0  0  0  0  0  0  0  0  0
    1.6957    1.4973    1.5874 C   0  0  0  0  0  0  0  0  0  0  0  0
    0.5794   -0.6487    1.0101 C   0  0  0  0  0  0  0  0  0  0  0  0
    0.8544   -1.6362    1.7439 O   0  0  0  0  0  0  0  0  0  0  0  0
   -0.7394   -0.5435    0.4348 N   0  0  0  0  0  0  0  0  0  0  0  0
   -1.6775   -1.6601    0.4581 C   0  0  0  0  0  0  0  0  0  0  0  0
   -2.8832   -1.1323   -0.2407 C   0  0  0  0  0  0  0  0  0  0  0  0
   -2.6793    0.1137   -0.6513 C   0  0  0  0  0  0  0  0  0  0  0  0
   -1.3308    0.6185   -0.2484 C   0  0  2  0  0  0  0  0  0  0  0  0
   -0.5195    0.9774   -1.5167 C   0  0  0  0  0  0  0  0  0  0  0  0
   -0.1318   -0.1853   -2.1989 O   0  0  0  0  0  0  0  0  0  0  0  0
   -1.5348    1.7925    0.7136 C   0  0  0  0  0  0  0  0  0  0  0  0
   -1.6141    3.1229    0.2448 C   0  0  0  0  0  0  0  0  0  0  0  0
   -1.8397    4.1801    1.1310 C   0  0  0  0  0  0  0  0  0  0  0  0
   -2.0170    3.9300    2.4917 C   0  0  0  0  0  0  0  0  0  0  0  0
   -1.9833    2.6199    2.9686 C   0  0  0  0  0  0  0  0  0  0  0  0
   -1.7588    1.5579    2.0888 C   0  0  0  0  0  0  0  0  0  0  0  0
   -4.1328   -1.9047   -0.4562 C   0  0  0  0  0  0  0  0  0  0  0  0
   -4.0670   -3.2967   -0.6539 C   0  0  0  0  0  0  0  0  0  0  0  0
   -5.2321   -4.0420   -0.8584 C   0  0  0  0  0  0  0  0  0  0  0  0
   -5.1534   -5.3808   -1.0580 F   0  0  0  0  0  0  0  0  0  0  0  0
   -6.4765   -3.4098   -0.8586 C   0  0  0  0  0  0  0  0  0  0  0  0
   -6.5594   -2.0326   -0.6473 C   0  0  0  0  0  0  0  0  0  0  0  0
   -5.3988   -1.2788   -0.4426 C   0  0  0  0  0  0  0  0  0  0  0  0
   -5.5239    0.0475   -0.1845 F   0  0  0  0  0  0  0  0  0  0  0  0
    3.4904   -1.5681    1.3399 H   0  0  0  0  0  0  0  0  0  0  0  0
    5.9942   -1.1054    0.2971 H   0  0  0  0  0  0  0  0  0  0  0  0
    4.8845   -2.3869   -0.2832 H   0  0  0  0  0  0  0  0  0  0  0  0
    6.1818   -0.6334   -3.3093 H   0  0  0  0  0  0  0  0  0  0  0  0
    7.0958   -0.4337   -1.7589 H   0  0  0  0  0  0  0  0  0  0  0  0
    6.4655   -2.0563   -2.2613 H   0  0  0  0  0  0  0  0  0  0  0  0
    4.8329    1.1959   -2.5242 H   0  0  0  0  0  0  0  0  0  0  0  0
    5.4122    1.2524   -0.8237 H   0  0  0  0  0  0  0  0  0  0  0  0
    2.5998    1.0367   -1.9515 H   0  0  0  0  0  0  0  0  0  0  0  0
    3.2113    1.9920   -0.5758 H   0  0  0  0  0  0  0  0  0  0  0  0
    2.3732   -0.9431   -0.7876 H   0  0  0  0  0  0  0  0  0  0  0  0
    1.3894    1.2462    2.6256 H   0  0  0  0  0  0  0  0  0  0  0  0
    1.0393    2.2961    1.1936 H   0  0  0  0  0  0  0  0  0  0  0  0
    2.7239    1.9052    1.6314 H   0  0  0  0  0  0  0  0  0  0  0  0
   -1.2463   -2.5231   -0.0917 H   0  0  0  0  0  0  0  0  0  0  0  0
   -1.9272   -1.9366    1.5047 H   0  0  0  0  0  0  0  0  0  0  0  0
   -3.3937    0.6969   -1.2182 H   0  0  0  0  0  0  0  0  0  0  0  0
   -1.1333    1.6053   -2.2012 H   0  0  0  0  0  0  0  0  0  0  0  0
    0.3790    1.5651   -1.2350 H   0  0  0  0  0  0  0  0  0  0  0  0
    0.3929    0.1168   -2.9851 H   0  0  0  0  0  0  0  0  0  0  0  0
   -1.5030    3.3571   -0.8039 H   0  0  0  0  0  0  0  0  0  0  0  0
   -1.8842    5.1958    0.7596 H   0  0  0  0  0  0  0  0  0  0  0  0
   -2.1933    4.7508    3.1748 H   0  0  0  0  0  0  0  0  0  0  0  0
   -2.1388    2.4250    4.0219 H   0  0  0  0  0  0  0  0  0  0  0  0
   -1.7604    0.5530    2.4891 H   0  0  0  0  0  0  0  0  0  0  0  0
   -3.1147   -3.8099   -0.6667 H   0  0  0  0  0  0  0  0  0  0  0  0
   -7.3784   -3.9875   -1.0151 H   0  0  0  0  0  0  0  0  0  0  0  0
   -7.5277   -1.5490   -0.6321 H   0  0  0  0  0  0  0  0  0  0  0  0
  1  2  1  0
  1  3  1  0
  3  4  1  0
  4  5  1  0
  4  6  1  0
  6  7  1  0
  7  8  1  0
  8  9  1  0
  9 10  1  0
  9 11  1  0
 11 12  2  0
 11 13  1  0
 13 14  1  0
 14 15  1  0
 15 16  2  0
 16 17  1  0
 17 18  1  6
 18 19  1  0
 17 20  1  0
 20 21  2  0
 21 22  1  0
 22 23  2  0
 23 24  1  0
 24 25  2  0
 15 26  1  0
 26 27  2  0
 27 28  1  0
 28 29  1  0
 28 30  2  0
 30 31  1  0
 31 32  2  0
 32 33  1  0
  8  1  1  0
 17 13  1  0
 25 20  1  0
 32 26  1  0
  1 34  1  1
  3 35  1  0
  3 36  1  0
  5 37  1  0
  5 38  1  0
  5 39  1  0
  6 40  1  0
  6 41  1  0
  7 42  1  0
  7 43  1  0
  8 44  1  6
 10 45  1  0
 10 46  1  0
 10 47  1  0
 14 48  1  0
 14 49  1  0
 16 50  1  0
 18 51  1  0
 18 52  1  0
 19 53  1  0
 21 54  1  0
 22 55  1  0
 23 56  1  0
 24 57  1  0
 25 58  1  0
 27 59  1  0
 30 60  1  0
 31 61  1  0
M  END
$$$$
