
     RDKit          3D

 46 48  0  0  0  0  0  0  0  0999 V2000
    6.0754    2.3411    1.9293 N   0  0  0  0  0  0  0  0  0  0  0  0
    5.4785    1.1482    1.4205 C   0  0  0  0  0  0  0  0  0  0  0  0
    6.1068   -0.0578    1.5585 N   0  0  0  0  0  0  0  0  0  0  0  0
    5.5438   -1.2159    1.0841 C   0  0  0  0  0  0  0  0  0  0  0  0
    4.3298   -1.1905    0.4556 N   0  0  0  0  0  0  0  0  0  0  0  0
    3.7138    0.0082    0.3146 C   0  0  0  0  0  0  0  0  0  0  0  0
    4.2461    1.1622    0.7773 C   0  0  0  0  0  0  0  0  0  0  0  0
    3.4143    2.1945    0.5414 N   0  0  0  0  0  0  0  0  0  0  0  0
    2.3639    1.5961   -0.0861 C   0  0  0  0  0  0  0  0  0  0  0  0
    2.5263    0.2566   -0.2499 N   0  0  0  0  0  0  0  0  0  0  0  0
    1.5656   -0.7102   -0.7826 C   0  0  2  0  0  0  0  0  0  0  0  0
    0.8090   -0.1231   -1.8180 O   0  0  0  0  0  0  0  0  0  0  0  0
   -0.5475   -0.4772   -1.6285 C   0  0  2  0  0  0  0  0  0  0  0  0
   -1.3680    0.8003   -1.4053 C   0  0  0  0  0  0  0  0  0  0  0  0
   -2.7397    0.4786   -1.3838 O   0  0  0  0  0  0  0  0  0  0  0  0
   -3.6236    1.8948   -1.0353 P   0  0  0  0  0  5  0  0  0  0  0  0
   -3.1386    2.5064    0.4680 O   0  0  0  0  0  0  0  0  0  0  0  0
   -3.3670    2.9271   -2.1118 O   0  0  0  0  0  0  0  0  0  0  0  0
   -5.2766    1.4865   -1.0054 O   0  0  0  0  0  0  0  0  0  0  0  0
   -6.1522    2.8681   -0.5702 S   0  0  0  0  0  6  0  0  0  0  0  0
   -5.7414    3.3725    0.9807 O   0  0  0  0  0  0  0  0  0  0  0  0
   -7.6170    2.5346   -0.5947 O   0  0  0  0  0  0  0  0  0  0  0  0
   -5.9013    3.9839   -1.5464 O   0  0  0  0  0  0  0  0  0  0  0  0
   -0.6647   -1.4553   -0.4498 C   0  0  1  0  0  0  0  0  0  0  0  0
   -0.6690   -2.7788   -0.9587 O   0  0  0  0  0  0  0  0  0  0  0  0
   -1.8299   -3.7206   -0.1338 P   0  0  0  0  0  5  0  0  0  0  0  0
   -1.6127   -3.5845    1.5401 O   0  0  0  0  0  0  0  0  0  0  0  0
   -1.6502   -5.3396   -0.5891 O   0  0  0  0  0  0  0  0  0  0  0  0
   -3.2195   -3.2529   -0.5043 O   0  0  0  0  0  0  0  0  0  0  0  0
    0.6104   -1.1761    0.3106 C   0  0  1  0  0  0  0  0  0  0  0  0
    1.0901   -2.2840    1.0367 O   0  0  0  0  0  0  0  0  0  0  0  0
    7.0010    2.3002    2.4105 H   0  0  0  0  0  0  0  0  0  0  0  0
    5.6002    3.2655    1.8286 H   0  0  0  0  0  0  0  0  0  0  0  0
    6.0630   -2.1559    1.2102 H   0  0  0  0  0  0  0  0  0  0  0  0
    1.4820    2.1362   -0.4052 H   0  0  0  0  0  0  0  0  0  0  0  0
    2.1166   -1.5735   -1.2182 H   0  0  0  0  0  0  0  0  0  0  0  0
   -0.9173   -0.9600   -2.5608 H   0  0  0  0  0  0  0  0  0  0  0  0
   -1.1518    1.5005   -2.2438 H   0  0  0  0  0  0  0  0  0  0  0  0
   -1.0434    1.2669   -0.4470 H   0  0  0  0  0  0  0  0  0  0  0  0
   -3.2595    1.7509    1.0969 H   0  0  0  0  0  0  0  0  0  0  0  0
   -5.9129    2.5852    1.5569 H   0  0  0  0  0  0  0  0  0  0  0  0
   -1.5479   -1.2040    0.1874 H   0  0  0  0  0  0  0  0  0  0  0  0
   -2.2719   -4.2111    1.9321 H   0  0  0  0  0  0  0  0  0  0  0  0
   -0.7224   -5.5707   -0.3310 H   0  0  0  0  0  0  0  0  0  0  0  0
    0.4215   -0.3425    1.0244 H   0  0  0  0  0  0  0  0  0  0  0  0
    1.3879   -2.9806    0.3958 H   0  0  0  0  0  0  0  0  0  0  0  0
  1  2  1  0
  2  3  2  0
  3  4  1  0
  4  5  2  0
  5  6  1  0
  6  7  2  0
  7  8  1  0
  8  9  2  0
  9 10  1  0
 10 11  1  0
 11 12  1  0
 12 13  1  0
 13 14  1  0
 14 15  1  0
 15 16  1  0
 16 17  1  0
 16 18  2  0
 16 19  1  0
 19 20  1  0
 20 21  1  0
 20 22  2  0
 20 23  2  0
 13 24  1  0
 24 25  1  0
 25 26  1  0
 26 27  1  0
 26 28  1  0
 26 29  2  0
 24 30  1  0
 30 31  1  0
  7  2  1  0
 30 11  1  0
 10  6  1  0
  1 32  1  0
  1 33  1  0
  4 34  1  0
  9 35  1  0
 11 36  1  6
 13 37  1  6
 14 38  1  0
 14 39  1  0
 17 40  1  0
 21 41  1  0
 24 42  1  1
 27 43  1  0
 28 44  1  0
 30 45  1  1
 31 46  1  0
M  END
$$$$
