
     RDKit          3D

 43 46  0  0  0  0  0  0  0  0999 V2000
   -7.3200   -0.7959   -0.8563 C   0  0  0  0  0  0  0  0  0  0  0  0
   -6.7450    0.2653    0.4820 S   0  0  0  0  0  4  0  0  0  0  0  0
   -7.0409   -0.5175    1.7546 O   0  0  0  0  0  0  0  0  0  0  0  0
   -4.9695    0.2503    0.3576 C   0  0  0  0  0  0  0  0  0  0  0  0
   -4.2534   -0.9452    0.4881 C   0  0  0  0  0  0  0  0  0  0  0  0
   -2.8595   -0.9446    0.3853 C   0  0  0  0  0  0  0  0  0  0  0  0
   -2.1590    0.2539    0.1542 C   0  0  0  0  0  0  0  0  0  0  0  0
   -2.8891    1.4505    0.0209 C   0  0  0  0  0  0  0  0  0  0  0  0
   -4.2836    1.4455    0.1239 C   0  0  0  0  0  0  0  0  0  0  0  0
   -0.6788    0.2348    0.0467 C   0  0  0  0  0  0  0  0  0  0  0  0
    0.0372   -0.9099   -0.0118 N   0  0  0  0  0  0  0  0  0  0  0  0
    1.3218   -0.5076   -0.0893 C   0  0  0  0  0  0  0  0  0  0  0  0
    1.3650    0.8800   -0.0626 C   0  0  0  0  0  0  0  0  0  0  0  0
    0.1026    1.3362    0.0127 N   0  0  0  0  0  0  0  0  0  0  0  0
    2.5527    1.7598   -0.0059 C   0  0  0  0  0  0  0  0  0  0  0  0
    2.5580    2.9760   -0.7043 C   0  0  0  0  0  0  0  0  0  0  0  0
    3.6779    3.8080   -0.6318 C   0  0  0  0  0  0  0  0  0  0  0  0
    4.7496    3.4455    0.1216 N   0  0  0  0  0  0  0  0  0  0  0  0
    4.7665    2.2805    0.8215 C   0  0  0  0  0  0  0  0  0  0  0  0
    3.6674    1.4198    0.7769 C   0  0  0  0  0  0  0  0  0  0  0  0
    2.4468   -1.4541   -0.2450 C   0  0  0  0  0  0  0  0  0  0  0  0
    2.4155   -2.6890    0.4241 C   0  0  0  0  0  0  0  0  0  0  0  0
    3.4646   -3.6011    0.2729 C   0  0  0  0  0  0  0  0  0  0  0  0
    4.5458   -3.2944   -0.5578 C   0  0  0  0  0  0  0  0  0  0  0  0
    5.5615   -4.1805   -0.7041 F   0  0  0  0  0  0  0  0  0  0  0  0
    4.5749   -2.0779   -1.2448 C   0  0  0  0  0  0  0  0  0  0  0  0
    3.5277   -1.1635   -1.0966 C   0  0  0  0  0  0  0  0  0  0  0  0
   -6.8999   -1.8163   -0.7410 H   0  0  0  0  0  0  0  0  0  0  0  0
   -6.9961   -0.3718   -1.8290 H   0  0  0  0  0  0  0  0  0  0  0  0
   -8.4277   -0.8517   -0.8319 H   0  0  0  0  0  0  0  0  0  0  0  0
   -4.7731   -1.8769    0.6713 H   0  0  0  0  0  0  0  0  0  0  0  0
   -2.3301   -1.8831    0.4927 H   0  0  0  0  0  0  0  0  0  0  0  0
   -2.3956    2.3913   -0.1752 H   0  0  0  0  0  0  0  0  0  0  0  0
   -4.8301    2.3741    0.0168 H   0  0  0  0  0  0  0  0  0  0  0  0
   -0.1888    2.3351    0.0912 H   0  0  0  0  0  0  0  0  0  0  0  0
    1.7109    3.2718   -1.3107 H   0  0  0  0  0  0  0  0  0  0  0  0
    3.6945    4.7433   -1.1751 H   0  0  0  0  0  0  0  0  0  0  0  0
    5.6316    2.0245    1.4185 H   0  0  0  0  0  0  0  0  0  0  0  0
    3.6832    0.5064    1.3577 H   0  0  0  0  0  0  0  0  0  0  0  0
    1.5856   -2.9414    1.0729 H   0  0  0  0  0  0  0  0  0  0  0  0
    3.4378   -4.5463    0.7998 H   0  0  0  0  0  0  0  0  0  0  0  0
    5.4056   -1.8450   -1.8986 H   0  0  0  0  0  0  0  0  0  0  0  0
    3.5556   -0.2390   -1.6587 H   0  0  0  0  0  0  0  0  0  0  0  0
  2  1  1  6
  2  3  2  0
  2  4  1  0
  4  5  2  0
  5  6  1  0
  6  7  2  0
  7  8  1  0
  8  9  2  0
  7 10  1  0
 10 11  2  0
 11 12  1  0
 12 13  2  0
 13 14  1  0
 13 15  1  0
 15 16  2  0
 16 17  1  0
 17 18  2  0
 18 19  1  0
 19 20  2  0
 12 21  1  0
 21 22  2  0
 22 23  1  0
 23 24  2  0
 24 25  1  0
 24 26  1  0
 26 27  2  0
  9  4  1  0
 14 10  1  0
 20 15  1  0
 27 21  1  0
  1 28  1  0
  1 29  1  0
  1 30  1  0
  5 31  1  0
  6 32  1  0
  8 33  1  0
  9 34  1  0
 14 35  1  0
 16 36  1  0
 17 37  1  0
 19 38  1  0
 20 39  1  0
 22 40  1  0
 23 41  1  0
 26 42  1  0
 27 43  1  0
M  END
$$$$
