
     RDKit          3D

129132  0  0  0  0  0  0  0  0999 V2000
    9.7667   -0.5964   -2.8110 C   0  0  0  0  0  0  0  0  0  0  0  0
    9.1617    0.0114   -1.7823 C   0  0  0  0  0  0  0  0  0  0  0  0
    7.9852   -0.5687   -1.0222 C   0  0  0  0  0  0  0  0  0  0  0  0
    7.8337    0.1172    0.3408 C   0  0  0  0  0  0  0  0  0  0  0  0
    6.6667   -0.6134   -1.8559 C   0  0  0  0  0  0  0  0  0  0  0  0
    5.7607   -1.5137   -1.2116 O   0  0  0  0  0  0  0  0  0  0  0  0
    4.7657   -2.2351   -1.8822 C   0  0  0  0  0  0  0  0  0  0  0  0
    3.8105   -3.0689   -1.0987 C   0  0  0  0  0  0  0  0  0  0  0  0
    4.6492   -2.1675   -3.1358 O   0  0  0  0  0  0  0  0  0  0  0  0
    5.9429    0.7349   -2.1820 C   0  0  2  0  0  0  0  0  0  0  0  0
    6.8521    1.7855   -2.8348 C   0  0  0  0  0  0  0  0  0  0  0  0
    5.1501    1.3185   -1.0210 C   0  0  0  0  0  0  0  0  0  0  0  0
    5.6447    2.1801   -0.3094 O   0  0  0  0  0  0  0  0  0  0  0  0
    3.7187    0.9042   -0.7731 C   0  0  0  0  0  0  0  0  0  0  0  0
    3.5421    0.2417    0.6066 C   0  0  0  0  0  0  0  0  0  0  0  0
    3.3757    1.2738    1.7644 C   0  0  2  0  0  0  0  0  0  0  0  0
    4.3217    0.9088    2.9214 C   0  0  0  0  0  0  0  0  0  0  0  0
    1.9035    1.3713    2.2667 C   0  0  2  0  0  0  0  0  0  0  0  0
    0.9658    1.8844    1.1474 C   0  0  0  0  0  0  0  0  0  0  0  0
   -0.5194    1.9612    1.5895 C   0  0  2  0  0  0  0  0  0  0  0  0
   -1.0155    0.7216    2.1237 O   0  0  0  0  0  0  0  0  0  0  0  0
   -0.8988   -0.5612    1.5661 C   0  0  0  0  0  0  0  0  0  0  0  0
   -0.2526   -0.7650    0.5047 O   0  0  0  0  0  0  0  0  0  0  0  0
   -1.5253   -1.7220    2.2781 C   0  0  0  0  0  0  0  0  0  0  0  0
   -2.8921   -2.1230    1.6869 C   0  0  1  0  0  0  0  0  0  0  0  0
   -3.7830   -1.0376    1.7488 O   0  0  0  0  0  0  0  0  0  0  0  0
   -2.7721   -2.6102    0.2249 C   0  0  0  0  0  0  0  0  0  0  0  0
   -3.8395   -3.6477   -0.1633 C   0  0  0  0  0  0  0  0  0  0  0  0
   -5.2733   -3.1035   -0.0958 C   0  0  0  0  0  0  0  0  0  0  0  0
   -6.2469   -4.1128   -0.6525 C   0  0  0  0  0  0  0  0  0  0  0  0
   -6.3502   -5.2057   -0.1144 O   0  0  0  0  0  0  0  0  0  0  0  0
   -7.0901   -3.8018   -1.8661 C   0  0  0  0  0  0  0  0  0  0  0  0
   -8.6001   -3.9690   -1.5884 C   0  0  2  0  0  0  0  0  0  0  0  0
   -9.4132   -3.6541   -2.8475 C   0  0  0  0  0  0  0  0  0  0  0  0
   -9.0686   -3.0964   -0.4525 C   0  0  0  0  0  0  0  0  0  0  0  0
  -10.1073   -3.3796    0.4078 C   0  0  0  0  0  0  0  0  0  0  0  0
  -10.2283   -2.3639    1.2258 O   0  0  0  0  0  0  0  0  0  0  0  0
   -9.3125   -1.4842    0.8861 C   0  0  0  0  0  0  0  0  0  0  0  0
   -8.5655   -1.8807   -0.1648 N   0  0  0  0  0  0  0  0  0  0  0  0
   -9.1003   -0.2135    1.5813 C   0  0  0  0  0  0  0  0  0  0  0  0
   -9.8231    0.2690    2.6495 C   0  0  0  0  0  0  0  0  0  0  0  0
   -9.2796    1.4074    3.0053 O   0  0  0  0  0  0  0  0  0  0  0  0
   -8.2648    1.6200    2.1960 C   0  0  0  0  0  0  0  0  0  0  0  0
   -8.1056    0.6404    1.2831 N   0  0  0  0  0  0  0  0  0  0  0  0
   -7.3697    2.7748    2.2833 C   0  0  0  0  0  0  0  0  0  0  0  0
   -7.3968    3.7673    3.2368 C   0  0  0  0  0  0  0  0  0  0  0  0
   -6.3821    4.5627    2.9995 O   0  0  0  0  0  0  0  0  0  0  0  0
   -5.7545    4.0881    1.9456 C   0  0  0  0  0  0  0  0  0  0  0  0
   -6.3292    2.9699    1.4548 N   0  0  0  0  0  0  0  0  0  0  0  0
   -4.5305    4.6839    1.3938 C   0  0  0  0  0  0  0  0  0  0  0  0
   -4.0069    4.2608    0.2392 C   0  0  0  0  0  0  0  0  0  0  0  0
   -2.6731    4.7477   -0.2472 C   0  0  0  0  0  0  0  0  0  0  0  0
   -1.4987    4.1207    0.5418 C   0  0  2  0  0  0  0  0  0  0  0  0
   -0.2803    4.5915   -0.0139 O   0  0  0  0  0  0  0  0  0  0  0  0
    0.2563    5.6411    0.7618 C   0  0  0  0  0  0  0  0  0  0  0  0
   -1.5070    2.5547    0.5297 C   0  0  1  0  0  0  0  0  0  0  0  0
   -1.3124    1.9861   -0.8898 C   0  0  0  0  0  0  0  0  0  0  0  0
    1.8450    2.2906    3.3501 O   0  0  0  0  0  0  0  0  0  0  0  0
    1.3928    1.6605    4.5298 C   0  0  0  0  0  0  0  0  0  0  0  0
    9.3778   -1.8955   -3.2759 N   0  0  0  0  0  0  0  0  0  0  0  0
    8.9437   -2.0201   -4.6660 C   0  0  0  0  0  0  0  0  0  0  0  0
    9.9128   -3.0780   -2.5953 C   0  0  0  0  0  0  0  0  0  0  0  0
   11.1631   -3.4182   -3.1302 O   0  0  0  0  0  0  0  0  0  0  0  0
   10.5619   -0.0752   -3.3298 H   0  0  0  0  0  0  0  0  0  0  0  0
    9.5474    0.9788   -1.4821 H   0  0  0  0  0  0  0  0  0  0  0  0
    8.2383   -1.6240   -0.7852 H   0  0  0  0  0  0  0  0  0  0  0  0
    6.9092   -0.2225    0.8515 H   0  0  0  0  0  0  0  0  0  0  0  0
    7.8243    1.2201    0.2378 H   0  0  0  0  0  0  0  0  0  0  0  0
    8.6970   -0.1474    0.9884 H   0  0  0  0  0  0  0  0  0  0  0  0
    6.9388   -1.0644   -2.8336 H   0  0  0  0  0  0  0  0  0  0  0  0
    2.8061   -2.5967   -1.1161 H   0  0  0  0  0  0  0  0  0  0  0  0
    3.7474   -4.0854   -1.5403 H   0  0  0  0  0  0  0  0  0  0  0  0
    4.1519   -3.1531   -0.0456 H   0  0  0  0  0  0  0  0  0  0  0  0
    5.1989    0.4873   -2.9711 H   0  0  0  0  0  0  0  0  0  0  0  0
    7.5678    2.2109   -2.1024 H   0  0  0  0  0  0  0  0  0  0  0  0
    6.2360    2.6195   -3.2341 H   0  0  0  0  0  0  0  0  0  0  0  0
    7.4134    1.3372   -3.6822 H   0  0  0  0  0  0  0  0  0  0  0  0
    3.0638    1.7954   -0.8724 H   0  0  0  0  0  0  0  0  0  0  0  0
    3.3914    0.1853   -1.5529 H   0  0  0  0  0  0  0  0  0  0  0  0
    2.6624   -0.4365    0.5663 H   0  0  0  0  0  0  0  0  0  0  0  0
    4.4047   -0.4358    0.7878 H   0  0  0  0  0  0  0  0  0  0  0  0
    3.6839    2.2856    1.4189 H   0  0  0  0  0  0  0  0  0  0  0  0
    4.2856    1.6791    3.7200 H   0  0  0  0  0  0  0  0  0  0  0  0
    4.0471   -0.0775    3.3532 H   0  0  0  0  0  0  0  0  0  0  0  0
    5.3705    0.8631    2.5585 H   0  0  0  0  0  0  0  0  0  0  0  0
    1.5789    0.3377    2.5424 H   0  0  0  0  0  0  0  0  0  0  0  0
    1.3128    2.8934    0.8469 H   0  0  0  0  0  0  0  0  0  0  0  0
    1.0515    1.2427    0.2530 H   0  0  0  0  0  0  0  0  0  0  0  0
   -0.5395    2.6607    2.4519 H   0  0  0  0  0  0  0  0  0  0  0  0
   -1.6582   -1.4561    3.3492 H   0  0  0  0  0  0  0  0  0  0  0  0
   -0.8324   -2.5911    2.2467 H   0  0  0  0  0  0  0  0  0  0  0  0
   -3.2820   -2.9621    2.3102 H   0  0  0  0  0  0  0  0  0  0  0  0
   -4.0565   -0.9428    2.6985 H   0  0  0  0  0  0  0  0  0  0  0  0
   -1.7831   -3.0959    0.0732 H   0  0  0  0  0  0  0  0  0  0  0  0
   -2.8184   -1.7438   -0.4715 H   0  0  0  0  0  0  0  0  0  0  0  0
   -3.7448   -4.5373    0.4978 H   0  0  0  0  0  0  0  0  0  0  0  0
   -3.6296   -3.9802   -1.2041 H   0  0  0  0  0  0  0  0  0  0  0  0
   -5.5515   -2.8936    0.9589 H   0  0  0  0  0  0  0  0  0  0  0  0
   -5.3337   -2.1495   -0.6623 H   0  0  0  0  0  0  0  0  0  0  0  0
   -6.7900   -4.4984   -2.6788 H   0  0  0  0  0  0  0  0  0  0  0  0
   -6.8875   -2.7701   -2.2278 H   0  0  0  0  0  0  0  0  0  0  0  0
   -8.7904   -5.0320   -1.3190 H   0  0  0  0  0  0  0  0  0  0  0  0
  -10.4952   -3.8208   -2.6564 H   0  0  0  0  0  0  0  0  0  0  0  0
   -9.2628   -2.5973   -3.1575 H   0  0  0  0  0  0  0  0  0  0  0  0
   -9.1033   -4.3205   -3.6806 H   0  0  0  0  0  0  0  0  0  0  0  0
  -10.7226   -4.2694    0.4219 H   0  0  0  0  0  0  0  0  0  0  0  0
  -10.6784   -0.1911    3.1266 H   0  0  0  0  0  0  0  0  0  0  0  0
   -8.1054    3.8827    4.0464 H   0  0  0  0  0  0  0  0  0  0  0  0
   -4.0280    5.4542    1.9663 H   0  0  0  0  0  0  0  0  0  0  0  0
   -4.5200    3.5125   -0.3536 H   0  0  0  0  0  0  0  0  0  0  0  0
   -2.5726    4.5215   -1.3288 H   0  0  0  0  0  0  0  0  0  0  0  0
   -2.6360    5.8550   -0.1553 H   0  0  0  0  0  0  0  0  0  0  0  0
   -1.6381    4.4344    1.6065 H   0  0  0  0  0  0  0  0  0  0  0  0
    0.5537    5.2740    1.7690 H   0  0  0  0  0  0  0  0  0  0  0  0
    1.1683    6.0226    0.2589 H   0  0  0  0  0  0  0  0  0  0  0  0
   -0.4615    6.4861    0.8519 H   0  0  0  0  0  0  0  0  0  0  0  0
   -2.5176    2.2284    0.8590 H   0  0  0  0  0  0  0  0  0  0  0  0
   -2.1325    2.3163   -1.5582 H   0  0  0  0  0  0  0  0  0  0  0  0
   -0.3475    2.3143   -1.3292 H   0  0  0  0  0  0  0  0  0  0  0  0
   -1.3566    0.8824   -0.8827 H   0  0  0  0  0  0  0  0  0  0  0  0
    1.3742    2.4100    5.3470 H   0  0  0  0  0  0  0  0  0  0  0  0
    2.0796    0.8414    4.8362 H   0  0  0  0  0  0  0  0  0  0  0  0
    0.3599    1.2696    4.4051 H   0  0  0  0  0  0  0  0  0  0  0  0
    8.3287   -2.9359   -4.7942 H   0  0  0  0  0  0  0  0  0  0  0  0
    8.3246   -1.1443   -4.9568 H   0  0  0  0  0  0  0  0  0  0  0  0
    9.8286   -2.0741   -5.3345 H   0  0  0  0  0  0  0  0  0  0  0  0
   10.0422   -2.8750   -1.5117 H   0  0  0  0  0  0  0  0  0  0  0  0
    9.1983   -3.9278   -2.6871 H   0  0  0  0  0  0  0  0  0  0  0  0
   10.9871   -3.9190   -3.9688 H   0  0  0  0  0  0  0  0  0  0  0  0
  1  2  2  3
  2  3  1  0
  3  4  1  0
  3  5  1  0
  5  6  1  0
  6  7  1  0
  7  8  1  0
  7  9  2  0
  5 10  1  0
 10 11  1  0
 10 12  1  0
 12 13  2  0
 12 14  1  0
 14 15  1  0
 15 16  1  0
 16 17  1  0
 16 18  1  0
 18 19  1  0
 19 20  1  0
 20 21  1  0
 21 22  1  0
 22 23  2  0
 22 24  1  0
 24 25  1  0
 25 26  1  0
 25 27  1  0
 27 28  1  0
 28 29  1  0
 29 30  1  0
 30 31  2  0
 30 32  1  0
 32 33  1  0
 33 34  1  0
 33 35  1  0
 35 36  2  0
 36 37  1  0
 37 38  1  0
 38 39  2  0
 38 40  1  0
 40 41  2  0
 41 42  1  0
 42 43  1  0
 43 44  2  0
 43 45  1  0
 45 46  2  0
 46 47  1  0
 47 48  1  0
 48 49  2  0
 48 50  1  0
 50 51  2  0
 51 52  1  0
 52 53  1  0
 53 54  1  0
 54 55  1  0
 53 56  1  0
 56 57  1  0
 18 58  1  0
 58 59  1  0
  1 60  1  0
 60 61  1  0
 60 62  1  0
 62 63  1  0
 56 20  1  0
 39 35  1  0
 44 40  1  0
 49 45  1  0
  1 64  1  0
  2 65  1  0
  3 66  1  0
  4 67  1  0
  4 68  1  0
  4 69  1  0
  5 70  1  0
  8 71  1  0
  8 72  1  0
  8 73  1  0
 10 74  1  6
 11 75  1  0
 11 76  1  0
 11 77  1  0
 14 78  1  0
 14 79  1  0
 15 80  1  0
 15 81  1  0
 16 82  1  6
 17 83  1  0
 17 84  1  0
 17 85  1  0
 18 86  1  1
 19 87  1  0
 19 88  1  0
 20 89  1  1
 24 90  1  0
 24 91  1  0
 25 92  1  1
 26 93  1  0
 27 94  1  0
 27 95  1  0
 28 96  1  0
 28 97  1  0
 29 98  1  0
 29 99  1  0
 32100  1  0
 32101  1  0
 33102  1  1
 34103  1  0
 34104  1  0
 34105  1  0
 36106  1  0
 41107  1  0
 46108  1  0
 50109  1  0
 51110  1  0
 52111  1  0
 52112  1  0
 53113  1  1
 55114  1  0
 55115  1  0
 55116  1  0
 56117  1  1
 57118  1  0
 57119  1  0
 57120  1  0
 59121  1  0
 59122  1  0
 59123  1  0
 61124  1  0
 61125  1  0
 61126  1  0
 62127  1  0
 62128  1  0
 63129  1  0
M  END
$$$$
