
     RDKit          3D

 36 37  0  0  0  0  0  0  0  0999 V2000
    5.1143    0.7777   -1.2871 C   0  0  0  0  0  0  0  0  0  0  0  0
    3.7550    0.9433   -0.6905 C   0  0  0  0  0  0  0  0  0  0  0  0
    2.9796    1.8254   -1.1474 O   0  0  0  0  0  0  0  0  0  0  0  0
    3.3719    0.1594    0.4460 N   0  0  0  0  0  0  0  0  0  0  0  0
    2.0702    0.2023    0.9767 N   0  0  0  0  0  0  0  0  0  0  0  0
    1.7313   -0.1949    2.2900 C   0  0  0  0  0  0  0  0  0  0  0  0
    2.5605   -0.2572    3.2357 O   0  0  0  0  0  0  0  0  0  0  0  0
    0.3609   -0.5338    2.4310 N   0  0  0  0  0  0  0  0  0  0  0  0
   -0.3003   -0.3882    1.1326 C   0  0  2  0  0  0  0  0  0  0  0  0
   -1.2635    0.6519    1.2510 O   0  0  0  0  0  0  0  0  0  0  0  0
   -2.0351    0.8390    0.0724 C   0  0  2  0  0  0  0  0  0  0  0  0
   -2.9958    2.0095    0.3131 C   0  0  0  0  0  0  0  0  0  0  0  0
   -2.2646    3.1634    0.6236 O   0  0  0  0  0  0  0  0  0  0  0  0
   -2.8244   -0.4435   -0.2919 C   0  0  1  0  0  0  0  0  0  0  0  0
   -3.6002   -0.2533   -1.4504 O   0  0  0  0  0  0  0  0  0  0  0  0
   -1.8591   -1.6270   -0.4793 C   0  0  2  0  0  0  0  0  0  0  0  0
   -2.5848   -2.8192   -0.6371 O   0  0  0  0  0  0  0  0  0  0  0  0
   -0.9569   -1.7467    0.7599 C   0  0  1  0  0  0  0  0  0  0  0  0
    0.0030   -2.7651    0.6045 O   0  0  0  0  0  0  0  0  0  0  0  0
    0.8652    0.0122    0.2391 C   0  0  0  0  0  0  0  0  0  0  0  0
    0.8182    0.0706   -1.0186 O   0  0  0  0  0  0  0  0  0  0  0  0
    5.3924   -0.2970   -1.3014 H   0  0  0  0  0  0  0  0  0  0  0  0
    5.1287    1.1627   -2.3289 H   0  0  0  0  0  0  0  0  0  0  0  0
    5.8548    1.3391   -0.6806 H   0  0  0  0  0  0  0  0  0  0  0  0
    4.1121   -0.3711    0.9587 H   0  0  0  0  0  0  0  0  0  0  0  0
   -0.1040   -0.8045    3.3264 H   0  0  0  0  0  0  0  0  0  0  0  0
   -1.3836    1.1329   -0.7785 H   0  0  0  0  0  0  0  0  0  0  0  0
   -3.6813    1.7639    1.1556 H   0  0  0  0  0  0  0  0  0  0  0  0
   -3.6028    2.1962   -0.6010 H   0  0  0  0  0  0  0  0  0  0  0  0
   -2.9334    3.8800    0.7792 H   0  0  0  0  0  0  0  0  0  0  0  0
   -3.5153   -0.6836    0.5471 H   0  0  0  0  0  0  0  0  0  0  0  0
   -2.9824   -0.0175   -2.1913 H   0  0  0  0  0  0  0  0  0  0  0  0
   -1.2244   -1.4514   -1.3790 H   0  0  0  0  0  0  0  0  0  0  0  0
   -2.8997   -2.8429   -1.5784 H   0  0  0  0  0  0  0  0  0  0  0  0
   -1.6095   -2.0403    1.6129 H   0  0  0  0  0  0  0  0  0  0  0  0
    0.5028   -2.5924   -0.2350 H   0  0  0  0  0  0  0  0  0  0  0  0
  1  2  1  0
  2  3  2  0
  2  4  1  0
  4  5  1  0
  5  6  1  0
  6  7  2  0
  6  8  1  0
  8  9  1  0
  9 10  1  1
 10 11  1  0
 11 12  1  0
 12 13  1  0
 11 14  1  0
 14 15  1  0
 14 16  1  0
 16 17  1  0
 16 18  1  0
 18 19  1  0
  9 20  1  0
 20 21  2  0
 20  5  1  0
 18  9  1  0
  1 22  1  0
  1 23  1  0
  1 24  1  0
  4 25  1  0
  8 26  1  0
 11 27  1  6
 12 28  1  0
 12 29  1  0
 13 30  1  0
 14 31  1  1
 15 32  1  0
 16 33  1  6
 17 34  1  0
 18 35  1  1
 19 36  1  0
M  END
$$$$
