
     RDKit          3D

 33 34  0  0  0  0  0  0  0  0999 V2000
   -3.7490    1.7678    1.3563 C   0  0  0  0  0  0  0  0  0  0  0  0
   -4.1131    0.6243    0.5900 O   0  0  0  0  0  0  0  0  0  0  0  0
   -3.2161   -0.3771    0.1902 C   0  0  0  0  0  0  0  0  0  0  0  0
   -3.7169   -1.4579   -0.5728 C   0  0  0  0  0  0  0  0  0  0  0  0
   -2.8668   -2.4898   -1.0083 C   0  0  0  0  0  0  0  0  0  0  0  0
   -1.5207   -2.4163   -0.6601 C   0  0  0  0  0  0  0  0  0  0  0  0
   -0.5461   -3.2794   -0.9941 N   0  0  0  0  0  0  0  0  0  0  0  0
    0.5918   -2.7836   -0.4570 C   0  0  0  0  0  0  0  0  0  0  0  0
    2.4791   -3.6958   -0.7049 I   0  0  0  0  0  0  0  0  0  0  0  0
    0.3297   -1.6026    0.2369 C   0  0  0  0  0  0  0  0  0  0  0  0
    1.3270   -0.7021    0.9063 C   0  0  0  0  0  0  0  0  0  0  0  0
    1.8304    0.3629   -0.0708 C   0  0  0  0  0  0  0  0  0  0  0  0
    2.8033    1.2438    0.5742 N   0  0  0  0  0  0  0  0  0  0  0  0
    3.4209    2.3231   -0.1374 C   0  0  0  0  0  0  0  0  0  0  0  0
    4.4061    3.2063    0.5562 C   0  0  0  0  0  0  0  0  0  0  0  0
    3.1248    2.5440   -1.3430 O   0  0  0  0  0  0  0  0  0  0  0  0
   -1.0253   -1.3777    0.0834 C   0  0  0  0  0  0  0  0  0  0  0  0
   -1.8398   -0.3344    0.5242 C   0  0  0  0  0  0  0  0  0  0  0  0
   -4.6503    2.3909    1.5284 H   0  0  0  0  0  0  0  0  0  0  0  0
   -3.3403    1.4538    2.3399 H   0  0  0  0  0  0  0  0  0  0  0  0
   -2.9979    2.3728    0.8058 H   0  0  0  0  0  0  0  0  0  0  0  0
   -4.7677   -1.4919   -0.8305 H   0  0  0  0  0  0  0  0  0  0  0  0
   -3.2478   -3.3128   -1.5992 H   0  0  0  0  0  0  0  0  0  0  0  0
   -0.6414   -4.1463   -1.5683 H   0  0  0  0  0  0  0  0  0  0  0  0
    0.8534   -0.2117    1.7838 H   0  0  0  0  0  0  0  0  0  0  0  0
    2.1834   -1.3041    1.2784 H   0  0  0  0  0  0  0  0  0  0  0  0
    0.9712    0.9703   -0.4311 H   0  0  0  0  0  0  0  0  0  0  0  0
    2.3093   -0.1327   -0.9436 H   0  0  0  0  0  0  0  0  0  0  0  0
    3.0624    1.0937    1.5762 H   0  0  0  0  0  0  0  0  0  0  0  0
    3.8877    3.7918    1.3437 H   0  0  0  0  0  0  0  0  0  0  0  0
    5.1987    2.5857    1.0241 H   0  0  0  0  0  0  0  0  0  0  0  0
    4.8785    3.9073   -0.1645 H   0  0  0  0  0  0  0  0  0  0  0  0
   -1.4184    0.4776    1.1006 H   0  0  0  0  0  0  0  0  0  0  0  0
  1  2  1  0
  2  3  1  0
  3  4  2  0
  4  5  1  0
  5  6  2  0
  6  7  1  0
  7  8  1  0
  8  9  1  0
  8 10  2  0
 10 11  1  0
 11 12  1  0
 12 13  1  0
 13 14  1  0
 14 15  1  0
 14 16  2  0
 10 17  1  0
 17 18  2  0
 18  3  1  0
 17  6  1  0
  1 19  1  0
  1 20  1  0
  1 21  1  0
  4 22  1  0
  5 23  1  0
  7 24  1  0
 11 25  1  0
 11 26  1  0
 12 27  1  0
 12 28  1  0
 13 29  1  0
 15 30  1  0
 15 31  1  0
 15 32  1  0
 18 33  1  0
M  END
$$$$
