
     RDKit          3D

 52 53  0  0  0  0  0  0  0  0999 V2000
   -5.5450   -1.5053    0.9924 C   0  0  0  0  0  0  0  0  0  0  0  0
   -5.5767    0.0220    0.9643 C   0  0  0  0  0  0  0  0  0  0  0  0
   -4.7426    0.5593   -0.1344 N   0  0  0  0  0  0  0  0  0  0  0  0
   -4.9814    2.0018   -0.3207 C   0  0  0  0  0  0  0  0  0  0  0  0
   -3.7703    2.7440    0.2038 C   0  0  0  0  0  0  0  0  0  0  0  0
   -2.6385    1.7753   -0.0103 C   0  0  0  0  0  0  0  0  0  0  0  0
   -3.2923    0.3976    0.1201 C   0  0  0  0  0  0  0  0  0  0  0  0
   -2.6997   -0.6142   -0.8747 C   0  0  0  0  0  0  0  0  0  0  0  0
   -1.2913   -0.8691   -0.5713 N   0  0  0  0  0  0  0  0  0  0  0  0
   -0.2129   -0.3838   -1.3874 C   0  0  0  0  0  0  0  0  0  0  0  0
   -0.4548    0.3640   -2.3741 O   0  0  0  0  0  0  0  0  0  0  0  0
    1.1923   -0.7162   -1.0605 C   0  0  0  0  0  0  0  0  0  0  0  0
    2.1759    0.2744   -1.1999 C   0  0  0  0  0  0  0  0  0  0  0  0
    3.5194    0.0159   -0.8906 C   0  0  0  0  0  0  0  0  0  0  0  0
    3.8848   -1.2673   -0.4209 C   0  0  0  0  0  0  0  0  0  0  0  0
    5.2342   -1.5900   -0.0546 N   0  0  0  0  0  0  0  0  0  0  0  0
    2.9043   -2.2633   -0.3051 C   0  0  0  0  0  0  0  0  0  0  0  0
    1.5606   -2.0060   -0.6325 C   0  0  0  0  0  0  0  0  0  0  0  0
    0.5817   -3.0122   -0.5654 O   0  0  0  0  0  0  0  0  0  0  0  0
    0.8206   -4.3520   -0.1469 C   0  0  0  0  0  0  0  0  0  0  0  0
    4.6982    1.3243   -1.0880 S   0  0  0  0  0  6  0  0  0  0  0  0
    4.0858    2.4486   -1.8768 O   0  0  0  0  0  0  0  0  0  0  0  0
    5.8988    0.8230   -1.8414 O   0  0  0  0  0  0  0  0  0  0  0  0
    5.1754    1.9467    0.5181 C   0  0  0  0  0  0  0  0  0  0  0  0
    6.2404    3.0281    0.3892 C   0  0  0  0  0  0  0  0  0  0  0  0
   -6.2892   -1.8786    1.7272 H   0  0  0  0  0  0  0  0  0  0  0  0
   -5.7990   -1.9113   -0.0097 H   0  0  0  0  0  0  0  0  0  0  0  0
   -4.5442   -1.8748    1.2975 H   0  0  0  0  0  0  0  0  0  0  0  0
   -5.2557    0.4296    1.9497 H   0  0  0  0  0  0  0  0  0  0  0  0
   -6.6388    0.3144    0.8059 H   0  0  0  0  0  0  0  0  0  0  0  0
   -5.9061    2.3723    0.1771 H   0  0  0  0  0  0  0  0  0  0  0  0
   -5.0864    2.2003   -1.4096 H   0  0  0  0  0  0  0  0  0  0  0  0
   -3.6050    3.6998   -0.3392 H   0  0  0  0  0  0  0  0  0  0  0  0
   -3.8947    2.9447    1.2910 H   0  0  0  0  0  0  0  0  0  0  0  0
   -2.2213    1.9347   -1.0292 H   0  0  0  0  0  0  0  0  0  0  0  0
   -1.8324    1.9215    0.7416 H   0  0  0  0  0  0  0  0  0  0  0  0
   -3.0961    0.0301    1.1548 H   0  0  0  0  0  0  0  0  0  0  0  0
   -2.8294   -0.2523   -1.9178 H   0  0  0  0  0  0  0  0  0  0  0  0
   -3.2518   -1.5740   -0.7968 H   0  0  0  0  0  0  0  0  0  0  0  0
   -1.0704   -1.3334    0.3384 H   0  0  0  0  0  0  0  0  0  0  0  0
    1.8845    1.2621   -1.5348 H   0  0  0  0  0  0  0  0  0  0  0  0
    5.4793   -2.5554    0.2602 H   0  0  0  0  0  0  0  0  0  0  0  0
    6.0041   -0.8893   -0.0546 H   0  0  0  0  0  0  0  0  0  0  0  0
    3.2015   -3.2446    0.0388 H   0  0  0  0  0  0  0  0  0  0  0  0
    1.5541   -4.8388   -0.8238 H   0  0  0  0  0  0  0  0  0  0  0  0
    1.1952   -4.3644    0.8985 H   0  0  0  0  0  0  0  0  0  0  0  0
   -0.1316   -4.9192   -0.1889 H   0  0  0  0  0  0  0  0  0  0  0  0
    4.2794    2.3686    1.0205 H   0  0  0  0  0  0  0  0  0  0  0  0
    5.5670    1.1162    1.1406 H   0  0  0  0  0  0  0  0  0  0  0  0
    7.1518    2.6151   -0.0928 H   0  0  0  0  0  0  0  0  0  0  0  0
    6.5117    3.4039    1.3981 H   0  0  0  0  0  0  0  0  0  0  0  0
    5.8568    3.8772   -0.2150 H   0  0  0  0  0  0  0  0  0  0  0  0
  1  2  1  0
  2  3  1  0
  3  4  1  0
  4  5  1  0
  5  6  1  0
  6  7  1  0
  7  8  1  0
  8  9  1  0
  9 10  1  0
 10 11  2  0
 10 12  1  0
 12 13  2  0
 13 14  1  0
 14 15  2  0
 15 16  1  0
 15 17  1  0
 17 18  2  0
 18 19  1  0
 19 20  1  0
 14 21  1  0
 21 22  2  0
 21 23  2  0
 21 24  1  0
 24 25  1  0
  7  3  1  0
 18 12  1  0
  1 26  1  0
  1 27  1  0
  1 28  1  0
  2 29  1  0
  2 30  1  0
  4 31  1  0
  4 32  1  0
  5 33  1  0
  5 34  1  0
  6 35  1  0
  6 36  1  0
  7 37  1  0
  8 38  1  0
  8 39  1  0
  9 40  1  0
 13 41  1  0
 16 42  1  0
 16 43  1  0
 17 44  1  0
 20 45  1  0
 20 46  1  0
 20 47  1  0
 24 48  1  0
 24 49  1  0
 25 50  1  0
 25 51  1  0
 25 52  1  0
M  END
$$$$
