
     RDKit          3D

 37 36  0  0  0  0  0  0  0  0999 V2000
    1.8146   -0.0041    2.2399 C   0  0  0  0  0  0  0  0  0  0  0  0
    2.0829   -0.0157    0.7704 C   0  0  0  0  0  0  0  0  0  0  0  0
    2.1779   -1.1187    0.1674 O   0  0  0  0  0  0  0  0  0  0  0  0
    2.2676    1.2209    0.0648 N   0  0  0  0  0  0  0  0  0  0  0  0
    2.4109    1.2912   -1.3938 C   0  0  1  0  0  0  0  0  0  0  0  0
    1.0750    1.6827   -2.0474 C   0  0  0  0  0  0  0  0  0  0  0  0
    0.0316    0.6314   -1.8084 C   0  0  0  0  0  0  0  0  0  0  0  0
   -0.0596   -0.3435   -2.6031 O   0  0  0  0  0  0  0  0  0  0  0  0
   -0.8090    0.7016   -0.6473 N   0  0  0  0  0  0  0  0  0  0  0  0
   -1.6731   -0.4121   -0.2452 C   0  0  1  0  0  0  0  0  0  0  0  0
   -2.1260   -0.2343    1.2206 C   0  0  0  0  0  0  0  0  0  0  0  0
   -2.8823   -1.4494    1.7814 C   0  0  0  0  0  0  0  0  0  0  0  0
   -1.9932   -2.6485    1.9057 C   0  0  0  0  0  0  0  0  0  0  0  0
   -2.0544   -3.6594    0.9518 O   0  0  0  0  0  0  0  0  0  0  0  0
   -1.1703   -2.7285    2.8567 O   0  0  0  0  0  0  0  0  0  0  0  0
   -2.8563   -0.4935   -1.1685 C   0  0  0  0  0  0  0  0  0  0  0  0
   -3.1770   -1.7034   -1.7760 O   0  0  0  0  0  0  0  0  0  0  0  0
   -3.5691    0.5246   -1.3803 O   0  0  0  0  0  0  0  0  0  0  0  0
    3.4778    2.2876   -1.7487 C   0  0  0  0  0  0  0  0  0  0  0  0
    4.5866    1.8810   -2.4846 O   0  0  0  0  0  0  0  0  0  0  0  0
    3.3724    3.4910   -1.3871 O   0  0  0  0  0  0  0  0  0  0  0  0
    2.7712    0.1165    2.7890 H   0  0  0  0  0  0  0  0  0  0  0  0
    1.3313   -0.9545    2.5515 H   0  0  0  0  0  0  0  0  0  0  0  0
    1.1373    0.8375    2.4954 H   0  0  0  0  0  0  0  0  0  0  0  0
    2.1513    2.1133    0.5974 H   0  0  0  0  0  0  0  0  0  0  0  0
    2.7275    0.3035   -1.7970 H   0  0  0  0  0  0  0  0  0  0  0  0
    0.7215    2.6570   -1.6445 H   0  0  0  0  0  0  0  0  0  0  0  0
    1.2177    1.8045   -3.1440 H   0  0  0  0  0  0  0  0  0  0  0  0
   -0.7414    1.5481   -0.0370 H   0  0  0  0  0  0  0  0  0  0  0  0
   -1.0846   -1.3527   -0.3199 H   0  0  0  0  0  0  0  0  0  0  0  0
   -2.7811    0.6613    1.2990 H   0  0  0  0  0  0  0  0  0  0  0  0
   -1.2360   -0.0422    1.8590 H   0  0  0  0  0  0  0  0  0  0  0  0
   -3.7557   -1.6929    1.1396 H   0  0  0  0  0  0  0  0  0  0  0  0
   -3.2758   -1.1926    2.7885 H   0  0  0  0  0  0  0  0  0  0  0  0
   -1.4490   -4.4692    1.0137 H   0  0  0  0  0  0  0  0  0  0  0  0
   -3.9756   -1.7784   -2.3944 H   0  0  0  0  0  0  0  0  0  0  0  0
    5.3145    2.5399   -2.7341 H   0  0  0  0  0  0  0  0  0  0  0  0
  1  2  1  0
  2  3  2  0
  2  4  1  0
  4  5  1  0
  5  6  1  0
  6  7  1  0
  7  8  2  0
  7  9  1  0
  9 10  1  0
 10 11  1  0
 11 12  1  0
 12 13  1  0
 13 14  1  0
 13 15  2  0
 10 16  1  0
 16 17  1  0
 16 18  2  0
  5 19  1  0
 19 20  1  0
 19 21  2  0
  1 22  1  0
  1 23  1  0
  1 24  1  0
  4 25  1  0
  5 26  1  6
  6 27  1  0
  6 28  1  0
  9 29  1  0
 10 30  1  1
 11 31  1  0
 11 32  1  0
 12 33  1  0
 12 34  1  0
 14 35  1  0
 17 36  1  0
 20 37  1  0
M  END
$$$$
