
     RDKit          3D

 33 34  0  0  0  0  0  0  0  0999 V2000
    4.8891   -1.9085   -2.2501 O   0  0  0  0  0  0  0  0  0  0  0  0
    4.6326   -1.0813   -1.1613 C   0  0  0  0  0  0  0  0  0  0  0  0
    4.5512    0.1658   -1.3228 O   0  0  0  0  0  0  0  0  0  0  0  0
    4.4126   -1.6796    0.1943 C   0  0  0  0  0  0  0  0  0  0  0  0
    3.0010   -2.2625    0.3316 C   0  0  0  0  0  0  0  0  0  0  0  0
    1.9459   -1.1858    0.2960 C   0  0  0  0  0  0  0  0  0  0  0  0
    1.6580   -0.4419    1.4498 C   0  0  0  0  0  0  0  0  0  0  0  0
    0.7040    0.5795    1.4134 C   0  0  0  0  0  0  0  0  0  0  0  0
    0.2906    1.6642    3.1803 I   0  0  0  0  0  0  0  0  0  0  0  0
    0.0247    0.8665    0.2203 C   0  0  0  0  0  0  0  0  0  0  0  0
   -0.9317    1.8872    0.2019 O   0  0  0  0  0  0  0  0  0  0  0  0
   -2.3119    1.6696    0.0750 C   0  0  0  0  0  0  0  0  0  0  0  0
   -2.8803    0.3834    0.1577 C   0  0  0  0  0  0  0  0  0  0  0  0
   -4.2622    0.2152    0.0273 C   0  0  0  0  0  0  0  0  0  0  0  0
   -5.0902    1.3263   -0.1809 C   0  0  0  0  0  0  0  0  0  0  0  0
   -6.4682    1.1708   -0.3130 O   0  0  0  0  0  0  0  0  0  0  0  0
   -4.5289    2.6049   -0.2554 C   0  0  0  0  0  0  0  0  0  0  0  0
   -3.1472    2.7750   -0.1254 C   0  0  0  0  0  0  0  0  0  0  0  0
    0.3289    0.1406   -0.9461 C   0  0  0  0  0  0  0  0  0  0  0  0
   -0.5772    0.5948   -2.8047 I   0  0  0  0  0  0  0  0  0  0  0  0
    1.2839   -0.8804   -0.9028 C   0  0  0  0  0  0  0  0  0  0  0  0
    5.0234   -1.5210   -3.1763 H   0  0  0  0  0  0  0  0  0  0  0  0
    4.5882   -0.9151    0.9829 H   0  0  0  0  0  0  0  0  0  0  0  0
    5.1539   -2.4929    0.3466 H   0  0  0  0  0  0  0  0  0  0  0  0
    2.9323   -2.8092    1.2973 H   0  0  0  0  0  0  0  0  0  0  0  0
    2.8221   -3.0112   -0.4716 H   0  0  0  0  0  0  0  0  0  0  0  0
    2.1767   -0.6552    2.3763 H   0  0  0  0  0  0  0  0  0  0  0  0
   -2.2613   -0.4877    0.3267 H   0  0  0  0  0  0  0  0  0  0  0  0
   -4.6882   -0.7781    0.0903 H   0  0  0  0  0  0  0  0  0  0  0  0
   -6.9050    0.2578   -0.2632 H   0  0  0  0  0  0  0  0  0  0  0  0
   -5.1638    3.4674   -0.4139 H   0  0  0  0  0  0  0  0  0  0  0  0
   -2.7227    3.7691   -0.1846 H   0  0  0  0  0  0  0  0  0  0  0  0
    1.5195   -1.4276   -1.8072 H   0  0  0  0  0  0  0  0  0  0  0  0
  1  2  1  0
  2  3  2  0
  2  4  1  0
  4  5  1  0
  5  6  1  0
  6  7  2  0
  7  8  1  0
  8  9  1  0
  8 10  2  0
 10 11  1  0
 11 12  1  0
 12 13  2  0
 13 14  1  0
 14 15  2  0
 15 16  1  0
 15 17  1  0
 17 18  2  0
 10 19  1  0
 19 20  1  0
 19 21  2  0
 21  6  1  0
 18 12  1  0
  1 22  1  0
  4 23  1  0
  4 24  1  0
  5 25  1  0
  5 26  1  0
  7 27  1  0
 13 28  1  0
 14 29  1  0
 16 30  1  0
 17 31  1  0
 18 32  1  0
 21 33  1  0
M  END
$$$$
