
     RDKit          3D

 28 28  0  0  0  0  0  0  0  0999 V2000
   -0.9205    1.8451    0.1688 C   0  0  2  0  0  0  0  0  0  0  0  0
   -0.8193    2.9394    1.0407 O   0  0  0  0  0  0  0  0  0  0  0  0
   -1.3418    0.7182    0.9137 O   0  0  0  0  0  0  0  0  0  0  0  0
   -1.7378   -0.3452    0.0538 C   0  0  2  0  0  0  0  0  0  0  0  0
   -1.9788   -1.5895    0.9207 C   0  0  0  0  0  0  0  0  0  0  0  0
   -2.9276   -1.2990    1.9100 O   0  0  0  0  0  0  0  0  0  0  0  0
   -0.7032   -0.5891   -1.0985 C   0  0  2  0  0  0  0  0  0  0  0  0
   -0.5748   -1.9455   -1.4573 O   0  0  0  0  0  0  0  0  0  0  0  0
    0.6598    0.0572   -0.7703 C   0  0  2  0  0  0  0  0  0  0  0  0
    1.2037   -0.5661    0.3802 O   0  0  0  0  0  0  0  0  0  0  0  0
    2.8736   -0.7993    0.1881 S   0  0  0  0  0  6  0  0  0  0  0  0
    3.5081   -1.3486    1.6444 O   0  0  0  0  0  0  0  0  0  0  0  0
    3.5452    0.4940   -0.1839 O   0  0  0  0  0  0  0  0  0  0  0  0
    3.1227   -1.8291   -0.8788 O   0  0  0  0  0  0  0  0  0  0  0  0
    0.4590    1.5671   -0.4892 C   0  0  1  0  0  0  0  0  0  0  0  0
    0.5605    2.2803   -1.6955 O   0  0  0  0  0  0  0  0  0  0  0  0
   -1.6814    2.0846   -0.6164 H   0  0  0  0  0  0  0  0  0  0  0  0
   -0.7749    3.7551    0.4764 H   0  0  0  0  0  0  0  0  0  0  0  0
   -2.7191   -0.0869   -0.4075 H   0  0  0  0  0  0  0  0  0  0  0  0
   -1.0248   -1.9010    1.4022 H   0  0  0  0  0  0  0  0  0  0  0  0
   -2.3595   -2.4224    0.2880 H   0  0  0  0  0  0  0  0  0  0  0  0
   -3.0328   -2.1294    2.4435 H   0  0  0  0  0  0  0  0  0  0  0  0
   -1.0927   -0.0658   -2.0007 H   0  0  0  0  0  0  0  0  0  0  0  0
   -0.0221   -2.4001   -0.7706 H   0  0  0  0  0  0  0  0  0  0  0  0
    1.3024   -0.0685   -1.6747 H   0  0  0  0  0  0  0  0  0  0  0  0
    4.4736   -1.4833    1.4682 H   0  0  0  0  0  0  0  0  0  0  0  0
    1.2705    1.8991    0.2009 H   0  0  0  0  0  0  0  0  0  0  0  0
    0.7321    3.2284   -1.4564 H   0  0  0  0  0  0  0  0  0  0  0  0
  1  2  1  0
  1  3  1  0
  3  4  1  0
  4  5  1  0
  5  6  1  0
  4  7  1  0
  7  8  1  0
  7  9  1  0
  9 10  1  0
 10 11  1  0
 11 12  1  0
 11 13  2  0
 11 14  2  0
  9 15  1  0
 15 16  1  0
 15  1  1  0
  1 17  1  6
  2 18  1  0
  4 19  1  6
  5 20  1  0
  5 21  1  0
  6 22  1  0
  7 23  1  6
  8 24  1  0
  9 25  1  6
 12 26  1  0
 15 27  1  1
 16 28  1  0
M  END
$$$$
