
     RDKit          3D

 30 32  0  0  0  0  0  0  0  0999 V2000
   -1.1101   -1.4767    0.1366 C   0  0  1  0  0  0  0  0  0  0  0  0
   -0.5092   -2.2863    1.2929 C   0  0  0  0  0  0  0  0  0  0  0  0
   -1.8755   -0.2522    0.5835 C   0  0  0  0  0  0  0  0  0  0  0  0
   -1.9839    0.2472    1.8728 C   0  0  0  0  0  0  0  0  0  0  0  0
   -2.7730    1.3765    1.7872 C   0  0  0  0  0  0  0  0  0  0  0  0
   -3.1154    1.5195    0.4586 C   0  0  0  0  0  0  0  0  0  0  0  0
   -2.5698    0.5280   -0.2674 N   0  0  0  0  0  0  0  0  0  0  0  0
   -0.0431   -1.1060   -0.8653 C   0  0  0  0  0  0  0  0  0  0  0  0
    0.9665   -0.2445   -0.7541 C   0  0  0  0  0  0  0  0  0  0  0  0
    1.3171    0.5837    0.3177 C   0  0  0  0  0  0  0  0  0  0  0  0
    2.4419    1.4156    0.1832 C   0  0  0  0  0  0  0  0  0  0  0  0
    2.8056    2.2483    1.2389 O   0  0  0  0  0  0  0  0  0  0  0  0
    3.1945    1.4052   -1.0123 C   0  0  0  0  0  0  0  0  0  0  0  0
    2.8304    0.5661   -2.0775 C   0  0  0  0  0  0  0  0  0  0  0  0
    1.7116   -0.2523   -1.9272 C   0  0  0  0  0  0  0  0  0  0  0  0
    1.2699   -1.0734   -2.8262 N   0  0  0  0  0  0  0  0  0  0  0  0
    0.1358   -1.6608   -2.1994 C   0  0  0  0  0  0  0  0  0  0  0  0
   -0.5919   -2.5338   -2.7407 O   0  0  0  0  0  0  0  0  0  0  0  0
   -1.8427   -2.1396   -0.3730 H   0  0  0  0  0  0  0  0  0  0  0  0
   -0.0074   -3.1953    0.8973 H   0  0  0  0  0  0  0  0  0  0  0  0
   -1.3121   -2.6122    1.9880 H   0  0  0  0  0  0  0  0  0  0  0  0
    0.2373   -1.6898    1.8577 H   0  0  0  0  0  0  0  0  0  0  0  0
   -1.5395   -0.1524    2.7743 H   0  0  0  0  0  0  0  0  0  0  0  0
   -3.0649    2.0239    2.6031 H   0  0  0  0  0  0  0  0  0  0  0  0
   -3.7305    2.3078    0.0453 H   0  0  0  0  0  0  0  0  0  0  0  0
   -2.6657    0.3943   -1.2987 H   0  0  0  0  0  0  0  0  0  0  0  0
    0.7454    0.5949    1.2347 H   0  0  0  0  0  0  0  0  0  0  0  0
    3.6103    2.8609    1.1766 H   0  0  0  0  0  0  0  0  0  0  0  0
    4.0605    2.0466   -1.1135 H   0  0  0  0  0  0  0  0  0  0  0  0
    3.4079    0.5567   -2.9932 H   0  0  0  0  0  0  0  0  0  0  0  0
  1  2  1  0
  1  3  1  0
  3  4  2  0
  4  5  1  0
  5  6  2  0
  6  7  1  0
  1  8  1  0
  8  9  2  0
  9 10  1  0
 10 11  2  0
 11 12  1  0
 11 13  1  0
 13 14  2  0
 14 15  1  0
 15 16  2  0
 16 17  1  0
 17 18  2  0
  7  3  1  0
 17  8  1  0
 15  9  1  0
  1 19  1  6
  2 20  1  0
  2 21  1  0
  2 22  1  0
  4 23  1  0
  5 24  1  0
  6 25  1  0
  7 26  1  0
 10 27  1  0
 12 28  1  0
 13 29  1  0
 14 30  1  0
M  END
$$$$
