
     RDKit          3D

 55 57  0  0  0  0  0  0  0  0999 V2000
    2.2873    0.2051    1.1352 C   0  0  1  0  0  0  0  0  0  0  0  0
    3.2735    1.1982    1.7676 C   0  0  0  0  0  0  0  0  0  0  0  0
    4.4540    0.4699    2.3560 C   0  0  0  0  0  0  0  0  0  0  0  0
    5.4809   -0.0242    1.6290 C   0  0  0  0  0  0  0  0  0  0  0  0
    5.5480    0.1375    0.1277 C   0  0  0  0  0  0  0  0  0  0  0  0
    6.5941   -0.7392    2.3502 C   0  0  0  0  0  0  0  0  0  0  0  0
    1.0681    0.1569    1.8440 O   0  0  0  0  0  0  0  0  0  0  0  0
    1.0114    0.7276    0.5539 C   0  0  1  0  0  0  0  0  0  0  0  0
    0.7340    2.2424    0.5972 C   0  0  0  0  0  0  0  0  0  0  0  0
    0.2807   -0.1910   -0.4678 C   0  0  1  0  0  0  0  0  0  0  0  0
   -1.2657   -0.2350   -0.2111 C   0  0  2  0  0  0  0  0  0  0  0  0
   -1.5518   -1.3562    0.6175 O   0  0  0  0  0  0  0  0  0  0  0  0
   -2.1027   -0.9568    1.8542 C   0  0  0  0  0  0  0  0  0  0  0  0
   -2.0948   -0.3571   -1.5218 C   0  0  1  0  0  0  0  0  0  0  0  0
   -1.4135   -1.3012   -2.5202 C   0  0  0  0  0  0  0  0  0  0  0  0
   -0.1124   -0.6856   -3.0513 C   0  0  0  0  0  0  0  0  0  0  0  0
    0.6285    0.0975   -1.9549 C   0  0  2  0  0  0  0  0  0  0  0  0
    1.9382    0.6858   -2.3348 C   0  0  0  0  0  0  0  0  0  0  0  0
    0.7617    1.4658   -2.2598 O   0  0  0  0  0  0  0  0  0  0  0  0
   -3.4122   -0.8386   -1.2490 O   0  0  0  0  0  0  0  0  0  0  0  0
   -4.4280   -0.0430   -0.7073 C   0  0  0  0  0  0  0  0  0  0  0  0
   -4.2258    1.1817   -0.4804 O   0  0  0  0  0  0  0  0  0  0  0  0
   -5.6970   -0.6417   -0.4135 N   0  0  0  0  0  0  0  0  0  0  0  0
   -6.8002    0.0579    0.1840 C   0  0  0  0  0  0  0  0  0  0  0  0
   -6.6946    1.2707    0.5117 O   0  0  0  0  0  0  0  0  0  0  0  0
   -8.0760   -0.6677    0.4683 C   0  0  0  0  0  0  0  0  0  0  0  0
   -7.9164   -1.5837    1.9856 Cl  0  0  0  0  0  0  0  0  0  0  0  0
    2.6251   -0.8117    0.8408 H   0  0  0  0  0  0  0  0  0  0  0  0
    2.7794    1.7710    2.5827 H   0  0  0  0  0  0  0  0  0  0  0  0
    3.6182    1.9319    1.0097 H   0  0  0  0  0  0  0  0  0  0  0  0
    4.4719    0.3547    3.4372 H   0  0  0  0  0  0  0  0  0  0  0  0
    5.5694    1.2148   -0.1385 H   0  0  0  0  0  0  0  0  0  0  0  0
    6.4623   -0.3318   -0.2908 H   0  0  0  0  0  0  0  0  0  0  0  0
    4.6724   -0.3447   -0.3525 H   0  0  0  0  0  0  0  0  0  0  0  0
    7.3784   -1.0929    1.6492 H   0  0  0  0  0  0  0  0  0  0  0  0
    6.1861   -1.6208    2.8885 H   0  0  0  0  0  0  0  0  0  0  0  0
    7.0677   -0.0530    3.0840 H   0  0  0  0  0  0  0  0  0  0  0  0
   -0.2156    2.4928    0.0842 H   0  0  0  0  0  0  0  0  0  0  0  0
    1.5467    2.7891    0.0759 H   0  0  0  0  0  0  0  0  0  0  0  0
    0.6652    2.6097    1.6432 H   0  0  0  0  0  0  0  0  0  0  0  0
    0.6522   -1.2297   -0.3134 H   0  0  0  0  0  0  0  0  0  0  0  0
   -1.5865    0.7305    0.2459 H   0  0  0  0  0  0  0  0  0  0  0  0
   -2.2665   -1.8597    2.4772 H   0  0  0  0  0  0  0  0  0  0  0  0
   -1.4130   -0.2842    2.4073 H   0  0  0  0  0  0  0  0  0  0  0  0
   -3.0864   -0.4613    1.7113 H   0  0  0  0  0  0  0  0  0  0  0  0
   -2.1726    0.6450   -2.0041 H   0  0  0  0  0  0  0  0  0  0  0  0
   -2.0952   -1.5002   -3.3757 H   0  0  0  0  0  0  0  0  0  0  0  0
   -1.1968   -2.2746   -2.0270 H   0  0  0  0  0  0  0  0  0  0  0  0
    0.5430   -1.4984   -3.4318 H   0  0  0  0  0  0  0  0  0  0  0  0
   -0.3516   -0.0131   -3.9052 H   0  0  0  0  0  0  0  0  0  0  0  0
    2.2626    0.5659   -3.3898 H   0  0  0  0  0  0  0  0  0  0  0  0
    2.6518    0.9671   -1.5355 H   0  0  0  0  0  0  0  0  0  0  0  0
   -5.8152   -1.6555   -0.6369 H   0  0  0  0  0  0  0  0  0  0  0  0
   -8.3061   -1.3693   -0.3607 H   0  0  0  0  0  0  0  0  0  0  0  0
   -8.9161    0.0524    0.5646 H   0  0  0  0  0  0  0  0  0  0  0  0
  1  2  1  0
  2  3  1  0
  3  4  2  3
  4  5  1  0
  4  6  1  0
  1  7  1  0
  7  8  1  0
  8  9  1  1
  8 10  1  0
 10 11  1  0
 11 12  1  0
 12 13  1  0
 11 14  1  0
 14 15  1  0
 15 16  1  0
 16 17  1  0
 17 18  1  0
 18 19  1  0
 14 20  1  0
 20 21  1  0
 21 22  2  0
 21 23  1  0
 23 24  1  0
 24 25  2  0
 24 26  1  0
 26 27  1  0
  8  1  1  0
 17 10  1  0
 17 19  1  6
  1 28  1  6
  2 29  1  0
  2 30  1  0
  3 31  1  0
  5 32  1  0
  5 33  1  0
  5 34  1  0
  6 35  1  0
  6 36  1  0
  6 37  1  0
  9 38  1  0
  9 39  1  0
  9 40  1  0
 10 41  1  1
 11 42  1  1
 13 43  1  0
 13 44  1  0
 13 45  1  0
 14 46  1  6
 15 47  1  0
 15 48  1  0
 16 49  1  0
 16 50  1  0
 18 51  1  0
 18 52  1  0
 23 53  1  0
 26 54  1  0
 26 55  1  0
M  END
$$$$
