
     RDKit          3D

 54 54  0  0  0  0  0  0  0  0999 V2000
   -1.6638    3.8375    0.6367 C   0  0  1  0  0  0  0  0  0  0  0  0
   -1.8002    3.5271    2.0018 O   0  0  0  0  0  0  0  0  0  0  0  0
   -0.3505    4.5901    0.3523 C   0  0  0  0  0  0  0  0  0  0  0  0
   -0.3106    5.8930    1.0886 C   0  0  0  0  0  0  0  0  0  0  0  0
   -0.9166    7.0181    0.5386 O   0  0  0  0  0  0  0  0  0  0  0  0
    0.2379    5.9627    2.2209 O   0  0  0  0  0  0  0  0  0  0  0  0
   -1.7708    2.5879   -0.2008 C   0  0  0  0  0  0  0  0  0  0  0  0
   -2.7175    2.4823   -1.0275 O   0  0  0  0  0  0  0  0  0  0  0  0
   -0.8106    1.5271   -0.0661 N   0  0  0  0  0  0  0  0  0  0  0  0
   -0.9112    0.2793   -0.8306 C   0  0  2  0  0  0  0  0  0  0  0  0
   -1.9540   -0.6530   -0.1831 C   0  0  0  0  0  0  0  0  0  0  0  0
   -2.2075   -1.9143   -1.0212 C   0  0  0  0  0  0  0  0  0  0  0  0
   -3.2644   -2.7710   -0.3777 C   0  0  0  0  0  0  0  0  0  0  0  0
   -4.6206   -2.5791   -0.6905 C   0  0  0  0  0  0  0  0  0  0  0  0
   -5.6034   -3.3533   -0.0657 C   0  0  0  0  0  0  0  0  0  0  0  0
   -5.2407   -4.3155    0.8809 C   0  0  0  0  0  0  0  0  0  0  0  0
   -3.8947   -4.5023    1.2076 C   0  0  0  0  0  0  0  0  0  0  0  0
   -2.9087   -3.7303    0.5853 C   0  0  0  0  0  0  0  0  0  0  0  0
    0.4444   -0.3790   -0.9256 C   0  0  0  0  0  0  0  0  0  0  0  0
    0.9482   -0.5883   -2.0627 O   0  0  0  0  0  0  0  0  0  0  0  0
    1.1533   -0.7750    0.2595 N   0  0  0  0  0  0  0  0  0  0  0  0
    2.4818   -1.3816    0.2130 C   0  0  0  0  0  0  0  0  0  0  0  0
    3.5417   -0.3194   -0.1120 C   0  0  0  0  0  0  0  0  0  0  0  0
    4.9853   -0.8532    0.0218 C   0  0  0  0  0  0  0  0  0  0  0  0
    5.3096   -1.9011   -1.0536 C   0  0  0  0  0  0  0  0  0  0  0  0
    5.9844    0.3079   -0.0649 C   0  0  0  0  0  0  0  0  0  0  0  0
   -2.5070    4.5098    0.3613 H   0  0  0  0  0  0  0  0  0  0  0  0
   -0.9962    3.0177    2.2829 H   0  0  0  0  0  0  0  0  0  0  0  0
    0.5270    3.9738    0.6454 H   0  0  0  0  0  0  0  0  0  0  0  0
   -0.2694    4.7958   -0.7373 H   0  0  0  0  0  0  0  0  0  0  0  0
   -0.9119    7.9035    1.0308 H   0  0  0  0  0  0  0  0  0  0  0  0
   -0.0357    1.6404    0.6254 H   0  0  0  0  0  0  0  0  0  0  0  0
   -1.2475    0.5231   -1.8639 H   0  0  0  0  0  0  0  0  0  0  0  0
   -2.9133   -0.1000   -0.0797 H   0  0  0  0  0  0  0  0  0  0  0  0
   -1.6262   -0.9414    0.8393 H   0  0  0  0  0  0  0  0  0  0  0  0
   -2.5292   -1.6252   -2.0459 H   0  0  0  0  0  0  0  0  0  0  0  0
   -1.2682   -2.5004   -1.1226 H   0  0  0  0  0  0  0  0  0  0  0  0
   -4.9156   -1.8301   -1.4150 H   0  0  0  0  0  0  0  0  0  0  0  0
   -6.6467   -3.2048   -0.3129 H   0  0  0  0  0  0  0  0  0  0  0  0
   -6.0028   -4.9129    1.3644 H   0  0  0  0  0  0  0  0  0  0  0  0
   -3.6155   -5.2429    1.9458 H   0  0  0  0  0  0  0  0  0  0  0  0
   -1.8699   -3.8778    0.8543 H   0  0  0  0  0  0  0  0  0  0  0  0
    0.6979   -0.6590    1.1924 H   0  0  0  0  0  0  0  0  0  0  0  0
    2.4879   -2.1947   -0.5433 H   0  0  0  0  0  0  0  0  0  0  0  0
    2.7059   -1.8322    1.2045 H   0  0  0  0  0  0  0  0  0  0  0  0
    3.3796    0.0728   -1.1397 H   0  0  0  0  0  0  0  0  0  0  0  0
    3.4031    0.5279    0.5959 H   0  0  0  0  0  0  0  0  0  0  0  0
    5.1057   -1.3264    1.0217 H   0  0  0  0  0  0  0  0  0  0  0  0
    5.1292   -1.4901   -2.0701 H   0  0  0  0  0  0  0  0  0  0  0  0
    4.6898   -2.8106   -0.9142 H   0  0  0  0  0  0  0  0  0  0  0  0
    6.3735   -2.2121   -0.9786 H   0  0  0  0  0  0  0  0  0  0  0  0
    7.0225   -0.0666    0.0637 H   0  0  0  0  0  0  0  0  0  0  0  0
    5.7864    1.0470    0.7405 H   0  0  0  0  0  0  0  0  0  0  0  0
    5.9062    0.8192   -1.0487 H   0  0  0  0  0  0  0  0  0  0  0  0
  1  2  1  0
  1  3  1  0
  3  4  1  0
  4  5  1  0
  4  6  2  0
  1  7  1  0
  7  8  2  0
  7  9  1  0
  9 10  1  0
 10 11  1  0
 11 12  1  0
 12 13  1  0
 13 14  2  0
 14 15  1  0
 15 16  2  0
 16 17  1  0
 17 18  2  0
 10 19  1  0
 19 20  2  0
 19 21  1  0
 21 22  1  0
 22 23  1  0
 23 24  1  0
 24 25  1  0
 24 26  1  0
 18 13  1  0
  1 27  1  6
  2 28  1  0
  3 29  1  0
  3 30  1  0
  5 31  1  0
  9 32  1  0
 10 33  1  6
 11 34  1  0
 11 35  1  0
 12 36  1  0
 12 37  1  0
 14 38  1  0
 15 39  1  0
 16 40  1  0
 17 41  1  0
 18 42  1  0
 21 43  1  0
 22 44  1  0
 22 45  1  0
 23 46  1  0
 23 47  1  0
 24 48  1  0
 25 49  1  0
 25 50  1  0
 25 51  1  0
 26 52  1  0
 26 53  1  0
 26 54  1  0
M  END
$$$$
