
     RDKit          3D

 25 24  0  0  0  0  0  0  0  0999 V2000
    3.8606    0.8503    0.6624 C   0  0  0  0  0  0  0  0  0  0  0  0
    2.2743    1.5541    0.1055 S   0  0  0  0  0  0  0  0  0  0  0  0
    1.2528    0.8074    1.4301 C   0  0  0  0  0  0  0  0  0  0  0  0
    0.7833   -0.6094    1.0667 C   0  0  0  0  0  0  0  0  0  0  0  0
   -0.2174   -0.6311   -0.1068 C   0  0  2  0  0  0  0  0  0  0  0  0
   -1.4517    0.0795    0.2425 N   0  0  0  0  0  0  0  0  0  0  0  0
   -2.3238    0.6326   -0.7525 C   0  0  0  0  0  0  0  0  0  0  0  0
   -3.5967    1.2971   -0.3408 C   0  0  0  0  0  0  0  0  0  0  0  0
   -2.0383    0.5375   -1.9770 O   0  0  0  0  0  0  0  0  0  0  0  0
   -0.5409   -2.0494   -0.4775 C   0  0  0  0  0  0  0  0  0  0  0  0
   -0.0202   -2.5944   -1.6469 O   0  0  0  0  0  0  0  0  0  0  0  0
   -1.2617   -2.7560    0.2781 O   0  0  0  0  0  0  0  0  0  0  0  0
    4.1027    1.2135    1.6827 H   0  0  0  0  0  0  0  0  0  0  0  0
    4.6621    1.1781   -0.0308 H   0  0  0  0  0  0  0  0  0  0  0  0
    3.8186   -0.2576    0.6576 H   0  0  0  0  0  0  0  0  0  0  0  0
    1.8247    0.7735    2.3817 H   0  0  0  0  0  0  0  0  0  0  0  0
    0.3749    1.4633    1.6068 H   0  0  0  0  0  0  0  0  0  0  0  0
    1.6669   -1.2336    0.8134 H   0  0  0  0  0  0  0  0  0  0  0  0
    0.3080   -1.0636    1.9641 H   0  0  0  0  0  0  0  0  0  0  0  0
    0.2573   -0.1395   -0.9838 H   0  0  0  0  0  0  0  0  0  0  0  0
   -1.7600    0.1072    1.2415 H   0  0  0  0  0  0  0  0  0  0  0  0
   -3.3941    2.0200    0.4768 H   0  0  0  0  0  0  0  0  0  0  0  0
   -4.3140    0.5303    0.0184 H   0  0  0  0  0  0  0  0  0  0  0  0
   -4.0468    1.8428   -1.1972 H   0  0  0  0  0  0  0  0  0  0  0  0
   -0.2206   -3.5525   -1.9076 H   0  0  0  0  0  0  0  0  0  0  0  0
  1  2  1  0
  2  3  1  0
  3  4  1  0
  4  5  1  0
  5  6  1  0
  6  7  1  0
  7  8  1  0
  7  9  2  0
  5 10  1  0
 10 11  1  0
 10 12  2  0
  1 13  1  0
  1 14  1  0
  1 15  1  0
  3 16  1  0
  3 17  1  0
  4 18  1  0
  4 19  1  0
  5 20  1  6
  6 21  1  0
  8 22  1  0
  8 23  1  0
  8 24  1  0
 11 25  1  0
M  END
$$$$
