
     RDKit          3D

 45 46  0  0  0  0  0  0  0  0999 V2000
    6.1736   -0.3537   -1.7300 C   0  0  0  0  0  0  0  0  0  0  0  0
    4.9531   -1.1256   -1.4445 N   0  0  0  0  0  0  0  0  0  0  0  0
    5.3160   -2.3672   -0.7379 C   0  0  0  0  0  0  0  0  0  0  0  0
    4.0125   -0.3129   -0.6426 C   0  0  0  0  0  0  0  0  0  0  0  0
    2.5782   -0.8121   -0.8156 C   0  0  0  0  0  0  0  0  0  0  0  0
    1.6869    0.0780   -0.1633 O   0  0  0  0  0  0  0  0  0  0  0  0
    0.3302   -0.1603   -0.1732 N   0  0  0  0  0  0  0  0  0  0  0  0
   -0.5185    0.6255    0.4217 C   0  0  0  0  0  0  0  0  0  0  0  0
   -1.9695    0.3381    0.3514 C   0  0  0  0  0  0  0  0  0  0  0  0
   -2.4728   -0.6881   -0.3516 C   0  0  0  0  0  0  0  0  0  0  0  0
   -3.9211   -1.0004   -0.4276 C   0  0  0  0  0  0  0  0  0  0  0  0
   -4.9187   -0.0322   -0.1920 C   0  0  0  0  0  0  0  0  0  0  0  0
   -6.2716   -0.3730   -0.2880 C   0  0  0  0  0  0  0  0  0  0  0  0
   -6.6487   -1.6749   -0.6282 C   0  0  0  0  0  0  0  0  0  0  0  0
   -8.0005   -1.9988   -0.7184 O   0  0  0  0  0  0  0  0  0  0  0  0
   -5.6647   -2.6389   -0.8791 C   0  0  0  0  0  0  0  0  0  0  0  0
   -4.3111   -2.3022   -0.7850 C   0  0  0  0  0  0  0  0  0  0  0  0
   -0.0554    1.8101    1.1838 C   0  0  0  0  0  0  0  0  0  0  0  0
    0.9204    1.6678    2.1864 C   0  0  0  0  0  0  0  0  0  0  0  0
    1.3522    2.7797    2.9153 C   0  0  0  0  0  0  0  0  0  0  0  0
    0.8128    4.0412    2.6535 C   0  0  0  0  0  0  0  0  0  0  0  0
   -0.1602    4.1933    1.6626 C   0  0  0  0  0  0  0  0  0  0  0  0
   -0.5971    3.0849    0.9293 C   0  0  0  0  0  0  0  0  0  0  0  0
   -1.5268    3.2612   -0.0440 F   0  0  0  0  0  0  0  0  0  0  0  0
    6.8869   -0.9637   -2.3257 H   0  0  0  0  0  0  0  0  0  0  0  0
    6.6716   -0.0254   -0.7901 H   0  0  0  0  0  0  0  0  0  0  0  0
    5.9256    0.5404   -2.3416 H   0  0  0  0  0  0  0  0  0  0  0  0
    6.0099   -2.9728   -1.3601 H   0  0  0  0  0  0  0  0  0  0  0  0
    4.4181   -2.9942   -0.5627 H   0  0  0  0  0  0  0  0  0  0  0  0
    5.8054   -2.1511    0.2381 H   0  0  0  0  0  0  0  0  0  0  0  0
    4.2882   -0.3157    0.4368 H   0  0  0  0  0  0  0  0  0  0  0  0
    4.0280    0.7479   -0.9828 H   0  0  0  0  0  0  0  0  0  0  0  0
    2.4622   -1.8236   -0.3740 H   0  0  0  0  0  0  0  0  0  0  0  0
    2.3254   -0.8567   -1.8971 H   0  0  0  0  0  0  0  0  0  0  0  0
   -2.6285    0.9777    0.9223 H   0  0  0  0  0  0  0  0  0  0  0  0
   -1.7942   -1.3587   -0.8658 H   0  0  0  0  0  0  0  0  0  0  0  0
   -4.6654    0.9925    0.0415 H   0  0  0  0  0  0  0  0  0  0  0  0
   -7.0288    0.3789   -0.1049 H   0  0  0  0  0  0  0  0  0  0  0  0
   -8.3058   -2.9333   -0.9642 H   0  0  0  0  0  0  0  0  0  0  0  0
   -5.9471   -3.6488   -1.1481 H   0  0  0  0  0  0  0  0  0  0  0  0
   -3.5659   -3.0632   -0.9834 H   0  0  0  0  0  0  0  0  0  0  0  0
    1.3378    0.6944    2.4132 H   0  0  0  0  0  0  0  0  0  0  0  0
    2.1029    2.6624    3.6862 H   0  0  0  0  0  0  0  0  0  0  0  0
    1.1483    4.9010    3.2189 H   0  0  0  0  0  0  0  0  0  0  0  0
   -0.5738    5.1729    1.4605 H   0  0  0  0  0  0  0  0  0  0  0  0
  1  2  1  0
  2  3  1  0
  2  4  1  0
  4  5  1  0
  5  6  1  0
  6  7  1  0
  7  8  2  0
  8  9  1  0
  9 10  2  0
 10 11  1  0
 11 12  2  0
 12 13  1  0
 13 14  2  0
 14 15  1  0
 14 16  1  0
 16 17  2  0
  8 18  1  0
 18 19  2  0
 19 20  1  0
 20 21  2  0
 21 22  1  0
 22 23  2  0
 23 24  1  0
 17 11  1  0
 23 18  1  0
  1 25  1  0
  1 26  1  0
  1 27  1  0
  3 28  1  0
  3 29  1  0
  3 30  1  0
  4 31  1  0
  4 32  1  0
  5 33  1  0
  5 34  1  0
  9 35  1  0
 10 36  1  0
 12 37  1  0
 13 38  1  0
 15 39  1  0
 16 40  1  0
 17 41  1  0
 19 42  1  0
 20 43  1  0
 21 44  1  0
 22 45  1  0
M  END
$$$$
