
     RDKit          3D

 53 56  0  0  0  0  0  0  0  0999 V2000
   -1.5091   -0.5489    1.3002 C   0  0  2  0  0  0  0  0  0  0  0  0
   -2.9081   -1.2483    1.4172 C   0  0  0  0  0  0  0  0  0  0  0  0
   -3.9847   -0.4017    0.8115 C   0  0  0  0  0  0  0  0  0  0  0  0
   -5.3708   -0.4566    0.9201 C   0  0  0  0  0  0  0  0  0  0  0  0
   -5.9310    0.4314    0.0531 N   0  0  0  0  0  0  0  0  0  0  0  0
   -7.3571    0.6147   -0.1934 C   0  0  0  0  0  0  0  0  0  0  0  0
   -4.9071    1.0041   -0.6173 C   0  0  0  0  0  0  0  0  0  0  0  0
   -3.7285    0.5035   -0.1644 C   0  0  0  0  0  0  0  0  0  0  0  0
   -2.4936    0.8205   -0.6861 C   0  0  0  0  0  0  0  0  0  0  0  0
   -2.4761    1.7652   -1.7416 C   0  0  0  0  0  0  0  0  0  0  0  0
   -3.6936    2.3113   -2.2260 C   0  0  0  0  0  0  0  0  0  0  0  0
   -4.9326    1.9232   -1.6684 C   0  0  0  0  0  0  0  0  0  0  0  0
   -1.3194    0.1216   -0.0840 C   0  0  0  0  0  0  0  0  0  0  0  0
   -0.1232    0.1223   -0.6963 C   0  0  0  0  0  0  0  0  0  0  0  0
    1.0637   -0.6130   -0.1398 C   0  0  2  0  0  0  0  0  0  0  0  0
    0.8965   -0.8843    1.3564 C   0  0  0  0  0  0  0  0  0  0  0  0
   -0.4148   -1.5131    1.6002 N   0  0  0  0  0  0  0  0  0  0  0  0
   -0.4703   -1.9756    3.0012 C   0  0  0  0  0  0  0  0  0  0  0  0
    2.3330    0.1593   -0.3882 C   0  0  0  0  0  0  0  0  0  0  0  0
    2.3789    1.3909   -0.1153 O   0  0  0  0  0  0  0  0  0  0  0  0
    3.4990   -0.5127   -0.8889 N   0  0  0  0  0  0  0  0  0  0  0  0
    4.7821    0.1751   -1.0743 C   0  0  0  0  0  0  0  0  0  0  0  0
    5.4822    0.3428    0.2924 C   0  0  0  0  0  0  0  0  0  0  0  0
    6.7375    1.2119    0.2160 C   0  0  0  0  0  0  0  0  0  0  0  0
    5.6453   -0.5849   -2.1019 C   0  0  0  0  0  0  0  0  0  0  0  0
    5.9932   -1.8612   -1.6324 O   0  0  0  0  0  0  0  0  0  0  0  0
   -1.4896    0.2783    2.0475 H   0  0  0  0  0  0  0  0  0  0  0  0
   -2.8841   -2.2237    0.8855 H   0  0  0  0  0  0  0  0  0  0  0  0
   -3.1666   -1.4231    2.4825 H   0  0  0  0  0  0  0  0  0  0  0  0
   -5.9303   -1.1244    1.5626 H   0  0  0  0  0  0  0  0  0  0  0  0
   -7.6401    0.1033   -1.1371 H   0  0  0  0  0  0  0  0  0  0  0  0
   -7.5907    1.6970   -0.2763 H   0  0  0  0  0  0  0  0  0  0  0  0
   -7.9516    0.1893    0.6429 H   0  0  0  0  0  0  0  0  0  0  0  0
   -1.5474    2.0919   -2.1872 H   0  0  0  0  0  0  0  0  0  0  0  0
   -3.6736    3.0286   -3.0361 H   0  0  0  0  0  0  0  0  0  0  0  0
   -5.8634    2.3226   -2.0487 H   0  0  0  0  0  0  0  0  0  0  0  0
   -0.0132    0.5573   -1.6806 H   0  0  0  0  0  0  0  0  0  0  0  0
    1.1189   -1.5901   -0.6678 H   0  0  0  0  0  0  0  0  0  0  0  0
    0.9911    0.0622    1.9395 H   0  0  0  0  0  0  0  0  0  0  0  0
    1.7194   -1.5661    1.6706 H   0  0  0  0  0  0  0  0  0  0  0  0
   -0.4976   -1.1193    3.7113 H   0  0  0  0  0  0  0  0  0  0  0  0
   -1.3567   -2.6219    3.1618 H   0  0  0  0  0  0  0  0  0  0  0  0
    0.4102   -2.6105    3.2409 H   0  0  0  0  0  0  0  0  0  0  0  0
    3.4247   -1.5293   -1.1211 H   0  0  0  0  0  0  0  0  0  0  0  0
    4.5840    1.1838   -1.5015 H   0  0  0  0  0  0  0  0  0  0  0  0
    5.7433   -0.6498    0.7183 H   0  0  0  0  0  0  0  0  0  0  0  0
    4.7787    0.8281    1.0027 H   0  0  0  0  0  0  0  0  0  0  0  0
    7.5389    0.6971   -0.3531 H   0  0  0  0  0  0  0  0  0  0  0  0
    7.1153    1.4053    1.2421 H   0  0  0  0  0  0  0  0  0  0  0  0
    6.5072    2.1864   -0.2648 H   0  0  0  0  0  0  0  0  0  0  0  0
    6.5509    0.0058   -2.3699 H   0  0  0  0  0  0  0  0  0  0  0  0
    5.0615   -0.7044   -3.0394 H   0  0  0  0  0  0  0  0  0  0  0  0
    6.8693   -1.7718   -1.1746 H   0  0  0  0  0  0  0  0  0  0  0  0
  1  2  1  0
  2  3  1  0
  3  4  2  0
  4  5  1  0
  5  6  1  0
  5  7  1  0
  7  8  2  0
  8  9  1  0
  9 10  2  0
 10 11  1  0
 11 12  2  0
  9 13  1  0
 13 14  2  0
 14 15  1  0
 15 16  1  0
 16 17  1  0
 17 18  1  0
 15 19  1  0
 19 20  2  0
 19 21  1  0
 21 22  1  0
 22 23  1  0
 23 24  1  0
 22 25  1  0
 25 26  1  0
 13  1  1  0
 17  1  1  0
  8  3  1  0
 12  7  1  0
  1 27  1  1
  2 28  1  0
  2 29  1  0
  4 30  1  0
  6 31  1  0
  6 32  1  0
  6 33  1  0
 10 34  1  0
 11 35  1  0
 12 36  1  0
 14 37  1  0
 15 38  1  6
 16 39  1  0
 16 40  1  0
 18 41  1  0
 18 42  1  0
 18 43  1  0
 21 44  1  0
 22 45  1  0
 23 46  1  0
 23 47  1  0
 24 48  1  0
 24 49  1  0
 24 50  1  0
 25 51  1  0
 25 52  1  0
 26 53  1  0
M  END
$$$$
