
     RDKit          3D

 41 44  0  0  0  0  0  0  0  0999 V2000
   -4.4228   -2.0686    0.8360 C   0  0  0  0  0  0  0  0  0  0  0  0
   -4.4109   -0.5912    0.5504 C   0  0  0  0  0  0  0  0  0  0  0  0
   -3.2177    0.0749    0.1815 C   0  0  0  0  0  0  0  0  0  0  0  0
   -1.9684   -0.6397    0.1043 N   0  0  0  0  0  0  0  0  0  0  0  0
   -0.9180   -0.2965   -0.8180 C   0  0  0  0  0  0  0  0  0  0  0  0
   -1.2393    0.0320   -2.1445 C   0  0  0  0  0  0  0  0  0  0  0  0
   -0.2245    0.3152   -3.0575 C   0  0  0  0  0  0  0  0  0  0  0  0
    1.0751    0.2674   -2.6700 N   0  0  0  0  0  0  0  0  0  0  0  0
    1.4336   -0.0481   -1.3972 C   0  0  0  0  0  0  0  0  0  0  0  0
    2.7882   -0.0784   -1.0492 C   0  0  0  0  0  0  0  0  0  0  0  0
    3.1874   -0.3916    0.2623 C   0  0  0  0  0  0  0  0  0  0  0  0
    2.1965   -0.6579    1.2256 C   0  0  0  0  0  0  0  0  0  0  0  0
    0.8413   -0.6299    0.8854 C   0  0  0  0  0  0  0  0  0  0  0  0
    0.4416   -0.3387   -0.4311 C   0  0  0  0  0  0  0  0  0  0  0  0
    4.6331   -0.4161    0.6084 C   0  0  0  0  0  0  0  0  0  0  0  0
    5.1559   -0.9822    1.7763 C   0  0  0  0  0  0  0  0  0  0  0  0
    6.8268   -0.7952    1.7466 S   0  0  0  0  0  0  0  0  0  0  0  0
    6.8233   -0.0094    0.2623 C   0  0  0  0  0  0  0  0  0  0  0  0
    8.0104    0.4818   -0.4392 C   0  0  0  0  0  0  0  0  0  0  0  0
    9.1564    0.3349    0.0609 O   0  0  0  0  0  0  0  0  0  0  0  0
    5.5713    0.1177   -0.2245 N   0  0  0  0  0  0  0  0  0  0  0  0
   -3.2535    1.4593   -0.0705 C   0  0  0  0  0  0  0  0  0  0  0  0
   -4.4534    2.1733    0.0311 C   0  0  0  0  0  0  0  0  0  0  0  0
   -4.4886    3.5428   -0.2223 O   0  0  0  0  0  0  0  0  0  0  0  0
   -5.6261    1.5106    0.3948 C   0  0  0  0  0  0  0  0  0  0  0  0
   -5.6062    0.1401    0.6580 C   0  0  0  0  0  0  0  0  0  0  0  0
   -3.9159   -2.6192    0.0155 H   0  0  0  0  0  0  0  0  0  0  0  0
   -3.8985   -2.2672    1.7941 H   0  0  0  0  0  0  0  0  0  0  0  0
   -5.4591   -2.4607    0.9159 H   0  0  0  0  0  0  0  0  0  0  0  0
   -1.8278   -1.4745    0.7152 H   0  0  0  0  0  0  0  0  0  0  0  0
   -2.2704    0.0508   -2.4740 H   0  0  0  0  0  0  0  0  0  0  0  0
   -0.4708    0.5660   -4.0805 H   0  0  0  0  0  0  0  0  0  0  0  0
    3.5289    0.1390   -1.8097 H   0  0  0  0  0  0  0  0  0  0  0  0
    2.4581   -0.8694    2.2528 H   0  0  0  0  0  0  0  0  0  0  0  0
    0.1167   -0.8201    1.6655 H   0  0  0  0  0  0  0  0  0  0  0  0
    4.6062   -1.4784    2.5632 H   0  0  0  0  0  0  0  0  0  0  0  0
    7.9048    0.9759   -1.3959 H   0  0  0  0  0  0  0  0  0  0  0  0
   -2.3453    1.9886   -0.3295 H   0  0  0  0  0  0  0  0  0  0  0  0
   -3.6549    4.0542   -0.4876 H   0  0  0  0  0  0  0  0  0  0  0  0
   -6.5553    2.0600    0.4779 H   0  0  0  0  0  0  0  0  0  0  0  0
   -6.5282   -0.3512    0.9437 H   0  0  0  0  0  0  0  0  0  0  0  0
  1  2  1  0
  2  3  2  0
  3  4  1  0
  4  5  1  0
  5  6  2  0
  6  7  1  0
  7  8  2  0
  8  9  1  0
  9 10  2  0
 10 11  1  0
 11 12  2  0
 12 13  1  0
 13 14  2  0
 11 15  1  0
 15 16  2  0
 16 17  1  0
 17 18  1  0
 18 19  1  0
 19 20  2  0
 18 21  2  0
  3 22  1  0
 22 23  2  0
 23 24  1  0
 23 25  1  0
 25 26  2  0
 26  2  1  0
 14  5  1  0
 21 15  1  0
 14  9  1  0
  1 27  1  0
  1 28  1  0
  1 29  1  0
  4 30  1  0
  6 31  1  0
  7 32  1  0
 10 33  1  0
 12 34  1  0
 13 35  1  0
 16 36  1  0
 19 37  1  0
 22 38  1  0
 24 39  1  0
 25 40  1  0
 26 41  1  0
M  END
$$$$
