
     RDKit          3D

 35 37  0  0  0  0  0  0  0  0999 V2000
    7.7225   -0.0971    0.4077 C   0  0  0  0  0  0  0  0  0  0  0  0
    6.5992   -0.9665    0.3273 O   0  0  0  0  0  0  0  0  0  0  0  0
    5.3222   -0.5177   -0.0212 C   0  0  0  0  0  0  0  0  0  0  0  0
    5.1308    0.6968   -0.3026 O   0  0  0  0  0  0  0  0  0  0  0  0
    4.2484   -1.4639   -0.0941 N   0  0  0  0  0  0  0  0  0  0  0  0
    2.8656   -1.1161   -0.2543 C   0  0  0  0  0  0  0  0  0  0  0  0
    1.9441   -2.0131   -0.6949 N   0  0  0  0  0  0  0  0  0  0  0  0
    0.8011   -1.3059   -0.6515 C   0  0  0  0  0  0  0  0  0  0  0  0
    1.0370   -0.0460   -0.1927 C   0  0  0  0  0  0  0  0  0  0  0  0
    2.3418    0.0946    0.0707 N   0  0  0  0  0  0  0  0  0  0  0  0
    0.0184    0.8897   -0.0327 C   0  0  0  0  0  0  0  0  0  0  0  0
   -1.3005    0.4966   -0.3610 C   0  0  0  0  0  0  0  0  0  0  0  0
   -1.5349   -0.8160   -0.8573 C   0  0  0  0  0  0  0  0  0  0  0  0
   -0.4764   -1.7327   -0.9982 C   0  0  0  0  0  0  0  0  0  0  0  0
   -2.4120    1.4684   -0.2261 C   0  0  0  0  0  0  0  0  0  0  0  0
   -2.1745    2.6932   -0.4124 O   0  0  0  0  0  0  0  0  0  0  0  0
   -3.7927    1.0525    0.1207 C   0  0  0  0  0  0  0  0  0  0  0  0
   -4.8908    1.7781   -0.3751 C   0  0  0  0  0  0  0  0  0  0  0  0
   -6.1958    1.4043   -0.0394 C   0  0  0  0  0  0  0  0  0  0  0  0
   -6.4174    0.3117    0.8021 C   0  0  0  0  0  0  0  0  0  0  0  0
   -5.3340   -0.4061    1.3141 C   0  0  0  0  0  0  0  0  0  0  0  0
   -4.0272   -0.0365    0.9813 C   0  0  0  0  0  0  0  0  0  0  0  0
    7.5403    0.6900    1.1698 H   0  0  0  0  0  0  0  0  0  0  0  0
    7.9108    0.3734   -0.5806 H   0  0  0  0  0  0  0  0  0  0  0  0
    8.6168   -0.6833    0.7030 H   0  0  0  0  0  0  0  0  0  0  0  0
    4.4960   -2.4786   -0.0791 H   0  0  0  0  0  0  0  0  0  0  0  0
    2.8160    0.9315    0.4749 H   0  0  0  0  0  0  0  0  0  0  0  0
    0.2390    1.8816    0.3420 H   0  0  0  0  0  0  0  0  0  0  0  0
   -2.5313   -1.1248   -1.1464 H   0  0  0  0  0  0  0  0  0  0  0  0
   -0.6508   -2.7344   -1.3691 H   0  0  0  0  0  0  0  0  0  0  0  0
   -4.7392    2.6267   -1.0309 H   0  0  0  0  0  0  0  0  0  0  0  0
   -7.0359    1.9630   -0.4316 H   0  0  0  0  0  0  0  0  0  0  0  0
   -7.4281    0.0247    1.0618 H   0  0  0  0  0  0  0  0  0  0  0  0
   -5.5064   -1.2460    1.9747 H   0  0  0  0  0  0  0  0  0  0  0  0
   -3.2017   -0.5919    1.4083 H   0  0  0  0  0  0  0  0  0  0  0  0
  1  2  1  0
  2  3  1  0
  3  4  2  0
  3  5  1  0
  5  6  1  0
  6  7  2  0
  7  8  1  0
  8  9  2  0
  9 10  1  0
  9 11  1  0
 11 12  2  0
 12 13  1  0
 13 14  2  0
 12 15  1  0
 15 16  2  0
 15 17  1  0
 17 18  2  0
 18 19  1  0
 19 20  2  0
 20 21  1  0
 21 22  2  0
 10  6  1  0
 22 17  1  0
 14  8  1  0
  1 23  1  0
  1 24  1  0
  1 25  1  0
  5 26  1  0
 10 27  1  0
 11 28  1  0
 13 29  1  0
 14 30  1  0
 18 31  1  0
 19 32  1  0
 20 33  1  0
 21 34  1  0
 22 35  1  0
M  END
$$$$
