
     RDKit          3D

 12 12  0  0  0  0  0  0  0  0999 V2000
   -1.6710   -0.2878    0.1375 C   0  0  0  0  0  0  0  0  0  0  0  0
   -0.2259    0.0536   -0.0184 C   0  0  0  0  0  0  0  0  0  0  0  0
    0.3300    1.3102    0.0581 C   0  0  0  0  0  0  0  0  0  0  0  0
    1.6696    1.2063   -0.0525 N   0  0  0  0  0  0  0  0  0  0  0  0
    1.8931   -0.1195   -0.1837 C   0  0  0  0  0  0  0  0  0  0  0  0
    0.7598   -0.8456   -0.1578 N   0  0  0  0  0  0  0  0  0  0  0  0
   -1.9011   -0.4394    1.2124 H   0  0  0  0  0  0  0  0  0  0  0  0
   -1.9025   -1.2191   -0.4207 H   0  0  0  0  0  0  0  0  0  0  0  0
   -2.3024    0.5345   -0.2600 H   0  0  0  0  0  0  0  0  0  0  0  0
   -0.2016    2.2426    0.1950 H   0  0  0  0  0  0  0  0  0  0  0  0
    2.8795   -0.5515   -0.2884 H   0  0  0  0  0  0  0  0  0  0  0  0
    0.6724   -1.8842   -0.2214 H   0  0  0  0  0  0  0  0  0  0  0  0
  1  2  1  0
  2  3  2  0
  3  4  1  0
  4  5  2  0
  5  6  1  0
  6  2  1  0
  1  7  1  0
  1  8  1  0
  1  9  1  0
  3 10  1  0
  5 11  1  0
  6 12  1  0
M  END
$$$$
