
     RDKit          3D

 66 70  0  0  0  0  0  0  0  0999 V2000
    4.0214    2.3756   -3.4932 C   0  0  0  0  0  0  0  0  0  0  0  0
    3.9337    1.2422   -2.4661 C   0  0  2  0  0  0  0  0  0  0  0  0
    2.5446    1.0342   -2.0440 N   0  0  0  0  0  0  0  0  0  0  0  0
    2.1334   -0.1260   -1.3101 C   0  0  0  0  0  0  0  0  0  0  0  0
    3.0292   -1.0994   -0.9903 N   0  0  0  0  0  0  0  0  0  0  0  0
    2.6489   -2.1955   -0.2852 C   0  0  0  0  0  0  0  0  0  0  0  0
    1.3235   -2.3358    0.1232 C   0  0  0  0  0  0  0  0  0  0  0  0
    0.4089   -1.3334   -0.2184 C   0  0  0  0  0  0  0  0  0  0  0  0
    0.8372   -0.2509   -0.9217 N   0  0  0  0  0  0  0  0  0  0  0  0
   -0.9998   -1.4022    0.2203 C   0  0  0  0  0  0  0  0  0  0  0  0
   -1.7417   -0.3646    0.7644 C   0  0  0  0  0  0  0  0  0  0  0  0
   -3.0131   -0.7725    0.9431 N   0  0  0  0  0  0  0  0  0  0  0  0
   -3.0295   -2.0546    0.5187 C   0  0  0  0  0  0  0  0  0  0  0  0
   -4.2857   -2.9033    0.4986 C   0  0  0  0  0  0  0  0  0  0  0  0
   -5.2215   -2.6211    1.6944 C   0  0  0  0  0  0  0  0  0  0  0  0
   -6.0690   -1.3490    1.5080 C   0  0  0  0  0  0  0  0  0  0  0  0
   -6.7789   -1.3500    0.2226 N   0  0  0  0  0  0  0  0  0  0  0  0
   -5.8360   -1.4488   -0.8986 C   0  0  0  0  0  0  0  0  0  0  0  0
   -5.0361   -2.7570   -0.8373 C   0  0  0  0  0  0  0  0  0  0  0  0
   -1.8247   -2.4581    0.0452 N   0  0  0  0  0  0  0  0  0  0  0  0
   -1.4936   -3.7577   -0.5444 C   0  0  0  0  0  0  0  0  0  0  0  0
   -1.2748    0.9914    1.1256 C   0  0  0  0  0  0  0  0  0  0  0  0
   -0.0032    1.1946    1.6901 C   0  0  0  0  0  0  0  0  0  0  0  0
    0.4423    2.4896    2.0083 C   0  0  0  0  0  0  0  0  0  0  0  0
   -0.4268    3.5766    1.8171 C   0  0  0  0  0  0  0  0  0  0  0  0
   -1.7021    3.3762    1.2842 C   0  0  0  0  0  0  0  0  0  0  0  0
   -2.1263    2.0909    0.9411 C   0  0  0  0  0  0  0  0  0  0  0  0
    1.7938    2.7007    2.6425 C   0  0  0  0  0  0  0  0  0  0  0  0
    2.6751    1.7008    2.2685 F   0  0  0  0  0  0  0  0  0  0  0  0
    2.3264    3.9170    2.2522 F   0  0  0  0  0  0  0  0  0  0  0  0
    1.6580    2.6887    4.0180 F   0  0  0  0  0  0  0  0  0  0  0  0
    4.8075    1.5493   -1.2689 C   0  0  0  0  0  0  0  0  0  0  0  0
    4.4516    2.5636   -0.3603 C   0  0  0  0  0  0  0  0  0  0  0  0
    5.2732    2.8514    0.7338 C   0  0  0  0  0  0  0  0  0  0  0  0
    6.4533    2.1310    0.9325 C   0  0  0  0  0  0  0  0  0  0  0  0
    6.8173    1.1248    0.0344 C   0  0  0  0  0  0  0  0  0  0  0  0
    6.0018    0.8362   -1.0641 C   0  0  0  0  0  0  0  0  0  0  0  0
    5.0738    2.5120   -3.8222 H   0  0  0  0  0  0  0  0  0  0  0  0
    3.4056    2.1256   -4.3832 H   0  0  0  0  0  0  0  0  0  0  0  0
    3.6517    3.3307   -3.0622 H   0  0  0  0  0  0  0  0  0  0  0  0
    4.2874    0.3166   -2.9733 H   0  0  0  0  0  0  0  0  0  0  0  0
    1.8202    1.7530   -2.2727 H   0  0  0  0  0  0  0  0  0  0  0  0
    3.3782   -2.9540   -0.0344 H   0  0  0  0  0  0  0  0  0  0  0  0
    1.0241   -3.1955    0.7089 H   0  0  0  0  0  0  0  0  0  0  0  0
   -3.9714   -3.9649    0.5961 H   0  0  0  0  0  0  0  0  0  0  0  0
   -5.9127   -3.4843    1.8154 H   0  0  0  0  0  0  0  0  0  0  0  0
   -4.6306   -2.5411    2.6329 H   0  0  0  0  0  0  0  0  0  0  0  0
   -6.8146   -1.2945    2.3303 H   0  0  0  0  0  0  0  0  0  0  0  0
   -5.4423   -0.4368    1.5906 H   0  0  0  0  0  0  0  0  0  0  0  0
   -7.4321   -2.1686    0.1945 H   0  0  0  0  0  0  0  0  0  0  0  0
   -5.1486   -0.5744   -0.8980 H   0  0  0  0  0  0  0  0  0  0  0  0
   -6.4049   -1.4186   -1.8526 H   0  0  0  0  0  0  0  0  0  0  0  0
   -5.7376   -3.6122   -0.9547 H   0  0  0  0  0  0  0  0  0  0  0  0
   -4.3244   -2.7943   -1.6904 H   0  0  0  0  0  0  0  0  0  0  0  0
   -0.6633   -3.6574   -1.2736 H   0  0  0  0  0  0  0  0  0  0  0  0
   -1.2003   -4.4665    0.2576 H   0  0  0  0  0  0  0  0  0  0  0  0
   -2.3608   -4.1704   -1.0988 H   0  0  0  0  0  0  0  0  0  0  0  0
    0.6331    0.3442    1.8987 H   0  0  0  0  0  0  0  0  0  0  0  0
   -0.1224    4.5798    2.0884 H   0  0  0  0  0  0  0  0  0  0  0  0
   -2.3649    4.2195    1.1393 H   0  0  0  0  0  0  0  0  0  0  0  0
   -3.1165    1.9554    0.5231 H   0  0  0  0  0  0  0  0  0  0  0  0
    3.5387    3.1295   -0.4987 H   0  0  0  0  0  0  0  0  0  0  0  0
    4.9945    3.6326    1.4288 H   0  0  0  0  0  0  0  0  0  0  0  0
    7.0868    2.3539    1.7813 H   0  0  0  0  0  0  0  0  0  0  0  0
    7.7335    0.5695    0.1879 H   0  0  0  0  0  0  0  0  0  0  0  0
    6.3019    0.0560   -1.7525 H   0  0  0  0  0  0  0  0  0  0  0  0
  1  2  1  0
  2  3  1  0
  3  4  1  0
  4  5  2  0
  5  6  1  0
  6  7  2  0
  7  8  1  0
  8  9  2  0
  8 10  1  0
 10 11  2  0
 11 12  1  0
 12 13  2  0
 13 14  1  0
 14 15  1  0
 15 16  1  0
 16 17  1  0
 17 18  1  0
 18 19  1  0
 13 20  1  0
 20 21  1  0
 11 22  1  0
 22 23  2  0
 23 24  1  0
 24 25  2  0
 25 26  1  0
 26 27  2  0
 24 28  1  0
 28 29  1  0
 28 30  1  0
 28 31  1  0
  2 32  1  0
 32 33  2  0
 33 34  1  0
 34 35  2  0
 35 36  1  0
 36 37  2  0
  9  4  1  0
 20 10  1  0
 27 22  1  0
 37 32  1  0
 19 14  1  0
  1 38  1  0
  1 39  1  0
  1 40  1  0
  2 41  1  6
  3 42  1  0
  6 43  1  0
  7 44  1  0
 14 45  1  0
 15 46  1  0
 15 47  1  0
 16 48  1  0
 16 49  1  0
 17 50  1  0
 18 51  1  0
 18 52  1  0
 19 53  1  0
 19 54  1  0
 21 55  1  0
 21 56  1  0
 21 57  1  0
 23 58  1  0
 25 59  1  0
 26 60  1  0
 27 61  1  0
 33 62  1  0
 34 63  1  0
 35 64  1  0
 36 65  1  0
 37 66  1  0
M  END
$$$$
