
     RDKit          3D

 26 27  0  0  0  0  0  0  0  0999 V2000
    4.1407    0.1965    1.1317 N   0  0  0  0  0  0  0  0  0  0  0  0
    3.4460   -0.0831   -0.4261 S   0  0  0  0  0  6  0  0  0  0  0  0
    4.0887   -1.2893   -1.0517 O   0  0  0  0  0  0  0  0  0  0  0  0
    3.6910    1.1072   -1.3111 O   0  0  0  0  0  0  0  0  0  0  0  0
    1.7141   -0.3491   -0.2549 C   0  0  0  0  0  0  0  0  0  0  0  0
    0.8367    0.7423   -0.2245 C   0  0  0  0  0  0  0  0  0  0  0  0
   -0.5451    0.5414   -0.0838 C   0  0  0  0  0  0  0  0  0  0  0  0
   -1.0470   -0.7679    0.0716 C   0  0  0  0  0  0  0  0  0  0  0  0
   -2.5278   -1.0204    0.1855 C   0  0  0  0  0  0  0  0  0  0  0  0
   -3.2954    0.2545    0.5558 C   0  0  0  0  0  0  0  0  0  0  0  0
   -2.8654    1.3860   -0.2747 N   0  0  0  0  0  0  0  0  0  0  0  0
   -1.4661    1.7362    0.0067 C   0  0  0  0  0  0  0  0  0  0  0  0
   -0.1632   -1.8564    0.0354 C   0  0  0  0  0  0  0  0  0  0  0  0
    1.2091   -1.6480   -0.1205 C   0  0  0  0  0  0  0  0  0  0  0  0
    5.1513    0.4136    0.9812 H   0  0  0  0  0  0  0  0  0  0  0  0
    3.6992    1.0639    1.5112 H   0  0  0  0  0  0  0  0  0  0  0  0
    1.2282    1.7491   -0.3059 H   0  0  0  0  0  0  0  0  0  0  0  0
   -2.7235   -1.7967    0.9567 H   0  0  0  0  0  0  0  0  0  0  0  0
   -2.8986   -1.3997   -0.7913 H   0  0  0  0  0  0  0  0  0  0  0  0
   -4.3828    0.0832    0.4048 H   0  0  0  0  0  0  0  0  0  0  0  0
   -3.1422    0.4915    1.6325 H   0  0  0  0  0  0  0  0  0  0  0  0
   -2.9533    1.1232   -1.2852 H   0  0  0  0  0  0  0  0  0  0  0  0
   -1.3921    2.1747    1.0255 H   0  0  0  0  0  0  0  0  0  0  0  0
   -1.1403    2.5157   -0.7163 H   0  0  0  0  0  0  0  0  0  0  0  0
   -0.5383   -2.8682    0.1289 H   0  0  0  0  0  0  0  0  0  0  0  0
    1.8762   -2.5003   -0.1344 H   0  0  0  0  0  0  0  0  0  0  0  0
  1  2  1  0
  2  3  2  0
  2  4  2  0
  2  5  1  0
  5  6  2  0
  6  7  1  0
  7  8  2  0
  8  9  1  0
  9 10  1  0
 10 11  1  0
 11 12  1  0
  8 13  1  0
 13 14  2  0
 14  5  1  0
 12  7  1  0
  1 15  1  0
  1 16  1  0
  6 17  1  0
  9 18  1  0
  9 19  1  0
 10 20  1  0
 10 21  1  0
 11 22  1  0
 12 23  1  0
 12 24  1  0
 13 25  1  0
 14 26  1  0
M  END
$$$$
