
     RDKit          3D

 47 50  0  0  0  0  0  0  0  0999 V2000
    2.1868    1.0169   -3.5598 C   0  0  0  0  0  0  0  0  0  0  0  0
    1.1828    0.6329   -2.6258 O   0  0  0  0  0  0  0  0  0  0  0  0
    1.4366    0.1405   -1.3345 C   0  0  0  0  0  0  0  0  0  0  0  0
    0.3444   -0.1884   -0.5079 C   0  0  0  0  0  0  0  0  0  0  0  0
   -1.0019   -0.0250   -0.9982 N   0  0  0  0  0  0  0  0  0  0  0  0
   -2.1655   -0.1524   -0.1640 C   0  0  0  0  0  0  0  0  0  0  0  0
   -3.0170   -1.2691   -0.3057 C   0  0  0  0  0  0  0  0  0  0  0  0
   -2.7608   -2.2870   -1.2458 C   0  0  0  0  0  0  0  0  0  0  0  0
   -3.6224   -3.3829   -1.3508 C   0  0  0  0  0  0  0  0  0  0  0  0
   -4.7422   -3.4796   -0.5220 C   0  0  0  0  0  0  0  0  0  0  0  0
   -5.0059   -2.4819    0.4190 C   0  0  0  0  0  0  0  0  0  0  0  0
   -4.1506   -1.3798    0.5337 C   0  0  0  0  0  0  0  0  0  0  0  0
   -4.4124   -0.4208    1.4581 N   0  0  0  0  0  0  0  0  0  0  0  0
   -3.6180    0.6692    1.6120 C   0  0  0  0  0  0  0  0  0  0  0  0
   -3.9421    1.6297    2.5773 C   0  0  0  0  0  0  0  0  0  0  0  0
   -3.1421    2.7632    2.7354 C   0  0  0  0  0  0  0  0  0  0  0  0
   -2.0183    2.9459    1.9271 C   0  0  0  0  0  0  0  0  0  0  0  0
   -1.6840    1.9937    0.9599 C   0  0  0  0  0  0  0  0  0  0  0  0
   -2.4732    0.8374    0.7969 C   0  0  0  0  0  0  0  0  0  0  0  0
    0.5856   -0.6846    0.7858 C   0  0  0  0  0  0  0  0  0  0  0  0
    1.8893   -0.8395    1.2558 C   0  0  0  0  0  0  0  0  0  0  0  0
    2.9842   -0.5043    0.4503 C   0  0  0  0  0  0  0  0  0  0  0  0
    4.3143   -0.6788    0.9729 N   0  0  0  0  0  0  0  0  0  0  0  0
    5.7493   -0.0235    0.2475 S   0  0  0  0  0  6  0  0  0  0  0  0
    5.6371    1.7512    0.1524 C   0  0  0  0  0  0  0  0  0  0  0  0
    6.9313   -0.3801    1.1041 O   0  0  0  0  0  0  0  0  0  0  0  0
    5.9503   -0.6116   -1.1208 O   0  0  0  0  0  0  0  0  0  0  0  0
    2.7501   -0.0243   -0.8503 C   0  0  0  0  0  0  0  0  0  0  0  0
    2.8308    0.1469   -3.8077 H   0  0  0  0  0  0  0  0  0  0  0  0
    2.8011    1.8427   -3.1425 H   0  0  0  0  0  0  0  0  0  0  0  0
    1.6988    1.3730   -4.4899 H   0  0  0  0  0  0  0  0  0  0  0  0
   -1.1643    0.1167   -2.0204 H   0  0  0  0  0  0  0  0  0  0  0  0
   -1.8979   -2.2453   -1.8980 H   0  0  0  0  0  0  0  0  0  0  0  0
   -3.4201   -4.1606   -2.0759 H   0  0  0  0  0  0  0  0  0  0  0  0
   -5.4055   -4.3306   -0.6073 H   0  0  0  0  0  0  0  0  0  0  0  0
   -5.8747   -2.5678    1.0600 H   0  0  0  0  0  0  0  0  0  0  0  0
   -4.8161    1.5006    3.2039 H   0  0  0  0  0  0  0  0  0  0  0  0
   -3.3966    3.5042    3.4821 H   0  0  0  0  0  0  0  0  0  0  0  0
   -1.4054    3.8298    2.0483 H   0  0  0  0  0  0  0  0  0  0  0  0
   -0.8133    2.1723    0.3429 H   0  0  0  0  0  0  0  0  0  0  0  0
   -0.2334   -0.9601    1.4370 H   0  0  0  0  0  0  0  0  0  0  0  0
    2.0463   -1.2208    2.2572 H   0  0  0  0  0  0  0  0  0  0  0  0
    4.4338   -1.1551    1.8950 H   0  0  0  0  0  0  0  0  0  0  0  0
    6.5897    2.1616   -0.2413 H   0  0  0  0  0  0  0  0  0  0  0  0
    5.4505    2.1637    1.1652 H   0  0  0  0  0  0  0  0  0  0  0  0
    4.8079    2.0476   -0.5208 H   0  0  0  0  0  0  0  0  0  0  0  0
    3.5827    0.2140   -1.4905 H   0  0  0  0  0  0  0  0  0  0  0  0
  1  2  1  0
  2  3  1  0
  3  4  2  0
  4  5  1  0
  5  6  1  0
  6  7  1  0
  7  8  2  0
  8  9  1  0
  9 10  2  0
 10 11  1  0
 11 12  2  0
 12 13  1  0
 13 14  2  0
 14 15  1  0
 15 16  2  0
 16 17  1  0
 17 18  2  0
 18 19  1  0
  4 20  1  0
 20 21  2  0
 21 22  1  0
 22 23  1  0
 23 24  1  0
 24 25  1  0
 24 26  2  0
 24 27  2  0
 22 28  2  0
 28  3  1  0
 19  6  2  0
 12  7  1  0
 19 14  1  0
  1 29  1  0
  1 30  1  0
  1 31  1  0
  5 32  1  0
  8 33  1  0
  9 34  1  0
 10 35  1  0
 11 36  1  0
 15 37  1  0
 16 38  1  0
 17 39  1  0
 18 40  1  0
 20 41  1  0
 21 42  1  0
 23 43  1  0
 25 44  1  0
 25 45  1  0
 25 46  1  0
 28 47  1  0
M  END
$$$$
