
     RDKit          3D

 68 72  0  0  0  0  0  0  0  0999 V2000
    2.7660    1.4943   -2.7773 C   0  0  0  0  0  0  0  0  0  0  0  0
    2.0913    0.9432   -1.6530 O   0  0  0  0  0  0  0  0  0  0  0  0
    2.5689   -0.1574   -0.9390 C   0  0  0  0  0  0  0  0  0  0  0  0
    3.7419   -0.7360   -1.3224 N   0  0  0  0  0  0  0  0  0  0  0  0
    4.2786   -1.8003   -0.6766 C   0  0  0  0  0  0  0  0  0  0  0  0
    3.6216   -2.3424    0.4419 C   0  0  0  0  0  0  0  0  0  0  0  0
    4.1830   -3.4379    1.1165 C   0  0  0  0  0  0  0  0  0  0  0  0
    5.3911   -3.9883    0.6726 C   0  0  0  0  0  0  0  0  0  0  0  0
    6.1539   -5.4799    1.5894 Br  0  0  0  0  0  0  0  0  0  0  0  0
    6.0407   -3.4466   -0.4425 C   0  0  0  0  0  0  0  0  0  0  0  0
    5.4863   -2.3539   -1.1162 C   0  0  0  0  0  0  0  0  0  0  0  0
    2.4169   -1.7707    0.8604 C   0  0  0  0  0  0  0  0  0  0  0  0
    1.8503   -0.6785    0.1699 C   0  0  0  0  0  0  0  0  0  0  0  0
    0.5381   -0.0901    0.7226 C   0  0  1  0  0  0  0  0  0  0  0  0
    0.8157    1.0174    1.7327 C   0  0  0  0  0  0  0  0  0  0  0  0
    1.6481    2.1125    1.4255 C   0  0  0  0  0  0  0  0  0  0  0  0
    1.8535    3.1328    2.3588 C   0  0  0  0  0  0  0  0  0  0  0  0
    1.2320    3.0778    3.6072 C   0  0  0  0  0  0  0  0  0  0  0  0
    0.4048    2.0004    3.9269 C   0  0  0  0  0  0  0  0  0  0  0  0
    0.1978    0.9761    2.9993 C   0  0  0  0  0  0  0  0  0  0  0  0
   -0.6142    0.2637   -0.2957 C   0  0  1  0  0  0  0  0  0  0  0  0
   -0.2981    1.4516   -0.9767 O   0  0  0  0  0  0  0  0  0  0  0  0
   -0.7129   -0.8714   -1.3790 C   0  0  0  0  0  0  0  0  0  0  0  0
   -1.9057   -0.7386   -2.3497 C   0  0  0  0  0  0  0  0  0  0  0  0
   -2.0280   -1.9579   -3.1794 N   0  0  0  0  0  0  0  0  0  0  0  0
   -2.8580   -2.9724   -2.5048 C   0  0  0  0  0  0  0  0  0  0  0  0
   -2.6212   -1.6345   -4.4873 C   0  0  0  0  0  0  0  0  0  0  0  0
   -1.9450    0.4135    0.5153 C   0  0  0  0  0  0  0  0  0  0  0  0
   -2.6341   -0.7735    0.8682 C   0  0  0  0  0  0  0  0  0  0  0  0
   -3.8714   -0.7466    1.4999 C   0  0  0  0  0  0  0  0  0  0  0  0
   -4.4535    0.4607    1.8476 C   0  0  0  0  0  0  0  0  0  0  0  0
   -3.7714    1.6599    1.6275 C   0  0  0  0  0  0  0  0  0  0  0  0
   -2.4882    1.6591    0.9995 C   0  0  0  0  0  0  0  0  0  0  0  0
   -1.8035    2.8995    0.9325 C   0  0  0  0  0  0  0  0  0  0  0  0
   -2.3938    4.0805    1.3866 C   0  0  0  0  0  0  0  0  0  0  0  0
   -3.6703    4.0644    1.9358 C   0  0  0  0  0  0  0  0  0  0  0  0
   -4.3541    2.8603    2.0657 C   0  0  0  0  0  0  0  0  0  0  0  0
    2.8539    0.7311   -3.5793 H   0  0  0  0  0  0  0  0  0  0  0  0
    3.7760    1.8470   -2.4793 H   0  0  0  0  0  0  0  0  0  0  0  0
    2.1838    2.3558   -3.1636 H   0  0  0  0  0  0  0  0  0  0  0  0
    3.6874   -3.8642    1.9806 H   0  0  0  0  0  0  0  0  0  0  0  0
    6.9751   -3.8710   -0.7866 H   0  0  0  0  0  0  0  0  0  0  0  0
    5.9965   -1.9392   -1.9768 H   0  0  0  0  0  0  0  0  0  0  0  0
    1.9178   -2.1786    1.7324 H   0  0  0  0  0  0  0  0  0  0  0  0
    0.0982   -0.9291    1.3086 H   0  0  0  0  0  0  0  0  0  0  0  0
    2.1291    2.1963    0.4650 H   0  0  0  0  0  0  0  0  0  0  0  0
    2.4909    3.9715    2.1102 H   0  0  0  0  0  0  0  0  0  0  0  0
    1.3894    3.8715    4.3259 H   0  0  0  0  0  0  0  0  0  0  0  0
   -0.0808    1.9604    4.8934 H   0  0  0  0  0  0  0  0  0  0  0  0
   -0.4586    0.1571    3.2662 H   0  0  0  0  0  0  0  0  0  0  0  0
   -1.0920    1.7336   -1.5011 H   0  0  0  0  0  0  0  0  0  0  0  0
    0.2002   -0.8609   -2.0090 H   0  0  0  0  0  0  0  0  0  0  0  0
   -0.7093   -1.8691   -0.8972 H   0  0  0  0  0  0  0  0  0  0  0  0
   -2.8559   -0.5290   -1.8124 H   0  0  0  0  0  0  0  0  0  0  0  0
   -1.7086    0.1473   -2.9939 H   0  0  0  0  0  0  0  0  0  0  0  0
   -3.8998   -2.6100   -2.3555 H   0  0  0  0  0  0  0  0  0  0  0  0
   -2.4284   -3.2398   -1.5176 H   0  0  0  0  0  0  0  0  0  0  0  0
   -2.8849   -3.9050   -3.1085 H   0  0  0  0  0  0  0  0  0  0  0  0
   -2.7301   -2.5547   -5.1013 H   0  0  0  0  0  0  0  0  0  0  0  0
   -3.6188   -1.1550   -4.3690 H   0  0  0  0  0  0  0  0  0  0  0  0
   -1.9519   -0.9483   -5.0495 H   0  0  0  0  0  0  0  0  0  0  0  0
   -2.2296   -1.7476    0.6430 H   0  0  0  0  0  0  0  0  0  0  0  0
   -4.3846   -1.6741    1.7197 H   0  0  0  0  0  0  0  0  0  0  0  0
   -5.4235    0.4540    2.3311 H   0  0  0  0  0  0  0  0  0  0  0  0
   -0.7940    2.9968    0.5854 H   0  0  0  0  0  0  0  0  0  0  0  0
   -1.8494    5.0143    1.3229 H   0  0  0  0  0  0  0  0  0  0  0  0
   -4.1209    4.9842    2.2858 H   0  0  0  0  0  0  0  0  0  0  0  0
   -5.3345    2.8641    2.5280 H   0  0  0  0  0  0  0  0  0  0  0  0
  1  2  1  0
  2  3  1  0
  3  4  2  0
  4  5  1  0
  5  6  2  0
  6  7  1  0
  7  8  2  0
  8  9  1  0
  8 10  1  0
 10 11  2  0
  6 12  1  0
 12 13  2  0
 13 14  1  0
 14 15  1  0
 15 16  2  0
 16 17  1  0
 17 18  2  0
 18 19  1  0
 19 20  2  0
 14 21  1  0
 21 22  1  6
 21 23  1  0
 23 24  1  0
 24 25  1  0
 25 26  1  0
 25 27  1  0
 21 28  1  0
 28 29  2  0
 29 30  1  0
 30 31  2  0
 31 32  1  0
 32 33  2  0
 33 34  1  0
 34 35  2  0
 35 36  1  0
 36 37  2  0
 13  3  1  0
 20 15  1  0
 33 28  1  0
 11  5  1  0
 37 32  1  0
  1 38  1  0
  1 39  1  0
  1 40  1  0
  7 41  1  0
 10 42  1  0
 11 43  1  0
 12 44  1  0
 14 45  1  1
 16 46  1  0
 17 47  1  0
 18 48  1  0
 19 49  1  0
 20 50  1  0
 22 51  1  0
 23 52  1  0
 23 53  1  0
 24 54  1  0
 24 55  1  0
 26 56  1  0
 26 57  1  0
 26 58  1  0
 27 59  1  0
 27 60  1  0
 27 61  1  0
 29 62  1  0
 30 63  1  0
 31 64  1  0
 34 65  1  0
 35 66  1  0
 36 67  1  0
 37 68  1  0
M  END
$$$$
