
     RDKit          3D

 55 57  0  0  0  0  0  0  0  0999 V2000
   -1.4137    1.2859    0.9327 C   0  0  1  0  0  0  0  0  0  0  0  0
   -0.9152    1.3996    2.3927 C   0  0  0  0  0  0  0  0  0  0  0  0
    0.2597    0.4543    2.7203 C   0  0  0  0  0  0  0  0  0  0  0  0
    1.2663    0.3959    1.5909 C   0  0  0  0  0  0  0  0  0  0  0  0
    0.9357   -0.2205    0.3633 C   0  0  0  0  0  0  0  0  0  0  0  0
    1.8381   -0.1523   -0.7231 C   0  0  0  0  0  0  0  0  0  0  0  0
    1.4000   -0.6982   -1.9488 O   0  0  0  0  0  0  0  0  0  0  0  0
    2.0950   -0.7041   -3.1908 C   0  0  0  0  0  0  0  0  0  0  0  0
    3.1086    0.4647   -0.5550 C   0  0  0  0  0  0  0  0  0  0  0  0
    3.9997    0.4634   -1.6454 O   0  0  0  0  0  0  0  0  0  0  0  0
    5.3092    1.0194   -1.6951 C   0  0  0  0  0  0  0  0  0  0  0  0
    3.4362    1.0571    0.6929 C   0  0  0  0  0  0  0  0  0  0  0  0
    4.6845    1.6758    0.8708 O   0  0  0  0  0  0  0  0  0  0  0  0
    5.1287    2.3032    2.0700 C   0  0  0  0  0  0  0  0  0  0  0  0
    2.5015    1.0277    1.7399 C   0  0  0  0  0  0  0  0  0  0  0  0
   -0.3959   -0.9036    0.1994 C   0  0  0  0  0  0  0  0  0  0  0  0
   -0.3239   -2.2425   -0.2017 C   0  0  0  0  0  0  0  0  0  0  0  0
   -1.3320   -3.1401   -0.5186 C   0  0  0  0  0  0  0  0  0  0  0  0
   -2.7155   -3.0362   -0.3391 C   0  0  0  0  0  0  0  0  0  0  0  0
   -3.5496   -4.0899   -0.7712 O   0  0  0  0  0  0  0  0  0  0  0  0
   -3.1307   -5.2659   -1.4595 C   0  0  0  0  0  0  0  0  0  0  0  0
   -3.3809   -1.9805    0.2905 C   0  0  0  0  0  0  0  0  0  0  0  0
   -4.6161   -2.1413    0.4993 O   0  0  0  0  0  0  0  0  0  0  0  0
   -2.8539   -0.7556    0.7024 C   0  0  0  0  0  0  0  0  0  0  0  0
   -1.5768   -0.1906    0.5336 C   0  0  0  0  0  0  0  0  0  0  0  0
   -2.6454    2.0634    0.7399 N   0  0  0  0  0  0  0  0  0  0  0  0
   -3.1850    2.3198   -0.5648 C   0  0  0  0  0  0  0  0  0  0  0  0
   -2.5625    1.9479   -1.5965 O   0  0  0  0  0  0  0  0  0  0  0  0
   -4.5188    2.9799   -0.7069 C   0  0  0  0  0  0  0  0  0  0  0  0
   -5.8389    1.7769   -0.3677 S   0  0  0  0  0  0  0  0  0  0  0  0
   -0.6496    1.7641    0.2800 H   0  0  0  0  0  0  0  0  0  0  0  0
   -1.7493    1.1735    3.0926 H   0  0  0  0  0  0  0  0  0  0  0  0
   -0.5962    2.4487    2.5779 H   0  0  0  0  0  0  0  0  0  0  0  0
   -0.1287   -0.5691    2.9155 H   0  0  0  0  0  0  0  0  0  0  0  0
    0.7368    0.7879    3.6675 H   0  0  0  0  0  0  0  0  0  0  0  0
    2.3142    0.3348   -3.5154 H   0  0  0  0  0  0  0  0  0  0  0  0
    1.4483   -1.1757   -3.9586 H   0  0  0  0  0  0  0  0  0  0  0  0
    3.0244   -1.3056   -3.1094 H   0  0  0  0  0  0  0  0  0  0  0  0
    5.9677    0.5227   -0.9520 H   0  0  0  0  0  0  0  0  0  0  0  0
    5.7339    0.8408   -2.7040 H   0  0  0  0  0  0  0  0  0  0  0  0
    5.2691    2.1163   -1.5286 H   0  0  0  0  0  0  0  0  0  0  0  0
    4.4617    3.1531    2.3267 H   0  0  0  0  0  0  0  0  0  0  0  0
    6.1549    2.6941    1.9142 H   0  0  0  0  0  0  0  0  0  0  0  0
    5.1526    1.5669    2.9008 H   0  0  0  0  0  0  0  0  0  0  0  0
    2.7287    1.5027    2.6844 H   0  0  0  0  0  0  0  0  0  0  0  0
    0.6730   -2.6442   -0.3554 H   0  0  0  0  0  0  0  0  0  0  0  0
   -0.9569   -4.0676   -0.9274 H   0  0  0  0  0  0  0  0  0  0  0  0
   -4.0232   -5.8769   -1.7051 H   0  0  0  0  0  0  0  0  0  0  0  0
   -2.6179   -4.9941   -2.4063 H   0  0  0  0  0  0  0  0  0  0  0  0
   -2.4597   -5.8699   -0.8131 H   0  0  0  0  0  0  0  0  0  0  0  0
   -3.5901   -0.1197    1.1813 H   0  0  0  0  0  0  0  0  0  0  0  0
   -3.1629    2.4292    1.5717 H   0  0  0  0  0  0  0  0  0  0  0  0
   -4.6440    3.3833   -1.7344 H   0  0  0  0  0  0  0  0  0  0  0  0
   -4.5990    3.8211    0.0129 H   0  0  0  0  0  0  0  0  0  0  0  0
   -5.4961    0.9699   -1.4700 H   0  0  0  0  0  0  0  0  0  0  0  0
  1  2  1  0
  2  3  1  0
  3  4  1  0
  4  5  2  0
  5  6  1  0
  6  7  1  0
  7  8  1  0
  6  9  2  0
  9 10  1  0
 10 11  1  0
  9 12  1  0
 12 13  1  0
 13 14  1  0
 12 15  2  0
  5 16  1  0
 16 17  2  0
 17 18  1  0
 18 19  2  0
 19 20  1  0
 20 21  1  0
 19 22  1  0
 22 23  2  0
 22 24  1  0
 24 25  2  0
  1 26  1  0
 26 27  1  0
 27 28  2  0
 27 29  1  0
 29 30  1  0
 25  1  1  0
 15  4  1  0
 25 16  1  0
  1 31  1  6
  2 32  1  0
  2 33  1  0
  3 34  1  0
  3 35  1  0
  8 36  1  0
  8 37  1  0
  8 38  1  0
 11 39  1  0
 11 40  1  0
 11 41  1  0
 14 42  1  0
 14 43  1  0
 14 44  1  0
 15 45  1  0
 17 46  1  0
 18 47  1  0
 21 48  1  0
 21 49  1  0
 21 50  1  0
 24 51  1  0
 26 52  1  0
 29 53  1  0
 29 54  1  0
 30 55  1  0
M  END
$$$$
