
     RDKit          3D

 28 30  0  0  0  0  0  0  0  0999 V2000
   -5.3941    0.5657    0.2739 O   0  0  0  0  0  0  0  0  0  0  0  0
   -4.0161    0.5024    0.0820 C   0  0  0  0  0  0  0  0  0  0  0  0
   -3.1346    0.5076    1.1923 C   0  0  0  0  0  0  0  0  0  0  0  0
   -1.7415    0.4423    1.0014 C   0  0  0  0  0  0  0  0  0  0  0  0
   -1.2691    0.3897   -0.3107 C   0  0  0  0  0  0  0  0  0  0  0  0
   -2.1202    0.3674   -1.3800 C   0  0  0  0  0  0  0  0  0  0  0  0
   -1.4162    0.2541   -2.5166 N   0  0  0  0  0  0  0  0  0  0  0  0
   -0.1253    0.2016   -2.2095 N   0  0  0  0  0  0  0  0  0  0  0  0
   -0.0010    0.2879   -0.8615 C   0  0  0  0  0  0  0  0  0  0  0  0
    1.2975    0.2768   -0.1530 C   0  0  0  0  0  0  0  0  0  0  0  0
    1.5158    1.1382    0.9362 C   0  0  0  0  0  0  0  0  0  0  0  0
    2.7456    1.1461    1.5989 C   0  0  0  0  0  0  0  0  0  0  0  0
    3.7767    0.3031    1.1785 C   0  0  0  0  0  0  0  0  0  0  0  0
    4.9975    0.3225    1.8493 O   0  0  0  0  0  0  0  0  0  0  0  0
    3.5752   -0.5497    0.0862 C   0  0  0  0  0  0  0  0  0  0  0  0
    2.3426   -0.5659   -0.5835 C   0  0  0  0  0  0  0  0  0  0  0  0
    2.1526   -1.4269   -1.6646 O   0  0  0  0  0  0  0  0  0  0  0  0
   -3.5034    0.4261   -1.2275 C   0  0  0  0  0  0  0  0  0  0  0  0
   -5.7967    0.6193    1.2022 H   0  0  0  0  0  0  0  0  0  0  0  0
   -3.5310    0.5531    2.1985 H   0  0  0  0  0  0  0  0  0  0  0  0
   -1.0716    0.4159    1.8497 H   0  0  0  0  0  0  0  0  0  0  0  0
   -1.7969    0.2035   -3.4875 H   0  0  0  0  0  0  0  0  0  0  0  0
    0.7459    1.8272    1.2583 H   0  0  0  0  0  0  0  0  0  0  0  0
    2.9005    1.8158    2.4354 H   0  0  0  0  0  0  0  0  0  0  0  0
    5.7657   -0.2757    1.5685 H   0  0  0  0  0  0  0  0  0  0  0  0
    4.3754   -1.2016   -0.2414 H   0  0  0  0  0  0  0  0  0  0  0  0
    2.8881   -2.0442   -1.9884 H   0  0  0  0  0  0  0  0  0  0  0  0
   -4.1614    0.4068   -2.0869 H   0  0  0  0  0  0  0  0  0  0  0  0
  1  2  1  0
  2  3  2  0
  3  4  1  0
  4  5  2  0
  5  6  1  0
  6  7  1  0
  7  8  1  0
  8  9  2  0
  9 10  1  0
 10 11  2  0
 11 12  1  0
 12 13  2  0
 13 14  1  0
 13 15  1  0
 15 16  2  0
 16 17  1  0
  6 18  2  0
 18  2  1  0
  9  5  1  0
 16 10  1  0
  1 19  1  0
  3 20  1  0
  4 21  1  0
  7 22  1  0
 11 23  1  0
 12 24  1  0
 14 25  1  0
 15 26  1  0
 17 27  1  0
 18 28  1  0
M  END
$$$$
