
     RDKit          3D

 77 80  0  0  0  0  0  0  0  0999 V2000
    0.0000    0.0000    0.0000 Zn  0  0  0  0  0 15  0  0  0  0  0  0
   -3.1605   -4.9372   -1.5987 C   0  0  0  0  0  0  0  0  0  0  0  0
   -3.0251   -6.3061   -2.1914 C   0  0  0  0  0  0  0  0  0  0  0  0
   -2.1364   -4.1303   -1.2257 C   0  0  0  0  0  0  0  0  0  0  0  0
   -0.7614   -4.3645   -1.3188 C   0  0  0  0  0  0  0  0  0  0  0  0
   -0.0539   -5.5570   -1.9094 C   0  0  0  0  0  0  0  0  0  0  0  0
   -0.1374   -3.2585   -0.7524 C   0  0  0  0  0  0  0  0  0  0  0  0
   -1.0427   -2.3474   -0.3424 N   0  0  0  0  0  2  0  0  0  0  0  0
   -2.2582   -2.8659   -0.6268 C   0  0  0  0  0  0  0  0  0  0  0  0
   -3.4122   -2.2454   -0.3130 C   0  0  0  0  0  0  0  0  0  0  0  0
   -3.5001   -0.9032    0.2988 C   0  0  0  0  0  0  0  0  0  0  0  0
   -4.5973   -0.4119    0.9977 C   0  0  0  0  0  0  0  0  0  0  0  0
   -5.8057   -1.2179    1.3970 C   0  0  0  0  0  0  0  0  0  0  0  0
   -4.3428    0.9454    1.2238 C   0  0  0  0  0  0  0  0  0  0  0  0
   -5.1284    1.8672    1.8316 C   0  0  0  0  0  0  0  0  0  0  0  0
   -6.4930    1.6163    2.3953 C   0  0  0  0  0  0  0  0  0  0  0  0
   -3.0802    1.1841    0.6603 C   0  0  0  0  0  0  0  0  0  0  0  0
   -2.5813    0.0603    0.1037 N   0  0  0  0  0  2  0  0  0  0  0  0
   -2.4431    2.3680    0.5977 C   0  0  0  0  0  0  0  0  0  0  0  0
   -1.0977    2.5415    0.0154 C   0  0  0  0  0  0  0  0  0  0  0  0
   -0.5532    3.7547   -0.3768 C   0  0  0  0  0  0  0  0  0  0  0  0
   -1.2176    5.0985   -0.2977 C   0  0  0  0  0  0  0  0  0  0  0  0
    0.7691    3.4992   -0.6933 C   0  0  0  0  0  0  0  0  0  0  0  0
    1.8267    4.5163   -1.0340 C   0  0  0  0  0  0  0  0  0  0  0  0
    2.4616    5.0794    0.2393 C   0  0  0  0  0  0  0  0  0  0  0  0
    3.5295    6.0686   -0.1025 C   0  0  0  0  0  0  0  0  0  0  0  0
    3.1992    7.4066   -0.2928 O   0  0  0  0  0  0  0  0  0  0  0  0
    4.7197    5.6847   -0.2577 O   0  0  0  0  0  0  0  0  0  0  0  0
    0.9614    2.1408   -0.4783 C   0  0  0  0  0  0  0  0  0  0  0  0
   -0.1762    1.5577   -0.0470 N   0  0  0  0  0  2  0  0  0  0  0  0
    2.2704    1.4598   -0.5084 C   0  0  0  0  0  0  0  0  0  0  0  0
    2.4319    0.1286   -0.4533 C   0  0  0  0  0  0  0  0  0  0  0  0
    1.4148   -0.7617   -0.5035 N   0  0  0  0  0  2  0  0  0  0  0  0
    1.9887   -1.9820   -0.4216 C   0  0  0  0  0  0  0  0  0  0  0  0
    1.3185   -3.1405   -0.5193 C   0  0  0  0  0  0  0  0  0  0  0  0
    3.3698   -1.8740   -0.2921 C   0  0  0  0  0  0  0  0  0  0  0  0
    4.3582   -3.0052   -0.2106 C   0  0  0  0  0  0  0  0  0  0  0  0
    3.6588   -0.5215   -0.3556 C   0  0  0  0  0  0  0  0  0  0  0  0
    5.0266    0.1175   -0.2674 C   0  0  0  0  0  0  0  0  0  0  0  0
    5.3173    0.6539    1.1396 C   0  0  0  0  0  0  0  0  0  0  0  0
    5.4379   -0.4543    2.1393 C   0  0  0  0  0  0  0  0  0  0  0  0
    6.6415   -1.1392    2.2721 O   0  0  0  0  0  0  0  0  0  0  0  0
    4.4412   -0.7912    2.8329 O   0  0  0  0  0  0  0  0  0  0  0  0
   -4.1813   -4.6192   -1.4537 H   0  0  0  0  0  0  0  0  0  0  0  0
   -2.4270   -6.9638   -1.5292 H   0  0  0  0  0  0  0  0  0  0  0  0
   -4.0320   -6.7631   -2.2931 H   0  0  0  0  0  0  0  0  0  0  0  0
   -2.5878   -6.2468   -3.2078 H   0  0  0  0  0  0  0  0  0  0  0  0
   -0.4380   -5.7703   -2.9245 H   0  0  0  0  0  0  0  0  0  0  0  0
    1.0297   -5.3711   -2.0391 H   0  0  0  0  0  0  0  0  0  0  0  0
   -0.1780   -6.4386   -1.2482 H   0  0  0  0  0  0  0  0  0  0  0  0
   -4.3529   -2.7265   -0.5208 H   0  0  0  0  0  0  0  0  0  0  0  0
   -5.6388   -2.3034    1.2547 H   0  0  0  0  0  0  0  0  0  0  0  0
   -6.0172   -1.0889    2.4752 H   0  0  0  0  0  0  0  0  0  0  0  0
   -6.6813   -0.9180    0.7860 H   0  0  0  0  0  0  0  0  0  0  0  0
   -4.7890    2.8876    1.9256 H   0  0  0  0  0  0  0  0  0  0  0  0
   -6.9293    2.5769    2.7416 H   0  0  0  0  0  0  0  0  0  0  0  0
   -6.4307    0.9467    3.2761 H   0  0  0  0  0  0  0  0  0  0  0  0
   -7.1687    1.2039    1.6193 H   0  0  0  0  0  0  0  0  0  0  0  0
   -2.9140    3.2602    0.9788 H   0  0  0  0  0  0  0  0  0  0  0  0
   -1.1093    5.5044    0.7294 H   0  0  0  0  0  0  0  0  0  0  0  0
   -0.7672    5.8087   -1.0194 H   0  0  0  0  0  0  0  0  0  0  0  0
   -2.2956    5.0091   -0.5453 H   0  0  0  0  0  0  0  0  0  0  0  0
    1.3821    5.3401   -1.6306 H   0  0  0  0  0  0  0  0  0  0  0  0
    2.6056    4.0465   -1.6722 H   0  0  0  0  0  0  0  0  0  0  0  0
    2.9016    4.2551    0.8424 H   0  0  0  0  0  0  0  0  0  0  0  0
    1.6855    5.5823    0.8560 H   0  0  0  0  0  0  0  0  0  0  0  0
    3.9081    8.0864   -0.5409 H   0  0  0  0  0  0  0  0  0  0  0  0
    3.1474    2.0907   -0.5245 H   0  0  0  0  0  0  0  0  0  0  0  0
    1.8802   -4.0622   -0.4711 H   0  0  0  0  0  0  0  0  0  0  0  0
    5.3318   -2.6664    0.1939 H   0  0  0  0  0  0  0  0  0  0  0  0
    3.9813   -3.7944    0.4721 H   0  0  0  0  0  0  0  0  0  0  0  0
    4.5136   -3.4350   -1.2218 H   0  0  0  0  0  0  0  0  0  0  0  0
    5.8189   -0.5972   -0.5725 H   0  0  0  0  0  0  0  0  0  0  0  0
    5.0857    0.9556   -0.9933 H   0  0  0  0  0  0  0  0  0  0  0  0
    4.5205    1.3623    1.4546 H   0  0  0  0  0  0  0  0  0  0  0  0
    6.2739    1.2184    1.1180 H   0  0  0  0  0  0  0  0  0  0  0  0
    6.7337   -1.9041    2.9297 H   0  0  0  0  0  0  0  0  0  0  0  0
  2  3  1  0
  2  4  2  0
  4  5  1  0
  5  6  1  0
  5  7  2  0
  7  8  1  0
  8  9  1  0
  9 10  2  0
 10 11  1  0
 11 12  2  0
 12 13  1  0
 12 14  1  0
 14 15  2  0
 15 16  1  0
 14 17  1  0
 17 18  1  0
 17 19  2  0
 19 20  1  0
 20 21  2  0
 21 22  1  0
 21 23  1  0
 23 24  1  0
 24 25  1  0
 25 26  1  0
 26 27  1  0
 26 28  2  0
 23 29  2  0
 29 30  1  0
 29 31  1  0
 31 32  2  0
 32 33  1  0
 33 34  1  0
 34 35  2  0
 34 36  1  0
 36 37  1  0
 36 38  2  0
 38 39  1  0
 39 40  1  0
 40 41  1  0
 41 42  1  0
 41 43  2  0
  9  4  1  0
 18 11  1  0
 30 20  1  0
 38 32  1  0
 35  7  1  0
  2 44  1  0
  3 45  1  0
  3 46  1  0
  3 47  1  0
  6 48  1  0
  6 49  1  0
  6 50  1  0
 10 51  1  0
 13 52  1  0
 13 53  1  0
 13 54  1  0
 15 55  1  0
 16 56  1  0
 16 57  1  0
 16 58  1  0
 19 59  1  0
 22 60  1  0
 22 61  1  0
 22 62  1  0
 24 63  1  0
 24 64  1  0
 25 65  1  0
 25 66  1  0
 27 67  1  0
 31 68  1  0
 35 69  1  0
 37 70  1  0
 37 71  1  0
 37 72  1  0
 39 73  1  0
 39 74  1  0
 40 75  1  0
 40 76  1  0
 42 77  1  0
M  CHG  5   1   4   8  -1  18  -1  30  -1  33  -1
M  END
$$$$
