
     RDKit          3D

 32 33  0  0  0  0  0  0  0  0999 V2000
   -1.9461    0.1581   -1.5802 O   0  0  0  0  0  0  0  0  0  0  0  0
   -1.6555   -0.3804   -0.3146 C   0  0  0  0  0  0  0  0  0  0  0  0
   -0.3107   -1.1522   -0.3399 C   0  0  0  0  0  0  0  0  0  0  0  0
    0.8414   -0.3289   -0.8584 C   0  0  0  0  0  0  0  0  0  0  0  0
    1.0736    0.0062   -2.1833 C   0  0  0  0  0  0  0  0  0  0  0  0
    2.1852    0.7731   -2.2781 N   0  0  0  0  0  0  0  0  0  0  0  0
    2.6031    0.8833   -1.0006 C   0  0  0  0  0  0  0  0  0  0  0  0
    3.7258    1.5897   -0.5735 C   0  0  0  0  0  0  0  0  0  0  0  0
    4.0102    1.5956    0.8007 C   0  0  0  0  0  0  0  0  0  0  0  0
    3.1791    0.9034    1.7010 C   0  0  0  0  0  0  0  0  0  0  0  0
    2.0626    0.2076    1.2159 C   0  0  0  0  0  0  0  0  0  0  0  0
    1.8195    0.2310   -0.1227 N   0  0  0  0  0  0  0  0  0  0  0  0
   -1.5951    1.0005    0.8897 P   0  0  0  0  0  5  0  0  0  0  0  0
   -3.1171    1.7343    0.9972 O   0  0  0  0  0  0  0  0  0  0  0  0
   -1.1410    0.4194    2.4138 O   0  0  0  0  0  0  0  0  0  0  0  0
   -0.5939    2.0368    0.4316 O   0  0  0  0  0  0  0  0  0  0  0  0
   -3.0024   -1.5279    0.1777 P   0  0  0  0  0  5  0  0  0  0  0  0
   -2.9842   -2.9020   -0.8125 O   0  0  0  0  0  0  0  0  0  0  0  0
   -2.7977   -2.0082    1.7878 O   0  0  0  0  0  0  0  0  0  0  0  0
   -4.3393   -0.8353    0.0370 O   0  0  0  0  0  0  0  0  0  0  0  0
   -1.9817   -0.5930   -2.2282 H   0  0  0  0  0  0  0  0  0  0  0  0
   -0.0775   -1.5430    0.6714 H   0  0  0  0  0  0  0  0  0  0  0  0
   -0.4092   -2.0407   -1.0004 H   0  0  0  0  0  0  0  0  0  0  0  0
    0.4697   -0.2891   -3.0307 H   0  0  0  0  0  0  0  0  0  0  0  0
    4.3581    2.1169   -1.2763 H   0  0  0  0  0  0  0  0  0  0  0  0
    4.8735    2.1340    1.1696 H   0  0  0  0  0  0  0  0  0  0  0  0
    3.4004    0.9073    2.7603 H   0  0  0  0  0  0  0  0  0  0  0  0
    1.4199   -0.3294    1.8992 H   0  0  0  0  0  0  0  0  0  0  0  0
   -3.5790    1.2590    1.7330 H   0  0  0  0  0  0  0  0  0  0  0  0
   -1.1257    1.2203    2.9960 H   0  0  0  0  0  0  0  0  0  0  0  0
   -3.3173   -2.5909   -1.6916 H   0  0  0  0  0  0  0  0  0  0  0  0
   -2.0488   -2.6556    1.7668 H   0  0  0  0  0  0  0  0  0  0  0  0
  1  2  1  0
  2  3  1  0
  3  4  1  0
  4  5  2  0
  5  6  1  0
  6  7  2  0
  7  8  1  0
  8  9  2  0
  9 10  1  0
 10 11  2  0
 11 12  1  0
  2 13  1  0
 13 14  1  0
 13 15  1  0
 13 16  2  0
  2 17  1  0
 17 18  1  0
 17 19  1  0
 17 20  2  0
 12  4  1  0
 12  7  1  0
  1 21  1  0
  3 22  1  0
  3 23  1  0
  5 24  1  0
  8 25  1  0
  9 26  1  0
 10 27  1  0
 11 28  1  0
 14 29  1  0
 15 30  1  0
 18 31  1  0
 19 32  1  0
M  END
$$$$
