
     RDKit          3D

 36 37  0  0  0  0  0  0  0  0999 V2000
    4.4967    0.4239   -0.1228 C   0  0  0  0  0  0  0  0  0  0  0  0
    3.4232   -0.6548    0.0645 C   0  0  0  0  0  0  0  0  0  0  0  0
    3.3117   -1.5415   -1.1466 C   0  0  0  0  0  0  0  0  0  0  0  0
    3.4347   -1.0095   -2.4278 O   0  0  0  0  0  0  0  0  0  0  0  0
    3.0603   -2.7680   -1.0022 O   0  0  0  0  0  0  0  0  0  0  0  0
    2.0800   -0.0382    0.3992 C   0  0  0  0  0  0  0  0  0  0  0  0
    1.4901   -0.2736    1.6526 C   0  0  0  0  0  0  0  0  0  0  0  0
    0.2520    0.2903    1.9715 C   0  0  0  0  0  0  0  0  0  0  0  0
   -0.4260    1.0945    1.0414 C   0  0  0  0  0  0  0  0  0  0  0  0
   -1.7743    1.6931    1.3833 C   0  0  0  0  0  0  0  0  0  0  0  0
   -2.9863    0.9006    0.8355 C   0  0  0  0  0  0  0  0  0  0  0  0
   -3.0955   -0.5335    1.3771 C   0  0  0  0  0  0  0  0  0  0  0  0
   -3.4828   -1.4285    0.1931 C   0  0  0  0  0  0  0  0  0  0  0  0
   -3.0952   -0.6833   -1.0802 C   0  0  0  0  0  0  0  0  0  0  0  0
   -2.9603    0.7245   -0.6422 C   0  0  0  0  0  0  0  0  0  0  0  0
   -2.8934    1.6580   -1.4271 O   0  0  0  0  0  0  0  0  0  0  0  0
    0.1715    1.3487   -0.2031 C   0  0  0  0  0  0  0  0  0  0  0  0
    1.4093    0.7855   -0.5235 C   0  0  0  0  0  0  0  0  0  0  0  0
    4.2493    1.0986   -0.9698 H   0  0  0  0  0  0  0  0  0  0  0  0
    4.5860    1.0332    0.8020 H   0  0  0  0  0  0  0  0  0  0  0  0
    5.4812   -0.0508   -0.3227 H   0  0  0  0  0  0  0  0  0  0  0  0
    3.7609   -1.2921    0.9128 H   0  0  0  0  0  0  0  0  0  0  0  0
    3.3414   -1.5987   -3.2464 H   0  0  0  0  0  0  0  0  0  0  0  0
    1.9874   -0.8949    2.3870 H   0  0  0  0  0  0  0  0  0  0  0  0
   -0.1802    0.0953    2.9452 H   0  0  0  0  0  0  0  0  0  0  0  0
   -1.8783    1.7800    2.4870 H   0  0  0  0  0  0  0  0  0  0  0  0
   -1.8183    2.7323    0.9896 H   0  0  0  0  0  0  0  0  0  0  0  0
   -3.9149    1.4552    1.0959 H   0  0  0  0  0  0  0  0  0  0  0  0
   -2.1351   -0.8965    1.7936 H   0  0  0  0  0  0  0  0  0  0  0  0
   -3.8606   -0.5937    2.1816 H   0  0  0  0  0  0  0  0  0  0  0  0
   -2.9721   -2.4143    0.2496 H   0  0  0  0  0  0  0  0  0  0  0  0
   -4.5828   -1.5944    0.2032 H   0  0  0  0  0  0  0  0  0  0  0  0
   -3.8862   -0.7847   -1.8544 H   0  0  0  0  0  0  0  0  0  0  0  0
   -2.1209   -1.0458   -1.4729 H   0  0  0  0  0  0  0  0  0  0  0  0
   -0.3167    1.9886   -0.9261 H   0  0  0  0  0  0  0  0  0  0  0  0
    1.8440    0.9945   -1.4923 H   0  0  0  0  0  0  0  0  0  0  0  0
  1  2  1  0
  2  3  1  0
  3  4  1  0
  3  5  2  0
  2  6  1  0
  6  7  2  0
  7  8  1  0
  8  9  2  0
  9 10  1  0
 10 11  1  0
 11 12  1  0
 12 13  1  0
 13 14  1  0
 14 15  1  0
 15 16  2  0
  9 17  1  0
 17 18  2  0
 18  6  1  0
 15 11  1  0
  1 19  1  0
  1 20  1  0
  1 21  1  0
  2 22  1  0
  4 23  1  0
  7 24  1  0
  8 25  1  0
 10 26  1  0
 10 27  1  0
 11 28  1  0
 12 29  1  0
 12 30  1  0
 13 31  1  0
 13 32  1  0
 14 33  1  0
 14 34  1  0
 17 35  1  0
 18 36  1  0
M  END
$$$$
