
     RDKit          3D

 42 44  0  0  0  0  0  0  0  0999 V2000
   -1.6719   -0.6541    2.0199 C   0  0  1  0  0  0  0  0  0  0  0  0
   -2.0252    0.9745    1.2533 S   0  0  0  0  0  0  0  0  0  0  0  0
   -2.1311    0.2779   -0.4646 C   0  0  0  0  0  0  0  0  0  0  0  0
   -0.8200    0.6324   -1.1868 C   0  0  0  0  0  0  0  0  0  0  0  0
   -3.3022    0.9454   -1.2107 C   0  0  0  0  0  0  0  0  0  0  0  0
   -2.2566   -1.2738   -0.3529 C   0  0  1  0  0  0  0  0  0  0  0  0
   -1.6614   -1.5741    0.9230 N   0  0  0  0  0  0  0  0  0  0  0  0
   -0.3031   -2.0024    1.3298 C   0  0  0  0  0  0  0  0  0  0  0  0
    0.5398   -2.8239    0.8839 O   0  0  0  0  0  0  0  0  0  0  0  0
   -0.3267   -1.0000    2.4429 C   0  0  1  0  0  0  0  0  0  0  0  0
    0.7001    0.0348    2.2688 N   0  0  0  0  0  0  0  0  0  0  0  0
    2.0964   -0.2698    2.3999 C   0  0  0  0  0  0  0  0  0  0  0  0
    2.4661   -1.4296    2.7284 O   0  0  0  0  0  0  0  0  0  0  0  0
    3.1311    0.7980    2.1975 C   0  0  0  0  0  0  0  0  0  0  0  0
    2.7765    1.6643    1.1193 O   0  0  0  0  0  0  0  0  0  0  0  0
    2.7335    1.2984   -0.2357 C   0  0  0  0  0  0  0  0  0  0  0  0
    2.3229    2.2600   -1.1682 C   0  0  0  0  0  0  0  0  0  0  0  0
    2.2413    1.9414   -2.5271 C   0  0  0  0  0  0  0  0  0  0  0  0
    2.5726    0.6573   -2.9657 C   0  0  0  0  0  0  0  0  0  0  0  0
    2.9923   -0.3075   -2.0466 C   0  0  0  0  0  0  0  0  0  0  0  0
    3.0782    0.0081   -0.6869 C   0  0  0  0  0  0  0  0  0  0  0  0
   -3.6730   -1.7859   -0.3695 C   0  0  0  0  0  0  0  0  0  0  0  0
   -4.1672   -2.4033   -1.5141 O   0  0  0  0  0  0  0  0  0  0  0  0
   -4.4242   -1.6283    0.6312 O   0  0  0  0  0  0  0  0  0  0  0  0
   -2.4458   -0.9402    2.7660 H   0  0  0  0  0  0  0  0  0  0  0  0
   -0.6656    1.7327   -1.1995 H   0  0  0  0  0  0  0  0  0  0  0  0
    0.0457    0.1674   -0.6704 H   0  0  0  0  0  0  0  0  0  0  0  0
   -0.8383    0.2677   -2.2364 H   0  0  0  0  0  0  0  0  0  0  0  0
   -3.1182    2.0350   -1.3281 H   0  0  0  0  0  0  0  0  0  0  0  0
   -3.4252    0.4968   -2.2199 H   0  0  0  0  0  0  0  0  0  0  0  0
   -4.2505    0.8276   -0.6453 H   0  0  0  0  0  0  0  0  0  0  0  0
   -1.6880   -1.7908   -1.1577 H   0  0  0  0  0  0  0  0  0  0  0  0
   -0.2826   -1.4810    3.4444 H   0  0  0  0  0  0  0  0  0  0  0  0
    0.4372    1.0397    2.1735 H   0  0  0  0  0  0  0  0  0  0  0  0
    3.1977    1.3999    3.1272 H   0  0  0  0  0  0  0  0  0  0  0  0
    4.1313    0.3506    2.0105 H   0  0  0  0  0  0  0  0  0  0  0  0
    2.0554    3.2549   -0.8358 H   0  0  0  0  0  0  0  0  0  0  0  0
    1.9157    2.6887   -3.2390 H   0  0  0  0  0  0  0  0  0  0  0  0
    2.5053    0.4103   -4.0172 H   0  0  0  0  0  0  0  0  0  0  0  0
    3.2512   -1.3015   -2.3879 H   0  0  0  0  0  0  0  0  0  0  0  0
    3.4078   -0.7575    0.0008 H   0  0  0  0  0  0  0  0  0  0  0  0
   -5.1216   -2.7404   -1.5516 H   0  0  0  0  0  0  0  0  0  0  0  0
  1  2  1  0
  2  3  1  0
  3  4  1  0
  3  5  1  0
  3  6  1  0
  6  7  1  0
  7  8  1  0
  8  9  2  0
  8 10  1  0
 10 11  1  0
 11 12  1  0
 12 13  2  0
 12 14  1  0
 14 15  1  0
 15 16  1  0
 16 17  2  0
 17 18  1  0
 18 19  2  0
 19 20  1  0
 20 21  2  0
  6 22  1  0
 22 23  1  0
 22 24  2  0
  7  1  1  0
 21 16  1  0
 10  1  1  0
  1 25  1  1
  4 26  1  0
  4 27  1  0
  4 28  1  0
  5 29  1  0
  5 30  1  0
  5 31  1  0
  6 32  1  6
 10 33  1  1
 11 34  1  0
 14 35  1  0
 14 36  1  0
 17 37  1  0
 18 38  1  0
 19 39  1  0
 20 40  1  0
 21 41  1  0
 23 42  1  0
M  END
$$$$
