
     RDKit          3D

 29 30  0  0  0  0  0  0  0  0999 V2000
    4.9138    1.0953   -0.8946 N   0  0  0  0  0  0  0  0  0  0  0  0
    3.6079    0.6162   -0.5730 C   0  0  0  0  0  0  0  0  0  0  0  0
    2.5188    1.1846   -1.1478 N   0  0  0  0  0  0  0  0  0  0  0  0
    1.2606    0.7552   -0.8674 C   0  0  0  0  0  0  0  0  0  0  0  0
    0.2863    1.3342   -1.4181 O   0  0  0  0  0  0  0  0  0  0  0  0
    1.0629   -0.2871    0.0088 N   0  0  0  0  0  0  0  0  0  0  0  0
    2.1457   -0.8623    0.6170 C   0  0  0  0  0  0  0  0  0  0  0  0
    3.4382   -0.4269    0.3338 C   0  0  0  0  0  0  0  0  0  0  0  0
   -0.2856   -0.7796    0.3653 C   0  0  2  0  0  0  0  0  0  0  0  0
   -1.1494   -0.7680   -0.7479 O   0  0  0  0  0  0  0  0  0  0  0  0
   -2.4534   -0.4998   -0.2694 C   0  0  2  0  0  0  0  0  0  0  0  0
   -3.0688    0.6509   -1.0781 C   0  0  0  0  0  0  0  0  0  0  0  0
   -3.1569    0.3046   -2.4341 O   0  0  0  0  0  0  0  0  0  0  0  0
   -2.3903   -0.1612    1.2306 C   0  0  1  0  0  0  0  0  0  0  0  0
   -2.8517   -1.2474    1.9935 O   0  0  0  0  0  0  0  0  0  0  0  0
   -0.9182    0.0507    1.4705 C   0  0  0  0  0  0  0  0  0  0  0  0
   -0.6079    1.3951    1.3344 F   0  0  0  0  0  0  0  0  0  0  0  0
   -0.5206   -0.3904    2.7230 F   0  0  0  0  0  0  0  0  0  0  0  0
    5.7637    0.6716   -0.4598 H   0  0  0  0  0  0  0  0  0  0  0  0
    5.0336    1.8799   -1.5731 H   0  0  0  0  0  0  0  0  0  0  0  0
    2.0162   -1.6678    1.3304 H   0  0  0  0  0  0  0  0  0  0  0  0
    4.2894   -0.8925    0.8146 H   0  0  0  0  0  0  0  0  0  0  0  0
   -0.2201   -1.8387    0.7103 H   0  0  0  0  0  0  0  0  0  0  0  0
   -3.0807   -1.4051   -0.4307 H   0  0  0  0  0  0  0  0  0  0  0  0
   -4.0953    0.8531   -0.7042 H   0  0  0  0  0  0  0  0  0  0  0  0
   -2.4709    1.5824   -0.9496 H   0  0  0  0  0  0  0  0  0  0  0  0
   -2.2616    0.4689   -2.8303 H   0  0  0  0  0  0  0  0  0  0  0  0
   -2.9622    0.7590    1.4987 H   0  0  0  0  0  0  0  0  0  0  0  0
   -3.8432   -1.2229    1.9472 H   0  0  0  0  0  0  0  0  0  0  0  0
  1  2  1  0
  2  3  2  0
  3  4  1  0
  4  5  2  0
  4  6  1  0
  6  7  1  0
  7  8  2  0
  6  9  1  0
  9 10  1  0
 10 11  1  0
 11 12  1  0
 12 13  1  0
 11 14  1  0
 14 15  1  0
 14 16  1  0
 16 17  1  0
 16 18  1  0
  8  2  1  0
 16  9  1  0
  1 19  1  0
  1 20  1  0
  7 21  1  0
  8 22  1  0
  9 23  1  1
 11 24  1  1
 12 25  1  0
 12 26  1  0
 13 27  1  0
 14 28  1  6
 15 29  1  0
M  END
$$$$
