
     RDKit          3D

 14 13  0  0  0  0  0  0  0  0999 V2000
   -0.5018   -1.1682   -0.7714 N   0  0  0  0  0  0  0  0  0  0  0  0
   -0.1207   -0.4502    0.4459 C   0  0  1  0  0  0  0  0  0  0  0  0
    1.3447    0.0093    0.3724 C   0  0  0  0  0  0  0  0  0  0  0  0
    1.7003    1.1705   -1.1616 Se  0  0  0  0  0  2  0  0  0  0  0  0
   -1.0350    0.7227    0.6718 C   0  0  0  0  0  0  0  0  0  0  0  0
   -1.5784    1.4098   -0.4105 O   0  0  0  0  0  0  0  0  0  0  0  0
   -1.2798    1.1100    1.8458 O   0  0  0  0  0  0  0  0  0  0  0  0
    0.1074   -2.0142   -0.8589 H   0  0  0  0  0  0  0  0  0  0  0  0
   -1.4771   -1.5272   -0.6493 H   0  0  0  0  0  0  0  0  0  0  0  0
   -0.2190   -1.1417    1.3141 H   0  0  0  0  0  0  0  0  0  0  0  0
    1.6108    0.5598    1.3003 H   0  0  0  0  0  0  0  0  0  0  0  0
    2.0111   -0.8769    0.3051 H   0  0  0  0  0  0  0  0  0  0  0  0
    1.6193   -0.0147   -2.1361 H   0  0  0  0  0  0  0  0  0  0  0  0
   -2.1817    2.2109   -0.2676 H   0  0  0  0  0  0  0  0  0  0  0  0
  1  2  1  0
  2  3  1  0
  3  4  1  0
  2  5  1  0
  5  6  1  0
  5  7  2  0
  1  8  1  0
  1  9  1  0
  2 10  1  1
  3 11  1  0
  3 12  1  0
  4 13  1  0
  6 14  1  0
M  END
$$$$
