
     RDKit          3D

 78 79  0  0  0  0  0  0  0  0999 V2000
    8.7452   -4.5402   -2.3798 C   0  0  0  0  0  0  0  0  0  0  0  0
    8.1893   -3.6204   -1.2967 C   0  0  0  0  0  0  0  0  0  0  0  0
    7.1033   -2.6959   -1.8589 C   0  0  0  0  0  0  0  0  0  0  0  0
    6.5461   -1.7738   -0.7677 C   0  0  0  0  0  0  0  0  0  0  0  0
    5.4664   -0.8405   -1.3355 C   0  0  0  0  0  0  0  0  0  0  0  0
    4.7854    0.0076   -0.2499 C   0  0  0  0  0  0  0  0  0  0  0  0
    5.7090    1.0998    0.3138 C   0  0  0  0  0  0  0  0  0  0  0  0
    4.9706    2.0031    1.3088 C   0  0  0  0  0  0  0  0  0  0  0  0
    3.8820    2.6828    0.6823 O   0  0  0  0  0  0  0  0  0  0  0  0
    3.9874    3.7508   -0.2267 C   0  0  0  0  0  0  0  0  0  0  0  0
    5.2160    4.3949   -0.4808 C   0  0  0  0  0  0  0  0  0  0  0  0
    5.2966    5.4198   -1.4256 C   0  0  0  0  0  0  0  0  0  0  0  0
    4.1598    5.8148   -2.1291 C   0  0  0  0  0  0  0  0  0  0  0  0
    2.9343    5.1949   -1.8817 C   0  0  0  0  0  0  0  0  0  0  0  0
    2.8313    4.1765   -0.9191 C   0  0  0  0  0  0  0  0  0  0  0  0
    1.5160    3.5415   -0.6859 C   0  0  0  0  0  0  0  0  0  0  0  0
    0.8010    3.2383   -1.6793 O   0  0  0  0  0  0  0  0  0  0  0  0
    1.0566    3.2727    0.6511 N   0  0  0  0  0  0  0  0  0  0  0  0
   -0.1676    2.5854    0.9569 C   0  0  0  0  0  0  0  0  0  0  0  0
   -0.1924    1.6685    2.0163 C   0  0  0  0  0  0  0  0  0  0  0  0
   -1.3739    1.0003    2.3496 C   0  0  0  0  0  0  0  0  0  0  0  0
   -2.5598    1.2517    1.6372 C   0  0  0  0  0  0  0  0  0  0  0  0
   -2.5394    2.1907    0.5919 C   0  0  0  0  0  0  0  0  0  0  0  0
   -1.3562    2.8570    0.2591 C   0  0  0  0  0  0  0  0  0  0  0  0
   -3.8134    0.5467    1.9835 C   0  0  0  0  0  0  0  0  0  0  0  0
   -3.8273   -0.2941    2.9249 O   0  0  0  0  0  0  0  0  0  0  0  0
   -4.9862    0.8196    1.2673 O   0  0  0  0  0  0  0  0  0  0  0  0
   -6.2209    0.1393    1.4869 C   0  0  0  0  0  0  0  0  0  0  0  0
   -6.1688   -1.2710    0.8531 C   0  0  0  0  0  0  0  0  0  0  0  0
   -7.4415   -2.0668    0.9258 N   0  0  0  0  0  4  0  0  0  0  0  0
   -7.9086   -2.1238    2.3389 C   0  0  0  0  0  0  0  0  0  0  0  0
   -7.1479   -3.4775    0.5023 C   0  0  0  0  0  0  0  0  0  0  0  0
   -6.6518   -3.6429   -0.9461 C   0  0  0  0  0  0  0  0  0  0  0  0
   -8.4927   -1.4222    0.0691 C   0  0  0  0  0  0  0  0  0  0  0  0
   -9.7859   -2.2372   -0.1138 C   0  0  0  0  0  0  0  0  0  0  0  0
    9.5280   -5.1964   -1.9444 H   0  0  0  0  0  0  0  0  0  0  0  0
    9.1984   -3.9421   -3.1988 H   0  0  0  0  0  0  0  0  0  0  0  0
    7.9371   -5.1792   -2.7956 H   0  0  0  0  0  0  0  0  0  0  0  0
    9.0215   -3.0117   -0.8804 H   0  0  0  0  0  0  0  0  0  0  0  0
    7.7652   -4.2432   -0.4790 H   0  0  0  0  0  0  0  0  0  0  0  0
    6.2773   -3.3123   -2.2777 H   0  0  0  0  0  0  0  0  0  0  0  0
    7.5337   -2.0780   -2.6778 H   0  0  0  0  0  0  0  0  0  0  0  0
    7.3795   -1.1706   -0.3488 H   0  0  0  0  0  0  0  0  0  0  0  0
    6.1097   -2.3925    0.0472 H   0  0  0  0  0  0  0  0  0  0  0  0
    5.9086   -0.1762   -2.1101 H   0  0  0  0  0  0  0  0  0  0  0  0
    4.6830   -1.4570   -1.8288 H   0  0  0  0  0  0  0  0  0  0  0  0
    3.8929    0.4883   -0.7069 H   0  0  0  0  0  0  0  0  0  0  0  0
    4.4284   -0.6492    0.5735 H   0  0  0  0  0  0  0  0  0  0  0  0
    6.5629    0.6311    0.8464 H   0  0  0  0  0  0  0  0  0  0  0  0
    6.1171    1.7121   -0.5178 H   0  0  0  0  0  0  0  0  0  0  0  0
    5.6693    2.7293    1.7748 H   0  0  0  0  0  0  0  0  0  0  0  0
    4.5648    1.3763    2.1312 H   0  0  0  0  0  0  0  0  0  0  0  0
    6.1190    4.1094    0.0388 H   0  0  0  0  0  0  0  0  0  0  0  0
    6.2451    5.9050   -1.6171 H   0  0  0  0  0  0  0  0  0  0  0  0
    4.2273    6.6053   -2.8655 H   0  0  0  0  0  0  0  0  0  0  0  0
    2.0599    5.5205   -2.4322 H   0  0  0  0  0  0  0  0  0  0  0  0
    1.6794    3.5188    1.4528 H   0  0  0  0  0  0  0  0  0  0  0  0
    0.7111    1.4626    2.5769 H   0  0  0  0  0  0  0  0  0  0  0  0
   -1.3581    0.2887    3.1656 H   0  0  0  0  0  0  0  0  0  0  0  0
   -3.4396    2.4187    0.0351 H   0  0  0  0  0  0  0  0  0  0  0  0
   -1.3805    3.6029   -0.5238 H   0  0  0  0  0  0  0  0  0  0  0  0
   -7.0179    0.7452    1.0144 H   0  0  0  0  0  0  0  0  0  0  0  0
   -6.4205    0.0919    2.5780 H   0  0  0  0  0  0  0  0  0  0  0  0
   -5.3413   -1.8293    1.3464 H   0  0  0  0  0  0  0  0  0  0  0  0
   -5.8632   -1.1281   -0.2065 H   0  0  0  0  0  0  0  0  0  0  0  0
   -8.6954   -2.8955    2.4847 H   0  0  0  0  0  0  0  0  0  0  0  0
   -7.0723   -2.3830    3.0268 H   0  0  0  0  0  0  0  0  0  0  0  0
   -8.3447   -1.1564    2.6705 H   0  0  0  0  0  0  0  0  0  0  0  0
   -6.3734   -3.9228    1.1685 H   0  0  0  0  0  0  0  0  0  0  0  0
   -8.0420   -4.1265    0.6313 H   0  0  0  0  0  0  0  0  0  0  0  0
   -7.3636   -3.2181   -1.6807 H   0  0  0  0  0  0  0  0  0  0  0  0
   -6.5521   -4.7262   -1.1688 H   0  0  0  0  0  0  0  0  0  0  0  0
   -5.6502   -3.1882   -1.0849 H   0  0  0  0  0  0  0  0  0  0  0  0
   -8.0900   -1.1861   -0.9403 H   0  0  0  0  0  0  0  0  0  0  0  0
   -8.8025   -0.4473    0.5029 H   0  0  0  0  0  0  0  0  0  0  0  0
   -9.6095   -3.1524   -0.7141 H   0  0  0  0  0  0  0  0  0  0  0  0
  -10.5245   -1.6207   -0.6685 H   0  0  0  0  0  0  0  0  0  0  0  0
  -10.2400   -2.5066    0.8605 H   0  0  0  0  0  0  0  0  0  0  0  0
  1  2  1  0
  2  3  1  0
  3  4  1  0
  4  5  1  0
  5  6  1  0
  6  7  1  0
  7  8  1  0
  8  9  1  0
  9 10  1  0
 10 11  2  0
 11 12  1  0
 12 13  2  0
 13 14  1  0
 14 15  2  0
 15 16  1  0
 16 17  2  0
 16 18  1  0
 18 19  1  0
 19 20  2  0
 20 21  1  0
 21 22  2  0
 22 23  1  0
 23 24  2  0
 22 25  1  0
 25 26  2  0
 25 27  1  0
 27 28  1  0
 28 29  1  0
 29 30  1  0
 30 31  1  0
 30 32  1  0
 32 33  1  0
 30 34  1  0
 34 35  1  0
 15 10  1  0
 24 19  1  0
  1 36  1  0
  1 37  1  0
  1 38  1  0
  2 39  1  0
  2 40  1  0
  3 41  1  0
  3 42  1  0
  4 43  1  0
  4 44  1  0
  5 45  1  0
  5 46  1  0
  6 47  1  0
  6 48  1  0
  7 49  1  0
  7 50  1  0
  8 51  1  0
  8 52  1  0
 11 53  1  0
 12 54  1  0
 13 55  1  0
 14 56  1  0
 18 57  1  0
 20 58  1  0
 21 59  1  0
 23 60  1  0
 24 61  1  0
 28 62  1  0
 28 63  1  0
 29 64  1  0
 29 65  1  0
 31 66  1  0
 31 67  1  0
 31 68  1  0
 32 69  1  0
 32 70  1  0
 33 71  1  0
 33 72  1  0
 33 73  1  0
 34 74  1  0
 34 75  1  0
 35 76  1  0
 35 77  1  0
 35 78  1  0
M  CHG  1  30   1
M  END
$$$$
