
     RDKit          3D

 54 56  0  0  0  0  0  0  0  0999 V2000
   -2.5785   -0.4769   -0.9766 C   0  0  2  0  0  0  0  0  0  0  0  0
   -3.3670   -0.0326   -2.2445 C   0  0  0  0  0  0  0  0  0  0  0  0
   -3.6370   -1.1234   -3.0854 O   0  0  0  0  0  0  0  0  0  0  0  0
   -3.4301   -1.2536    0.0799 C   0  0  0  0  0  0  0  0  0  0  0  0
   -4.5579   -0.4207    0.7102 C   0  0  0  0  0  0  0  0  0  0  0  0
   -3.9899   -2.5716   -0.4741 C   0  0  0  0  0  0  0  0  0  0  0  0
   -1.8324    0.6462   -0.3306 N   0  0  0  0  0  0  0  0  0  0  0  0
   -2.4101    1.8929   -0.3082 C   0  0  0  0  0  0  0  0  0  0  0  0
   -1.7474    3.0182    0.1993 C   0  0  0  0  0  0  0  0  0  0  0  0
   -2.4217    4.3467    0.1657 C   0  0  0  0  0  0  0  0  0  0  0  0
   -1.8108    5.4734    0.7104 O   0  0  0  0  0  0  0  0  0  0  0  0
   -3.5628    4.4677   -0.3575 O   0  0  0  0  0  0  0  0  0  0  0  0
   -0.4580    2.8550    0.7243 C   0  0  0  0  0  0  0  0  0  0  0  0
    0.1797    3.8538    1.1602 O   0  0  0  0  0  0  0  0  0  0  0  0
    0.1204    1.5757    0.7782 C   0  0  0  0  0  0  0  0  0  0  0  0
   -0.5957    0.4585    0.2722 C   0  0  0  0  0  0  0  0  0  0  0  0
   -0.0106   -0.8253    0.4254 C   0  0  0  0  0  0  0  0  0  0  0  0
    1.2628   -0.9943    0.9991 C   0  0  0  0  0  0  0  0  0  0  0  0
    1.8489   -2.2645    1.1387 O   0  0  0  0  0  0  0  0  0  0  0  0
    1.2643   -3.4871    0.7019 C   0  0  0  0  0  0  0  0  0  0  0  0
    1.9729    0.1283    1.4511 C   0  0  0  0  0  0  0  0  0  0  0  0
    3.3624   -0.0144    2.0281 C   0  0  0  0  0  0  0  0  0  0  0  0
    4.3877   -0.1154    0.9267 C   0  0  0  0  0  0  0  0  0  0  0  0
    4.8411    1.0390    0.2591 C   0  0  0  0  0  0  0  0  0  0  0  0
    4.3864    2.2651    0.6236 F   0  0  0  0  0  0  0  0  0  0  0  0
    5.7698    0.9292   -0.7851 C   0  0  0  0  0  0  0  0  0  0  0  0
    6.3387    2.3647   -1.6205 Cl  0  0  0  0  0  0  0  0  0  0  0  0
    6.2469   -0.3281   -1.1681 C   0  0  0  0  0  0  0  0  0  0  0  0
    5.8003   -1.4763   -0.5109 C   0  0  0  0  0  0  0  0  0  0  0  0
    4.8746   -1.3731    0.5304 C   0  0  0  0  0  0  0  0  0  0  0  0
    1.3972    1.3983    1.3433 C   0  0  0  0  0  0  0  0  0  0  0  0
   -1.8383   -1.1838   -1.4023 H   0  0  0  0  0  0  0  0  0  0  0  0
   -2.7748    0.7257   -2.8073 H   0  0  0  0  0  0  0  0  0  0  0  0
   -4.3317    0.4417   -1.9799 H   0  0  0  0  0  0  0  0  0  0  0  0
   -2.7973   -1.3241   -3.5758 H   0  0  0  0  0  0  0  0  0  0  0  0
   -2.7491   -1.5326    0.9128 H   0  0  0  0  0  0  0  0  0  0  0  0
   -5.0683   -1.0159    1.4974 H   0  0  0  0  0  0  0  0  0  0  0  0
   -5.3191   -0.1275   -0.0406 H   0  0  0  0  0  0  0  0  0  0  0  0
   -4.1514    0.4868    1.2004 H   0  0  0  0  0  0  0  0  0  0  0  0
   -3.1861   -3.1596   -0.9660 H   0  0  0  0  0  0  0  0  0  0  0  0
   -4.8060   -2.3836   -1.2026 H   0  0  0  0  0  0  0  0  0  0  0  0
   -4.4031   -3.1851    0.3550 H   0  0  0  0  0  0  0  0  0  0  0  0
   -3.4106    2.0318   -0.6922 H   0  0  0  0  0  0  0  0  0  0  0  0
   -2.2693    6.3766    0.6887 H   0  0  0  0  0  0  0  0  0  0  0  0
   -0.5384   -1.7151    0.1361 H   0  0  0  0  0  0  0  0  0  0  0  0
    1.9621   -4.3204    0.9231 H   0  0  0  0  0  0  0  0  0  0  0  0
    1.0859   -3.4555   -0.3938 H   0  0  0  0  0  0  0  0  0  0  0  0
    0.3115   -3.6700    1.2422 H   0  0  0  0  0  0  0  0  0  0  0  0
    3.4081   -0.9085    2.6877 H   0  0  0  0  0  0  0  0  0  0  0  0
    3.6053    0.8503    2.6839 H   0  0  0  0  0  0  0  0  0  0  0  0
    6.9637   -0.4165   -1.9745 H   0  0  0  0  0  0  0  0  0  0  0  0
    6.1711   -2.4483   -0.8096 H   0  0  0  0  0  0  0  0  0  0  0  0
    4.5405   -2.2746    1.0280 H   0  0  0  0  0  0  0  0  0  0  0  0
    1.9510    2.2528    1.7138 H   0  0  0  0  0  0  0  0  0  0  0  0
  1  2  1  0
  2  3  1  0
  1  4  1  0
  4  5  1  0
  4  6  1  0
  1  7  1  0
  7  8  1  0
  8  9  2  0
  9 10  1  0
 10 11  1  0
 10 12  2  0
  9 13  1  0
 13 14  2  0
 13 15  1  0
 15 16  2  0
 16 17  1  0
 17 18  2  0
 18 19  1  0
 19 20  1  0
 18 21  1  0
 21 22  1  0
 22 23  1  0
 23 24  2  0
 24 25  1  0
 24 26  1  0
 26 27  1  0
 26 28  2  0
 28 29  1  0
 29 30  2  0
 21 31  2  0
 16  7  1  0
 30 23  1  0
 31 15  1  0
  1 32  1  6
  2 33  1  0
  2 34  1  0
  3 35  1  0
  4 36  1  0
  5 37  1  0
  5 38  1  0
  5 39  1  0
  6 40  1  0
  6 41  1  0
  6 42  1  0
  8 43  1  0
 11 44  1  0
 17 45  1  0
 20 46  1  0
 20 47  1  0
 20 48  1  0
 22 49  1  0
 22 50  1  0
 28 51  1  0
 29 52  1  0
 30 53  1  0
 31 54  1  0
M  END
$$$$
