
     RDKit          3D

 47 48  0  0  0  0  0  0  0  0999 V2000
    0.5177   -0.1389   -0.5206 C   0  0  2  0  0  0  0  0  0  0  0  0
    0.6097    0.8928   -1.6527 C   0  0  0  0  0  0  0  0  0  0  0  0
   -0.9518   -0.4769   -0.2152 C   0  0  0  0  0  0  0  0  0  0  0  0
   -1.5923    0.6512    0.4759 N   0  0  0  0  0  0  0  0  0  0  0  0
   -2.7914    1.2533   -0.0549 C   0  0  0  0  0  0  0  0  0  0  0  0
   -2.8462    2.5093   -0.1635 O   0  0  0  0  0  0  0  0  0  0  0  0
   -3.9997    0.4210   -0.4709 C   0  0  1  0  0  0  0  0  0  0  0  0
   -4.1294    0.4618   -2.0030 C   0  0  0  0  0  0  0  0  0  0  0  0
   -3.8367   -0.9245   -0.0858 O   0  0  0  0  0  0  0  0  0  0  0  0
   -5.2941    0.9776    0.1796 C   0  0  0  0  0  0  0  0  0  0  0  0
   -6.3641    0.1487   -0.1115 F   0  0  0  0  0  0  0  0  0  0  0  0
   -5.5812    2.2483   -0.2908 F   0  0  0  0  0  0  0  0  0  0  0  0
   -5.1512    1.0399    1.5555 F   0  0  0  0  0  0  0  0  0  0  0  0
   -0.9066    1.2927    1.6152 C   0  0  1  0  0  0  0  0  0  0  0  0
   -1.8042    1.2722    2.8577 C   0  0  0  0  0  0  0  0  0  0  0  0
    0.4394    0.6067    1.9237 C   0  0  0  0  0  0  0  0  0  0  0  0
    1.1952    0.3741    0.6863 N   0  0  0  0  0  0  0  0  0  0  0  0
    2.6165    0.5950    0.6841 C   0  0  0  0  0  0  0  0  0  0  0  0
    3.0644    1.7187    1.0402 O   0  0  0  0  0  0  0  0  0  0  0  0
    3.5599   -0.4694    0.2766 C   0  0  0  0  0  0  0  0  0  0  0  0
    3.2434   -1.8235    0.4829 C   0  0  0  0  0  0  0  0  0  0  0  0
    4.1433   -2.8256    0.1080 C   0  0  0  0  0  0  0  0  0  0  0  0
    5.3730   -2.4859   -0.4681 C   0  0  0  0  0  0  0  0  0  0  0  0
    5.7020   -1.1393   -0.6628 C   0  0  0  0  0  0  0  0  0  0  0  0
    4.8030   -0.1359   -0.2880 C   0  0  0  0  0  0  0  0  0  0  0  0
    6.2992   -3.5183   -0.8535 C   0  0  0  0  0  0  0  0  0  0  0  0
    7.0438   -4.3482   -1.1634 N   0  0  0  0  0  0  0  0  0  0  0  0
    1.0108   -1.0719   -0.8654 H   0  0  0  0  0  0  0  0  0  0  0  0
    0.1551    1.8572   -1.3404 H   0  0  0  0  0  0  0  0  0  0  0  0
    1.6723    1.0706   -1.9217 H   0  0  0  0  0  0  0  0  0  0  0  0
    0.0840    0.5215   -2.5581 H   0  0  0  0  0  0  0  0  0  0  0  0
   -0.9938   -1.3728    0.4414 H   0  0  0  0  0  0  0  0  0  0  0  0
   -1.4779   -0.7345   -1.1574 H   0  0  0  0  0  0  0  0  0  0  0  0
   -3.2200    0.0480   -2.4864 H   0  0  0  0  0  0  0  0  0  0  0  0
   -4.2684    1.5033   -2.3651 H   0  0  0  0  0  0  0  0  0  0  0  0
   -4.9979   -0.1462   -2.3350 H   0  0  0  0  0  0  0  0  0  0  0  0
   -3.7461   -0.9534    0.9031 H   0  0  0  0  0  0  0  0  0  0  0  0
   -0.6900    2.3523    1.3534 H   0  0  0  0  0  0  0  0  0  0  0  0
   -1.2712    1.7159    3.7256 H   0  0  0  0  0  0  0  0  0  0  0  0
   -2.7228    1.8690    2.6784 H   0  0  0  0  0  0  0  0  0  0  0  0
   -2.0975    0.2296    3.1057 H   0  0  0  0  0  0  0  0  0  0  0  0
    0.2665   -0.3732    2.4205 H   0  0  0  0  0  0  0  0  0  0  0  0
    1.0202    1.2428    2.6280 H   0  0  0  0  0  0  0  0  0  0  0  0
    2.3064   -2.1063    0.9467 H   0  0  0  0  0  0  0  0  0  0  0  0
    3.8823   -3.8642    0.2722 H   0  0  0  0  0  0  0  0  0  0  0  0
    6.6527   -0.8648   -1.1040 H   0  0  0  0  0  0  0  0  0  0  0  0
    5.0739    0.9002   -0.4499 H   0  0  0  0  0  0  0  0  0  0  0  0
  1  2  1  0
  1  3  1  0
  3  4  1  0
  4  5  1  0
  5  6  2  0
  5  7  1  0
  7  8  1  0
  7  9  1  1
  7 10  1  0
 10 11  1  0
 10 12  1  0
 10 13  1  0
  4 14  1  0
 14 15  1  0
 14 16  1  0
 16 17  1  0
 17 18  1  0
 18 19  2  0
 18 20  1  0
 20 21  2  0
 21 22  1  0
 22 23  2  0
 23 24  1  0
 24 25  2  0
 23 26  1  0
 26 27  3  0
 17  1  1  0
 25 20  1  0
  1 28  1  6
  2 29  1  0
  2 30  1  0
  2 31  1  0
  3 32  1  0
  3 33  1  0
  8 34  1  0
  8 35  1  0
  8 36  1  0
  9 37  1  0
 14 38  1  6
 15 39  1  0
 15 40  1  0
 15 41  1  0
 16 42  1  0
 16 43  1  0
 21 44  1  0
 22 45  1  0
 24 46  1  0
 25 47  1  0
M  END
$$$$
