
     RDKit          3D

 42 45  0  0  0  0  0  0  0  0999 V2000
    1.7365   -2.7903    0.1161 C   0  0  0  0  0  0  0  0  0  0  0  0
    1.4626   -1.4055    0.6621 C   0  0  0  0  0  0  0  0  0  0  0  0
    0.2629   -1.1724    1.3866 C   0  0  0  0  0  0  0  0  0  0  0  0
   -0.9183   -2.1242    1.3607 C   0  0  0  0  0  0  0  0  0  0  0  0
   -2.1546   -1.4025    1.0531 N   0  0  0  0  0  0  0  0  0  0  0  0
   -2.3241   -0.6062   -0.1374 C   0  0  0  0  0  0  0  0  0  0  0  0
   -1.7543   -1.0325   -1.3522 C   0  0  0  0  0  0  0  0  0  0  0  0
   -1.9312   -0.2948   -2.5233 C   0  0  0  0  0  0  0  0  0  0  0  0
   -2.6786    0.8810   -2.5073 C   0  0  0  0  0  0  0  0  0  0  0  0
   -3.2448    1.3359   -1.3142 C   0  0  0  0  0  0  0  0  0  0  0  0
   -3.9556    2.4958   -1.3096 N   0  0  0  0  0  0  0  0  0  0  0  0
   -4.5067    2.9952   -0.1735 C   0  0  0  0  0  0  0  0  0  0  0  0
   -4.3422    2.3236    1.0368 C   0  0  0  0  0  0  0  0  0  0  0  0
   -3.6193    1.1301    1.0701 C   0  0  0  0  0  0  0  0  0  0  0  0
   -3.0683    0.6013   -0.1137 C   0  0  0  0  0  0  0  0  0  0  0  0
    0.1656   -0.0249    2.1849 C   0  0  0  0  0  0  0  0  0  0  0  0
    1.1777    0.8718    2.2313 N   0  0  0  0  0  0  0  0  0  0  0  0
    2.2915    0.7385    1.4724 C   0  0  0  0  0  0  0  0  0  0  0  0
    3.2689    1.6736    1.5701 N   0  0  0  0  0  0  0  0  0  0  0  0
    4.3873    1.6017    0.8100 C   0  0  0  0  0  0  0  0  0  0  0  0
    5.4074    2.5884    0.9451 N   0  0  0  0  0  0  0  0  0  0  0  0
    4.5109    0.6198   -0.1155 N   0  0  0  0  0  0  0  0  0  0  0  0
    3.5633   -0.3420   -0.2742 C   0  0  0  0  0  0  0  0  0  0  0  0
    3.6757   -1.1984   -1.4141 N   0  0  0  0  0  0  0  0  0  0  0  0
    2.4351   -0.3623    0.5936 C   0  0  0  0  0  0  0  0  0  0  0  0
    1.2502   -2.9181   -0.8733 H   0  0  0  0  0  0  0  0  0  0  0  0
    1.3535   -3.5661    0.8115 H   0  0  0  0  0  0  0  0  0  0  0  0
    2.8227   -2.9992    0.0486 H   0  0  0  0  0  0  0  0  0  0  0  0
   -1.0089   -2.6017    2.3601 H   0  0  0  0  0  0  0  0  0  0  0  0
   -0.8011   -2.9420    0.6240 H   0  0  0  0  0  0  0  0  0  0  0  0
   -2.9274   -1.4561    1.7529 H   0  0  0  0  0  0  0  0  0  0  0  0
   -1.1862   -1.9505   -1.4053 H   0  0  0  0  0  0  0  0  0  0  0  0
   -1.4917   -0.6411   -3.4500 H   0  0  0  0  0  0  0  0  0  0  0  0
   -2.8105    1.4430   -3.4238 H   0  0  0  0  0  0  0  0  0  0  0  0
   -5.0650    3.9211   -0.2087 H   0  0  0  0  0  0  0  0  0  0  0  0
   -4.7678    2.7288    1.9458 H   0  0  0  0  0  0  0  0  0  0  0  0
   -3.4867    0.6472    2.0274 H   0  0  0  0  0  0  0  0  0  0  0  0
   -0.7168    0.1507    2.7874 H   0  0  0  0  0  0  0  0  0  0  0  0
    5.3089    3.3586    1.6432 H   0  0  0  0  0  0  0  0  0  0  0  0
    6.2632    2.5491    0.3482 H   0  0  0  0  0  0  0  0  0  0  0  0
    4.5872   -1.2683   -1.9188 H   0  0  0  0  0  0  0  0  0  0  0  0
    2.8293   -1.5561   -1.9067 H   0  0  0  0  0  0  0  0  0  0  0  0
  1  2  1  0
  2  3  2  0
  3  4  1  0
  4  5  1  0
  5  6  1  0
  6  7  2  0
  7  8  1  0
  8  9  2  0
  9 10  1  0
 10 11  2  0
 11 12  1  0
 12 13  2  0
 13 14  1  0
 14 15  2  0
  3 16  1  0
 16 17  2  0
 17 18  1  0
 18 19  2  0
 19 20  1  0
 20 21  1  0
 20 22  2  0
 22 23  1  0
 23 24  1  0
 23 25  2  0
 25  2  1  0
 15  6  1  0
 25 18  1  0
 15 10  1  0
  1 26  1  0
  1 27  1  0
  1 28  1  0
  4 29  1  0
  4 30  1  0
  5 31  1  0
  7 32  1  0
  8 33  1  0
  9 34  1  0
 12 35  1  0
 13 36  1  0
 14 37  1  0
 16 38  1  0
 21 39  1  0
 21 40  1  0
 24 41  1  0
 24 42  1  0
M  END
$$$$
