
     RDKit          3D

 36 33  0  0  0  0  0  0  0  0999 V2000
    0.0000    0.0000    0.0000 Na  0  0  0  0  0 15  0  0  0  0  0  0
    0.0000    0.0000    0.0000 Na  0  0  0  0  0 15  0  0  0  0  0  0
   -3.5814   -2.0613   -1.5476 O   0  0  0  0  0  0  0  0  0  0  0  0
   -3.7698   -0.8193   -0.9499 C   0  0  0  0  0  0  0  0  0  0  0  0
   -4.7921   -0.1360   -1.2246 O   0  0  0  0  0  0  0  0  0  0  0  0
   -2.7534   -0.2977    0.0195 C   0  0  0  0  0  0  0  0  0  0  0  0
   -1.4281   -0.1507   -0.6218 N   0  0  0  0  0  0  0  0  0  0  0  0
   -0.3583    0.0968    0.3721 C   0  0  0  0  0  0  0  0  0  0  0  0
    0.9241   -0.6308   -0.0378 C   0  0  0  0  0  0  0  0  0  0  0  0
    1.9886   -0.3582    0.9641 N   0  0  0  0  0  0  0  0  0  0  0  0
    3.0787    0.4653    0.3971 C   0  0  0  0  0  0  0  0  0  0  0  0
    2.5982    1.8526    0.0981 C   0  0  0  0  0  0  0  0  0  0  0  0
    2.3827    2.2446   -1.2192 O   0  0  0  0  0  0  0  0  0  0  0  0
    2.3627    2.6547    1.0409 O   0  0  0  0  0  0  0  0  0  0  0  0
    2.5356   -1.6080    1.5335 C   0  0  0  0  0  0  0  0  0  0  0  0
    1.5326   -2.2567    2.4375 C   0  0  0  0  0  0  0  0  0  0  0  0
    0.9695   -3.4787    2.0925 O   0  0  0  0  0  1  0  0  0  0  0  0
    1.1862   -1.6898    3.5071 O   0  0  0  0  0  0  0  0  0  0  0  0
   -1.4099    0.8312   -1.7376 C   0  0  0  0  0  0  0  0  0  0  0  0
   -1.8459    2.2165   -1.3391 C   0  0  0  0  0  0  0  0  0  0  0  0
   -0.9068    3.1553   -0.9305 O   0  0  0  0  0  1  0  0  0  0  0  0
   -3.0630    2.5359   -1.3842 O   0  0  0  0  0  0  0  0  0  0  0  0
   -4.2572   -2.4281   -2.2071 H   0  0  0  0  0  0  0  0  0  0  0  0
   -2.6946   -1.0449    0.8407 H   0  0  0  0  0  0  0  0  0  0  0  0
   -3.0894    0.6608    0.4720 H   0  0  0  0  0  0  0  0  0  0  0  0
   -0.1580    1.1808    0.4977 H   0  0  0  0  0  0  0  0  0  0  0  0
   -0.6427   -0.2857    1.3782 H   0  0  0  0  0  0  0  0  0  0  0  0
    1.2254   -0.3160   -1.0609 H   0  0  0  0  0  0  0  0  0  0  0  0
    0.6884   -1.7164   -0.1182 H   0  0  0  0  0  0  0  0  0  0  0  0
    3.4929   -0.0046   -0.5234 H   0  0  0  0  0  0  0  0  0  0  0  0
    3.9139    0.5610    1.1257 H   0  0  0  0  0  0  0  0  0  0  0  0
    2.0437    3.1743   -1.4357 H   0  0  0  0  0  0  0  0  0  0  0  0
    3.4373   -1.3982    2.1504 H   0  0  0  0  0  0  0  0  0  0  0  0
    2.8406   -2.3112    0.7256 H   0  0  0  0  0  0  0  0  0  0  0  0
   -2.0597    0.4693   -2.5629 H   0  0  0  0  0  0  0  0  0  0  0  0
   -0.3908    0.8934   -2.1738 H   0  0  0  0  0  0  0  0  0  0  0  0
  3  4  1  0
  4  5  2  0
  4  6  1  0
  6  7  1  0
  7  8  1  0
  8  9  1  0
  9 10  1  0
 10 11  1  0
 11 12  1  0
 12 13  1  0
 12 14  2  0
 10 15  1  0
 15 16  1  0
 16 17  1  0
 16 18  2  0
  7 19  1  0
 19 20  1  0
 20 21  1  0
 20 22  2  0
  3 23  1  0
  6 24  1  0
  6 25  1  0
  8 26  1  0
  8 27  1  0
  9 28  1  0
  9 29  1  0
 11 30  1  0
 11 31  1  0
 13 32  1  0
 15 33  1  0
 15 34  1  0
 19 35  1  0
 19 36  1  0
M  CHG  4   1   1   2   1  17  -1  21  -1
M  END
$$$$
