
     RDKit          3D

 39 41  0  0  0  0  0  0  0  0999 V2000
   -2.1677    2.5707    0.0109 C   0  0  0  0  0  0  0  0  0  0  0  0
   -3.0448    1.5122    0.6801 C   0  0  0  0  0  0  0  0  0  0  0  0
   -2.6776    0.0457    0.3498 C   0  0  0  0  0  0  0  0  0  0  0  0
   -3.0357   -0.3903   -1.0944 C   0  0  0  0  0  0  0  0  0  0  0  0
   -4.4947   -0.8315   -1.2243 C   0  0  0  0  0  0  0  0  0  0  0  0
   -1.2817   -0.2683    0.7228 N   0  0  0  0  0  0  0  0  0  0  0  0
   -0.9419   -0.8370    1.9029 C   0  0  0  0  0  0  0  0  0  0  0  0
    0.4244   -1.0272    1.9917 C   0  0  0  0  0  0  0  0  0  0  0  0
    0.9596   -0.5195    0.8200 C   0  0  0  0  0  0  0  0  0  0  0  0
   -0.1109   -0.0850    0.0576 C   0  0  0  0  0  0  0  0  0  0  0  0
    0.0831    0.4095   -1.2374 C   0  0  0  0  0  0  0  0  0  0  0  0
    1.3776    0.4098   -1.7701 C   0  0  0  0  0  0  0  0  0  0  0  0
    2.4692   -0.0422   -1.0068 C   0  0  0  0  0  0  0  0  0  0  0  0
    2.2874   -0.4700    0.3355 C   0  0  0  0  0  0  0  0  0  0  0  0
    3.4461   -0.8300    1.0664 C   0  0  0  0  0  0  0  0  0  0  0  0
    3.4237   -1.0627    2.4753 N   0  0  0  0  0  0  0  0  0  0  0  0
    4.6495   -0.8564    0.4342 N   0  0  0  0  0  0  0  0  0  0  0  0
    4.7839   -0.5020   -0.8687 C   0  0  0  0  0  0  0  0  0  0  0  0
    6.0661   -0.5430   -1.4902 N   0  0  0  0  0  0  0  0  0  0  0  0
    3.7039   -0.0765   -1.5695 N   0  0  0  0  0  0  0  0  0  0  0  0
   -2.5264    3.5787    0.3077 H   0  0  0  0  0  0  0  0  0  0  0  0
   -2.2266    2.5035   -1.0935 H   0  0  0  0  0  0  0  0  0  0  0  0
   -1.1140    2.4773    0.3439 H   0  0  0  0  0  0  0  0  0  0  0  0
   -4.1036    1.7004    0.4011 H   0  0  0  0  0  0  0  0  0  0  0  0
   -2.9713    1.6532    1.7806 H   0  0  0  0  0  0  0  0  0  0  0  0
   -3.3280   -0.5646    1.0186 H   0  0  0  0  0  0  0  0  0  0  0  0
   -2.3941   -1.2466   -1.3960 H   0  0  0  0  0  0  0  0  0  0  0  0
   -2.8782    0.4337   -1.8166 H   0  0  0  0  0  0  0  0  0  0  0  0
   -4.6933   -1.7112   -0.5758 H   0  0  0  0  0  0  0  0  0  0  0  0
   -5.1796   -0.0047   -0.9422 H   0  0  0  0  0  0  0  0  0  0  0  0
   -4.7034   -1.1182   -2.2767 H   0  0  0  0  0  0  0  0  0  0  0  0
   -1.6544   -1.1329    2.6626 H   0  0  0  0  0  0  0  0  0  0  0  0
    0.9228   -1.5375    2.8008 H   0  0  0  0  0  0  0  0  0  0  0  0
   -0.7249    0.7707   -1.8466 H   0  0  0  0  0  0  0  0  0  0  0  0
    1.5331    0.7566   -2.7844 H   0  0  0  0  0  0  0  0  0  0  0  0
    4.2215   -1.5637    2.9256 H   0  0  0  0  0  0  0  0  0  0  0  0
    2.8181   -0.4835    3.0961 H   0  0  0  0  0  0  0  0  0  0  0  0
    6.9043   -0.8577   -0.9528 H   0  0  0  0  0  0  0  0  0  0  0  0
    6.1789   -0.2598   -2.4888 H   0  0  0  0  0  0  0  0  0  0  0  0
  1  2  1  0
  2  3  1  0
  3  4  1  0
  4  5  1  0
  3  6  1  0
  6  7  1  0
  7  8  2  0
  8  9  1  0
  9 10  2  0
 10 11  1  0
 11 12  2  0
 12 13  1  0
 13 14  2  0
 14 15  1  0
 15 16  1  0
 15 17  2  0
 17 18  1  0
 18 19  1  0
 18 20  2  0
 10  6  1  0
 20 13  1  0
 14  9  1  0
  1 21  1  0
  1 22  1  0
  1 23  1  0
  2 24  1  0
  2 25  1  0
  3 26  1  0
  4 27  1  0
  4 28  1  0
  5 29  1  0
  5 30  1  0
  5 31  1  0
  7 32  1  0
  8 33  1  0
 11 34  1  0
 12 35  1  0
 16 36  1  0
 16 37  1  0
 19 38  1  0
 19 39  1  0
M  END
$$$$
