
     RDKit          3D

 48 50  0  0  0  0  0  0  0  0999 V2000
    6.7489    1.1889    2.1689 F   0  0  0  0  0  0  0  0  0  0  0  0
    7.0230   -0.1371    1.8814 C   0  0  0  0  0  0  0  0  0  0  0  0
    8.3811   -0.2552    1.6410 F   0  0  0  0  0  0  0  0  0  0  0  0
    6.6902   -0.9136    2.9755 F   0  0  0  0  0  0  0  0  0  0  0  0
    6.2263   -0.5962    0.6859 C   0  0  0  0  0  0  0  0  0  0  0  0
    4.9340   -0.0903    0.4578 C   0  0  0  0  0  0  0  0  0  0  0  0
    4.1681   -0.5416   -0.6334 C   0  0  0  0  0  0  0  0  0  0  0  0
    2.8432   -0.0370   -0.8764 N   0  0  0  0  0  0  0  0  0  0  0  0
    2.4207    1.2863   -0.5072 C   0  0  0  0  0  0  0  0  0  0  0  0
    1.0686    1.5676   -0.1877 C   0  0  0  0  0  0  0  0  0  0  0  0
    0.7058    2.9033    0.0552 C   0  0  0  0  0  0  0  0  0  0  0  0
    1.6618    3.9166    0.0043 C   0  0  0  0  0  0  0  0  0  0  0  0
    2.9822    3.5942   -0.2961 C   0  0  0  0  0  0  0  0  0  0  0  0
    3.3246    2.3059   -0.5514 N   0  0  0  0  0  0  0  0  0  0  0  0
    0.0371    0.5114   -0.0563 C   0  0  0  0  0  0  0  0  0  0  0  0
    0.3667   -0.6784    0.2034 O   0  0  0  0  0  0  0  0  0  0  0  0
   -1.3148    0.8496   -0.1807 O   0  0  0  0  0  0  0  0  0  0  0  0
   -2.3632   -0.1048   -0.0478 C   0  0  0  0  0  0  0  0  0  0  0  0
   -3.7097    0.5886   -0.2508 C   0  0  0  0  0  0  0  0  0  0  0  0
   -4.8094   -0.3996   -0.2679 N   0  0  0  0  0  0  0  0  0  0  0  0
   -5.9572    0.1160   -1.0428 C   0  0  0  0  0  0  0  0  0  0  0  0
   -7.2016   -0.7748   -0.8548 C   0  0  0  0  0  0  0  0  0  0  0  0
   -6.8511   -2.0144   -0.2742 O   0  0  0  0  0  0  0  0  0  0  0  0
   -6.3693   -1.8067    1.0420 C   0  0  0  0  0  0  0  0  0  0  0  0
   -5.2479   -0.7467    1.0980 C   0  0  0  0  0  0  0  0  0  0  0  0
    4.6876   -1.5435   -1.4654 C   0  0  0  0  0  0  0  0  0  0  0  0
    5.9585   -2.0705   -1.2284 C   0  0  0  0  0  0  0  0  0  0  0  0
    6.7234   -1.6052   -0.1566 C   0  0  0  0  0  0  0  0  0  0  0  0
    4.5179    0.6384    1.1416 H   0  0  0  0  0  0  0  0  0  0  0  0
    2.2006   -0.6105   -1.4682 H   0  0  0  0  0  0  0  0  0  0  0  0
   -0.3149    3.1631    0.3076 H   0  0  0  0  0  0  0  0  0  0  0  0
    1.3817    4.9432    0.2024 H   0  0  0  0  0  0  0  0  0  0  0  0
    3.7351    4.3697   -0.3383 H   0  0  0  0  0  0  0  0  0  0  0  0
   -2.3133   -0.5614    0.9630 H   0  0  0  0  0  0  0  0  0  0  0  0
   -2.2385   -0.9011   -0.8140 H   0  0  0  0  0  0  0  0  0  0  0  0
   -3.6552    1.1245   -1.2261 H   0  0  0  0  0  0  0  0  0  0  0  0
   -3.8650    1.3572    0.5402 H   0  0  0  0  0  0  0  0  0  0  0  0
   -6.2066    1.1583   -0.7372 H   0  0  0  0  0  0  0  0  0  0  0  0
   -5.6854    0.1293   -2.1213 H   0  0  0  0  0  0  0  0  0  0  0  0
   -7.9655   -0.2520   -0.2338 H   0  0  0  0  0  0  0  0  0  0  0  0
   -7.6705   -0.9663   -1.8434 H   0  0  0  0  0  0  0  0  0  0  0  0
   -7.2070   -1.5217    1.7174 H   0  0  0  0  0  0  0  0  0  0  0  0
   -5.9705   -2.7740    1.4152 H   0  0  0  0  0  0  0  0  0  0  0  0
   -5.6254    0.1588    1.6266 H   0  0  0  0  0  0  0  0  0  0  0  0
   -4.4002   -1.1558    1.6875 H   0  0  0  0  0  0  0  0  0  0  0  0
    4.1059   -1.9162   -2.2992 H   0  0  0  0  0  0  0  0  0  0  0  0
    6.3495   -2.8468   -1.8735 H   0  0  0  0  0  0  0  0  0  0  0  0
    7.6994   -2.0400    0.0182 H   0  0  0  0  0  0  0  0  0  0  0  0
  1  2  1  0
  2  3  1  0
  2  4  1  0
  2  5  1  0
  5  6  2  0
  6  7  1  0
  7  8  1  0
  8  9  1  0
  9 10  1  0
 10 11  2  0
 11 12  1  0
 12 13  2  0
 13 14  1  0
 10 15  1  0
 15 16  2  0
 15 17  1  0
 17 18  1  0
 18 19  1  0
 19 20  1  0
 20 21  1  0
 21 22  1  0
 22 23  1  0
 23 24  1  0
 24 25  1  0
  7 26  2  0
 26 27  1  0
 27 28  2  0
 28  5  1  0
 14  9  2  0
 25 20  1  0
  6 29  1  0
  8 30  1  0
 11 31  1  0
 12 32  1  0
 13 33  1  0
 18 34  1  0
 18 35  1  0
 19 36  1  0
 19 37  1  0
 21 38  1  0
 21 39  1  0
 22 40  1  0
 22 41  1  0
 24 42  1  0
 24 43  1  0
 25 44  1  0
 25 45  1  0
 26 46  1  0
 27 47  1  0
 28 48  1  0
M  END
$$$$
