
     RDKit          3D

 39 38  0  0  0  0  0  0  0  0999 V2000
   -4.8012   -0.3945   -1.2198 N   0  0  0  0  0  0  0  0  0  0  0  0
   -4.1616    0.8220   -0.7133 C   0  0  1  0  0  0  0  0  0  0  0  0
   -3.6960    0.6313    0.7478 C   0  0  0  0  0  0  0  0  0  0  0  0
   -2.6623   -0.4998    0.9476 C   0  0  0  0  0  0  0  0  0  0  0  0
   -1.2197    0.0271    0.9849 C   0  0  0  0  0  0  0  0  0  0  0  0
   -0.2149   -1.1226    1.1105 C   0  0  0  0  0  0  0  0  0  0  0  0
    1.1576   -0.5943    1.1587 N   0  0  0  0  0  0  0  0  0  0  0  0
    1.7661   -0.4749   -0.1835 C   0  0  1  0  0  0  0  0  0  0  0  0
    2.9339    0.5315   -0.1616 C   0  0  0  0  0  0  0  0  0  0  0  0
    4.0822    0.1393    0.7812 C   0  0  0  0  0  0  0  0  0  0  0  0
    5.1716    1.1631    0.7256 C   0  0  0  0  0  0  0  0  0  0  0  0
    5.1233    2.2723    1.5640 O   0  0  0  0  0  0  0  0  0  0  0  0
    6.1101    1.0426   -0.1067 O   0  0  0  0  0  0  0  0  0  0  0  0
    2.1963   -1.8094   -0.7489 C   0  0  0  0  0  0  0  0  0  0  0  0
    2.1194   -2.0262   -2.1211 O   0  0  0  0  0  0  0  0  0  0  0  0
    2.6583   -2.7124    0.0000 O   0  0  0  0  0  0  0  0  0  0  0  0
   -3.0218    1.2262   -1.6069 C   0  0  0  0  0  0  0  0  0  0  0  0
   -2.2996    0.2615   -2.3051 O   0  0  0  0  0  0  0  0  0  0  0  0
   -2.6906    2.4392   -1.6914 O   0  0  0  0  0  0  0  0  0  0  0  0
   -5.6341   -0.6033   -0.6222 H   0  0  0  0  0  0  0  0  0  0  0  0
   -5.1764   -0.1954   -2.1762 H   0  0  0  0  0  0  0  0  0  0  0  0
   -4.9127    1.6451   -0.7227 H   0  0  0  0  0  0  0  0  0  0  0  0
   -3.3025    1.5949    1.1409 H   0  0  0  0  0  0  0  0  0  0  0  0
   -4.5932    0.3958    1.3616 H   0  0  0  0  0  0  0  0  0  0  0  0
   -2.8722   -1.0011    1.9181 H   0  0  0  0  0  0  0  0  0  0  0  0
   -2.7647   -1.2712    0.1540 H   0  0  0  0  0  0  0  0  0  0  0  0
   -1.0996    0.7088    1.8554 H   0  0  0  0  0  0  0  0  0  0  0  0
   -1.0038    0.6067    0.0657 H   0  0  0  0  0  0  0  0  0  0  0  0
   -0.3455   -1.8447    0.2729 H   0  0  0  0  0  0  0  0  0  0  0  0
   -0.4279   -1.6724    2.0548 H   0  0  0  0  0  0  0  0  0  0  0  0
    1.7372   -1.2236    1.7620 H   0  0  0  0  0  0  0  0  0  0  0  0
    1.0168   -0.0494   -0.8881 H   0  0  0  0  0  0  0  0  0  0  0  0
    3.3308    0.6430   -1.1956 H   0  0  0  0  0  0  0  0  0  0  0  0
    2.5357    1.5232    0.1485 H   0  0  0  0  0  0  0  0  0  0  0  0
    4.4998   -0.8486    0.4926 H   0  0  0  0  0  0  0  0  0  0  0  0
    3.7151    0.0721    1.8269 H   0  0  0  0  0  0  0  0  0  0  0  0
    5.8444    2.9829    1.5273 H   0  0  0  0  0  0  0  0  0  0  0  0
    2.4155   -2.9065   -2.5255 H   0  0  0  0  0  0  0  0  0  0  0  0
   -1.5135    0.5219   -2.8885 H   0  0  0  0  0  0  0  0  0  0  0  0
  1  2  1  0
  2  3  1  0
  3  4  1  0
  4  5  1  0
  5  6  1  0
  6  7  1  0
  7  8  1  0
  8  9  1  0
  9 10  1  0
 10 11  1  0
 11 12  1  0
 11 13  2  0
  8 14  1  0
 14 15  1  0
 14 16  2  0
  2 17  1  0
 17 18  1  0
 17 19  2  0
  1 20  1  0
  1 21  1  0
  2 22  1  1
  3 23  1  0
  3 24  1  0
  4 25  1  0
  4 26  1  0
  5 27  1  0
  5 28  1  0
  6 29  1  0
  6 30  1  0
  7 31  1  0
  8 32  1  6
  9 33  1  0
  9 34  1  0
 10 35  1  0
 10 36  1  0
 12 37  1  0
 15 38  1  0
 18 39  1  0
M  END
$$$$
