
     RDKit          3D

 50 53  0  0  0  0  0  0  0  0999 V2000
    2.5310   -3.0377   -1.4267 C   0  0  2  0  0  0  0  0  0  0  0  0
    1.8483   -4.0065   -2.3836 C   0  0  0  0  0  0  0  0  0  0  0  0
    1.7045   -5.3000   -1.5996 C   0  0  0  0  0  0  0  0  0  0  0  0
    1.6324   -4.9070   -0.1250 C   0  0  0  0  0  0  0  0  0  0  0  0
    2.0054   -3.4218   -0.0336 C   0  0  2  0  0  0  0  0  0  0  0  0
    0.8241   -2.6238    0.3250 N   0  0  0  0  0  0  0  0  0  0  0  0
    0.8662   -1.6150    1.3502 C   0  0  0  0  0  0  0  0  0  0  0  0
    1.7654   -1.6644    2.2338 O   0  0  0  0  0  0  0  0  0  0  0  0
   -0.0860   -0.4770    1.3557 C   0  0  0  0  0  0  0  0  0  0  0  0
   -1.3644   -0.5790    0.7777 C   0  0  0  0  0  0  0  0  0  0  0  0
   -2.2186    0.5272    0.7466 C   0  0  0  0  0  0  0  0  0  0  0  0
   -1.8138    1.7562    1.2906 C   0  0  0  0  0  0  0  0  0  0  0  0
   -0.5508    1.8524    1.8937 C   0  0  0  0  0  0  0  0  0  0  0  0
    0.3017    0.7467    1.9302 C   0  0  0  0  0  0  0  0  0  0  0  0
   -2.6898    2.9019    1.2484 N   0  0  0  0  0  0  0  0  0  0  0  0
   -2.9885    3.5486    2.4179 C   0  0  0  0  0  0  0  0  0  0  0  0
   -3.8324    4.6607    2.4228 C   0  0  0  0  0  0  0  0  0  0  0  0
   -4.3729    5.1151    1.2230 C   0  0  0  0  0  0  0  0  0  0  0  0
   -4.0642    4.4583    0.0340 C   0  0  0  0  0  0  0  0  0  0  0  0
   -3.2136    3.3478    0.0584 C   0  0  0  0  0  0  0  0  0  0  0  0
   -2.9267    2.7749   -1.0285 O   0  0  0  0  0  0  0  0  0  0  0  0
    2.2520   -1.6378   -1.7727 N   0  0  0  0  0  0  0  0  0  0  0  0
    2.8511   -0.5481   -1.0560 C   0  0  0  0  0  0  0  0  0  0  0  0
    3.8977   -0.7422   -0.3806 O   0  0  0  0  0  0  0  0  0  0  0  0
    2.2395    0.7928   -1.0665 C   0  0  0  0  0  0  0  0  0  0  0  0
    1.0093    1.1424   -1.6224 C   0  0  0  0  0  0  0  0  0  0  0  0
    0.6617    2.4801   -1.4027 C   0  0  0  0  0  0  0  0  0  0  0  0
    1.6093    3.1769   -0.6702 C   0  0  0  0  0  0  0  0  0  0  0  0
    1.4858    4.8502   -0.1715 Cl  0  0  0  0  0  0  0  0  0  0  0  0
    2.8789    2.1454   -0.2909 S   0  0  0  0  0  0  0  0  0  0  0  0
    3.6294   -3.2175   -1.4698 H   0  0  0  0  0  0  0  0  0  0  0  0
    2.4489   -4.1553   -3.3072 H   0  0  0  0  0  0  0  0  0  0  0  0
    0.8350   -3.6374   -2.6589 H   0  0  0  0  0  0  0  0  0  0  0  0
    2.5976   -5.9401   -1.7741 H   0  0  0  0  0  0  0  0  0  0  0  0
    0.7952   -5.8567   -1.9145 H   0  0  0  0  0  0  0  0  0  0  0  0
    0.6111   -5.0958    0.2739 H   0  0  0  0  0  0  0  0  0  0  0  0
    2.3494   -5.5204    0.4640 H   0  0  0  0  0  0  0  0  0  0  0  0
    2.8154   -3.2887    0.7172 H   0  0  0  0  0  0  0  0  0  0  0  0
    0.0065   -2.6728   -0.3216 H   0  0  0  0  0  0  0  0  0  0  0  0
   -1.7230   -1.5120    0.3673 H   0  0  0  0  0  0  0  0  0  0  0  0
   -3.2023    0.4245    0.3060 H   0  0  0  0  0  0  0  0  0  0  0  0
   -0.2187    2.7922    2.3165 H   0  0  0  0  0  0  0  0  0  0  0  0
    1.2806    0.8596    2.3795 H   0  0  0  0  0  0  0  0  0  0  0  0
   -2.5829    3.1991    3.3605 H   0  0  0  0  0  0  0  0  0  0  0  0
   -4.0666    5.1642    3.3519 H   0  0  0  0  0  0  0  0  0  0  0  0
   -5.0287    5.9761    1.2140 H   0  0  0  0  0  0  0  0  0  0  0  0
   -4.4792    4.8134   -0.9014 H   0  0  0  0  0  0  0  0  0  0  0  0
    1.5902   -1.4253   -2.5520 H   0  0  0  0  0  0  0  0  0  0  0  0
    0.3606    0.4556   -2.1478 H   0  0  0  0  0  0  0  0  0  0  0  0
   -0.2612    2.9202   -1.7543 H   0  0  0  0  0  0  0  0  0  0  0  0
  1  2  1  0
  2  3  1  0
  3  4  1  0
  4  5  1  0
  5  6  1  0
  6  7  1  0
  7  8  2  0
  7  9  1  0
  9 10  2  0
 10 11  1  0
 11 12  2  0
 12 13  1  0
 13 14  2  0
 12 15  1  0
 15 16  1  0
 16 17  2  0
 17 18  1  0
 18 19  2  0
 19 20  1  0
 20 21  2  0
  1 22  1  0
 22 23  1  0
 23 24  2  0
 23 25  1  0
 25 26  2  0
 26 27  1  0
 27 28  2  0
 28 29  1  0
 28 30  1  0
  5  1  1  0
 14  9  1  0
 20 15  1  0
 30 25  1  0
  1 31  1  1
  2 32  1  0
  2 33  1  0
  3 34  1  0
  3 35  1  0
  4 36  1  0
  4 37  1  0
  5 38  1  1
  6 39  1  0
 10 40  1  0
 11 41  1  0
 13 42  1  0
 14 43  1  0
 16 44  1  0
 17 45  1  0
 18 46  1  0
 19 47  1  0
 22 48  1  0
 26 49  1  0
 27 50  1  0
M  END
$$$$
