
     RDKit          3D

 42 43  0  0  0  0  0  0  0  0999 V2000
    5.2478   -0.7271    2.0252 O   0  0  0  0  0  0  0  0  0  0  0  0
    4.1621   -0.4373    1.1961 C   0  0  0  0  0  0  0  0  0  0  0  0
    4.4111    0.2266   -0.0035 C   0  0  0  0  0  0  0  0  0  0  0  0
    3.3769    0.5179   -0.8906 C   0  0  0  0  0  0  0  0  0  0  0  0
    3.6988    1.1562   -2.0912 O   0  0  0  0  0  0  0  0  0  0  0  0
    2.0506    0.1653   -0.5672 C   0  0  0  0  0  0  0  0  0  0  0  0
    1.7714   -0.4647    0.6760 C   0  0  0  0  0  0  0  0  0  0  0  0
    0.3385   -0.7534    1.0939 C   0  0  0  0  0  0  0  0  0  0  0  0
   -0.2193   -2.0546    0.5806 C   0  0  0  0  0  0  0  0  0  0  0  0
    0.4271   -2.7628   -0.1778 O   0  0  0  0  0  0  0  0  0  0  0  0
   -1.6071   -2.4715    1.0006 C   0  0  0  0  0  0  0  0  0  0  0  0
   -2.6300   -2.4002   -0.1482 C   0  0  0  0  0  0  0  0  0  0  0  0
   -2.7984   -0.9980   -0.7658 C   0  0  0  0  0  0  0  0  0  0  0  0
   -3.4614    0.0374    0.1787 C   0  0  0  0  0  0  0  0  0  0  0  0
   -2.6226    1.2829    0.3070 C   0  0  0  0  0  0  0  0  0  0  0  0
   -2.3862    2.0769   -0.7484 C   0  0  0  0  0  0  0  0  0  0  0  0
   -1.3051    3.1284   -0.7248 C   0  0  0  0  0  0  0  0  0  0  0  0
    0.0895    2.4854   -0.7066 C   0  0  0  0  0  0  0  0  0  0  0  0
    0.1230    1.4059   -1.6408 O   0  0  0  0  0  0  0  0  0  0  0  0
    1.0009    0.3172   -1.5967 C   0  0  0  0  0  0  0  0  0  0  0  0
    0.9045   -0.5676   -2.4868 O   0  0  0  0  0  0  0  0  0  0  0  0
    2.8441   -0.7946    1.5415 C   0  0  0  0  0  0  0  0  0  0  0  0
    2.5524   -1.6748    3.0469 Cl  0  0  0  0  0  0  0  0  0  0  0  0
    5.1549   -1.2003    2.9146 H   0  0  0  0  0  0  0  0  0  0  0  0
    5.4269    0.5016   -0.2600 H   0  0  0  0  0  0  0  0  0  0  0  0
    3.0033    1.4267   -2.7754 H   0  0  0  0  0  0  0  0  0  0  0  0
    0.2342   -0.7209    2.1976 H   0  0  0  0  0  0  0  0  0  0  0  0
   -0.3176    0.0490    0.7319 H   0  0  0  0  0  0  0  0  0  0  0  0
   -1.9536   -1.8431    1.8479 H   0  0  0  0  0  0  0  0  0  0  0  0
   -1.5629   -3.5157    1.3779 H   0  0  0  0  0  0  0  0  0  0  0  0
   -2.3134   -3.1036   -0.9491 H   0  0  0  0  0  0  0  0  0  0  0  0
   -3.6158   -2.7537    0.2246 H   0  0  0  0  0  0  0  0  0  0  0  0
   -1.8123   -0.6475   -1.1379 H   0  0  0  0  0  0  0  0  0  0  0  0
   -3.4385   -1.1001   -1.6692 H   0  0  0  0  0  0  0  0  0  0  0  0
   -4.4655    0.3145   -0.2103 H   0  0  0  0  0  0  0  0  0  0  0  0
   -3.6213   -0.3863    1.1920 H   0  0  0  0  0  0  0  0  0  0  0  0
   -2.1317    1.4844    1.2551 H   0  0  0  0  0  0  0  0  0  0  0  0
   -2.8941    1.8838   -1.6898 H   0  0  0  0  0  0  0  0  0  0  0  0
   -1.3980    3.7496   -1.6414 H   0  0  0  0  0  0  0  0  0  0  0  0
   -1.4336    3.7943    0.1558 H   0  0  0  0  0  0  0  0  0  0  0  0
    0.8578    3.2379   -0.9840 H   0  0  0  0  0  0  0  0  0  0  0  0
    0.3127    2.1360    0.3216 H   0  0  0  0  0  0  0  0  0  0  0  0
  1  2  1  0
  2  3  2  0
  3  4  1  0
  4  5  1  0
  4  6  2  0
  6  7  1  0
  7  8  1  0
  8  9  1  0
  9 10  2  0
  9 11  1  0
 11 12  1  0
 12 13  1  0
 13 14  1  0
 14 15  1  0
 15 16  2  0
 16 17  1  0
 17 18  1  0
 18 19  1  0
 19 20  1  0
 20 21  2  0
  7 22  2  0
 22 23  1  0
 22  2  1  0
 20  6  1  0
  1 24  1  0
  3 25  1  0
  5 26  1  0
  8 27  1  0
  8 28  1  0
 11 29  1  0
 11 30  1  0
 12 31  1  0
 12 32  1  0
 13 33  1  0
 13 34  1  0
 14 35  1  0
 14 36  1  0
 15 37  1  0
 16 38  1  0
 17 39  1  0
 17 40  1  0
 18 41  1  0
 18 42  1  0
M  END
$$$$
