
     RDKit          3D

 35 37  0  0  0  0  0  0  0  0999 V2000
    4.3304   -1.0838   -1.3995 C   0  0  0  0  0  0  0  0  0  0  0  0
    3.2054   -0.1741   -0.9773 C   0  0  0  0  0  0  0  0  0  0  0  0
    1.9883   -0.6907   -0.4673 C   0  0  0  0  0  0  0  0  0  0  0  0
    1.7969   -2.1807   -0.3006 C   0  0  0  0  0  0  0  0  0  0  0  0
    0.9705    0.2029   -0.0654 C   0  0  0  0  0  0  0  0  0  0  0  0
    1.1497    1.5980   -0.2078 C   0  0  0  0  0  0  0  0  0  0  0  0
    2.3486    2.0902   -0.7448 C   0  0  0  0  0  0  0  0  0  0  0  0
    3.3624    1.2127   -1.1242 C   0  0  0  0  0  0  0  0  0  0  0  0
    0.1128    2.4575    0.1972 C   0  0  0  0  0  0  0  0  0  0  0  0
    0.2391    3.7089    0.0813 O   0  0  0  0  0  0  0  0  0  0  0  0
   -1.0657    1.9105    0.7322 C   0  0  0  0  0  0  0  0  0  0  0  0
   -2.1389    2.7186    1.1479 C   0  0  0  0  0  0  0  0  0  0  0  0
   -3.2975    2.1358    1.6639 C   0  0  0  0  0  0  0  0  0  0  0  0
   -3.3982    0.7480    1.7760 C   0  0  0  0  0  0  0  0  0  0  0  0
   -2.3333   -0.0780    1.3821 C   0  0  0  0  0  0  0  0  0  0  0  0
   -2.4748   -1.5753    1.4819 C   0  0  0  0  0  0  0  0  0  0  0  0
   -2.9728   -2.1316    0.1868 C   0  0  0  0  0  0  0  0  0  0  0  0
   -4.3385   -2.1524   -0.0780 O   0  0  0  0  0  0  0  0  0  0  0  0
   -2.1565   -2.5447   -0.6798 O   0  0  0  0  0  0  0  0  0  0  0  0
   -1.1666    0.5051    0.8473 C   0  0  0  0  0  0  0  0  0  0  0  0
   -0.1618   -0.2695    0.4493 O   0  0  0  0  0  0  0  0  0  0  0  0
    4.0454   -1.6243   -2.3262 H   0  0  0  0  0  0  0  0  0  0  0  0
    4.5528   -1.8177   -0.5968 H   0  0  0  0  0  0  0  0  0  0  0  0
    5.2632   -0.5148   -1.6004 H   0  0  0  0  0  0  0  0  0  0  0  0
    2.1311   -2.7190   -1.2117 H   0  0  0  0  0  0  0  0  0  0  0  0
    0.7334   -2.4531   -0.1396 H   0  0  0  0  0  0  0  0  0  0  0  0
    2.3860   -2.5343    0.5711 H   0  0  0  0  0  0  0  0  0  0  0  0
    2.5088    3.1543   -0.8684 H   0  0  0  0  0  0  0  0  0  0  0  0
    4.2791    1.6214   -1.5315 H   0  0  0  0  0  0  0  0  0  0  0  0
   -2.0879    3.7977    1.0704 H   0  0  0  0  0  0  0  0  0  0  0  0
   -4.1231    2.7625    1.9754 H   0  0  0  0  0  0  0  0  0  0  0  0
   -4.3098    0.3160    2.1704 H   0  0  0  0  0  0  0  0  0  0  0  0
   -3.1866   -1.8445    2.2921 H   0  0  0  0  0  0  0  0  0  0  0  0
   -1.5004   -2.0413    1.7454 H   0  0  0  0  0  0  0  0  0  0  0  0
   -4.6916   -2.5104   -0.9573 H   0  0  0  0  0  0  0  0  0  0  0  0
  1  2  1  0
  2  3  2  0
  3  4  1  0
  3  5  1  0
  5  6  2  0
  6  7  1  0
  7  8  2  0
  6  9  1  0
  9 10  2  0
  9 11  1  0
 11 12  2  0
 12 13  1  0
 13 14  2  0
 14 15  1  0
 15 16  1  0
 16 17  1  0
 17 18  1  0
 17 19  2  0
 15 20  2  0
 20 21  1  0
  8  2  1  0
 20 11  1  0
 21  5  1  0
  1 22  1  0
  1 23  1  0
  1 24  1  0
  4 25  1  0
  4 26  1  0
  4 27  1  0
  7 28  1  0
  8 29  1  0
 12 30  1  0
 13 31  1  0
 14 32  1  0
 16 33  1  0
 16 34  1  0
 18 35  1  0
M  END
$$$$
