
     RDKit          3D

 48 49  0  0  0  0  0  0  0  0999 V2000
    0.5250   -1.5639    0.8311 C   0  0  2  0  0  0  0  0  0  0  0  0
    0.7414   -3.0344    0.4668 C   0  0  0  0  0  0  0  0  0  0  0  0
   -0.5786   -3.7364    0.7723 C   0  0  0  0  0  0  0  0  0  0  0  0
   -1.6416   -2.6457    0.7905 C   0  0  0  0  0  0  0  0  0  0  0  0
   -0.9193   -1.3903    0.9197 N   0  0  0  0  0  0  0  0  0  0  0  0
   -1.5473   -0.1319    1.2345 C   0  0  0  0  0  0  0  0  0  0  0  0
   -0.8419    0.8382    1.6240 O   0  0  0  0  0  0  0  0  0  0  0  0
   -3.0223    0.0798    1.0352 C   0  0  0  0  0  0  0  0  0  0  0  0
   -3.3208    0.3945   -0.4379 C   0  0  0  0  0  0  0  0  0  0  0  0
   -4.8343    0.4393   -0.7452 C   0  0  0  0  0  0  0  0  0  0  0  0
   -5.5235    1.6294   -0.0607 C   0  0  0  0  0  0  0  0  0  0  0  0
   -5.0604    0.5085   -2.2611 C   0  0  0  0  0  0  0  0  0  0  0  0
    1.1230   -0.6504   -0.2085 C   0  0  0  0  0  0  0  0  0  0  0  0
    0.5243   -0.4737   -1.3054 O   0  0  0  0  0  0  0  0  0  0  0  0
    2.3869   -0.0190    0.0313 N   0  0  0  0  0  0  0  0  0  0  0  0
    2.9900    0.8768   -0.9543 C   0  0  0  0  0  0  0  0  0  0  0  0
    4.3013    1.4140   -0.4486 C   0  0  0  0  0  0  0  0  0  0  0  0
    5.4924    0.7064   -0.6796 C   0  0  0  0  0  0  0  0  0  0  0  0
    6.7067    1.1868   -0.1758 C   0  0  0  0  0  0  0  0  0  0  0  0
    8.1919    0.3026   -0.4745 Cl  0  0  0  0  0  0  0  0  0  0  0  0
    6.7349    2.3697    0.5705 C   0  0  0  0  0  0  0  0  0  0  0  0
    5.5505    3.0692    0.8175 C   0  0  0  0  0  0  0  0  0  0  0  0
    4.3361    2.5917    0.3157 C   0  0  0  0  0  0  0  0  0  0  0  0
    0.9713   -1.3556    1.8287 H   0  0  0  0  0  0  0  0  0  0  0  0
    1.5746   -3.4746    1.0571 H   0  0  0  0  0  0  0  0  0  0  0  0
    0.9693   -3.1568   -0.6162 H   0  0  0  0  0  0  0  0  0  0  0  0
   -0.8102   -4.5133    0.0115 H   0  0  0  0  0  0  0  0  0  0  0  0
   -0.5186   -4.2157    1.7744 H   0  0  0  0  0  0  0  0  0  0  0  0
   -2.3231   -2.7959    1.6556 H   0  0  0  0  0  0  0  0  0  0  0  0
   -2.2214   -2.6489   -0.1573 H   0  0  0  0  0  0  0  0  0  0  0  0
   -3.5857   -0.8199    1.3582 H   0  0  0  0  0  0  0  0  0  0  0  0
   -3.3502    0.9258    1.6758 H   0  0  0  0  0  0  0  0  0  0  0  0
   -2.8492    1.3641   -0.7129 H   0  0  0  0  0  0  0  0  0  0  0  0
   -2.8533   -0.3948   -1.0677 H   0  0  0  0  0  0  0  0  0  0  0  0
   -5.3059   -0.4992   -0.3776 H   0  0  0  0  0  0  0  0  0  0  0  0
   -6.5921    1.6791   -0.3607 H   0  0  0  0  0  0  0  0  0  0  0  0
   -5.0297    2.5843   -0.3417 H   0  0  0  0  0  0  0  0  0  0  0  0
   -5.4962    1.5165    1.0425 H   0  0  0  0  0  0  0  0  0  0  0  0
   -6.1477    0.5077   -2.4891 H   0  0  0  0  0  0  0  0  0  0  0  0
   -4.6073   -0.3755   -2.7586 H   0  0  0  0  0  0  0  0  0  0  0  0
   -4.6054    1.4306   -2.6832 H   0  0  0  0  0  0  0  0  0  0  0  0
    2.8797   -0.2081    0.9343 H   0  0  0  0  0  0  0  0  0  0  0  0
    3.1489    0.3253   -1.9066 H   0  0  0  0  0  0  0  0  0  0  0  0
    2.2931    1.7173   -1.1648 H   0  0  0  0  0  0  0  0  0  0  0  0
    5.4763   -0.2158   -1.2478 H   0  0  0  0  0  0  0  0  0  0  0  0
    7.6716    2.7441    0.9632 H   0  0  0  0  0  0  0  0  0  0  0  0
    5.5730    3.9801    1.4018 H   0  0  0  0  0  0  0  0  0  0  0  0
    3.4242    3.1378    0.5234 H   0  0  0  0  0  0  0  0  0  0  0  0
  1  2  1  0
  2  3  1  0
  3  4  1  0
  4  5  1  0
  5  6  1  0
  6  7  2  0
  6  8  1  0
  8  9  1  0
  9 10  1  0
 10 11  1  0
 10 12  1  0
  1 13  1  0
 13 14  2  0
 13 15  1  0
 15 16  1  0
 16 17  1  0
 17 18  2  0
 18 19  1  0
 19 20  1  0
 19 21  2  0
 21 22  1  0
 22 23  2  0
  5  1  1  0
 23 17  1  0
  1 24  1  1
  2 25  1  0
  2 26  1  0
  3 27  1  0
  3 28  1  0
  4 29  1  0
  4 30  1  0
  8 31  1  0
  8 32  1  0
  9 33  1  0
  9 34  1  0
 10 35  1  0
 11 36  1  0
 11 37  1  0
 11 38  1  0
 12 39  1  0
 12 40  1  0
 12 41  1  0
 15 42  1  0
 16 43  1  0
 16 44  1  0
 18 45  1  0
 21 46  1  0
 22 47  1  0
 23 48  1  0
M  END
$$$$
