
     RDKit          3D

 68 71  0  0  0  0  0  0  0  0999 V2000
   -0.3030   -1.0209   -0.6367 C   0  0  2  0  0  0  0  0  0  0  0  0
   -1.0348   -1.7273   -1.7635 C   0  0  0  0  0  0  0  0  0  0  0  0
   -2.4977   -1.7403   -1.3050 C   0  0  0  0  0  0  0  0  0  0  0  0
   -2.6044   -0.8371   -0.0424 C   0  0  2  0  0  0  0  0  0  0  0  0
   -3.9942   -0.1075    0.0442 C   0  0  2  0  0  0  0  0  0  0  0  0
   -4.0824    0.8140    1.2740 C   0  0  0  0  0  0  0  0  0  0  0  0
   -5.1514   -1.1499    0.0889 C   0  0  0  0  0  0  0  0  0  0  0  0
   -6.5598   -0.5463   -0.1129 C   0  0  0  0  0  0  0  0  0  0  0  0
   -7.2755   -0.2987    1.1818 C   0  0  0  0  0  0  0  0  0  0  0  0
   -7.7214    0.9819    1.4945 O   0  0  0  0  0  0  0  0  0  0  0  0
   -7.5038   -1.2532    1.9726 O   0  0  0  0  0  0  0  0  0  0  0  0
   -1.2994    0.0266   -0.1043 C   0  0  2  0  0  0  0  0  0  0  0  0
   -1.4980    1.2179   -1.0992 C   0  0  0  0  0  0  0  0  0  0  0  0
   -0.7315    0.5408    1.2585 C   0  0  1  0  0  0  0  0  0  0  0  0
   -0.6571   -0.4942    2.2093 O   0  0  0  0  0  0  0  0  0  0  0  0
    0.6801    1.1447    1.0669 C   0  0  0  0  0  0  0  0  0  0  0  0
    1.6926    0.1939    0.3499 C   0  0  1  0  0  0  0  0  0  0  0  0
    1.1109   -0.4694   -0.9366 C   0  0  1  0  0  0  0  0  0  0  0  0
    2.0380   -1.6221   -1.4197 C   0  0  0  0  0  0  0  0  0  0  0  0
    3.5216   -1.4166   -1.0655 C   0  0  0  0  0  0  0  0  0  0  0  0
    3.8843    0.0804   -1.0523 C   0  0  2  0  0  0  0  0  0  0  0  0
    5.4249    0.3117   -1.1125 C   0  0  0  0  0  0  0  0  0  0  0  0
    6.0794    0.7336    0.2159 C   0  0  2  0  0  0  0  0  0  0  0  0
    7.4209    0.3150    0.2663 O   0  0  0  0  0  0  0  0  0  0  0  0
    5.3009    0.2057    1.4168 C   0  0  0  0  0  0  0  0  0  0  0  0
    3.9138    0.8481    1.4695 C   0  0  0  0  0  0  0  0  0  0  0  0
    3.1227    0.8519    0.1021 C   0  0  2  0  0  0  0  0  0  0  0  0
    2.9848    2.3245   -0.3814 C   0  0  0  0  0  0  0  0  0  0  0  0
   -0.1672   -1.8002    0.1531 H   0  0  0  0  0  0  0  0  0  0  0  0
   -0.9256   -1.1630   -2.7155 H   0  0  0  0  0  0  0  0  0  0  0  0
   -0.6525   -2.7612   -1.9092 H   0  0  0  0  0  0  0  0  0  0  0  0
   -2.8104   -2.7796   -1.0616 H   0  0  0  0  0  0  0  0  0  0  0  0
   -3.1370   -1.3610   -2.1326 H   0  0  0  0  0  0  0  0  0  0  0  0
   -2.5358   -1.5122    0.8405 H   0  0  0  0  0  0  0  0  0  0  0  0
   -4.1302    0.5156   -0.8663 H   0  0  0  0  0  0  0  0  0  0  0  0
   -3.8069    0.2667    2.1999 H   0  0  0  0  0  0  0  0  0  0  0  0
   -5.1019    1.2233    1.3964 H   0  0  0  0  0  0  0  0  0  0  0  0
   -3.4410    1.7034    1.1540 H   0  0  0  0  0  0  0  0  0  0  0  0
   -5.0970   -1.7362    1.0330 H   0  0  0  0  0  0  0  0  0  0  0  0
   -5.0166   -1.8840   -0.7313 H   0  0  0  0  0  0  0  0  0  0  0  0
   -6.5053    0.3944   -0.7021 H   0  0  0  0  0  0  0  0  0  0  0  0
   -7.1785   -1.2574   -0.7025 H   0  0  0  0  0  0  0  0  0  0  0  0
   -8.2145    1.1632    2.3605 H   0  0  0  0  0  0  0  0  0  0  0  0
   -2.1425    2.0011   -0.6557 H   0  0  0  0  0  0  0  0  0  0  0  0
   -1.9750    0.8899   -2.0456 H   0  0  0  0  0  0  0  0  0  0  0  0
   -0.5519    1.7175   -1.3759 H   0  0  0  0  0  0  0  0  0  0  0  0
   -1.3612    1.3647    1.6556 H   0  0  0  0  0  0  0  0  0  0  0  0
   -1.4951   -0.4693    2.7401 H   0  0  0  0  0  0  0  0  0  0  0  0
    1.0858    1.4188    2.0650 H   0  0  0  0  0  0  0  0  0  0  0  0
    0.5623    2.0938    0.5110 H   0  0  0  0  0  0  0  0  0  0  0  0
    1.8324   -0.6584    1.0543 H   0  0  0  0  0  0  0  0  0  0  0  0
    1.0604    0.2843   -1.7492 H   0  0  0  0  0  0  0  0  0  0  0  0
    1.7258   -2.5972   -0.9849 H   0  0  0  0  0  0  0  0  0  0  0  0
    1.9367   -1.7151   -2.5236 H   0  0  0  0  0  0  0  0  0  0  0  0
    3.7295   -1.8682   -0.0731 H   0  0  0  0  0  0  0  0  0  0  0  0
    4.1336   -1.9644   -1.8150 H   0  0  0  0  0  0  0  0  0  0  0  0
    3.5070    0.4608   -2.0311 H   0  0  0  0  0  0  0  0  0  0  0  0
    5.6392    1.1094   -1.8583 H   0  0  0  0  0  0  0  0  0  0  0  0
    5.9308   -0.5965   -1.5067 H   0  0  0  0  0  0  0  0  0  0  0  0
    6.0802    1.8450    0.2706 H   0  0  0  0  0  0  0  0  0  0  0  0
    7.4272   -0.6780    0.2968 H   0  0  0  0  0  0  0  0  0  0  0  0
    5.8498    0.4567    2.3510 H   0  0  0  0  0  0  0  0  0  0  0  0
    5.2161   -0.9004    1.3712 H   0  0  0  0  0  0  0  0  0  0  0  0
    3.3532    0.3310    2.2771 H   0  0  0  0  0  0  0  0  0  0  0  0
    4.0433    1.8847    1.8528 H   0  0  0  0  0  0  0  0  0  0  0  0
    3.9687    2.7311   -0.6966 H   0  0  0  0  0  0  0  0  0  0  0  0
    2.2926    2.3933   -1.2477 H   0  0  0  0  0  0  0  0  0  0  0  0
    2.6108    2.9928    0.4226 H   0  0  0  0  0  0  0  0  0  0  0  0
  1  2  1  0
  2  3  1  0
  3  4  1  0
  4  5  1  0
  5  6  1  0
  5  7  1  0
  7  8  1  0
  8  9  1  0
  9 10  1  0
  9 11  2  0
  4 12  1  0
 12 13  1  6
 12 14  1  0
 14 15  1  0
 14 16  1  0
 16 17  1  0
 17 18  1  0
 18 19  1  0
 19 20  1  0
 20 21  1  0
 21 22  1  0
 22 23  1  0
 23 24  1  0
 23 25  1  0
 25 26  1  0
 26 27  1  0
 27 28  1  6
 12  1  1  0
 27 17  1  0
 18  1  1  0
 27 21  1  0
  1 29  1  1
  2 30  1  0
  2 31  1  0
  3 32  1  0
  3 33  1  0
  4 34  1  1
  5 35  1  6
  6 36  1  0
  6 37  1  0
  6 38  1  0
  7 39  1  0
  7 40  1  0
  8 41  1  0
  8 42  1  0
 10 43  1  0
 13 44  1  0
 13 45  1  0
 13 46  1  0
 14 47  1  1
 15 48  1  0
 16 49  1  0
 16 50  1  0
 17 51  1  1
 18 52  1  6
 19 53  1  0
 19 54  1  0
 20 55  1  0
 20 56  1  0
 21 57  1  6
 22 58  1  0
 22 59  1  0
 23 60  1  1
 24 61  1  0
 25 62  1  0
 25 63  1  0
 26 64  1  0
 26 65  1  0
 28 66  1  0
 28 67  1  0
 28 68  1  0
M  END
$$$$
