
     RDKit          3D

 68 72  0  0  0  0  0  0  0  0999 V2000
    7.4277   -1.5284   -0.9291 C   0  0  0  0  0  0  0  0  0  0  0  0
    6.0793   -1.6537   -1.3691 O   0  0  0  0  0  0  0  0  0  0  0  0
    4.9548   -1.3964   -0.5689 C   0  0  0  0  0  0  0  0  0  0  0  0
    5.0706   -0.9829    0.7723 C   0  0  0  0  0  0  0  0  0  0  0  0
    3.9290   -0.7330    1.5358 C   0  0  0  0  0  0  0  0  0  0  0  0
    2.6578   -0.8939    0.9746 C   0  0  0  0  0  0  0  0  0  0  0  0
    2.5352   -1.3086   -0.3561 C   0  0  0  0  0  0  0  0  0  0  0  0
    3.6807   -1.5592   -1.1359 C   0  0  0  0  0  0  0  0  0  0  0  0
    3.5940   -1.9682   -2.4761 O   0  0  0  0  0  0  0  0  0  0  0  0
    2.3728   -2.1667   -3.1810 C   0  0  0  0  0  0  0  0  0  0  0  0
    1.2093   -0.5496    1.9134 S   0  0  0  0  0  6  0  0  0  0  0  0
    0.4075   -1.8116    2.0590 O   0  0  0  0  0  0  0  0  0  0  0  0
    1.5679   -0.0527    3.2860 O   0  0  0  0  0  0  0  0  0  0  0  0
    0.2786    0.6692    1.0961 N   0  0  0  0  0  0  0  0  0  0  0  0
   -0.9107    0.3909    0.2835 C   0  0  1  0  0  0  0  0  0  0  0  0
   -2.0165   -0.1803    1.1505 C   0  0  0  0  0  0  0  0  0  0  0  0
   -2.3681    0.4597    2.1793 O   0  0  0  0  0  0  0  0  0  0  0  0
   -2.6398   -1.4534    0.8713 N   0  0  0  0  0  0  0  0  0  0  0  0
   -3.6982   -1.9805    1.7210 C   0  0  0  0  0  0  0  0  0  0  0  0
   -3.9728   -3.3938    1.2249 C   0  0  0  0  0  0  0  0  0  0  0  0
   -2.7548   -3.7765    0.3921 C   0  0  0  0  0  0  0  0  0  0  0  0
   -2.1473   -2.4523   -0.0746 C   0  0  1  0  0  0  0  0  0  0  0  0
   -2.5948   -2.1186   -1.4748 C   0  0  0  0  0  0  0  0  0  0  0  0
   -1.6373   -1.8993   -2.5107 N   0  0  0  0  0  0  0  0  0  0  0  0
   -3.8245   -2.0472   -1.7420 O   0  0  0  0  0  0  0  0  0  0  0  0
   -1.2462    1.7493   -0.4613 C   0  0  2  0  0  0  0  0  0  0  0  0
   -1.2981    1.5607   -1.8577 O   0  0  0  0  0  0  0  0  0  0  0  0
   -0.0353    2.5883   -0.1431 C   0  0  0  0  0  0  0  0  0  0  0  0
    0.2877    3.8546   -0.6408 C   0  0  0  0  0  0  0  0  0  0  0  0
    1.4733    4.4674   -0.2041 C   0  0  0  0  0  0  0  0  0  0  0  0
    1.9085    6.0567   -0.8037 Cl  0  0  0  0  0  0  0  0  0  0  0  0
    2.3122    3.8077    0.7147 C   0  0  0  0  0  0  0  0  0  0  0  0
    1.9694    2.5356    1.1981 C   0  0  0  0  0  0  0  0  0  0  0  0
    0.7816    1.9481    0.7492 C   0  0  0  0  0  0  0  0  0  0  0  0
   -2.5398    2.4327    0.0332 C   0  0  0  0  0  0  0  0  0  0  0  0
   -2.5025    3.2836    1.1668 C   0  0  0  0  0  0  0  0  0  0  0  0
   -3.6606    3.8874    1.6576 C   0  0  0  0  0  0  0  0  0  0  0  0
   -4.8875    3.6442    1.0493 C   0  0  0  0  0  0  0  0  0  0  0  0
   -4.9630    2.7845   -0.0437 C   0  0  0  0  0  0  0  0  0  0  0  0
   -3.8114    2.1684   -0.5506 C   0  0  0  0  0  0  0  0  0  0  0  0
   -4.0494    1.0589   -1.8955 Cl  0  0  0  0  0  0  0  0  0  0  0  0
    8.1076   -1.7926   -1.7647 H   0  0  0  0  0  0  0  0  0  0  0  0
    7.6331   -0.4814   -0.6211 H   0  0  0  0  0  0  0  0  0  0  0  0
    7.6191   -2.2212   -0.0825 H   0  0  0  0  0  0  0  0  0  0  0  0
    6.0394   -0.8484    1.2334 H   0  0  0  0  0  0  0  0  0  0  0  0
    4.0409   -0.4093    2.5623 H   0  0  0  0  0  0  0  0  0  0  0  0
    1.5472   -1.4302   -0.7769 H   0  0  0  0  0  0  0  0  0  0  0  0
    1.7761   -2.9655   -2.6920 H   0  0  0  0  0  0  0  0  0  0  0  0
    1.7927   -1.2201   -3.2145 H   0  0  0  0  0  0  0  0  0  0  0  0
    2.6007   -2.4801   -4.2202 H   0  0  0  0  0  0  0  0  0  0  0  0
   -0.6145   -0.3536   -0.4762 H   0  0  0  0  0  0  0  0  0  0  0  0
   -4.6086   -1.3480    1.6389 H   0  0  0  0  0  0  0  0  0  0  0  0
   -3.3521   -2.0098    2.7774 H   0  0  0  0  0  0  0  0  0  0  0  0
   -4.1242   -4.1002    2.0698 H   0  0  0  0  0  0  0  0  0  0  0  0
   -4.8790   -3.3947    0.5801 H   0  0  0  0  0  0  0  0  0  0  0  0
   -2.0242   -4.3053    1.0438 H   0  0  0  0  0  0  0  0  0  0  0  0
   -3.0300   -4.4526   -0.4477 H   0  0  0  0  0  0  0  0  0  0  0  0
   -1.0404   -2.5330   -0.0229 H   0  0  0  0  0  0  0  0  0  0  0  0
   -0.6147   -1.9875   -2.3231 H   0  0  0  0  0  0  0  0  0  0  0  0
   -1.9528   -1.6516   -3.4746 H   0  0  0  0  0  0  0  0  0  0  0  0
   -0.4357    1.1692   -2.1601 H   0  0  0  0  0  0  0  0  0  0  0  0
   -0.3673    4.3514   -1.3450 H   0  0  0  0  0  0  0  0  0  0  0  0
    3.2268    4.2791    1.0507 H   0  0  0  0  0  0  0  0  0  0  0  0
    2.6172    2.0306    1.9008 H   0  0  0  0  0  0  0  0  0  0  0  0
   -1.5778    3.4762    1.6938 H   0  0  0  0  0  0  0  0  0  0  0  0
   -3.6063    4.5392    2.5201 H   0  0  0  0  0  0  0  0  0  0  0  0
   -5.7849    4.1111    1.4343 H   0  0  0  0  0  0  0  0  0  0  0  0
   -5.9278    2.5875   -0.4941 H   0  0  0  0  0  0  0  0  0  0  0  0
  1  2  1  0
  2  3  1  0
  3  4  2  0
  4  5  1  0
  5  6  2  0
  6  7  1  0
  7  8  2  0
  8  9  1  0
  9 10  1  0
  6 11  1  0
 11 12  2  0
 11 13  2  0
 11 14  1  0
 14 15  1  0
 15 16  1  0
 16 17  2  0
 16 18  1  0
 18 19  1  0
 19 20  1  0
 20 21  1  0
 21 22  1  0
 22 23  1  0
 23 24  1  0
 23 25  2  0
 15 26  1  0
 26 27  1  6
 26 28  1  0
 28 29  2  0
 29 30  1  0
 30 31  1  0
 30 32  2  0
 32 33  1  0
 33 34  2  0
 26 35  1  0
 35 36  2  0
 36 37  1  0
 37 38  2  0
 38 39  1  0
 39 40  2  0
 40 41  1  0
  8  3  1  0
 34 14  1  0
 40 35  1  0
 22 18  1  0
 34 28  1  0
  1 42  1  0
  1 43  1  0
  1 44  1  0
  4 45  1  0
  5 46  1  0
  7 47  1  0
 10 48  1  0
 10 49  1  0
 10 50  1  0
 15 51  1  6
 19 52  1  0
 19 53  1  0
 20 54  1  0
 20 55  1  0
 21 56  1  0
 21 57  1  0
 22 58  1  6
 24 59  1  0
 24 60  1  0
 27 61  1  0
 29 62  1  0
 32 63  1  0
 33 64  1  0
 36 65  1  0
 37 66  1  0
 38 67  1  0
 39 68  1  0
M  END
$$$$
