
     RDKit          3D

 46 48  0  0  0  0  0  0  0  0999 V2000
    6.5682    2.6188    0.8325 C   0  0  0  0  0  0  0  0  0  0  0  0
    5.5272    2.3505   -0.1012 O   0  0  0  0  0  0  0  0  0  0  0  0
    4.6232    1.2833    0.0063 C   0  0  0  0  0  0  0  0  0  0  0  0
    4.6664    0.3604    1.0695 C   0  0  0  0  0  0  0  0  0  0  0  0
    3.7408   -0.6859    1.1322 C   0  0  0  0  0  0  0  0  0  0  0  0
    2.7623   -0.8224    0.1394 C   0  0  0  0  0  0  0  0  0  0  0  0
    2.7212    0.0906   -0.9216 C   0  0  0  0  0  0  0  0  0  0  0  0
    3.6453    1.1371   -0.9848 C   0  0  0  0  0  0  0  0  0  0  0  0
    1.5870   -2.1298    0.2189 S   0  0  0  0  0  6  0  0  0  0  0  0
    2.0633   -3.2683   -0.6389 O   0  0  0  0  0  0  0  0  0  0  0  0
    1.4309   -2.6119    1.6340 O   0  0  0  0  0  0  0  0  0  0  0  0
    0.0504   -1.5641   -0.3523 N   0  0  0  0  0  0  0  0  0  0  0  0
   -0.6452   -2.0698   -1.3955 C   0  0  0  0  0  0  0  0  0  0  0  0
   -1.8256   -1.3551   -1.5710 C   0  0  0  0  0  0  0  0  0  0  0  0
   -2.9018   -1.6510   -2.5762 C   0  0  0  0  0  0  0  0  0  0  0  0
   -3.8452   -2.7547   -2.0858 C   0  0  0  0  0  0  0  0  0  0  0  0
   -4.6539   -2.3065   -0.9072 C   0  0  0  0  0  0  0  0  0  0  0  0
   -5.7572   -1.4808   -1.0979 O   0  0  0  0  0  0  0  0  0  0  0  0
   -4.3154   -2.6465    0.2581 O   0  0  0  0  0  0  0  0  0  0  0  0
   -1.8357   -0.3911   -0.5778 C   0  0  0  0  0  0  0  0  0  0  0  0
   -2.7755    0.5887   -0.2584 C   0  0  0  0  0  0  0  0  0  0  0  0
   -2.5112    1.4394    0.8320 C   0  0  0  0  0  0  0  0  0  0  0  0
   -3.4593    2.4234    1.1481 O   0  0  0  0  0  0  0  0  0  0  0  0
   -3.3274    3.3505    2.2205 C   0  0  0  0  0  0  0  0  0  0  0  0
   -1.3076    1.2792    1.5725 C   0  0  0  0  0  0  0  0  0  0  0  0
   -0.3816    0.2789    1.2286 C   0  0  0  0  0  0  0  0  0  0  0  0
   -0.6785   -0.5445    0.1418 C   0  0  0  0  0  0  0  0  0  0  0  0
    6.1386    2.8147    1.8376 H   0  0  0  0  0  0  0  0  0  0  0  0
    7.2712    1.7603    0.8777 H   0  0  0  0  0  0  0  0  0  0  0  0
    7.1272    3.5186    0.5035 H   0  0  0  0  0  0  0  0  0  0  0  0
    5.4094    0.4427    1.8509 H   0  0  0  0  0  0  0  0  0  0  0  0
    3.7884   -1.3871    1.9554 H   0  0  0  0  0  0  0  0  0  0  0  0
    1.9730   -0.0057   -1.6982 H   0  0  0  0  0  0  0  0  0  0  0  0
    3.6019    1.8386   -1.8083 H   0  0  0  0  0  0  0  0  0  0  0  0
   -0.3237   -2.9132   -1.9927 H   0  0  0  0  0  0  0  0  0  0  0  0
   -3.4774   -0.7290   -2.8074 H   0  0  0  0  0  0  0  0  0  0  0  0
   -2.4230   -1.9846   -3.5219 H   0  0  0  0  0  0  0  0  0  0  0  0
   -3.2624   -3.6657   -1.8256 H   0  0  0  0  0  0  0  0  0  0  0  0
   -4.5401   -3.0258   -2.9091 H   0  0  0  0  0  0  0  0  0  0  0  0
   -6.3022   -1.1523   -0.3098 H   0  0  0  0  0  0  0  0  0  0  0  0
   -3.6872    0.6957   -0.8315 H   0  0  0  0  0  0  0  0  0  0  0  0
   -2.4230    3.9779    2.0737 H   0  0  0  0  0  0  0  0  0  0  0  0
   -4.2184    4.0108    2.2404 H   0  0  0  0  0  0  0  0  0  0  0  0
   -3.2645    2.8088    3.1879 H   0  0  0  0  0  0  0  0  0  0  0  0
   -1.0834    1.9203    2.4138 H   0  0  0  0  0  0  0  0  0  0  0  0
    0.5303    0.1565    1.7976 H   0  0  0  0  0  0  0  0  0  0  0  0
  1  2  1  0
  2  3  1  0
  3  4  2  0
  4  5  1  0
  5  6  2  0
  6  7  1  0
  7  8  2  0
  6  9  1  0
  9 10  2  0
  9 11  2  0
  9 12  1  0
 12 13  1  0
 13 14  2  0
 14 15  1  0
 15 16  1  0
 16 17  1  0
 17 18  1  0
 17 19  2  0
 14 20  1  0
 20 21  2  0
 21 22  1  0
 22 23  1  0
 23 24  1  0
 22 25  2  0
 25 26  1  0
 26 27  2  0
  8  3  1  0
 27 12  1  0
 27 20  1  0
  1 28  1  0
  1 29  1  0
  1 30  1  0
  4 31  1  0
  5 32  1  0
  7 33  1  0
  8 34  1  0
 13 35  1  0
 15 36  1  0
 15 37  1  0
 16 38  1  0
 16 39  1  0
 18 40  1  0
 21 41  1  0
 24 42  1  0
 24 43  1  0
 24 44  1  0
 25 45  1  0
 26 46  1  0
M  END
$$$$
