
     RDKit          3D

 60 61  0  0  0  0  0  0  0  0999 V2000
    5.6769    2.0130   -2.9809 C   0  0  0  0  0  0  0  0  0  0  0  0
    5.2595    1.8441   -1.5198 C   0  0  0  0  0  0  0  0  0  0  0  0
    5.0154    0.3727   -1.1347 C   0  0  0  0  0  0  0  0  0  0  0  0
    3.7115   -0.2234   -1.7254 C   0  0  2  0  0  0  0  0  0  0  0  0
    2.4637    0.2775   -1.0129 C   0  0  0  0  0  0  0  0  0  0  0  0
    2.2382   -0.7350    0.1006 C   0  0  2  0  0  0  0  0  0  0  0  0
    2.7756   -2.0238   -0.3685 N   0  0  0  0  0  0  0  0  0  0  0  0
    3.4935   -2.7337    0.7021 C   0  0  0  0  0  0  0  0  0  0  0  0
    3.6503   -1.7415   -1.5205 C   0  0  0  0  0  0  0  0  0  0  0  0
    0.7760   -0.8586    0.4301 C   0  0  0  0  0  0  0  0  0  0  0  0
    0.0598   -1.6581   -0.2298 O   0  0  0  0  0  0  0  0  0  0  0  0
    0.1981    0.0028    1.4270 N   0  0  0  0  0  0  0  0  0  0  0  0
   -1.1719   -0.0774    1.9627 C   0  0  0  0  0  0  0  0  0  0  0  0
   -1.2974   -1.2446    2.9866 C   0  0  0  0  0  0  0  0  0  0  0  0
   -1.4954   -2.6363    2.3789 C   0  0  0  0  0  0  0  0  0  0  0  0
   -2.6149   -0.9284    4.1572 Cl  0  0  0  0  0  0  0  0  0  0  0  0
   -2.2618   -0.0344    0.8501 C   0  0  1  0  0  0  0  0  0  0  0  0
   -3.5487   -0.0246    1.4664 O   0  0  0  0  0  0  0  0  0  0  0  0
   -4.5843    0.5876    0.7063 C   0  0  2  0  0  0  0  0  0  0  0  0
   -6.1773   -0.1415    1.2433 S   0  0  0  0  0  0  0  0  0  0  0  0
   -7.1985    1.3372    0.9350 C   0  0  0  0  0  0  0  0  0  0  0  0
   -4.4037    0.4297   -0.8221 C   0  0  2  0  0  0  0  0  0  0  0  0
   -4.3822   -0.9351   -1.1648 O   0  0  0  0  0  0  0  0  0  0  0  0
   -3.0782    1.0916   -1.2740 C   0  0  1  0  0  0  0  0  0  0  0  0
   -3.3200    2.3863   -1.7668 O   0  0  0  0  0  0  0  0  0  0  0  0
   -2.0416    1.1560   -0.1275 C   0  0  1  0  0  0  0  0  0  0  0  0
   -2.1562    2.3768    0.5646 O   0  0  0  0  0  0  0  0  0  0  0  0
    6.5521    1.3701   -3.2138 H   0  0  0  0  0  0  0  0  0  0  0  0
    5.9606    3.0712   -3.1624 H   0  0  0  0  0  0  0  0  0  0  0  0
    4.8403    1.7608   -3.6640 H   0  0  0  0  0  0  0  0  0  0  0  0
    4.3634    2.4663   -1.3193 H   0  0  0  0  0  0  0  0  0  0  0  0
    6.0805    2.2369   -0.8816 H   0  0  0  0  0  0  0  0  0  0  0  0
    5.8898   -0.2245   -1.4750 H   0  0  0  0  0  0  0  0  0  0  0  0
    4.9894    0.2948   -0.0257 H   0  0  0  0  0  0  0  0  0  0  0  0
    3.6517    0.0014   -2.8118 H   0  0  0  0  0  0  0  0  0  0  0  0
    2.5624    1.3048   -0.6041 H   0  0  0  0  0  0  0  0  0  0  0  0
    1.6136    0.2660   -1.7327 H   0  0  0  0  0  0  0  0  0  0  0  0
    2.7838   -0.3748    1.0051 H   0  0  0  0  0  0  0  0  0  0  0  0
    4.3823   -2.1568    1.0433 H   0  0  0  0  0  0  0  0  0  0  0  0
    2.8152   -2.9028    1.5661 H   0  0  0  0  0  0  0  0  0  0  0  0
    3.8257   -3.7286    0.3360 H   0  0  0  0  0  0  0  0  0  0  0  0
    4.6641   -2.1940   -1.4226 H   0  0  0  0  0  0  0  0  0  0  0  0
    3.1866   -2.2045   -2.4183 H   0  0  0  0  0  0  0  0  0  0  0  0
    0.8062    0.7624    1.8094 H   0  0  0  0  0  0  0  0  0  0  0  0
   -1.3213    0.8470    2.5650 H   0  0  0  0  0  0  0  0  0  0  0  0
   -0.3628   -1.2734    3.5887 H   0  0  0  0  0  0  0  0  0  0  0  0
   -1.5838   -3.3852    3.1943 H   0  0  0  0  0  0  0  0  0  0  0  0
   -0.6222   -2.9292    1.7660 H   0  0  0  0  0  0  0  0  0  0  0  0
   -2.4232   -2.6851    1.7727 H   0  0  0  0  0  0  0  0  0  0  0  0
   -2.1898   -0.9660    0.2552 H   0  0  0  0  0  0  0  0  0  0  0  0
   -4.5979    1.6701    0.9586 H   0  0  0  0  0  0  0  0  0  0  0  0
   -7.1424    1.6354   -0.1313 H   0  0  0  0  0  0  0  0  0  0  0  0
   -8.2540    1.1026    1.1826 H   0  0  0  0  0  0  0  0  0  0  0  0
   -6.8609    2.1757    1.5788 H   0  0  0  0  0  0  0  0  0  0  0  0
   -5.2485    0.9327   -1.3484 H   0  0  0  0  0  0  0  0  0  0  0  0
   -5.3215   -1.2151   -1.3218 H   0  0  0  0  0  0  0  0  0  0  0  0
   -2.6353    0.4745   -2.0930 H   0  0  0  0  0  0  0  0  0  0  0  0
   -3.7112    2.2821   -2.6736 H   0  0  0  0  0  0  0  0  0  0  0  0
   -1.0324    1.0821   -0.5977 H   0  0  0  0  0  0  0  0  0  0  0  0
   -1.2469    2.6242    0.8768 H   0  0  0  0  0  0  0  0  0  0  0  0
  1  2  1  0
  2  3  1  0
  3  4  1  0
  4  5  1  0
  5  6  1  0
  6  7  1  0
  7  8  1  0
  7  9  1  0
  6 10  1  0
 10 11  2  0
 10 12  1  0
 12 13  1  0
 13 14  1  0
 14 15  1  0
 14 16  1  0
 13 17  1  0
 17 18  1  0
 18 19  1  0
 19 20  1  0
 20 21  1  0
 19 22  1  0
 22 23  1  0
 22 24  1  0
 24 25  1  0
 24 26  1  0
 26 27  1  0
  9  4  1  0
 26 17  1  0
  1 28  1  0
  1 29  1  0
  1 30  1  0
  2 31  1  0
  2 32  1  0
  3 33  1  0
  3 34  1  0
  4 35  1  6
  5 36  1  0
  5 37  1  0
  6 38  1  1
  8 39  1  0
  8 40  1  0
  8 41  1  0
  9 42  1  0
  9 43  1  0
 12 44  1  0
 13 45  1  0
 14 46  1  0
 15 47  1  0
 15 48  1  0
 15 49  1  0
 17 50  1  6
 19 51  1  6
 21 52  1  0
 21 53  1  0
 21 54  1  0
 22 55  1  6
 23 56  1  0
 24 57  1  6
 25 58  1  0
 26 59  1  6
 27 60  1  0
M  END
$$$$
