
     RDKit          3D

 28 28  0  0  0  0  0  0  0  0999 V2000
    3.0895   -1.4249    1.1299 N   0  0  0  0  0  0  0  0  0  0  0  0
    3.9722   -2.4448    1.0062 O   0  0  0  0  0  0  0  0  0  0  0  0
    2.5512   -0.7835   -0.0284 C   0  0  0  0  0  0  0  0  0  0  0  0
    2.9102   -1.1623   -1.1763 O   0  0  0  0  0  0  0  0  0  0  0  0
    1.6053    0.2845    0.1204 N   0  0  0  0  0  0  0  0  0  0  0  0
    0.9464    0.9145   -1.0309 C   0  0  1  0  0  0  0  0  0  0  0  0
   -0.2059    0.0365   -1.5591 C   0  0  0  0  0  0  0  0  0  0  0  0
   -1.2617   -0.2452   -0.5168 C   0  0  0  0  0  0  0  0  0  0  0  0
   -1.1136   -1.3252    0.3705 C   0  0  0  0  0  0  0  0  0  0  0  0
   -2.0814   -1.5715    1.3490 C   0  0  0  0  0  0  0  0  0  0  0  0
   -3.2023   -0.7433    1.4499 C   0  0  0  0  0  0  0  0  0  0  0  0
   -3.3574    0.3330    0.5721 C   0  0  0  0  0  0  0  0  0  0  0  0
   -2.3919    0.5831   -0.4079 C   0  0  0  0  0  0  0  0  0  0  0  0
    0.4735    2.3053   -0.6951 C   0  0  0  0  0  0  0  0  0  0  0  0
    0.5799    3.3141   -1.6477 O   0  0  0  0  0  0  0  0  0  0  0  0
   -0.0578    2.5547    0.4209 O   0  0  0  0  0  0  0  0  0  0  0  0
    2.7839   -1.1267    2.0831 H   0  0  0  0  0  0  0  0  0  0  0  0
    4.8639   -2.0122    1.0232 H   0  0  0  0  0  0  0  0  0  0  0  0
    1.3198    0.5511    1.0899 H   0  0  0  0  0  0  0  0  0  0  0  0
    1.6922    1.0216   -1.8495 H   0  0  0  0  0  0  0  0  0  0  0  0
    0.2101   -0.9261   -1.9285 H   0  0  0  0  0  0  0  0  0  0  0  0
   -0.6686    0.5304   -2.4421 H   0  0  0  0  0  0  0  0  0  0  0  0
   -0.2493   -1.9743    0.3051 H   0  0  0  0  0  0  0  0  0  0  0  0
   -1.9617   -2.4043    2.0300 H   0  0  0  0  0  0  0  0  0  0  0  0
   -3.9502   -0.9350    2.2084 H   0  0  0  0  0  0  0  0  0  0  0  0
   -4.2252    0.9749    0.6522 H   0  0  0  0  0  0  0  0  0  0  0  0
   -2.5221    1.4239   -1.0779 H   0  0  0  0  0  0  0  0  0  0  0  0
    0.2510    4.2517   -1.4504 H   0  0  0  0  0  0  0  0  0  0  0  0
  1  2  1  0
  1  3  1  0
  3  4  2  0
  3  5  1  0
  5  6  1  0
  6  7  1  0
  7  8  1  0
  8  9  2  0
  9 10  1  0
 10 11  2  0
 11 12  1  0
 12 13  2  0
  6 14  1  0
 14 15  1  0
 14 16  2  0
 13  8  1  0
  1 17  1  0
  2 18  1  0
  5 19  1  0
  6 20  1  6
  7 21  1  0
  7 22  1  0
  9 23  1  0
 10 24  1  0
 11 25  1  0
 12 26  1  0
 13 27  1  0
 15 28  1  0
M  END
$$$$
