
     RDKit          3D

101105  0  0  0  0  0  0  0  0999 V2000
   -3.1809   -4.2231    0.7263 C   0  0  0  0  0  0  0  0  0  0  0  0
   -1.9524   -4.8835    1.3599 C   0  0  2  0  0  0  0  0  0  0  0  0
   -1.1262   -3.9106    1.9962 O   0  0  0  0  0  0  0  0  0  0  0  0
   -0.1431   -3.3699    1.1295 C   0  0  1  0  0  0  0  0  0  0  0  0
    0.4955   -2.3081    1.8215 O   0  0  0  0  0  0  0  0  0  0  0  0
    0.8607   -1.2320    0.9697 C   0  0  2  0  0  0  0  0  0  0  0  0
    2.2244   -0.6860    1.4325 C   0  0  1  0  0  0  0  0  0  0  0  0
    3.2307   -1.6353    1.1931 O   0  0  0  0  0  0  0  0  0  0  0  0
    2.5543    0.6077    0.6713 C   0  0  2  0  0  0  0  0  0  0  0  0
    3.7907    1.1025    1.1489 O   0  0  0  0  0  0  0  0  0  0  0  0
    4.3052    2.1063    0.2904 C   0  0  0  0  0  0  0  0  0  0  0  0
    5.2640    1.5106   -0.7474 C   0  0  0  0  0  0  0  0  0  0  0  0
    6.3573    0.7085   -0.0910 C   0  0  0  0  0  0  0  0  0  0  0  0
    6.2584   -0.6895   -0.0072 C   0  0  0  0  0  0  0  0  0  0  0  0
    7.2523   -1.4352    0.6364 C   0  0  0  0  0  0  0  0  0  0  0  0
    7.1228   -2.8221    0.7015 O   0  0  0  0  0  0  0  0  0  0  0  0
    8.3584   -0.7810    1.2058 C   0  0  0  0  0  0  0  0  0  0  0  0
    9.3526   -1.5179    1.8474 O   0  0  0  0  0  0  0  0  0  0  0  0
    8.4561    0.6152    1.1269 C   0  0  0  0  0  0  0  0  0  0  0  0
    7.4601    1.3563    0.4859 C   0  0  0  0  0  0  0  0  0  0  0  0
    1.5439    1.5716    0.9154 O   0  0  0  0  0  0  0  0  0  0  0  0
    0.3125    1.1573    0.3487 C   0  0  2  0  0  0  0  0  0  0  0  0
   -0.6902    2.3132    0.4818 C   0  0  0  0  0  0  0  0  0  0  0  0
   -0.1511    3.4968   -0.0802 O   0  0  0  0  0  0  0  0  0  0  0  0
   -0.5398    3.6668   -1.4374 C   0  0  2  0  0  0  0  0  0  0  0  0
    0.5028    4.2944   -2.1683 O   0  0  0  0  0  0  0  0  0  0  0  0
    0.8860    5.5730   -1.6609 C   0  0  2  0  0  0  0  0  0  0  0  0
    2.1416    5.4393   -0.7813 C   0  0  0  0  0  0  0  0  0  0  0  0
    2.7014    6.6985   -0.5186 O   0  0  0  0  0  0  0  0  0  0  0  0
   -0.2551    6.3614   -0.9593 C   0  0  1  0  0  0  0  0  0  0  0  0
   -0.0170    7.7411   -1.0835 O   0  0  0  0  0  0  0  0  0  0  0  0
   -1.5933    5.9984   -1.6227 C   0  0  2  0  0  0  0  0  0  0  0  0
   -2.6580    6.7242   -1.0587 O   0  0  0  0  0  0  0  0  0  0  0  0
   -1.8592    4.4763   -1.5350 C   0  0  1  0  0  0  0  0  0  0  0  0
   -2.5779    4.0572   -2.6671 O   0  0  0  0  0  0  0  0  0  0  0  0
   -0.2012   -0.1177    1.0609 C   0  0  1  0  0  0  0  0  0  0  0  0
   -1.4061   -0.5726    0.4401 O   0  0  0  0  0  0  0  0  0  0  0  0
   -2.6867   -0.3648    0.9645 C   0  0  0  0  0  0  0  0  0  0  0  0
   -2.8421    0.2090    2.0779 O   0  0  0  0  0  0  0  0  0  0  0  0
   -3.8478   -0.8286    0.1901 C   0  0  0  0  0  0  0  0  0  0  0  0
   -5.0968   -0.7828    0.6733 C   0  0  0  0  0  0  0  0  0  0  0  0
   -6.2809   -1.2875   -0.0640 C   0  0  0  0  0  0  0  0  0  0  0  0
   -6.3022   -1.4147   -1.4677 C   0  0  0  0  0  0  0  0  0  0  0  0
   -7.4476   -1.8924   -2.1218 C   0  0  0  0  0  0  0  0  0  0  0  0
   -7.4652   -2.0210   -3.5097 O   0  0  0  0  0  0  0  0  0  0  0  0
   -8.5831   -2.2389   -1.3801 C   0  0  0  0  0  0  0  0  0  0  0  0
   -9.7175   -2.7162   -2.0342 O   0  0  0  0  0  0  0  0  0  0  0  0
   -8.5732   -2.1001    0.0130 C   0  0  0  0  0  0  0  0  0  0  0  0
   -7.4333   -1.6231    0.6649 C   0  0  0  0  0  0  0  0  0  0  0  0
    0.9109   -4.4509    0.7639 C   0  0  2  0  0  0  0  0  0  0  0  0
    1.4518   -4.1615   -0.5020 O   0  0  0  0  0  0  0  0  0  0  0  0
    0.2836   -5.8660    0.7603 C   0  0  2  0  0  0  0  0  0  0  0  0
    1.0134   -6.7533   -0.0535 O   0  0  0  0  0  0  0  0  0  0  0  0
   -1.1987   -5.7951    0.3527 C   0  0  1  0  0  0  0  0  0  0  0  0
   -1.7704   -7.0788    0.3634 O   0  0  0  0  0  0  0  0  0  0  0  0
   -2.8908   -3.5935   -0.1395 H   0  0  0  0  0  0  0  0  0  0  0  0
   -3.8920   -5.0008    0.3752 H   0  0  0  0  0  0  0  0  0  0  0  0
   -3.6966   -3.5877    1.4770 H   0  0  0  0  0  0  0  0  0  0  0  0
   -2.3335   -5.5366    2.1760 H   0  0  0  0  0  0  0  0  0  0  0  0
   -0.6500   -3.0146    0.1993 H   0  0  0  0  0  0  0  0  0  0  0  0
    0.9749   -1.5382   -0.0984 H   0  0  0  0  0  0  0  0  0  0  0  0
    2.1777   -0.4465    2.5223 H   0  0  0  0  0  0  0  0  0  0  0  0
    3.1912   -2.2914    1.9369 H   0  0  0  0  0  0  0  0  0  0  0  0
    2.6298    0.3671   -0.4184 H   0  0  0  0  0  0  0  0  0  0  0  0
    3.5111    2.6914   -0.2283 H   0  0  0  0  0  0  0  0  0  0  0  0
    4.8655    2.8358    0.9132 H   0  0  0  0  0  0  0  0  0  0  0  0
    5.7149    2.3371   -1.3387 H   0  0  0  0  0  0  0  0  0  0  0  0
    4.6969    0.8787   -1.4642 H   0  0  0  0  0  0  0  0  0  0  0  0
    5.4083   -1.2016   -0.4408 H   0  0  0  0  0  0  0  0  0  0  0  0
    7.8138   -3.4061    1.1571 H   0  0  0  0  0  0  0  0  0  0  0  0
   10.1590   -1.0691    2.2660 H   0  0  0  0  0  0  0  0  0  0  0  0
    9.3026    1.1277    1.5659 H   0  0  0  0  0  0  0  0  0  0  0  0
    7.5458    2.4351    0.4414 H   0  0  0  0  0  0  0  0  0  0  0  0
    0.4347    0.9456   -0.7392 H   0  0  0  0  0  0  0  0  0  0  0  0
   -1.6768    2.0397    0.0419 H   0  0  0  0  0  0  0  0  0  0  0  0
   -0.8722    2.5057    1.5608 H   0  0  0  0  0  0  0  0  0  0  0  0
   -0.7002    2.6802   -1.9339 H   0  0  0  0  0  0  0  0  0  0  0  0
    1.1885    6.1675   -2.5518 H   0  0  0  0  0  0  0  0  0  0  0  0
    1.9168    4.9022    0.1676 H   0  0  0  0  0  0  0  0  0  0  0  0
    2.8961    4.8368   -1.3298 H   0  0  0  0  0  0  0  0  0  0  0  0
    2.2664    7.0406    0.3055 H   0  0  0  0  0  0  0  0  0  0  0  0
   -0.2926    6.0795    0.1204 H   0  0  0  0  0  0  0  0  0  0  0  0
   -0.5240    8.1893   -0.3571 H   0  0  0  0  0  0  0  0  0  0  0  0
   -1.5228    6.2868   -2.6960 H   0  0  0  0  0  0  0  0  0  0  0  0
   -2.6757    6.5265   -0.0856 H   0  0  0  0  0  0  0  0  0  0  0  0
   -2.4630    4.2547   -0.6239 H   0  0  0  0  0  0  0  0  0  0  0  0
   -3.5064    4.3917   -2.5572 H   0  0  0  0  0  0  0  0  0  0  0  0
   -0.3697    0.1060    2.1391 H   0  0  0  0  0  0  0  0  0  0  0  0
   -3.6472   -1.2586   -0.7809 H   0  0  0  0  0  0  0  0  0  0  0  0
   -5.2569   -0.4111    1.6791 H   0  0  0  0  0  0  0  0  0  0  0  0
   -5.4493   -1.1254   -2.0657 H   0  0  0  0  0  0  0  0  0  0  0  0
   -6.6603   -1.7783   -4.0755 H   0  0  0  0  0  0  0  0  0  0  0  0
  -10.5544   -2.9738   -1.5241 H   0  0  0  0  0  0  0  0  0  0  0  0
   -9.4494   -2.3616    0.5926 H   0  0  0  0  0  0  0  0  0  0  0  0
   -7.4480   -1.5254    1.7438 H   0  0  0  0  0  0  0  0  0  0  0  0
    1.7195   -4.4556    1.5347 H   0  0  0  0  0  0  0  0  0  0  0  0
    2.2716   -3.6222   -0.3566 H   0  0  0  0  0  0  0  0  0  0  0  0
    0.3272   -6.2633    1.7996 H   0  0  0  0  0  0  0  0  0  0  0  0
    0.8268   -6.5250   -1.0016 H   0  0  0  0  0  0  0  0  0  0  0  0
   -1.2691   -5.3554   -0.6718 H   0  0  0  0  0  0  0  0  0  0  0  0
   -1.5327   -7.5093   -0.4990 H   0  0  0  0  0  0  0  0  0  0  0  0
  1  2  1  0
  2  3  1  0
  3  4  1  0
  4  5  1  0
  5  6  1  0
  6  7  1  0
  7  8  1  0
  7  9  1  0
  9 10  1  0
 10 11  1  0
 11 12  1  0
 12 13  1  0
 13 14  2  0
 14 15  1  0
 15 16  1  0
 15 17  2  0
 17 18  1  0
 17 19  1  0
 19 20  2  0
  9 21  1  0
 21 22  1  0
 22 23  1  0
 23 24  1  0
 24 25  1  0
 25 26  1  0
 26 27  1  0
 27 28  1  0
 28 29  1  0
 27 30  1  0
 30 31  1  0
 30 32  1  0
 32 33  1  0
 32 34  1  0
 34 35  1  0
 22 36  1  0
 36 37  1  0
 37 38  1  0
 38 39  2  0
 38 40  1  0
 40 41  2  0
 41 42  1  0
 42 43  2  0
 43 44  1  0
 44 45  1  0
 44 46  2  0
 46 47  1  0
 46 48  1  0
 48 49  2  0
  4 50  1  0
 50 51  1  0
 50 52  1  0
 52 53  1  0
 52 54  1  0
 54 55  1  0
 54  2  1  0
 36  6  1  0
 49 42  1  0
 20 13  1  0
 34 25  1  0
  1 56  1  0
  1 57  1  0
  1 58  1  0
  2 59  1  1
  4 60  1  6
  6 61  1  6
  7 62  1  1
  8 63  1  0
  9 64  1  6
 11 65  1  0
 11 66  1  0
 12 67  1  0
 12 68  1  0
 14 69  1  0
 16 70  1  0
 18 71  1  0
 19 72  1  0
 20 73  1  0
 22 74  1  6
 23 75  1  0
 23 76  1  0
 25 77  1  6
 27 78  1  6
 28 79  1  0
 28 80  1  0
 29 81  1  0
 30 82  1  1
 31 83  1  0
 32 84  1  6
 33 85  1  0
 34 86  1  1
 35 87  1  0
 36 88  1  1
 40 89  1  0
 41 90  1  0
 43 91  1  0
 45 92  1  0
 47 93  1  0
 48 94  1  0
 49 95  1  0
 50 96  1  1
 51 97  1  0
 52 98  1  1
 53 99  1  0
 54100  1  6
 55101  1  0
M  END
$$$$
