
     RDKit          3D

 27 26  0  0  0  0  0  0  0  0999 V2000
   -4.8553   -0.4064    0.6100 N   0  0  0  0  0  0  0  0  0  0  0  0
   -3.5352   -0.5458    0.0038 C   0  0  0  0  0  0  0  0  0  0  0  0
   -2.8450    0.8205   -0.0751 C   0  0  0  0  0  0  0  0  0  0  0  0
   -1.4781    0.7330   -0.7637 C   0  0  0  0  0  0  0  0  0  0  0  0
   -0.5509   -0.0861    0.0274 N   0  0  0  0  0  0  0  0  0  0  0  0
    0.7264   -0.2363   -0.6785 C   0  0  0  0  0  0  0  0  0  0  0  0
    1.6498   -1.1668    0.1068 C   0  0  0  0  0  0  0  0  0  0  0  0
    3.2203   -1.4222   -0.7939 S   0  0  0  0  0  0  0  0  0  0  0  0
    4.2914    0.1276    0.1855 P   0  0  0  0  0  5  0  0  0  0  0  0
    5.8670    0.1856   -0.4286 O   0  0  0  0  0  0  0  0  0  0  0  0
    4.3540   -0.1889    1.8466 O   0  0  0  0  0  0  0  0  0  0  0  0
    3.6138    1.4583   -0.0508 O   0  0  0  0  0  0  0  0  0  0  0  0
   -4.7273   -0.1767    1.6226 H   0  0  0  0  0  0  0  0  0  0  0  0
   -5.3216   -1.3418    0.5752 H   0  0  0  0  0  0  0  0  0  0  0  0
   -2.9200   -1.2529    0.6043 H   0  0  0  0  0  0  0  0  0  0  0  0
   -3.6490   -0.9609   -1.0219 H   0  0  0  0  0  0  0  0  0  0  0  0
   -2.7197    1.2382    0.9479 H   0  0  0  0  0  0  0  0  0  0  0  0
   -3.4895    1.5185   -0.6528 H   0  0  0  0  0  0  0  0  0  0  0  0
   -1.0718    1.7632   -0.8811 H   0  0  0  0  0  0  0  0  0  0  0  0
   -1.6138    0.2953   -1.7781 H   0  0  0  0  0  0  0  0  0  0  0  0
   -0.3633    0.4205    0.9253 H   0  0  0  0  0  0  0  0  0  0  0  0
    1.2124    0.7558   -0.8061 H   0  0  0  0  0  0  0  0  0  0  0  0
    0.5537   -0.6807   -1.6842 H   0  0  0  0  0  0  0  0  0  0  0  0
    1.1553   -2.1556    0.2133 H   0  0  0  0  0  0  0  0  0  0  0  0
    1.8262   -0.7691    1.1284 H   0  0  0  0  0  0  0  0  0  0  0  0
    5.7537    0.3238   -1.4028 H   0  0  0  0  0  0  0  0  0  0  0  0
    4.9166    0.5353    2.2207 H   0  0  0  0  0  0  0  0  0  0  0  0
  1  2  1  0
  2  3  1  0
  3  4  1  0
  4  5  1  0
  5  6  1  0
  6  7  1  0
  7  8  1  0
  8  9  1  0
  9 10  1  0
  9 11  1  0
  9 12  2  0
  1 13  1  0
  1 14  1  0
  2 15  1  0
  2 16  1  0
  3 17  1  0
  3 18  1  0
  4 19  1  0
  4 20  1  0
  5 21  1  0
  6 22  1  0
  6 23  1  0
  7 24  1  0
  7 25  1  0
 10 26  1  0
 11 27  1  0
M  END
$$$$
