
     RDKit          3D

 18 17  0  0  0  0  0  0  0  0999 V2000
   -0.4956    0.3189   -2.8065 O   0  0  0  0  0  0  0  0  0  0  0  0
   -1.2695    0.4863   -1.6492 C   0  0  0  0  0  0  0  0  0  0  0  0
   -0.5405   -0.0899   -0.4305 C   0  0  1  0  0  0  0  0  0  0  0  0
    0.6844    0.5987   -0.2687 O   0  0  0  0  0  0  0  0  0  0  0  0
    1.8367   -0.4308    0.4607 P   0  0  0  0  0  5  0  0  0  0  0  0
    3.1941    0.4825    0.8903 O   0  0  0  0  0  0  0  0  0  0  0  0
    1.1920   -1.1538    1.8498 O   0  0  0  0  0  0  0  0  0  0  0  0
    2.2547   -1.5030   -0.5205 O   0  0  0  0  0  0  0  0  0  0  0  0
   -1.3969    0.0966    0.7901 C   0  0  0  0  0  0  0  0  0  0  0  0
   -1.4427    1.3334    1.4271 O   0  0  0  0  0  0  0  0  0  0  0  0
   -2.1006   -0.8570    1.2184 O   0  0  0  0  0  0  0  0  0  0  0  0
   -0.5718   -0.6370   -3.0639 H   0  0  0  0  0  0  0  0  0  0  0  0
   -2.2606   -0.0075   -1.7775 H   0  0  0  0  0  0  0  0  0  0  0  0
   -1.4488    1.5733   -1.5003 H   0  0  0  0  0  0  0  0  0  0  0  0
   -0.4027   -1.1810   -0.6251 H   0  0  0  0  0  0  0  0  0  0  0  0
    2.8490    1.1620    1.5228 H   0  0  0  0  0  0  0  0  0  0  0  0
    1.9437   -1.6675    2.2395 H   0  0  0  0  0  0  0  0  0  0  0  0
   -2.0250    1.4759    2.2436 H   0  0  0  0  0  0  0  0  0  0  0  0
  1  2  1  0
  2  3  1  0
  3  4  1  0
  4  5  1  0
  5  6  1  0
  5  7  1  0
  5  8  2  0
  3  9  1  0
  9 10  1  0
  9 11  2  0
  1 12  1  0
  2 13  1  0
  2 14  1  0
  3 15  1  6
  6 16  1  0
  7 17  1  0
 10 18  1  0
M  END
$$$$
