
     RDKit          3D

 52 55  0  0  0  0  0  0  0  0999 V2000
   -5.6374   -2.1722   -4.4323 C   0  0  0  0  0  0  0  0  0  0  0  0
   -5.8959   -1.0653   -3.5745 O   0  0  0  0  0  0  0  0  0  0  0  0
   -5.0095   -0.5913   -2.5933 C   0  0  0  0  0  0  0  0  0  0  0  0
   -3.7577   -1.1916   -2.3737 C   0  0  0  0  0  0  0  0  0  0  0  0
   -2.8868   -0.6920   -1.4027 C   0  0  0  0  0  0  0  0  0  0  0  0
   -1.6210   -1.3406   -1.1909 N   0  0  0  0  0  0  0  0  0  0  0  0
   -0.4103   -0.6506   -0.8489 C   0  0  0  0  0  0  0  0  0  0  0  0
   -0.3220    0.7025   -0.9644 N   0  0  0  0  0  0  0  0  0  0  0  0
    0.8317    1.3565   -0.6758 C   0  0  0  0  0  0  0  0  0  0  0  0
    1.9524    0.6405   -0.2600 C   0  0  0  0  0  0  0  0  0  0  0  0
    1.8514   -0.7526   -0.1366 C   0  0  0  0  0  0  0  0  0  0  0  0
    2.9775   -1.5570    0.2472 N   0  0  0  0  0  0  0  0  0  0  0  0
    4.0400   -1.1154    1.1088 C   0  0  0  0  0  0  0  0  0  0  0  0
    3.7912   -0.2113    2.1794 C   0  0  0  0  0  0  0  0  0  0  0  0
    4.8317    0.1927    3.0369 C   0  0  0  0  0  0  0  0  0  0  0  0
    6.0983   -0.3344    2.8040 C   0  0  0  0  0  0  0  0  0  0  0  0
    7.3131   -0.1721    3.4373 C   0  0  0  0  0  0  0  0  0  0  0  0
    7.5880    0.6614    4.6450 C   0  0  0  0  0  0  0  0  0  0  0  0
    8.2339   -0.9510    2.8193 N   0  0  0  0  0  0  0  0  0  0  0  0
    7.6341   -1.5823    1.8153 N   0  0  0  0  0  0  0  0  0  0  0  0
    6.3412   -1.2193    1.7949 C   0  0  0  0  0  0  0  0  0  0  0  0
    5.3378   -1.6434    0.9279 C   0  0  0  0  0  0  0  0  0  0  0  0
    0.6788   -1.3635   -0.4550 N   0  0  0  0  0  0  0  0  0  0  0  0
   -3.2899    0.3923   -0.6120 C   0  0  0  0  0  0  0  0  0  0  0  0
   -4.5386    1.0125   -0.8132 C   0  0  0  0  0  0  0  0  0  0  0  0
   -4.9323    2.1076   -0.0276 O   0  0  0  0  0  0  0  0  0  0  0  0
   -4.1462    2.7017    1.0009 C   0  0  0  0  0  0  0  0  0  0  0  0
   -5.4042    0.5142   -1.8215 C   0  0  0  0  0  0  0  0  0  0  0  0
   -6.6691    1.0641   -2.1073 O   0  0  0  0  0  0  0  0  0  0  0  0
   -7.2732    2.1827   -1.4674 C   0  0  0  0  0  0  0  0  0  0  0  0
   -5.4911   -3.0949   -3.8318 H   0  0  0  0  0  0  0  0  0  0  0  0
   -6.5073   -2.3206   -5.1043 H   0  0  0  0  0  0  0  0  0  0  0  0
   -4.7388   -1.9725   -5.0535 H   0  0  0  0  0  0  0  0  0  0  0  0
   -3.4447   -2.0429   -2.9631 H   0  0  0  0  0  0  0  0  0  0  0  0
   -1.5554   -2.3672   -1.3765 H   0  0  0  0  0  0  0  0  0  0  0  0
    0.8815    2.4320   -0.7807 H   0  0  0  0  0  0  0  0  0  0  0  0
    2.8806    1.1604   -0.0619 H   0  0  0  0  0  0  0  0  0  0  0  0
    3.0214   -2.5330   -0.1242 H   0  0  0  0  0  0  0  0  0  0  0  0
    2.7922    0.1635    2.3596 H   0  0  0  0  0  0  0  0  0  0  0  0
    4.6487    0.8800    3.8527 H   0  0  0  0  0  0  0  0  0  0  0  0
    7.1706    1.6800    4.5022 H   0  0  0  0  0  0  0  0  0  0  0  0
    7.1170    0.1927    5.5339 H   0  0  0  0  0  0  0  0  0  0  0  0
    8.6825    0.7417    4.8126 H   0  0  0  0  0  0  0  0  0  0  0  0
    8.1075   -2.2512    1.1683 H   0  0  0  0  0  0  0  0  0  0  0  0
    5.5517   -2.3511    0.1369 H   0  0  0  0  0  0  0  0  0  0  0  0
   -2.6363    0.7334    0.1775 H   0  0  0  0  0  0  0  0  0  0  0  0
   -3.1911    3.0820    0.5809 H   0  0  0  0  0  0  0  0  0  0  0  0
   -3.9460    1.9620    1.8045 H   0  0  0  0  0  0  0  0  0  0  0  0
   -4.7061    3.5543    1.4366 H   0  0  0  0  0  0  0  0  0  0  0  0
   -7.4295    1.9709   -0.3888 H   0  0  0  0  0  0  0  0  0  0  0  0
   -8.2642    2.3675   -1.9300 H   0  0  0  0  0  0  0  0  0  0  0  0
   -6.6502    3.0905   -1.6099 H   0  0  0  0  0  0  0  0  0  0  0  0
  1  2  1  0
  2  3  1  0
  3  4  2  0
  4  5  1  0
  5  6  1  0
  6  7  1  0
  7  8  2  0
  8  9  1  0
  9 10  2  0
 10 11  1  0
 11 12  1  0
 12 13  1  0
 13 14  2  0
 14 15  1  0
 15 16  2  0
 16 17  1  0
 17 18  1  0
 17 19  2  0
 19 20  1  0
 20 21  1  0
 21 22  2  0
 11 23  2  0
  5 24  2  0
 24 25  1  0
 25 26  1  0
 26 27  1  0
 25 28  2  0
 28 29  1  0
 29 30  1  0
 28  3  1  0
 23  7  1  0
 22 13  1  0
 21 16  1  0
  1 31  1  0
  1 32  1  0
  1 33  1  0
  4 34  1  0
  6 35  1  0
  9 36  1  0
 10 37  1  0
 12 38  1  0
 14 39  1  0
 15 40  1  0
 18 41  1  0
 18 42  1  0
 18 43  1  0
 20 44  1  0
 22 45  1  0
 24 46  1  0
 27 47  1  0
 27 48  1  0
 27 49  1  0
 30 50  1  0
 30 51  1  0
 30 52  1  0
M  END
$$$$
