
     RDKit          3D

 30 31  0  0  0  0  0  0  0  0999 V2000
    3.1429   -1.0036    0.2210 N   0  0  0  0  0  0  0  0  0  0  0  0
    2.5324    0.1893   -0.3681 C   0  0  1  0  0  0  0  0  0  0  0  0
    1.3743   -0.1874   -1.3223 C   0  0  0  0  0  0  0  0  0  0  0  0
    0.2199   -0.7855   -0.6162 N   0  0  0  0  0  0  0  0  0  0  0  0
   -0.8752   -0.0294   -0.2789 C   0  0  0  0  0  0  0  0  0  0  0  0
   -1.9341   -0.5672    0.3993 C   0  0  0  0  0  0  0  0  0  0  0  0
   -3.0213    0.4114    0.6349 C   0  0  0  0  0  0  0  0  0  0  0  0
   -2.4690    1.7240    0.0539 C   0  0  0  0  0  0  0  0  0  0  0  0
   -1.1281    1.3967   -0.6286 C   0  0  0  0  0  0  0  0  0  0  0  0
   -1.9151   -1.9105    0.7505 C   0  0  0  0  0  0  0  0  0  0  0  0
   -2.8808   -2.4273    1.3739 O   0  0  0  0  0  0  0  0  0  0  0  0
   -0.8387   -2.6646    0.4003 N   0  0  0  0  0  0  0  0  0  0  0  0
    0.2141   -2.1233   -0.2839 C   0  0  0  0  0  0  0  0  0  0  0  0
    1.1732   -2.8715   -0.6185 O   0  0  0  0  0  0  0  0  0  0  0  0
    2.0788    1.1306    0.7129 C   0  0  0  0  0  0  0  0  0  0  0  0
    2.2589    2.5011    0.5541 O   0  0  0  0  0  0  0  0  0  0  0  0
    1.5119    0.6884    1.7489 O   0  0  0  0  0  0  0  0  0  0  0  0
    3.5682   -1.5678   -0.5505 H   0  0  0  0  0  0  0  0  0  0  0  0
    3.9425   -0.7020    0.8251 H   0  0  0  0  0  0  0  0  0  0  0  0
    3.3056    0.7155   -0.9732 H   0  0  0  0  0  0  0  0  0  0  0  0
    1.0682    0.7176   -1.8886 H   0  0  0  0  0  0  0  0  0  0  0  0
    1.7505   -0.8914   -2.0968 H   0  0  0  0  0  0  0  0  0  0  0  0
   -3.9397    0.0960    0.0944 H   0  0  0  0  0  0  0  0  0  0  0  0
   -3.2275    0.5101    1.7225 H   0  0  0  0  0  0  0  0  0  0  0  0
   -2.3062    2.4591    0.8727 H   0  0  0  0  0  0  0  0  0  0  0  0
   -3.1843    2.1594   -0.6776 H   0  0  0  0  0  0  0  0  0  0  0  0
   -1.2207    1.5041   -1.7307 H   0  0  0  0  0  0  0  0  0  0  0  0
   -0.3245    2.0567   -0.2448 H   0  0  0  0  0  0  0  0  0  0  0  0
   -0.8220   -3.6801    0.6498 H   0  0  0  0  0  0  0  0  0  0  0  0
    1.9457    3.1517    1.2645 H   0  0  0  0  0  0  0  0  0  0  0  0
  1  2  1  0
  2  3  1  0
  3  4  1  0
  4  5  1  0
  5  6  2  0
  6  7  1  0
  7  8  1  0
  8  9  1  0
  6 10  1  0
 10 11  2  0
 10 12  1  0
 12 13  1  0
 13 14  2  0
  2 15  1  0
 15 16  1  0
 15 17  2  0
 13  4  1  0
  9  5  1  0
  1 18  1  0
  1 19  1  0
  2 20  1  6
  3 21  1  0
  3 22  1  0
  7 23  1  0
  7 24  1  0
  8 25  1  0
  8 26  1  0
  9 27  1  0
  9 28  1  0
 12 29  1  0
 16 30  1  0
M  END
$$$$
