
     RDKit          3D

 31 33  0  0  0  0  0  0  0  0999 V2000
    2.3065   -5.6032   -1.3088 O   0  0  0  0  0  0  0  0  0  0  0  0
    1.8428   -4.3470   -0.9249 C   0  0  0  0  0  0  0  0  0  0  0  0
    2.0447   -3.9072    0.3861 C   0  0  0  0  0  0  0  0  0  0  0  0
    1.5851   -2.6487    0.7868 C   0  0  0  0  0  0  0  0  0  0  0  0
    0.9144   -1.8115   -0.1251 C   0  0  0  0  0  0  0  0  0  0  0  0
    0.7158   -2.2624   -1.4422 C   0  0  0  0  0  0  0  0  0  0  0  0
    1.1768   -3.5212   -1.8388 C   0  0  0  0  0  0  0  0  0  0  0  0
    0.4167   -0.4738    0.2721 C   0  0  0  0  0  0  0  0  0  0  0  0
    0.5262    0.1175    1.5334 C   0  0  0  0  0  0  0  0  0  0  0  0
   -0.0843    1.3418    1.3931 C   0  0  0  0  0  0  0  0  0  0  0  0
   -0.5180    1.4313    0.0990 C   0  0  0  0  0  0  0  0  0  0  0  0
   -0.2128    0.3398   -0.5592 O   0  0  0  0  0  0  0  0  0  0  0  0
   -1.1880    2.5626   -0.3778 C   0  0  0  0  0  0  0  0  0  0  0  0
   -1.6904    2.6360   -1.7911 C   0  0  0  0  0  0  0  0  0  0  0  0
   -3.0215    2.0286   -1.8811 C   0  0  0  0  0  0  0  0  0  0  0  0
   -4.0722    1.5488   -1.9521 N   0  0  0  0  0  0  0  0  0  0  0  0
   -1.4214    3.6129    0.5379 C   0  0  0  0  0  0  0  0  0  0  0  0
   -0.9713    3.5188    1.8749 C   0  0  0  0  0  0  0  0  0  0  0  0
   -1.2106    4.5733    2.7529 O   0  0  0  0  0  0  0  0  0  0  0  0
   -0.2889    2.3656    2.3137 C   0  0  0  0  0  0  0  0  0  0  0  0
    2.1756   -5.9505   -2.2518 H   0  0  0  0  0  0  0  0  0  0  0  0
    2.5592   -4.5419    1.0965 H   0  0  0  0  0  0  0  0  0  0  0  0
    1.7582   -2.3395    1.8079 H   0  0  0  0  0  0  0  0  0  0  0  0
    0.2034   -1.6417   -2.1669 H   0  0  0  0  0  0  0  0  0  0  0  0
    1.0157   -3.8534   -2.8566 H   0  0  0  0  0  0  0  0  0  0  0  0
    0.9804   -0.2811    2.4301 H   0  0  0  0  0  0  0  0  0  0  0  0
   -1.7502    3.6929   -2.1272 H   0  0  0  0  0  0  0  0  0  0  0  0
   -0.9987    2.0997   -2.4750 H   0  0  0  0  0  0  0  0  0  0  0  0
   -1.9516    4.5016    0.2182 H   0  0  0  0  0  0  0  0  0  0  0  0
   -0.9026    4.5383    3.7177 H   0  0  0  0  0  0  0  0  0  0  0  0
    0.0613    2.2738    3.3340 H   0  0  0  0  0  0  0  0  0  0  0  0
  1  2  1  0
  2  3  2  0
  3  4  1  0
  4  5  2  0
  5  6  1  0
  6  7  2  0
  5  8  1  0
  8  9  2  0
  9 10  1  0
 10 11  2  0
 11 12  1  0
 11 13  1  0
 13 14  1  0
 14 15  1  0
 15 16  3  0
 13 17  2  0
 17 18  1  0
 18 19  1  0
 18 20  2  0
  7  2  1  0
 12  8  1  0
 20 10  1  0
  1 21  1  0
  3 22  1  0
  4 23  1  0
  6 24  1  0
  7 25  1  0
  9 26  1  0
 14 27  1  0
 14 28  1  0
 17 29  1  0
 19 30  1  0
 20 31  1  0
M  END
$$$$
