
     RDKit          3D

 14 14  0  0  0  0  0  0  0  0999 V2000
    2.7034   -0.0331    0.2754 N   0  0  0  0  0  0  0  0  0  0  0  0
    1.6451    0.0979   -0.6781 C   0  0  0  0  0  0  0  0  0  0  0  0
    1.9367    0.2475   -1.8949 O   0  0  0  0  0  0  0  0  0  0  0  0
    0.2210    0.0420   -0.2822 C   0  0  0  0  0  0  0  0  0  0  0  0
   -0.7246   -0.1496   -1.2437 N   0  0  0  0  0  0  0  0  0  0  0  0
   -2.0484   -0.2032   -0.9436 C   0  0  0  0  0  0  0  0  0  0  0  0
   -2.4565   -0.0532    0.3811 C   0  0  0  0  0  0  0  0  0  0  0  0
   -1.5237    0.1514    1.3465 N   0  0  0  0  0  0  0  0  0  0  0  0
   -0.1982    0.2042    1.0501 C   0  0  0  0  0  0  0  0  0  0  0  0
    2.5278   -0.3138    1.2641 H   0  0  0  0  0  0  0  0  0  0  0  0
    3.6954    0.0688   -0.0343 H   0  0  0  0  0  0  0  0  0  0  0  0
   -2.7767   -0.3602   -1.7279 H   0  0  0  0  0  0  0  0  0  0  0  0
   -3.5061   -0.0925    0.6400 H   0  0  0  0  0  0  0  0  0  0  0  0
    0.5049    0.3938    1.8476 H   0  0  0  0  0  0  0  0  0  0  0  0
  1  2  1  0
  2  3  2  0
  2  4  1  0
  4  5  2  0
  5  6  1  0
  6  7  2  0
  7  8  1  0
  8  9  2  0
  9  4  1  0
  1 10  1  0
  1 11  1  0
  6 12  1  0
  7 13  1  0
  9 14  1  0
M  END
$$$$
