
     RDKit          3D

 75 78  0  0  0  0  0  0  0  0999 V2000
   -1.4809   -0.6704    0.6222 C   0  0  2  0  0  0  0  0  0  0  0  0
   -2.3274    0.2980    1.4653 C   0  0  0  0  0  0  0  0  0  0  0  0
   -3.7772    0.2944    1.0472 C   0  0  0  0  0  0  0  0  0  0  0  0
   -4.6245   -0.7486    1.4500 C   0  0  0  0  0  0  0  0  0  0  0  0
   -5.9599   -0.7756    1.0370 C   0  0  0  0  0  0  0  0  0  0  0  0
   -6.4679    0.2427    0.2065 C   0  0  0  0  0  0  0  0  0  0  0  0
   -7.7966    0.2696   -0.2433 O   0  0  0  0  0  0  0  0  0  0  0  0
   -8.9866   -0.9165    0.1357 P   0  0  0  0  0  5  0  0  0  0  0  0
   -8.4687   -2.4375   -0.3955 O   0  0  0  0  0  0  0  0  0  0  0  0
  -10.4350   -0.5146   -0.6408 O   0  0  0  0  0  0  0  0  0  0  0  0
   -9.2134   -0.9511    1.6302 O   0  0  0  0  0  0  0  0  0  0  0  0
   -5.6170    1.2787   -0.1963 C   0  0  0  0  0  0  0  0  0  0  0  0
   -4.2826    1.3064    0.2170 C   0  0  0  0  0  0  0  0  0  0  0  0
   -0.1394   -0.7527    1.2112 N   0  0  0  0  0  0  0  0  0  0  0  0
    0.7900   -1.6164    0.9128 C   0  0  0  0  0  0  0  0  0  0  0  0
    0.5949   -2.6843   -0.1229 C   0  0  0  0  0  0  0  0  0  0  0  0
    2.0126   -1.5477    1.5725 O   0  0  0  0  0  0  0  0  0  0  0  0
   -1.4175   -0.2018   -0.8098 C   0  0  0  0  0  0  0  0  0  0  0  0
   -2.4516   -0.5727   -1.6744 O   0  0  0  0  0  0  0  0  0  0  0  0
   -0.4258    0.5506   -1.1950 N   0  0  0  0  0  0  0  0  0  0  0  0
   -0.2236    1.1305   -2.5224 C   0  0  1  0  0  0  0  0  0  0  0  0
   -1.0894    2.3885   -2.7380 C   0  0  0  0  0  0  0  0  0  0  0  0
   -1.0503    3.4019   -1.5831 C   0  0  0  0  0  0  0  0  0  0  0  0
    0.3260    4.0440   -1.3751 C   0  0  0  0  0  0  0  0  0  0  0  0
    1.3471    3.0655   -0.7830 C   0  0  0  0  0  0  0  0  0  0  0  0
    1.9992    2.2727   -1.8363 N   0  0  0  0  0  0  0  0  0  0  0  0
    3.4680    2.2732   -1.9098 C   0  0  0  0  0  0  0  0  0  0  0  0
    4.0282    1.2115   -1.0020 C   0  0  0  0  0  0  0  0  0  0  0  0
    4.4004    1.5275    0.3127 C   0  0  0  0  0  0  0  0  0  0  0  0
    4.8943    0.5362    1.1652 C   0  0  0  0  0  0  0  0  0  0  0  0
    5.0123   -0.7939    0.7225 C   0  0  0  0  0  0  0  0  0  0  0  0
    4.6181   -1.1091   -0.5905 C   0  0  0  0  0  0  0  0  0  0  0  0
    4.1295   -0.1158   -1.4432 C   0  0  0  0  0  0  0  0  0  0  0  0
    5.5327   -1.8508    1.6288 C   0  0  0  0  0  0  0  0  0  0  0  0
    5.1777   -1.8665    2.9916 C   0  0  0  0  0  0  0  0  0  0  0  0
    5.6645   -2.8659    3.8395 C   0  0  0  0  0  0  0  0  0  0  0  0
    6.5112   -3.8578    3.3403 C   0  0  0  0  0  0  0  0  0  0  0  0
    6.8731   -3.8525    1.9916 C   0  0  0  0  0  0  0  0  0  0  0  0
    6.3881   -2.8564    1.1386 C   0  0  0  0  0  0  0  0  0  0  0  0
    1.2402    1.4249   -2.7301 C   0  0  0  0  0  0  0  0  0  0  0  0
    1.8090    0.9089   -3.7314 O   0  0  0  0  0  0  0  0  0  0  0  0
   -1.9551   -1.6758    0.6590 H   0  0  0  0  0  0  0  0  0  0  0  0
   -1.9048    1.3254    1.3982 H   0  0  0  0  0  0  0  0  0  0  0  0
   -2.2655   -0.0017    2.5347 H   0  0  0  0  0  0  0  0  0  0  0  0
   -4.2486   -1.5440    2.0817 H   0  0  0  0  0  0  0  0  0  0  0  0
   -6.5813   -1.5943    1.3690 H   0  0  0  0  0  0  0  0  0  0  0  0
   -8.2643   -2.3111   -1.3562 H   0  0  0  0  0  0  0  0  0  0  0  0
  -11.0424   -1.2736   -0.4511 H   0  0  0  0  0  0  0  0  0  0  0  0
   -5.9922    2.0662   -0.8376 H   0  0  0  0  0  0  0  0  0  0  0  0
   -3.6440    2.1138   -0.1162 H   0  0  0  0  0  0  0  0  0  0  0  0
    1.4822   -3.3512   -0.1482 H   0  0  0  0  0  0  0  0  0  0  0  0
   -0.2958   -3.2999    0.1195 H   0  0  0  0  0  0  0  0  0  0  0  0
    0.4766   -2.2268   -1.1266 H   0  0  0  0  0  0  0  0  0  0  0  0
    2.1894   -0.8365    2.2721 H   0  0  0  0  0  0  0  0  0  0  0  0
   -2.5078   -0.2826   -2.6406 H   0  0  0  0  0  0  0  0  0  0  0  0
   -0.5074    0.3808   -3.2936 H   0  0  0  0  0  0  0  0  0  0  0  0
   -0.7917    2.8909   -3.6848 H   0  0  0  0  0  0  0  0  0  0  0  0
   -2.1460    2.0710   -2.8684 H   0  0  0  0  0  0  0  0  0  0  0  0
   -1.3986    2.9315   -0.6392 H   0  0  0  0  0  0  0  0  0  0  0  0
   -1.7738    4.2123   -1.8192 H   0  0  0  0  0  0  0  0  0  0  0  0
    0.1997    4.8878   -0.6620 H   0  0  0  0  0  0  0  0  0  0  0  0
    0.7049    4.4731   -2.3286 H   0  0  0  0  0  0  0  0  0  0  0  0
    0.8803    2.3972   -0.0295 H   0  0  0  0  0  0  0  0  0  0  0  0
    2.1040    3.6599   -0.2261 H   0  0  0  0  0  0  0  0  0  0  0  0
    3.8687    3.2716   -1.6278 H   0  0  0  0  0  0  0  0  0  0  0  0
    3.8143    2.1069   -2.9528 H   0  0  0  0  0  0  0  0  0  0  0  0
    4.3146    2.5436    0.6772 H   0  0  0  0  0  0  0  0  0  0  0  0
    5.1973    0.8142    2.1667 H   0  0  0  0  0  0  0  0  0  0  0  0
    4.6684   -2.1280   -0.9529 H   0  0  0  0  0  0  0  0  0  0  0  0
    3.8286   -0.3842   -2.4477 H   0  0  0  0  0  0  0  0  0  0  0  0
    4.5100   -1.1181    3.3987 H   0  0  0  0  0  0  0  0  0  0  0  0
    5.3822   -2.8729    4.8844 H   0  0  0  0  0  0  0  0  0  0  0  0
    6.8872   -4.6302    3.9986 H   0  0  0  0  0  0  0  0  0  0  0  0
    7.5329   -4.6193    1.6067 H   0  0  0  0  0  0  0  0  0  0  0  0
    6.6963   -2.8628    0.1008 H   0  0  0  0  0  0  0  0  0  0  0  0
  1  2  1  0
  2  3  1  0
  3  4  2  0
  4  5  1  0
  5  6  2  0
  6  7  1  0
  7  8  1  0
  8  9  1  0
  8 10  1  0
  8 11  2  0
  6 12  1  0
 12 13  2  0
  1 14  1  0
 14 15  2  3
 15 16  1  0
 15 17  1  0
  1 18  1  0
 18 19  1  0
 18 20  2  3
 20 21  1  0
 21 22  1  0
 22 23  1  0
 23 24  1  0
 24 25  1  0
 25 26  1  0
 26 27  1  0
 27 28  1  0
 28 29  2  0
 29 30  1  0
 30 31  2  0
 31 32  1  0
 32 33  2  0
 31 34  1  0
 34 35  2  0
 35 36  1  0
 36 37  2  0
 37 38  1  0
 38 39  2  0
 26 40  1  0
 40 41  2  0
 13  3  1  0
 40 21  1  0
 33 28  1  0
 39 34  1  0
  1 42  1  6
  2 43  1  0
  2 44  1  0
  4 45  1  0
  5 46  1  0
  9 47  1  0
 10 48  1  0
 12 49  1  0
 13 50  1  0
 16 51  1  0
 16 52  1  0
 16 53  1  0
 17 54  1  0
 19 55  1  0
 21 56  1  6
 22 57  1  0
 22 58  1  0
 23 59  1  0
 23 60  1  0
 24 61  1  0
 24 62  1  0
 25 63  1  0
 25 64  1  0
 27 65  1  0
 27 66  1  0
 29 67  1  0
 30 68  1  0
 32 69  1  0
 33 70  1  0
 35 71  1  0
 36 72  1  0
 37 73  1  0
 38 74  1  0
 39 75  1  0
M  END
$$$$
