
     RDKit          3D

 70 76  0  0  0  0  0  0  0  0999 V2000
   -3.6588    1.3901   -0.9730 C   0  0  1  0  0  0  0  0  0  0  0  0
   -3.7353    1.7380    0.4837 C   0  0  0  0  0  0  0  0  0  0  0  0
   -3.8427    3.1092    0.7814 C   0  0  0  0  0  0  0  0  0  0  0  0
   -3.7921    3.5649    2.0955 C   0  0  0  0  0  0  0  0  0  0  0  0
   -3.6118    2.6608    3.1344 C   0  0  0  0  0  0  0  0  0  0  0  0
   -3.4946    1.2990    2.8615 C   0  0  0  0  0  0  0  0  0  0  0  0
   -3.5589    0.8022    1.5367 C   0  0  0  0  0  0  0  0  0  0  0  0
   -3.4948   -0.7202    1.3478 C   0  0  2  0  0  0  0  0  0  0  0  0
   -2.1565   -1.2885    1.0179 N   0  0  0  0  0  0  0  0  0  0  0  0
   -1.6893   -1.0986   -0.3653 C   0  0  0  0  0  0  0  0  0  0  0  0
   -0.3878   -1.8750   -0.5942 C   0  0  0  0  0  0  0  0  0  0  0  0
    0.6444   -1.4363    0.3637 N   0  0  0  0  0  0  0  0  0  0  0  0
    1.9348   -2.1239    0.1223 C   0  0  0  0  0  0  0  0  0  0  0  0
    3.0785   -1.1004    0.1309 C   0  0  1  0  0  0  0  0  0  0  0  0
    3.1700   -0.5090    1.4013 O   0  0  0  0  0  0  0  0  0  0  0  0
    4.4133   -1.7794   -0.2201 C   0  0  0  0  0  0  0  0  0  0  0  0
    5.4761   -0.8261   -0.2568 O   0  0  0  0  0  0  0  0  0  0  0  0
    5.6921    0.1270   -1.2694 C   0  0  0  0  0  0  0  0  0  0  0  0
    4.9455    0.1304   -2.4660 C   0  0  0  0  0  0  0  0  0  0  0  0
    5.1862    1.0907   -3.4518 C   0  0  0  0  0  0  0  0  0  0  0  0
    6.1728    2.0592   -3.2669 C   0  0  0  0  0  0  0  0  0  0  0  0
    6.9278    2.0729   -2.0917 C   0  0  0  0  0  0  0  0  0  0  0  0
    6.6922    1.1051   -1.0858 C   0  0  0  0  0  0  0  0  0  0  0  0
    7.4707    1.1533    0.0832 C   0  0  0  0  0  0  0  0  0  0  0  0
    8.4494    2.1378    0.2308 C   0  0  0  0  0  0  0  0  0  0  0  0
    8.6465    3.0704   -0.7885 C   0  0  0  0  0  0  0  0  0  0  0  0
    7.8897    3.0191   -1.9160 N   0  0  0  0  0  0  0  0  0  0  0  0
    0.1706   -1.6525    1.7444 C   0  0  0  0  0  0  0  0  0  0  0  0
   -1.1185   -0.8648    1.9813 C   0  0  0  0  0  0  0  0  0  0  0  0
   -4.6544   -1.3167    0.5458 C   0  0  0  0  0  0  0  0  0  0  0  0
   -5.3450   -2.4146    1.1127 C   0  0  0  0  0  0  0  0  0  0  0  0
   -6.4847   -2.9447    0.5099 C   0  0  0  0  0  0  0  0  0  0  0  0
   -6.9585   -2.4041   -0.6790 C   0  0  0  0  0  0  0  0  0  0  0  0
   -6.2763   -1.3514   -1.2829 C   0  0  0  0  0  0  0  0  0  0  0  0
   -5.1248   -0.7990   -0.6927 C   0  0  0  0  0  0  0  0  0  0  0  0
   -4.3494    0.1598   -1.5524 C   0  0  1  0  0  0  0  0  0  0  0  0
   -4.9937    1.5303   -1.6968 C   0  0  0  0  0  0  0  0  0  0  0  0
   -4.9286    2.0833   -2.9628 F   0  0  0  0  0  0  0  0  0  0  0  0
   -6.1152    1.7803   -0.9189 F   0  0  0  0  0  0  0  0  0  0  0  0
   -2.8031    1.7888   -1.5589 H   0  0  0  0  0  0  0  0  0  0  0  0
   -3.9520    3.8345   -0.0165 H   0  0  0  0  0  0  0  0  0  0  0  0
   -3.8777    4.6231    2.3066 H   0  0  0  0  0  0  0  0  0  0  0  0
   -3.5631    3.0146    4.1563 H   0  0  0  0  0  0  0  0  0  0  0  0
   -3.3575    0.6280    3.7006 H   0  0  0  0  0  0  0  0  0  0  0  0
   -3.6898   -1.1116    2.3713 H   0  0  0  0  0  0  0  0  0  0  0  0
   -1.5006   -0.0254   -0.5729 H   0  0  0  0  0  0  0  0  0  0  0  0
   -2.4295   -1.5122   -1.0764 H   0  0  0  0  0  0  0  0  0  0  0  0
   -0.0468   -1.6730   -1.6340 H   0  0  0  0  0  0  0  0  0  0  0  0
   -0.5795   -2.9681   -0.4932 H   0  0  0  0  0  0  0  0  0  0  0  0
    1.9436   -2.6346   -0.8685 H   0  0  0  0  0  0  0  0  0  0  0  0
    2.1333   -2.9169    0.8802 H   0  0  0  0  0  0  0  0  0  0  0  0
    2.8432   -0.3245   -0.6337 H   0  0  0  0  0  0  0  0  0  0  0  0
    3.6309    0.3623    1.2819 H   0  0  0  0  0  0  0  0  0  0  0  0
    4.6514   -2.5298    0.5640 H   0  0  0  0  0  0  0  0  0  0  0  0
    4.3517   -2.3262   -1.1851 H   0  0  0  0  0  0  0  0  0  0  0  0
    4.1766   -0.6056   -2.6509 H   0  0  0  0  0  0  0  0  0  0  0  0
    4.6051    1.0825   -4.3651 H   0  0  0  0  0  0  0  0  0  0  0  0
    6.3497    2.7979   -4.0390 H   0  0  0  0  0  0  0  0  0  0  0  0
    7.3269    0.4364    0.8820 H   0  0  0  0  0  0  0  0  0  0  0  0
    9.0511    2.1781    1.1297 H   0  0  0  0  0  0  0  0  0  0  0  0
    9.4024    3.8370   -0.6831 H   0  0  0  0  0  0  0  0  0  0  0  0
    0.9340   -1.2996    2.4708 H   0  0  0  0  0  0  0  0  0  0  0  0
   -0.0180   -2.7343    1.9339 H   0  0  0  0  0  0  0  0  0  0  0  0
   -0.9052    0.2231    1.8780 H   0  0  0  0  0  0  0  0  0  0  0  0
   -1.4549   -1.0615    3.0229 H   0  0  0  0  0  0  0  0  0  0  0  0
   -5.0126   -2.8589    2.0430 H   0  0  0  0  0  0  0  0  0  0  0  0
   -7.0036   -3.7759    0.9700 H   0  0  0  0  0  0  0  0  0  0  0  0
   -7.8408   -2.8190   -1.1491 H   0  0  0  0  0  0  0  0  0  0  0  0
   -6.6313   -0.9818   -2.2378 H   0  0  0  0  0  0  0  0  0  0  0  0
   -3.9226   -0.2259   -2.5032 H   0  0  0  0  0  0  0  0  0  0  0  0
  1  2  1  0
  2  3  2  0
  3  4  1  0
  4  5  2  0
  5  6  1  0
  6  7  2  0
  7  8  1  0
  8  9  1  0
  9 10  1  0
 10 11  1  0
 11 12  1  0
 12 13  1  0
 13 14  1  0
 14 15  1  0
 14 16  1  0
 16 17  1  0
 17 18  1  0
 18 19  2  0
 19 20  1  0
 20 21  2  0
 21 22  1  0
 22 23  2  0
 23 24  1  0
 24 25  2  0
 25 26  1  0
 26 27  2  0
 12 28  1  0
 28 29  1  0
  8 30  1  0
 30 31  2  0
 31 32  1  0
 32 33  2  0
 33 34  1  0
 34 35  2  0
 35 36  1  0
 36 37  1  0
 37 38  1  0
 37 39  1  0
 36  1  1  0
 37  1  1  0
  7  2  1  0
 29  9  1  0
 35 30  1  0
 23 18  1  0
 27 22  1  0
  1 40  1  6
  3 41  1  0
  4 42  1  0
  5 43  1  0
  6 44  1  0
  8 45  1  1
 10 46  1  0
 10 47  1  0
 11 48  1  0
 11 49  1  0
 13 50  1  0
 13 51  1  0
 14 52  1  6
 15 53  1  0
 16 54  1  0
 16 55  1  0
 19 56  1  0
 20 57  1  0
 21 58  1  0
 24 59  1  0
 25 60  1  0
 26 61  1  0
 28 62  1  0
 28 63  1  0
 29 64  1  0
 29 65  1  0
 31 66  1  0
 32 67  1  0
 33 68  1  0
 34 69  1  0
 36 70  1  6
M  END
$$$$
