
     RDKit          3D

 49 49  0  0  0  0  0  0  0  0999 V2000
   -4.7693    1.4975    0.2847 C   0  0  0  0  0  0  0  0  0  0  0  0
   -5.3087    0.1124   -0.1095 C   0  0  0  0  0  0  0  0  0  0  0  0
   -6.8282    0.0822    0.0964 C   0  0  0  0  0  0  0  0  0  0  0  0
   -4.6923   -0.9658    0.6919 N   0  0  0  0  0  0  0  0  0  0  0  0
   -3.2253   -1.0750    0.5767 C   0  0  0  0  0  0  0  0  0  0  0  0
   -2.7341   -1.3912   -0.8579 C   0  0  0  0  0  0  0  0  0  0  0  0
   -3.3875   -2.5212   -1.3796 O   0  0  0  0  0  0  0  0  0  0  0  0
   -1.2134   -1.5962   -0.8931 C   0  0  0  0  0  0  0  0  0  0  0  0
   -0.5574   -0.3896   -0.5093 O   0  0  0  0  0  0  0  0  0  0  0  0
    0.8343   -0.2192   -0.4192 C   0  0  0  0  0  0  0  0  0  0  0  0
    1.3441    1.0265    0.0027 C   0  0  0  0  0  0  0  0  0  0  0  0
    0.3862    2.1494    0.3334 C   0  0  0  0  0  0  0  0  0  0  0  0
    2.7427    1.1930    0.1736 C   0  0  0  0  0  0  0  0  0  0  0  0
    3.3070    2.5028    0.6762 C   0  0  0  0  0  0  0  0  0  0  0  0
    3.6185    0.1366   -0.1575 C   0  0  0  0  0  0  0  0  0  0  0  0
    5.0010    0.3186   -0.0188 O   0  0  0  0  0  0  0  0  0  0  0  0
    5.7769   -0.3972    0.8991 C   0  0  0  0  0  0  0  0  0  0  0  0
    7.2566   -0.2201    0.9034 C   0  0  0  0  0  0  0  0  0  0  0  0
    5.2339   -1.1377    1.7636 O   0  0  0  0  0  0  0  0  0  0  0  0
    3.1048   -1.0805   -0.6491 C   0  0  0  0  0  0  0  0  0  0  0  0
    4.0167   -2.2081   -1.0525 C   0  0  0  0  0  0  0  0  0  0  0  0
    1.7207   -1.2592   -0.7422 C   0  0  0  0  0  0  0  0  0  0  0  0
   -5.3715    2.3003   -0.1921 H   0  0  0  0  0  0  0  0  0  0  0  0
   -4.8050    1.6291    1.3873 H   0  0  0  0  0  0  0  0  0  0  0  0
   -3.7249    1.6258   -0.0679 H   0  0  0  0  0  0  0  0  0  0  0  0
   -5.1265   -0.0548   -1.1927 H   0  0  0  0  0  0  0  0  0  0  0  0
   -7.2377   -0.9009   -0.2196 H   0  0  0  0  0  0  0  0  0  0  0  0
   -7.3192    0.8693   -0.5151 H   0  0  0  0  0  0  0  0  0  0  0  0
   -7.0785    0.2458    1.1668 H   0  0  0  0  0  0  0  0  0  0  0  0
   -5.1113   -1.8831    0.4098 H   0  0  0  0  0  0  0  0  0  0  0  0
   -2.7409   -0.1523    0.9587 H   0  0  0  0  0  0  0  0  0  0  0  0
   -2.8902   -1.8899    1.2552 H   0  0  0  0  0  0  0  0  0  0  0  0
   -2.9566   -0.5279   -1.5192 H   0  0  0  0  0  0  0  0  0  0  0  0
   -3.1765   -3.2891   -0.7859 H   0  0  0  0  0  0  0  0  0  0  0  0
   -0.9253   -2.4184   -0.2017 H   0  0  0  0  0  0  0  0  0  0  0  0
   -0.9094   -1.8674   -1.9277 H   0  0  0  0  0  0  0  0  0  0  0  0
   -0.6061    2.0081   -0.1429 H   0  0  0  0  0  0  0  0  0  0  0  0
    0.2465    2.2055    1.4332 H   0  0  0  0  0  0  0  0  0  0  0  0
    0.7759    3.1199   -0.0382 H   0  0  0  0  0  0  0  0  0  0  0  0
    3.2904    3.2520   -0.1426 H   0  0  0  0  0  0  0  0  0  0  0  0
    2.7108    2.8803    1.5331 H   0  0  0  0  0  0  0  0  0  0  0  0
    4.3502    2.4015    1.0397 H   0  0  0  0  0  0  0  0  0  0  0  0
    7.5309    0.5802    1.6216 H   0  0  0  0  0  0  0  0  0  0  0  0
    7.6058    0.0646   -0.1112 H   0  0  0  0  0  0  0  0  0  0  0  0
    7.7540   -1.1674    1.2007 H   0  0  0  0  0  0  0  0  0  0  0  0
    4.9559   -1.8172   -1.4975 H   0  0  0  0  0  0  0  0  0  0  0  0
    4.2588   -2.8284   -0.1649 H   0  0  0  0  0  0  0  0  0  0  0  0
    3.5336   -2.8546   -1.8160 H   0  0  0  0  0  0  0  0  0  0  0  0
    1.3399   -2.2124   -1.0838 H   0  0  0  0  0  0  0  0  0  0  0  0
  1  2  1  0
  2  3  1  0
  2  4  1  0
  4  5  1  0
  5  6  1  0
  6  7  1  0
  6  8  1  0
  8  9  1  0
  9 10  1  0
 10 11  2  0
 11 12  1  0
 11 13  1  0
 13 14  1  0
 13 15  2  0
 15 16  1  0
 16 17  1  0
 17 18  1  0
 17 19  2  0
 15 20  1  0
 20 21  1  0
 20 22  2  0
 22 10  1  0
  1 23  1  0
  1 24  1  0
  1 25  1  0
  2 26  1  0
  3 27  1  0
  3 28  1  0
  3 29  1  0
  4 30  1  0
  5 31  1  0
  5 32  1  0
  6 33  1  0
  7 34  1  0
  8 35  1  0
  8 36  1  0
 12 37  1  0
 12 38  1  0
 12 39  1  0
 14 40  1  0
 14 41  1  0
 14 42  1  0
 18 43  1  0
 18 44  1  0
 18 45  1  0
 21 46  1  0
 21 47  1  0
 21 48  1  0
 22 49  1  0
M  END
$$$$
