
     RDKit          3D

 28 28  0  0  0  0  0  0  0  0999 V2000
   -4.2750   -1.8102   -0.2304 O   0  0  0  0  0  0  0  0  0  0  0  0
   -3.1047   -1.3594   -0.8348 C   0  0  0  0  0  0  0  0  0  0  0  0
   -2.7030   -1.9302   -1.8852 O   0  0  0  0  0  0  0  0  0  0  0  0
   -2.3352   -0.2257   -0.2588 C   0  0  0  0  0  0  0  0  0  0  0  0
   -2.7570    0.4369    0.9171 C   0  0  0  0  0  0  0  0  0  0  0  0
   -3.9219    0.0477    1.5781 O   0  0  0  0  0  0  0  0  0  0  0  0
   -1.9988    1.4984    1.4318 C   0  0  0  0  0  0  0  0  0  0  0  0
   -0.8297    1.9096    0.7924 C   0  0  0  0  0  0  0  0  0  0  0  0
   -0.4045    1.2691   -0.3744 C   0  0  0  0  0  0  0  0  0  0  0  0
   -1.1523    0.2036   -0.8932 C   0  0  0  0  0  0  0  0  0  0  0  0
    1.0869    1.7836   -1.1601 S   0  0  0  0  0  6  0  0  0  0  0  0
    1.1363    3.2856   -1.1795 O   0  0  0  0  0  0  0  0  0  0  0  0
    1.1227    1.2885   -2.5800 O   0  0  0  0  0  0  0  0  0  0  0  0
    2.4617    1.1775   -0.2872 N   0  0  0  0  0  0  0  0  0  0  0  0
    2.4752   -0.2861   -0.3394 C   0  0  0  0  0  0  0  0  0  0  0  0
    3.6372   -0.8260    0.4893 C   0  0  0  0  0  0  0  0  0  0  0  0
    3.6358   -2.6444    0.4583 S   0  0  0  0  0  0  0  0  0  0  0  0
   -4.7997   -2.5830   -0.6226 H   0  0  0  0  0  0  0  0  0  0  0  0
   -4.2368    0.5123    2.4219 H   0  0  0  0  0  0  0  0  0  0  0  0
   -2.3160    2.0061    2.3339 H   0  0  0  0  0  0  0  0  0  0  0  0
   -0.2540    2.7265    1.2090 H   0  0  0  0  0  0  0  0  0  0  0  0
   -0.8050   -0.2948   -1.7894 H   0  0  0  0  0  0  0  0  0  0  0  0
    3.3115    1.5294   -0.7860 H   0  0  0  0  0  0  0  0  0  0  0  0
    1.5283   -0.6883    0.0821 H   0  0  0  0  0  0  0  0  0  0  0  0
    2.5808   -0.6346   -1.3914 H   0  0  0  0  0  0  0  0  0  0  0  0
    3.5409   -0.4822    1.5415 H   0  0  0  0  0  0  0  0  0  0  0  0
    4.6009   -0.4595    0.0754 H   0  0  0  0  0  0  0  0  0  0  0  0
    4.7751   -2.7233    1.2814 H   0  0  0  0  0  0  0  0  0  0  0  0
  1  2  1  0
  2  3  2  0
  2  4  1  0
  4  5  2  0
  5  6  1  0
  5  7  1  0
  7  8  2  0
  8  9  1  0
  9 10  2  0
  9 11  1  0
 11 12  2  0
 11 13  2  0
 11 14  1  0
 14 15  1  0
 15 16  1  0
 16 17  1  0
 10  4  1  0
  1 18  1  0
  6 19  1  0
  7 20  1  0
  8 21  1  0
 10 22  1  0
 14 23  1  0
 15 24  1  0
 15 25  1  0
 16 26  1  0
 16 27  1  0
 17 28  1  0
M  END
$$$$
