
     RDKit          3D

 28 28  0  0  0  0  0  0  0  0999 V2000
   -2.6143   -0.6177    1.6043 O   0  0  0  0  0  0  0  0  0  0  0  0
   -2.3278   -1.1235    0.3261 C   0  0  1  0  0  0  0  0  0  0  0  0
   -2.7607   -0.1170   -0.7587 C   0  0  0  0  0  0  0  0  0  0  0  0
   -1.9371    1.1819   -0.6767 C   0  0  1  0  0  0  0  0  0  0  0  0
   -2.5907    2.1207    0.1391 O   0  0  0  0  0  0  0  0  0  0  0  0
   -0.5212    0.9222   -0.1142 C   0  0  2  0  0  0  0  0  0  0  0  0
    0.3908    1.8092   -0.7104 O   0  0  0  0  0  0  0  0  0  0  0  0
   -0.0978   -0.5480   -0.3764 C   0  0  1  0  0  0  0  0  0  0  0  0
    1.3380   -0.8145    0.1013 C   0  0  0  0  0  0  0  0  0  0  0  0
    2.2554   -0.1537   -0.7392 O   0  0  0  0  0  0  0  0  0  0  0  0
    3.8231   -0.3916   -0.1136 P   0  0  0  0  0  5  0  0  0  0  0  0
    4.1593   -2.0470    0.0001 O   0  0  0  0  0  0  0  0  0  0  0  0
    3.9495    0.3185    1.4183 O   0  0  0  0  0  0  0  0  0  0  0  0
    4.8256    0.2538   -1.0430 O   0  0  0  0  0  0  0  0  0  0  0  0
   -0.9516   -1.4877    0.2717 O   0  0  0  0  0  0  0  0  0  0  0  0
   -3.6005   -0.6522    1.7146 H   0  0  0  0  0  0  0  0  0  0  0  0
   -2.9158   -2.0566    0.1692 H   0  0  0  0  0  0  0  0  0  0  0  0
   -3.8475    0.1005   -0.6673 H   0  0  0  0  0  0  0  0  0  0  0  0
   -2.6073   -0.5869   -1.7553 H   0  0  0  0  0  0  0  0  0  0  0  0
   -1.8438    1.5916   -1.7111 H   0  0  0  0  0  0  0  0  0  0  0  0
   -3.3369    2.4983   -0.3962 H   0  0  0  0  0  0  0  0  0  0  0  0
   -0.5222    1.0786    0.9912 H   0  0  0  0  0  0  0  0  0  0  0  0
    0.2366    2.6984   -0.2964 H   0  0  0  0  0  0  0  0  0  0  0  0
   -0.1275   -0.7458   -1.4722 H   0  0  0  0  0  0  0  0  0  0  0  0
    1.4306   -0.4727    1.1582 H   0  0  0  0  0  0  0  0  0  0  0  0
    1.5163   -1.9133    0.0602 H   0  0  0  0  0  0  0  0  0  0  0  0
    5.0396   -2.0957    0.4513 H   0  0  0  0  0  0  0  0  0  0  0  0
    3.6378    1.2501    1.2910 H   0  0  0  0  0  0  0  0  0  0  0  0
  1  2  1  0
  2  3  1  0
  3  4  1  0
  4  5  1  0
  4  6  1  0
  6  7  1  0
  6  8  1  0
  8  9  1  0
  9 10  1  0
 10 11  1  0
 11 12  1  0
 11 13  1  0
 11 14  2  0
  8 15  1  0
 15  2  1  0
  1 16  1  0
  2 17  1  6
  3 18  1  0
  3 19  1  0
  4 20  1  6
  5 21  1  0
  6 22  1  1
  7 23  1  0
  8 24  1  6
  9 25  1  0
  9 26  1  0
 12 27  1  0
 13 28  1  0
M  END
$$$$
