
     RDKit          3D

 44 45  0  0  0  0  0  0  0  0999 V2000
   -1.7470    0.1063   -2.4449 C   0  0  0  0  0  0  0  0  0  0  0  0
   -2.2098    1.1518   -1.4151 C   0  0  0  0  0  0  0  0  0  0  0  0
   -1.0667    1.5678   -0.4761 C   0  0  0  0  0  0  0  0  0  0  0  0
   -0.6590    0.4754    0.5360 C   0  0  0  0  0  0  0  0  0  0  0  0
   -1.7966   -0.5171    0.8806 C   0  0  0  0  0  0  0  0  0  0  0  0
   -3.2212    0.0827    0.7782 C   0  0  0  0  0  0  0  0  0  0  0  0
   -4.2439   -1.0493    1.0248 C   0  0  0  0  0  0  0  0  0  0  0  0
   -3.4293    1.1439    1.8864 C   0  0  0  0  0  0  0  0  0  0  0  0
   -3.4760    0.6999   -0.6383 C   0  0  0  0  0  0  0  0  0  0  0  0
    0.4606   -0.2402    0.0122 O   0  0  0  0  0  0  0  0  0  0  0  0
    1.2918   -1.0583    0.7862 C   0  0  0  0  0  0  0  0  0  0  0  0
    1.1197   -1.1516    2.0323 O   0  0  0  0  0  0  0  0  0  0  0  0
    2.4361   -1.7888    0.1377 C   0  0  0  0  0  0  0  0  0  0  0  0
    2.0601   -2.3191   -1.1098 O   0  0  0  0  0  0  0  0  0  0  0  0
    3.6536   -0.8944    0.0073 C   0  0  0  0  0  0  0  0  0  0  0  0
    3.5957    0.3094   -0.7228 C   0  0  0  0  0  0  0  0  0  0  0  0
    4.7274    1.1223   -0.8378 C   0  0  0  0  0  0  0  0  0  0  0  0
    5.9268    0.7440   -0.2306 C   0  0  0  0  0  0  0  0  0  0  0  0
    5.9975   -0.4487    0.4926 C   0  0  0  0  0  0  0  0  0  0  0  0
    4.8689   -1.2656    0.6114 C   0  0  0  0  0  0  0  0  0  0  0  0
   -0.8596    0.4811   -2.9981 H   0  0  0  0  0  0  0  0  0  0  0  0
   -2.5539   -0.0803   -3.1852 H   0  0  0  0  0  0  0  0  0  0  0  0
   -1.4814   -0.8566   -1.9672 H   0  0  0  0  0  0  0  0  0  0  0  0
   -2.4879    2.0546   -2.0044 H   0  0  0  0  0  0  0  0  0  0  0  0
   -1.3787    2.4830    0.0698 H   0  0  0  0  0  0  0  0  0  0  0  0
   -0.1812    1.8760   -1.0754 H   0  0  0  0  0  0  0  0  0  0  0  0
   -0.3433    0.9958    1.4685 H   0  0  0  0  0  0  0  0  0  0  0  0
   -1.6275   -0.9098    1.9078 H   0  0  0  0  0  0  0  0  0  0  0  0
   -1.7275   -1.3986    0.2076 H   0  0  0  0  0  0  0  0  0  0  0  0
   -4.1057   -1.4946    2.0340 H   0  0  0  0  0  0  0  0  0  0  0  0
   -4.1256   -1.8593    0.2727 H   0  0  0  0  0  0  0  0  0  0  0  0
   -5.2828   -0.6601    0.9536 H   0  0  0  0  0  0  0  0  0  0  0  0
   -4.4715    1.5297    1.8675 H   0  0  0  0  0  0  0  0  0  0  0  0
   -3.2462    0.7027    2.8900 H   0  0  0  0  0  0  0  0  0  0  0  0
   -2.7489    2.0083    1.7690 H   0  0  0  0  0  0  0  0  0  0  0  0
   -4.1540    1.5767   -0.5382 H   0  0  0  0  0  0  0  0  0  0  0  0
   -4.0430   -0.0134   -1.2774 H   0  0  0  0  0  0  0  0  0  0  0  0
    2.6851   -2.6548    0.7898 H   0  0  0  0  0  0  0  0  0  0  0  0
    1.8185   -1.5666   -1.7103 H   0  0  0  0  0  0  0  0  0  0  0  0
    2.6770    0.6224   -1.2016 H   0  0  0  0  0  0  0  0  0  0  0  0
    4.6740    2.0464   -1.3988 H   0  0  0  0  0  0  0  0  0  0  0  0
    6.8017    1.3748   -0.3211 H   0  0  0  0  0  0  0  0  0  0  0  0
    6.9281   -0.7413    0.9617 H   0  0  0  0  0  0  0  0  0  0  0  0
    4.9454   -2.1867    1.1757 H   0  0  0  0  0  0  0  0  0  0  0  0
  1  2  1  0
  2  3  1  0
  3  4  1  0
  4  5  1  0
  5  6  1  0
  6  7  1  0
  6  8  1  0
  6  9  1  0
  4 10  1  0
 10 11  1  0
 11 12  2  0
 11 13  1  0
 13 14  1  0
 13 15  1  0
 15 16  2  0
 16 17  1  0
 17 18  2  0
 18 19  1  0
 19 20  2  0
  9  2  1  0
 20 15  1  0
  1 21  1  0
  1 22  1  0
  1 23  1  0
  2 24  1  0
  3 25  1  0
  3 26  1  0
  4 27  1  0
  5 28  1  0
  5 29  1  0
  7 30  1  0
  7 31  1  0
  7 32  1  0
  8 33  1  0
  8 34  1  0
  8 35  1  0
  9 36  1  0
  9 37  1  0
 13 38  1  0
 14 39  1  0
 16 40  1  0
 17 41  1  0
 18 42  1  0
 19 43  1  0
 20 44  1  0
M  END
$$$$
