
     RDKit          3D

119128  0  0  0  0  0  0  0  0999 V2000
  -13.8035   -1.3383    3.1259 C   0  0  0  0  0  0  0  0  0  0  0  0
  -12.9479   -0.3122    3.6142 O   0  0  0  0  0  0  0  0  0  0  0  0
  -11.5574   -0.3710    3.4901 C   0  0  0  0  0  0  0  0  0  0  0  0
  -11.0108   -1.3841    2.9775 O   0  0  0  0  0  0  0  0  0  0  0  0
  -10.7695    0.7369    3.9517 N   0  0  0  0  0  0  0  0  0  0  0  0
   -9.3282    0.9273    3.7207 C   0  0  1  0  0  0  0  0  0  0  0  0
   -8.4653   -0.2568    4.2441 C   0  0  0  0  0  0  0  0  0  0  0  0
   -8.8092   -0.5895    5.7048 C   0  0  0  0  0  0  0  0  0  0  0  0
   -6.9637    0.0595    4.1376 C   0  0  0  0  0  0  0  0  0  0  0  0
   -9.0605    1.2705    2.2713 C   0  0  0  0  0  0  0  0  0  0  0  0
   -8.3356    2.2648    1.9981 O   0  0  0  0  0  0  0  0  0  0  0  0
   -9.6227    0.5055    1.1977 N   0  0  0  0  0  0  0  0  0  0  0  0
  -10.7395    1.0064    0.4148 C   0  0  0  0  0  0  0  0  0  0  0  0
  -10.8987   -0.0351   -0.6692 C   0  0  0  0  0  0  0  0  0  0  0  0
  -12.2965   -0.3798   -1.1573 C   0  0  0  0  0  0  0  0  0  0  0  0
  -11.3421    0.4041   -2.0554 C   0  0  0  0  0  0  0  0  0  0  0  0
   -9.8742   -1.1506   -0.5344 C   0  0  0  0  0  0  0  0  0  0  0  0
   -8.9786   -0.6819    0.6261 C   0  0  1  0  0  0  0  0  0  0  0  0
   -7.5926   -0.3462    0.1484 C   0  0  0  0  0  0  0  0  0  0  0  0
   -6.4867   -0.9720    0.6003 N   0  0  0  0  0  0  0  0  0  0  0  0
   -5.4720   -0.3552   -0.0414 C   0  0  0  0  0  0  0  0  0  0  0  0
   -5.9847    0.6294   -0.8676 C   0  0  0  0  0  0  0  0  0  0  0  0
   -7.3199    0.6279   -0.7411 N   0  0  0  0  0  0  0  0  0  0  0  0
   -4.0446   -0.7001    0.1617 C   0  0  0  0  0  0  0  0  0  0  0  0
   -3.6882   -1.6677    1.1350 C   0  0  0  0  0  0  0  0  0  0  0  0
   -2.3447   -2.0106    1.3511 C   0  0  0  0  0  0  0  0  0  0  0  0
   -1.3705   -1.3770    0.5844 C   0  0  0  0  0  0  0  0  0  0  0  0
    0.0690   -1.5325    0.5951 C   0  0  0  0  0  0  0  0  0  0  0  0
    0.8752   -2.3546    1.3789 C   0  0  0  0  0  0  0  0  0  0  0  0
    2.2644   -2.3037    1.1856 C   0  0  0  0  0  0  0  0  0  0  0  0
    2.8305   -1.4380    0.2161 C   0  0  0  0  0  0  0  0  0  0  0  0
    1.9808   -0.6181   -0.5611 C   0  0  0  0  0  0  0  0  0  0  0  0
    0.6029   -0.6828   -0.3534 C   0  0  0  0  0  0  0  0  0  0  0  0
   -0.4712    0.0976   -1.0546 C   0  0  0  0  0  0  0  0  0  0  0  0
   -0.3252    1.4552   -0.8346 F   0  0  0  0  0  0  0  0  0  0  0  0
   -0.4930   -0.1891   -2.4074 F   0  0  0  0  0  0  0  0  0  0  0  0
   -1.6972   -0.4332   -0.3687 C   0  0  0  0  0  0  0  0  0  0  0  0
   -3.0269   -0.0779   -0.5986 C   0  0  0  0  0  0  0  0  0  0  0  0
    4.3002   -1.3848    0.0242 C   0  0  0  0  0  0  0  0  0  0  0  0
    5.1720   -1.4018    1.1482 C   0  0  0  0  0  0  0  0  0  0  0  0
    6.5657   -1.3171    0.9795 C   0  0  0  0  0  0  0  0  0  0  0  0
    7.0525   -1.2228   -0.3193 C   0  0  0  0  0  0  0  0  0  0  0  0
    8.3207   -1.0904   -0.7219 N   0  0  0  0  0  0  0  0  0  0  0  0
    8.2244   -0.9939   -2.0734 C   0  0  0  0  0  0  0  0  0  0  0  0
    6.9474   -1.0693   -2.5338 N   0  0  0  0  0  0  0  0  0  0  0  0
    6.2315   -1.2095   -1.4039 C   0  0  0  0  0  0  0  0  0  0  0  0
    4.8478   -1.2886   -1.2788 C   0  0  0  0  0  0  0  0  0  0  0  0
    9.4003   -0.7824   -2.9919 C   0  0  2  0  0  0  0  0  0  0  0  0
   10.0378   -2.1123   -3.4566 C   0  0  1  0  0  0  0  0  0  0  0  0
   11.0373   -1.7793   -4.5842 C   0  0  0  0  0  0  0  0  0  0  0  0
   12.1639   -1.0357   -3.8349 C   0  0  0  0  0  0  0  0  0  0  0  0
   11.6623   -1.0585   -2.3826 C   0  0  2  0  0  0  0  0  0  0  0  0
   10.9959   -2.4137   -2.3193 C   0  0  0  0  0  0  0  0  0  0  0  0
   10.5219   -0.1440   -2.2996 N   0  0  0  0  0  0  0  0  0  0  0  0
   10.5915    1.2156   -1.8287 C   0  0  0  0  0  0  0  0  0  0  0  0
   11.6354    1.6019   -1.2387 O   0  0  0  0  0  0  0  0  0  0  0  0
    9.3996    2.1504   -1.9418 C   0  0  1  0  0  0  0  0  0  0  0  0
    8.5822    2.0586   -0.7277 N   0  0  0  0  0  0  0  0  0  0  0  0
    7.1660    2.2753   -0.7309 C   0  0  0  0  0  0  0  0  0  0  0  0
    6.5751    2.6180   -1.7920 O   0  0  0  0  0  0  0  0  0  0  0  0
    6.4437    2.0864    0.4504 O   0  0  0  0  0  0  0  0  0  0  0  0
    5.0331    2.2566    0.5212 C   0  0  0  0  0  0  0  0  0  0  0  0
    9.7590    3.6318   -2.2575 C   0  0  0  0  0  0  0  0  0  0  0  0
   10.5972    3.7526   -3.5386 C   0  0  0  0  0  0  0  0  0  0  0  0
   10.4339    4.3783   -1.0935 C   0  0  0  0  0  0  0  0  0  0  0  0
  -13.5736   -2.2990    3.6334 H   0  0  0  0  0  0  0  0  0  0  0  0
  -13.6713   -1.4518    2.0287 H   0  0  0  0  0  0  0  0  0  0  0  0
  -14.8578   -1.0641    3.3347 H   0  0  0  0  0  0  0  0  0  0  0  0
  -11.2791    1.5017    4.4491 H   0  0  0  0  0  0  0  0  0  0  0  0
   -9.0274    1.8207    4.3155 H   0  0  0  0  0  0  0  0  0  0  0  0
   -8.6530   -1.1649    3.6391 H   0  0  0  0  0  0  0  0  0  0  0  0
   -8.1653   -1.4164    6.0737 H   0  0  0  0  0  0  0  0  0  0  0  0
   -8.6579    0.2989    6.3549 H   0  0  0  0  0  0  0  0  0  0  0  0
   -9.8638   -0.9239    5.7933 H   0  0  0  0  0  0  0  0  0  0  0  0
   -6.7084    0.9596    4.7370 H   0  0  0  0  0  0  0  0  0  0  0  0
   -6.6734    0.2401    3.0826 H   0  0  0  0  0  0  0  0  0  0  0  0
   -6.3624   -0.7985    4.5072 H   0  0  0  0  0  0  0  0  0  0  0  0
  -10.4865    1.9996   -0.0151 H   0  0  0  0  0  0  0  0  0  0  0  0
  -11.6493    1.0762    1.0476 H   0  0  0  0  0  0  0  0  0  0  0  0
  -12.4484   -1.4305   -1.4842 H   0  0  0  0  0  0  0  0  0  0  0  0
  -13.1208    0.2378   -0.7414 H   0  0  0  0  0  0  0  0  0  0  0  0
  -10.9442   -0.1922   -2.9038 H   0  0  0  0  0  0  0  0  0  0  0  0
  -11.6143    1.4760   -2.1594 H   0  0  0  0  0  0  0  0  0  0  0  0
   -9.3078   -1.3035   -1.4799 H   0  0  0  0  0  0  0  0  0  0  0  0
  -10.3810   -2.1009   -0.2579 H   0  0  0  0  0  0  0  0  0  0  0  0
   -8.9195   -1.4858    1.3881 H   0  0  0  0  0  0  0  0  0  0  0  0
   -5.4376    1.3095   -1.5056 H   0  0  0  0  0  0  0  0  0  0  0  0
   -7.9986    1.2589   -1.2224 H   0  0  0  0  0  0  0  0  0  0  0  0
   -4.4491   -2.1556    1.7311 H   0  0  0  0  0  0  0  0  0  0  0  0
   -2.0770   -2.7485    2.0959 H   0  0  0  0  0  0  0  0  0  0  0  0
    0.4453   -3.0183    2.1175 H   0  0  0  0  0  0  0  0  0  0  0  0
    2.8965   -2.9504    1.7808 H   0  0  0  0  0  0  0  0  0  0  0  0
    2.3806    0.0685   -1.2967 H   0  0  0  0  0  0  0  0  0  0  0  0
   -3.2517    0.6615   -1.3544 H   0  0  0  0  0  0  0  0  0  0  0  0
    4.7723   -1.4508    2.1530 H   0  0  0  0  0  0  0  0  0  0  0  0
    7.2335   -1.3100    1.8310 H   0  0  0  0  0  0  0  0  0  0  0  0
    9.1744   -1.0312   -0.1235 H   0  0  0  0  0  0  0  0  0  0  0  0
    4.2198   -1.2751   -2.1606 H   0  0  0  0  0  0  0  0  0  0  0  0
    9.0799   -0.1751   -3.8668 H   0  0  0  0  0  0  0  0  0  0  0  0
    9.3206   -2.9248   -3.7030 H   0  0  0  0  0  0  0  0  0  0  0  0
   10.5820   -1.1478   -5.3781 H   0  0  0  0  0  0  0  0  0  0  0  0
   11.4261   -2.7150   -5.0434 H   0  0  0  0  0  0  0  0  0  0  0  0
   12.2847    0.0061   -4.2050 H   0  0  0  0  0  0  0  0  0  0  0  0
   13.1283   -1.5823   -3.9253 H   0  0  0  0  0  0  0  0  0  0  0  0
   12.4379   -0.8858   -1.6061 H   0  0  0  0  0  0  0  0  0  0  0  0
   10.4834   -2.5969   -1.3507 H   0  0  0  0  0  0  0  0  0  0  0  0
   11.6901   -3.2594   -2.5359 H   0  0  0  0  0  0  0  0  0  0  0  0
    8.7862    1.8016   -2.7976 H   0  0  0  0  0  0  0  0  0  0  0  0
    9.0385    1.8193    0.1820 H   0  0  0  0  0  0  0  0  0  0  0  0
    4.5303    1.5817   -0.2030 H   0  0  0  0  0  0  0  0  0  0  0  0
    4.7666    3.3107    0.2962 H   0  0  0  0  0  0  0  0  0  0  0  0
    4.6865    2.0060    1.5446 H   0  0  0  0  0  0  0  0  0  0  0  0
    8.7997    4.1603   -2.4552 H   0  0  0  0  0  0  0  0  0  0  0  0
   10.7229    4.8220   -3.8122 H   0  0  0  0  0  0  0  0  0  0  0  0
   10.0874    3.2383   -4.3810 H   0  0  0  0  0  0  0  0  0  0  0  0
   11.6035    3.3035   -3.4007 H   0  0  0  0  0  0  0  0  0  0  0  0
   11.4669    4.0188   -0.9158 H   0  0  0  0  0  0  0  0  0  0  0  0
    9.8445    4.2715   -0.1593 H   0  0  0  0  0  0  0  0  0  0  0  0
   10.4909    5.4622   -1.3307 H   0  0  0  0  0  0  0  0  0  0  0  0
  1  2  1  0
  2  3  1  0
  3  4  2  0
  3  5  1  0
  5  6  1  0
  6  7  1  0
  7  8  1  0
  7  9  1  0
  6 10  1  0
 10 11  2  0
 10 12  1  0
 12 13  1  0
 13 14  1  0
 14 15  1  0
 15 16  1  0
 14 17  1  0
 17 18  1  0
 18 19  1  0
 19 20  2  0
 20 21  1  0
 21 22  2  0
 22 23  1  0
 21 24  1  0
 24 25  2  0
 25 26  1  0
 26 27  2  0
 27 28  1  0
 28 29  2  0
 29 30  1  0
 30 31  2  0
 31 32  1  0
 32 33  2  0
 33 34  1  0
 34 35  1  0
 34 36  1  0
 34 37  1  0
 37 38  2  0
 31 39  1  0
 39 40  2  0
 40 41  1  0
 41 42  2  0
 42 43  1  0
 43 44  1  0
 44 45  2  0
 45 46  1  0
 46 47  2  0
 44 48  1  0
 48 49  1  0
 49 50  1  0
 50 51  1  0
 51 52  1  0
 52 53  1  0
 52 54  1  0
 54 55  1  0
 55 56  2  0
 55 57  1  0
 57 58  1  0
 58 59  1  0
 59 60  2  0
 59 61  1  0
 61 62  1  0
 57 63  1  0
 63 64  1  0
 63 65  1  0
 18 12  1  0
 23 19  1  0
 38 24  1  0
 47 39  1  0
 54 48  1  0
 16 14  1  0
 37 27  1  0
 46 42  1  0
 53 49  1  0
 33 28  1  0
  1 66  1  0
  1 67  1  0
  1 68  1  0
  5 69  1  0
  6 70  1  1
  7 71  1  0
  8 72  1  0
  8 73  1  0
  8 74  1  0
  9 75  1  0
  9 76  1  0
  9 77  1  0
 13 78  1  0
 13 79  1  0
 15 80  1  0
 15 81  1  0
 16 82  1  0
 16 83  1  0
 17 84  1  0
 17 85  1  0
 18 86  1  1
 22 87  1  0
 23 88  1  0
 25 89  1  0
 26 90  1  0
 29 91  1  0
 30 92  1  0
 32 93  1  0
 38 94  1  0
 40 95  1  0
 41 96  1  0
 43 97  1  0
 47 98  1  0
 48 99  1  6
 49100  1  6
 50101  1  0
 50102  1  0
 51103  1  0
 51104  1  0
 52105  1  1
 53106  1  0
 53107  1  0
 57108  1  6
 58109  1  0
 62110  1  0
 62111  1  0
 62112  1  0
 63113  1  0
 64114  1  0
 64115  1  0
 64116  1  0
 65117  1  0
 65118  1  0
 65119  1  0
M  END
$$$$
