
     RDKit          3D

 32 34  0  0  0  0  0  0  0  0999 V2000
   -6.2529   -0.6980   -1.4477 N   0  0  0  0  0  0  0  0  0  0  0  0
   -5.5289   -1.5016   -0.0996 S   0  0  0  0  0  6  0  0  0  0  0  0
   -5.4295   -2.9734   -0.3877 O   0  0  0  0  0  0  0  0  0  0  0  0
   -6.3864   -1.3071    1.1194 O   0  0  0  0  0  0  0  0  0  0  0  0
   -3.9223   -0.8410    0.1898 C   0  0  0  0  0  0  0  0  0  0  0  0
   -2.8069   -1.3929   -0.4541 C   0  0  0  0  0  0  0  0  0  0  0  0
   -1.5326   -0.8603   -0.2356 C   0  0  0  0  0  0  0  0  0  0  0  0
   -1.3628    0.2369    0.6284 C   0  0  0  0  0  0  0  0  0  0  0  0
   -2.4812    0.7901    1.2634 C   0  0  0  0  0  0  0  0  0  0  0  0
   -3.7549    0.2568    1.0442 C   0  0  0  0  0  0  0  0  0  0  0  0
   -0.0723    0.8077    0.8747 N   0  0  0  0  0  0  0  0  0  0  0  0
    0.9831    0.3537    0.3295 N   0  0  0  0  0  0  0  0  0  0  0  0
    2.2592    0.9397    0.5904 C   0  0  0  0  0  0  0  0  0  0  0  0
    3.4187    0.5594    0.0874 C   0  0  0  0  0  0  0  0  0  0  0  0
    3.6984   -0.4792   -0.8017 C   0  0  0  0  0  0  0  0  0  0  0  0
    5.0360   -0.6776   -1.1871 C   0  0  0  0  0  0  0  0  0  0  0  0
    5.4740   -2.0846   -2.4014 Br  0  0  0  0  0  0  0  0  0  0  0  0
    6.0562    0.1570   -0.6818 C   0  0  0  0  0  0  0  0  0  0  0  0
    5.7510    1.1975    0.2131 C   0  0  0  0  0  0  0  0  0  0  0  0
    4.4200    1.3824    0.5865 C   0  0  0  0  0  0  0  0  0  0  0  0
    3.9926    2.2987    1.4012 N   0  0  0  0  0  0  0  0  0  0  0  0
    2.5871    2.0659    1.4484 C   0  0  0  0  0  0  0  0  0  0  0  0
    1.7794    2.7451    2.1346 O   0  0  0  0  0  0  0  0  0  0  0  0
   -6.2636    0.3225   -1.2245 H   0  0  0  0  0  0  0  0  0  0  0  0
   -5.6069   -0.8217   -2.2593 H   0  0  0  0  0  0  0  0  0  0  0  0
   -2.9228   -2.2329   -1.1271 H   0  0  0  0  0  0  0  0  0  0  0  0
   -0.6845   -1.3033   -0.7418 H   0  0  0  0  0  0  0  0  0  0  0  0
   -2.3642    1.6374    1.9275 H   0  0  0  0  0  0  0  0  0  0  0  0
   -4.6090    0.7020    1.5385 H   0  0  0  0  0  0  0  0  0  0  0  0
    2.9100   -1.1151   -1.1849 H   0  0  0  0  0  0  0  0  0  0  0  0
    7.0834   -0.0022   -0.9833 H   0  0  0  0  0  0  0  0  0  0  0  0
    6.5327    1.8381    0.6012 H   0  0  0  0  0  0  0  0  0  0  0  0
  1  2  1  0
  2  3  2  0
  2  4  2  0
  2  5  1  0
  5  6  2  0
  6  7  1  0
  7  8  2  0
  8  9  1  0
  9 10  2  0
  8 11  1  0
 11 12  2  0
 12 13  1  0
 13 14  2  0
 14 15  1  0
 15 16  2  0
 16 17  1  0
 16 18  1  0
 18 19  2  0
 19 20  1  0
 20 21  2  0
 21 22  1  0
 22 23  2  0
 10  5  1  0
 22 13  1  0
 20 14  1  0
  1 24  1  0
  1 25  1  0
  6 26  1  0
  7 27  1  0
  9 28  1  0
 10 29  1  0
 15 30  1  0
 18 31  1  0
 19 32  1  0
M  END
$$$$
