
     RDKit          3D

 37 39  0  0  0  0  0  0  0  0999 V2000
    5.8015   -0.3856   -0.8836 N   0  0  0  0  0  0  0  0  0  0  0  0
    4.7694   -1.0148    0.3519 S   0  0  0  0  0  6  0  0  0  0  0  0
    4.6886   -2.5111    0.2307 O   0  0  0  0  0  0  0  0  0  0  0  0
    5.3354   -0.6703    1.7010 O   0  0  0  0  0  0  0  0  0  0  0  0
    3.1621   -0.3174    0.1829 C   0  0  0  0  0  0  0  0  0  0  0  0
    2.2224   -0.9157   -0.6664 C   0  0  0  0  0  0  0  0  0  0  0  0
    0.9492   -0.3579   -0.8112 C   0  0  0  0  0  0  0  0  0  0  0  0
    0.5968    0.8010   -0.0989 C   0  0  0  0  0  0  0  0  0  0  0  0
    1.5511    1.4139    0.7270 C   0  0  0  0  0  0  0  0  0  0  0  0
    2.8247    0.8558    0.8706 C   0  0  0  0  0  0  0  0  0  0  0  0
   -0.7052    1.3918   -0.2486 N   0  0  0  0  0  0  0  0  0  0  0  0
   -0.8801    2.6929   -0.4237 N   0  0  0  0  0  0  0  0  0  0  0  0
   -2.1970    2.9089   -0.6077 C   0  0  0  0  0  0  0  0  0  0  0  0
   -2.8821    1.7094   -0.5725 C   0  0  0  0  0  0  0  0  0  0  0  0
   -1.9050    0.7645   -0.3240 C   0  0  0  0  0  0  0  0  0  0  0  0
   -2.1614   -0.6740   -0.0881 C   0  0  0  0  0  0  0  0  0  0  0  0
   -3.0852   -1.3645   -0.8902 C   0  0  0  0  0  0  0  0  0  0  0  0
   -3.3388   -2.7212   -0.6668 C   0  0  0  0  0  0  0  0  0  0  0  0
   -2.6816   -3.3970    0.3659 C   0  0  0  0  0  0  0  0  0  0  0  0
   -3.0288   -5.2503    0.6688 Br  0  0  0  0  0  0  0  0  0  0  0  0
   -1.7749   -2.7125    1.1807 C   0  0  0  0  0  0  0  0  0  0  0  0
   -1.5197   -1.3558    0.9604 C   0  0  0  0  0  0  0  0  0  0  0  0
   -2.7937    4.2490   -0.8975 C   0  0  0  0  0  0  0  0  0  0  0  0
   -3.0004    4.3749   -2.2582 F   0  0  0  0  0  0  0  0  0  0  0  0
   -1.9393    5.2504   -0.4728 F   0  0  0  0  0  0  0  0  0  0  0  0
   -4.0023    4.3794   -0.2381 F   0  0  0  0  0  0  0  0  0  0  0  0
    5.3971   -0.6832   -1.7997 H   0  0  0  0  0  0  0  0  0  0  0  0
    6.7222   -0.8698   -0.7888 H   0  0  0  0  0  0  0  0  0  0  0  0
    2.4772   -1.8088   -1.2227 H   0  0  0  0  0  0  0  0  0  0  0  0
    0.2438   -0.8223   -1.4880 H   0  0  0  0  0  0  0  0  0  0  0  0
    1.3027    2.3180    1.2685 H   0  0  0  0  0  0  0  0  0  0  0  0
    3.5463    1.3403    1.5158 H   0  0  0  0  0  0  0  0  0  0  0  0
   -3.9472    1.5520   -0.6829 H   0  0  0  0  0  0  0  0  0  0  0  0
   -3.5987   -0.8573   -1.6978 H   0  0  0  0  0  0  0  0  0  0  0  0
   -4.0453   -3.2462   -1.2968 H   0  0  0  0  0  0  0  0  0  0  0  0
   -1.2719   -3.2291    1.9880 H   0  0  0  0  0  0  0  0  0  0  0  0
   -0.8319   -0.8375    1.6163 H   0  0  0  0  0  0  0  0  0  0  0  0
  1  2  1  0
  2  3  2  0
  2  4  2  0
  2  5  1  0
  5  6  2  0
  6  7  1  0
  7  8  2  0
  8  9  1  0
  9 10  2  0
  8 11  1  0
 11 12  1  0
 12 13  2  0
 13 14  1  0
 14 15  2  0
 15 16  1  0
 16 17  2  0
 17 18  1  0
 18 19  2  0
 19 20  1  0
 19 21  1  0
 21 22  2  0
 13 23  1  0
 23 24  1  0
 23 25  1  0
 23 26  1  0
 10  5  1  0
 15 11  1  0
 22 16  1  0
  1 27  1  0
  1 28  1  0
  6 29  1  0
  7 30  1  0
  9 31  1  0
 10 32  1  0
 14 33  1  0
 17 34  1  0
 18 35  1  0
 21 36  1  0
 22 37  1  0
M  END
$$$$
