
     RDKit          3D

 28 28  0  0  0  0  0  0  0  0999 V2000
    4.1937   -0.5721   -0.4775 C   0  0  0  0  0  0  0  0  0  0  0  0
    3.0349    0.2881   -0.0919 C   0  0  0  0  0  0  0  0  0  0  0  0
    3.1951    1.2029    0.7609 O   0  0  0  0  0  0  0  0  0  0  0  0
    1.7591    0.0917   -0.7177 N   0  0  0  0  0  0  0  0  0  0  0  0
    0.5789    0.8896   -0.3646 C   0  0  2  0  0  0  0  0  0  0  0  0
   -0.0005    0.4467    1.0062 C   0  0  1  0  0  0  0  0  0  0  0  0
   -0.6998    1.4874    1.6507 O   0  0  0  0  0  0  0  0  0  0  0  0
   -0.8853   -0.8182    0.9112 C   0  0  2  0  0  0  0  0  0  0  0  0
   -0.0841   -1.9599    0.7195 O   0  0  0  0  0  0  0  0  0  0  0  0
   -1.9844   -0.7222   -0.1835 C   0  0  1  0  0  0  0  0  0  0  0  0
   -3.2385    0.0286    0.2869 C   0  0  0  0  0  0  0  0  0  0  0  0
   -4.2530   -0.1125   -0.6691 O   0  0  0  0  0  0  0  0  0  0  0  0
   -1.4984   -0.1359   -1.3935 O   0  0  0  0  0  0  0  0  0  0  0  0
   -0.4496    0.7866   -1.4588 C   0  0  0  0  0  0  0  0  0  0  0  0
   -0.3055    1.4726   -2.5048 O   0  0  0  0  0  0  0  0  0  0  0  0
    3.8877   -1.6391   -0.4666 H   0  0  0  0  0  0  0  0  0  0  0  0
    4.5328   -0.2992   -1.4984 H   0  0  0  0  0  0  0  0  0  0  0  0
    5.0356   -0.4346    0.2340 H   0  0  0  0  0  0  0  0  0  0  0  0
    1.6903   -0.6261   -1.4755 H   0  0  0  0  0  0  0  0  0  0  0  0
    0.8909    1.9561   -0.2948 H   0  0  0  0  0  0  0  0  0  0  0  0
    0.8508    0.1968    1.6760 H   0  0  0  0  0  0  0  0  0  0  0  0
   -1.0932    2.0888    0.9677 H   0  0  0  0  0  0  0  0  0  0  0  0
   -1.3810   -0.9543    1.8974 H   0  0  0  0  0  0  0  0  0  0  0  0
    0.1818   -1.9957   -0.2350 H   0  0  0  0  0  0  0  0  0  0  0  0
   -2.3125   -1.7586   -0.4205 H   0  0  0  0  0  0  0  0  0  0  0  0
   -3.0194    1.1065    0.4242 H   0  0  0  0  0  0  0  0  0  0  0  0
   -3.5882   -0.3938    1.2556 H   0  0  0  0  0  0  0  0  0  0  0  0
   -5.0383    0.3797   -0.3138 H   0  0  0  0  0  0  0  0  0  0  0  0
  1  2  1  0
  2  3  2  0
  2  4  1  0
  4  5  1  0
  5  6  1  0
  6  7  1  0
  6  8  1  0
  8  9  1  0
  8 10  1  0
 10 11  1  0
 11 12  1  0
 10 13  1  0
 13 14  1  0
 14 15  2  0
 14  5  1  0
  1 16  1  0
  1 17  1  0
  1 18  1  0
  4 19  1  0
  5 20  1  1
  6 21  1  1
  7 22  1  0
  8 23  1  1
  9 24  1  0
 10 25  1  6
 11 26  1  0
 11 27  1  0
 12 28  1  0
M  END
$$$$
