
     RDKit          3D

 44 46  0  0  0  0  0  0  0  0999 V2000
    6.1162    0.0417   -0.3130 C   0  0  0  0  0  0  0  0  0  0  0  0
    4.6485   -0.0049   -0.3930 N   0  0  0  0  0  0  0  0  0  0  0  0
    4.0801    1.3433   -0.2361 C   0  0  0  0  0  0  0  0  0  0  0  0
    2.6059    1.3034   -0.6381 C   0  0  0  0  0  0  0  0  0  0  0  0
    1.9598    0.0877   -0.1309 N   0  0  0  0  0  0  0  0  0  0  0  0
    2.6047   -0.7156    0.9144 C   0  0  0  0  0  0  0  0  0  0  0  0
    4.1055   -0.9392    0.6199 C   0  0  0  0  0  0  0  0  0  0  0  0
    0.5942   -0.1739   -0.4900 C   0  0  0  0  0  0  0  0  0  0  0  0
    0.2925   -0.6045   -1.7812 C   0  0  0  0  0  0  0  0  0  0  0  0
    1.2835   -0.8018   -2.6871 F   0  0  0  0  0  0  0  0  0  0  0  0
   -1.0255   -0.8418   -2.1485 C   0  0  0  0  0  0  0  0  0  0  0  0
   -2.0748   -0.6665   -1.2265 C   0  0  0  0  0  0  0  0  0  0  0  0
   -3.4049   -0.8917   -1.6241 C   0  0  0  0  0  0  0  0  0  0  0  0
   -3.6549   -1.2572   -2.8066 O   0  0  0  0  0  0  0  0  0  0  0  0
   -4.4523   -0.7051   -0.7105 C   0  0  0  0  0  0  0  0  0  0  0  0
   -4.1352   -0.3194    0.5975 C   0  0  0  0  0  0  0  0  0  0  0  0
   -2.8426   -0.1253    1.0082 N   0  0  0  0  0  0  0  0  0  0  0  0
   -2.6650    0.2269    2.4329 C   0  0  0  0  0  0  0  0  0  0  0  0
   -2.6016    1.7438    2.6204 C   0  0  0  0  0  0  0  0  0  0  0  0
   -3.8288    2.3087    2.3234 F   0  0  0  0  0  0  0  0  0  0  0  0
   -1.7941   -0.2550    0.1087 C   0  0  0  0  0  0  0  0  0  0  0  0
   -0.4327    0.0097    0.4500 C   0  0  0  0  0  0  0  0  0  0  0  0
   -0.0654    0.4995    1.6585 F   0  0  0  0  0  0  0  0  0  0  0  0
   -5.8779   -0.9107   -1.0917 C   0  0  0  0  0  0  0  0  0  0  0  0
   -6.2264   -1.2783   -2.3889 O   0  0  0  0  0  0  0  0  0  0  0  0
   -6.7932   -0.7518   -0.2387 O   0  0  0  0  0  0  0  0  0  0  0  0
    6.4533    0.4863    0.6500 H   0  0  0  0  0  0  0  0  0  0  0  0
    6.5377   -0.9824   -0.4077 H   0  0  0  0  0  0  0  0  0  0  0  0
    6.5233    0.6451   -1.1525 H   0  0  0  0  0  0  0  0  0  0  0  0
    4.1799    1.6936    0.8171 H   0  0  0  0  0  0  0  0  0  0  0  0
    4.6030    2.0725   -0.8947 H   0  0  0  0  0  0  0  0  0  0  0  0
    2.0823    2.2009   -0.2440 H   0  0  0  0  0  0  0  0  0  0  0  0
    2.5414    1.3179   -1.7476 H   0  0  0  0  0  0  0  0  0  0  0  0
    2.4994   -0.1837    1.8848 H   0  0  0  0  0  0  0  0  0  0  0  0
    2.0976   -1.7009    1.0147 H   0  0  0  0  0  0  0  0  0  0  0  0
    4.6646   -0.8591    1.5807 H   0  0  0  0  0  0  0  0  0  0  0  0
    4.2415   -1.9767    0.2439 H   0  0  0  0  0  0  0  0  0  0  0  0
   -1.2216   -1.1657   -3.1635 H   0  0  0  0  0  0  0  0  0  0  0  0
   -4.9462   -0.1798    1.3041 H   0  0  0  0  0  0  0  0  0  0  0  0
   -1.7861   -0.2842    2.8720 H   0  0  0  0  0  0  0  0  0  0  0  0
   -3.5108   -0.1594    3.0455 H   0  0  0  0  0  0  0  0  0  0  0  0
   -1.8324    2.1957    1.9617 H   0  0  0  0  0  0  0  0  0  0  0  0
   -2.3470    1.9756    3.6758 H   0  0  0  0  0  0  0  0  0  0  0  0
   -7.1957   -1.4176   -2.6484 H   0  0  0  0  0  0  0  0  0  0  0  0
  1  2  1  0
  2  3  1  0
  3  4  1  0
  4  5  1  0
  5  6  1  0
  6  7  1  0
  5  8  1  0
  8  9  2  0
  9 10  1  0
  9 11  1  0
 11 12  2  0
 12 13  1  0
 13 14  2  0
 13 15  1  0
 15 16  2  0
 16 17  1  0
 17 18  1  0
 18 19  1  0
 19 20  1  0
 17 21  1  0
 21 22  2  0
 22 23  1  0
 15 24  1  0
 24 25  1  0
 24 26  2  0
  7  2  1  0
 22  8  1  0
 21 12  1  0
  1 27  1  0
  1 28  1  0
  1 29  1  0
  3 30  1  0
  3 31  1  0
  4 32  1  0
  4 33  1  0
  6 34  1  0
  6 35  1  0
  7 36  1  0
  7 37  1  0
 11 38  1  0
 16 39  1  0
 18 40  1  0
 18 41  1  0
 19 42  1  0
 19 43  1  0
 25 44  1  0
M  END
$$$$
