
     RDKit          3D

 18 19  0  0  0  0  0  0  0  0999 V2000
    3.8183   -0.2005   -1.0987 O   0  0  0  0  0  0  0  0  0  0  0  0
    3.0486    0.5344   -0.2024 C   0  0  0  0  0  0  0  0  0  0  0  0
    3.6021    1.3638    0.5678 O   0  0  0  0  0  0  0  0  0  0  0  0
    1.5944    0.3441   -0.1542 C   0  0  0  0  0  0  0  0  0  0  0  0
    0.7859    1.0303    0.6979 N   0  0  0  0  0  0  0  0  0  0  0  0
   -0.4341    0.5473    0.4015 C   0  0  0  0  0  0  0  0  0  0  0  0
   -1.6536    0.8997    0.9754 C   0  0  0  0  0  0  0  0  0  0  0  0
   -2.8111    0.2541    0.4990 C   0  0  0  0  0  0  0  0  0  0  0  0
   -2.7197   -0.7155   -0.5267 C   0  0  0  0  0  0  0  0  0  0  0  0
   -1.4703   -1.0473   -1.0843 C   0  0  0  0  0  0  0  0  0  0  0  0
   -0.3488   -0.3875   -0.5869 C   0  0  0  0  0  0  0  0  0  0  0  0
    0.9309   -0.5297   -0.9521 N   0  0  0  0  0  0  0  0  0  0  0  0
    4.8230   -0.0789   -1.1423 H   0  0  0  0  0  0  0  0  0  0  0  0
   -1.7106    1.6432    1.7598 H   0  0  0  0  0  0  0  0  0  0  0  0
   -3.7765    0.5017    0.9207 H   0  0  0  0  0  0  0  0  0  0  0  0
   -3.6155   -1.2055   -0.8853 H   0  0  0  0  0  0  0  0  0  0  0  0
   -1.3854   -1.7872   -1.8696 H   0  0  0  0  0  0  0  0  0  0  0  0
    1.3224   -1.1664   -1.6818 H   0  0  0  0  0  0  0  0  0  0  0  0
  1  2  1  0
  2  3  2  0
  2  4  1  0
  4  5  2  0
  5  6  1  0
  6  7  2  0
  7  8  1  0
  8  9  2  0
  9 10  1  0
 10 11  2  0
 11 12  1  0
 12  4  1  0
 11  6  1  0
  1 13  1  0
  7 14  1  0
  8 15  1  0
  9 16  1  0
 10 17  1  0
 12 18  1  0
M  END
$$$$
