
     RDKit          3D

 74 77  0  0  0  0  0  0  0  0999 V2000
    4.2177   -0.5201   -1.4874 C   0  0  2  0  0  0  0  0  0  0  0  0
    5.0268   -1.7347   -1.9855 C   0  0  0  0  0  0  0  0  0  0  0  0
    5.1618    0.5077   -0.7900 C   0  0  0  0  0  0  0  0  0  0  0  0
    5.8299    0.0687    0.5238 C   0  0  0  0  0  0  0  0  0  0  0  0
    7.0415    0.9037    0.8004 C   0  0  0  0  0  0  0  0  0  0  0  0
    6.9036    2.1391    1.4255 O   0  0  0  0  0  0  0  0  0  0  0  0
    8.1795    0.5077    0.4315 O   0  0  0  0  0  0  0  0  0  0  0  0
    2.8914   -1.0048   -0.7949 C   0  0  1  0  0  0  0  0  0  0  0  0
    3.0100   -1.8248    0.5100 C   0  0  0  0  0  0  0  0  0  0  0  0
    1.6722   -1.6424    1.2526 C   0  0  0  0  0  0  0  0  0  0  0  0
    0.7573   -0.9553    0.2325 C   0  0  1  0  0  0  0  0  0  0  0  0
   -0.5544   -0.2629    0.7087 C   0  0  2  0  0  0  0  0  0  0  0  0
   -1.5216   -1.2084    1.5132 C   0  0  2  0  0  0  0  0  0  0  0  0
   -1.0847   -2.5449    1.5192 O   0  0  0  0  0  0  0  0  0  0  0  0
   -3.0022   -1.1505    1.0503 C   0  0  2  0  0  0  0  0  0  0  0  0
   -3.2818   -2.0625   -0.1933 C   0  0  0  0  0  0  0  0  0  0  0  0
   -4.2960   -3.1643    0.1124 C   0  0  0  0  0  0  0  0  0  0  0  0
   -3.4621    0.3296    0.8903 C   0  0  2  0  0  0  0  0  0  0  0  0
   -4.9933    0.3970    0.6203 C   0  0  0  0  0  0  0  0  0  0  0  0
   -5.4468    1.8030    0.2352 C   0  0  2  0  0  0  0  0  0  0  0  0
   -6.8384    1.7991    0.0478 O   0  0  0  0  0  0  0  0  0  0  0  0
   -4.7411    2.2886   -1.0516 C   0  0  0  0  0  0  0  0  0  0  0  0
   -3.4127    1.5642   -1.3645 C   0  0  0  0  0  0  0  0  0  0  0  0
   -2.5735    1.2006   -0.0995 C   0  0  1  0  0  0  0  0  0  0  0  0
   -2.1727    2.5343    0.6059 C   0  0  0  0  0  0  0  0  0  0  0  0
   -1.2673    0.4071   -0.5275 C   0  0  1  0  0  0  0  0  0  0  0  0
   -0.2906    1.2338   -1.4283 C   0  0  0  0  0  0  0  0  0  0  0  0
    0.9897    0.4610   -1.8034 C   0  0  0  0  0  0  0  0  0  0  0  0
    1.7196   -0.0190   -0.5344 C   0  0  2  0  0  0  0  0  0  0  0  0
    2.1884    1.2079    0.3093 C   0  0  0  0  0  0  0  0  0  0  0  0
    3.8826   -0.0014   -2.4131 H   0  0  0  0  0  0  0  0  0  0  0  0
    5.9473   -1.4079   -2.5145 H   0  0  0  0  0  0  0  0  0  0  0  0
    5.3136   -2.3978   -1.1437 H   0  0  0  0  0  0  0  0  0  0  0  0
    4.4251   -2.3301   -2.7051 H   0  0  0  0  0  0  0  0  0  0  0  0
    4.6665    1.4800   -0.6380 H   0  0  0  0  0  0  0  0  0  0  0  0
    5.9677    0.7405   -1.5228 H   0  0  0  0  0  0  0  0  0  0  0  0
    5.1329    0.2174    1.3715 H   0  0  0  0  0  0  0  0  0  0  0  0
    6.1311   -0.9982    0.4869 H   0  0  0  0  0  0  0  0  0  0  0  0
    7.7114    2.7235    1.6048 H   0  0  0  0  0  0  0  0  0  0  0  0
    2.4768   -1.7308   -1.5365 H   0  0  0  0  0  0  0  0  0  0  0  0
    3.8319   -1.4996    1.1639 H   0  0  0  0  0  0  0  0  0  0  0  0
    3.1748   -2.8987    0.2704 H   0  0  0  0  0  0  0  0  0  0  0  0
    1.8051   -0.9961    2.1477 H   0  0  0  0  0  0  0  0  0  0  0  0
    1.2931   -2.6327    1.5757 H   0  0  0  0  0  0  0  0  0  0  0  0
    0.4199   -1.7627   -0.4633 H   0  0  0  0  0  0  0  0  0  0  0  0
   -0.2659    0.5274    1.4226 H   0  0  0  0  0  0  0  0  0  0  0  0
   -1.5021   -0.8440    2.5698 H   0  0  0  0  0  0  0  0  0  0  0  0
   -1.5425   -3.0002    2.2739 H   0  0  0  0  0  0  0  0  0  0  0  0
   -3.5894   -1.5576    1.9067 H   0  0  0  0  0  0  0  0  0  0  0  0
   -3.6555   -1.4812   -1.0575 H   0  0  0  0  0  0  0  0  0  0  0  0
   -2.3540   -2.5538   -0.5565 H   0  0  0  0  0  0  0  0  0  0  0  0
   -4.4698   -3.7756   -0.7982 H   0  0  0  0  0  0  0  0  0  0  0  0
   -5.2630   -2.7228    0.4336 H   0  0  0  0  0  0  0  0  0  0  0  0
   -3.9103   -3.8268    0.9163 H   0  0  0  0  0  0  0  0  0  0  0  0
   -3.3405    0.7647    1.9099 H   0  0  0  0  0  0  0  0  0  0  0  0
   -5.3010   -0.2897   -0.1937 H   0  0  0  0  0  0  0  0  0  0  0  0
   -5.5387    0.0769    1.5357 H   0  0  0  0  0  0  0  0  0  0  0  0
   -5.2048    2.4837    1.0824 H   0  0  0  0  0  0  0  0  0  0  0  0
   -7.1272    2.7492    0.0326 H   0  0  0  0  0  0  0  0  0  0  0  0
   -4.5520    3.3806   -0.9607 H   0  0  0  0  0  0  0  0  0  0  0  0
   -5.4158    2.1548   -1.9259 H   0  0  0  0  0  0  0  0  0  0  0  0
   -3.6414    0.6413   -1.9379 H   0  0  0  0  0  0  0  0  0  0  0  0
   -2.8385    2.2231   -2.0475 H   0  0  0  0  0  0  0  0  0  0  0  0
   -1.7523    3.2676   -0.1127 H   0  0  0  0  0  0  0  0  0  0  0  0
   -3.0430    3.0296    1.0760 H   0  0  0  0  0  0  0  0  0  0  0  0
   -1.4357    2.3725    1.4155 H   0  0  0  0  0  0  0  0  0  0  0  0
   -1.5805   -0.4181   -1.1966 H   0  0  0  0  0  0  0  0  0  0  0  0
   -0.0015    2.1854   -0.9434 H   0  0  0  0  0  0  0  0  0  0  0  0
   -0.7897    1.4986   -2.3823 H   0  0  0  0  0  0  0  0  0  0  0  0
    0.7157   -0.4030   -2.4488 H   0  0  0  0  0  0  0  0  0  0  0  0
    1.6553    1.1204   -2.4015 H   0  0  0  0  0  0  0  0  0  0  0  0
    2.9283    0.9234    1.0823 H   0  0  0  0  0  0  0  0  0  0  0  0
    1.3668    1.7237    0.8347 H   0  0  0  0  0  0  0  0  0  0  0  0
    2.6195    1.9860   -0.3500 H   0  0  0  0  0  0  0  0  0  0  0  0
  1  2  1  0
  1  3  1  0
  3  4  1  0
  4  5  1  0
  5  6  1  0
  5  7  2  0
  1  8  1  0
  8  9  1  0
  9 10  1  0
 10 11  1  0
 11 12  1  0
 12 13  1  0
 13 14  1  0
 13 15  1  0
 15 16  1  0
 16 17  1  0
 15 18  1  0
 18 19  1  0
 19 20  1  0
 20 21  1  0
 20 22  1  0
 22 23  1  0
 23 24  1  0
 24 25  1  1
 24 26  1  0
 26 27  1  0
 27 28  1  0
 28 29  1  0
 29 30  1  1
 29  8  1  0
 29 11  1  0
 26 12  1  0
 24 18  1  0
  1 31  1  6
  2 32  1  0
  2 33  1  0
  2 34  1  0
  3 35  1  0
  3 36  1  0
  4 37  1  0
  4 38  1  0
  6 39  1  0
  8 40  1  6
  9 41  1  0
  9 42  1  0
 10 43  1  0
 10 44  1  0
 11 45  1  6
 12 46  1  1
 13 47  1  1
 14 48  1  0
 15 49  1  1
 16 50  1  0
 16 51  1  0
 17 52  1  0
 17 53  1  0
 17 54  1  0
 18 55  1  1
 19 56  1  0
 19 57  1  0
 20 58  1  1
 21 59  1  0
 22 60  1  0
 22 61  1  0
 23 62  1  0
 23 63  1  0
 25 64  1  0
 25 65  1  0
 25 66  1  0
 26 67  1  6
 27 68  1  0
 27 69  1  0
 28 70  1  0
 28 71  1  0
 30 72  1  0
 30 73  1  0
 30 74  1  0
M  END
$$$$
