
     RDKit          3D

 32 32  0  0  0  0  0  0  0  0999 V2000
   -3.4806    0.9389   -1.3094 C   0  0  0  0  0  0  0  0  0  0  0  0
   -3.3907   -0.0545   -0.1444 C   0  0  0  0  0  0  0  0  0  0  0  0
   -3.4081    0.6636    1.2151 C   0  0  0  0  0  0  0  0  0  0  0  0
   -2.2420   -0.9705   -0.3038 N   0  0  0  0  0  0  0  0  0  0  0  0
   -0.9300   -0.3581   -0.0382 C   0  0  0  0  0  0  0  0  0  0  0  0
    0.1914   -1.2733   -0.5534 C   0  0  0  0  0  0  0  0  0  0  0  0
    0.1121   -1.4006   -1.9509 O   0  0  0  0  0  0  0  0  0  0  0  0
    1.5401   -0.7046   -0.1749 C   0  0  0  0  0  0  0  0  0  0  0  0
    2.2491   -1.2337    0.9176 C   0  0  0  0  0  0  0  0  0  0  0  0
    3.4830   -0.6917    1.2928 C   0  0  0  0  0  0  0  0  0  0  0  0
    4.1719   -1.2364    2.3742 O   0  0  0  0  0  0  0  0  0  0  0  0
    4.0138    0.3925    0.5820 C   0  0  0  0  0  0  0  0  0  0  0  0
    3.3091    0.9381   -0.4989 C   0  0  0  0  0  0  0  0  0  0  0  0
    3.8240    2.0215   -1.2072 O   0  0  0  0  0  0  0  0  0  0  0  0
    2.0758    0.3939   -0.8717 C   0  0  0  0  0  0  0  0  0  0  0  0
   -4.4665    1.4507   -1.2919 H   0  0  0  0  0  0  0  0  0  0  0  0
   -2.6902    1.7151   -1.2472 H   0  0  0  0  0  0  0  0  0  0  0  0
   -3.3842    0.4003   -2.2760 H   0  0  0  0  0  0  0  0  0  0  0  0
   -4.3146   -0.6742   -0.1916 H   0  0  0  0  0  0  0  0  0  0  0  0
   -2.5930    1.4148    1.2835 H   0  0  0  0  0  0  0  0  0  0  0  0
   -3.2946   -0.0739    2.0377 H   0  0  0  0  0  0  0  0  0  0  0  0
   -4.3769    1.1900    1.3503 H   0  0  0  0  0  0  0  0  0  0  0  0
   -2.3674   -1.7712    0.3601 H   0  0  0  0  0  0  0  0  0  0  0  0
   -0.8420    0.6268   -0.5427 H   0  0  0  0  0  0  0  0  0  0  0  0
   -0.7974   -0.2078    1.0571 H   0  0  0  0  0  0  0  0  0  0  0  0
    0.0774   -2.2797   -0.0841 H   0  0  0  0  0  0  0  0  0  0  0  0
   -0.5986   -2.0667   -2.1433 H   0  0  0  0  0  0  0  0  0  0  0  0
    1.8447   -2.0661    1.4805 H   0  0  0  0  0  0  0  0  0  0  0  0
    5.0672   -0.8670    2.6723 H   0  0  0  0  0  0  0  0  0  0  0  0
    4.9686    0.8130    0.8718 H   0  0  0  0  0  0  0  0  0  0  0  0
    4.7140    2.4397   -0.9624 H   0  0  0  0  0  0  0  0  0  0  0  0
    1.5347    0.8296   -1.7028 H   0  0  0  0  0  0  0  0  0  0  0  0
  1  2  1  0
  2  3  1  0
  2  4  1  0
  4  5  1  0
  5  6  1  0
  6  7  1  0
  6  8  1  0
  8  9  2  0
  9 10  1  0
 10 11  1  0
 10 12  2  0
 12 13  1  0
 13 14  1  0
 13 15  2  0
 15  8  1  0
  1 16  1  0
  1 17  1  0
  1 18  1  0
  2 19  1  0
  3 20  1  0
  3 21  1  0
  3 22  1  0
  4 23  1  0
  5 24  1  0
  5 25  1  0
  6 26  1  0
  7 27  1  0
  9 28  1  0
 11 29  1  0
 12 30  1  0
 14 31  1  0
 15 32  1  0
M  END
$$$$
