
     RDKit          3D

 18 18  0  0  0  0  0  0  0  0999 V2000
   -3.3051    0.2897   -0.1788 C   0  0  0  0  0  0  0  0  0  0  0  0
   -1.8699    0.2533   -0.4319 N   0  0  0  0  0  0  0  0  0  0  0  0
   -0.9652   -0.4087    0.4658 C   0  0  0  0  0  0  0  0  0  0  0  0
   -1.4280   -1.0911    1.4210 O   0  0  0  0  0  0  0  0  0  0  0  0
    0.5038   -0.3211    0.2812 C   0  0  0  0  0  0  0  0  0  0  0  0
    1.0956    0.7512   -0.4092 C   0  0  0  0  0  0  0  0  0  0  0  0
    2.4823    0.8087   -0.5603 C   0  0  0  0  0  0  0  0  0  0  0  0
    3.2731   -0.2027   -0.0155 C   0  0  0  0  0  0  0  0  0  0  0  0
    2.6936   -1.2292    0.6598 N   0  0  0  0  0  0  0  0  0  0  0  0
    1.3458   -1.3090    0.8223 C   0  0  0  0  0  0  0  0  0  0  0  0
   -3.7064   -0.7445   -0.1298 H   0  0  0  0  0  0  0  0  0  0  0  0
   -3.8196    0.8349   -0.9981 H   0  0  0  0  0  0  0  0  0  0  0  0
   -3.5043    0.8121    0.7805 H   0  0  0  0  0  0  0  0  0  0  0  0
   -1.5162    0.6831   -1.3151 H   0  0  0  0  0  0  0  0  0  0  0  0
    0.4982    1.5581   -0.8112 H   0  0  0  0  0  0  0  0  0  0  0  0
    2.9405    1.6343   -1.0894 H   0  0  0  0  0  0  0  0  0  0  0  0
    4.3489   -0.1694   -0.1247 H   0  0  0  0  0  0  0  0  0  0  0  0
    0.9330   -2.1496    1.3651 H   0  0  0  0  0  0  0  0  0  0  0  0
  1  2  1  0
  2  3  1  0
  3  4  2  0
  3  5  1  0
  5  6  2  0
  6  7  1  0
  7  8  2  0
  8  9  1  0
  9 10  2  0
 10  5  1  0
  1 11  1  0
  1 12  1  0
  1 13  1  0
  2 14  1  0
  6 15  1  0
  7 16  1  0
  8 17  1  0
 10 18  1  0
M  END
$$$$
