
     RDKit          3D

 57 60  0  0  0  0  0  0  0  0999 V2000
    0.5952    0.5961    0.8508 C   0  0  2  0  0  0  0  0  0  0  0  0
    1.3949    1.8026    1.3198 C   0  0  0  0  0  0  0  0  0  0  0  0
    2.8452    1.2738    1.4048 C   0  0  2  0  0  0  0  0  0  0  0  0
    3.8568    2.3688    1.0337 C   0  0  0  0  0  0  0  0  0  0  0  0
    2.8774   -0.0922    0.5972 C   0  0  2  0  0  0  0  0  0  0  0  0
    2.8555   -1.1338    1.5520 O   0  0  0  0  0  0  0  0  0  0  0  0
    4.0703   -0.3354   -0.3510 C   0  0  0  0  0  0  0  0  0  0  0  0
    4.6056    0.5918   -0.9387 O   0  0  0  0  0  0  0  0  0  0  0  0
    4.5482   -1.7321   -0.6685 C   0  0  0  0  0  0  0  0  0  0  0  0
    4.4343   -1.9797   -2.0438 O   0  0  0  0  0  0  0  0  0  0  0  0
    1.5093   -0.0908   -0.1736 C   0  0  2  0  0  0  0  0  0  0  0  0
    1.6462    0.7186   -1.5097 C   0  0  0  0  0  0  0  0  0  0  0  0
    0.9152   -1.4962   -0.4708 C   0  0  0  0  0  0  0  0  0  0  0  0
   -0.5663   -1.4400   -0.9445 C   0  0  2  0  0  0  0  0  0  0  0  0
   -0.6333   -0.9676   -2.2630 O   0  0  0  0  0  0  0  0  0  0  0  0
   -1.4861   -0.6019    0.0203 C   0  0  1  0  0  0  0  0  0  0  0  0
   -1.5175   -1.3190    1.2134 F   0  0  0  0  0  0  0  0  0  0  0  0
   -0.8545    0.8041    0.3475 C   0  0  1  0  0  0  0  0  0  0  0  0
   -1.6910    1.5456    1.4134 C   0  0  0  0  0  0  0  0  0  0  0  0
   -3.1441    1.7158    0.9731 C   0  0  2  0  0  0  0  0  0  0  0  0
   -3.8442    2.3462    1.9905 F   0  0  0  0  0  0  0  0  0  0  0  0
   -3.7343    0.3667    0.6176 C   0  0  0  0  0  0  0  0  0  0  0  0
   -4.8784   -0.0477    1.1921 C   0  0  0  0  0  0  0  0  0  0  0  0
   -5.4375   -1.3656    0.8953 C   0  0  0  0  0  0  0  0  0  0  0  0
   -6.5184   -1.7301    1.4284 O   0  0  0  0  0  0  0  0  0  0  0  0
   -4.7273   -2.2628   -0.0098 C   0  0  0  0  0  0  0  0  0  0  0  0
   -3.5991   -1.8731   -0.6022 C   0  0  0  0  0  0  0  0  0  0  0  0
   -2.9974   -0.4744   -0.4432 C   0  0  2  0  0  0  0  0  0  0  0  0
   -3.1854    0.2368   -1.8077 C   0  0  0  0  0  0  0  0  0  0  0  0
    0.5160   -0.0643    1.7488 H   0  0  0  0  0  0  0  0  0  0  0  0
    1.2943    2.6350    0.5890 H   0  0  0  0  0  0  0  0  0  0  0  0
    1.0439    2.1564    2.3141 H   0  0  0  0  0  0  0  0  0  0  0  0
    3.0407    1.0526    2.4793 H   0  0  0  0  0  0  0  0  0  0  0  0
    3.7283    3.2371    1.7149 H   0  0  0  0  0  0  0  0  0  0  0  0
    3.7115    2.7317   -0.0037 H   0  0  0  0  0  0  0  0  0  0  0  0
    4.8939    1.9946    1.1655 H   0  0  0  0  0  0  0  0  0  0  0  0
    3.7171   -1.1111    2.0473 H   0  0  0  0  0  0  0  0  0  0  0  0
    3.9477   -2.4963   -0.1350 H   0  0  0  0  0  0  0  0  0  0  0  0
    5.6044   -1.8473   -0.3352 H   0  0  0  0  0  0  0  0  0  0  0  0
    5.2205   -1.5564   -2.4781 H   0  0  0  0  0  0  0  0  0  0  0  0
    2.1881    1.6720   -1.3642 H   0  0  0  0  0  0  0  0  0  0  0  0
    2.2074    0.1256   -2.2627 H   0  0  0  0  0  0  0  0  0  0  0  0
    0.6843    0.9872   -1.9758 H   0  0  0  0  0  0  0  0  0  0  0  0
    0.9465   -2.1297    0.4417 H   0  0  0  0  0  0  0  0  0  0  0  0
    1.5341   -2.0157   -1.2342 H   0  0  0  0  0  0  0  0  0  0  0  0
   -0.9294   -2.4928   -0.9282 H   0  0  0  0  0  0  0  0  0  0  0  0
   -0.2972   -1.6935   -2.8513 H   0  0  0  0  0  0  0  0  0  0  0  0
   -0.8431    1.4487   -0.5501 H   0  0  0  0  0  0  0  0  0  0  0  0
   -1.6613    0.9940    2.3794 H   0  0  0  0  0  0  0  0  0  0  0  0
   -1.2641    2.5569    1.5872 H   0  0  0  0  0  0  0  0  0  0  0  0
   -3.1840    2.3773    0.0819 H   0  0  0  0  0  0  0  0  0  0  0  0
   -5.4024    0.5726    1.9082 H   0  0  0  0  0  0  0  0  0  0  0  0
   -5.1241   -3.2514   -0.2060 H   0  0  0  0  0  0  0  0  0  0  0  0
   -3.1438   -2.5633   -1.3005 H   0  0  0  0  0  0  0  0  0  0  0  0
   -2.9314   -0.4241   -2.6620 H   0  0  0  0  0  0  0  0  0  0  0  0
   -4.2526    0.5173   -1.9460 H   0  0  0  0  0  0  0  0  0  0  0  0
   -2.5844    1.1624   -1.8918 H   0  0  0  0  0  0  0  0  0  0  0  0
  1  2  1  0
  2  3  1  0
  3  4  1  0
  3  5  1  0
  5  6  1  1
  5  7  1  0
  7  8  2  0
  7  9  1  0
  9 10  1  0
  5 11  1  0
 11 12  1  6
 11 13  1  0
 13 14  1  0
 14 15  1  0
 14 16  1  0
 16 17  1  1
 16 18  1  0
 18 19  1  0
 19 20  1  0
 20 21  1  0
 20 22  1  0
 22 23  2  0
 23 24  1  0
 24 25  2  0
 24 26  1  0
 26 27  2  0
 27 28  1  0
 28 29  1  6
 11  1  1  0
 28 16  1  0
 18  1  1  0
 28 22  1  0
  1 30  1  1
  2 31  1  0
  2 32  1  0
  3 33  1  1
  4 34  1  0
  4 35  1  0
  4 36  1  0
  6 37  1  0
  9 38  1  0
  9 39  1  0
 10 40  1  0
 12 41  1  0
 12 42  1  0
 12 43  1  0
 13 44  1  0
 13 45  1  0
 14 46  1  6
 15 47  1  0
 18 48  1  6
 19 49  1  0
 19 50  1  0
 20 51  1  6
 23 52  1  0
 26 53  1  0
 27 54  1  0
 29 55  1  0
 29 56  1  0
 29 57  1  0
M  END
$$$$
