
     RDKit          3D

 16 16  0  0  0  0  0  0  0  0999 V2000
    2.9864    0.0096    0.0653 O   0  0  0  0  0  0  0  0  0  0  0  0
    1.6963    0.1137   -0.4446 C   0  0  0  0  0  0  0  0  0  0  0  0
    1.5067    0.0613   -1.6901 O   0  0  0  0  0  0  0  0  0  0  0  0
    0.5333    0.2572    0.4939 C   0  0  2  0  0  0  0  0  0  0  0  0
   -0.3488   -1.0167    0.5169 C   0  0  0  0  0  0  0  0  0  0  0  0
   -1.7166   -0.6347   -0.0727 C   0  0  0  0  0  0  0  0  0  0  0  0
   -1.6078    0.8243   -0.2660 C   0  0  0  0  0  0  0  0  0  0  0  0
   -2.5466    1.5504   -0.6858 O   0  0  0  0  0  0  0  0  0  0  0  0
   -0.3336    1.3345    0.0543 N   0  0  0  0  0  0  0  0  0  0  0  0
    3.7820   -0.0980   -0.5524 H   0  0  0  0  0  0  0  0  0  0  0  0
    0.9047    0.4828    1.5176 H   0  0  0  0  0  0  0  0  0  0  0  0
   -0.4806   -1.3571    1.5675 H   0  0  0  0  0  0  0  0  0  0  0  0
    0.1008   -1.8552   -0.0604 H   0  0  0  0  0  0  0  0  0  0  0  0
   -2.5416   -0.8750    0.6317 H   0  0  0  0  0  0  0  0  0  0  0  0
   -1.8806   -1.1349   -1.0513 H   0  0  0  0  0  0  0  0  0  0  0  0
   -0.0541    2.3380   -0.0238 H   0  0  0  0  0  0  0  0  0  0  0  0
  1  2  1  0
  2  3  2  0
  2  4  1  0
  4  5  1  0
  5  6  1  0
  6  7  1  0
  7  8  2  0
  7  9  1  0
  9  4  1  0
  1 10  1  0
  4 11  1  1
  5 12  1  0
  5 13  1  0
  6 14  1  0
  6 15  1  0
  9 16  1  0
M  END
$$$$
