
     RDKit          3D

 51 53  0  0  0  0  0  0  0  0999 V2000
   -1.4447   -3.0617   -2.2127 C   0  0  0  0  0  0  0  0  0  0  0  0
   -1.8203   -1.6945   -1.5944 C   0  0  0  0  0  0  0  0  0  0  0  0
   -3.1111   -1.8609   -0.7392 C   0  0  0  0  0  0  0  0  0  0  0  0
   -2.9458   -2.7900    0.3076 O   0  0  0  0  0  0  0  0  0  0  0  0
   -3.6426   -0.5356   -0.2250 C   0  0  0  0  0  0  0  0  0  0  0  0
   -3.3130   -0.0514    1.0564 C   0  0  0  0  0  0  0  0  0  0  0  0
   -3.7780    1.1960    1.4829 C   0  0  0  0  0  0  0  0  0  0  0  0
   -4.5717    1.9797    0.6362 C   0  0  0  0  0  0  0  0  0  0  0  0
   -5.0388    3.2247    1.0511 O   0  0  0  0  0  0  0  0  0  0  0  0
   -4.8963    1.5105   -0.6394 C   0  0  0  0  0  0  0  0  0  0  0  0
   -4.4326    0.2643   -1.0700 C   0  0  0  0  0  0  0  0  0  0  0  0
   -0.7425   -1.0467   -0.7801 N   0  0  0  0  0  0  0  0  0  0  0  0
   -0.6768    0.4339   -0.9401 C   0  0  0  0  0  0  0  0  0  0  0  0
    0.6149    0.8986   -1.6261 C   0  0  0  0  0  0  0  0  0  0  0  0
    1.8705    0.4682   -0.8253 C   0  0  0  0  0  0  0  0  0  0  0  0
    2.3463    1.6009    0.1120 C   0  0  0  0  0  0  0  0  0  0  0  0
    3.6525    1.2620    0.7863 C   0  0  0  0  0  0  0  0  0  0  0  0
    3.6723    0.8071    2.1160 C   0  0  0  0  0  0  0  0  0  0  0  0
    4.8840    0.4691    2.7266 C   0  0  0  0  0  0  0  0  0  0  0  0
    6.0818    0.5786    2.0152 C   0  0  0  0  0  0  0  0  0  0  0  0
    6.0700    1.0249    0.6909 C   0  0  0  0  0  0  0  0  0  0  0  0
    4.8607    1.3637    0.0762 C   0  0  0  0  0  0  0  0  0  0  0  0
    1.6249   -0.8476   -0.0436 C   0  0  0  0  0  0  0  0  0  0  0  0
    0.5825   -1.7172   -0.7516 C   0  0  0  0  0  0  0  0  0  0  0  0
   -1.1368   -3.7907   -1.4344 H   0  0  0  0  0  0  0  0  0  0  0  0
   -0.6378   -2.9470   -2.9654 H   0  0  0  0  0  0  0  0  0  0  0  0
   -2.3179   -3.4879   -2.7516 H   0  0  0  0  0  0  0  0  0  0  0  0
   -2.0752   -1.0542   -2.4695 H   0  0  0  0  0  0  0  0  0  0  0  0
   -3.8964   -2.2839   -1.4050 H   0  0  0  0  0  0  0  0  0  0  0  0
   -2.0794   -2.6096    0.7553 H   0  0  0  0  0  0  0  0  0  0  0  0
   -2.6859   -0.6243    1.7256 H   0  0  0  0  0  0  0  0  0  0  0  0
   -3.5153    1.5553    2.4698 H   0  0  0  0  0  0  0  0  0  0  0  0
   -4.8196    3.5933    1.9693 H   0  0  0  0  0  0  0  0  0  0  0  0
   -5.5045    2.1148   -1.3004 H   0  0  0  0  0  0  0  0  0  0  0  0
   -4.6834   -0.0749   -2.0675 H   0  0  0  0  0  0  0  0  0  0  0  0
   -0.7280    0.8979    0.0680 H   0  0  0  0  0  0  0  0  0  0  0  0
   -1.5428    0.8403   -1.5057 H   0  0  0  0  0  0  0  0  0  0  0  0
    0.6514    0.4457   -2.6415 H   0  0  0  0  0  0  0  0  0  0  0  0
    0.5845    2.0008   -1.7694 H   0  0  0  0  0  0  0  0  0  0  0  0
    2.6781    0.2813   -1.5689 H   0  0  0  0  0  0  0  0  0  0  0  0
    2.4895    2.5341   -0.4759 H   0  0  0  0  0  0  0  0  0  0  0  0
    1.5623    1.8188    0.8706 H   0  0  0  0  0  0  0  0  0  0  0  0
    2.7516    0.7117    2.6779 H   0  0  0  0  0  0  0  0  0  0  0  0
    4.8940    0.1200    3.7511 H   0  0  0  0  0  0  0  0  0  0  0  0
    7.0186    0.3157    2.4892 H   0  0  0  0  0  0  0  0  0  0  0  0
    6.9980    1.1063    0.1398 H   0  0  0  0  0  0  0  0  0  0  0  0
    4.8642    1.7030   -0.9523 H   0  0  0  0  0  0  0  0  0  0  0  0
    2.5789   -1.4112    0.0488 H   0  0  0  0  0  0  0  0  0  0  0  0
    1.2558   -0.6336    0.9839 H   0  0  0  0  0  0  0  0  0  0  0  0
    0.9505   -1.9220   -1.7797 H   0  0  0  0  0  0  0  0  0  0  0  0
    0.4994   -2.6762   -0.1975 H   0  0  0  0  0  0  0  0  0  0  0  0
  1  2  1  0
  2  3  1  0
  3  4  1  0
  3  5  1  0
  5  6  2  0
  6  7  1  0
  7  8  2  0
  8  9  1  0
  8 10  1  0
 10 11  2  0
  2 12  1  0
 12 13  1  0
 13 14  1  0
 14 15  1  0
 15 16  1  0
 16 17  1  0
 17 18  2  0
 18 19  1  0
 19 20  2  0
 20 21  1  0
 21 22  2  0
 15 23  1  0
 23 24  1  0
 11  5  1  0
 24 12  1  0
 22 17  1  0
  1 25  1  0
  1 26  1  0
  1 27  1  0
  2 28  1  0
  3 29  1  0
  4 30  1  0
  6 31  1  0
  7 32  1  0
  9 33  1  0
 10 34  1  0
 11 35  1  0
 13 36  1  0
 13 37  1  0
 14 38  1  0
 14 39  1  0
 15 40  1  0
 16 41  1  0
 16 42  1  0
 18 43  1  0
 19 44  1  0
 20 45  1  0
 21 46  1  0
 22 47  1  0
 23 48  1  0
 23 49  1  0
 24 50  1  0
 24 51  1  0
M  END
$$$$
