
     RDKit          3D

 24 25  0  0  0  0  0  0  0  0999 V2000
    4.5678    0.1864    0.8034 C   0  0  0  0  0  0  0  0  0  0  0  0
    3.2923   -0.3236    1.9956 S   0  0  0  0  0  0  0  0  0  0  0  0
    2.0197   -0.4571    0.7439 C   0  0  0  0  0  0  0  0  0  0  0  0
    1.7606   -1.6010    0.0733 N   0  0  0  0  0  0  0  0  0  0  0  0
    0.7450   -1.2597   -0.7425 C   0  0  0  0  0  0  0  0  0  0  0  0
    0.1372   -2.1537   -1.6195 O   0  0  0  0  0  0  0  0  0  0  0  0
    0.4162    0.0690   -0.5632 C   0  0  0  0  0  0  0  0  0  0  0  0
   -0.7003    0.8314   -1.2085 C   0  0  0  0  0  0  0  0  0  0  0  0
   -1.9615    0.6525   -0.4256 C   0  0  0  0  0  0  0  0  0  0  0  0
   -2.9424   -0.3015   -0.6643 C   0  0  0  0  0  0  0  0  0  0  0  0
   -3.9765   -0.2746    0.2790 C   0  0  0  0  0  0  0  0  0  0  0  0
   -3.8066    0.6880    1.2660 C   0  0  0  0  0  0  0  0  0  0  0  0
   -2.3671    1.5047    0.9663 S   0  0  0  0  0  0  0  0  0  0  0  0
    1.2198    0.5679    0.3893 N   0  0  0  0  0  0  0  0  0  0  0  0
    5.5237    0.3485    1.3421 H   0  0  0  0  0  0  0  0  0  0  0  0
    4.7145   -0.6062    0.0399 H   0  0  0  0  0  0  0  0  0  0  0  0
    4.2686    1.1337    0.3076 H   0  0  0  0  0  0  0  0  0  0  0  0
   -0.6259   -1.8711   -2.2211 H   0  0  0  0  0  0  0  0  0  0  0  0
   -0.8456    0.4913   -2.2555 H   0  0  0  0  0  0  0  0  0  0  0  0
   -0.4398    1.9107   -1.2415 H   0  0  0  0  0  0  0  0  0  0  0  0
   -2.9124   -0.9992   -1.4906 H   0  0  0  0  0  0  0  0  0  0  0  0
   -4.8245   -0.9456    0.2468 H   0  0  0  0  0  0  0  0  0  0  0  0
   -4.4819    0.8728    2.0904 H   0  0  0  0  0  0  0  0  0  0  0  0
    1.2192    1.5362    0.7802 H   0  0  0  0  0  0  0  0  0  0  0  0
  1  2  1  0
  2  3  1  0
  3  4  2  0
  4  5  1  0
  5  6  1  0
  5  7  2  0
  7  8  1  0
  8  9  1  0
  9 10  2  0
 10 11  1  0
 11 12  2  0
 12 13  1  0
  7 14  1  0
 14  3  1  0
 13  9  1  0
  1 15  1  0
  1 16  1  0
  1 17  1  0
  6 18  1  0
  8 19  1  0
  8 20  1  0
 10 21  1  0
 11 22  1  0
 12 23  1  0
 14 24  1  0
M  END
$$$$
