
     RDKit          3D

 49 49  0  0  0  0  0  0  0  0999 V2000
    4.9798   -2.2159   -2.3370 C   0  0  0  0  0  0  0  0  0  0  0  0
    5.5548   -1.0246   -1.8099 O   0  0  0  0  0  0  0  0  0  0  0  0
    4.9668   -0.2334   -0.8106 C   0  0  0  0  0  0  0  0  0  0  0  0
    5.6430    0.9196   -0.3865 C   0  0  0  0  0  0  0  0  0  0  0  0
    6.8706    1.2482   -0.9592 O   0  0  0  0  0  0  0  0  0  0  0  0
    5.0863    1.7366    0.6064 C   0  0  0  0  0  0  0  0  0  0  0  0
    3.8567    1.4088    1.1805 C   0  0  0  0  0  0  0  0  0  0  0  0
    3.1707    0.2564    0.7705 C   0  0  0  0  0  0  0  0  0  0  0  0
    1.8352   -0.0929    1.3693 C   0  0  0  0  0  0  0  0  0  0  0  0
    0.7738    0.0958    0.3837 N   0  0  0  0  0  0  0  0  0  0  0  0
    0.3100    1.3956   -0.0089 C   0  0  0  0  0  0  0  0  0  0  0  0
    0.8561    2.4318    0.4590 O   0  0  0  0  0  0  0  0  0  0  0  0
   -0.7952    1.5297   -1.0189 C   0  0  0  0  0  0  0  0  0  0  0  0
   -1.8874    2.5171   -0.5760 C   0  0  0  0  0  0  0  0  0  0  0  0
   -2.6254    2.1187    0.7175 C   0  0  0  0  0  0  0  0  0  0  0  0
   -3.4538    0.8264    0.5808 C   0  0  0  0  0  0  0  0  0  0  0  0
   -2.6539   -0.4051    0.9309 C   0  0  0  0  0  0  0  0  0  0  0  0
   -3.0138   -1.6779    0.6681 C   0  0  0  0  0  0  0  0  0  0  0  0
   -4.2314   -2.1585   -0.1024 C   0  0  0  0  0  0  0  0  0  0  0  0
   -4.0769   -1.9463   -1.6128 C   0  0  0  0  0  0  0  0  0  0  0  0
   -5.5599   -1.6049    0.4285 C   0  0  0  0  0  0  0  0  0  0  0  0
    3.7265   -0.5600   -0.2270 C   0  0  0  0  0  0  0  0  0  0  0  0
    3.9989   -1.9910   -2.8066 H   0  0  0  0  0  0  0  0  0  0  0  0
    4.8545   -2.9688   -1.5304 H   0  0  0  0  0  0  0  0  0  0  0  0
    5.6563   -2.6334   -3.1105 H   0  0  0  0  0  0  0  0  0  0  0  0
    7.3842    2.0744   -0.6754 H   0  0  0  0  0  0  0  0  0  0  0  0
    5.6062    2.6283    0.9327 H   0  0  0  0  0  0  0  0  0  0  0  0
    3.4399    2.0552    1.9429 H   0  0  0  0  0  0  0  0  0  0  0  0
    1.6197    0.5161    2.2744 H   0  0  0  0  0  0  0  0  0  0  0  0
    1.8532   -1.1571    1.6901 H   0  0  0  0  0  0  0  0  0  0  0  0
    0.3290   -0.7532   -0.0327 H   0  0  0  0  0  0  0  0  0  0  0  0
   -0.3504    1.8971   -1.9682 H   0  0  0  0  0  0  0  0  0  0  0  0
   -1.2489    0.5407   -1.2387 H   0  0  0  0  0  0  0  0  0  0  0  0
   -1.4311    3.5205   -0.4299 H   0  0  0  0  0  0  0  0  0  0  0  0
   -2.6272    2.6214   -1.3994 H   0  0  0  0  0  0  0  0  0  0  0  0
   -1.9153    2.0583    1.5708 H   0  0  0  0  0  0  0  0  0  0  0  0
   -3.3275    2.9465    0.9589 H   0  0  0  0  0  0  0  0  0  0  0  0
   -3.8608    0.7670   -0.4455 H   0  0  0  0  0  0  0  0  0  0  0  0
   -4.3090    0.8847    1.2874 H   0  0  0  0  0  0  0  0  0  0  0  0
   -1.7326   -0.2673    1.4889 H   0  0  0  0  0  0  0  0  0  0  0  0
   -2.3502   -2.4553    1.0384 H   0  0  0  0  0  0  0  0  0  0  0  0
   -4.2728   -3.2602    0.0504 H   0  0  0  0  0  0  0  0  0  0  0  0
   -4.0945   -0.8745   -1.8874 H   0  0  0  0  0  0  0  0  0  0  0  0
   -3.1186   -2.3864   -1.9627 H   0  0  0  0  0  0  0  0  0  0  0  0
   -4.9060   -2.4543   -2.1503 H   0  0  0  0  0  0  0  0  0  0  0  0
   -5.5709   -1.6207    1.5393 H   0  0  0  0  0  0  0  0  0  0  0  0
   -6.3977   -2.2378    0.0657 H   0  0  0  0  0  0  0  0  0  0  0  0
   -5.7470   -0.5724    0.0720 H   0  0  0  0  0  0  0  0  0  0  0  0
    3.1859   -1.4427   -0.5423 H   0  0  0  0  0  0  0  0  0  0  0  0
  1  2  1  0
  2  3  1  0
  3  4  2  0
  4  5  1  0
  4  6  1  0
  6  7  2  0
  7  8  1  0
  8  9  1  0
  9 10  1  0
 10 11  1  0
 11 12  2  0
 11 13  1  0
 13 14  1  0
 14 15  1  0
 15 16  1  0
 16 17  1  0
 17 18  2  0
 18 19  1  0
 19 20  1  0
 19 21  1  0
  8 22  2  0
 22  3  1  0
  1 23  1  0
  1 24  1  0
  1 25  1  0
  5 26  1  0
  6 27  1  0
  7 28  1  0
  9 29  1  0
  9 30  1  0
 10 31  1  0
 13 32  1  0
 13 33  1  0
 14 34  1  0
 14 35  1  0
 15 36  1  0
 15 37  1  0
 16 38  1  0
 16 39  1  0
 17 40  1  0
 18 41  1  0
 19 42  1  0
 20 43  1  0
 20 44  1  0
 20 45  1  0
 21 46  1  0
 21 47  1  0
 21 48  1  0
 22 49  1  0
M  END
$$$$
