
     RDKit          3D

 96 97  0  0  0  0  0  0  0  0999 V2000
    2.6144    0.0483    3.0988 C   0  0  0  0  0  0  0  0  0  0  0  0
    3.0079   -0.4477    1.7260 C   0  0  0  0  0  0  0  0  0  0  0  0
    4.4202   -0.3704    1.2733 C   0  0  0  0  0  0  0  0  0  0  0  0
    5.2845    0.5457    1.7261 C   0  0  0  0  0  0  0  0  0  0  0  0
    6.6729    0.5889    1.2169 C   0  0  0  0  0  0  0  0  0  0  0  0
    7.6172    1.4373    1.6682 C   0  0  0  0  0  0  0  0  0  0  0  0
    7.3444    2.3939    2.8064 C   0  0  0  0  0  0  0  0  0  0  0  0
    8.9450    1.4164    1.0063 C   0  0  0  0  0  0  0  0  0  0  0  0
    9.7568    2.4795    0.9624 C   0  0  0  0  0  0  0  0  0  0  0  0
   11.0540    2.4256    0.2429 C   0  0  0  0  0  0  0  0  0  0  0  0
   12.0603    1.6328    0.7013 C   0  0  0  0  0  0  0  0  0  0  0  0
   11.9363    0.8883    2.0139 C   0  0  0  0  0  0  0  0  0  0  0  0
   13.3004    1.4426   -0.0961 C   0  0  0  0  0  0  0  0  0  0  0  0
   14.1724    0.6152    0.2849 O   0  0  0  0  0  0  0  0  0  0  0  0
   13.5377    2.1860   -1.3789 C   0  0  1  0  0  0  0  0  0  0  0  0
   13.3010    1.3464   -2.4781 O   0  0  0  0  0  0  0  0  0  0  0  0
   12.6517    3.4327   -1.4614 C   0  0  0  0  0  0  0  0  0  0  0  0
   11.1645    3.1706   -1.0934 C   0  0  0  0  0  0  0  0  0  0  0  0
   10.4645    2.3343   -2.1866 C   0  0  0  0  0  0  0  0  0  0  0  0
   10.4648    4.5489   -1.0138 C   0  0  0  0  0  0  0  0  0  0  0  0
    2.0992   -0.9628    0.8748 C   0  0  0  0  0  0  0  0  0  0  0  0
    0.6482   -1.0368    1.1543 C   0  0  0  0  0  0  0  0  0  0  0  0
   -0.1845   -1.6269    0.2925 C   0  0  0  0  0  0  0  0  0  0  0  0
   -1.6385   -1.6801    0.5606 C   0  0  0  0  0  0  0  0  0  0  0  0
   -2.5294   -2.3172   -0.2242 C   0  0  0  0  0  0  0  0  0  0  0  0
   -2.0931   -3.1056   -1.4381 C   0  0  0  0  0  0  0  0  0  0  0  0
   -3.9676   -2.2171    0.1320 C   0  0  0  0  0  0  0  0  0  0  0  0
   -4.9527   -2.3074   -0.7696 C   0  0  0  0  0  0  0  0  0  0  0  0
   -6.3671   -2.1732   -0.3569 C   0  0  0  0  0  0  0  0  0  0  0  0
   -7.4145   -2.3144   -1.1924 C   0  0  0  0  0  0  0  0  0  0  0  0
   -7.2250   -2.6956   -2.6428 C   0  0  0  0  0  0  0  0  0  0  0  0
   -8.7751   -2.0758   -0.6500 C   0  0  0  0  0  0  0  0  0  0  0  0
   -9.8022   -1.6704   -1.4068 C   0  0  0  0  0  0  0  0  0  0  0  0
  -11.1322   -1.3746   -0.8153 C   0  0  0  0  0  0  0  0  0  0  0  0
  -11.8757   -2.3657   -0.2463 C   0  0  0  0  0  0  0  0  0  0  0  0
  -11.3640   -3.7891   -0.1629 C   0  0  0  0  0  0  0  0  0  0  0  0
  -13.2059   -2.0671    0.3500 C   0  0  0  0  0  0  0  0  0  0  0  0
  -13.8680   -2.9848    0.9072 O   0  0  0  0  0  0  0  0  0  0  0  0
  -13.8152   -0.6952    0.2507 C   0  0  1  0  0  0  0  0  0  0  0  0
  -14.6173   -0.4164    1.3722 O   0  0  0  0  0  0  0  0  0  0  0  0
  -12.7273    0.3743    0.0954 C   0  0  0  0  0  0  0  0  0  0  0  0
  -11.7110    0.0318   -1.0254 C   0  0  0  0  0  0  0  0  0  0  0  0
  -12.3861    0.0970   -2.4125 C   0  0  0  0  0  0  0  0  0  0  0  0
  -10.5936    1.1025   -0.9723 C   0  0  0  0  0  0  0  0  0  0  0  0
    3.4966    0.1460    3.7641 H   0  0  0  0  0  0  0  0  0  0  0  0
    2.1115    1.0343    3.0128 H   0  0  0  0  0  0  0  0  0  0  0  0
    1.9372   -0.6763    3.5976 H   0  0  0  0  0  0  0  0  0  0  0  0
    4.7471   -1.0620    0.5038 H   0  0  0  0  0  0  0  0  0  0  0  0
    4.9514    1.2886    2.4370 H   0  0  0  0  0  0  0  0  0  0  0  0
    6.9292   -0.0929    0.4122 H   0  0  0  0  0  0  0  0  0  0  0  0
    6.8168    1.8762    3.6347 H   0  0  0  0  0  0  0  0  0  0  0  0
    8.2864    2.7847    3.2429 H   0  0  0  0  0  0  0  0  0  0  0  0
    6.7305    3.2447    2.4436 H   0  0  0  0  0  0  0  0  0  0  0  0
    9.2467    0.5135    0.4856 H   0  0  0  0  0  0  0  0  0  0  0  0
    9.4438    3.4289    1.3758 H   0  0  0  0  0  0  0  0  0  0  0  0
   11.3843   -0.0611    1.8539 H   0  0  0  0  0  0  0  0  0  0  0  0
   11.4072    1.5006    2.7745 H   0  0  0  0  0  0  0  0  0  0  0  0
   12.9335    0.6511    2.4395 H   0  0  0  0  0  0  0  0  0  0  0  0
   14.5987    2.5298   -1.4019 H   0  0  0  0  0  0  0  0  0  0  0  0
   14.0717    0.7229   -2.5369 H   0  0  0  0  0  0  0  0  0  0  0  0
   12.7293    3.8700   -2.4819 H   0  0  0  0  0  0  0  0  0  0  0  0
   13.0702    4.1879   -0.7576 H   0  0  0  0  0  0  0  0  0  0  0  0
    9.3688    2.2905   -2.0043 H   0  0  0  0  0  0  0  0  0  0  0  0
   10.8334    1.2878   -2.1919 H   0  0  0  0  0  0  0  0  0  0  0  0
   10.6299    2.7793   -3.1913 H   0  0  0  0  0  0  0  0  0  0  0  0
    9.3684    4.4421   -0.8676 H   0  0  0  0  0  0  0  0  0  0  0  0
   10.8737    5.1464   -0.1703 H   0  0  0  0  0  0  0  0  0  0  0  0
   10.6191    5.1210   -1.9545 H   0  0  0  0  0  0  0  0  0  0  0  0
    2.4382   -1.3244   -0.0908 H   0  0  0  0  0  0  0  0  0  0  0  0
    0.2442   -0.5964    2.0571 H   0  0  0  0  0  0  0  0  0  0  0  0
    0.2175   -2.0538   -0.6176 H   0  0  0  0  0  0  0  0  0  0  0  0
   -2.0028   -1.1459    1.4324 H   0  0  0  0  0  0  0  0  0  0  0  0
   -2.8880   -3.8000   -1.7792 H   0  0  0  0  0  0  0  0  0  0  0  0
   -1.2167   -3.7428   -1.1968 H   0  0  0  0  0  0  0  0  0  0  0  0
   -1.8360   -2.4112   -2.2653 H   0  0  0  0  0  0  0  0  0  0  0  0
   -4.2232   -2.0133    1.1666 H   0  0  0  0  0  0  0  0  0  0  0  0
   -4.7095   -2.4347   -1.8150 H   0  0  0  0  0  0  0  0  0  0  0  0
   -6.5608   -1.9209    0.6808 H   0  0  0  0  0  0  0  0  0  0  0  0
   -8.1711   -3.0581   -3.0947 H   0  0  0  0  0  0  0  0  0  0  0  0
   -6.5022   -3.5331   -2.7358 H   0  0  0  0  0  0  0  0  0  0  0  0
   -6.8597   -1.8188   -3.2174 H   0  0  0  0  0  0  0  0  0  0  0  0
   -8.9271   -2.1762    0.4192 H   0  0  0  0  0  0  0  0  0  0  0  0
   -9.6493   -1.4281   -2.4502 H   0  0  0  0  0  0  0  0  0  0  0  0
  -10.6929   -3.8948    0.7144 H   0  0  0  0  0  0  0  0  0  0  0  0
  -10.8186   -4.0762   -1.0865 H   0  0  0  0  0  0  0  0  0  0  0  0
  -12.1965   -4.5150   -0.0569 H   0  0  0  0  0  0  0  0  0  0  0  0
  -14.4741   -0.6766   -0.6423 H   0  0  0  0  0  0  0  0  0  0  0  0
  -14.0421   -0.4806    2.1799 H   0  0  0  0  0  0  0  0  0  0  0  0
  -12.1824    0.4703    1.0621 H   0  0  0  0  0  0  0  0  0  0  0  0
  -13.2120    1.3550   -0.1081 H   0  0  0  0  0  0  0  0  0  0  0  0
  -13.1367   -0.7119   -2.5338 H   0  0  0  0  0  0  0  0  0  0  0  0
  -11.6333   -0.0255   -3.2206 H   0  0  0  0  0  0  0  0  0  0  0  0
  -12.8926    1.0755   -2.5576 H   0  0  0  0  0  0  0  0  0  0  0  0
   -9.8802    0.9900   -1.8165 H   0  0  0  0  0  0  0  0  0  0  0  0
  -11.0265    2.1244   -1.0378 H   0  0  0  0  0  0  0  0  0  0  0  0
  -10.0235    1.0245   -0.0211 H   0  0  0  0  0  0  0  0  0  0  0  0
  1  2  1  0
  2  3  1  0
  3  4  2  0
  4  5  1  0
  5  6  2  0
  6  7  1  0
  6  8  1  0
  8  9  2  0
  9 10  1  0
 10 11  2  0
 11 12  1  0
 11 13  1  0
 13 14  2  0
 13 15  1  0
 15 16  1  0
 15 17  1  0
 17 18  1  0
 18 19  1  0
 18 20  1  0
  2 21  2  0
 21 22  1  0
 22 23  2  0
 23 24  1  0
 24 25  2  0
 25 26  1  0
 25 27  1  0
 27 28  2  0
 28 29  1  0
 29 30  2  0
 30 31  1  0
 30 32  1  0
 32 33  2  0
 33 34  1  0
 34 35  2  0
 35 36  1  0
 35 37  1  0
 37 38  2  0
 37 39  1  0
 39 40  1  0
 39 41  1  0
 41 42  1  0
 42 43  1  0
 42 44  1  0
 18 10  1  0
 42 34  1  0
  1 45  1  0
  1 46  1  0
  1 47  1  0
  3 48  1  0
  4 49  1  0
  5 50  1  0
  7 51  1  0
  7 52  1  0
  7 53  1  0
  8 54  1  0
  9 55  1  0
 12 56  1  0
 12 57  1  0
 12 58  1  0
 15 59  1  1
 16 60  1  0
 17 61  1  0
 17 62  1  0
 19 63  1  0
 19 64  1  0
 19 65  1  0
 20 66  1  0
 20 67  1  0
 20 68  1  0
 21 69  1  0
 22 70  1  0
 23 71  1  0
 24 72  1  0
 26 73  1  0
 26 74  1  0
 26 75  1  0
 27 76  1  0
 28 77  1  0
 29 78  1  0
 31 79  1  0
 31 80  1  0
 31 81  1  0
 32 82  1  0
 33 83  1  0
 36 84  1  0
 36 85  1  0
 36 86  1  0
 39 87  1  6
 40 88  1  0
 41 89  1  0
 41 90  1  0
 43 91  1  0
 43 92  1  0
 43 93  1  0
 44 94  1  0
 44 95  1  0
 44 96  1  0
M  END
$$$$
