
     RDKit          3D

 47 49  0  0  0  0  0  0  0  0999 V2000
    0.5576   -1.2195    0.6373 C   0  0  1  0  0  0  0  0  0  0  0  0
   -0.0211    0.3691    1.3277 S   0  0  0  0  0  0  0  0  0  0  0  0
   -1.7741   -0.0353    0.9620 C   0  0  0  0  0  0  0  0  0  0  0  0
   -2.0496   -0.2247   -0.5248 C   0  0  0  0  0  0  0  0  0  0  0  0
   -3.3294    0.3686   -1.0670 C   0  0  0  0  0  0  0  0  0  0  0  0
   -4.6853   -0.8398   -0.9061 S   0  0  0  0  0  0  0  0  0  0  0  0
   -5.9054    0.2628   -1.6198 C   0  0  0  0  0  0  0  0  0  0  0  0
   -6.1794    0.3429   -2.9340 N   0  0  0  0  0  0  0  0  0  0  0  0
   -7.1110    1.2835   -3.0316 N   0  0  0  0  0  0  0  0  0  0  0  0
   -7.4007    1.7652   -1.8308 N   0  0  0  0  0  0  0  0  0  0  0  0
   -6.6664    1.1311   -0.9354 N   0  0  0  0  0  0  0  0  0  0  0  0
   -6.6457    1.4238    0.4915 C   0  0  0  0  0  0  0  0  0  0  0  0
   -1.1771   -0.9260   -1.2996 C   0  0  0  0  0  0  0  0  0  0  0  0
    0.0790   -1.2958   -0.7204 N   0  0  0  0  0  0  0  0  0  0  0  0
    1.4760   -1.5042   -1.1723 C   0  0  0  0  0  0  0  0  0  0  0  0
    2.0393   -1.6757   -2.2850 O   0  0  0  0  0  0  0  0  0  0  0  0
    1.9516   -1.3512    0.2504 C   0  0  1  0  0  0  0  0  0  0  0  0
    2.7598   -0.1401    0.4622 N   0  0  0  0  0  0  0  0  0  0  0  0
    3.2696    0.2298    1.7523 C   0  0  0  0  0  0  0  0  0  0  0  0
    2.9875   -0.4577    2.7710 O   0  0  0  0  0  0  0  0  0  0  0  0
    4.1758    1.4097    1.8880 C   0  0  0  0  0  0  0  0  0  0  0  0
    5.8675    0.9248    1.4069 S   0  0  0  0  0  0  0  0  0  0  0  0
    6.6164    2.5626    1.6979 C   0  0  0  0  0  0  0  0  0  0  0  0
    6.8126    2.7796    3.1334 C   0  0  0  0  0  0  0  0  0  0  0  0
    6.9670    2.9512    4.2673 N   0  0  0  0  0  0  0  0  0  0  0  0
    2.5367   -2.5252    0.7969 O   0  0  0  0  0  0  0  0  0  0  0  0
    3.7653   -2.8314    0.1693 C   0  0  0  0  0  0  0  0  0  0  0  0
   -1.4211   -1.2409   -2.7281 C   0  0  0  0  0  0  0  0  0  0  0  0
   -0.3543   -1.3009   -3.6174 O   0  0  0  0  0  0  0  0  0  0  0  0
   -2.5816   -1.4997   -3.1452 O   0  0  0  0  0  0  0  0  0  0  0  0
    0.1811   -2.0831    1.2319 H   0  0  0  0  0  0  0  0  0  0  0  0
   -2.0497   -0.9683    1.4982 H   0  0  0  0  0  0  0  0  0  0  0  0
   -2.4029    0.7769    1.3825 H   0  0  0  0  0  0  0  0  0  0  0  0
   -3.5957    1.2809   -0.4927 H   0  0  0  0  0  0  0  0  0  0  0  0
   -3.2099    0.6950   -2.1214 H   0  0  0  0  0  0  0  0  0  0  0  0
   -5.7567    2.0431    0.7319 H   0  0  0  0  0  0  0  0  0  0  0  0
   -7.5636    1.9787    0.7789 H   0  0  0  0  0  0  0  0  0  0  0  0
   -6.6047    0.4785    1.0724 H   0  0  0  0  0  0  0  0  0  0  0  0
    3.0506    0.4260   -0.3674 H   0  0  0  0  0  0  0  0  0  0  0  0
    4.1689    1.7698    2.9389 H   0  0  0  0  0  0  0  0  0  0  0  0
    3.8156    2.2280    1.2292 H   0  0  0  0  0  0  0  0  0  0  0  0
    5.9811    3.3697    1.2772 H   0  0  0  0  0  0  0  0  0  0  0  0
    7.6047    2.5953    1.1951 H   0  0  0  0  0  0  0  0  0  0  0  0
    4.4701   -1.9719    0.1729 H   0  0  0  0  0  0  0  0  0  0  0  0
    3.6028   -3.1975   -0.8659 H   0  0  0  0  0  0  0  0  0  0  0  0
    4.2506   -3.6530    0.7345 H   0  0  0  0  0  0  0  0  0  0  0  0
   -0.5016   -1.5314   -4.5928 H   0  0  0  0  0  0  0  0  0  0  0  0
  1  2  1  0
  2  3  1  0
  3  4  1  0
  4  5  1  0
  5  6  1  0
  6  7  1  0
  7  8  2  0
  8  9  1  0
  9 10  2  0
 10 11  1  0
 11 12  1  0
  4 13  2  0
 13 14  1  0
 14 15  1  0
 15 16  2  0
 15 17  1  0
 17 18  1  0
 18 19  1  0
 19 20  2  0
 19 21  1  0
 21 22  1  0
 22 23  1  0
 23 24  1  0
 24 25  3  0
 17 26  1  1
 26 27  1  0
 13 28  1  0
 28 29  1  0
 28 30  2  0
 14  1  1  0
 17  1  1  0
 11  7  1  0
  1 31  1  1
  3 32  1  0
  3 33  1  0
  5 34  1  0
  5 35  1  0
 12 36  1  0
 12 37  1  0
 12 38  1  0
 18 39  1  0
 21 40  1  0
 21 41  1  0
 23 42  1  0
 23 43  1  0
 27 44  1  0
 27 45  1  0
 27 46  1  0
 29 47  1  0
M  END
$$$$
