
     RDKit          3D

 57 62  0  0  0  0  0  0  0  0999 V2000
   -1.4034   -1.2855    4.9049 C   0  0  1  0  0  0  0  0  0  0  0  0
   -2.4959   -0.6539    5.5296 O   0  0  0  0  0  0  0  0  0  0  0  0
   -1.8289   -1.9850    3.6254 C   0  0  0  0  0  0  0  0  0  0  0  0
   -1.7294   -0.9845    2.5541 N   0  0  0  0  0  0  0  0  0  0  0  0
   -0.6465   -0.0716    2.9418 C   0  0  1  0  0  0  0  0  0  0  0  0
   -0.3668   -0.2736    4.4415 C   0  0  0  0  0  0  0  0  0  0  0  0
    0.5705   -0.3524    2.0423 C   0  0  2  0  0  0  0  0  0  0  0  0
    1.0273    0.8619    1.2914 C   0  0  0  0  0  0  0  0  0  0  0  0
    1.5098    1.8863    1.8438 O   0  0  0  0  0  0  0  0  0  0  0  0
    0.8906    0.7334   -0.1130 N   0  0  0  0  0  0  0  0  0  0  0  0
    1.4862    1.6070   -1.1216 C   0  0  0  0  0  0  0  0  0  0  0  0
    2.9187    1.2189   -1.3626 C   0  0  0  0  0  0  0  0  0  0  0  0
    3.2408    0.2586   -2.3561 C   0  0  0  0  0  0  0  0  0  0  0  0
    4.5746   -0.1400   -2.5586 C   0  0  0  0  0  0  0  0  0  0  0  0
    5.5527    0.4310   -1.7507 C   0  0  0  0  0  0  0  0  0  0  0  0
    6.9150    0.2017   -1.7558 O   0  0  0  0  0  0  0  0  0  0  0  0
    7.5059    1.0213   -0.7374 C   0  0  0  0  0  0  0  0  0  0  0  0
    6.4088    1.7331   -0.1477 O   0  0  0  0  0  0  0  0  0  0  0  0
    5.2512    1.3436   -0.7931 C   0  0  0  0  0  0  0  0  0  0  0  0
    3.9455    1.7658   -0.5607 C   0  0  0  0  0  0  0  0  0  0  0  0
    0.3894   -0.5735   -0.3304 C   0  0  0  0  0  0  0  0  0  0  0  0
    0.2429   -1.0715   -1.4785 O   0  0  0  0  0  0  0  0  0  0  0  0
    0.0852   -1.3063    0.9456 C   0  0  2  0  0  0  0  0  0  0  0  0
   -1.4090   -1.5714    1.2375 C   0  0  2  0  0  0  0  0  0  0  0  0
   -2.3668   -1.0249    0.1873 C   0  0  0  0  0  0  0  0  0  0  0  0
   -2.6392    0.3517    0.0934 C   0  0  0  0  0  0  0  0  0  0  0  0
   -3.4887    0.8435   -0.9009 C   0  0  0  0  0  0  0  0  0  0  0  0
   -4.0793   -0.0278   -1.8324 C   0  0  0  0  0  0  0  0  0  0  0  0
   -3.8087   -1.4043   -1.7370 C   0  0  0  0  0  0  0  0  0  0  0  0
   -2.9568   -1.8954   -0.7443 C   0  0  0  0  0  0  0  0  0  0  0  0
   -4.9842    0.4864   -2.8911 C   0  0  0  0  0  0  0  0  0  0  0  0
   -4.8661    1.8315   -3.3717 N   0  0  0  0  0  0  0  0  0  0  0  0
   -5.8847   -0.2959   -3.3990 N   0  0  0  0  0  0  0  0  0  0  0  0
   -0.9563   -2.0121    5.6182 H   0  0  0  0  0  0  0  0  0  0  0  0
   -2.8929   -0.0121    4.8832 H   0  0  0  0  0  0  0  0  0  0  0  0
   -1.1358   -2.8415    3.4527 H   0  0  0  0  0  0  0  0  0  0  0  0
   -2.8695   -2.3679    3.6985 H   0  0  0  0  0  0  0  0  0  0  0  0
   -1.0103    0.9704    2.7987 H   0  0  0  0  0  0  0  0  0  0  0  0
    0.6498   -0.6789    4.6348 H   0  0  0  0  0  0  0  0  0  0  0  0
   -0.4609    0.6849    4.9983 H   0  0  0  0  0  0  0  0  0  0  0  0
    1.4325   -0.8026    2.5810 H   0  0  0  0  0  0  0  0  0  0  0  0
    0.9034    1.5383   -2.0657 H   0  0  0  0  0  0  0  0  0  0  0  0
    1.4262    2.6642   -0.7833 H   0  0  0  0  0  0  0  0  0  0  0  0
    2.4615   -0.1774   -2.9683 H   0  0  0  0  0  0  0  0  0  0  0  0
    4.8319   -0.8696   -3.3150 H   0  0  0  0  0  0  0  0  0  0  0  0
    8.2264    1.7346   -1.1899 H   0  0  0  0  0  0  0  0  0  0  0  0
    8.0040    0.3859    0.0245 H   0  0  0  0  0  0  0  0  0  0  0  0
    3.7337    2.4908    0.2146 H   0  0  0  0  0  0  0  0  0  0  0  0
    0.6655   -2.2554    0.9779 H   0  0  0  0  0  0  0  0  0  0  0  0
   -1.5477   -2.6778    1.2602 H   0  0  0  0  0  0  0  0  0  0  0  0
   -2.1892    1.0518    0.7822 H   0  0  0  0  0  0  0  0  0  0  0  0
   -3.6938    1.9054   -0.9231 H   0  0  0  0  0  0  0  0  0  0  0  0
   -4.2433   -2.1023   -2.4419 H   0  0  0  0  0  0  0  0  0  0  0  0
   -2.7536   -2.9585   -0.7088 H   0  0  0  0  0  0  0  0  0  0  0  0
   -5.5464    2.2073   -4.0693 H   0  0  0  0  0  0  0  0  0  0  0  0
   -4.0603    2.4376   -3.1035 H   0  0  0  0  0  0  0  0  0  0  0  0
   -6.5355    0.0268   -4.1494 H   0  0  0  0  0  0  0  0  0  0  0  0
  1  2  1  0
  1  3  1  0
  3  4  1  0
  4  5  1  0
  5  6  1  0
  5  7  1  0
  7  8  1  0
  8  9  2  0
  8 10  1  0
 10 11  1  0
 11 12  1  0
 12 13  2  0
 13 14  1  0
 14 15  2  0
 15 16  1  0
 16 17  1  0
 17 18  1  0
 18 19  1  0
 19 20  2  0
 10 21  1  0
 21 22  2  0
 21 23  1  0
 23 24  1  0
 24 25  1  0
 25 26  2  0
 26 27  1  0
 27 28  2  0
 28 29  1  0
 29 30  2  0
 28 31  1  0
 31 32  1  0
 31 33  2  3
  6  1  1  0
 23  7  1  0
 30 25  1  0
 24  4  1  0
 20 12  1  0
 19 15  1  0
  1 34  1  1
  2 35  1  0
  3 36  1  0
  3 37  1  0
  5 38  1  1
  6 39  1  0
  6 40  1  0
  7 41  1  1
 11 42  1  0
 11 43  1  0
 13 44  1  0
 14 45  1  0
 17 46  1  0
 17 47  1  0
 20 48  1  0
 23 49  1  6
 24 50  1  1
 26 51  1  0
 27 52  1  0
 29 53  1  0
 30 54  1  0
 32 55  1  0
 32 56  1  0
 33 57  1  0
M  END
$$$$
