
     RDKit          3D

 70 69  0  0  0  0  0  0  0  0999 V2000
   -2.7803   -0.9586   -0.9020 C   0  0  2  0  0  0  0  0  0  0  0  0
   -2.1689    0.2047   -1.7252 C   0  0  0  0  0  0  0  0  0  0  0  0
   -2.4684    1.6340   -1.2284 C   0  0  0  0  0  0  0  0  0  0  0  0
   -1.8423    1.9510    0.1360 C   0  0  0  0  0  0  0  0  0  0  0  0
   -1.9780    3.4328    0.4736 C   0  0  0  0  0  0  0  0  0  0  0  0
   -4.2813   -0.7709   -0.6243 C   0  0  0  0  0  0  0  0  0  0  0  0
   -4.8047   -1.9676   -0.0963 O   0  0  0  0  0  0  0  0  0  0  0  0
   -6.4371   -1.7092    0.3269 P   0  0  2  0  0  5  0  0  0  0  0  0
   -7.2933   -1.0931   -1.0014 O   0  0  0  0  0  0  0  0  0  0  0  0
   -6.5110   -0.7376    1.4859 O   0  0  0  0  0  0  0  0  0  0  0  0
   -7.1058   -3.2062    0.7961 O   0  0  0  0  0  0  0  0  0  0  0  0
   -8.4753   -3.0182    1.0630 C   0  0  0  0  0  0  0  0  0  0  0  0
   -9.0797   -4.3421    1.5118 C   0  0  0  0  0  0  0  0  0  0  0  0
  -10.4432   -4.1697    1.7794 O   0  0  0  0  0  0  0  0  0  0  0  0
   -2.0404   -1.1747    0.3474 N   0  0  0  0  0  0  0  0  0  0  0  0
   -0.7418   -1.7866    0.3749 C   0  0  0  0  0  0  0  0  0  0  0  0
   -0.2290   -2.2366   -0.6861 O   0  0  0  0  0  0  0  0  0  0  0  0
   -0.0072   -1.9423    1.6778 C   0  0  0  0  0  0  0  0  0  0  0  0
    1.4440   -1.4461    1.5973 C   0  0  0  0  0  0  0  0  0  0  0  0
    1.5266    0.0589    1.2903 C   0  0  0  0  0  0  0  0  0  0  0  0
    2.9486    0.6188    1.4467 C   0  0  0  0  0  0  0  0  0  0  0  0
    3.9030    0.1184    0.3523 C   0  0  0  0  0  0  0  0  0  0  0  0
    5.2718    0.8005    0.4634 C   0  0  0  0  0  0  0  0  0  0  0  0
    6.2242    0.3048   -0.6346 C   0  0  0  0  0  0  0  0  0  0  0  0
    7.6577    0.8407   -0.4704 C   0  0  0  0  0  0  0  0  0  0  0  0
    7.7933    2.3757   -0.5340 C   0  0  0  0  0  0  0  0  0  0  0  0
    7.2505    3.0232   -1.8199 C   0  0  0  0  0  0  0  0  0  0  0  0
    7.9716    2.5430   -3.0787 C   0  0  0  0  0  0  0  0  0  0  0  0
   -2.6872   -1.8788   -1.5222 H   0  0  0  0  0  0  0  0  0  0  0  0
   -2.5612    0.1268   -2.7629 H   0  0  0  0  0  0  0  0  0  0  0  0
   -1.0683    0.0707   -1.8015 H   0  0  0  0  0  0  0  0  0  0  0  0
   -3.5635    1.8156   -1.1982 H   0  0  0  0  0  0  0  0  0  0  0  0
   -2.0497    2.3381   -1.9808 H   0  0  0  0  0  0  0  0  0  0  0  0
   -0.7650    1.6856    0.1268 H   0  0  0  0  0  0  0  0  0  0  0  0
   -2.3500    1.3700    0.9320 H   0  0  0  0  0  0  0  0  0  0  0  0
   -1.4460    4.0516   -0.2801 H   0  0  0  0  0  0  0  0  0  0  0  0
   -1.5315    3.6288    1.4712 H   0  0  0  0  0  0  0  0  0  0  0  0
   -3.0494    3.7256    0.4995 H   0  0  0  0  0  0  0  0  0  0  0  0
   -4.4143    0.0691    0.0946 H   0  0  0  0  0  0  0  0  0  0  0  0
   -4.7871   -0.5257   -1.5852 H   0  0  0  0  0  0  0  0  0  0  0  0
   -7.1948   -0.1094   -0.9409 H   0  0  0  0  0  0  0  0  0  0  0  0
   -9.0135   -2.6841    0.1471 H   0  0  0  0  0  0  0  0  0  0  0  0
   -8.6230   -2.2750    1.8797 H   0  0  0  0  0  0  0  0  0  0  0  0
   -8.9472   -5.0994    0.7067 H   0  0  0  0  0  0  0  0  0  0  0  0
   -8.5575   -4.6929    2.4302 H   0  0  0  0  0  0  0  0  0  0  0  0
  -10.7814   -5.0578    2.0654 H   0  0  0  0  0  0  0  0  0  0  0  0
   -2.5028   -0.9597    1.2601 H   0  0  0  0  0  0  0  0  0  0  0  0
   -0.0048   -3.0188    1.9519 H   0  0  0  0  0  0  0  0  0  0  0  0
   -0.5363   -1.3942    2.4872 H   0  0  0  0  0  0  0  0  0  0  0  0
    1.9326   -1.6493    2.5752 H   0  0  0  0  0  0  0  0  0  0  0  0
    1.9862   -2.0260    0.8201 H   0  0  0  0  0  0  0  0  0  0  0  0
    0.8616    0.6087    1.9920 H   0  0  0  0  0  0  0  0  0  0  0  0
    1.1658    0.2528    0.2572 H   0  0  0  0  0  0  0  0  0  0  0  0
    2.8868    1.7279    1.3904 H   0  0  0  0  0  0  0  0  0  0  0  0
    3.3498    0.3546    2.4497 H   0  0  0  0  0  0  0  0  0  0  0  0
    4.0392   -0.9798    0.4504 H   0  0  0  0  0  0  0  0  0  0  0  0
    3.4662    0.3350   -0.6476 H   0  0  0  0  0  0  0  0  0  0  0  0
    5.1331    1.8986    0.3669 H   0  0  0  0  0  0  0  0  0  0  0  0
    5.7114    0.5822    1.4616 H   0  0  0  0  0  0  0  0  0  0  0  0
    6.2742   -0.8054   -0.5920 H   0  0  0  0  0  0  0  0  0  0  0  0
    5.8251    0.5721   -1.6358 H   0  0  0  0  0  0  0  0  0  0  0  0
    8.3019    0.3825   -1.2507 H   0  0  0  0  0  0  0  0  0  0  0  0
    8.0576    0.4953    0.5079 H   0  0  0  0  0  0  0  0  0  0  0  0
    8.8696    2.6351   -0.4314 H   0  0  0  0  0  0  0  0  0  0  0  0
    7.2794    2.8288    0.3401 H   0  0  0  0  0  0  0  0  0  0  0  0
    6.1596    2.8435   -1.9191 H   0  0  0  0  0  0  0  0  0  0  0  0
    7.3905    4.1228   -1.7380 H   0  0  0  0  0  0  0  0  0  0  0  0
    9.0700    2.6665   -2.9683 H   0  0  0  0  0  0  0  0  0  0  0  0
    7.7365    1.4778   -3.2824 H   0  0  0  0  0  0  0  0  0  0  0  0
    7.6336    3.1434   -3.9494 H   0  0  0  0  0  0  0  0  0  0  0  0
  1  2  1  0
  2  3  1  0
  3  4  1  0
  4  5  1  0
  1  6  1  0
  6  7  1  0
  8  7  1  6
  8  9  1  0
  8 10  2  0
  8 11  1  0
 11 12  1  0
 12 13  1  0
 13 14  1  0
  1 15  1  0
 15 16  1  0
 16 17  2  0
 16 18  1  0
 18 19  1  0
 19 20  1  0
 20 21  1  0
 21 22  1  0
 22 23  1  0
 23 24  1  0
 24 25  1  0
 25 26  1  0
 26 27  1  0
 27 28  1  0
  1 29  1  6
  2 30  1  0
  2 31  1  0
  3 32  1  0
  3 33  1  0
  4 34  1  0
  4 35  1  0
  5 36  1  0
  5 37  1  0
  5 38  1  0
  6 39  1  0
  6 40  1  0
  9 41  1  0
 12 42  1  0
 12 43  1  0
 13 44  1  0
 13 45  1  0
 14 46  1  0
 15 47  1  0
 18 48  1  0
 18 49  1  0
 19 50  1  0
 19 51  1  0
 20 52  1  0
 20 53  1  0
 21 54  1  0
 21 55  1  0
 22 56  1  0
 22 57  1  0
 23 58  1  0
 23 59  1  0
 24 60  1  0
 24 61  1  0
 25 62  1  0
 25 63  1  0
 26 64  1  0
 26 65  1  0
 27 66  1  0
 27 67  1  0
 28 68  1  0
 28 69  1  0
 28 70  1  0
M  END
$$$$
