
     RDKit          3D

 27 28  0  0  0  0  0  0  0  0999 V2000
    4.1237   -0.2706    0.0566 C   0  0  0  0  0  0  0  0  0  0  0  0
    2.9696   -0.8045    0.8972 C   0  0  0  0  0  0  0  0  0  0  0  0
    1.7077   -0.6814    0.1716 N   0  0  0  0  0  0  0  0  0  0  0  0
    1.2423   -1.5333   -0.8618 C   0  0  0  0  0  0  0  0  0  0  0  0
    1.7300   -2.6689   -1.1037 O   0  0  0  0  0  0  0  0  0  0  0  0
    0.1819   -0.9630   -1.6164 N   0  0  0  0  0  0  0  0  0  0  0  0
   -0.0694    0.3815   -1.1001 C   0  0  0  0  0  0  0  0  0  0  0  0
    0.9382    0.5053    0.0070 C   0  0  0  0  0  0  0  0  0  0  0  0
    1.1176    1.5471    0.6926 O   0  0  0  0  0  0  0  0  0  0  0  0
   -1.4822    0.5058   -0.5808 C   0  0  0  0  0  0  0  0  0  0  0  0
   -2.2873    1.5845   -0.9854 C   0  0  0  0  0  0  0  0  0  0  0  0
   -3.5922    1.7134   -0.4993 C   0  0  0  0  0  0  0  0  0  0  0  0
   -4.1029    0.7709    0.3968 C   0  0  0  0  0  0  0  0  0  0  0  0
   -3.3092   -0.3018    0.8104 C   0  0  0  0  0  0  0  0  0  0  0  0
   -2.0040   -0.4353    0.3273 C   0  0  0  0  0  0  0  0  0  0  0  0
    3.9597    0.8018   -0.1815 H   0  0  0  0  0  0  0  0  0  0  0  0
    4.2065   -0.8464   -0.8894 H   0  0  0  0  0  0  0  0  0  0  0  0
    5.0742   -0.3709    0.6215 H   0  0  0  0  0  0  0  0  0  0  0  0
    2.9094   -0.2348    1.8492 H   0  0  0  0  0  0  0  0  0  0  0  0
    3.1543   -1.8715    1.1462 H   0  0  0  0  0  0  0  0  0  0  0  0
   -0.2881   -1.4025   -2.4389 H   0  0  0  0  0  0  0  0  0  0  0  0
    0.1514    1.1286   -1.8934 H   0  0  0  0  0  0  0  0  0  0  0  0
   -1.9064    2.3263   -1.6763 H   0  0  0  0  0  0  0  0  0  0  0  0
   -4.2073    2.5456   -0.8166 H   0  0  0  0  0  0  0  0  0  0  0  0
   -5.1129    0.8730    0.7722 H   0  0  0  0  0  0  0  0  0  0  0  0
   -3.7047   -1.0295    1.5071 H   0  0  0  0  0  0  0  0  0  0  0  0
   -1.4000   -1.2694    0.6618 H   0  0  0  0  0  0  0  0  0  0  0  0
  1  2  1  0
  2  3  1  0
  3  4  1  0
  4  5  2  0
  4  6  1  0
  6  7  1  0
  7  8  1  0
  8  9  2  0
  7 10  1  0
 10 11  2  0
 11 12  1  0
 12 13  2  0
 13 14  1  0
 14 15  2  0
  8  3  1  0
 15 10  1  0
  1 16  1  0
  1 17  1  0
  1 18  1  0
  2 19  1  0
  2 20  1  0
  6 21  1  0
  7 22  1  0
 11 23  1  0
 12 24  1  0
 13 25  1  0
 14 26  1  0
 15 27  1  0
M  END
$$$$
