
     RDKit          3D

 39 39  0  0  0  0  0  0  0  0999 V2000
   -2.3625    3.0105   -1.4175 O   0  0  0  0  0  0  0  0  0  0  0  0
   -2.1189    2.1334   -0.3591 C   0  0  0  0  0  0  0  0  0  0  0  0
   -2.5705    0.7921   -0.3693 C   0  0  0  0  0  0  0  0  0  0  0  0
   -2.2235   -0.0552    0.6966 C   0  0  0  0  0  0  0  0  0  0  0  0
   -1.4728    0.4232    1.7811 C   0  0  0  0  0  0  0  0  0  0  0  0
   -1.1038   -0.5004    2.9106 C   0  0  0  0  0  0  0  0  0  0  0  0
    0.0009   -1.4170    2.4847 C   0  0  0  0  0  0  0  0  0  0  0  0
   -0.2350   -2.6459    2.3291 O   0  0  0  0  0  0  0  0  0  0  0  0
    1.3106   -0.8915    2.2298 N   0  0  0  0  0  0  0  0  0  0  0  0
    2.3694   -1.6849    1.6085 C   0  0  0  0  0  0  0  0  0  0  0  0
    2.0662   -1.9538    0.1285 C   0  0  0  0  0  0  0  0  0  0  0  0
    1.9929   -0.6560   -0.6883 C   0  0  0  0  0  0  0  0  0  0  0  0
    1.7323   -0.9571   -2.1715 C   0  0  0  0  0  0  0  0  0  0  0  0
    1.7639    0.3093   -3.0362 C   0  0  0  0  0  0  0  0  0  0  0  0
    0.5972    1.2037   -2.7530 C   0  0  0  0  0  0  0  0  0  0  0  0
   -0.6543    0.8972   -3.2716 O   0  0  0  0  0  1  0  0  0  0  0  0
    0.7399    2.2206   -2.0245 O   0  0  0  0  0  0  0  0  0  0  0  0
   -1.0438    1.7572    1.7849 C   0  0  0  0  0  0  0  0  0  0  0  0
   -1.3706    2.6039    0.7252 C   0  0  0  0  0  0  0  0  0  0  0  0
   -3.3859    0.2785   -1.4338 N   0  0  0  0  0  4  0  0  0  0  0  0
   -3.2673   -1.0388   -1.8131 O   0  0  0  0  0  1  0  0  0  0  0  0
   -4.3457    0.9464   -1.8700 O   0  0  0  0  0  0  0  0  0  0  0  0
   -2.7728    2.7202   -2.2947 H   0  0  0  0  0  0  0  0  0  0  0  0
   -2.5574   -1.0858    0.6947 H   0  0  0  0  0  0  0  0  0  0  0  0
   -0.7748    0.0751    3.8027 H   0  0  0  0  0  0  0  0  0  0  0  0
   -1.9959   -1.0913    3.2137 H   0  0  0  0  0  0  0  0  0  0  0  0
    1.5179    0.0995    2.4887 H   0  0  0  0  0  0  0  0  0  0  0  0
    2.4793   -2.6490    2.1502 H   0  0  0  0  0  0  0  0  0  0  0  0
    3.3360   -1.1418    1.6929 H   0  0  0  0  0  0  0  0  0  0  0  0
    2.8739   -2.5994   -0.2802 H   0  0  0  0  0  0  0  0  0  0  0  0
    1.1084   -2.5096    0.0352 H   0  0  0  0  0  0  0  0  0  0  0  0
    2.9529   -0.1040   -0.5858 H   0  0  0  0  0  0  0  0  0  0  0  0
    1.1727   -0.0172   -0.2940 H   0  0  0  0  0  0  0  0  0  0  0  0
    2.5192   -1.6486   -2.5449 H   0  0  0  0  0  0  0  0  0  0  0  0
    0.7499   -1.4666   -2.2870 H   0  0  0  0  0  0  0  0  0  0  0  0
    1.7277    0.0135   -4.1066 H   0  0  0  0  0  0  0  0  0  0  0  0
    2.7170    0.8591   -2.8747 H   0  0  0  0  0  0  0  0  0  0  0  0
   -0.4508    2.1416    2.6055 H   0  0  0  0  0  0  0  0  0  0  0  0
   -1.0219    3.6289    0.7355 H   0  0  0  0  0  0  0  0  0  0  0  0
  1  2  1  0
  2  3  2  0
  3  4  1  0
  4  5  2  0
  5  6  1  0
  6  7  1  0
  7  8  2  0
  7  9  1  0
  9 10  1  0
 10 11  1  0
 11 12  1  0
 12 13  1  0
 13 14  1  0
 14 15  1  0
 15 16  1  0
 15 17  2  0
  5 18  1  0
 18 19  2  0
  3 20  1  0
 20 21  1  0
 20 22  2  0
 19  2  1  0
  1 23  1  0
  4 24  1  0
  6 25  1  0
  6 26  1  0
  9 27  1  0
 10 28  1  0
 10 29  1  0
 11 30  1  0
 11 31  1  0
 12 32  1  0
 12 33  1  0
 13 34  1  0
 13 35  1  0
 14 36  1  0
 14 37  1  0
 18 38  1  0
 19 39  1  0
M  CHG  3  16  -1  20   1  21  -1
M  END
$$$$
