
     RDKit          3D

 47 50  0  0  0  0  0  0  0  0999 V2000
    7.9035   -0.7511   -0.6297 N   0  0  0  0  0  0  0  0  0  0  0  0
    7.2378    0.8290   -0.8485 S   0  0  0  0  0  6  0  0  0  0  0  0
    7.1859    1.1580   -2.3145 O   0  0  0  0  0  0  0  0  0  0  0  0
    8.1100    1.8399   -0.1582 O   0  0  0  0  0  0  0  0  0  0  0  0
    5.6139    0.8783   -0.1705 C   0  0  0  0  0  0  0  0  0  0  0  0
    5.4131    1.2844    1.1552 C   0  0  0  0  0  0  0  0  0  0  0  0
    4.1240    1.3101    1.6956 C   0  0  0  0  0  0  0  0  0  0  0  0
    3.0222    0.9117    0.9248 C   0  0  0  0  0  0  0  0  0  0  0  0
    1.7038    0.9674    1.4944 N   0  0  0  0  0  0  0  0  0  0  0  0
    0.6060    0.1513    1.0576 C   0  0  0  0  0  0  0  0  0  0  0  0
   -0.6911    0.6833    0.9779 C   0  0  0  0  0  0  0  0  0  0  0  0
   -1.7494   -0.1509    0.5617 C   0  0  0  0  0  0  0  0  0  0  0  0
   -3.0393    0.3839    0.4639 O   0  0  0  0  0  0  0  0  0  0  0  0
   -4.1744   -0.3581    0.0126 C   0  0  0  0  0  0  0  0  0  0  0  0
   -4.1145   -0.5586   -1.5243 C   0  0  0  0  0  0  0  0  0  0  0  0
   -4.8921    0.5273   -2.2754 C   0  0  0  0  0  0  0  0  0  0  0  0
   -6.3850    0.5266   -1.8900 C   0  0  0  0  0  0  0  0  0  0  0  0
   -6.6442    0.0607   -0.4430 C   0  0  0  0  0  0  0  0  0  0  0  0
   -5.4556    0.3736    0.4714 C   0  0  0  0  0  0  0  0  0  0  0  0
   -1.5116   -1.4656    0.2651 N   0  0  0  0  0  0  0  0  0  0  0  0
   -0.2490   -1.9435    0.3733 C   0  0  0  0  0  0  0  0  0  0  0  0
    0.1275   -3.2157    0.1636 N   0  0  0  0  0  0  0  0  0  0  0  0
    1.4529   -3.1445    0.4590 C   0  0  0  0  0  0  0  0  0  0  0  0
    1.8519   -1.9038    0.8313 N   0  0  0  0  0  0  0  0  0  0  0  0
    0.7623   -1.1656    0.7580 N   0  0  0  0  0  0  0  0  0  0  0  0
    3.2261    0.5189   -0.4103 C   0  0  0  0  0  0  0  0  0  0  0  0
    4.5153    0.4934   -0.9497 C   0  0  0  0  0  0  0  0  0  0  0  0
    7.2936   -1.4148   -1.1577 H   0  0  0  0  0  0  0  0  0  0  0  0
    8.8357   -0.7580   -1.1010 H   0  0  0  0  0  0  0  0  0  0  0  0
    6.2523    1.5801    1.7716 H   0  0  0  0  0  0  0  0  0  0  0  0
    3.9836    1.6297    2.7206 H   0  0  0  0  0  0  0  0  0  0  0  0
    1.5168    1.6796    2.2364 H   0  0  0  0  0  0  0  0  0  0  0  0
   -0.8764    1.7224    1.2195 H   0  0  0  0  0  0  0  0  0  0  0  0
   -4.1677   -1.3610    0.4965 H   0  0  0  0  0  0  0  0  0  0  0  0
   -3.0615   -0.5644   -1.8782 H   0  0  0  0  0  0  0  0  0  0  0  0
   -4.5498   -1.5494   -1.7821 H   0  0  0  0  0  0  0  0  0  0  0  0
   -4.4465    1.5185   -2.0378 H   0  0  0  0  0  0  0  0  0  0  0  0
   -4.7917    0.3681   -3.3708 H   0  0  0  0  0  0  0  0  0  0  0  0
   -6.9445   -0.1389   -2.5831 H   0  0  0  0  0  0  0  0  0  0  0  0
   -6.7861    1.5549   -2.0241 H   0  0  0  0  0  0  0  0  0  0  0  0
   -6.8280   -1.0364   -0.4325 H   0  0  0  0  0  0  0  0  0  0  0  0
   -7.5575    0.5579   -0.0506 H   0  0  0  0  0  0  0  0  0  0  0  0
   -5.7002    0.0745    1.5138 H   0  0  0  0  0  0  0  0  0  0  0  0
   -5.2868    1.4735    0.4710 H   0  0  0  0  0  0  0  0  0  0  0  0
    2.1202   -3.9943    0.4100 H   0  0  0  0  0  0  0  0  0  0  0  0
    2.3891    0.2407   -1.0377 H   0  0  0  0  0  0  0  0  0  0  0  0
    4.6555    0.1768   -1.9754 H   0  0  0  0  0  0  0  0  0  0  0  0
  1  2  1  0
  2  3  2  0
  2  4  2  0
  2  5  1  0
  5  6  2  0
  6  7  1  0
  7  8  2  0
  8  9  1  0
  9 10  1  0
 10 11  2  0
 11 12  1  0
 12 13  1  0
 13 14  1  0
 14 15  1  0
 15 16  1  0
 16 17  1  0
 17 18  1  0
 18 19  1  0
 12 20  2  0
 20 21  1  0
 21 22  2  0
 22 23  1  0
 23 24  2  0
 24 25  1  0
  8 26  1  0
 26 27  2  0
 27  5  1  0
 25 10  1  0
 19 14  1  0
 25 21  1  0
  1 28  1  0
  1 29  1  0
  6 30  1  0
  7 31  1  0
  9 32  1  0
 11 33  1  0
 14 34  1  0
 15 35  1  0
 15 36  1  0
 16 37  1  0
 16 38  1  0
 17 39  1  0
 17 40  1  0
 18 41  1  0
 18 42  1  0
 19 43  1  0
 19 44  1  0
 23 45  1  0
 26 46  1  0
 27 47  1  0
M  END
$$$$
