
     RDKit          3D

 45 46  0  0  0  0  0  0  0  0999 V2000
    2.9636    0.5642    2.8670 O   0  0  0  0  0  0  0  0  0  0  0  0
    2.9415   -0.6666    2.1934 C   0  0  0  0  0  0  0  0  0  0  0  0
    2.5485   -0.4949    0.7167 C   0  0  1  0  0  0  0  0  0  0  0  0
    1.3060    0.1816    0.6351 O   0  0  0  0  0  0  0  0  0  0  0  0
    0.8096    0.1531   -0.6952 C   0  0  1  0  0  0  0  0  0  0  0  0
   -0.4703    0.7554   -0.7298 O   0  0  0  0  0  0  0  0  0  0  0  0
   -1.4371   -0.0221   -0.0346 C   0  0  1  0  0  0  0  0  0  0  0  0
   -1.9065    0.7663    1.2100 C   0  0  2  0  0  0  0  0  0  0  0  0
   -1.0911    0.4209    2.3016 O   0  0  0  0  0  0  0  0  0  0  0  0
   -3.3896    0.4868    1.5486 C   0  0  1  0  0  0  0  0  0  0  0  0
   -4.1994    1.4728    0.9586 O   0  0  0  0  0  0  0  0  0  0  0  0
   -3.8149   -0.9111    1.0390 C   0  0  0  0  0  0  0  0  0  0  0  0
   -3.0942   -1.9181    1.7022 O   0  0  0  0  0  0  0  0  0  0  0  0
   -3.6698   -1.0851   -0.3662 O   0  0  0  0  0  0  0  0  0  0  0  0
   -2.6402   -0.3069   -0.9722 C   0  0  2  0  0  0  0  0  0  0  0  0
   -2.1932   -1.0230   -2.2541 C   0  0  0  0  0  0  0  0  0  0  0  0
   -1.6468   -2.2762   -1.9462 O   0  0  0  0  0  0  0  0  0  0  0  0
    1.7423    0.9465   -1.6294 C   0  0  2  0  0  0  0  0  0  0  0  0
    1.2571    0.8607   -2.9449 O   0  0  0  0  0  0  0  0  0  0  0  0
    3.1721    0.3711   -1.5554 C   0  0  1  0  0  0  0  0  0  0  0  0
    4.0656    1.1881   -2.2681 O   0  0  0  0  0  0  0  0  0  0  0  0
    3.6271    0.2650   -0.0882 C   0  0  1  0  0  0  0  0  0  0  0  0
    3.8145    1.5499    0.4528 O   0  0  0  0  0  0  0  0  0  0  0  0
    2.0228    0.7828    3.0966 H   0  0  0  0  0  0  0  0  0  0  0  0
    2.2270   -1.3629    2.6898 H   0  0  0  0  0  0  0  0  0  0  0  0
    3.9493   -1.1293    2.2598 H   0  0  0  0  0  0  0  0  0  0  0  0
    2.4555   -1.5278    0.3040 H   0  0  0  0  0  0  0  0  0  0  0  0
    0.7413   -0.8952   -1.0793 H   0  0  0  0  0  0  0  0  0  0  0  0
   -1.0498   -1.0149    0.3059 H   0  0  0  0  0  0  0  0  0  0  0  0
   -1.7919    1.8579    1.0023 H   0  0  0  0  0  0  0  0  0  0  0  0
   -1.1711    1.1539    2.9667 H   0  0  0  0  0  0  0  0  0  0  0  0
   -3.5250    0.5278    2.6556 H   0  0  0  0  0  0  0  0  0  0  0  0
   -5.0853    1.4242    1.4044 H   0  0  0  0  0  0  0  0  0  0  0  0
   -4.8971   -1.0418    1.2696 H   0  0  0  0  0  0  0  0  0  0  0  0
   -3.4360   -1.9529    2.6338 H   0  0  0  0  0  0  0  0  0  0  0  0
   -3.0782    0.6666   -1.2874 H   0  0  0  0  0  0  0  0  0  0  0  0
   -3.0757   -1.1573   -2.9190 H   0  0  0  0  0  0  0  0  0  0  0  0
   -1.4461   -0.4046   -2.8001 H   0  0  0  0  0  0  0  0  0  0  0  0
   -1.3593   -2.6709   -2.8101 H   0  0  0  0  0  0  0  0  0  0  0  0
    1.7523    2.0107   -1.2915 H   0  0  0  0  0  0  0  0  0  0  0  0
    1.5959    1.6574   -3.4306 H   0  0  0  0  0  0  0  0  0  0  0  0
    3.1737   -0.6577   -1.9905 H   0  0  0  0  0  0  0  0  0  0  0  0
    3.9906    0.9341   -3.2249 H   0  0  0  0  0  0  0  0  0  0  0  0
    4.5797   -0.3150   -0.0457 H   0  0  0  0  0  0  0  0  0  0  0  0
    4.7328    1.8366    0.2079 H   0  0  0  0  0  0  0  0  0  0  0  0
  1  2  1  0
  2  3  1  0
  3  4  1  0
  4  5  1  0
  5  6  1  0
  6  7  1  0
  7  8  1  0
  8  9  1  0
  8 10  1  0
 10 11  1  0
 10 12  1  0
 12 13  1  0
 12 14  1  0
 14 15  1  0
 15 16  1  0
 16 17  1  0
  5 18  1  0
 18 19  1  0
 18 20  1  0
 20 21  1  0
 20 22  1  0
 22 23  1  0
 22  3  1  0
 15  7  1  0
  1 24  1  0
  2 25  1  0
  2 26  1  0
  3 27  1  6
  5 28  1  6
  7 29  1  1
  8 30  1  6
  9 31  1  0
 10 32  1  1
 11 33  1  0
 12 34  1  0
 13 35  1  0
 15 36  1  6
 16 37  1  0
 16 38  1  0
 17 39  1  0
 18 40  1  1
 19 41  1  0
 20 42  1  6
 21 43  1  0
 22 44  1  6
 23 45  1  0
M  END
$$$$
