
     RDKit          3D

 54 57  0  0  0  0  0  0  0  0999 V2000
   -9.6766    0.9462   -2.0871 O   0  0  0  0  0  0  0  0  0  0  0  0
   -8.5295    0.9756   -1.5675 C   0  0  0  0  0  0  0  0  0  0  0  0
   -8.1600    2.0767   -0.6173 C   0  0  0  0  0  0  0  0  0  0  0  0
   -7.1695    1.5746    0.4422 C   0  0  0  0  0  0  0  0  0  0  0  0
   -6.0313    0.7941   -0.1715 C   0  0  0  0  0  0  0  0  0  0  0  0
   -6.2622   -0.0080   -1.3062 C   0  0  0  0  0  0  0  0  0  0  0  0
   -7.5488    0.0023   -1.9402 N   0  0  0  0  0  0  0  0  0  0  0  0
   -5.2301   -0.8047   -1.8171 C   0  0  0  0  0  0  0  0  0  0  0  0
   -3.9736   -0.8075   -1.2060 C   0  0  0  0  0  0  0  0  0  0  0  0
   -3.7368   -0.0172   -0.0652 C   0  0  0  0  0  0  0  0  0  0  0  0
   -2.4954    0.0082    0.5875 O   0  0  0  0  0  0  0  0  0  0  0  0
   -1.3546   -0.7421    0.1789 C   0  0  0  0  0  0  0  0  0  0  0  0
   -0.1931   -0.4538    1.1317 C   0  0  0  0  0  0  0  0  0  0  0  0
    1.0347   -1.3349    0.8558 C   0  0  0  0  0  0  0  0  0  0  0  0
    1.7318   -0.9776   -0.4637 C   0  0  0  0  0  0  0  0  0  0  0  0
    3.0152   -1.7414   -0.6025 C   0  0  0  0  0  0  0  0  0  0  0  0
    3.1234   -2.9154   -1.2522 N   0  0  0  0  0  0  0  0  0  0  0  0
    4.3970   -3.2638   -1.1265 N   0  0  0  0  0  0  0  0  0  0  0  0
    5.0503   -2.3509   -0.4233 N   0  0  0  0  0  0  0  0  0  0  0  0
    4.2037   -1.3999   -0.0668 N   0  0  0  0  0  0  0  0  0  0  0  0
    4.5691   -0.1755    0.6560 C   0  0  0  0  0  0  0  0  0  0  0  0
    5.1524    0.8568   -0.3367 C   0  0  0  0  0  0  0  0  0  0  0  0
    6.0520    1.8707    0.3764 C   0  0  0  0  0  0  0  0  0  0  0  0
    7.2645    1.1879    1.0420 C   0  0  0  0  0  0  0  0  0  0  0  0
    6.9967   -0.2723    1.4596 C   0  0  0  0  0  0  0  0  0  0  0  0
    5.5267   -0.4938    1.8347 C   0  0  0  0  0  0  0  0  0  0  0  0
   -4.7728    0.7721    0.4483 C   0  0  0  0  0  0  0  0  0  0  0  0
   -9.0702    2.4686   -0.1139 H   0  0  0  0  0  0  0  0  0  0  0  0
   -7.6954    2.9040   -1.1957 H   0  0  0  0  0  0  0  0  0  0  0  0
   -7.7033    0.9142    1.1595 H   0  0  0  0  0  0  0  0  0  0  0  0
   -6.7794    2.4493    1.0068 H   0  0  0  0  0  0  0  0  0  0  0  0
   -7.7688   -0.6849   -2.6964 H   0  0  0  0  0  0  0  0  0  0  0  0
   -5.3983   -1.4198   -2.6922 H   0  0  0  0  0  0  0  0  0  0  0  0
   -3.1953   -1.4299   -1.6258 H   0  0  0  0  0  0  0  0  0  0  0  0
   -1.0757   -0.4464   -0.8548 H   0  0  0  0  0  0  0  0  0  0  0  0
   -1.5975   -1.8269    0.2047 H   0  0  0  0  0  0  0  0  0  0  0  0
    0.0873    0.6202    1.0662 H   0  0  0  0  0  0  0  0  0  0  0  0
   -0.5346   -0.6490    2.1718 H   0  0  0  0  0  0  0  0  0  0  0  0
    0.7359   -2.4064    0.8457 H   0  0  0  0  0  0  0  0  0  0  0  0
    1.7501   -1.1960    1.6958 H   0  0  0  0  0  0  0  0  0  0  0  0
    1.9389    0.1125   -0.5123 H   0  0  0  0  0  0  0  0  0  0  0  0
    1.0742   -1.2359   -1.3203 H   0  0  0  0  0  0  0  0  0  0  0  0
    3.6539    0.2662    1.1069 H   0  0  0  0  0  0  0  0  0  0  0  0
    4.3211    1.3913   -0.8456 H   0  0  0  0  0  0  0  0  0  0  0  0
    5.7501    0.3427   -1.1220 H   0  0  0  0  0  0  0  0  0  0  0  0
    6.4076    2.6306   -0.3526 H   0  0  0  0  0  0  0  0  0  0  0  0
    5.4537    2.4016    1.1496 H   0  0  0  0  0  0  0  0  0  0  0  0
    7.5577    1.7789    1.9370 H   0  0  0  0  0  0  0  0  0  0  0  0
    8.1269    1.2028    0.3404 H   0  0  0  0  0  0  0  0  0  0  0  0
    7.2645   -0.9526    0.6218 H   0  0  0  0  0  0  0  0  0  0  0  0
    7.6448   -0.5355    2.3233 H   0  0  0  0  0  0  0  0  0  0  0  0
    5.2827    0.1684    2.6950 H   0  0  0  0  0  0  0  0  0  0  0  0
    5.3824   -1.5392    2.1848 H   0  0  0  0  0  0  0  0  0  0  0  0
   -4.5962    1.3649    1.3376 H   0  0  0  0  0  0  0  0  0  0  0  0
  1  2  2  0
  2  3  1  0
  3  4  1  0
  4  5  1  0
  5  6  2  0
  6  7  1  0
  6  8  1  0
  8  9  2  0
  9 10  1  0
 10 11  1  0
 11 12  1  0
 12 13  1  0
 13 14  1  0
 14 15  1  0
 15 16  1  0
 16 17  2  0
 17 18  1  0
 18 19  2  0
 19 20  1  0
 20 21  1  0
 21 22  1  0
 22 23  1  0
 23 24  1  0
 24 25  1  0
 25 26  1  0
 10 27  2  0
  7  2  1  0
 20 16  1  0
 26 21  1  0
 27  5  1  0
  3 28  1  0
  3 29  1  0
  4 30  1  0
  4 31  1  0
  7 32  1  0
  8 33  1  0
  9 34  1  0
 12 35  1  0
 12 36  1  0
 13 37  1  0
 13 38  1  0
 14 39  1  0
 14 40  1  0
 15 41  1  0
 15 42  1  0
 21 43  1  0
 22 44  1  0
 22 45  1  0
 23 46  1  0
 23 47  1  0
 24 48  1  0
 24 49  1  0
 25 50  1  0
 25 51  1  0
 26 52  1  0
 26 53  1  0
 27 54  1  0
M  END
$$$$
