
     RDKit          3D

 27 28  0  0  0  0  0  0  0  0999 V2000
    5.5265   -0.4595   -0.5202 N   0  0  0  0  0  0  0  0  0  0  0  0
    4.1330   -0.1730   -0.4007 C   0  0  0  0  0  0  0  0  0  0  0  0
    3.3524   -0.9408    0.4049 N   0  0  0  0  0  0  0  0  0  0  0  0
    2.0174   -0.7198    0.5584 C   0  0  0  0  0  0  0  0  0  0  0  0
    1.3007   -1.5221    1.5020 N   0  0  0  0  0  0  0  0  0  0  0  0
    1.4001    0.3316   -0.1659 C   0  0  0  0  0  0  0  0  0  0  0  0
    2.2023    1.1516   -0.9670 C   0  0  0  0  0  0  0  0  0  0  0  0
    3.5680    0.9013   -1.0920 C   0  0  0  0  0  0  0  0  0  0  0  0
   -0.0116    0.5863   -0.1481 N   0  0  0  0  0  0  0  0  0  0  0  0
   -0.8727   -0.3238    0.0714 N   0  0  0  0  0  0  0  0  0  0  0  0
   -2.2794   -0.0549    0.0883 C   0  0  0  0  0  0  0  0  0  0  0  0
   -2.7884    1.2366   -0.1457 C   0  0  0  0  0  0  0  0  0  0  0  0
   -4.1684    1.4627   -0.1207 C   0  0  0  0  0  0  0  0  0  0  0  0
   -5.0471    0.4068    0.1370 C   0  0  0  0  0  0  0  0  0  0  0  0
   -4.5471   -0.8773    0.3702 C   0  0  0  0  0  0  0  0  0  0  0  0
   -3.1678   -1.1073    0.3460 C   0  0  0  0  0  0  0  0  0  0  0  0
    6.1444    0.1219   -1.1294 H   0  0  0  0  0  0  0  0  0  0  0  0
    5.9454   -1.2598    0.0036 H   0  0  0  0  0  0  0  0  0  0  0  0
    1.7587   -2.3660    1.9125 H   0  0  0  0  0  0  0  0  0  0  0  0
    0.4093   -1.2030    1.9383 H   0  0  0  0  0  0  0  0  0  0  0  0
    1.7592    1.9705   -1.5202 H   0  0  0  0  0  0  0  0  0  0  0  0
    4.1769    1.5309   -1.7287 H   0  0  0  0  0  0  0  0  0  0  0  0
   -2.1232    2.0666   -0.3469 H   0  0  0  0  0  0  0  0  0  0  0  0
   -4.5568    2.4568   -0.3011 H   0  0  0  0  0  0  0  0  0  0  0  0
   -6.1147    0.5835    0.1561 H   0  0  0  0  0  0  0  0  0  0  0  0
   -5.2281   -1.6945    0.5699 H   0  0  0  0  0  0  0  0  0  0  0  0
   -2.7891   -2.1054    0.5282 H   0  0  0  0  0  0  0  0  0  0  0  0
  1  2  1  0
  2  3  2  0
  3  4  1  0
  4  5  1  0
  4  6  2  0
  6  7  1  0
  7  8  2  0
  6  9  1  0
  9 10  2  0
 10 11  1  0
 11 12  2  0
 12 13  1  0
 13 14  2  0
 14 15  1  0
 15 16  2  0
  8  2  1  0
 16 11  1  0
  1 17  1  0
  1 18  1  0
  5 19  1  0
  5 20  1  0
  7 21  1  0
  8 22  1  0
 12 23  1  0
 13 24  1  0
 14 25  1  0
 15 26  1  0
 16 27  1  0
M  END
$$$$
