
     RDKit          3D

 36 36  0  0  0  0  0  0  0  0999 V2000
    1.3703   -4.3346   -0.2281 C   0  0  0  0  0  0  0  0  0  0  0  0
    0.5316   -3.0991   -0.3590 C   0  0  0  0  0  0  0  0  0  0  0  0
   -0.8040   -3.1955   -0.1406 N   0  0  0  0  0  0  0  0  0  0  0  0
   -1.6331   -2.1275   -0.2297 C   0  0  0  0  0  0  0  0  0  0  0  0
   -1.1313   -0.8520   -0.5382 C   0  0  0  0  0  0  0  0  0  0  0  0
   -2.0998    0.3086   -0.6610 C   0  0  0  0  0  0  0  0  0  0  0  0
   -3.1792    0.1437    0.2314 O   0  0  0  0  0  0  0  0  0  0  0  0
   -4.2958    1.4082   -0.0253 P   0  0  0  0  0  5  0  0  0  0  0  0
   -5.5327    1.2914    1.1230 O   0  0  0  0  0  0  0  0  0  0  0  0
   -3.5332    2.9106    0.1396 O   0  0  0  0  0  0  0  0  0  0  0  0
   -4.8947    1.2973   -1.4097 O   0  0  0  0  0  0  0  0  0  0  0  0
    0.2544   -0.7236   -0.8271 C   0  0  0  0  0  0  0  0  0  0  0  0
    0.8670    0.6092   -1.2311 C   0  0  0  0  0  0  0  0  0  0  0  0
    1.2667    1.4019   -0.0641 N   0  0  0  0  0  0  0  0  0  0  0  0
    2.3181    0.7820    0.5389 O   0  0  0  0  0  0  0  0  0  0  0  0
    3.3439    1.7393    0.6527 C   0  0  0  0  0  0  0  0  0  0  0  0
    3.0972    2.6329    1.8276 C   0  0  0  0  0  0  0  0  0  0  0  0
    2.5536    3.8987    1.6339 O   0  0  0  0  0  0  0  0  0  0  0  0
    3.3457    2.2247    2.9934 O   0  0  0  0  0  0  0  0  0  0  0  0
    1.0916   -1.8560   -0.7147 C   0  0  0  0  0  0  0  0  0  0  0  0
    2.4623   -1.7268   -0.9637 O   0  0  0  0  0  0  0  0  0  0  0  0
    1.8556   -4.5671   -1.1993 H   0  0  0  0  0  0  0  0  0  0  0  0
    0.7428   -5.2031    0.0652 H   0  0  0  0  0  0  0  0  0  0  0  0
    2.1450   -4.1855    0.5531 H   0  0  0  0  0  0  0  0  0  0  0  0
   -2.6904   -2.2800   -0.0570 H   0  0  0  0  0  0  0  0  0  0  0  0
   -2.4530    0.3337   -1.7165 H   0  0  0  0  0  0  0  0  0  0  0  0
   -1.5842    1.2612   -0.4225 H   0  0  0  0  0  0  0  0  0  0  0  0
   -5.8748    0.3663    1.0322 H   0  0  0  0  0  0  0  0  0  0  0  0
   -3.1706    2.9082    1.0612 H   0  0  0  0  0  0  0  0  0  0  0  0
    0.1569    1.1970   -1.8486 H   0  0  0  0  0  0  0  0  0  0  0  0
    1.7471    0.4564   -1.8932 H   0  0  0  0  0  0  0  0  0  0  0  0
    0.4832    1.4243    0.6286 H   0  0  0  0  0  0  0  0  0  0  0  0
    4.3045    1.2046    0.8082 H   0  0  0  0  0  0  0  0  0  0  0  0
    3.4605    2.3404   -0.2794 H   0  0  0  0  0  0  0  0  0  0  0  0
    2.3656    4.5091    2.4202 H   0  0  0  0  0  0  0  0  0  0  0  0
    3.1133   -2.4988   -0.9003 H   0  0  0  0  0  0  0  0  0  0  0  0
  1  2  1  0
  2  3  2  0
  3  4  1  0
  4  5  2  0
  5  6  1  0
  6  7  1  0
  7  8  1  0
  8  9  1  0
  8 10  1  0
  8 11  2  0
  5 12  1  0
 12 13  1  0
 13 14  1  0
 14 15  1  0
 15 16  1  0
 16 17  1  0
 17 18  1  0
 17 19  2  0
 12 20  2  0
 20 21  1  0
 20  2  1  0
  1 22  1  0
  1 23  1  0
  1 24  1  0
  4 25  1  0
  6 26  1  0
  6 27  1  0
  9 28  1  0
 10 29  1  0
 13 30  1  0
 13 31  1  0
 14 32  1  0
 16 33  1  0
 16 34  1  0
 18 35  1  0
 21 36  1  0
M  END
$$$$
