
     RDKit          3D

 48 51  0  0  0  0  0  0  0  0999 V2000
   -6.8926    1.1254    1.3037 C   0  0  0  0  0  0  0  0  0  0  0  0
   -5.6629    0.9864    0.5998 O   0  0  0  0  0  0  0  0  0  0  0  0
   -5.1671   -0.2251    0.0896 C   0  0  0  0  0  0  0  0  0  0  0  0
   -5.8647   -1.4387    0.2576 C   0  0  0  0  0  0  0  0  0  0  0  0
   -5.3387   -2.6324   -0.2406 C   0  0  0  0  0  0  0  0  0  0  0  0
   -4.1178   -2.6321   -0.9139 C   0  0  0  0  0  0  0  0  0  0  0  0
   -3.4177   -1.4380   -1.0922 C   0  0  0  0  0  0  0  0  0  0  0  0
   -3.9305   -0.2286   -0.5926 C   0  0  0  0  0  0  0  0  0  0  0  0
   -3.1795    1.0279   -0.8087 C   0  0  0  0  0  0  0  0  0  0  0  0
   -3.7034    2.2472   -1.2419 C   0  0  0  0  0  0  0  0  0  0  0  0
   -2.7231    3.1722   -1.3578 N   0  0  0  0  0  0  0  0  0  0  0  0
   -1.5916    2.5460   -0.9999 C   0  0  0  0  0  0  0  0  0  0  0  0
   -1.8203    1.2443   -0.6580 C   0  0  0  0  0  0  0  0  0  0  0  0
   -0.7816    0.4274   -0.2184 C   0  0  0  0  0  0  0  0  0  0  0  0
    0.5185    0.9808   -0.1647 C   0  0  0  0  0  0  0  0  0  0  0  0
    0.7020    2.3380   -0.5463 C   0  0  0  0  0  0  0  0  0  0  0  0
   -0.3566    3.1006   -0.9514 N   0  0  0  0  0  0  0  0  0  0  0  0
    1.6699    0.1598    0.2881 C   0  0  0  0  0  0  0  0  0  0  0  0
    2.9208    0.2638   -0.3428 C   0  0  0  0  0  0  0  0  0  0  0  0
    4.0078   -0.5072    0.0968 C   0  0  0  0  0  0  0  0  0  0  0  0
    3.8087   -1.4003    1.1598 C   0  0  0  0  0  0  0  0  0  0  0  0
    2.5932   -1.4921    1.7587 N   0  0  0  0  0  0  0  0  0  0  0  0
    1.5351   -0.7415    1.3564 C   0  0  0  0  0  0  0  0  0  0  0  0
    5.3208   -0.4100   -0.5835 C   0  0  0  0  0  0  0  0  0  0  0  0
    5.3533   -0.1339   -1.8140 O   0  0  0  0  0  0  0  0  0  0  0  0
    6.5577   -0.6381    0.1192 N   0  0  0  0  0  0  0  0  0  0  0  0
    7.6668   -1.2889   -0.5784 C   0  0  0  0  0  0  0  0  0  0  0  0
    6.7487   -0.1828    1.4985 C   0  0  0  0  0  0  0  0  0  0  0  0
   -7.7400    0.8143    0.6570 H   0  0  0  0  0  0  0  0  0  0  0  0
   -7.0314    2.1899    1.5828 H   0  0  0  0  0  0  0  0  0  0  0  0
   -6.8731    0.5147    2.2310 H   0  0  0  0  0  0  0  0  0  0  0  0
   -6.8127   -1.4714    0.7764 H   0  0  0  0  0  0  0  0  0  0  0  0
   -5.8804   -3.5597   -0.1059 H   0  0  0  0  0  0  0  0  0  0  0  0
   -3.7162   -3.5579   -1.3052 H   0  0  0  0  0  0  0  0  0  0  0  0
   -2.4850   -1.4555   -1.6419 H   0  0  0  0  0  0  0  0  0  0  0  0
   -4.7418    2.4413   -1.4770 H   0  0  0  0  0  0  0  0  0  0  0  0
   -2.8275    4.1653   -1.6626 H   0  0  0  0  0  0  0  0  0  0  0  0
   -0.9690   -0.5992    0.0669 H   0  0  0  0  0  0  0  0  0  0  0  0
    1.6822    2.7936   -0.4970 H   0  0  0  0  0  0  0  0  0  0  0  0
    3.0484    0.9389   -1.1804 H   0  0  0  0  0  0  0  0  0  0  0  0
    4.6114   -2.0389    1.5032 H   0  0  0  0  0  0  0  0  0  0  0  0
    0.5937   -0.8414    1.8806 H   0  0  0  0  0  0  0  0  0  0  0  0
    8.5370   -1.4291    0.0984 H   0  0  0  0  0  0  0  0  0  0  0  0
    7.3439   -2.2862   -0.9448 H   0  0  0  0  0  0  0  0  0  0  0  0
    7.9877   -0.6669   -1.4405 H   0  0  0  0  0  0  0  0  0  0  0  0
    6.8451   -1.0595    2.1726 H   0  0  0  0  0  0  0  0  0  0  0  0
    5.8998    0.4479    1.8374 H   0  0  0  0  0  0  0  0  0  0  0  0
    7.6725    0.4299    1.5667 H   0  0  0  0  0  0  0  0  0  0  0  0
  1  2  1  0
  2  3  1  0
  3  4  2  0
  4  5  1  0
  5  6  2  0
  6  7  1  0
  7  8  2  0
  8  9  1  0
  9 10  2  0
 10 11  1  0
 11 12  1  0
 12 13  2  0
 13 14  1  0
 14 15  2  0
 15 16  1  0
 16 17  2  0
 15 18  1  0
 18 19  2  0
 19 20  1  0
 20 21  2  0
 21 22  1  0
 22 23  2  0
 20 24  1  0
 24 25  2  0
 24 26  1  0
 26 27  1  0
 26 28  1  0
  8  3  1  0
 13  9  1  0
 23 18  1  0
 17 12  1  0
  1 29  1  0
  1 30  1  0
  1 31  1  0
  4 32  1  0
  5 33  1  0
  6 34  1  0
  7 35  1  0
 10 36  1  0
 11 37  1  0
 14 38  1  0
 16 39  1  0
 19 40  1  0
 21 41  1  0
 23 42  1  0
 27 43  1  0
 27 44  1  0
 27 45  1  0
 28 46  1  0
 28 47  1  0
 28 48  1  0
M  END
$$$$
