
     RDKit          3D

 57 60  0  0  0  0  0  0  0  0999 V2000
    3.5715   -2.4356    1.3297 C   0  0  0  0  0  0  0  0  0  0  0  0
    2.8831   -1.0727    1.1535 C   0  0  2  0  0  0  0  0  0  0  0  0
    1.4137   -1.1078    1.6431 C   0  0  0  0  0  0  0  0  0  0  0  0
    0.5921   -0.7403    0.4137 C   0  0  1  0  0  0  0  0  0  0  0  0
   -0.8556   -0.2263    0.6044 C   0  0  2  0  0  0  0  0  0  0  0  0
   -1.6696   -1.2225    1.4592 C   0  0  0  0  0  0  0  0  0  0  0  0
   -3.1216   -0.7746    1.6188 C   0  0  2  0  0  0  0  0  0  0  0  0
   -3.8020   -1.7318    2.3558 F   0  0  0  0  0  0  0  0  0  0  0  0
   -3.7418   -0.5489    0.2552 C   0  0  0  0  0  0  0  0  0  0  0  0
   -4.8908   -1.1640   -0.0794 C   0  0  0  0  0  0  0  0  0  0  0  0
   -5.4790   -0.9935   -1.4070 C   0  0  0  0  0  0  0  0  0  0  0  0
   -6.5642   -1.5623   -1.6972 O   0  0  0  0  0  0  0  0  0  0  0  0
   -4.7929   -0.1733   -2.3996 C   0  0  0  0  0  0  0  0  0  0  0  0
   -3.6603    0.4573   -2.0909 C   0  0  0  0  0  0  0  0  0  0  0  0
   -3.0291    0.4321   -0.6965 C   0  0  1  0  0  0  0  0  0  0  0  0
   -3.2114    1.8561   -0.1114 C   0  0  0  0  0  0  0  0  0  0  0  0
   -1.5177   -0.0346   -0.8121 C   0  0  2  0  0  0  0  0  0  0  0  0
   -1.5564   -1.2894   -1.4144 F   0  0  0  0  0  0  0  0  0  0  0  0
   -0.6213    0.8517   -1.7554 C   0  0  1  0  0  0  0  0  0  0  0  0
   -0.6908    2.2087   -1.4093 O   0  0  0  0  0  0  0  0  0  0  0  0
    0.8635    0.3859   -1.7959 C   0  0  0  0  0  0  0  0  0  0  0  0
    1.4860    0.2232   -0.3805 C   0  0  1  0  0  0  0  0  0  0  0  0
    1.6358    1.6254    0.3041 C   0  0  0  0  0  0  0  0  0  0  0  0
    2.8519   -0.5434   -0.3288 C   0  0  2  0  0  0  0  0  0  0  0  0
    2.7916   -1.6324   -1.2295 O   0  0  0  0  0  0  0  0  0  0  0  0
    4.0485    0.3348   -0.7153 C   0  0  0  0  0  0  0  0  0  0  0  0
    4.0270    0.9291   -1.7820 O   0  0  0  0  0  0  0  0  0  0  0  0
    5.5703    0.4013    0.2533 S   0  0  0  0  0  0  0  0  0  0  0  0
    5.2575    2.0452    0.9770 C   0  0  0  0  0  0  0  0  0  0  0  0
    4.5323    1.9169    2.1451 F   0  0  0  0  0  0  0  0  0  0  0  0
    4.6129   -2.3938    0.9481 H   0  0  0  0  0  0  0  0  0  0  0  0
    3.0164   -3.2342    0.7926 H   0  0  0  0  0  0  0  0  0  0  0  0
    3.6093   -2.7000    2.4079 H   0  0  0  0  0  0  0  0  0  0  0  0
    3.4217   -0.3538    1.8047 H   0  0  0  0  0  0  0  0  0  0  0  0
    1.1145   -2.1078    2.0289 H   0  0  0  0  0  0  0  0  0  0  0  0
    1.2542   -0.3590    2.4501 H   0  0  0  0  0  0  0  0  0  0  0  0
    0.5039   -1.6924   -0.1639 H   0  0  0  0  0  0  0  0  0  0  0  0
   -0.8345    0.7286    1.1612 H   0  0  0  0  0  0  0  0  0  0  0  0
   -1.2202   -1.3012    2.4727 H   0  0  0  0  0  0  0  0  0  0  0  0
   -1.6457   -2.2352    0.9985 H   0  0  0  0  0  0  0  0  0  0  0  0
   -3.1532    0.1743    2.1951 H   0  0  0  0  0  0  0  0  0  0  0  0
   -5.3975   -1.8212    0.6159 H   0  0  0  0  0  0  0  0  0  0  0  0
   -5.2111   -0.0719   -3.3936 H   0  0  0  0  0  0  0  0  0  0  0  0
   -3.2232    1.0896   -2.8527 H   0  0  0  0  0  0  0  0  0  0  0  0
   -2.5910    2.0291    0.7888 H   0  0  0  0  0  0  0  0  0  0  0  0
   -2.9782    2.6464   -0.8543 H   0  0  0  0  0  0  0  0  0  0  0  0
   -4.2732    2.0145    0.1788 H   0  0  0  0  0  0  0  0  0  0  0  0
   -1.0042    0.7328   -2.7946 H   0  0  0  0  0  0  0  0  0  0  0  0
   -0.3774    2.7279   -2.1955 H   0  0  0  0  0  0  0  0  0  0  0  0
    1.4613    1.1049   -2.3960 H   0  0  0  0  0  0  0  0  0  0  0  0
    0.8946   -0.5808   -2.3433 H   0  0  0  0  0  0  0  0  0  0  0  0
    0.6764    2.1213    0.5244 H   0  0  0  0  0  0  0  0  0  0  0  0
    2.2072    2.3166   -0.3498 H   0  0  0  0  0  0  0  0  0  0  0  0
    2.1682    1.5599    1.2718 H   0  0  0  0  0  0  0  0  0  0  0  0
    3.6983   -2.0301   -1.3099 H   0  0  0  0  0  0  0  0  0  0  0  0
    6.2327    2.5155    1.2175 H   0  0  0  0  0  0  0  0  0  0  0  0
    4.7174    2.7059    0.2673 H   0  0  0  0  0  0  0  0  0  0  0  0
  1  2  1  0
  2  3  1  0
  3  4  1  0
  4  5  1  0
  5  6  1  0
  6  7  1  0
  7  8  1  0
  7  9  1  0
  9 10  2  0
 10 11  1  0
 11 12  2  0
 11 13  1  0
 13 14  2  0
 14 15  1  0
 15 16  1  1
 15 17  1  0
 17 18  1  6
 17 19  1  0
 19 20  1  0
 19 21  1  0
 21 22  1  0
 22 23  1  1
 22 24  1  0
 24 25  1  6
 24 26  1  0
 26 27  2  0
 26 28  1  0
 28 29  1  0
 29 30  1  0
 24  2  1  0
 22  4  1  0
 17  5  1  0
 15  9  1  0
  1 31  1  0
  1 32  1  0
  1 33  1  0
  2 34  1  1
  3 35  1  0
  3 36  1  0
  4 37  1  6
  5 38  1  1
  6 39  1  0
  6 40  1  0
  7 41  1  1
 10 42  1  0
 13 43  1  0
 14 44  1  0
 16 45  1  0
 16 46  1  0
 16 47  1  0
 19 48  1  6
 20 49  1  0
 21 50  1  0
 21 51  1  0
 23 52  1  0
 23 53  1  0
 23 54  1  0
 25 55  1  0
 29 56  1  0
 29 57  1  0
M  END
$$$$
