
     RDKit          3D

 47 49  0  0  0  0  0  0  0  0999 V2000
   -1.2903    6.1728    0.8256 C   0  0  0  0  0  0  0  0  0  0  0  0
   -0.4699    5.2121    0.1691 O   0  0  0  0  0  0  0  0  0  0  0  0
   -0.6479    3.8240    0.2622 C   0  0  0  0  0  0  0  0  0  0  0  0
    0.2417    2.9916   -0.4430 C   0  0  0  0  0  0  0  0  0  0  0  0
    0.0698    1.6101   -0.3550 C   0  0  0  0  0  0  0  0  0  0  0  0
   -0.9277    1.0515    0.4032 C   0  0  0  0  0  0  0  0  0  0  0  0
   -1.8339    1.8461    1.1092 C   0  0  0  0  0  0  0  0  0  0  0  0
   -1.6883    3.2425    1.0371 C   0  0  0  0  0  0  0  0  0  0  0  0
   -0.8851   -0.2955    0.3304 N   0  0  0  0  0  0  0  0  0  0  0  0
   -1.7600   -1.2146    1.0050 C   0  0  0  0  0  0  0  0  0  0  0  0
   -1.9038   -1.1207    2.2543 O   0  0  0  0  0  0  0  0  0  0  0  0
   -2.5033   -2.2551    0.2560 C   0  0  0  0  0  0  0  0  0  0  0  0
   -3.0175   -3.3809    0.9242 C   0  0  0  0  0  0  0  0  0  0  0  0
   -3.7209   -4.3624    0.2193 C   0  0  0  0  0  0  0  0  0  0  0  0
   -3.9245   -4.2277   -1.1572 C   0  0  0  0  0  0  0  0  0  0  0  0
   -4.8070   -5.4604   -2.0395 Cl  0  0  0  0  0  0  0  0  0  0  0  0
   -3.4271   -3.1072   -1.8286 C   0  0  0  0  0  0  0  0  0  0  0  0
   -2.7236   -2.1236   -1.1273 C   0  0  0  0  0  0  0  0  0  0  0  0
    0.1765   -0.5988   -0.4647 C   0  0  0  0  0  0  0  0  0  0  0  0
    0.6271   -1.9939   -0.7928 C   0  0  0  0  0  0  0  0  0  0  0  0
    0.7771    0.5725   -0.9342 C   0  0  0  0  0  0  0  0  0  0  0  0
    1.9973    0.6915   -1.8006 C   0  0  0  0  0  0  0  0  0  0  0  0
    3.2155    0.8321   -0.9472 C   0  0  0  0  0  0  0  0  0  0  0  0
    3.6925    1.9771   -0.7176 O   0  0  0  0  0  0  0  0  0  0  0  0
    3.7863   -0.3069   -0.3734 O   0  0  0  0  0  0  0  0  0  0  0  0
    4.9132   -0.2488    0.4925 C   0  0  0  0  0  0  0  0  0  0  0  0
    5.2508   -1.6275    0.9496 C   0  0  0  0  0  0  0  0  0  0  0  0
    4.6041   -2.1671    2.0568 O   0  0  0  0  0  0  0  0  0  0  0  0
    6.0856   -2.3191    0.3076 O   0  0  0  0  0  0  0  0  0  0  0  0
   -2.3409    6.0786    0.4785 H   0  0  0  0  0  0  0  0  0  0  0  0
   -1.2367    6.0325    1.9259 H   0  0  0  0  0  0  0  0  0  0  0  0
   -0.9247    7.1906    0.5791 H   0  0  0  0  0  0  0  0  0  0  0  0
    1.0383    3.4173   -1.0394 H   0  0  0  0  0  0  0  0  0  0  0  0
   -2.6308    1.4086    1.6956 H   0  0  0  0  0  0  0  0  0  0  0  0
   -2.3862    3.8615    1.5838 H   0  0  0  0  0  0  0  0  0  0  0  0
   -2.8668   -3.5076    1.9891 H   0  0  0  0  0  0  0  0  0  0  0  0
   -4.1064   -5.2272    0.7441 H   0  0  0  0  0  0  0  0  0  0  0  0
   -3.5878   -2.9951   -2.8933 H   0  0  0  0  0  0  0  0  0  0  0  0
   -2.3610   -1.2574   -1.6660 H   0  0  0  0  0  0  0  0  0  0  0  0
    1.7337   -2.0398   -0.8498 H   0  0  0  0  0  0  0  0  0  0  0  0
    0.2000   -2.3015   -1.7695 H   0  0  0  0  0  0  0  0  0  0  0  0
    0.3023   -2.7076   -0.0084 H   0  0  0  0  0  0  0  0  0  0  0  0
    2.0987   -0.2055   -2.4469 H   0  0  0  0  0  0  0  0  0  0  0  0
    1.8979    1.5712   -2.4721 H   0  0  0  0  0  0  0  0  0  0  0  0
    4.6764    0.3829    1.3757 H   0  0  0  0  0  0  0  0  0  0  0  0
    5.7798    0.1941   -0.0452 H   0  0  0  0  0  0  0  0  0  0  0  0
    4.8077   -3.1089    2.3694 H   0  0  0  0  0  0  0  0  0  0  0  0
  1  2  1  0
  2  3  1  0
  3  4  2  0
  4  5  1  0
  5  6  2  0
  6  7  1  0
  7  8  2  0
  6  9  1  0
  9 10  1  0
 10 11  2  0
 10 12  1  0
 12 13  2  0
 13 14  1  0
 14 15  2  0
 15 16  1  0
 15 17  1  0
 17 18  2  0
  9 19  1  0
 19 20  1  0
 19 21  2  0
 21 22  1  0
 22 23  1  0
 23 24  2  0
 23 25  1  0
 25 26  1  0
 26 27  1  0
 27 28  1  0
 27 29  2  0
  8  3  1  0
 18 12  1  0
 21  5  1  0
  1 30  1  0
  1 31  1  0
  1 32  1  0
  4 33  1  0
  7 34  1  0
  8 35  1  0
 13 36  1  0
 14 37  1  0
 17 38  1  0
 18 39  1  0
 20 40  1  0
 20 41  1  0
 20 42  1  0
 22 43  1  0
 22 44  1  0
 26 45  1  0
 26 46  1  0
 28 47  1  0
M  END
$$$$
