
     RDKit          3D

171176  0  0  0  0  0  0  0  0999 V2000
    7.0414    7.8069   -0.3580 C   0  0  0  0  0  0  0  0  0  0  0  0
    5.9455    6.9229    0.2266 C   0  0  0  0  0  0  0  0  0  0  0  0
    6.2301    5.5137   -0.0325 N   0  0  0  0  0  0  0  0  0  0  0  0
    7.2215    4.7776    0.7011 C   0  0  0  0  0  0  0  0  0  0  0  0
    7.8990    5.3457    1.6000 O   0  0  0  0  0  0  0  0  0  0  0  0
    7.4793    3.3255    0.3912 C   0  0  2  0  0  0  0  0  0  0  0  0
    8.2116    3.1607   -0.9424 C   0  0  0  0  0  0  0  0  0  0  0  0
    7.5394    1.9813   -1.6372 C   0  0  0  0  0  0  0  0  0  0  0  0
    6.1591    1.8586   -1.0077 C   0  0  0  0  0  0  0  0  0  0  0  0
    6.2306    2.5878    0.2488 N   0  0  0  0  0  0  0  0  0  0  0  0
    5.2550    2.4834    1.3057 C   0  0  0  0  0  0  0  0  0  0  0  0
    5.5435    2.9089    2.4580 O   0  0  0  0  0  0  0  0  0  0  0  0
    3.8929    1.8741    1.0772 C   0  0  2  0  0  0  0  0  0  0  0  0
    2.7872    2.9118    1.3588 C   0  0  0  0  0  0  0  0  0  0  0  0
    1.3491    2.3620    1.2403 C   0  0  0  0  0  0  0  0  0  0  0  0
    1.0517    1.5836   -0.0524 C   0  0  0  0  0  0  0  0  0  0  0  0
    1.3110    2.3829   -1.2515 N   0  0  0  0  0  0  0  0  0  0  0  0
    1.3013    1.8296   -2.5784 C   0  0  0  0  0  0  0  0  0  0  0  0
    1.7713    2.6198   -3.6702 N   0  0  0  0  0  0  0  0  0  0  0  0
    0.8538    0.6345   -2.8115 N   0  0  0  0  0  0  0  0  0  0  0  0
    3.7428    0.7026    1.9434 N   0  0  0  0  0  0  0  0  0  0  0  0
    4.0042   -0.6295    1.4784 C   0  0  0  0  0  0  0  0  0  0  0  0
    4.0426   -0.8682    0.2397 O   0  0  0  0  0  0  0  0  0  0  0  0
    4.1863   -1.7513    2.4715 C   0  0  2  0  0  0  0  0  0  0  0  0
    5.4450   -1.5746    3.3543 C   0  0  0  0  0  0  0  0  0  0  0  0
    6.8087   -1.9144    2.6973 C   0  0  0  0  0  0  0  0  0  0  0  0
    7.9125   -1.8892    3.7638 C   0  0  0  0  0  0  0  0  0  0  0  0
    7.1731   -0.9497    1.5592 C   0  0  0  0  0  0  0  0  0  0  0  0
    4.1878   -3.0563    1.7977 N   0  0  0  0  0  0  0  0  0  0  0  0
    3.3152   -4.1321    2.1723 C   0  0  0  0  0  0  0  0  0  0  0  0
    2.6013   -4.0371    3.2083 O   0  0  0  0  0  0  0  0  0  0  0  0
    3.1990   -5.3413    1.2740 C   0  0  1  0  0  0  0  0  0  0  0  0
    2.8502   -6.6524    2.0283 C   0  0  0  0  0  0  0  0  0  0  0  0
    4.0390   -7.3617    2.7284 C   0  0  0  0  0  0  0  0  0  0  0  0
    5.0564   -7.9341    1.7302 C   0  0  0  0  0  0  0  0  0  0  0  0
    4.7361   -6.4823    3.7741 C   0  0  0  0  0  0  0  0  0  0  0  0
    2.2199   -5.0724    0.2135 N   0  0  0  0  0  0  0  0  0  0  0  0
    0.8301   -4.7864    0.4472 C   0  0  0  0  0  0  0  0  0  0  0  0
    0.3486   -4.8887    1.6084 O   0  0  0  0  0  0  0  0  0  0  0  0
   -0.0293   -4.2791   -0.6901 C   0  0  2  0  0  0  0  0  0  0  0  0
    0.1558   -2.7615   -0.8905 C   0  0  0  0  0  0  0  0  0  0  0  0
   -0.3451   -1.9533    0.2812 C   0  0  0  0  0  0  0  0  0  0  0  0
   -1.6769   -1.5140    0.3262 C   0  0  0  0  0  0  0  0  0  0  0  0
   -2.1433   -0.7913    1.4282 C   0  0  0  0  0  0  0  0  0  0  0  0
   -1.2822   -0.4968    2.4932 C   0  0  0  0  0  0  0  0  0  0  0  0
   -1.7332    0.2329    3.5904 O   0  0  0  0  0  0  0  0  0  0  0  0
    0.0431   -0.9400    2.4555 C   0  0  0  0  0  0  0  0  0  0  0  0
    0.5083   -1.6648    1.3559 C   0  0  0  0  0  0  0  0  0  0  0  0
   -1.4472   -4.6112   -0.4916 N   0  0  0  0  0  0  0  0  0  0  0  0
   -2.3815   -4.6532   -1.5810 C   0  0  0  0  0  0  0  0  0  0  0  0
   -1.9973   -4.3979   -2.7556 O   0  0  0  0  0  0  0  0  0  0  0  0
   -3.8353   -4.9430   -1.3169 C   0  0  2  0  0  0  0  0  0  0  0  0
   -4.4008   -5.9315   -2.3448 C   0  0  0  0  0  0  0  0  0  0  0  0
   -5.7290   -6.2392   -2.0223 O   0  0  0  0  0  0  0  0  0  0  0  0
   -4.5946   -3.6907   -1.3490 N   0  0  0  0  0  0  0  0  0  0  0  0
   -4.9486   -2.9686   -0.1579 C   0  0  0  0  0  0  0  0  0  0  0  0
   -4.5530   -3.3743    0.9689 O   0  0  0  0  0  0  0  0  0  0  0  0
   -5.7893   -1.7202   -0.2331 C   0  0  2  0  0  0  0  0  0  0  0  0
   -7.1463   -2.0180   -0.8908 C   0  0  0  0  0  0  0  0  0  0  0  0
   -8.0282   -0.8021   -0.9028 C   0  0  0  0  0  0  0  0  0  0  0  0
   -8.7330   -0.2806    0.1780 C   0  0  0  0  0  0  0  0  0  0  0  0
   -9.4105    0.8300   -0.1918 N   0  0  0  0  0  0  0  0  0  0  0  0
   -9.1336    1.0182   -1.4937 C   0  0  0  0  0  0  0  0  0  0  0  0
   -8.2841    0.0483   -1.9617 C   0  0  0  0  0  0  0  0  0  0  0  0
   -7.8452    0.0342   -3.2864 C   0  0  0  0  0  0  0  0  0  0  0  0
   -8.3157    1.0451   -4.1442 C   0  0  0  0  0  0  0  0  0  0  0  0
   -9.1991    2.0375   -3.6645 C   0  0  0  0  0  0  0  0  0  0  0  0
   -9.6168    2.0302   -2.3217 C   0  0  0  0  0  0  0  0  0  0  0  0
   -5.0735   -0.6769   -0.9762 N   0  0  0  0  0  0  0  0  0  0  0  0
   -4.9769    0.6774   -0.5085 C   0  0  0  0  0  0  0  0  0  0  0  0
   -5.4033    0.9852    0.6388 O   0  0  0  0  0  0  0  0  0  0  0  0
   -4.3165    1.7256   -1.3634 C   0  0  2  0  0  0  0  0  0  0  0  0
   -2.7957    1.6969   -1.1523 C   0  0  0  0  0  0  0  0  0  0  0  0
   -2.1167    2.7378   -1.9891 C   0  0  0  0  0  0  0  0  0  0  0  0
   -1.6028    3.9315   -1.5347 C   0  0  0  0  0  0  0  0  0  0  0  0
   -1.1288    4.6034   -2.5937 N   0  0  0  0  0  0  0  0  0  0  0  0
   -1.3718    3.8167   -3.6592 C   0  0  0  0  0  0  0  0  0  0  0  0
   -1.9831    2.6595   -3.3283 N   0  0  0  0  0  0  0  0  0  0  0  0
   -4.8544    3.0490   -1.0303 N   0  0  0  0  0  0  0  0  0  0  0  0
   -5.9781    3.6148   -1.7169 C   0  0  0  0  0  0  0  0  0  0  0  0
   -6.3448    3.1451   -2.8279 O   0  0  0  0  0  0  0  0  0  0  0  0
   -6.7343    4.7536   -1.0877 C   0  0  2  0  0  0  0  0  0  0  0  0
   -7.5388    4.2898    0.1513 C   0  0  0  0  0  0  0  0  0  0  0  0
   -8.9454    4.8933    0.0225 C   0  0  0  0  0  0  0  0  0  0  0  0
   -8.9599    5.4170   -1.3576 C   0  0  0  0  0  0  0  0  0  0  0  0
   -9.9724    5.9244   -1.9073 O   0  0  0  0  0  0  0  0  0  0  0  0
   -7.7110    5.3166   -2.0034 N   0  0  0  0  0  0  0  0  0  0  0  0
    6.7862    8.8748   -0.1925 H   0  0  0  0  0  0  0  0  0  0  0  0
    8.0153    7.5951    0.1306 H   0  0  0  0  0  0  0  0  0  0  0  0
    7.1342    7.6255   -1.4499 H   0  0  0  0  0  0  0  0  0  0  0  0
    4.9777    7.1944   -0.2479 H   0  0  0  0  0  0  0  0  0  0  0  0
    5.8523    7.0985    1.3201 H   0  0  0  0  0  0  0  0  0  0  0  0
    5.6499    5.0158   -0.7449 H   0  0  0  0  0  0  0  0  0  0  0  0
    8.0800    2.8610    1.2054 H   0  0  0  0  0  0  0  0  0  0  0  0
    8.1009    4.0645   -1.5832 H   0  0  0  0  0  0  0  0  0  0  0  0
    9.2949    2.9670   -0.7841 H   0  0  0  0  0  0  0  0  0  0  0  0
    7.4711    2.1410   -2.7352 H   0  0  0  0  0  0  0  0  0  0  0  0
    8.1223    1.0547   -1.4383 H   0  0  0  0  0  0  0  0  0  0  0  0
    5.3898    2.3210   -1.6636 H   0  0  0  0  0  0  0  0  0  0  0  0
    5.9177    0.7897   -0.8292 H   0  0  0  0  0  0  0  0  0  0  0  0
    3.7950    1.5777    0.0149 H   0  0  0  0  0  0  0  0  0  0  0  0
    2.9101    3.3149    2.3882 H   0  0  0  0  0  0  0  0  0  0  0  0
    2.9138    3.7701    0.6642 H   0  0  0  0  0  0  0  0  0  0  0  0
    1.1486    1.6957    2.1058 H   0  0  0  0  0  0  0  0  0  0  0  0
    0.6375    3.2128    1.3163 H   0  0  0  0  0  0  0  0  0  0  0  0
    1.6617    0.6570   -0.0772 H   0  0  0  0  0  0  0  0  0  0  0  0
   -0.0163    1.2801   -0.0433 H   0  0  0  0  0  0  0  0  0  0  0  0
    1.5415    3.3970   -1.1548 H   0  0  0  0  0  0  0  0  0  0  0  0
    1.7576    2.2420   -4.6437 H   0  0  0  0  0  0  0  0  0  0  0  0
    2.1274    3.5879   -3.5099 H   0  0  0  0  0  0  0  0  0  0  0  0
    0.4771    0.0084   -2.0676 H   0  0  0  0  0  0  0  0  0  0  0  0
    3.6060    0.8563    2.9684 H   0  0  0  0  0  0  0  0  0  0  0  0
    3.3100   -1.6887    3.1531 H   0  0  0  0  0  0  0  0  0  0  0  0
    5.4754   -0.5392    3.7593 H   0  0  0  0  0  0  0  0  0  0  0  0
    5.3125   -2.2460    4.2319 H   0  0  0  0  0  0  0  0  0  0  0  0
    6.7774   -2.9477    2.2897 H   0  0  0  0  0  0  0  0  0  0  0  0
    8.8879   -2.1793    3.3178 H   0  0  0  0  0  0  0  0  0  0  0  0
    8.0074   -0.8736    4.2052 H   0  0  0  0  0  0  0  0  0  0  0  0
    7.6824   -2.6132    4.5746 H   0  0  0  0  0  0  0  0  0  0  0  0
    7.0455    0.1065    1.8788 H   0  0  0  0  0  0  0  0  0  0  0  0
    8.2278   -1.0986    1.2434 H   0  0  0  0  0  0  0  0  0  0  0  0
    6.5458   -1.1484    0.6694 H   0  0  0  0  0  0  0  0  0  0  0  0
    4.8339   -3.2036    0.9892 H   0  0  0  0  0  0  0  0  0  0  0  0
    4.1819   -5.4818    0.7796 H   0  0  0  0  0  0  0  0  0  0  0  0
    2.0546   -6.4651    2.7809 H   0  0  0  0  0  0  0  0  0  0  0  0
    2.4106   -7.3709    1.3015 H   0  0  0  0  0  0  0  0  0  0  0  0
    3.6070   -8.2298    3.2749 H   0  0  0  0  0  0  0  0  0  0  0  0
    5.6481   -7.1306    1.2450 H   0  0  0  0  0  0  0  0  0  0  0  0
    5.7638   -8.6070    2.2602 H   0  0  0  0  0  0  0  0  0  0  0  0
    4.5396   -8.5284    0.9470 H   0  0  0  0  0  0  0  0  0  0  0  0
    5.4603   -7.0911    4.3564 H   0  0  0  0  0  0  0  0  0  0  0  0
    5.2931   -5.6517    3.2913 H   0  0  0  0  0  0  0  0  0  0  0  0
    3.9915   -6.0638    4.4837 H   0  0  0  0  0  0  0  0  0  0  0  0
    2.5760   -5.0120   -0.7675 H   0  0  0  0  0  0  0  0  0  0  0  0
    0.3220   -4.7904   -1.6135 H   0  0  0  0  0  0  0  0  0  0  0  0
    1.2321   -2.5399   -1.0660 H   0  0  0  0  0  0  0  0  0  0  0  0
   -0.3769   -2.4452   -1.8133 H   0  0  0  0  0  0  0  0  0  0  0  0
   -2.3508   -1.7305   -0.4921 H   0  0  0  0  0  0  0  0  0  0  0  0
   -3.1726   -0.4621    1.4556 H   0  0  0  0  0  0  0  0  0  0  0  0
   -2.6872    0.5705    3.6451 H   0  0  0  0  0  0  0  0  0  0  0  0
    0.7141   -0.7195    3.2759 H   0  0  0  0  0  0  0  0  0  0  0  0
    1.5320   -2.0044    1.3383 H   0  0  0  0  0  0  0  0  0  0  0  0
   -1.8205   -4.7350    0.4766 H   0  0  0  0  0  0  0  0  0  0  0  0
   -3.9332   -5.4239   -0.3186 H   0  0  0  0  0  0  0  0  0  0  0  0
   -3.7923   -6.8641   -2.3331 H   0  0  0  0  0  0  0  0  0  0  0  0
   -4.3577   -5.4893   -3.3661 H   0  0  0  0  0  0  0  0  0  0  0  0
   -6.0409   -6.8753   -2.7172 H   0  0  0  0  0  0  0  0  0  0  0  0
   -4.8049   -3.2636   -2.2793 H   0  0  0  0  0  0  0  0  0  0  0  0
   -5.9833   -1.3831    0.8099 H   0  0  0  0  0  0  0  0  0  0  0  0
   -7.0039   -2.3860   -1.9285 H   0  0  0  0  0  0  0  0  0  0  0  0
   -7.6627   -2.8219   -0.3222 H   0  0  0  0  0  0  0  0  0  0  0  0
   -8.7488   -0.6928    1.1784 H   0  0  0  0  0  0  0  0  0  0  0  0
  -10.0235    1.4191    0.4145 H   0  0  0  0  0  0  0  0  0  0  0  0
   -7.1672   -0.7265   -3.6498 H   0  0  0  0  0  0  0  0  0  0  0  0
   -7.9967    1.0637   -5.1780 H   0  0  0  0  0  0  0  0  0  0  0  0
   -9.5538    2.8111   -4.3329 H   0  0  0  0  0  0  0  0  0  0  0  0
  -10.2971    2.7831   -1.9471 H   0  0  0  0  0  0  0  0  0  0  0  0
   -4.7185   -0.8955   -1.9345 H   0  0  0  0  0  0  0  0  0  0  0  0
   -4.5212    1.4914   -2.4317 H   0  0  0  0  0  0  0  0  0  0  0  0
   -2.3976    0.7011   -1.4429 H   0  0  0  0  0  0  0  0  0  0  0  0
   -2.5552    1.8630   -0.0789 H   0  0  0  0  0  0  0  0  0  0  0  0
   -1.5765    4.2856   -0.5124 H   0  0  0  0  0  0  0  0  0  0  0  0
   -0.6704    5.5411   -2.5926 H   0  0  0  0  0  0  0  0  0  0  0  0
   -1.1051    4.0823   -4.6735 H   0  0  0  0  0  0  0  0  0  0  0  0
   -4.5410    3.5030   -0.1417 H   0  0  0  0  0  0  0  0  0  0  0  0
   -6.0185    5.5523   -0.7943 H   0  0  0  0  0  0  0  0  0  0  0  0
   -7.6217    3.1802    0.1869 H   0  0  0  0  0  0  0  0  0  0  0  0
   -7.0481    4.6334    1.0877 H   0  0  0  0  0  0  0  0  0  0  0  0
   -9.0852    5.7274    0.7429 H   0  0  0  0  0  0  0  0  0  0  0  0
   -9.7327    4.1221    0.1623 H   0  0  0  0  0  0  0  0  0  0  0  0
   -7.4922    5.7220   -2.9410 H   0  0  0  0  0  0  0  0  0  0  0  0
  1  2  1  0
  2  3  1  0
  3  4  1  0
  4  5  2  0
  4  6  1  0
  6  7  1  0
  7  8  1  0
  8  9  1  0
  9 10  1  0
 10 11  1  0
 11 12  2  0
 11 13  1  0
 13 14  1  0
 14 15  1  0
 15 16  1  0
 16 17  1  0
 17 18  1  0
 18 19  1  0
 18 20  2  3
 13 21  1  0
 21 22  1  0
 22 23  2  0
 22 24  1  0
 24 25  1  0
 25 26  1  0
 26 27  1  0
 26 28  1  0
 24 29  1  0
 29 30  1  0
 30 31  2  0
 30 32  1  0
 32 33  1  0
 33 34  1  0
 34 35  1  0
 34 36  1  0
 32 37  1  0
 37 38  1  0
 38 39  2  0
 38 40  1  0
 40 41  1  0
 41 42  1  0
 42 43  2  0
 43 44  1  0
 44 45  2  0
 45 46  1  0
 45 47  1  0
 47 48  2  0
 40 49  1  0
 49 50  1  0
 50 51  2  0
 50 52  1  0
 52 53  1  0
 53 54  1  0
 52 55  1  0
 55 56  1  0
 56 57  2  0
 56 58  1  0
 58 59  1  0
 59 60  1  0
 60 61  2  0
 61 62  1  0
 62 63  1  0
 63 64  2  0
 64 65  1  0
 65 66  2  0
 66 67  1  0
 67 68  2  0
 58 69  1  0
 69 70  1  0
 70 71  2  0
 70 72  1  0
 72 73  1  0
 73 74  1  0
 74 75  2  0
 75 76  1  0
 76 77  1  0
 77 78  2  0
 72 79  1  0
 79 80  1  0
 80 81  2  0
 80 82  1  0
 82 83  1  0
 83 84  1  0
 84 85  1  0
 85 86  2  0
 85 87  1  0
 10  6  1  0
 48 42  1  0
 64 60  1  0
 78 74  1  0
 87 82  1  0
 68 63  1  0
  1 88  1  0
  1 89  1  0
  1 90  1  0
  2 91  1  0
  2 92  1  0
  3 93  1  0
  6 94  1  1
  7 95  1  0
  7 96  1  0
  8 97  1  0
  8 98  1  0
  9 99  1  0
  9100  1  0
 13101  1  6
 14102  1  0
 14103  1  0
 15104  1  0
 15105  1  0
 16106  1  0
 16107  1  0
 17108  1  0
 19109  1  0
 19110  1  0
 20111  1  0
 21112  1  0
 24113  1  1
 25114  1  0
 25115  1  0
 26116  1  0
 27117  1  0
 27118  1  0
 27119  1  0
 28120  1  0
 28121  1  0
 28122  1  0
 29123  1  0
 32124  1  6
 33125  1  0
 33126  1  0
 34127  1  0
 35128  1  0
 35129  1  0
 35130  1  0
 36131  1  0
 36132  1  0
 36133  1  0
 37134  1  0
 40135  1  6
 41136  1  0
 41137  1  0
 43138  1  0
 44139  1  0
 46140  1  0
 47141  1  0
 48142  1  0
 49143  1  0
 52144  1  1
 53145  1  0
 53146  1  0
 54147  1  0
 55148  1  0
 58149  1  1
 59150  1  0
 59151  1  0
 61152  1  0
 62153  1  0
 65154  1  0
 66155  1  0
 67156  1  0
 68157  1  0
 69158  1  0
 72159  1  6
 73160  1  0
 73161  1  0
 75162  1  0
 76163  1  0
 77164  1  0
 79165  1  0
 82166  1  1
 83167  1  0
 83168  1  0
 84169  1  0
 84170  1  0
 87171  1  0
M  END
$$$$
