
     RDKit          3D

 73 73  0  0  0  0  0  0  0  0999 V2000
    0.0000    0.0000    0.0000 Mn  0  0  0  0  0 15  0  0  0  0  0  0
   -6.5642    3.5392    1.0062 C   0  0  0  0  0  0  0  0  0  0  0  0
   -5.4544    2.5323    1.0045 C   0  0  0  0  0  0  0  0  0  0  0  0
   -4.1694    2.8434    1.5003 C   0  0  0  0  0  0  0  0  0  0  0  0
   -3.8741    4.1088    2.0163 O   0  0  0  0  0  0  0  0  0  0  0  0
   -3.1680    1.8531    1.4688 C   0  0  0  0  0  0  0  0  0  0  0  0
   -1.7724    2.1177    1.9783 C   0  0  0  0  0  0  0  0  0  0  0  0
   -0.8063    2.0592    0.8588 N   0  0  0  0  0  0  0  0  0  0  0  0
    0.5423    1.6691    1.3340 C   0  0  0  0  0  0  0  0  0  0  0  0
    0.6734    0.1388    1.3913 C   0  0  0  0  0  0  0  0  0  0  0  0
    0.2672   -0.4923    0.1131 N   0  0  0  0  0  0  0  0  0  0  0  0
   -0.1463   -1.8996    0.3074 C   0  0  0  0  0  0  0  0  0  0  0  0
   -0.9651   -2.3944   -0.8471 C   0  0  0  0  0  0  0  0  0  0  0  0
   -0.8857   -3.7267   -1.2311 O   0  0  0  0  0  1  0  0  0  0  0  0
   -1.7757   -1.6268   -1.4299 O   0  0  0  0  0  0  0  0  0  0  0  0
    1.2468   -0.3109   -0.9937 C   0  0  0  0  0  0  0  0  0  0  0  0
    2.6120   -0.9317   -0.7450 C   0  0  0  0  0  0  0  0  0  0  0  0
    3.6128   -0.1727   -0.1197 C   0  0  0  0  0  0  0  0  0  0  0  0
    4.8733   -0.7314    0.1093 C   0  0  0  0  0  0  0  0  0  0  0  0
    5.9507    0.0653    0.7870 C   0  0  0  0  0  0  0  0  0  0  0  0
    6.2460    1.2362    0.0553 O   0  0  0  0  0  0  0  0  0  0  0  0
    7.4202    0.8884   -1.1370 P   0  0  0  0  0  5  0  0  0  0  0  0
    7.7764    2.3080   -1.9852 O   0  0  0  0  0  0  0  0  0  0  0  0
    8.8369    0.3064   -0.4154 O   0  0  0  0  0  0  0  0  0  0  0  0
    6.8910   -0.1414   -2.1097 O   0  0  0  0  0  0  0  0  0  0  0  0
    5.1288   -2.0034   -0.2920 N   0  0  0  0  0  0  0  0  0  0  0  0
    4.1999   -2.7667   -0.9272 C   0  0  0  0  0  0  0  0  0  0  0  0
    4.5787   -4.1536   -1.3498 C   0  0  0  0  0  0  0  0  0  0  0  0
    2.9172   -2.2362   -1.1853 C   0  0  0  0  0  0  0  0  0  0  0  0
    1.9533   -2.9732   -1.8785 O   0  0  0  0  0  0  0  0  0  0  0  0
   -0.7680    3.3486    0.1358 C   0  0  0  0  0  0  0  0  0  0  0  0
   -0.2723    3.1441   -1.2608 C   0  0  0  0  0  0  0  0  0  0  0  0
    0.9397    3.6938   -1.6590 O   0  0  0  0  0  1  0  0  0  0  0  0
   -0.9465    2.4619   -2.0765 O   0  0  0  0  0  0  0  0  0  0  0  0
   -3.4659    0.5895    0.9419 C   0  0  0  0  0  0  0  0  0  0  0  0
   -4.7530    0.3183    0.4675 C   0  0  0  0  0  0  0  0  0  0  0  0
   -5.0851   -1.0230   -0.1122 C   0  0  0  0  0  0  0  0  0  0  0  0
   -4.7785   -2.0239    0.8296 O   0  0  0  0  0  0  0  0  0  0  0  0
   -5.0735   -3.5473    0.1203 P   0  0  0  0  0  5  0  0  0  0  0  0
   -6.6895   -3.6665   -0.3756 O   0  0  0  0  0  0  0  0  0  0  0  0
   -4.7654   -4.7497    1.2690 O   0  0  0  0  0  0  0  0  0  0  0  0
   -4.1557   -3.7584   -1.0638 O   0  0  0  0  0  0  0  0  0  0  0  0
   -5.7020    1.2902    0.5073 N   0  0  0  0  0  0  0  0  0  0  0  0
   -6.7799    3.8629    2.0461 H   0  0  0  0  0  0  0  0  0  0  0  0
   -7.4903    3.0997    0.5782 H   0  0  0  0  0  0  0  0  0  0  0  0
   -6.2784    4.4181    0.3910 H   0  0  0  0  0  0  0  0  0  0  0  0
   -4.5513    4.8592    2.0616 H   0  0  0  0  0  0  0  0  0  0  0  0
   -1.6962    3.0888    2.5169 H   0  0  0  0  0  0  0  0  0  0  0  0
   -1.5555    1.3373    2.7396 H   0  0  0  0  0  0  0  0  0  0  0  0
    0.7533    2.0992    2.3396 H   0  0  0  0  0  0  0  0  0  0  0  0
    1.3379    2.0623    0.6661 H   0  0  0  0  0  0  0  0  0  0  0  0
    0.0266   -0.2137    2.2227 H   0  0  0  0  0  0  0  0  0  0  0  0
    1.7033   -0.1505    1.6812 H   0  0  0  0  0  0  0  0  0  0  0  0
    0.7338   -2.5556    0.4741 H   0  0  0  0  0  0  0  0  0  0  0  0
   -0.7969   -1.9953    1.2035 H   0  0  0  0  0  0  0  0  0  0  0  0
    0.8209   -0.7091   -1.9389 H   0  0  0  0  0  0  0  0  0  0  0  0
    1.3729    0.7701   -1.2051 H   0  0  0  0  0  0  0  0  0  0  0  0
    3.4151    0.8463    0.1889 H   0  0  0  0  0  0  0  0  0  0  0  0
    6.8474   -0.5635    0.9924 H   0  0  0  0  0  0  0  0  0  0  0  0
    5.5701    0.3734    1.7835 H   0  0  0  0  0  0  0  0  0  0  0  0
    8.0617    2.9522   -1.2891 H   0  0  0  0  0  0  0  0  0  0  0  0
    9.0865    1.0008    0.2452 H   0  0  0  0  0  0  0  0  0  0  0  0
    5.6162   -4.3890   -1.0300 H   0  0  0  0  0  0  0  0  0  0  0  0
    4.5257   -4.2393   -2.4555 H   0  0  0  0  0  0  0  0  0  0  0  0
    3.8941   -4.8923   -0.8824 H   0  0  0  0  0  0  0  0  0  0  0  0
    2.1148   -3.9109   -2.2227 H   0  0  0  0  0  0  0  0  0  0  0  0
   -1.7850    3.7918    0.0561 H   0  0  0  0  0  0  0  0  0  0  0  0
   -0.1278    4.0872    0.6695 H   0  0  0  0  0  0  0  0  0  0  0  0
   -2.7021   -0.1778    0.9053 H   0  0  0  0  0  0  0  0  0  0  0  0
   -4.4895   -1.1472   -1.0442 H   0  0  0  0  0  0  0  0  0  0  0  0
   -6.1693   -1.0463   -0.3640 H   0  0  0  0  0  0  0  0  0  0  0  0
   -6.7077   -3.2968   -1.2943 H   0  0  0  0  0  0  0  0  0  0  0  0
   -5.3797   -4.5442    2.0182 H   0  0  0  0  0  0  0  0  0  0  0  0
  2  3  1  0
  3  4  2  0
  4  5  1  0
  4  6  1  0
  6  7  1  0
  7  8  1  0
  8  9  1  0
  9 10  1  0
 10 11  1  0
 11 12  1  0
 12 13  1  0
 13 14  1  0
 13 15  2  0
 11 16  1  0
 16 17  1  0
 17 18  2  0
 18 19  1  0
 19 20  1  0
 20 21  1  0
 21 22  1  0
 22 23  1  0
 22 24  1  0
 22 25  2  0
 19 26  2  0
 26 27  1  0
 27 28  1  0
 27 29  2  0
 29 30  1  0
  8 31  1  0
 31 32  1  0
 32 33  1  0
 32 34  2  0
  6 35  2  0
 35 36  1  0
 36 37  1  0
 37 38  1  0
 38 39  1  0
 39 40  1  0
 39 41  1  0
 39 42  2  0
 36 43  2  0
 43  3  1  0
 29 17  1  0
  2 44  1  0
  2 45  1  0
  2 46  1  0
  5 47  1  0
  7 48  1  0
  7 49  1  0
  9 50  1  0
  9 51  1  0
 10 52  1  0
 10 53  1  0
 12 54  1  0
 12 55  1  0
 16 56  1  0
 16 57  1  0
 18 58  1  0
 20 59  1  0
 20 60  1  0
 23 61  1  0
 24 62  1  0
 28 63  1  0
 28 64  1  0
 28 65  1  0
 30 66  1  0
 31 67  1  0
 31 68  1  0
 35 69  1  0
 37 70  1  0
 37 71  1  0
 40 72  1  0
 41 73  1  0
M  CHG  3   1   2  14  -1  33  -1
M  END
$$$$
