
     RDKit          3D

 49 50  0  0  0  0  0  0  0  0999 V2000
    2.0925    0.4379   -0.7659 C   0  0  2  0  0  0  0  0  0  0  0  0
    3.0693    1.6229   -0.6123 C   0  0  0  0  0  0  0  0  0  0  0  0
    4.4739    1.1572   -0.3177 C   0  0  0  0  0  0  0  0  0  0  0  0
    5.2959    0.6904   -1.3572 C   0  0  0  0  0  0  0  0  0  0  0  0
    6.5875    0.2307   -1.0817 C   0  0  0  0  0  0  0  0  0  0  0  0
    7.0647    0.2278    0.2318 C   0  0  0  0  0  0  0  0  0  0  0  0
    6.2503    0.6826    1.2725 C   0  0  0  0  0  0  0  0  0  0  0  0
    4.9582    1.1435    1.0015 C   0  0  0  0  0  0  0  0  0  0  0  0
    0.7065    0.9446   -1.2142 C   0  0  0  0  0  0  0  0  0  0  0  0
   -0.4214   -0.4059   -1.7213 P   0  0  2  0  0  5  0  0  0  0  0  0
    0.4605   -1.8033   -2.0944 O   0  0  0  0  0  0  0  0  0  0  0  0
   -1.1710    0.0489   -2.9540 O   0  0  0  0  0  0  0  0  0  0  0  0
   -1.6280   -0.7644   -0.3949 C   0  0  2  0  0  0  0  0  0  0  0  0
   -0.9197   -1.2984    0.7686 N   0  0  0  0  0  0  0  0  0  0  0  0
   -2.7138   -1.7404   -0.9075 C   0  0  0  0  0  0  0  0  0  0  0  0
   -3.8665   -1.9678    0.0853 C   0  0  0  0  0  0  0  0  0  0  0  0
   -4.6468   -0.7050    0.3506 C   0  0  0  0  0  0  0  0  0  0  0  0
   -5.5332   -0.2058   -0.6188 C   0  0  0  0  0  0  0  0  0  0  0  0
   -6.2389    0.9785   -0.3854 C   0  0  0  0  0  0  0  0  0  0  0  0
   -6.0636    1.6735    0.8142 C   0  0  0  0  0  0  0  0  0  0  0  0
   -5.1821    1.1854    1.7825 C   0  0  0  0  0  0  0  0  0  0  0  0
   -4.4746    0.0012    1.5535 C   0  0  0  0  0  0  0  0  0  0  0  0
    1.9941   -0.3309    0.5253 C   0  0  0  0  0  0  0  0  0  0  0  0
    1.5431    0.2992    1.6822 O   0  0  0  0  0  0  0  0  0  0  0  0
    2.3309   -1.5447    0.5631 O   0  0  0  0  0  0  0  0  0  0  0  0
    2.4923   -0.2287   -1.5627 H   0  0  0  0  0  0  0  0  0  0  0  0
    2.7138    2.3096    0.1879 H   0  0  0  0  0  0  0  0  0  0  0  0
    3.0863    2.2155   -1.5536 H   0  0  0  0  0  0  0  0  0  0  0  0
    4.9349    0.6808   -2.3783 H   0  0  0  0  0  0  0  0  0  0  0  0
    7.2174   -0.1260   -1.8864 H   0  0  0  0  0  0  0  0  0  0  0  0
    8.0641   -0.1296    0.4435 H   0  0  0  0  0  0  0  0  0  0  0  0
    6.6192    0.6755    2.2900 H   0  0  0  0  0  0  0  0  0  0  0  0
    4.3354    1.4856    1.8186 H   0  0  0  0  0  0  0  0  0  0  0  0
    0.2260    1.5433   -0.4106 H   0  0  0  0  0  0  0  0  0  0  0  0
    0.8341    1.6106   -2.0943 H   0  0  0  0  0  0  0  0  0  0  0  0
   -0.1878   -2.4060   -2.5381 H   0  0  0  0  0  0  0  0  0  0  0  0
   -2.0995    0.2040   -0.1214 H   0  0  0  0  0  0  0  0  0  0  0  0
   -1.5452   -1.2590    1.6042 H   0  0  0  0  0  0  0  0  0  0  0  0
   -0.6633   -2.2985    0.6008 H   0  0  0  0  0  0  0  0  0  0  0  0
   -2.2500   -2.7238   -1.1386 H   0  0  0  0  0  0  0  0  0  0  0  0
   -3.1420   -1.3532   -1.8577 H   0  0  0  0  0  0  0  0  0  0  0  0
   -3.4807   -2.4033    1.0315 H   0  0  0  0  0  0  0  0  0  0  0  0
   -4.5557   -2.7272   -0.3441 H   0  0  0  0  0  0  0  0  0  0  0  0
   -5.6749   -0.7328   -1.5542 H   0  0  0  0  0  0  0  0  0  0  0  0
   -6.9205    1.3584   -1.1354 H   0  0  0  0  0  0  0  0  0  0  0  0
   -6.6098    2.5907    0.9930 H   0  0  0  0  0  0  0  0  0  0  0  0
   -5.0457    1.7256    2.7104 H   0  0  0  0  0  0  0  0  0  0  0  0
   -3.7927   -0.3619    2.3119 H   0  0  0  0  0  0  0  0  0  0  0  0
    1.4764   -0.2071    2.5568 H   0  0  0  0  0  0  0  0  0  0  0  0
  1  2  1  0
  2  3  1  0
  3  4  2  0
  4  5  1  0
  5  6  2  0
  6  7  1  0
  7  8  2  0
  1  9  1  0
  9 10  1  0
 10 11  1  6
 10 12  2  0
 10 13  1  0
 13 14  1  0
 13 15  1  0
 15 16  1  0
 16 17  1  0
 17 18  2  0
 18 19  1  0
 19 20  2  0
 20 21  1  0
 21 22  2  0
  1 23  1  0
 23 24  1  0
 23 25  2  0
  8  3  1  0
 22 17  1  0
  1 26  1  6
  2 27  1  0
  2 28  1  0
  4 29  1  0
  5 30  1  0
  6 31  1  0
  7 32  1  0
  8 33  1  0
  9 34  1  0
  9 35  1  0
 11 36  1  0
 13 37  1  1
 14 38  1  0
 14 39  1  0
 15 40  1  0
 15 41  1  0
 16 42  1  0
 16 43  1  0
 18 44  1  0
 19 45  1  0
 20 46  1  0
 21 47  1  0
 22 48  1  0
 24 49  1  0
M  END
$$$$
