
     RDKit          3D

 62 66  0  0  0  0  0  0  0  0999 V2000
   -2.5178    1.4237    0.1931 C   0  0  1  0  0  0  0  0  0  0  0  0
   -3.5694    1.0307   -0.6343 O   0  0  0  0  0  0  0  0  0  0  0  0
   -2.9946    0.2275   -1.6380 C   0  0  1  0  0  0  0  0  0  0  0  0
   -1.6514   -0.0828   -1.3506 O   0  0  0  0  0  0  0  0  0  0  0  0
   -1.3005    0.7055   -0.2552 C   0  0  1  0  0  0  0  0  0  0  0  0
   -0.3271    1.8115   -0.6580 C   0  0  1  0  0  0  0  0  0  0  0  0
   -0.7859    3.0273   -0.1176 O   0  0  0  0  0  0  0  0  0  0  0  0
   -2.1828    2.9046    0.0004 C   0  0  2  0  0  0  0  0  0  0  0  0
   -2.6795    3.7571    1.1702 C   0  0  0  0  0  0  0  0  0  0  0  0
   -2.3827    5.1096    0.9134 O   0  0  0  0  0  0  0  0  0  0  0  0
   -2.9330    6.0418    2.2318 P   0  0  0  0  0  5  0  0  0  0  0  0
   -2.5154    7.6608    1.9734 O   0  0  0  0  0  0  0  0  0  0  0  0
   -2.2115    5.5111    3.6682 O   0  0  0  0  0  0  0  0  0  0  0  0
   -4.4368    5.9327    2.3538 O   0  0  0  0  0  0  0  0  0  0  0  0
    1.0173    1.5190   -0.1601 N   0  0  0  0  0  0  0  0  0  0  0  0
    1.5230    1.7662    1.0767 C   0  0  0  0  0  0  0  0  0  0  0  0
    2.7761    1.2644    1.2570 N   0  0  0  0  0  0  0  0  0  0  0  0
    3.0344    0.6749    0.0738 C   0  0  0  0  0  0  0  0  0  0  0  0
    1.9832    0.8187   -0.7657 C   0  0  0  0  0  0  0  0  0  0  0  0
    1.9619    0.2855   -2.0108 N   0  0  0  0  0  0  0  0  0  0  0  0
    3.0609   -0.4134   -2.4249 C   0  0  0  0  0  0  0  0  0  0  0  0
    4.1410   -0.5685   -1.5934 N   0  0  0  0  0  0  0  0  0  0  0  0
    4.1597   -0.0367   -0.3322 C   0  0  0  0  0  0  0  0  0  0  0  0
    5.2878   -0.2090    0.5432 N   0  0  0  0  0  0  0  0  0  0  0  0
    6.4800   -0.9314    0.1957 C   0  0  0  0  0  0  0  0  0  0  0  0
    6.6003   -1.4618   -0.9422 O   0  0  0  0  0  0  0  0  0  0  0  0
    7.5435   -1.0422    1.1521 N   0  0  0  0  0  0  0  0  0  0  0  0
    8.7775   -1.7761    0.8785 C   0  0  0  0  0  0  0  0  0  0  0  0
    8.5350   -3.2799    0.9487 C   0  0  0  0  0  0  0  0  0  0  0  0
   -3.7859   -1.0381   -1.7884 C   0  0  0  0  0  0  0  0  0  0  0  0
   -3.9023   -1.9093   -0.7771 C   0  0  0  0  0  0  0  0  0  0  0  0
   -4.6565   -3.1837   -0.8634 C   0  0  0  0  0  0  0  0  0  0  0  0
   -5.6558   -3.4118   -1.8325 C   0  0  0  0  0  0  0  0  0  0  0  0
   -6.3451   -4.6284   -1.8637 C   0  0  0  0  0  0  0  0  0  0  0  0
   -6.0543   -5.6244   -0.9293 C   0  0  0  0  0  0  0  0  0  0  0  0
   -5.0776   -5.4042    0.0436 C   0  0  0  0  0  0  0  0  0  0  0  0
   -4.3856   -4.1898    0.0804 C   0  0  0  0  0  0  0  0  0  0  0  0
   -2.7539    1.1697    1.2513 H   0  0  0  0  0  0  0  0  0  0  0  0
   -3.0297    0.7849   -2.5993 H   0  0  0  0  0  0  0  0  0  0  0  0
   -0.8969    0.0631    0.5598 H   0  0  0  0  0  0  0  0  0  0  0  0
   -0.2934    1.9165   -1.7669 H   0  0  0  0  0  0  0  0  0  0  0  0
   -2.6502    3.2831   -0.9382 H   0  0  0  0  0  0  0  0  0  0  0  0
   -3.7797    3.6099    1.2666 H   0  0  0  0  0  0  0  0  0  0  0  0
   -2.1709    3.4110    2.0994 H   0  0  0  0  0  0  0  0  0  0  0  0
   -2.8938    7.8803    1.0848 H   0  0  0  0  0  0  0  0  0  0  0  0
   -1.2382    5.6006    3.5080 H   0  0  0  0  0  0  0  0  0  0  0  0
    0.9804    2.2925    1.8515 H   0  0  0  0  0  0  0  0  0  0  0  0
    3.0782   -0.8493   -3.4142 H   0  0  0  0  0  0  0  0  0  0  0  0
    5.2419    0.2154    1.4970 H   0  0  0  0  0  0  0  0  0  0  0  0
    7.4598   -0.5342    2.0613 H   0  0  0  0  0  0  0  0  0  0  0  0
    9.1733   -1.4977   -0.1220 H   0  0  0  0  0  0  0  0  0  0  0  0
    9.5422   -1.5033    1.6376 H   0  0  0  0  0  0  0  0  0  0  0  0
    7.8111   -3.5950    0.1685 H   0  0  0  0  0  0  0  0  0  0  0  0
    9.4914   -3.8192    0.7836 H   0  0  0  0  0  0  0  0  0  0  0  0
    8.1367   -3.5548    1.9485 H   0  0  0  0  0  0  0  0  0  0  0  0
   -4.2379   -1.2349   -2.7505 H   0  0  0  0  0  0  0  0  0  0  0  0
   -3.3836   -1.6935    0.1507 H   0  0  0  0  0  0  0  0  0  0  0  0
   -5.9277   -2.6528   -2.5522 H   0  0  0  0  0  0  0  0  0  0  0  0
   -7.1112   -4.7962   -2.6098 H   0  0  0  0  0  0  0  0  0  0  0  0
   -6.5903   -6.5644   -0.9554 H   0  0  0  0  0  0  0  0  0  0  0  0
   -4.8565   -6.1745    0.7711 H   0  0  0  0  0  0  0  0  0  0  0  0
   -3.6312   -4.0385    0.8431 H   0  0  0  0  0  0  0  0  0  0  0  0
  1  2  1  0
  2  3  1  0
  3  4  1  0
  4  5  1  0
  5  6  1  0
  6  7  1  0
  7  8  1  0
  8  9  1  0
  9 10  1  0
 10 11  1  0
 11 12  1  0
 11 13  1  0
 11 14  2  0
  6 15  1  0
 15 16  1  0
 16 17  2  0
 17 18  1  0
 18 19  2  0
 19 20  1  0
 20 21  2  0
 21 22  1  0
 22 23  2  0
 23 24  1  0
 24 25  1  0
 25 26  2  0
 25 27  1  0
 27 28  1  0
 28 29  1  0
  3 30  1  0
 30 31  2  0
 31 32  1  0
 32 33  2  0
 33 34  1  0
 34 35  2  0
 35 36  1  0
 36 37  2  0
  5  1  1  0
 19 15  1  0
 37 32  1  0
  8  1  1  0
 23 18  1  0
  1 38  1  1
  3 39  1  6
  5 40  1  1
  6 41  1  6
  8 42  1  6
  9 43  1  0
  9 44  1  0
 12 45  1  0
 13 46  1  0
 16 47  1  0
 21 48  1  0
 24 49  1  0
 27 50  1  0
 28 51  1  0
 28 52  1  0
 29 53  1  0
 29 54  1  0
 29 55  1  0
 30 56  1  0
 31 57  1  0
 33 58  1  0
 34 59  1  0
 35 60  1  0
 36 61  1  0
 37 62  1  0
M  END
$$$$
