
     RDKit          3D

 30 30  0  0  0  0  0  0  0  0999 V2000
    3.8260    0.3970    1.8296 O   0  0  0  0  0  0  0  0  0  0  0  0
    4.1090   -0.4701    0.4170 S   0  0  0  0  0  6  0  0  0  0  0  0
    4.8001   -1.7618    0.7518 O   0  0  0  0  0  0  0  0  0  0  0  0
    4.9771    0.3377   -0.5067 O   0  0  0  0  0  0  0  0  0  0  0  0
    2.5541   -0.8291   -0.3818 C   0  0  0  0  0  0  0  0  0  0  0  0
    1.7996    0.4608   -0.7078 C   0  0  0  0  0  0  0  0  0  0  0  0
    0.5433    0.1513   -1.4074 N   0  0  0  0  0  0  0  0  0  0  0  0
   -0.5912   -0.0583   -0.4868 C   0  0  0  0  0  0  0  0  0  0  0  0
   -1.1198    1.2822    0.1052 C   0  0  0  0  0  0  0  0  0  0  0  0
   -2.6268    1.2597    0.4304 C   0  0  0  0  0  0  0  0  0  0  0  0
   -3.0939   -0.1404    0.8377 C   0  0  0  0  0  0  0  0  0  0  0  0
   -2.8820   -1.1635   -0.2960 C   0  0  0  0  0  0  0  0  0  0  0  0
   -1.7064   -0.8110   -1.2299 C   0  0  0  0  0  0  0  0  0  0  0  0
    4.7245    0.5610    2.2130 H   0  0  0  0  0  0  0  0  0  0  0  0
    1.9503   -1.4677    0.2958 H   0  0  0  0  0  0  0  0  0  0  0  0
    2.7525   -1.3936   -1.3177 H   0  0  0  0  0  0  0  0  0  0  0  0
    2.4402    1.0822   -1.3725 H   0  0  0  0  0  0  0  0  0  0  0  0
    1.6220    1.0479    0.2194 H   0  0  0  0  0  0  0  0  0  0  0  0
    0.3189    0.9280   -2.0732 H   0  0  0  0  0  0  0  0  0  0  0  0
   -0.2713   -0.7123    0.3560 H   0  0  0  0  0  0  0  0  0  0  0  0
   -0.5598    1.5025    1.0399 H   0  0  0  0  0  0  0  0  0  0  0  0
   -0.9321    2.1262   -0.5932 H   0  0  0  0  0  0  0  0  0  0  0  0
   -3.2051    1.5885   -0.4612 H   0  0  0  0  0  0  0  0  0  0  0  0
   -2.8404    1.9774    1.2519 H   0  0  0  0  0  0  0  0  0  0  0  0
   -2.5263   -0.4612    1.7392 H   0  0  0  0  0  0  0  0  0  0  0  0
   -4.1703   -0.1086    1.1129 H   0  0  0  0  0  0  0  0  0  0  0  0
   -2.7059   -2.1636    0.1568 H   0  0  0  0  0  0  0  0  0  0  0  0
   -3.8091   -1.2361   -0.9054 H   0  0  0  0  0  0  0  0  0  0  0  0
   -1.2993   -1.7465   -1.6724 H   0  0  0  0  0  0  0  0  0  0  0  0
   -2.0778   -0.1785   -2.0667 H   0  0  0  0  0  0  0  0  0  0  0  0
  1  2  1  0
  2  3  2  0
  2  4  2  0
  2  5  1  0
  5  6  1  0
  6  7  1  0
  7  8  1  0
  8  9  1  0
  9 10  1  0
 10 11  1  0
 11 12  1  0
 12 13  1  0
 13  8  1  0
  1 14  1  0
  5 15  1  0
  5 16  1  0
  6 17  1  0
  6 18  1  0
  7 19  1  0
  8 20  1  0
  9 21  1  0
  9 22  1  0
 10 23  1  0
 10 24  1  0
 11 25  1  0
 11 26  1  0
 12 27  1  0
 12 28  1  0
 13 29  1  0
 13 30  1  0
M  END
$$$$
