
     RDKit          3D

 45 45  0  0  0  0  0  0  0  0999 V2000
    5.6882   -0.0979   -1.1520 C   0  0  0  0  0  0  0  0  0  0  0  0
    4.3775    0.5582   -0.7280 C   0  0  0  0  0  0  0  0  0  0  0  0
    3.1701   -0.2192   -1.2646 C   0  0  0  0  0  0  0  0  0  0  0  0
    1.8559    0.4430   -0.8352 C   0  0  0  0  0  0  0  0  0  0  0  0
    0.6447   -0.3314   -1.3767 C   0  0  0  0  0  0  0  0  0  0  0  0
   -0.6943    0.2696   -0.9017 C   0  0  0  0  0  0  0  0  0  0  0  0
   -1.8742   -0.6874   -1.2252 C   0  0  0  0  0  0  0  0  0  0  0  0
   -2.4471   -1.3797    0.0226 C   0  0  0  0  0  0  0  0  0  0  0  0
   -1.4615   -2.3843    0.6428 C   0  0  0  0  0  0  0  0  0  0  0  0
   -2.0968   -3.2104    1.7713 C   0  0  0  0  0  0  0  0  0  0  0  0
   -2.3781   -2.3800    3.0234 C   0  0  0  0  0  0  0  0  0  0  0  0
   -0.9581    1.9029   -1.7019 S   0  0  0  0  0  0  0  0  0  0  0  0
   -2.1328    2.4834   -0.4715 C   0  0  0  0  0  0  0  0  0  0  0  0
   -1.8764    3.1056    0.7338 C   0  0  0  0  0  0  0  0  0  0  0  0
   -3.0621    3.3517    1.3266 N   0  0  0  0  0  0  0  0  0  0  0  0
   -4.0041    2.8999    0.5094 N   0  0  0  0  0  0  0  0  0  0  0  0
   -3.4653    2.3747   -0.5793 N   0  0  0  0  0  0  0  0  0  0  0  0
   -0.5750    3.4543    1.3206 C   0  0  0  0  0  0  0  0  0  0  0  0
    0.6049    3.1926    0.6324 O   0  0  0  0  0  0  0  0  0  0  0  0
   -0.5273    3.9970    2.4565 O   0  0  0  0  0  0  0  0  0  0  0  0
    6.5430    0.4858   -0.7500 H   0  0  0  0  0  0  0  0  0  0  0  0
    5.7658   -0.1242   -2.2599 H   0  0  0  0  0  0  0  0  0  0  0  0
    5.7474   -1.1337   -0.7551 H   0  0  0  0  0  0  0  0  0  0  0  0
    4.3551    1.6001   -1.1156 H   0  0  0  0  0  0  0  0  0  0  0  0
    4.3365    0.5948    0.3826 H   0  0  0  0  0  0  0  0  0  0  0  0
    3.2186   -0.2540   -2.3755 H   0  0  0  0  0  0  0  0  0  0  0  0
    3.2018   -1.2612   -0.8761 H   0  0  0  0  0  0  0  0  0  0  0  0
    1.8077    0.4731    0.2757 H   0  0  0  0  0  0  0  0  0  0  0  0
    1.8350    1.4855   -1.2194 H   0  0  0  0  0  0  0  0  0  0  0  0
    0.6741   -0.3417   -2.4887 H   0  0  0  0  0  0  0  0  0  0  0  0
    0.7189   -1.3841   -1.0271 H   0  0  0  0  0  0  0  0  0  0  0  0
   -0.6257    0.4324    0.1971 H   0  0  0  0  0  0  0  0  0  0  0  0
   -1.5797   -1.4560   -1.9739 H   0  0  0  0  0  0  0  0  0  0  0  0
   -2.7073   -0.1247   -1.6963 H   0  0  0  0  0  0  0  0  0  0  0  0
   -3.3731   -1.9183   -0.2754 H   0  0  0  0  0  0  0  0  0  0  0  0
   -2.7314   -0.6061    0.7679 H   0  0  0  0  0  0  0  0  0  0  0  0
   -1.1201   -3.0880   -0.1475 H   0  0  0  0  0  0  0  0  0  0  0  0
   -0.5666   -1.8549    1.0349 H   0  0  0  0  0  0  0  0  0  0  0  0
   -3.0390   -3.6826    1.4175 H   0  0  0  0  0  0  0  0  0  0  0  0
   -1.3948   -4.0274    2.0459 H   0  0  0  0  0  0  0  0  0  0  0  0
   -2.7243   -3.0489    3.8392 H   0  0  0  0  0  0  0  0  0  0  0  0
   -3.1747   -1.6325    2.8287 H   0  0  0  0  0  0  0  0  0  0  0  0
   -1.4563   -1.8598    3.3604 H   0  0  0  0  0  0  0  0  0  0  0  0
   -4.0041    1.9584   -1.3702 H   0  0  0  0  0  0  0  0  0  0  0  0
    1.5051    3.4256    1.0340 H   0  0  0  0  0  0  0  0  0  0  0  0
  1  2  1  0
  2  3  1  0
  3  4  1  0
  4  5  1  0
  5  6  1  0
  6  7  1  0
  7  8  1  0
  8  9  1  0
  9 10  1  0
 10 11  1  0
  6 12  1  0
 12 13  1  0
 13 14  2  0
 14 15  1  0
 15 16  2  0
 16 17  1  0
 14 18  1  0
 18 19  1  0
 18 20  2  0
 17 13  1  0
  1 21  1  0
  1 22  1  0
  1 23  1  0
  2 24  1  0
  2 25  1  0
  3 26  1  0
  3 27  1  0
  4 28  1  0
  4 29  1  0
  5 30  1  0
  5 31  1  0
  6 32  1  0
  7 33  1  0
  7 34  1  0
  8 35  1  0
  8 36  1  0
  9 37  1  0
  9 38  1  0
 10 39  1  0
 10 40  1  0
 11 41  1  0
 11 42  1  0
 11 43  1  0
 17 44  1  0
 19 45  1  0
M  END
$$$$
