
     RDKit          3D

 40 42  0  0  0  0  0  0  0  0999 V2000
   -4.9728   -4.0397    0.2354 F   0  0  0  0  0  0  0  0  0  0  0  0
   -3.6104   -3.9855    0.4574 C   0  0  0  0  0  0  0  0  0  0  0  0
   -3.3627   -4.2385    1.7945 F   0  0  0  0  0  0  0  0  0  0  0  0
   -3.1338   -2.6882    0.1115 O   0  0  0  0  0  0  0  0  0  0  0  0
   -1.7854   -2.2953    0.1336 C   0  0  0  0  0  0  0  0  0  0  0  0
   -1.4732   -0.9707   -0.2063 C   0  0  0  0  0  0  0  0  0  0  0  0
   -2.5258   -0.1093   -0.5549 O   0  0  0  0  0  0  0  0  0  0  0  0
   -2.3683    1.2614   -0.9097 C   0  0  0  0  0  0  0  0  0  0  0  0
   -3.7403    1.8492   -1.2424 C   0  0  0  0  0  0  0  0  0  0  0  0
   -4.5204    2.3939   -0.0559 C   0  0  0  0  0  0  0  0  0  0  0  0
   -3.8698    3.3513   -1.0436 C   0  0  0  0  0  0  0  0  0  0  0  0
   -0.1305   -0.5438   -0.1922 C   0  0  0  0  0  0  0  0  0  0  0  0
    0.9012   -1.4291    0.1651 C   0  0  0  0  0  0  0  0  0  0  0  0
    0.5765   -2.7552    0.4901 C   0  0  0  0  0  0  0  0  0  0  0  0
   -0.7513   -3.1846    0.4784 C   0  0  0  0  0  0  0  0  0  0  0  0
    2.3162   -0.9859    0.1767 C   0  0  0  0  0  0  0  0  0  0  0  0
    3.2372   -1.8448    0.0952 O   0  0  0  0  0  0  0  0  0  0  0  0
    2.6538    0.4046    0.3063 N   0  0  0  0  0  0  0  0  0  0  0  0
    3.9879    0.8905    0.0937 C   0  0  0  0  0  0  0  0  0  0  0  0
    4.6286    0.7260   -1.1503 C   0  0  0  0  0  0  0  0  0  0  0  0
    3.8164   -0.0198   -2.5215 Cl  0  0  0  0  0  0  0  0  0  0  0  0
    5.9259    1.2183   -1.3213 C   0  0  0  0  0  0  0  0  0  0  0  0
    6.5557    1.8580   -0.3019 N   0  0  0  0  0  0  0  0  0  0  0  0
    5.9562    2.0446    0.9026 C   0  0  0  0  0  0  0  0  0  0  0  0
    4.6594    1.5724    1.1238 C   0  0  0  0  0  0  0  0  0  0  0  0
    3.9166    1.8130    2.6996 Cl  0  0  0  0  0  0  0  0  0  0  0  0
   -3.1175   -4.7561   -0.1722 H   0  0  0  0  0  0  0  0  0  0  0  0
   -1.8790    1.8079   -0.0727 H   0  0  0  0  0  0  0  0  0  0  0  0
   -1.7279    1.3398   -1.8140 H   0  0  0  0  0  0  0  0  0  0  0  0
   -4.3510    1.4191   -2.0648 H   0  0  0  0  0  0  0  0  0  0  0  0
   -5.6237    2.3222   -0.1592 H   0  0  0  0  0  0  0  0  0  0  0  0
   -4.0110    2.3465    0.9306 H   0  0  0  0  0  0  0  0  0  0  0  0
   -2.9752    3.8744   -0.6426 H   0  0  0  0  0  0  0  0  0  0  0  0
   -4.5896    3.8462   -1.7293 H   0  0  0  0  0  0  0  0  0  0  0  0
    0.1130    0.4684   -0.4807 H   0  0  0  0  0  0  0  0  0  0  0  0
    1.3507   -3.4613    0.7644 H   0  0  0  0  0  0  0  0  0  0  0  0
   -0.9618   -4.2124    0.7395 H   0  0  0  0  0  0  0  0  0  0  0  0
    1.9632    1.0489    0.7522 H   0  0  0  0  0  0  0  0  0  0  0  0
    6.4320    1.1030   -2.2708 H   0  0  0  0  0  0  0  0  0  0  0  0
    6.4904    2.5606    1.6895 H   0  0  0  0  0  0  0  0  0  0  0  0
  1  2  1  0
  2  3  1  0
  2  4  1  0
  4  5  1  0
  5  6  2  0
  6  7  1  0
  7  8  1  0
  8  9  1  0
  9 10  1  0
 10 11  1  0
  6 12  1  0
 12 13  2  0
 13 14  1  0
 14 15  2  0
 13 16  1  0
 16 17  2  0
 16 18  1  0
 18 19  1  0
 19 20  2  0
 20 21  1  0
 20 22  1  0
 22 23  2  0
 23 24  1  0
 24 25  2  0
 25 26  1  0
 15  5  1  0
 25 19  1  0
 11  9  1  0
  2 27  1  0
  8 28  1  0
  8 29  1  0
  9 30  1  0
 10 31  1  0
 10 32  1  0
 11 33  1  0
 11 34  1  0
 12 35  1  0
 14 36  1  0
 15 37  1  0
 18 38  1  0
 22 39  1  0
 24 40  1  0
M  END
$$$$
