
     RDKit          3D

 47 49  0  0  0  0  0  0  0  0999 V2000
    0.9482    1.4097    0.4732 C   0  0  1  0  0  0  0  0  0  0  0  0
    2.2652    0.6747    0.2029 C   0  0  0  0  0  0  0  0  0  0  0  0
    3.1209    0.8146    1.3126 O   0  0  0  0  0  0  0  0  0  0  0  0
    4.4718   -0.2053    1.0978 P   0  0  0  0  0  5  0  0  0  0  0  0
    4.0812   -1.7558    1.6602 O   0  0  0  0  0  0  0  0  0  0  0  0
    5.6097    0.3453    1.9274 O   0  0  0  0  0  0  0  0  0  0  0  0
    4.9317   -0.2371   -0.5442 O   0  0  0  0  0  0  0  0  0  0  0  0
    6.0737   -1.4838   -0.7474 P   0  0  0  0  0  5  0  0  0  0  0  0
    6.7590   -1.3283   -2.2862 O   0  0  0  0  0  0  0  0  0  0  0  0
    7.3127   -1.3784    0.4056 O   0  0  0  0  0  0  0  0  0  0  0  0
    5.3910   -2.8313   -0.6555 O   0  0  0  0  0  0  0  0  0  0  0  0
    0.1444    1.3695   -0.6837 O   0  0  0  0  0  0  0  0  0  0  0  0
   -1.1953    1.1801   -0.2782 C   0  0  1  0  0  0  0  0  0  0  0  0
   -1.7188   -0.0441   -0.8920 N   0  0  0  0  0  0  0  0  0  0  0  0
   -1.1695   -1.2878   -0.8809 C   0  0  0  0  0  0  0  0  0  0  0  0
   -1.9250   -2.2187   -1.5267 N   0  0  0  0  0  0  0  0  0  0  0  0
   -2.9836   -1.5015   -1.9474 C   0  0  0  0  0  0  0  0  0  0  0  0
   -4.0968   -1.9108   -2.6727 C   0  0  0  0  0  0  0  0  0  0  0  0
   -4.2664   -3.2653   -3.0905 N   0  0  0  0  0  0  0  0  0  0  0  0
   -5.0357   -0.9658   -2.9784 N   0  0  0  0  0  0  0  0  0  0  0  0
   -4.8881    0.3410   -2.5870 C   0  0  0  0  0  0  0  0  0  0  0  0
   -3.7884    0.7319   -1.8750 N   0  0  0  0  0  0  0  0  0  0  0  0
   -2.8617   -0.2085   -1.5698 C   0  0  0  0  0  0  0  0  0  0  0  0
   -1.2670    1.0971    1.2514 C   0  0  2  0  0  0  0  0  0  0  0  0
   -1.6410    2.3578    1.7816 O   0  0  0  0  0  0  0  0  0  0  0  0
   -3.2834    2.3293    2.2472 P   0  0  0  0  0  5  0  0  0  0  0  0
   -4.2518    1.7981    0.9658 O   0  0  0  0  0  0  0  0  0  0  0  0
   -3.7592    3.8917    2.6890 O   0  0  0  0  0  0  0  0  0  0  0  0
   -3.4637    1.4042    3.4300 O   0  0  0  0  0  0  0  0  0  0  0  0
    0.1621    0.7937    1.6266 C   0  0  2  0  0  0  0  0  0  0  0  0
    0.5044    1.3778    2.8584 O   0  0  0  0  0  0  0  0  0  0  0  0
    1.1735    2.4770    0.6994 H   0  0  0  0  0  0  0  0  0  0  0  0
    2.7365    1.1356   -0.6939 H   0  0  0  0  0  0  0  0  0  0  0  0
    2.0374   -0.3935   -0.0166 H   0  0  0  0  0  0  0  0  0  0  0  0
    3.3283   -2.0553    1.0917 H   0  0  0  0  0  0  0  0  0  0  0  0
    7.4561   -2.0308   -2.3248 H   0  0  0  0  0  0  0  0  0  0  0  0
    7.0565   -2.0106    1.1239 H   0  0  0  0  0  0  0  0  0  0  0  0
   -1.7891    2.0498   -0.6371 H   0  0  0  0  0  0  0  0  0  0  0  0
   -0.2256   -1.5228   -0.4087 H   0  0  0  0  0  0  0  0  0  0  0  0
   -3.5530   -3.9925   -2.8605 H   0  0  0  0  0  0  0  0  0  0  0  0
   -5.1127   -3.5442   -3.6346 H   0  0  0  0  0  0  0  0  0  0  0  0
   -5.6467    1.0673   -2.8441 H   0  0  0  0  0  0  0  0  0  0  0  0
   -1.9104    0.2506    1.5962 H   0  0  0  0  0  0  0  0  0  0  0  0
   -4.2222    2.5368    0.3070 H   0  0  0  0  0  0  0  0  0  0  0  0
   -3.1001    4.1723    3.3729 H   0  0  0  0  0  0  0  0  0  0  0  0
    0.3000   -0.3139    1.6630 H   0  0  0  0  0  0  0  0  0  0  0  0
    1.2907    0.8800    3.2025 H   0  0  0  0  0  0  0  0  0  0  0  0
  1  2  1  0
  2  3  1  0
  3  4  1  0
  4  5  1  0
  4  6  2  0
  4  7  1  0
  7  8  1  0
  8  9  1  0
  8 10  1  0
  8 11  2  0
  1 12  1  0
 12 13  1  0
 13 14  1  0
 14 15  1  0
 15 16  2  0
 16 17  1  0
 17 18  2  0
 18 19  1  0
 18 20  1  0
 20 21  2  0
 21 22  1  0
 22 23  2  0
 13 24  1  0
 24 25  1  0
 25 26  1  0
 26 27  1  0
 26 28  1  0
 26 29  2  0
 24 30  1  0
 30 31  1  0
 30  1  1  0
 23 14  1  0
 23 17  1  0
  1 32  1  1
  2 33  1  0
  2 34  1  0
  5 35  1  0
  9 36  1  0
 10 37  1  0
 13 38  1  6
 15 39  1  0
 19 40  1  0
 19 41  1  0
 21 42  1  0
 24 43  1  6
 27 44  1  0
 28 45  1  0
 30 46  1  1
 31 47  1  0
M  END
$$$$
