
     RDKit          3D

 28 27  0  0  0  0  0  0  0  0999 V2000
    2.8564    0.8960    0.9448 N   0  0  0  0  0  0  0  0  0  0  0  0
    2.8832   -0.3808    0.2282 C   0  0  1  0  0  0  0  0  0  0  0  0
    1.5839   -1.1866    0.4625 C   0  0  0  0  0  0  0  0  0  0  0  0
    0.3115   -0.6257   -0.2052 C   0  0  0  0  0  0  0  0  0  0  0  0
   -0.1512    0.7105    0.3923 C   0  0  0  0  0  0  0  0  0  0  0  0
   -1.5061    1.0335   -0.0575 N   0  0  0  0  0  0  0  0  0  0  0  0
   -2.7083    0.4068    0.4317 C   0  0  0  0  0  0  0  0  0  0  0  0
   -2.6712   -0.4572    1.3999 N   0  0  0  0  0  0  0  0  0  0  0  0
   -3.9681    0.7770   -0.1545 N   0  0  0  0  0  0  0  0  0  0  0  0
   -5.1976    0.1814    0.1874 N   0  0  0  0  0  4  0  0  0  0  0  0
   -5.2614   -0.9006    1.0349 O   0  0  0  0  0  1  0  0  0  0  0  0
   -6.2507    0.6085   -0.3275 O   0  0  0  0  0  0  0  0  0  0  0  0
    3.1480   -0.1692   -1.2382 C   0  0  0  0  0  0  0  0  0  0  0  0
    3.7719   -1.1710   -1.9751 O   0  0  0  0  0  0  0  0  0  0  0  0
    2.7727    0.8893   -1.8119 O   0  0  0  0  0  0  0  0  0  0  0  0
    2.7554    0.6992    1.9673 H   0  0  0  0  0  0  0  0  0  0  0  0
    3.7886    1.3574    0.8312 H   0  0  0  0  0  0  0  0  0  0  0  0
    3.7251   -0.9873    0.6337 H   0  0  0  0  0  0  0  0  0  0  0  0
    1.7445   -2.2147    0.0692 H   0  0  0  0  0  0  0  0  0  0  0  0
    1.4075   -1.2959    1.5550 H   0  0  0  0  0  0  0  0  0  0  0  0
   -0.4919   -1.3816   -0.0741 H   0  0  0  0  0  0  0  0  0  0  0  0
    0.4621   -0.5129   -1.2998 H   0  0  0  0  0  0  0  0  0  0  0  0
    0.5322    1.5134    0.0440 H   0  0  0  0  0  0  0  0  0  0  0  0
   -0.1096    0.6988    1.5022 H   0  0  0  0  0  0  0  0  0  0  0  0
   -1.6051    1.7944   -0.7668 H   0  0  0  0  0  0  0  0  0  0  0  0
   -1.7961   -0.7612    1.8779 H   0  0  0  0  0  0  0  0  0  0  0  0
   -3.9694    1.5346   -0.8745 H   0  0  0  0  0  0  0  0  0  0  0  0
    3.9438   -1.0560   -2.9667 H   0  0  0  0  0  0  0  0  0  0  0  0
  1  2  1  0
  2  3  1  0
  3  4  1  0
  4  5  1  0
  5  6  1  0
  6  7  1  0
  7  8  2  3
  7  9  1  0
  9 10  1  0
 10 11  1  0
 10 12  2  0
  2 13  1  0
 13 14  1  0
 13 15  2  0
  1 16  1  0
  1 17  1  0
  2 18  1  1
  3 19  1  0
  3 20  1  0
  4 21  1  0
  4 22  1  0
  5 23  1  0
  5 24  1  0
  6 25  1  0
  8 26  1  0
  9 27  1  0
 14 28  1  0
M  CHG  2  10   1  11  -1
M  END
$$$$
