
     RDKit          3D

 99105  0  0  0  0  0  0  0  0999 V2000
   -5.8476   -0.8423   -1.7983 C   0  0  0  0  0  0  0  0  0  0  0  0
   -5.6988   -1.4221   -0.5985 C   0  0  0  0  0  0  0  0  0  0  0  0
   -5.3085   -0.7760    0.7071 C   0  0  2  0  0  0  0  0  0  0  0  0
   -5.5173    0.7050    0.9348 C   0  0  0  0  0  0  0  0  0  0  0  0
   -4.0868    0.1469    0.8280 C   0  0  1  0  0  0  0  0  0  0  0  0
   -3.4480    0.0112    2.1333 N   0  0  0  0  0  0  0  0  0  0  0  0
   -2.4814   -0.7739    2.5306 C   0  0  0  0  0  0  0  0  0  0  0  0
   -2.1419   -0.7390    3.8809 O   0  0  0  0  0  0  0  0  0  0  0  0
   -1.6005   -1.6568    1.6510 C   0  0  2  0  0  0  0  0  0  0  0  0
   -0.3592   -0.8828    1.2026 C   0  0  0  0  0  0  0  0  0  0  0  0
    0.0740   -1.4867   -0.1396 C   0  0  2  0  0  0  0  0  0  0  0  0
   -0.8546   -2.6700   -0.3857 C   0  0  0  0  0  0  0  0  0  0  0  0
   -2.1343   -2.3145    0.3660 C   0  0  1  0  0  0  0  0  0  0  0  0
   -3.0520   -3.5096    0.5311 C   0  0  0  0  0  0  0  0  0  0  0  0
   -3.3059   -3.9286    1.6940 O   0  0  0  0  0  0  0  0  0  0  0  0
   -3.6303   -4.1949   -0.6136 N   0  0  0  0  0  0  0  0  0  0  0  0
   -4.0415   -5.5915   -0.4324 C   0  0  0  0  0  0  0  0  0  0  0  0
   -3.6194   -3.6148   -1.9753 C   0  0  0  0  0  0  0  0  0  0  0  0
   -4.9595   -3.8055   -2.7251 C   0  0  0  0  0  0  0  0  0  0  0  0
   -5.3341   -2.5867   -3.6057 C   0  0  0  0  0  0  0  0  0  0  0  0
   -6.3706   -1.6345   -2.9729 C   0  0  0  0  0  0  0  0  0  0  0  0
    1.4373   -1.9148   -0.1113 O   0  0  0  0  0  0  0  0  0  0  0  0
    2.5526   -1.0572   -0.0534 C   0  0  0  0  0  0  0  0  0  0  0  0
    3.8443   -1.6115    0.0325 C   0  0  0  0  0  0  0  0  0  0  0  0
    4.0403   -2.9997    0.0623 C   0  0  0  0  0  0  0  0  0  0  0  0
    5.3256   -3.5291    0.1681 C   0  0  0  0  0  0  0  0  0  0  0  0
    6.4484   -2.6838    0.2380 C   0  0  0  0  0  0  0  0  0  0  0  0
    7.7493   -3.2001    0.3675 O   0  0  0  0  0  0  0  0  0  0  0  0
    8.0681   -4.5861    0.4392 C   0  0  0  0  0  0  0  0  0  0  0  0
    6.2694   -1.2852    0.1801 C   0  0  0  0  0  0  0  0  0  0  0  0
    7.4637   -0.3675    0.2826 C   0  0  0  0  0  0  0  0  0  0  0  0
    4.9647   -0.7509    0.0994 C   0  0  0  0  0  0  0  0  0  0  0  0
    4.7750    0.5969    0.0910 N   0  0  0  0  0  0  0  0  0  0  0  0
    3.5430    1.1635    0.0094 C   0  0  0  0  0  0  0  0  0  0  0  0
    2.4118    0.3424   -0.0744 C   0  0  0  0  0  0  0  0  0  0  0  0
    3.4276    2.6335    0.0180 C   0  0  0  0  0  0  0  0  0  0  0  0
    4.4983    3.4551    0.0817 N   0  0  0  0  0  0  0  0  0  0  0  0
    4.1405    4.7697    0.0870 C   0  0  0  0  0  0  0  0  0  0  0  0
    2.7687    5.0075    0.0302 C   0  0  0  0  0  0  0  0  0  0  0  0
    1.9933    3.5184   -0.0297 S   0  0  0  0  0  0  0  0  0  0  0  0
    5.1626    5.8736    0.1563 C   0  0  0  0  0  0  0  0  0  0  0  0
    6.0998    5.8104   -1.0535 C   0  0  0  0  0  0  0  0  0  0  0  0
    5.9531    5.7866    1.4652 C   0  0  0  0  0  0  0  0  0  0  0  0
   -3.3254    0.8818   -0.2702 C   0  0  0  0  0  0  0  0  0  0  0  0
   -3.2182    0.3010   -1.5304 O   0  0  0  0  0  0  0  0  0  0  0  0
   -2.7574    2.0404   -0.0861 N   0  0  0  0  0  0  0  0  0  0  0  0
   -2.7128    2.9888    1.3682 S   0  0  0  0  0  6  0  0  0  0  0  0
   -1.8035    2.3451    2.3758 O   0  0  0  0  0  0  0  0  0  0  0  0
   -4.0944    3.1320    1.9438 O   0  0  0  0  0  0  0  0  0  0  0  0
   -2.0348    4.5932    0.9507 C   0  0  0  0  0  0  0  0  0  0  0  0
   -3.0496    5.5980    0.4325 C   0  0  0  0  0  0  0  0  0  0  0  0
   -2.4897    5.7375    1.8405 C   0  0  0  0  0  0  0  0  0  0  0  0
   -5.6882    0.2213   -1.9284 H   0  0  0  0  0  0  0  0  0  0  0  0
   -5.9580   -2.4675   -0.4970 H   0  0  0  0  0  0  0  0  0  0  0  0
   -5.4992   -1.3934    1.6124 H   0  0  0  0  0  0  0  0  0  0  0  0
   -5.8967    1.2742    0.0611 H   0  0  0  0  0  0  0  0  0  0  0  0
   -5.8552    0.9508    1.9644 H   0  0  0  0  0  0  0  0  0  0  0  0
   -2.6477   -0.1537    4.5356 H   0  0  0  0  0  0  0  0  0  0  0  0
   -1.2377   -2.4852    2.3030 H   0  0  0  0  0  0  0  0  0  0  0  0
    0.4433   -0.9646    1.9689 H   0  0  0  0  0  0  0  0  0  0  0  0
   -0.5957    0.1942    1.0551 H   0  0  0  0  0  0  0  0  0  0  0  0
   -0.0783   -0.7504   -0.9612 H   0  0  0  0  0  0  0  0  0  0  0  0
   -1.0244   -2.8085   -1.4737 H   0  0  0  0  0  0  0  0  0  0  0  0
   -0.4105   -3.6006    0.0354 H   0  0  0  0  0  0  0  0  0  0  0  0
   -2.6515   -1.5699   -0.2239 H   0  0  0  0  0  0  0  0  0  0  0  0
   -3.2221   -6.1676    0.0481 H   0  0  0  0  0  0  0  0  0  0  0  0
   -4.2706   -6.0794   -1.4028 H   0  0  0  0  0  0  0  0  0  0  0  0
   -4.9457   -5.6336    0.2104 H   0  0  0  0  0  0  0  0  0  0  0  0
   -2.8037   -4.0891   -2.5626 H   0  0  0  0  0  0  0  0  0  0  0  0
   -3.3952   -2.5362   -1.9423 H   0  0  0  0  0  0  0  0  0  0  0  0
   -4.8519   -4.6929   -3.3871 H   0  0  0  0  0  0  0  0  0  0  0  0
   -5.7892   -4.0545   -2.0319 H   0  0  0  0  0  0  0  0  0  0  0  0
   -4.4321   -2.0150   -3.9167 H   0  0  0  0  0  0  0  0  0  0  0  0
   -5.7864   -2.9759   -4.5443 H   0  0  0  0  0  0  0  0  0  0  0  0
   -6.6888   -0.9113   -3.7545 H   0  0  0  0  0  0  0  0  0  0  0  0
   -7.2788   -2.2024   -2.6738 H   0  0  0  0  0  0  0  0  0  0  0  0
    3.2011   -3.6829    0.0134 H   0  0  0  0  0  0  0  0  0  0  0  0
    5.4349   -4.6044    0.2004 H   0  0  0  0  0  0  0  0  0  0  0  0
    9.1668   -4.7001    0.5400 H   0  0  0  0  0  0  0  0  0  0  0  0
    7.7413   -5.1017   -0.4884 H   0  0  0  0  0  0  0  0  0  0  0  0
    7.5808   -5.0449    1.3253 H   0  0  0  0  0  0  0  0  0  0  0  0
    7.3010    0.5671   -0.2945 H   0  0  0  0  0  0  0  0  0  0  0  0
    7.6404   -0.1098    1.3476 H   0  0  0  0  0  0  0  0  0  0  0  0
    8.3769   -0.8442   -0.1311 H   0  0  0  0  0  0  0  0  0  0  0  0
    1.4351    0.7940   -0.1514 H   0  0  0  0  0  0  0  0  0  0  0  0
    2.2855    5.9756    0.0269 H   0  0  0  0  0  0  0  0  0  0  0  0
    4.6441    6.8582    0.1350 H   0  0  0  0  0  0  0  0  0  0  0  0
    6.6709    4.8568   -1.0624 H   0  0  0  0  0  0  0  0  0  0  0  0
    6.8188    6.6568   -1.0239 H   0  0  0  0  0  0  0  0  0  0  0  0
    5.5131    5.8862   -1.9941 H   0  0  0  0  0  0  0  0  0  0  0  0
    6.5188    4.8316    1.5230 H   0  0  0  0  0  0  0  0  0  0  0  0
    6.6709    6.6317    1.5344 H   0  0  0  0  0  0  0  0  0  0  0  0
    5.2611    5.8471    2.3325 H   0  0  0  0  0  0  0  0  0  0  0  0
   -2.7130    0.7582   -2.2803 H   0  0  0  0  0  0  0  0  0  0  0  0
   -1.0110    4.6796    0.5295 H   0  0  0  0  0  0  0  0  0  0  0  0
   -2.6387    6.3353   -0.2891 H   0  0  0  0  0  0  0  0  0  0  0  0
   -4.1066    5.2592    0.3967 H   0  0  0  0  0  0  0  0  0  0  0  0
   -3.2133    5.4830    2.6433 H   0  0  0  0  0  0  0  0  0  0  0  0
   -1.7479    6.5566    1.9495 H   0  0  0  0  0  0  0  0  0  0  0  0
  1  2  2  0
  2  3  1  0
  3  4  1  0
  4  5  1  0
  5  6  1  0
  6  7  2  3
  7  8  1  0
  7  9  1  0
  9 10  1  0
 10 11  1  0
 11 12  1  0
 12 13  1  0
 13 14  1  0
 14 15  2  0
 14 16  1  0
 16 17  1  0
 16 18  1  0
 18 19  1  0
 19 20  1  0
 20 21  1  0
 11 22  1  0
 22 23  1  0
 23 24  1  0
 24 25  2  0
 25 26  1  0
 26 27  2  0
 27 28  1  0
 28 29  1  0
 27 30  1  0
 30 31  1  0
 30 32  2  0
 32 33  1  0
 33 34  2  0
 34 35  1  0
 34 36  1  0
 36 37  2  0
 37 38  1  0
 38 39  2  0
 39 40  1  0
 38 41  1  0
 41 42  1  0
 41 43  1  0
  5 44  1  6
 44 45  1  0
 44 46  2  3
 46 47  1  0
 47 48  2  0
 47 49  2  0
 47 50  1  0
 50 51  1  0
 51 52  1  0
 21  1  1  0
 35 23  2  0
 40 36  1  0
 52 50  1  0
  5  3  1  0
 13  9  1  0
 32 24  1  0
  1 53  1  0
  2 54  1  0
  3 55  1  1
  4 56  1  0
  4 57  1  0
  8 58  1  0
  9 59  1  1
 10 60  1  0
 10 61  1  0
 11 62  1  6
 12 63  1  0
 12 64  1  0
 13 65  1  6
 17 66  1  0
 17 67  1  0
 17 68  1  0
 18 69  1  0
 18 70  1  0
 19 71  1  0
 19 72  1  0
 20 73  1  0
 20 74  1  0
 21 75  1  0
 21 76  1  0
 25 77  1  0
 26 78  1  0
 29 79  1  0
 29 80  1  0
 29 81  1  0
 31 82  1  0
 31 83  1  0
 31 84  1  0
 35 85  1  0
 39 86  1  0
 41 87  1  0
 42 88  1  0
 42 89  1  0
 42 90  1  0
 43 91  1  0
 43 92  1  0
 43 93  1  0
 45 94  1  0
 50 95  1  0
 51 96  1  0
 51 97  1  0
 52 98  1  0
 52 99  1  0
M  END
$$$$
