
     RDKit          3D

 26 26  0  0  0  0  0  0  0  0999 V2000
    4.7533   -0.4017   -0.3802 C   0  0  0  0  0  0  0  0  0  0  0  0
    3.3963   -0.0305   -0.4702 O   0  0  0  0  0  0  0  0  0  0  0  0
    3.0280    0.6787    0.6938 C   0  0  0  0  0  0  0  0  0  0  0  0
    1.5595    1.0710    0.6018 C   0  0  0  0  0  0  0  0  0  0  0  0
    0.7515   -0.0998    0.5264 O   0  0  0  0  0  0  0  0  0  0  0  0
   -0.6422   -0.0527    0.4319 C   0  0  0  0  0  0  0  0  0  0  0  0
   -1.3012    1.1382    0.4083 N   0  0  0  0  0  0  0  0  0  0  0  0
   -2.6564    1.1888    0.3164 C   0  0  0  0  0  0  0  0  0  0  0  0
   -3.3235    2.4483    0.2934 N   0  0  0  0  0  0  0  0  0  0  0  0
   -3.3746    0.0368    0.2463 N   0  0  0  0  0  0  0  0  0  0  0  0
   -2.7600   -1.1761    0.2665 C   0  0  0  0  0  0  0  0  0  0  0  0
   -3.5746   -2.4277    0.1878 C   0  0  0  0  0  0  0  0  0  0  0  0
   -1.3663   -1.2433    0.3608 C   0  0  0  0  0  0  0  0  0  0  0  0
    4.9290   -1.0805    0.4840 H   0  0  0  0  0  0  0  0  0  0  0  0
    5.0304   -0.9538   -1.3015 H   0  0  0  0  0  0  0  0  0  0  0  0
    5.4126    0.4924   -0.3131 H   0  0  0  0  0  0  0  0  0  0  0  0
    3.1675    0.0510    1.6041 H   0  0  0  0  0  0  0  0  0  0  0  0
    3.6297    1.6111    0.7935 H   0  0  0  0  0  0  0  0  0  0  0  0
    1.2808    1.6587    1.5036 H   0  0  0  0  0  0  0  0  0  0  0  0
    1.3990    1.6984   -0.3022 H   0  0  0  0  0  0  0  0  0  0  0  0
   -2.7774    3.3367    0.3469 H   0  0  0  0  0  0  0  0  0  0  0  0
   -4.3642    2.4941    0.2229 H   0  0  0  0  0  0  0  0  0  0  0  0
   -3.4035   -3.0444    1.0951 H   0  0  0  0  0  0  0  0  0  0  0  0
   -4.6566   -2.1858    0.1197 H   0  0  0  0  0  0  0  0  0  0  0  0
   -3.2820   -3.0097   -0.7113 H   0  0  0  0  0  0  0  0  0  0  0  0
   -0.8549   -2.1981    0.3784 H   0  0  0  0  0  0  0  0  0  0  0  0
  1  2  1  0
  2  3  1  0
  3  4  1  0
  4  5  1  0
  5  6  1  0
  6  7  2  0
  7  8  1  0
  8  9  1  0
  8 10  2  0
 10 11  1  0
 11 12  1  0
 11 13  2  0
 13  6  1  0
  1 14  1  0
  1 15  1  0
  1 16  1  0
  3 17  1  0
  3 18  1  0
  4 19  1  0
  4 20  1  0
  9 21  1  0
  9 22  1  0
 12 23  1  0
 12 24  1  0
 12 25  1  0
 13 26  1  0
M  END
$$$$
