
     RDKit          3D

 54 57  0  0  0  0  0  0  0  0999 V2000
    7.9584    1.6215   -1.8500 C   0  0  0  0  0  0  0  0  0  0  0  0
    7.4652    0.5538   -1.0697 O   0  0  0  0  0  0  0  0  0  0  0  0
    6.0761    0.7074   -0.8284 C   0  0  1  0  0  0  0  0  0  0  0  0
    5.2820   -0.1427   -1.8389 C   0  0  0  0  0  0  0  0  0  0  0  0
    3.7954    0.0932   -1.7247 C   0  0  0  0  0  0  0  0  0  0  0  0
    2.9883   -0.7739   -0.9647 C   0  0  0  0  0  0  0  0  0  0  0  0
    1.6090   -0.5363   -0.8267 C   0  0  0  0  0  0  0  0  0  0  0  0
    1.0043    0.5830   -1.4424 C   0  0  0  0  0  0  0  0  0  0  0  0
   -0.3672    0.8575   -1.3286 O   0  0  0  0  0  0  0  0  0  0  0  0
   -1.2896    0.0563   -0.5958 C   0  0  0  0  0  0  0  0  0  0  0  0
   -2.6838    0.6656   -0.7035 C   0  0  0  0  0  0  0  0  0  0  0  0
   -3.6789   -0.1551    0.0600 C   0  0  0  0  0  0  0  0  0  0  0  0
   -4.4036   -1.2305   -0.4097 C   0  0  0  0  0  0  0  0  0  0  0  0
   -4.4130   -1.7838   -1.7966 C   0  0  0  0  0  0  0  0  0  0  0  0
   -5.1077   -1.7064    0.5856 O   0  0  0  0  0  0  0  0  0  0  0  0
   -4.8301   -0.9691    1.6406 C   0  0  0  0  0  0  0  0  0  0  0  0
   -3.9370    0.0105    1.3713 N   0  0  0  0  0  0  0  0  0  0  0  0
   -5.4258   -1.1920    2.9734 C   0  0  0  0  0  0  0  0  0  0  0  0
   -5.0814   -0.3681    4.0600 C   0  0  0  0  0  0  0  0  0  0  0  0
   -5.6500   -0.5864    5.3190 C   0  0  0  0  0  0  0  0  0  0  0  0
   -6.5647   -1.6260    5.5043 C   0  0  0  0  0  0  0  0  0  0  0  0
   -6.9129   -2.4495    4.4309 C   0  0  0  0  0  0  0  0  0  0  0  0
   -6.3472   -2.2354    3.1699 C   0  0  0  0  0  0  0  0  0  0  0  0
    1.8160    1.4451   -2.1903 C   0  0  0  0  0  0  0  0  0  0  0  0
    3.1766    1.1995   -2.3207 C   0  0  0  0  0  0  0  0  0  0  0  0
    3.8631    2.4126   -3.2633 S   0  0  0  0  0  0  0  0  0  0  0  0
    2.4263    3.2623   -3.5149 C   0  0  0  0  0  0  0  0  0  0  0  0
    1.3908    2.6014   -2.8595 C   0  0  0  0  0  0  0  0  0  0  0  0
    5.7846    0.2559    0.5741 C   0  0  0  0  0  0  0  0  0  0  0  0
    4.9172    0.9948    1.3730 O   0  0  0  0  0  0  0  0  0  0  0  0
    6.2924   -0.8094    1.0176 O   0  0  0  0  0  0  0  0  0  0  0  0
    9.0189    1.4161   -2.1021 H   0  0  0  0  0  0  0  0  0  0  0  0
    7.9247    2.5744   -1.2773 H   0  0  0  0  0  0  0  0  0  0  0  0
    7.3973    1.7243   -2.8052 H   0  0  0  0  0  0  0  0  0  0  0  0
    5.7423    1.7717   -0.9039 H   0  0  0  0  0  0  0  0  0  0  0  0
    5.5140   -1.2207   -1.6903 H   0  0  0  0  0  0  0  0  0  0  0  0
    5.6080    0.1040   -2.8716 H   0  0  0  0  0  0  0  0  0  0  0  0
    3.4262   -1.6336   -0.4729 H   0  0  0  0  0  0  0  0  0  0  0  0
    1.0244   -1.2276   -0.2354 H   0  0  0  0  0  0  0  0  0  0  0  0
   -1.3000   -0.9738   -1.0145 H   0  0  0  0  0  0  0  0  0  0  0  0
   -0.9824    0.0196    0.4726 H   0  0  0  0  0  0  0  0  0  0  0  0
   -2.9838    0.7270   -1.7717 H   0  0  0  0  0  0  0  0  0  0  0  0
   -2.6688    1.6977   -0.2916 H   0  0  0  0  0  0  0  0  0  0  0  0
   -3.3832   -2.0711   -2.0939 H   0  0  0  0  0  0  0  0  0  0  0  0
   -5.0650   -2.6810   -1.8416 H   0  0  0  0  0  0  0  0  0  0  0  0
   -4.8010   -1.0191   -2.5011 H   0  0  0  0  0  0  0  0  0  0  0  0
   -4.3745    0.4429    3.9376 H   0  0  0  0  0  0  0  0  0  0  0  0
   -5.3810    0.0510    6.1514 H   0  0  0  0  0  0  0  0  0  0  0  0
   -7.0036   -1.7933    6.4794 H   0  0  0  0  0  0  0  0  0  0  0  0
   -7.6217   -3.2547    4.5756 H   0  0  0  0  0  0  0  0  0  0  0  0
   -6.6296   -2.8845    2.3503 H   0  0  0  0  0  0  0  0  0  0  0  0
    2.3243    4.1723   -4.0902 H   0  0  0  0  0  0  0  0  0  0  0  0
    0.3670    2.9523   -2.8694 H   0  0  0  0  0  0  0  0  0  0  0  0
    4.6943    0.6939    2.3142 H   0  0  0  0  0  0  0  0  0  0  0  0
  1  2  1  0
  2  3  1  0
  3  4  1  0
  4  5  1  0
  5  6  2  0
  6  7  1  0
  7  8  2  0
  8  9  1  0
  9 10  1  0
 10 11  1  0
 11 12  1  0
 12 13  2  0
 13 14  1  0
 13 15  1  0
 15 16  1  0
 16 17  2  0
 16 18  1  0
 18 19  2  0
 19 20  1  0
 20 21  2  0
 21 22  1  0
 22 23  2  0
  8 24  1  0
 24 25  2  0
 25 26  1  0
 26 27  1  0
 27 28  2  0
  3 29  1  0
 29 30  1  0
 29 31  2  0
 25  5  1  0
 17 12  1  0
 23 18  1  0
 28 24  1  0
  1 32  1  0
  1 33  1  0
  1 34  1  0
  3 35  1  1
  4 36  1  0
  4 37  1  0
  6 38  1  0
  7 39  1  0
 10 40  1  0
 10 41  1  0
 11 42  1  0
 11 43  1  0
 14 44  1  0
 14 45  1  0
 14 46  1  0
 19 47  1  0
 20 48  1  0
 21 49  1  0
 22 50  1  0
 23 51  1  0
 27 52  1  0
 28 53  1  0
 30 54  1  0
M  END
$$$$
