
     RDKit          3D

 45 47  0  0  0  0  0  0  0  0999 V2000
    5.3417    2.0148    1.4452 C   0  0  0  0  0  0  0  0  0  0  0  0
    5.8343    0.6872    0.8709 C   0  0  0  0  0  0  0  0  0  0  0  0
    4.9660   -0.4942    1.3229 C   0  0  0  0  0  0  0  0  0  0  0  0
    3.6396   -0.4579    0.7046 N   0  0  0  0  0  0  0  0  0  0  0  0
    2.6433   -1.4422    1.0173 C   0  0  0  0  0  0  0  0  0  0  0  0
    2.9112   -2.3632    1.8363 O   0  0  0  0  0  0  0  0  0  0  0  0
    1.2893   -1.3402    0.4259 C   0  0  0  0  0  0  0  0  0  0  0  0
    0.4528   -2.4617    0.2161 C   0  0  0  0  0  0  0  0  0  0  0  0
    0.9412   -3.7900    0.4631 N   0  0  0  0  0  0  0  0  0  0  0  0
   -0.8537   -2.2486   -0.2862 C   0  0  0  0  0  0  0  0  0  0  0  0
   -1.7388   -3.3092   -0.5709 C   0  0  0  0  0  0  0  0  0  0  0  0
   -3.0139   -3.0520   -1.0771 C   0  0  0  0  0  0  0  0  0  0  0  0
   -3.4282   -1.7424   -1.3132 C   0  0  0  0  0  0  0  0  0  0  0  0
   -2.5671   -0.6680   -1.0520 C   0  0  0  0  0  0  0  0  0  0  0  0
   -1.2731   -0.9238   -0.5508 C   0  0  0  0  0  0  0  0  0  0  0  0
   -0.4060    0.1004   -0.3473 N   0  0  0  0  0  0  0  0  0  0  0  0
    0.8224   -0.1012    0.1223 N   0  0  0  0  0  0  0  0  0  0  0  0
   -3.0328    0.7149   -1.3132 C   0  0  0  0  0  0  0  0  0  0  0  0
   -3.3842    1.0991   -2.6205 C   0  0  0  0  0  0  0  0  0  0  0  0
   -3.2841    0.2188   -3.6492 F   0  0  0  0  0  0  0  0  0  0  0  0
   -3.8207    2.4003   -2.8783 C   0  0  0  0  0  0  0  0  0  0  0  0
   -3.9142    3.3267   -1.8400 C   0  0  0  0  0  0  0  0  0  0  0  0
   -3.5759    2.9567   -0.5368 C   0  0  0  0  0  0  0  0  0  0  0  0
   -3.1374    1.6468   -0.2582 C   0  0  0  0  0  0  0  0  0  0  0  0
   -2.8119    1.2371    1.0458 O   0  0  0  0  0  0  0  0  0  0  0  0
   -2.8558    2.0794    2.1926 C   0  0  0  0  0  0  0  0  0  0  0  0
    5.3473    1.9806    2.5554 H   0  0  0  0  0  0  0  0  0  0  0  0
    6.0144    2.8335    1.1135 H   0  0  0  0  0  0  0  0  0  0  0  0
    4.3137    2.2400    1.0917 H   0  0  0  0  0  0  0  0  0  0  0  0
    5.8503    0.7423   -0.2393 H   0  0  0  0  0  0  0  0  0  0  0  0
    6.8765    0.5178    1.2180 H   0  0  0  0  0  0  0  0  0  0  0  0
    4.8642   -0.4821    2.4302 H   0  0  0  0  0  0  0  0  0  0  0  0
    5.4723   -1.4402    1.0329 H   0  0  0  0  0  0  0  0  0  0  0  0
    3.4161    0.2783   -0.0030 H   0  0  0  0  0  0  0  0  0  0  0  0
    0.3171   -4.5484    0.8135 H   0  0  0  0  0  0  0  0  0  0  0  0
    1.9452   -4.0307    0.3114 H   0  0  0  0  0  0  0  0  0  0  0  0
   -1.4598   -4.3421   -0.4255 H   0  0  0  0  0  0  0  0  0  0  0  0
   -3.6848   -3.8743   -1.2901 H   0  0  0  0  0  0  0  0  0  0  0  0
   -4.4248   -1.5644   -1.6988 H   0  0  0  0  0  0  0  0  0  0  0  0
   -4.0842    2.6931   -3.8866 H   0  0  0  0  0  0  0  0  0  0  0  0
   -4.2519    4.3345   -2.0450 H   0  0  0  0  0  0  0  0  0  0  0  0
   -3.6643    3.6953    0.2479 H   0  0  0  0  0  0  0  0  0  0  0  0
   -3.8906    2.4468    2.3573 H   0  0  0  0  0  0  0  0  0  0  0  0
   -2.5401    1.4964    3.0819 H   0  0  0  0  0  0  0  0  0  0  0  0
   -2.1605    2.9356    2.0639 H   0  0  0  0  0  0  0  0  0  0  0  0
  1  2  1  0
  2  3  1  0
  3  4  1  0
  4  5  1  0
  5  6  2  0
  5  7  1  0
  7  8  2  0
  8  9  1  0
  8 10  1  0
 10 11  2  0
 11 12  1  0
 12 13  2  0
 13 14  1  0
 14 15  2  0
 15 16  1  0
 16 17  2  0
 14 18  1  0
 18 19  2  0
 19 20  1  0
 19 21  1  0
 21 22  2  0
 22 23  1  0
 23 24  2  0
 24 25  1  0
 25 26  1  0
 17  7  1  0
 24 18  1  0
 15 10  1  0
  1 27  1  0
  1 28  1  0
  1 29  1  0
  2 30  1  0
  2 31  1  0
  3 32  1  0
  3 33  1  0
  4 34  1  0
  9 35  1  0
  9 36  1  0
 11 37  1  0
 12 38  1  0
 13 39  1  0
 21 40  1  0
 22 41  1  0
 23 42  1  0
 26 43  1  0
 26 44  1  0
 26 45  1  0
M  END
$$$$
