
     RDKit          3D

 66 69  0  0  0  0  0  0  0  0999 V2000
    2.4856    3.5417    2.8427 O   0  0  0  0  0  0  0  0  0  0  0  0
    2.9247    3.3314    1.5381 C   0  0  0  0  0  0  0  0  0  0  0  0
    2.1193    3.4974    0.5837 O   0  0  0  0  0  0  0  0  0  0  0  0
    4.3393    2.9615    1.2845 C   0  0  0  0  0  0  0  0  0  0  0  0
    5.3049    3.3690    2.2210 C   0  0  0  0  0  0  0  0  0  0  0  0
    6.6576    3.1114    2.0093 C   0  0  0  0  0  0  0  0  0  0  0  0
    7.0701    2.4337    0.8658 C   0  0  0  0  0  0  0  0  0  0  0  0
    6.1350    1.9878   -0.0713 C   0  0  0  0  0  0  0  0  0  0  0  0
    6.6068    1.2683   -1.1723 O   0  0  0  0  0  0  0  0  0  0  0  0
    4.7556    2.2465    0.1261 C   0  0  0  0  0  0  0  0  0  0  0  0
    3.7697    1.7246   -0.8487 C   0  0  0  0  0  0  0  0  0  0  0  0
    3.8153    2.1544   -2.0333 O   0  0  0  0  0  0  0  0  0  0  0  0
    2.7331    0.7238   -0.4643 C   0  0  0  0  0  0  0  0  0  0  0  0
    1.4789    0.7191   -1.1145 C   0  0  0  0  0  0  0  0  0  0  0  0
    1.1894    1.6643   -2.0995 O   0  0  0  0  0  0  0  0  0  0  0  0
    0.5052   -0.2241   -0.7625 C   0  0  0  0  0  0  0  0  0  0  0  0
    0.7478   -1.1645    0.2482 C   0  0  0  0  0  0  0  0  0  0  0  0
    1.9892   -1.1593    0.8989 C   0  0  0  0  0  0  0  0  0  0  0  0
    2.9824   -0.2364    0.5437 C   0  0  0  0  0  0  0  0  0  0  0  0
    4.2210   -0.2916    1.1832 O   0  0  0  0  0  0  0  0  0  0  0  0
   -0.3057   -2.1273    0.6347 C   0  0  0  0  0  0  0  0  0  0  0  0
   -0.1724   -2.8342    1.6714 O   0  0  0  0  0  0  0  0  0  0  0  0
   -1.4655   -2.2260   -0.1420 O   0  0  0  0  0  0  0  0  0  0  0  0
   -2.6679   -2.8677    0.2913 C   0  0  2  0  0  0  0  0  0  0  0  0
   -2.5259   -4.3928    0.0979 C   0  0  0  0  0  0  0  0  0  0  0  0
   -3.8432   -5.1685    0.2378 C   0  0  0  0  0  0  0  0  0  0  0  0
   -4.6087   -5.2471   -1.0897 C   0  0  0  0  0  0  0  0  0  0  0  0
   -5.2808   -3.9836   -1.4101 N   0  0  0  0  0  0  0  0  0  0  0  0
   -4.3327   -2.9014   -1.7142 C   0  0  0  0  0  0  0  0  0  0  0  0
   -3.8859   -2.1960   -0.4145 C   0  0  2  0  0  0  0  0  0  0  0  0
   -3.5769   -0.7852   -0.6933 N   0  0  0  0  0  0  0  0  0  0  0  0
   -3.3876    0.1728    0.3625 C   0  0  0  0  0  0  0  0  0  0  0  0
   -3.7839   -0.0986    1.5290 O   0  0  0  0  0  0  0  0  0  0  0  0
   -2.6741    1.4482    0.1185 C   0  0  0  0  0  0  0  0  0  0  0  0
   -1.9237    2.0361    1.1526 C   0  0  0  0  0  0  0  0  0  0  0  0
   -1.2190    3.2225    0.9312 C   0  0  0  0  0  0  0  0  0  0  0  0
   -1.2575    3.8404   -0.3245 C   0  0  0  0  0  0  0  0  0  0  0  0
   -0.5564    5.0213   -0.5577 O   0  0  0  0  0  0  0  0  0  0  0  0
   -2.0098    3.2692   -1.3543 C   0  0  0  0  0  0  0  0  0  0  0  0
   -2.7169    2.0828   -1.1367 C   0  0  0  0  0  0  0  0  0  0  0  0
    1.5281    3.8111    3.0334 H   0  0  0  0  0  0  0  0  0  0  0  0
    5.0159    3.9146    3.1109 H   0  0  0  0  0  0  0  0  0  0  0  0
    7.3904    3.4431    2.7337 H   0  0  0  0  0  0  0  0  0  0  0  0
    8.1237    2.2359    0.7142 H   0  0  0  0  0  0  0  0  0  0  0  0
    5.9996    0.8555   -1.8683 H   0  0  0  0  0  0  0  0  0  0  0  0
    0.2947    1.6827   -2.5748 H   0  0  0  0  0  0  0  0  0  0  0  0
   -0.4509   -0.2049   -1.2707 H   0  0  0  0  0  0  0  0  0  0  0  0
    2.1970   -1.8825    1.6780 H   0  0  0  0  0  0  0  0  0  0  0  0
    4.4199   -0.9736    1.9057 H   0  0  0  0  0  0  0  0  0  0  0  0
   -2.7950   -2.6774    1.3817 H   0  0  0  0  0  0  0  0  0  0  0  0
   -2.0480   -4.6111   -0.8821 H   0  0  0  0  0  0  0  0  0  0  0  0
   -1.8230   -4.7707    0.8716 H   0  0  0  0  0  0  0  0  0  0  0  0
   -4.4827   -4.7288    1.0342 H   0  0  0  0  0  0  0  0  0  0  0  0
   -3.5996   -6.2081    0.5485 H   0  0  0  0  0  0  0  0  0  0  0  0
   -5.3856   -6.0358   -0.9846 H   0  0  0  0  0  0  0  0  0  0  0  0
   -3.9408   -5.5661   -1.9217 H   0  0  0  0  0  0  0  0  0  0  0  0
   -5.8561   -4.1532   -2.2687 H   0  0  0  0  0  0  0  0  0  0  0  0
   -3.4627   -3.2581   -2.3098 H   0  0  0  0  0  0  0  0  0  0  0  0
   -4.8621   -2.1584   -2.3529 H   0  0  0  0  0  0  0  0  0  0  0  0
   -4.7530   -2.2203    0.2844 H   0  0  0  0  0  0  0  0  0  0  0  0
   -3.2714   -0.5358   -1.6604 H   0  0  0  0  0  0  0  0  0  0  0  0
   -1.8674    1.5680    2.1276 H   0  0  0  0  0  0  0  0  0  0  0  0
   -0.6425    3.6595    1.7358 H   0  0  0  0  0  0  0  0  0  0  0  0
   -0.0052    5.4621    0.1695 H   0  0  0  0  0  0  0  0  0  0  0  0
   -2.0494    3.7475   -2.3247 H   0  0  0  0  0  0  0  0  0  0  0  0
   -3.3103    1.6809   -1.9466 H   0  0  0  0  0  0  0  0  0  0  0  0
  1  2  1  0
  2  3  2  0
  2  4  1  0
  4  5  2  0
  5  6  1  0
  6  7  2  0
  7  8  1  0
  8  9  1  0
  8 10  2  0
 10 11  1  0
 11 12  2  0
 11 13  1  0
 13 14  2  0
 14 15  1  0
 14 16  1  0
 16 17  2  0
 17 18  1  0
 18 19  2  0
 19 20  1  0
 17 21  1  0
 21 22  2  0
 21 23  1  0
 23 24  1  0
 24 25  1  0
 25 26  1  0
 26 27  1  0
 27 28  1  0
 28 29  1  0
 29 30  1  0
 30 31  1  0
 31 32  1  0
 32 33  2  0
 32 34  1  0
 34 35  2  0
 35 36  1  0
 36 37  2  0
 37 38  1  0
 37 39  1  0
 39 40  2  0
 10  4  1  0
 19 13  1  0
 30 24  1  0
 40 34  1  0
  1 41  1  0
  5 42  1  0
  6 43  1  0
  7 44  1  0
  9 45  1  0
 15 46  1  0
 16 47  1  0
 18 48  1  0
 20 49  1  0
 24 50  1  1
 25 51  1  0
 25 52  1  0
 26 53  1  0
 26 54  1  0
 27 55  1  0
 27 56  1  0
 28 57  1  0
 29 58  1  0
 29 59  1  0
 30 60  1  1
 31 61  1  0
 35 62  1  0
 36 63  1  0
 38 64  1  0
 39 65  1  0
 40 66  1  0
M  END
$$$$
