
     RDKit          3D

 47 49  0  0  0  0  0  0  0  0999 V2000
   -3.4513   -1.9881    0.7495 C   0  0  2  0  0  0  0  0  0  0  0  0
   -4.0463   -3.3932    0.9388 C   0  0  0  0  0  0  0  0  0  0  0  0
   -3.4284   -4.0619    2.0811 N   0  0  0  0  0  0  0  0  0  0  0  0
   -4.1966   -1.2330   -0.3694 C   0  0  0  0  0  0  0  0  0  0  0  0
   -3.6419    0.1615   -0.5612 C   0  0  0  0  0  0  0  0  0  0  0  0
   -2.6966    0.4622   -1.5704 C   0  0  0  0  0  0  0  0  0  0  0  0
   -2.1512   -0.7407   -2.7353 Cl  0  0  0  0  0  0  0  0  0  0  0  0
   -2.1534    1.7499   -1.6557 C   0  0  0  0  0  0  0  0  0  0  0  0
   -2.5382    2.7419   -0.7501 C   0  0  0  0  0  0  0  0  0  0  0  0
   -1.8430    4.3484   -0.8608 Cl  0  0  0  0  0  0  0  0  0  0  0  0
   -3.4720    2.4517    0.2466 C   0  0  0  0  0  0  0  0  0  0  0  0
   -4.0185    1.1701    0.3430 C   0  0  0  0  0  0  0  0  0  0  0  0
   -2.0229   -2.0863    0.4260 N   0  0  0  0  0  0  0  0  0  0  0  0
   -1.0556   -1.1543    0.9393 C   0  0  0  0  0  0  0  0  0  0  0  0
   -1.3452   -0.4320    1.9313 O   0  0  0  0  0  0  0  0  0  0  0  0
    0.2692   -0.9979    0.3107 C   0  0  0  0  0  0  0  0  0  0  0  0
    0.7837   -1.7128   -0.7687 C   0  0  0  0  0  0  0  0  0  0  0  0
    2.0644   -1.2973   -1.1550 C   0  0  0  0  0  0  0  0  0  0  0  0
    2.5675   -0.2497   -0.3839 C   0  0  0  0  0  0  0  0  0  0  0  0
    1.4102    0.1493    0.7718 S   0  0  0  0  0  0  0  0  0  0  0  0
    3.8731    0.4273   -0.5275 C   0  0  0  0  0  0  0  0  0  0  0  0
    4.8080    0.0437   -1.5007 C   0  0  0  0  0  0  0  0  0  0  0  0
    6.0181    0.7327   -1.5736 C   0  0  0  0  0  0  0  0  0  0  0  0
    6.2733    1.7520   -0.7143 N   0  0  0  0  0  0  0  0  0  0  0  0
    5.3631    2.1178    0.2259 C   0  0  0  0  0  0  0  0  0  0  0  0
    5.6581    3.1969    1.1190 N   0  0  0  0  0  0  0  0  0  0  0  0
    4.7159    3.6305    2.1432 C   0  0  0  0  0  0  0  0  0  0  0  0
    4.1775    1.4553    0.3102 N   0  0  0  0  0  0  0  0  0  0  0  0
   -3.5956   -1.4354    1.7047 H   0  0  0  0  0  0  0  0  0  0  0  0
   -5.1396   -3.3043    1.1254 H   0  0  0  0  0  0  0  0  0  0  0  0
   -3.9025   -4.0029    0.0181 H   0  0  0  0  0  0  0  0  0  0  0  0
   -2.4570   -4.3425    1.8135 H   0  0  0  0  0  0  0  0  0  0  0  0
   -3.9532   -4.9502    2.2515 H   0  0  0  0  0  0  0  0  0  0  0  0
   -5.2738   -1.1550   -0.1027 H   0  0  0  0  0  0  0  0  0  0  0  0
   -4.1550   -1.8147   -1.3140 H   0  0  0  0  0  0  0  0  0  0  0  0
   -1.4255    1.9785   -2.4241 H   0  0  0  0  0  0  0  0  0  0  0  0
   -3.7695    3.2162    0.9530 H   0  0  0  0  0  0  0  0  0  0  0  0
   -4.7279    0.9584    1.1336 H   0  0  0  0  0  0  0  0  0  0  0  0
   -1.7486   -2.7406   -0.3391 H   0  0  0  0  0  0  0  0  0  0  0  0
    0.2625   -2.5103   -1.2782 H   0  0  0  0  0  0  0  0  0  0  0  0
    2.5920   -1.7558   -1.9791 H   0  0  0  0  0  0  0  0  0  0  0  0
    4.6184   -0.7664   -2.1905 H   0  0  0  0  0  0  0  0  0  0  0  0
    6.7562    0.4567   -2.3149 H   0  0  0  0  0  0  0  0  0  0  0  0
    6.5757    3.6900    1.0351 H   0  0  0  0  0  0  0  0  0  0  0  0
    5.1467    4.4773    2.7179 H   0  0  0  0  0  0  0  0  0  0  0  0
    4.5060    2.7926    2.8409 H   0  0  0  0  0  0  0  0  0  0  0  0
    3.7695    3.9639    1.6674 H   0  0  0  0  0  0  0  0  0  0  0  0
  1  2  1  0
  2  3  1  0
  1  4  1  0
  4  5  1  0
  5  6  2  0
  6  7  1  0
  6  8  1  0
  8  9  2  0
  9 10  1  0
  9 11  1  0
 11 12  2  0
  1 13  1  0
 13 14  1  0
 14 15  2  0
 14 16  1  0
 16 17  2  0
 17 18  1  0
 18 19  2  0
 19 20  1  0
 19 21  1  0
 21 22  2  0
 22 23  1  0
 23 24  2  0
 24 25  1  0
 25 26  1  0
 26 27  1  0
 25 28  2  0
 12  5  1  0
 20 16  1  0
 28 21  1  0
  1 29  1  1
  2 30  1  0
  2 31  1  0
  3 32  1  0
  3 33  1  0
  4 34  1  0
  4 35  1  0
  8 36  1  0
 11 37  1  0
 12 38  1  0
 13 39  1  0
 17 40  1  0
 18 41  1  0
 22 42  1  0
 23 43  1  0
 26 44  1  0
 27 45  1  0
 27 46  1  0
 27 47  1  0
M  END
$$$$
