
     RDKit          3D

137141  0  0  0  0  0  0  0  0999 V2000
   -3.0968    1.8679   -1.2936 C   0  0  2  0  0  0  0  0  0  0  0  0
   -2.2535    1.0083   -0.4509 N   0  0  0  0  0  0  0  0  0  0  0  0
   -2.4281   -0.4139   -0.3787 C   0  0  0  0  0  0  0  0  0  0  0  0
   -2.5692   -0.9436    0.7549 O   0  0  0  0  0  0  0  0  0  0  0  0
   -2.3945   -1.2741   -1.6274 C   0  0  2  0  0  0  0  0  0  0  0  0
   -3.4271   -2.4273   -1.6180 C   0  0  0  0  0  0  0  0  0  0  0  0
   -4.8849   -1.9275   -1.7343 C   0  0  0  0  0  0  0  0  0  0  0  0
   -5.5159   -2.1480   -3.1221 C   0  0  0  0  0  0  0  0  0  0  0  0
   -4.9859   -1.2018   -4.2140 C   0  0  0  0  0  0  0  0  0  0  0  0
   -3.9254   -1.8383   -4.9920 N   0  0  0  0  0  0  0  0  0  0  0  0
   -1.0334   -1.7545   -1.9178 N   0  0  0  0  0  0  0  0  0  0  0  0
   -0.3653   -2.8994   -1.3521 C   0  0  0  0  0  0  0  0  0  0  0  0
    0.4287   -3.5470   -2.0874 O   0  0  0  0  0  0  0  0  0  0  0  0
   -0.4692   -3.2659    0.1111 C   0  0  1  0  0  0  0  0  0  0  0  0
   -0.3140   -4.7828    0.3592 C   0  0  0  0  0  0  0  0  0  0  0  0
   -0.3257   -5.1096    1.8286 C   0  0  0  0  0  0  0  0  0  0  0  0
   -1.2976   -4.7403    2.7562 C   0  0  0  0  0  0  0  0  0  0  0  0
   -0.9561   -5.1649    3.9937 N   0  0  0  0  0  0  0  0  0  0  0  0
    0.2172   -5.8056    3.8563 C   0  0  0  0  0  0  0  0  0  0  0  0
    0.6303   -5.8019    2.5482 C   0  0  0  0  0  0  0  0  0  0  0  0
    1.8172   -6.4210    2.1538 C   0  0  0  0  0  0  0  0  0  0  0  0
    2.5991   -7.0373    3.1471 C   0  0  0  0  0  0  0  0  0  0  0  0
    2.1790   -7.0303    4.4952 C   0  0  0  0  0  0  0  0  0  0  0  0
    0.9703   -6.4109    4.8614 C   0  0  0  0  0  0  0  0  0  0  0  0
    0.4809   -2.4769    0.9072 N   0  0  0  0  0  0  0  0  0  0  0  0
    1.9125   -2.6544    0.8848 C   0  0  0  0  0  0  0  0  0  0  0  0
    2.4400   -3.3590   -0.0169 O   0  0  0  0  0  0  0  0  0  0  0  0
    2.8137   -1.9815    1.9047 C   0  0  2  0  0  0  0  0  0  0  0  0
    3.7058   -3.0113    2.6328 C   0  0  0  0  0  0  0  0  0  0  0  0
    4.9580   -3.3398    1.8582 C   0  0  0  0  0  0  0  0  0  0  0  0
    5.0595   -4.5341    1.1260 C   0  0  0  0  0  0  0  0  0  0  0  0
    6.2315   -4.8346    0.4257 C   0  0  0  0  0  0  0  0  0  0  0  0
    7.3115   -3.9489    0.4550 C   0  0  0  0  0  0  0  0  0  0  0  0
    7.2172   -2.7556    1.1760 C   0  0  0  0  0  0  0  0  0  0  0  0
    6.0435   -2.4473    1.8698 C   0  0  0  0  0  0  0  0  0  0  0  0
    2.0223   -1.2576    2.9059 N   0  0  0  0  0  0  0  0  0  0  0  0
    1.9274    0.1737    3.0181 C   0  0  0  0  0  0  0  0  0  0  0  0
    1.3414    0.6503    4.0281 O   0  0  0  0  0  0  0  0  0  0  0  0
    2.5392    1.1142    1.9890 C   0  0  2  0  0  0  0  0  0  0  0  0
    2.2623    2.6033    2.2842 C   0  0  0  0  0  0  0  0  0  0  0  0
    0.4693    2.9770    2.2474 S   0  0  0  0  0  0  0  0  0  0  0  0
    0.7033    4.9811    1.5377 S   0  0  0  0  0  0  0  0  0  0  0  0
    0.4238    4.5310   -0.2132 C   0  0  0  0  0  0  0  0  0  0  0  0
   -1.0601    4.2380   -0.5001 C   0  0  2  0  0  0  0  0  0  0  0  0
   -1.1976    3.6065   -1.8162 N   0  0  0  0  0  0  0  0  0  0  0  0
   -2.2491    2.7110   -2.2331 C   0  0  0  0  0  0  0  0  0  0  0  0
   -2.4564    2.5842   -3.4705 O   0  0  0  0  0  0  0  0  0  0  0  0
   -1.8693    5.5070   -0.4502 C   0  0  0  0  0  0  0  0  0  0  0  0
   -1.8955    6.2718   -1.4534 O   0  0  0  0  0  0  0  0  0  0  0  0
   -2.5633    5.8687    0.7533 N   0  0  0  0  0  0  0  0  0  0  0  0
   -3.2849    7.1368    0.8961 C   0  0  2  0  0  0  0  0  0  0  0  0
   -2.2927    8.2156    1.3798 C   0  0  0  0  0  0  0  0  0  0  0  0
   -2.7802    9.5055    1.1249 O   0  0  0  0  0  0  0  0  0  0  0  0
   -4.4841    6.9435    1.8623 C   0  0  1  0  0  0  0  0  0  0  0  0
   -5.3504    8.2005    1.9817 C   0  0  0  0  0  0  0  0  0  0  0  0
   -5.2984    5.8977    1.3944 O   0  0  0  0  0  0  0  0  0  0  0  0
    2.0738    0.7877    0.6353 N   0  0  0  0  0  0  0  0  0  0  0  0
    2.8019    1.1921   -0.5388 C   0  0  0  0  0  0  0  0  0  0  0  0
    3.9426    1.7174   -0.4212 O   0  0  0  0  0  0  0  0  0  0  0  0
    2.2450    0.9672   -1.9235 C   0  0  2  0  0  0  0  0  0  0  0  0
    0.8337    1.3503   -1.9702 N   0  0  0  0  0  0  0  0  0  0  0  0
    2.4391   -0.4945   -2.3759 C   0  0  0  0  0  0  0  0  0  0  0  0
    3.8677   -0.7647   -2.7726 C   0  0  0  0  0  0  0  0  0  0  0  0
    4.7862   -1.2799   -1.8429 C   0  0  0  0  0  0  0  0  0  0  0  0
    6.1183   -1.4893   -2.2137 C   0  0  0  0  0  0  0  0  0  0  0  0
    6.5429   -1.1858   -3.5094 C   0  0  0  0  0  0  0  0  0  0  0  0
    5.6373   -0.6662   -4.4373 C   0  0  0  0  0  0  0  0  0  0  0  0
    4.3056   -0.4512   -4.0708 C   0  0  0  0  0  0  0  0  0  0  0  0
   -4.1078    2.6693   -0.4393 C   0  0  1  0  0  0  0  0  0  0  0  0
   -5.0017    3.5631   -1.3099 C   0  0  0  0  0  0  0  0  0  0  0  0
   -4.9155    1.7628    0.2682 O   0  0  0  0  0  0  0  0  0  0  0  0
   -3.7278    1.2202   -1.9389 H   0  0  0  0  0  0  0  0  0  0  0  0
   -1.7270    1.4386    0.3387 H   0  0  0  0  0  0  0  0  0  0  0  0
   -2.6696   -0.6202   -2.4767 H   0  0  0  0  0  0  0  0  0  0  0  0
   -3.3395   -3.0124   -0.6815 H   0  0  0  0  0  0  0  0  0  0  0  0
   -3.1971   -3.1397   -2.4393 H   0  0  0  0  0  0  0  0  0  0  0  0
   -4.9783   -0.8600   -1.4401 H   0  0  0  0  0  0  0  0  0  0  0  0
   -5.4996   -2.4976   -1.0032 H   0  0  0  0  0  0  0  0  0  0  0  0
   -5.4046   -3.2099   -3.4337 H   0  0  0  0  0  0  0  0  0  0  0  0
   -6.6080   -1.9653   -3.0164 H   0  0  0  0  0  0  0  0  0  0  0  0
   -4.6334   -0.2381   -3.7860 H   0  0  0  0  0  0  0  0  0  0  0  0
   -5.8264   -0.9621   -4.9025 H   0  0  0  0  0  0  0  0  0  0  0  0
   -3.0450   -1.8343   -4.4320 H   0  0  0  0  0  0  0  0  0  0  0  0
   -3.7390   -1.2372   -5.8272 H   0  0  0  0  0  0  0  0  0  0  0  0
   -0.5944   -1.3619   -2.7817 H   0  0  0  0  0  0  0  0  0  0  0  0
   -1.4826   -3.0222    0.4586 H   0  0  0  0  0  0  0  0  0  0  0  0
    0.6204   -5.1590   -0.1035 H   0  0  0  0  0  0  0  0  0  0  0  0
   -1.1579   -5.3193   -0.1259 H   0  0  0  0  0  0  0  0  0  0  0  0
   -2.1974   -4.1794    2.5398 H   0  0  0  0  0  0  0  0  0  0  0  0
   -1.4957   -5.0181    4.8756 H   0  0  0  0  0  0  0  0  0  0  0  0
    2.1331   -6.4330    1.1200 H   0  0  0  0  0  0  0  0  0  0  0  0
    3.5290   -7.5199    2.8757 H   0  0  0  0  0  0  0  0  0  0  0  0
    2.7889   -7.5074    5.2511 H   0  0  0  0  0  0  0  0  0  0  0  0
    0.6379   -6.4039    5.8913 H   0  0  0  0  0  0  0  0  0  0  0  0
    0.0628   -1.7653    1.5460 H   0  0  0  0  0  0  0  0  0  0  0  0
    3.4721   -1.2738    1.3634 H   0  0  0  0  0  0  0  0  0  0  0  0
    4.0175   -2.5981    3.6180 H   0  0  0  0  0  0  0  0  0  0  0  0
    3.1260   -3.9326    2.8588 H   0  0  0  0  0  0  0  0  0  0  0  0
    4.2365   -5.2333    1.0991 H   0  0  0  0  0  0  0  0  0  0  0  0
    6.3037   -5.7565   -0.1366 H   0  0  0  0  0  0  0  0  0  0  0  0
    8.2188   -4.1836   -0.0863 H   0  0  0  0  0  0  0  0  0  0  0  0
    8.0516   -2.0664    1.1921 H   0  0  0  0  0  0  0  0  0  0  0  0
    5.9816   -1.5175    2.4219 H   0  0  0  0  0  0  0  0  0  0  0  0
    1.4802   -1.8288    3.5950 H   0  0  0  0  0  0  0  0  0  0  0  0
    3.6400    0.9657    2.0416 H   0  0  0  0  0  0  0  0  0  0  0  0
    2.7999    3.2204    1.5340 H   0  0  0  0  0  0  0  0  0  0  0  0
    2.6643    2.8733    3.2839 H   0  0  0  0  0  0  0  0  0  0  0  0
    0.7790    5.3654   -0.8555 H   0  0  0  0  0  0  0  0  0  0  0  0
    1.0414    3.6418   -0.4573 H   0  0  0  0  0  0  0  0  0  0  0  0
   -1.4156    3.5539    0.2808 H   0  0  0  0  0  0  0  0  0  0  0  0
   -0.6051    3.9998   -2.5836 H   0  0  0  0  0  0  0  0  0  0  0  0
   -2.4251    5.2751    1.6030 H   0  0  0  0  0  0  0  0  0  0  0  0
   -3.6901    7.4347   -0.0972 H   0  0  0  0  0  0  0  0  0  0  0  0
   -2.1105    8.1053    2.4700 H   0  0  0  0  0  0  0  0  0  0  0  0
   -1.3089    8.0876    0.8719 H   0  0  0  0  0  0  0  0  0  0  0  0
   -2.6792    9.6608    0.1495 H   0  0  0  0  0  0  0  0  0  0  0  0
   -4.1024    6.7003    2.8830 H   0  0  0  0  0  0  0  0  0  0  0  0
   -4.8136    8.9965    2.5377 H   0  0  0  0  0  0  0  0  0  0  0  0
   -5.6387    8.5760    0.9766 H   0  0  0  0  0  0  0  0  0  0  0  0
   -6.2758    7.9647    2.5493 H   0  0  0  0  0  0  0  0  0  0  0  0
   -4.9471    5.0541    1.7826 H   0  0  0  0  0  0  0  0  0  0  0  0
    1.1587    0.2977    0.5246 H   0  0  0  0  0  0  0  0  0  0  0  0
    2.7926    1.6347   -2.6282 H   0  0  0  0  0  0  0  0  0  0  0  0
    0.5353    1.3979   -2.9717 H   0  0  0  0  0  0  0  0  0  0  0  0
    0.2514    0.6112   -1.5187 H   0  0  0  0  0  0  0  0  0  0  0  0
    1.7852   -0.7024   -3.2509 H   0  0  0  0  0  0  0  0  0  0  0  0
    2.1194   -1.1894   -1.5720 H   0  0  0  0  0  0  0  0  0  0  0  0
    4.4746   -1.5133   -0.8340 H   0  0  0  0  0  0  0  0  0  0  0  0
    6.8250   -1.8814   -1.4972 H   0  0  0  0  0  0  0  0  0  0  0  0
    7.5747   -1.3486   -3.7928 H   0  0  0  0  0  0  0  0  0  0  0  0
    5.9681   -0.4255   -5.4394 H   0  0  0  0  0  0  0  0  0  0  0  0
    3.6161   -0.0378   -4.7965 H   0  0  0  0  0  0  0  0  0  0  0  0
   -3.5735    3.3126    0.2866 H   0  0  0  0  0  0  0  0  0  0  0  0
   -4.3991    4.3523   -1.8067 H   0  0  0  0  0  0  0  0  0  0  0  0
   -5.5220    2.9582   -2.0830 H   0  0  0  0  0  0  0  0  0  0  0  0
   -5.7663    4.0635   -0.6796 H   0  0  0  0  0  0  0  0  0  0  0  0
   -5.3387    2.2680    1.0113 H   0  0  0  0  0  0  0  0  0  0  0  0
  1  2  1  0
  2  3  1  0
  3  4  2  0
  3  5  1  0
  5  6  1  0
  6  7  1  0
  7  8  1  0
  8  9  1  0
  9 10  1  0
  5 11  1  0
 11 12  1  0
 12 13  2  0
 12 14  1  0
 14 15  1  0
 15 16  1  0
 16 17  2  0
 17 18  1  0
 18 19  1  0
 19 20  2  0
 20 21  1  0
 21 22  2  0
 22 23  1  0
 23 24  2  0
 14 25  1  0
 25 26  1  0
 26 27  2  0
 26 28  1  0
 28 29  1  0
 29 30  1  0
 30 31  2  0
 31 32  1  0
 32 33  2  0
 33 34  1  0
 34 35  2  0
 28 36  1  0
 36 37  1  0
 37 38  2  0
 37 39  1  0
 39 40  1  0
 40 41  1  0
 41 42  1  0
 42 43  1  0
 43 44  1  0
 44 45  1  0
 45 46  1  0
 46 47  2  0
 44 48  1  0
 48 49  2  0
 48 50  1  0
 50 51  1  0
 51 52  1  0
 52 53  1  0
 51 54  1  0
 54 55  1  0
 54 56  1  0
 39 57  1  0
 57 58  1  0
 58 59  2  0
 58 60  1  0
 60 61  1  0
 60 62  1  0
 62 63  1  0
 63 64  2  0
 64 65  1  0
 65 66  2  0
 66 67  1  0
 67 68  2  0
  1 69  1  0
 69 70  1  0
 69 71  1  0
 46  1  1  0
 68 63  1  0
 20 16  1  0
 35 30  1  0
 24 19  1  0
  1 72  1  6
  2 73  1  0
  5 74  1  6
  6 75  1  0
  6 76  1  0
  7 77  1  0
  7 78  1  0
  8 79  1  0
  8 80  1  0
  9 81  1  0
  9 82  1  0
 10 83  1  0
 10 84  1  0
 11 85  1  0
 14 86  1  1
 15 87  1  0
 15 88  1  0
 17 89  1  0
 18 90  1  0
 21 91  1  0
 22 92  1  0
 23 93  1  0
 24 94  1  0
 25 95  1  0
 28 96  1  6
 29 97  1  0
 29 98  1  0
 31 99  1  0
 32100  1  0
 33101  1  0
 34102  1  0
 35103  1  0
 36104  1  0
 39105  1  6
 40106  1  0
 40107  1  0
 43108  1  0
 43109  1  0
 44110  1  1
 45111  1  0
 50112  1  0
 51113  1  6
 52114  1  0
 52115  1  0
 53116  1  0
 54117  1  1
 55118  1  0
 55119  1  0
 55120  1  0
 56121  1  0
 57122  1  0
 60123  1  6
 61124  1  0
 61125  1  0
 62126  1  0
 62127  1  0
 64128  1  0
 65129  1  0
 66130  1  0
 67131  1  0
 68132  1  0
 69133  1  1
 70134  1  0
 70135  1  0
 70136  1  0
 71137  1  0
M  END
$$$$
