
     RDKit          3D

 41 45  0  0  0  0  0  0  0  0999 V2000
   -6.1348    0.6630    1.7112 C   0  0  0  0  0  0  0  0  0  0  0  0
   -7.2518   -0.1383    1.0648 C   0  0  0  0  0  0  0  0  0  0  0  0
   -5.9566   -0.8277    1.4656 C   0  0  0  0  0  0  0  0  0  0  0  0
   -5.0534   -1.1683    0.3213 C   0  0  0  0  0  0  0  0  0  0  0  0
   -5.4201   -1.9383   -0.7238 N   0  0  0  0  0  0  0  0  0  0  0  0
   -4.3578   -2.0911   -1.4974 N   0  0  0  0  0  0  0  0  0  0  0  0
   -3.3190   -1.4304   -0.9578 C   0  0  0  0  0  0  0  0  0  0  0  0
   -1.9917   -1.4616   -1.5021 N   0  0  0  0  0  0  0  0  0  0  0  0
   -0.9472   -0.5455   -1.1427 C   0  0  0  0  0  0  0  0  0  0  0  0
   -1.2181    0.7993   -0.8546 C   0  0  0  0  0  0  0  0  0  0  0  0
   -0.1523    1.6445   -0.5519 C   0  0  0  0  0  0  0  0  0  0  0  0
    1.1167    1.1632   -0.5542 N   0  0  0  0  0  0  0  0  0  0  0  0
    1.3724   -0.1418   -0.8429 C   0  0  0  0  0  0  0  0  0  0  0  0
    2.7186   -0.6362   -0.8840 N   0  0  0  0  0  0  0  0  0  0  0  0
    3.8560    0.0725   -0.3647 C   0  0  0  0  0  0  0  0  0  0  0  0
    5.1027   -0.0550   -1.0171 C   0  0  0  0  0  0  0  0  0  0  0  0
    6.1951    0.6215   -0.4810 C   0  0  0  0  0  0  0  0  0  0  0  0
    6.0898    1.3766    0.6459 C   0  0  0  0  0  0  0  0  0  0  0  0
    7.2847    1.9033    0.9372 N   0  0  0  0  0  0  0  0  0  0  0  0
    8.0948    1.4414   -0.0456 C   0  0  0  0  0  0  0  0  0  0  0  0
    7.4581    0.6436   -0.9434 N   0  0  0  0  0  0  0  0  0  0  0  0
    4.8904    1.5155    1.3370 C   0  0  0  0  0  0  0  0  0  0  0  0
    3.7628    0.8469    0.8254 C   0  0  0  0  0  0  0  0  0  0  0  0
    0.3430   -0.9754   -1.1514 N   0  0  0  0  0  0  0  0  0  0  0  0
   -3.7136   -0.8396    0.2267 C   0  0  0  0  0  0  0  0  0  0  0  0
   -5.6070    1.3439    1.0086 H   0  0  0  0  0  0  0  0  0  0  0  0
   -6.3310    0.9349    2.7698 H   0  0  0  0  0  0  0  0  0  0  0  0
   -7.3836    0.0719   -0.0188 H   0  0  0  0  0  0  0  0  0  0  0  0
   -8.1094   -0.3391    1.7411 H   0  0  0  0  0  0  0  0  0  0  0  0
   -6.0069   -1.4826    2.3609 H   0  0  0  0  0  0  0  0  0  0  0  0
   -4.3464   -2.6534   -2.3769 H   0  0  0  0  0  0  0  0  0  0  0  0
   -1.7538   -2.2415   -2.1552 H   0  0  0  0  0  0  0  0  0  0  0  0
   -2.2247    1.1944   -0.8901 H   0  0  0  0  0  0  0  0  0  0  0  0
   -0.3322    2.6874   -0.3277 H   0  0  0  0  0  0  0  0  0  0  0  0
    2.8883   -1.5318   -1.3956 H   0  0  0  0  0  0  0  0  0  0  0  0
    5.2090   -0.6532   -1.9133 H   0  0  0  0  0  0  0  0  0  0  0  0
    7.5384    2.5244    1.7373 H   0  0  0  0  0  0  0  0  0  0  0  0
    9.1477    1.6822   -0.1097 H   0  0  0  0  0  0  0  0  0  0  0  0
    4.8286    2.1065    2.2416 H   0  0  0  0  0  0  0  0  0  0  0  0
    2.8299    0.9117    1.3690 H   0  0  0  0  0  0  0  0  0  0  0  0
   -3.1157   -0.2862    0.9386 H   0  0  0  0  0  0  0  0  0  0  0  0
  1  2  1  0
  2  3  1  0
  3  4  1  0
  4  5  2  0
  5  6  1  0
  6  7  1  0
  7  8  1  0
  8  9  1  0
  9 10  2  0
 10 11  1  0
 11 12  2  0
 12 13  1  0
 13 14  1  0
 14 15  1  0
 15 16  2  0
 16 17  1  0
 17 18  2  0
 18 19  1  0
 19 20  1  0
 20 21  2  0
 18 22  1  0
 22 23  2  0
 13 24  2  0
  7 25  2  0
  3  1  1  0
 25  4  1  0
 24  9  1  0
 23 15  1  0
 21 17  1  0
  1 26  1  0
  1 27  1  0
  2 28  1  0
  2 29  1  0
  3 30  1  0
  6 31  1  0
  8 32  1  0
 10 33  1  0
 11 34  1  0
 14 35  1  0
 16 36  1  0
 19 37  1  0
 20 38  1  0
 22 39  1  0
 23 40  1  0
 25 41  1  0
M  END
$$$$
