
     RDKit          3D

 49 49  0  0  0  0  0  0  0  0999 V2000
   -4.6525   -0.0626    1.7772 C   0  0  1  0  0  0  0  0  0  0  0  0
   -5.5558   -1.1799    2.2970 C   0  0  0  0  0  0  0  0  0  0  0  0
   -3.3147   -0.6265    1.2406 C   0  0  0  0  0  0  0  0  0  0  0  0
   -2.8133    0.1915    0.1167 N   0  0  0  0  0  0  0  0  0  0  0  0
   -1.4093   -0.1061   -0.2443 C   0  0  0  0  0  0  0  0  0  0  0  0
   -0.3611    0.5381    0.6929 C   0  0  0  0  0  0  0  0  0  0  0  0
    1.0503   -0.0272    0.4700 C   0  0  0  0  0  0  0  0  0  0  0  0
    1.6274    0.3507   -0.9055 C   0  0  0  0  0  0  0  0  0  0  0  0
    3.1181    0.0001   -1.0342 C   0  0  0  0  0  0  0  0  0  0  0  0
    3.3690   -1.5181   -1.0310 C   0  0  0  0  0  0  0  0  0  0  0  0
    4.7873   -1.8943   -1.4951 C   0  0  0  0  0  0  0  0  0  0  0  0
    5.8757   -1.6259   -0.4419 C   0  0  0  0  0  0  0  0  0  0  0  0
    6.1939   -0.2027   -0.3386 N   0  0  0  0  0  0  0  0  0  0  0  0
    6.9218    0.5061   -1.3469 C   0  0  0  0  0  0  0  0  0  0  0  0
    7.3304   -0.0805   -2.3840 O   0  0  0  0  0  0  0  0  0  0  0  0
   -3.0961    1.6235    0.3076 C   0  0  0  0  0  0  0  0  0  0  0  0
   -4.6309    1.8367    0.4214 C   0  0  1  0  0  0  0  0  0  0  0  0
   -5.2016    2.3744   -0.8909 C   0  0  0  0  0  0  0  0  0  0  0  0
   -5.3251    0.6394    0.7491 O   0  0  0  0  0  0  0  0  0  0  0  0
   -4.4471    0.6182    2.6377 H   0  0  0  0  0  0  0  0  0  0  0  0
   -6.4866   -0.7441    2.7181 H   0  0  0  0  0  0  0  0  0  0  0  0
   -5.8298   -1.8737    1.4735 H   0  0  0  0  0  0  0  0  0  0  0  0
   -5.0381   -1.7499    3.0979 H   0  0  0  0  0  0  0  0  0  0  0  0
   -2.5855   -0.6663    2.0770 H   0  0  0  0  0  0  0  0  0  0  0  0
   -3.4569   -1.6658    0.8706 H   0  0  0  0  0  0  0  0  0  0  0  0
   -1.2624   -1.2089   -0.2690 H   0  0  0  0  0  0  0  0  0  0  0  0
   -1.2355    0.2560   -1.2800 H   0  0  0  0  0  0  0  0  0  0  0  0
   -0.6317    0.3560    1.7527 H   0  0  0  0  0  0  0  0  0  0  0  0
   -0.3387    1.6386    0.5390 H   0  0  0  0  0  0  0  0  0  0  0  0
    1.0248   -1.1322    0.5841 H   0  0  0  0  0  0  0  0  0  0  0  0
    1.7125    0.3797    1.2654 H   0  0  0  0  0  0  0  0  0  0  0  0
    1.0593   -0.1593   -1.7128 H   0  0  0  0  0  0  0  0  0  0  0  0
    1.5188    1.4471   -1.0561 H   0  0  0  0  0  0  0  0  0  0  0  0
    3.4896    0.4314   -1.9894 H   0  0  0  0  0  0  0  0  0  0  0  0
    3.6745    0.4820   -0.2041 H   0  0  0  0  0  0  0  0  0  0  0  0
    3.1852   -1.9346   -0.0174 H   0  0  0  0  0  0  0  0  0  0  0  0
    2.6485   -2.0014   -1.7269 H   0  0  0  0  0  0  0  0  0  0  0  0
    4.7915   -2.9859   -1.7064 H   0  0  0  0  0  0  0  0  0  0  0  0
    5.0289   -1.3855   -2.4525 H   0  0  0  0  0  0  0  0  0  0  0  0
    6.7970   -2.1855   -0.7136 H   0  0  0  0  0  0  0  0  0  0  0  0
    5.5424   -2.0059    0.5483 H   0  0  0  0  0  0  0  0  0  0  0  0
    5.9621    0.3009    0.5468 H   0  0  0  0  0  0  0  0  0  0  0  0
    7.1325    1.5589   -1.2142 H   0  0  0  0  0  0  0  0  0  0  0  0
   -2.6677    2.2170   -0.5311 H   0  0  0  0  0  0  0  0  0  0  0  0
   -2.6202    1.9830    1.2477 H   0  0  0  0  0  0  0  0  0  0  0  0
   -4.8340    2.6004    1.2064 H   0  0  0  0  0  0  0  0  0  0  0  0
   -5.0070    1.6579   -1.7176 H   0  0  0  0  0  0  0  0  0  0  0  0
   -6.2987    2.5186   -0.7938 H   0  0  0  0  0  0  0  0  0  0  0  0
   -4.7413    3.3544   -1.1404 H   0  0  0  0  0  0  0  0  0  0  0  0
  1  2  1  0
  1  3  1  0
  3  4  1  0
  4  5  1  0
  5  6  1  0
  6  7  1  0
  7  8  1  0
  8  9  1  0
  9 10  1  0
 10 11  1  0
 11 12  1  0
 12 13  1  0
 13 14  1  0
 14 15  2  0
  4 16  1  0
 16 17  1  0
 17 18  1  0
 17 19  1  0
 19  1  1  0
  1 20  1  1
  2 21  1  0
  2 22  1  0
  2 23  1  0
  3 24  1  0
  3 25  1  0
  5 26  1  0
  5 27  1  0
  6 28  1  0
  6 29  1  0
  7 30  1  0
  7 31  1  0
  8 32  1  0
  8 33  1  0
  9 34  1  0
  9 35  1  0
 10 36  1  0
 10 37  1  0
 11 38  1  0
 11 39  1  0
 12 40  1  0
 12 41  1  0
 13 42  1  0
 14 43  1  0
 16 44  1  0
 16 45  1  0
 17 46  1  1
 18 47  1  0
 18 48  1  0
 18 49  1  0
M  END
$$$$
