
     RDKit          3D

 52 56  0  0  0  0  0  0  0  0999 V2000
    1.9245    2.7432   -0.0720 O   0  0  0  0  0  0  0  0  0  0  0  0
    2.3405    1.7224    0.5360 C   0  0  0  0  0  0  0  0  0  0  0  0
    3.1124    1.7822    1.6463 N   0  0  0  0  0  0  0  0  0  0  0  0
    3.3072    0.4885    1.9447 C   0  0  0  0  0  0  0  0  0  0  0  0
    2.6637   -0.2909    1.0248 C   0  0  0  0  0  0  0  0  0  0  0  0
    2.0631    0.4875    0.1559 O   0  0  0  0  0  0  0  0  0  0  0  0
    2.6797   -1.6881    1.0951 C   0  0  0  0  0  0  0  0  0  0  0  0
    3.3766   -2.2705    2.1777 C   0  0  0  0  0  0  0  0  0  0  0  0
    4.0427   -1.4592    3.1255 C   0  0  0  0  0  0  0  0  0  0  0  0
    4.0124   -0.0566    3.0138 C   0  0  0  0  0  0  0  0  0  0  0  0
    1.9717   -2.5003    0.1421 N   0  0  0  0  0  0  0  0  0  0  0  0
    2.0528   -2.2327   -1.2973 C   0  0  0  0  0  0  0  0  0  0  0  0
    0.6516   -1.9232   -1.8615 C   0  0  0  0  0  0  0  0  0  0  0  0
   -0.4304   -2.3433   -0.9359 N   0  0  0  0  0  0  0  0  0  0  0  0
   -1.7486   -2.3212   -1.6003 C   0  0  0  0  0  0  0  0  0  0  0  0
   -2.1644   -0.9018   -1.8934 C   0  0  0  0  0  0  0  0  0  0  0  0
   -2.1793    0.0492   -0.8601 C   0  0  0  0  0  0  0  0  0  0  0  0
   -2.5114    1.3907   -1.1216 C   0  0  0  0  0  0  0  0  0  0  0  0
   -2.8618    1.7611   -2.4325 C   0  0  0  0  0  0  0  0  0  0  0  0
   -2.8686    0.8124   -3.4584 C   0  0  0  0  0  0  0  0  0  0  0  0
   -2.5180   -0.5130   -3.1935 C   0  0  0  0  0  0  0  0  0  0  0  0
   -2.4676    2.4024   -0.0344 C   0  0  0  0  0  0  0  0  0  0  0  0
   -1.4373    2.3751    0.9256 C   0  0  0  0  0  0  0  0  0  0  0  0
   -1.3895    3.3337    1.9417 C   0  0  0  0  0  0  0  0  0  0  0  0
   -2.3686    4.3268    2.0145 C   0  0  0  0  0  0  0  0  0  0  0  0
   -3.3974    4.3635    1.0705 C   0  0  0  0  0  0  0  0  0  0  0  0
   -3.4486    3.4086    0.0501 C   0  0  0  0  0  0  0  0  0  0  0  0
   -0.1415   -3.6689   -0.3566 C   0  0  0  0  0  0  0  0  0  0  0  0
    1.0496   -3.5448    0.6056 C   0  0  0  0  0  0  0  0  0  0  0  0
    3.4618    2.6269    2.1513 H   0  0  0  0  0  0  0  0  0  0  0  0
    3.4108   -3.3472    2.2844 H   0  0  0  0  0  0  0  0  0  0  0  0
    4.5766   -1.9203    3.9462 H   0  0  0  0  0  0  0  0  0  0  0  0
    4.5125    0.5741    3.7373 H   0  0  0  0  0  0  0  0  0  0  0  0
    2.7566   -1.4020   -1.5208 H   0  0  0  0  0  0  0  0  0  0  0  0
    2.4556   -3.1390   -1.7998 H   0  0  0  0  0  0  0  0  0  0  0  0
    0.5455   -2.4201   -2.8525 H   0  0  0  0  0  0  0  0  0  0  0  0
    0.5780   -0.8260   -2.0242 H   0  0  0  0  0  0  0  0  0  0  0  0
   -2.5236   -2.7533   -0.9296 H   0  0  0  0  0  0  0  0  0  0  0  0
   -1.7326   -2.9416   -2.5251 H   0  0  0  0  0  0  0  0  0  0  0  0
   -1.9247   -0.2604    0.1465 H   0  0  0  0  0  0  0  0  0  0  0  0
   -3.1072    2.7885   -2.6699 H   0  0  0  0  0  0  0  0  0  0  0  0
   -3.1337    1.1088   -4.4651 H   0  0  0  0  0  0  0  0  0  0  0  0
   -2.5141   -1.2316   -4.0035 H   0  0  0  0  0  0  0  0  0  0  0  0
   -0.6590    1.6242    0.8804 H   0  0  0  0  0  0  0  0  0  0  0  0
   -0.5901    3.3081    2.6711 H   0  0  0  0  0  0  0  0  0  0  0  0
   -2.3303    5.0679    2.8024 H   0  0  0  0  0  0  0  0  0  0  0  0
   -4.1578    5.1314    1.1304 H   0  0  0  0  0  0  0  0  0  0  0  0
   -4.2636    3.4473   -0.6616 H   0  0  0  0  0  0  0  0  0  0  0  0
   -1.0144   -4.0539    0.2161 H   0  0  0  0  0  0  0  0  0  0  0  0
    0.0917   -4.4031   -1.1615 H   0  0  0  0  0  0  0  0  0  0  0  0
    1.5862   -4.5144    0.6819 H   0  0  0  0  0  0  0  0  0  0  0  0
    0.6604   -3.2775    1.6133 H   0  0  0  0  0  0  0  0  0  0  0  0
  1  2  2  0
  2  3  1  0
  3  4  1  0
  4  5  2  0
  5  6  1  0
  5  7  1  0
  7  8  2  0
  8  9  1  0
  9 10  2  0
  7 11  1  0
 11 12  1  0
 12 13  1  0
 13 14  1  0
 14 15  1  0
 15 16  1  0
 16 17  2  0
 17 18  1  0
 18 19  2  0
 19 20  1  0
 20 21  2  0
 18 22  1  0
 22 23  2  0
 23 24  1  0
 24 25  2  0
 25 26  1  0
 26 27  2  0
 14 28  1  0
 28 29  1  0
  6  2  1  0
 29 11  1  0
 10  4  1  0
 21 16  1  0
 27 22  1  0
  3 30  1  0
  8 31  1  0
  9 32  1  0
 10 33  1  0
 12 34  1  0
 12 35  1  0
 13 36  1  0
 13 37  1  0
 15 38  1  0
 15 39  1  0
 17 40  1  0
 19 41  1  0
 20 42  1  0
 21 43  1  0
 23 44  1  0
 24 45  1  0
 25 46  1  0
 26 47  1  0
 27 48  1  0
 28 49  1  0
 28 50  1  0
 29 51  1  0
 29 52  1  0
M  END
$$$$
