
     RDKit          3D

 20 20  0  0  0  0  0  0  0  0999 V2000
   -0.7799   -1.5269    0.6389 N   0  0  0  0  0  0  0  0  0  0  0  0
   -1.1296   -0.1465    0.2923 C   0  0  1  0  0  0  0  0  0  0  0  0
   -0.1403    0.4210   -0.7394 C   0  0  0  0  0  0  0  0  0  0  0  0
    1.2517    0.4820   -0.1830 C   0  0  0  0  0  0  0  0  0  0  0  0
    1.7914    1.4577    0.6371 C   0  0  0  0  0  0  0  0  0  0  0  0
    3.0184    1.0982    0.9571 O   0  0  0  0  0  0  0  0  0  0  0  0
    3.3227   -0.0458    0.4159 N   0  0  0  0  0  0  0  0  0  0  0  0
    2.2547   -0.4552   -0.2848 C   0  0  0  0  0  0  0  0  0  0  0  0
    2.1990   -1.5391   -0.9237 O   0  0  0  0  0  0  0  0  0  0  0  0
   -2.5394   -0.0685   -0.2312 C   0  0  0  0  0  0  0  0  0  0  0  0
   -3.4800    0.7142    0.4313 O   0  0  0  0  0  0  0  0  0  0  0  0
   -2.8716   -0.7054   -1.2674 O   0  0  0  0  0  0  0  0  0  0  0  0
   -0.8939   -2.1397   -0.2017 H   0  0  0  0  0  0  0  0  0  0  0  0
   -1.4465   -1.8684    1.3694 H   0  0  0  0  0  0  0  0  0  0  0  0
   -1.0669    0.4744    1.2142 H   0  0  0  0  0  0  0  0  0  0  0  0
   -0.4512    1.4496   -1.0260 H   0  0  0  0  0  0  0  0  0  0  0  0
   -0.1448   -0.2020   -1.6605 H   0  0  0  0  0  0  0  0  0  0  0  0
    1.3040    2.3632    0.9732 H   0  0  0  0  0  0  0  0  0  0  0  0
    4.2345   -0.5423    0.5269 H   0  0  0  0  0  0  0  0  0  0  0  0
   -4.4325    0.7796    0.0927 H   0  0  0  0  0  0  0  0  0  0  0  0
  1  2  1  0
  2  3  1  0
  3  4  1  0
  4  5  2  0
  5  6  1  0
  6  7  1  0
  7  8  1  0
  8  9  2  0
  2 10  1  0
 10 11  1  0
 10 12  2  0
  8  4  1  0
  1 13  1  0
  1 14  1  0
  2 15  1  1
  3 16  1  0
  3 17  1  0
  5 18  1  0
  7 19  1  0
 11 20  1  0
M  END
$$$$
