
     RDKit          3D

 47 50  0  0  0  0  0  0  0  0999 V2000
   -2.0427    0.2874   -0.7035 C   0  0  2  0  0  0  0  0  0  0  0  0
   -3.1885    1.2964   -0.7987 C   0  0  0  0  0  0  0  0  0  0  0  0
   -4.4307    0.4032   -0.9649 C   0  0  0  0  0  0  0  0  0  0  0  0
   -3.9902   -0.9261   -0.4306 C   0  0  0  0  0  0  0  0  0  0  0  0
   -4.7113   -1.9111   -0.3898 O   0  0  0  0  0  0  0  0  0  0  0  0
   -2.6007   -0.8827    0.1132 C   0  0  2  0  0  0  0  0  0  0  0  0
   -2.7182   -0.6203    1.6406 C   0  0  0  0  0  0  0  0  0  0  0  0
   -1.7154   -2.1089   -0.1761 C   0  0  0  0  0  0  0  0  0  0  0  0
   -0.2448   -1.8217    0.2205 C   0  0  0  0  0  0  0  0  0  0  0  0
    0.3275   -0.4788   -0.3594 C   0  0  1  0  0  0  0  0  0  0  0  0
   -0.6541    0.7284   -0.2071 C   0  0  1  0  0  0  0  0  0  0  0  0
   -0.1352    1.9106   -1.0352 C   0  0  0  0  0  0  0  0  0  0  0  0
    1.3172    2.1975   -0.7816 C   0  0  0  0  0  0  0  0  0  0  0  0
    2.2070    1.2661   -0.3703 C   0  0  0  0  0  0  0  0  0  0  0  0
    3.6627    1.6802   -0.2569 C   0  0  0  0  0  0  0  0  0  0  0  0
    4.5770    0.5298   -0.5601 C   0  0  0  0  0  0  0  0  0  0  0  0
    5.6340    0.7281   -1.1398 O   0  0  0  0  0  0  0  0  0  0  0  0
    4.2475   -0.8431   -0.0576 C   0  0  0  0  0  0  0  0  0  0  0  0
    2.7809   -1.1840   -0.3493 C   0  0  0  0  0  0  0  0  0  0  0  0
    1.7698   -0.1117    0.1647 C   0  0  2  0  0  0  0  0  0  0  0  0
    1.8131   -0.0626    1.7170 C   0  0  0  0  0  0  0  0  0  0  0  0
   -1.8950   -0.0605   -1.7578 H   0  0  0  0  0  0  0  0  0  0  0  0
   -3.0640    1.9750   -1.6704 H   0  0  0  0  0  0  0  0  0  0  0  0
   -3.2578    1.9000    0.1322 H   0  0  0  0  0  0  0  0  0  0  0  0
   -5.2902    0.7998   -0.3836 H   0  0  0  0  0  0  0  0  0  0  0  0
   -4.7007    0.3039   -2.0383 H   0  0  0  0  0  0  0  0  0  0  0  0
   -1.7382   -0.4644    2.1305 H   0  0  0  0  0  0  0  0  0  0  0  0
   -3.2003   -1.4910    2.1350 H   0  0  0  0  0  0  0  0  0  0  0  0
   -3.3409    0.2744    1.8533 H   0  0  0  0  0  0  0  0  0  0  0  0
   -1.7584   -2.3693   -1.2572 H   0  0  0  0  0  0  0  0  0  0  0  0
   -2.0866   -2.9905    0.3907 H   0  0  0  0  0  0  0  0  0  0  0  0
   -0.1752   -1.8401    1.3241 H   0  0  0  0  0  0  0  0  0  0  0  0
    0.3657   -2.6721   -0.1480 H   0  0  0  0  0  0  0  0  0  0  0  0
    0.4218   -0.6575   -1.4564 H   0  0  0  0  0  0  0  0  0  0  0  0
   -0.7264    1.0631    0.8460 H   0  0  0  0  0  0  0  0  0  0  0  0
   -0.7247    2.8206   -0.7916 H   0  0  0  0  0  0  0  0  0  0  0  0
   -0.2565    1.7049   -2.1211 H   0  0  0  0  0  0  0  0  0  0  0  0
    1.6717    3.1807   -1.0795 H   0  0  0  0  0  0  0  0  0  0  0  0
    3.8913    2.5099   -0.9627 H   0  0  0  0  0  0  0  0  0  0  0  0
    3.8649    2.0464    0.7713 H   0  0  0  0  0  0  0  0  0  0  0  0
    4.8980   -1.5955   -0.5550 H   0  0  0  0  0  0  0  0  0  0  0  0
    4.4497   -0.8948    1.0327 H   0  0  0  0  0  0  0  0  0  0  0  0
    2.6700   -1.3045   -1.4502 H   0  0  0  0  0  0  0  0  0  0  0  0
    2.5688   -2.1715    0.1121 H   0  0  0  0  0  0  0  0  0  0  0  0
    1.7359   -1.0774    2.1584 H   0  0  0  0  0  0  0  0  0  0  0  0
    2.7688    0.3653    2.0827 H   0  0  0  0  0  0  0  0  0  0  0  0
    1.0035    0.5682    2.1327 H   0  0  0  0  0  0  0  0  0  0  0  0
  1  2  1  0
  2  3  1  0
  3  4  1  0
  4  5  2  0
  4  6  1  0
  6  7  1  1
  6  8  1  0
  8  9  1  0
  9 10  1  0
 10 11  1  0
 11 12  1  0
 12 13  1  0
 13 14  2  0
 14 15  1  0
 15 16  1  0
 16 17  2  0
 16 18  1  0
 18 19  1  0
 19 20  1  0
 20 21  1  1
  6  1  1  0
 20 10  1  0
 11  1  1  0
 20 14  1  0
  1 22  1  6
  2 23  1  0
  2 24  1  0
  3 25  1  0
  3 26  1  0
  7 27  1  0
  7 28  1  0
  7 29  1  0
  8 30  1  0
  8 31  1  0
  9 32  1  0
  9 33  1  0
 10 34  1  6
 11 35  1  1
 12 36  1  0
 12 37  1  0
 13 38  1  0
 15 39  1  0
 15 40  1  0
 18 41  1  0
 18 42  1  0
 19 43  1  0
 19 44  1  0
 21 45  1  0
 21 46  1  0
 21 47  1  0
M  END
$$$$
