
     RDKit          3D

 46 48  0  0  0  0  0  0  0  0999 V2000
   -5.7075    2.1435    1.1041 C   0  0  2  0  0  0  0  0  0  0  0  0
   -6.8018    2.2157    2.1697 C   0  0  0  0  0  0  0  0  0  0  0  0
   -6.3047    2.1405   -0.2336 N   0  0  0  0  0  0  0  0  0  0  0  0
   -4.8404    0.9273    1.3216 C   0  0  0  0  0  0  0  0  0  0  0  0
   -5.2764   -0.2145    1.0089 O   0  0  0  0  0  0  0  0  0  0  0  0
   -3.5641    1.0652    1.9665 N   0  0  0  0  0  0  0  0  0  0  0  0
   -2.5760    0.0224    2.0275 C   0  0  0  0  0  0  0  0  0  0  0  0
   -2.4049   -0.8906    0.9702 C   0  0  0  0  0  0  0  0  0  0  0  0
   -1.4195   -1.8795    1.0444 C   0  0  0  0  0  0  0  0  0  0  0  0
   -0.5850   -1.9575    2.1646 C   0  0  0  0  0  0  0  0  0  0  0  0
    0.6854   -3.2195    2.2525 S   0  0  0  0  0  0  0  0  0  0  0  0
    1.9070   -2.1735    1.4614 C   0  0  0  0  0  0  0  0  0  0  0  0
    2.0365   -2.1847    0.0580 C   0  0  0  0  0  0  0  0  0  0  0  0
    2.9910   -1.3432   -0.5073 C   0  0  0  0  0  0  0  0  0  0  0  0
    3.7921   -0.5403    0.2491 C   0  0  0  0  0  0  0  0  0  0  0  0
    3.6992   -0.5104    1.6383 C   0  0  0  0  0  0  0  0  0  0  0  0
    2.7389   -1.3400    2.2479 C   0  0  0  0  0  0  0  0  0  0  0  0
    4.6448    0.1454   -0.5333 N   0  0  0  0  0  0  0  0  0  0  0  0
    4.2968   -0.2654   -1.7806 C   0  0  0  0  0  0  0  0  0  0  0  0
    3.3040   -1.1915   -1.7994 N   0  0  0  0  0  0  0  0  0  0  0  0
    5.0247    0.1426   -2.9448 N   0  0  0  0  0  0  0  0  0  0  0  0
    4.5292    0.3593   -4.1313 C   0  0  0  0  0  0  0  0  0  0  0  0
    3.1533    0.3615   -4.3687 O   0  0  0  0  0  0  0  0  0  0  0  0
    5.3807    0.6393   -5.2047 O   0  0  0  0  0  0  0  0  0  0  0  0
    6.7986    0.6788   -5.0830 C   0  0  0  0  0  0  0  0  0  0  0  0
   -0.7382   -1.0425    3.2116 C   0  0  0  0  0  0  0  0  0  0  0  0
   -1.7223   -0.0524    3.1391 C   0  0  0  0  0  0  0  0  0  0  0  0
   -5.0799    3.0571    1.1983 H   0  0  0  0  0  0  0  0  0  0  0  0
   -7.4608    1.3224    2.1168 H   0  0  0  0  0  0  0  0  0  0  0  0
   -6.3465    2.2687    3.1820 H   0  0  0  0  0  0  0  0  0  0  0  0
   -7.4199    3.1255    2.0147 H   0  0  0  0  0  0  0  0  0  0  0  0
   -5.5363    2.1094   -0.9431 H   0  0  0  0  0  0  0  0  0  0  0  0
   -6.8848    1.2788   -0.3603 H   0  0  0  0  0  0  0  0  0  0  0  0
   -3.3777    1.9484    2.4936 H   0  0  0  0  0  0  0  0  0  0  0  0
   -3.0117   -0.8255    0.0772 H   0  0  0  0  0  0  0  0  0  0  0  0
   -1.2964   -2.5757    0.2245 H   0  0  0  0  0  0  0  0  0  0  0  0
    1.4141   -2.8183   -0.5610 H   0  0  0  0  0  0  0  0  0  0  0  0
    4.3437    0.1268    2.2298 H   0  0  0  0  0  0  0  0  0  0  0  0
    2.6391   -1.3364    3.3257 H   0  0  0  0  0  0  0  0  0  0  0  0
    2.9114   -1.7101   -2.6164 H   0  0  0  0  0  0  0  0  0  0  0  0
    2.4641    0.3605   -3.6284 H   0  0  0  0  0  0  0  0  0  0  0  0
    7.0965    1.4639   -4.3561 H   0  0  0  0  0  0  0  0  0  0  0  0
    7.1793   -0.3089   -4.7466 H   0  0  0  0  0  0  0  0  0  0  0  0
    7.2427    0.9173   -6.0711 H   0  0  0  0  0  0  0  0  0  0  0  0
   -0.0913   -1.0928    4.0782 H   0  0  0  0  0  0  0  0  0  0  0  0
   -1.8268    0.6528    3.9541 H   0  0  0  0  0  0  0  0  0  0  0  0
  1  2  1  0
  1  3  1  0
  1  4  1  0
  4  5  2  0
  4  6  1  0
  6  7  1  0
  7  8  2  0
  8  9  1  0
  9 10  2  0
 10 11  1  0
 11 12  1  0
 12 13  2  0
 13 14  1  0
 14 15  2  0
 15 16  1  0
 16 17  2  0
 15 18  1  0
 18 19  2  0
 19 20  1  0
 19 21  1  0
 21 22  2  3
 22 23  1  0
 22 24  1  0
 24 25  1  0
 10 26  1  0
 26 27  2  0
 27  7  1  0
 17 12  1  0
 20 14  1  0
  1 28  1  6
  2 29  1  0
  2 30  1  0
  2 31  1  0
  3 32  1  0
  3 33  1  0
  6 34  1  0
  8 35  1  0
  9 36  1  0
 13 37  1  0
 16 38  1  0
 17 39  1  0
 20 40  1  0
 23 41  1  0
 25 42  1  0
 25 43  1  0
 25 44  1  0
 26 45  1  0
 27 46  1  0
M  END
$$$$
