
     RDKit          3D

 36 39  0  0  0  0  0  0  0  0999 V2000
   -6.3143    1.1966   -0.1772 N   0  0  0  0  0  0  0  0  0  0  0  0
   -5.0947    1.0806    0.5665 C   0  0  0  0  0  0  0  0  0  0  0  0
   -5.0362    1.5502    1.7735 N   0  0  0  0  0  0  0  0  0  0  0  0
   -3.9040    0.4157   -0.0192 C   0  0  0  0  0  0  0  0  0  0  0  0
   -2.9279   -0.1660    0.8285 C   0  0  0  0  0  0  0  0  0  0  0  0
   -1.8252   -0.7776    0.2389 C   0  0  0  0  0  0  0  0  0  0  0  0
   -1.6639   -0.8205   -1.1116 C   0  0  0  0  0  0  0  0  0  0  0  0
   -0.5201   -1.4514   -1.4018 N   0  0  0  0  0  0  0  0  0  0  0  0
   -0.0190   -1.7857   -0.1870 C   0  0  0  0  0  0  0  0  0  0  0  0
    1.3019   -2.4606   -0.0043 C   0  0  0  0  0  0  0  0  0  0  0  0
    2.3933   -1.4397   -0.0027 C   0  0  0  0  0  0  0  0  0  0  0  0
    3.0631   -1.0721   -1.1279 N   0  0  0  0  0  0  0  0  0  0  0  0
    3.8852   -0.1066   -0.6792 C   0  0  0  0  0  0  0  0  0  0  0  0
    3.6993    0.0949    0.6562 C   0  0  0  0  0  0  0  0  0  0  0  0
    2.7525   -0.7390    1.1016 N   0  0  0  0  0  0  0  0  0  0  0  0
    4.4171    1.0515    1.3703 C   0  0  0  0  0  0  0  0  0  0  0  0
    5.3617    1.8178    0.6614 C   0  0  0  0  0  0  0  0  0  0  0  0
    5.5572    1.6103   -0.7240 C   0  0  0  0  0  0  0  0  0  0  0  0
    4.8092    0.6350   -1.4117 C   0  0  0  0  0  0  0  0  0  0  0  0
   -0.7911   -1.3778    0.8554 N   0  0  0  0  0  0  0  0  0  0  0  0
   -2.5842   -0.2544   -1.9864 C   0  0  0  0  0  0  0  0  0  0  0  0
   -3.7151    0.3709   -1.4295 C   0  0  0  0  0  0  0  0  0  0  0  0
   -6.4509    0.6962   -1.0824 H   0  0  0  0  0  0  0  0  0  0  0  0
   -7.1267    1.7227    0.2150 H   0  0  0  0  0  0  0  0  0  0  0  0
   -5.8542    2.0189    2.2229 H   0  0  0  0  0  0  0  0  0  0  0  0
   -3.0281   -0.1512    1.9066 H   0  0  0  0  0  0  0  0  0  0  0  0
   -0.1041   -1.6308   -2.3429 H   0  0  0  0  0  0  0  0  0  0  0  0
    1.4679   -3.1880   -0.8275 H   0  0  0  0  0  0  0  0  0  0  0  0
    1.3097   -3.0188    0.9562 H   0  0  0  0  0  0  0  0  0  0  0  0
    2.3701   -0.8210    2.0701 H   0  0  0  0  0  0  0  0  0  0  0  0
    4.2550    1.2013    2.4298 H   0  0  0  0  0  0  0  0  0  0  0  0
    5.9407    2.5710    1.1796 H   0  0  0  0  0  0  0  0  0  0  0  0
    6.2848    2.2058   -1.2597 H   0  0  0  0  0  0  0  0  0  0  0  0
    4.9472    0.4693   -2.4723 H   0  0  0  0  0  0  0  0  0  0  0  0
   -2.4328   -0.2861   -3.0576 H   0  0  0  0  0  0  0  0  0  0  0  0
   -4.4234    0.8386   -2.0997 H   0  0  0  0  0  0  0  0  0  0  0  0
  1  2  1  0
  2  3  2  3
  2  4  1  0
  4  5  2  0
  5  6  1  0
  6  7  2  0
  7  8  1  0
  8  9  1  0
  9 10  1  0
 10 11  1  0
 11 12  2  0
 12 13  1  0
 13 14  2  0
 14 15  1  0
 14 16  1  0
 16 17  2  0
 17 18  1  0
 18 19  2  0
  9 20  2  0
  7 21  1  0
 21 22  2  0
 22  4  1  0
 20  6  1  0
 15 11  1  0
 19 13  1  0
  1 23  1  0
  1 24  1  0
  3 25  1  0
  5 26  1  0
  8 27  1  0
 10 28  1  0
 10 29  1  0
 15 30  1  0
 16 31  1  0
 17 32  1  0
 18 33  1  0
 19 34  1  0
 21 35  1  0
 22 36  1  0
M  END
$$$$
