
     RDKit          3D

 44 47  0  0  0  0  0  0  0  0999 V2000
    0.9954   -1.5419   -2.3568 C   0  0  0  0  0  0  0  0  0  0  0  0
    0.9803   -0.8292   -1.0773 N   0  0  0  0  0  0  0  0  0  0  0  0
   -0.1090   -0.3912   -0.4117 C   0  0  0  0  0  0  0  0  0  0  0  0
    0.2542    0.2107    0.7796 C   0  0  0  0  0  0  0  0  0  0  0  0
    1.6371    0.1245    0.8703 C   0  0  0  0  0  0  0  0  0  0  0  0
    2.7638    0.5921    2.3484 Br  0  0  0  0  0  0  0  0  0  0  0  0
    2.0488   -0.5312   -0.2926 C   0  0  0  0  0  0  0  0  0  0  0  0
    3.4418   -0.9134   -0.6023 C   0  0  0  0  0  0  0  0  0  0  0  0
    3.6804   -2.0529   -1.0862 O   0  0  0  0  0  0  0  0  0  0  0  0
    4.5176    0.0036   -0.3649 N   0  0  0  0  0  0  0  0  0  0  0  0
    5.9140   -0.4042   -0.5200 C   0  0  0  0  0  0  0  0  0  0  0  0
    6.8729    0.7266   -0.1403 C   0  0  0  0  0  0  0  0  0  0  0  0
    6.8154    0.9787    1.2384 O   0  0  0  0  0  0  0  0  0  0  0  0
   -0.7389    0.7163    1.6288 C   0  0  0  0  0  0  0  0  0  0  0  0
   -2.0746    0.5992    1.2591 C   0  0  0  0  0  0  0  0  0  0  0  0
   -2.8780    1.1764    2.3373 C   0  0  0  0  0  0  0  0  0  0  0  0
   -4.1354    1.2227    2.3792 O   0  0  0  0  0  0  0  0  0  0  0  0
   -2.0366    1.6740    3.3712 N   0  0  0  0  0  0  0  0  0  0  0  0
   -0.7115    1.3939    2.9296 C   0  0  0  0  0  0  0  0  0  0  0  0
    0.3126    1.7220    3.5800 O   0  0  0  0  0  0  0  0  0  0  0  0
   -2.4651   -0.0105    0.0472 C   0  0  0  0  0  0  0  0  0  0  0  0
   -1.4571   -0.5250   -0.7986 C   0  0  0  0  0  0  0  0  0  0  0  0
   -3.8832   -0.1287   -0.3400 C   0  0  0  0  0  0  0  0  0  0  0  0
   -4.6350    1.0011   -0.7252 C   0  0  0  0  0  0  0  0  0  0  0  0
   -3.9143    2.6059   -0.7976 Cl  0  0  0  0  0  0  0  0  0  0  0  0
   -5.9797    0.8516   -1.0862 C   0  0  0  0  0  0  0  0  0  0  0  0
   -6.5766   -0.4117   -1.0737 C   0  0  0  0  0  0  0  0  0  0  0  0
   -5.8313   -1.5340   -0.7058 C   0  0  0  0  0  0  0  0  0  0  0  0
   -4.4889   -1.3952   -0.3438 C   0  0  0  0  0  0  0  0  0  0  0  0
    0.1810   -1.1778   -3.0162 H   0  0  0  0  0  0  0  0  0  0  0  0
    0.8698   -2.6302   -2.1790 H   0  0  0  0  0  0  0  0  0  0  0  0
    1.9498   -1.3610   -2.8935 H   0  0  0  0  0  0  0  0  0  0  0  0
    4.2873    0.9920   -0.1153 H   0  0  0  0  0  0  0  0  0  0  0  0
    6.1177   -1.2873    0.1240 H   0  0  0  0  0  0  0  0  0  0  0  0
    6.0942   -0.6909   -1.5785 H   0  0  0  0  0  0  0  0  0  0  0  0
    6.6439    1.6457   -0.7276 H   0  0  0  0  0  0  0  0  0  0  0  0
    7.9080    0.4159   -0.3957 H   0  0  0  0  0  0  0  0  0  0  0  0
    6.0765    1.6252    1.3836 H   0  0  0  0  0  0  0  0  0  0  0  0
   -2.3267    2.1447    4.2568 H   0  0  0  0  0  0  0  0  0  0  0  0
   -1.7253   -1.0138   -1.7258 H   0  0  0  0  0  0  0  0  0  0  0  0
   -6.5624    1.7145   -1.3828 H   0  0  0  0  0  0  0  0  0  0  0  0
   -7.6161   -0.5214   -1.3546 H   0  0  0  0  0  0  0  0  0  0  0  0
   -6.2942   -2.5123   -0.7012 H   0  0  0  0  0  0  0  0  0  0  0  0
   -3.9224   -2.2735   -0.0586 H   0  0  0  0  0  0  0  0  0  0  0  0
  1  2  1  0
  2  3  1  0
  3  4  2  0
  4  5  1  0
  5  6  1  0
  5  7  2  0
  7  8  1  0
  8  9  2  0
  8 10  1  0
 10 11  1  0
 11 12  1  0
 12 13  1  0
  4 14  1  0
 14 15  2  0
 15 16  1  0
 16 17  2  0
 16 18  1  0
 18 19  1  0
 19 20  2  0
 15 21  1  0
 21 22  2  0
 21 23  1  0
 23 24  2  0
 24 25  1  0
 24 26  1  0
 26 27  2  0
 27 28  1  0
 28 29  2  0
  7  2  1  0
 19 14  1  0
 29 23  1  0
 22  3  1  0
  1 30  1  0
  1 31  1  0
  1 32  1  0
 10 33  1  0
 11 34  1  0
 11 35  1  0
 12 36  1  0
 12 37  1  0
 13 38  1  0
 18 39  1  0
 22 40  1  0
 26 41  1  0
 27 42  1  0
 28 43  1  0
 29 44  1  0
M  END
$$$$
