
     RDKit          3D

 21 20  0  0  0  0  0  0  0  0999 V2000
    1.4739   -0.2610    2.1781 O   0  0  0  0  0  0  0  0  0  0  0  0
    0.7060   -0.6022    1.0503 C   0  0  1  0  0  0  0  0  0  0  0  0
   -0.5306    0.3386    0.9209 C   0  0  2  0  0  0  0  0  0  0  0  0
   -1.7396   -0.2960    0.1888 C   0  0  0  0  0  0  0  0  0  0  0  0
   -1.4379   -0.8456   -1.1741 C   0  0  0  0  0  0  0  0  0  0  0  0
   -1.1668   -2.2018   -1.3269 O   0  0  0  0  0  0  0  0  0  0  0  0
   -1.4533   -0.0920   -2.1834 O   0  0  0  0  0  0  0  0  0  0  0  0
   -0.1887    1.7120    0.3907 C   0  0  0  0  0  0  0  0  0  0  0  0
   -0.0334    1.9316   -0.9744 O   0  0  0  0  0  0  0  0  0  0  0  0
   -0.0129    2.6662    1.1955 O   0  0  0  0  0  0  0  0  0  0  0  0
    1.5900   -0.6458   -0.1736 C   0  0  0  0  0  0  0  0  0  0  0  0
    2.4039    0.4381   -0.4915 O   0  0  0  0  0  0  0  0  0  0  0  0
    1.6190   -1.6777   -0.8960 O   0  0  0  0  0  0  0  0  0  0  0  0
    1.7921    0.6720    2.0594 H   0  0  0  0  0  0  0  0  0  0  0  0
    0.3256   -1.6317    1.2319 H   0  0  0  0  0  0  0  0  0  0  0  0
   -0.8981    0.4955    1.9612 H   0  0  0  0  0  0  0  0  0  0  0  0
   -2.1378   -1.1250    0.8138 H   0  0  0  0  0  0  0  0  0  0  0  0
   -2.5574    0.4531    0.1050 H   0  0  0  0  0  0  0  0  0  0  0  0
   -0.9688   -2.5923   -2.2404 H   0  0  0  0  0  0  0  0  0  0  0  0
    0.2090    2.8486   -1.3296 H   0  0  0  0  0  0  0  0  0  0  0  0
    3.0057    0.4152   -1.3058 H   0  0  0  0  0  0  0  0  0  0  0  0
  1  2  1  0
  2  3  1  0
  3  4  1  0
  4  5  1  0
  5  6  1  0
  5  7  2  0
  3  8  1  0
  8  9  1  0
  8 10  2  0
  2 11  1  0
 11 12  1  0
 11 13  2  0
  1 14  1  0
  2 15  1  1
  3 16  1  1
  4 17  1  0
  4 18  1  0
  6 19  1  0
  9 20  1  0
 12 21  1  0
M  END
$$$$
