
     RDKit          3D

 30 30  0  0  0  0  0  0  0  0999 V2000
    5.9446   -0.0953    0.1058 N   0  0  0  0  0  0  0  0  0  0  0  0
    4.5892   -0.5060   -0.0697 C   0  0  0  0  0  0  0  0  0  0  0  0
    4.3343   -1.5610   -0.7792 N   0  0  0  0  0  0  0  0  0  0  0  0
    3.5419    0.2056    0.6111 N   0  0  0  0  0  0  0  0  0  0  0  0
    2.2097    0.3761    0.1006 C   0  0  0  0  0  0  0  0  0  0  0  0
    1.9695    0.1647   -1.1584 N   0  0  0  0  0  0  0  0  0  0  0  0
    1.1826    0.8574    0.9887 N   0  0  0  0  0  0  0  0  0  0  0  0
   -0.2350    0.9686    0.6441 C   0  0  0  0  0  0  0  0  0  0  0  0
   -0.8823   -0.4178    0.5707 C   0  0  0  0  0  0  0  0  0  0  0  0
   -2.3342   -0.3040    0.1918 C   0  0  0  0  0  0  0  0  0  0  0  0
   -3.3182   -0.1616    1.1845 C   0  0  0  0  0  0  0  0  0  0  0  0
   -4.6633   -0.0236    0.8277 C   0  0  0  0  0  0  0  0  0  0  0  0
   -5.0336   -0.0169   -0.5200 C   0  0  0  0  0  0  0  0  0  0  0  0
   -4.0588   -0.1441   -1.5135 C   0  0  0  0  0  0  0  0  0  0  0  0
   -2.7126   -0.2824   -1.1612 C   0  0  0  0  0  0  0  0  0  0  0  0
    6.1729    0.7386    0.6909 H   0  0  0  0  0  0  0  0  0  0  0  0
    6.7226   -0.6184   -0.3546 H   0  0  0  0  0  0  0  0  0  0  0  0
    3.3709   -1.9445   -0.8968 H   0  0  0  0  0  0  0  0  0  0  0  0
    3.7903    0.6967    1.4990 H   0  0  0  0  0  0  0  0  0  0  0  0
    1.0371    0.2991   -1.6047 H   0  0  0  0  0  0  0  0  0  0  0  0
    1.4653    1.1464    1.9523 H   0  0  0  0  0  0  0  0  0  0  0  0
   -0.3558    1.5220   -0.3117 H   0  0  0  0  0  0  0  0  0  0  0  0
   -0.7506    1.5607    1.4321 H   0  0  0  0  0  0  0  0  0  0  0  0
   -0.7857   -0.9215    1.5575 H   0  0  0  0  0  0  0  0  0  0  0  0
   -0.3525   -1.0530   -0.1708 H   0  0  0  0  0  0  0  0  0  0  0  0
   -3.0434   -0.1561    2.2321 H   0  0  0  0  0  0  0  0  0  0  0  0
   -5.4183    0.0816    1.5961 H   0  0  0  0  0  0  0  0  0  0  0  0
   -6.0749    0.0913   -0.7944 H   0  0  0  0  0  0  0  0  0  0  0  0
   -4.3460   -0.1320   -2.5570 H   0  0  0  0  0  0  0  0  0  0  0  0
   -1.9657   -0.3707   -1.9406 H   0  0  0  0  0  0  0  0  0  0  0  0
  1  2  1  0
  2  3  2  3
  2  4  1  0
  4  5  1  0
  5  6  2  3
  5  7  1  0
  7  8  1  0
  8  9  1  0
  9 10  1  0
 10 11  2  0
 11 12  1  0
 12 13  2  0
 13 14  1  0
 14 15  2  0
 15 10  1  0
  1 16  1  0
  1 17  1  0
  3 18  1  0
  4 19  1  0
  6 20  1  0
  7 21  1  0
  8 22  1  0
  8 23  1  0
  9 24  1  0
  9 25  1  0
 11 26  1  0
 12 27  1  0
 13 28  1  0
 14 29  1  0
 15 30  1  0
M  END
$$$$
