
     RDKit          3D

 54 58  0  0  0  0  0  0  0  0999 V2000
   -0.6497   -3.0110   -0.0686 C   0  0  2  0  0  0  0  0  0  0  0  0
   -0.3239   -4.2415    0.7744 C   0  0  0  0  0  0  0  0  0  0  0  0
    0.9873   -4.7508    0.2124 C   0  0  0  0  0  0  0  0  0  0  0  0
    1.5632   -3.5948   -0.6006 C   0  0  0  0  0  0  0  0  0  0  0  0
    0.6218   -2.4643   -0.5366 N   0  0  0  0  0  0  0  0  0  0  0  0
    1.0162   -1.4534    0.4630 C   0  0  1  0  0  0  0  0  0  0  0  0
    1.9603   -0.4250   -0.1323 C   0  0  0  0  0  0  0  0  0  0  0  0
    1.8442   -0.0186   -1.4737 C   0  0  0  0  0  0  0  0  0  0  0  0
    2.6968    0.9582   -1.9945 C   0  0  0  0  0  0  0  0  0  0  0  0
    3.6771    1.5556   -1.1833 C   0  0  0  0  0  0  0  0  0  0  0  0
    3.7802    1.1614    0.1611 C   0  0  0  0  0  0  0  0  0  0  0  0
    2.9279    0.1840    0.6817 C   0  0  0  0  0  0  0  0  0  0  0  0
    4.5812    2.5997   -1.7281 C   0  0  0  0  0  0  0  0  0  0  0  0
    4.9585    3.7140   -0.9103 N   0  0  0  0  0  0  0  0  0  0  0  0
    5.0419    2.5113   -2.9408 N   0  0  0  0  0  4  0  0  0  0  0  0
   -0.2832   -0.8608    1.0425 C   0  0  1  0  0  0  0  0  0  0  0  0
   -0.7863    0.3801    0.3577 C   0  0  0  0  0  0  0  0  0  0  0  0
   -0.2404    1.5109    0.4663 O   0  0  0  0  0  0  0  0  0  0  0  0
   -1.9845    0.1727   -0.3675 N   0  0  0  0  0  0  0  0  0  0  0  0
   -2.8482    1.2156   -0.9178 C   0  0  0  0  0  0  0  0  0  0  0  0
   -3.7193    1.7947    0.1639 C   0  0  0  0  0  0  0  0  0  0  0  0
   -3.2791    2.8974    0.9150 C   0  0  0  0  0  0  0  0  0  0  0  0
   -4.0729    3.4097    1.9459 C   0  0  0  0  0  0  0  0  0  0  0  0
   -5.3066    2.8216    2.2389 C   0  0  0  0  0  0  0  0  0  0  0  0
   -6.0743    3.3188    3.2398 F   0  0  0  0  0  0  0  0  0  0  0  0
   -5.7472    1.7186    1.5019 C   0  0  0  0  0  0  0  0  0  0  0  0
   -4.9562    1.2034    0.4703 C   0  0  0  0  0  0  0  0  0  0  0  0
   -2.3560   -1.1697   -0.1138 C   0  0  0  0  0  0  0  0  0  0  0  0
   -3.4260   -1.6780   -0.5434 O   0  0  0  0  0  0  0  0  0  0  0  0
   -1.3635   -1.9106    0.7302 C   0  0  1  0  0  0  0  0  0  0  0  0
   -1.2521   -3.3324   -0.9491 H   0  0  0  0  0  0  0  0  0  0  0  0
   -1.1264   -5.0072    0.6984 H   0  0  0  0  0  0  0  0  0  0  0  0
   -0.1779   -3.9680    1.8435 H   0  0  0  0  0  0  0  0  0  0  0  0
    1.6796   -5.0457    1.0311 H   0  0  0  0  0  0  0  0  0  0  0  0
    0.8063   -5.6294   -0.4453 H   0  0  0  0  0  0  0  0  0  0  0  0
    2.5812   -3.3211   -0.2409 H   0  0  0  0  0  0  0  0  0  0  0  0
    1.6672   -3.9057   -1.6625 H   0  0  0  0  0  0  0  0  0  0  0  0
    1.5339   -1.9535    1.3176 H   0  0  0  0  0  0  0  0  0  0  0  0
    1.0831   -0.4453   -2.1148 H   0  0  0  0  0  0  0  0  0  0  0  0
    2.5706    1.2640   -3.0253 H   0  0  0  0  0  0  0  0  0  0  0  0
    4.5303    1.5981    0.8083 H   0  0  0  0  0  0  0  0  0  0  0  0
    3.0230   -0.0980    1.7230 H   0  0  0  0  0  0  0  0  0  0  0  0
    4.5341    3.8586    0.0324 H   0  0  0  0  0  0  0  0  0  0  0  0
    5.6290    4.4327   -1.2631 H   0  0  0  0  0  0  0  0  0  0  0  0
    5.6751    3.2472   -3.3260 H   0  0  0  0  0  0  0  0  0  0  0  0
    4.8190    1.6971   -3.5556 H   0  0  0  0  0  0  0  0  0  0  0  0
   -0.1965   -0.6822    2.1371 H   0  0  0  0  0  0  0  0  0  0  0  0
   -2.2240    2.0117   -1.3786 H   0  0  0  0  0  0  0  0  0  0  0  0
   -3.4763    0.7906   -1.7307 H   0  0  0  0  0  0  0  0  0  0  0  0
   -2.3235    3.3601    0.7028 H   0  0  0  0  0  0  0  0  0  0  0  0
   -3.7292    4.2614    2.5188 H   0  0  0  0  0  0  0  0  0  0  0  0
   -6.7006    1.2601    1.7308 H   0  0  0  0  0  0  0  0  0  0  0  0
   -5.3079    0.3455   -0.0886 H   0  0  0  0  0  0  0  0  0  0  0  0
   -1.8575   -2.2876    1.6531 H   0  0  0  0  0  0  0  0  0  0  0  0
  1  2  1  0
  2  3  1  0
  3  4  1  0
  4  5  1  0
  5  6  1  0
  6  7  1  0
  7  8  2  0
  8  9  1  0
  9 10  2  0
 10 11  1  0
 11 12  2  0
 10 13  1  0
 13 14  1  0
 13 15  2  3
  6 16  1  0
 16 17  1  0
 17 18  2  0
 17 19  1  0
 19 20  1  0
 20 21  1  0
 21 22  2  0
 22 23  1  0
 23 24  2  0
 24 25  1  0
 24 26  1  0
 26 27  2  0
 19 28  1  0
 28 29  2  0
 28 30  1  0
  5  1  1  0
 12  7  1  0
 30 16  1  0
 30  1  1  0
 27 21  1  0
  1 31  1  6
  2 32  1  0
  2 33  1  0
  3 34  1  0
  3 35  1  0
  4 36  1  0
  4 37  1  0
  6 38  1  1
  8 39  1  0
  9 40  1  0
 11 41  1  0
 12 42  1  0
 14 43  1  0
 14 44  1  0
 15 45  1  0
 15 46  1  0
 16 47  1  1
 20 48  1  0
 20 49  1  0
 22 50  1  0
 23 51  1  0
 26 52  1  0
 27 53  1  0
 30 54  1  1
M  CHG  1  15   1
M  END
$$$$
