
     RDKit          3D

 39 42  0  0  0  0  0  0  0  0999 V2000
   -1.4403    1.2321    0.5988 C   0  0  2  0  0  0  0  0  0  0  0  0
   -1.9183    2.1991   -0.4906 C   0  0  0  0  0  0  0  0  0  0  0  0
   -1.0071    1.9797   -1.6979 C   0  0  0  0  0  0  0  0  0  0  0  0
   -0.6257    3.1963   -2.2398 F   0  0  0  0  0  0  0  0  0  0  0  0
   -1.6714    1.2420   -2.6649 F   0  0  0  0  0  0  0  0  0  0  0  0
    0.2148    1.2095   -1.1959 C   0  0  0  0  0  0  0  0  0  0  0  0
    0.0688    1.1174    0.3273 C   0  0  2  0  0  0  0  0  0  0  0  0
    0.6750   -0.1613    0.9417 C   0  0  1  0  0  0  0  0  0  0  0  0
   -0.0451   -1.3093    0.4991 O   0  0  0  0  0  0  0  0  0  0  0  0
   -1.4404   -1.3174    0.4562 C   0  0  0  0  0  0  0  0  0  0  0  0
   -2.1661   -0.1095    0.5347 C   0  0  0  0  0  0  0  0  0  0  0  0
   -3.5699   -0.1657    0.6168 C   0  0  0  0  0  0  0  0  0  0  0  0
   -4.2399   -1.3939    0.5271 C   0  0  0  0  0  0  0  0  0  0  0  0
   -5.6306   -1.4498    0.5866 O   0  0  0  0  0  0  0  0  0  0  0  0
   -3.5090   -2.5753    0.3767 C   0  0  0  0  0  0  0  0  0  0  0  0
   -2.1137   -2.5377    0.3460 C   0  0  0  0  0  0  0  0  0  0  0  0
    2.1515   -0.2906    0.6364 C   0  0  0  0  0  0  0  0  0  0  0  0
    2.6104   -1.0493   -0.4568 C   0  0  0  0  0  0  0  0  0  0  0  0
    3.9770   -1.1232   -0.7421 C   0  0  0  0  0  0  0  0  0  0  0  0
    4.9010   -0.4338    0.0538 C   0  0  0  0  0  0  0  0  0  0  0  0
    6.2649   -0.5004   -0.2215 O   0  0  0  0  0  0  0  0  0  0  0  0
    4.4510    0.3311    1.1337 C   0  0  0  0  0  0  0  0  0  0  0  0
    3.0851    0.4073    1.4215 C   0  0  0  0  0  0  0  0  0  0  0  0
   -1.6112    1.6736    1.6058 H   0  0  0  0  0  0  0  0  0  0  0  0
   -2.9867    2.0730   -0.7649 H   0  0  0  0  0  0  0  0  0  0  0  0
   -1.7918    3.2402   -0.1180 H   0  0  0  0  0  0  0  0  0  0  0  0
    1.1616    1.7264   -1.4661 H   0  0  0  0  0  0  0  0  0  0  0  0
    0.2263    0.1968   -1.6546 H   0  0  0  0  0  0  0  0  0  0  0  0
    0.5712    2.0034    0.7801 H   0  0  0  0  0  0  0  0  0  0  0  0
    0.5521   -0.0983    2.0466 H   0  0  0  0  0  0  0  0  0  0  0  0
   -4.1451    0.7422    0.7471 H   0  0  0  0  0  0  0  0  0  0  0  0
   -6.1904   -0.6121    0.6947 H   0  0  0  0  0  0  0  0  0  0  0  0
   -4.0227   -3.5254    0.3030 H   0  0  0  0  0  0  0  0  0  0  0  0
   -1.5531   -3.4600    0.2616 H   0  0  0  0  0  0  0  0  0  0  0  0
    1.9147   -1.5823   -1.0921 H   0  0  0  0  0  0  0  0  0  0  0  0
    4.3162   -1.7133   -1.5839 H   0  0  0  0  0  0  0  0  0  0  0  0
    6.6225   -1.0453   -0.9974 H   0  0  0  0  0  0  0  0  0  0  0  0
    5.1603    0.8705    1.7486 H   0  0  0  0  0  0  0  0  0  0  0  0
    2.7540    1.0133    2.2560 H   0  0  0  0  0  0  0  0  0  0  0  0
  1  2  1  0
  2  3  1  0
  3  4  1  0
  3  5  1  0
  3  6  1  0
  6  7  1  0
  7  8  1  0
  8  9  1  0
  9 10  1  0
 10 11  2  0
 11 12  1  0
 12 13  2  0
 13 14  1  0
 13 15  1  0
 15 16  2  0
  8 17  1  0
 17 18  2  0
 18 19  1  0
 19 20  2  0
 20 21  1  0
 20 22  1  0
 22 23  2  0
  7  1  1  0
 16 10  1  0
 23 17  1  0
 11  1  1  0
  1 24  1  1
  2 25  1  0
  2 26  1  0
  6 27  1  0
  6 28  1  0
  7 29  1  1
  8 30  1  1
 12 31  1  0
 14 32  1  0
 15 33  1  0
 16 34  1  0
 18 35  1  0
 19 36  1  0
 21 37  1  0
 22 38  1  0
 23 39  1  0
M  END
$$$$
