
     RDKit          3D

 55 57  0  0  0  0  0  0  0  0999 V2000
    5.6733    0.5084    0.6911 C   0  0  0  0  0  0  0  0  0  0  0  0
    5.2098   -0.0736   -0.5775 N   0  0  0  0  0  0  0  0  0  0  0  0
    6.3259   -0.7631   -1.2467 C   0  0  0  0  0  0  0  0  0  0  0  0
    4.6441    0.9794   -1.4458 C   0  0  0  0  0  0  0  0  0  0  0  0
    3.7816    0.3772   -2.5233 C   0  0  0  0  0  0  0  0  0  0  0  0
    2.6613   -0.3124   -2.2737 C   0  0  0  0  0  0  0  0  0  0  0  0
    2.1630   -0.5650   -0.9101 C   0  0  0  0  0  0  0  0  0  0  0  0
    2.5103   -1.7776   -0.2946 C   0  0  0  0  0  0  0  0  0  0  0  0
    2.1021   -2.0511    1.0121 C   0  0  0  0  0  0  0  0  0  0  0  0
    2.4537   -3.2203    1.6015 F   0  0  0  0  0  0  0  0  0  0  0  0
    1.3402   -1.1176    1.7145 C   0  0  0  0  0  0  0  0  0  0  0  0
    0.9746    0.0856    1.1085 C   0  0  0  0  0  0  0  0  0  0  0  0
    1.3639    0.3712   -0.2097 C   0  0  0  0  0  0  0  0  0  0  0  0
    0.8114    1.8964   -0.9264 S   0  0  0  0  0  6  0  0  0  0  0  0
    0.8839    1.8738   -2.4273 O   0  0  0  0  0  0  0  0  0  0  0  0
    1.6771    3.0102   -0.4094 O   0  0  0  0  0  0  0  0  0  0  0  0
   -0.8339    2.1933   -0.4616 N   0  0  0  0  0  0  0  0  0  0  0  0
   -1.8254    1.1503   -0.3982 C   0  0  0  0  0  0  0  0  0  0  0  0
   -1.7801    0.0926   -1.3168 C   0  0  0  0  0  0  0  0  0  0  0  0
   -2.7553   -0.8971   -1.3121 C   0  0  0  0  0  0  0  0  0  0  0  0
   -3.8089   -0.8586   -0.3942 C   0  0  0  0  0  0  0  0  0  0  0  0
   -4.7965   -2.0038   -0.4025 C   0  0  0  0  0  0  0  0  0  0  0  0
   -6.0764   -1.6885    0.3704 C   0  0  0  0  0  0  0  0  0  0  0  0
   -5.7293   -1.1123    1.7383 C   0  0  0  0  0  0  0  0  0  0  0  0
   -5.0011    0.2244    1.5806 C   0  0  0  0  0  0  0  0  0  0  0  0
   -3.8634    0.1790    0.5717 C   0  0  0  0  0  0  0  0  0  0  0  0
   -2.8760    1.2036    0.5520 C   0  0  0  0  0  0  0  0  0  0  0  0
   -2.9152    2.3052    1.5423 C   0  0  0  0  0  0  0  0  0  0  0  0
   -4.0888    3.0257    1.7443 O   0  0  0  0  0  0  0  0  0  0  0  0
   -1.8843    2.5959    2.2070 O   0  0  0  0  0  0  0  0  0  0  0  0
    6.1038   -0.2821    1.3431 H   0  0  0  0  0  0  0  0  0  0  0  0
    4.8154    0.9509    1.2421 H   0  0  0  0  0  0  0  0  0  0  0  0
    6.4406    1.2956    0.5168 H   0  0  0  0  0  0  0  0  0  0  0  0
    7.1614   -0.0619   -1.4680 H   0  0  0  0  0  0  0  0  0  0  0  0
    6.7057   -1.5860   -0.6037 H   0  0  0  0  0  0  0  0  0  0  0  0
    5.9806   -1.2257   -2.1958 H   0  0  0  0  0  0  0  0  0  0  0  0
    4.0121    1.6795   -0.8570 H   0  0  0  0  0  0  0  0  0  0  0  0
    5.4519    1.5874   -1.9125 H   0  0  0  0  0  0  0  0  0  0  0  0
    4.0837    0.5154   -3.5540 H   0  0  0  0  0  0  0  0  0  0  0  0
    2.1074   -0.7312   -3.1043 H   0  0  0  0  0  0  0  0  0  0  0  0
    3.1148   -2.5047   -0.8238 H   0  0  0  0  0  0  0  0  0  0  0  0
    1.0279   -1.3269    2.7295 H   0  0  0  0  0  0  0  0  0  0  0  0
    0.3781    0.7948    1.6679 H   0  0  0  0  0  0  0  0  0  0  0  0
   -1.0734    3.1629   -0.1584 H   0  0  0  0  0  0  0  0  0  0  0  0
   -0.9968    0.0378   -2.0601 H   0  0  0  0  0  0  0  0  0  0  0  0
   -2.6887   -1.7026   -2.0336 H   0  0  0  0  0  0  0  0  0  0  0  0
   -5.0703   -2.2600   -1.4494 H   0  0  0  0  0  0  0  0  0  0  0  0
   -4.3076   -2.8942    0.0498 H   0  0  0  0  0  0  0  0  0  0  0  0
   -6.6951   -0.9620   -0.2017 H   0  0  0  0  0  0  0  0  0  0  0  0
   -6.6680   -2.6205    0.4989 H   0  0  0  0  0  0  0  0  0  0  0  0
   -6.6620   -0.9565    2.3223 H   0  0  0  0  0  0  0  0  0  0  0  0
   -5.0878   -1.8281    2.2989 H   0  0  0  0  0  0  0  0  0  0  0  0
   -5.7337    0.9931    1.2519 H   0  0  0  0  0  0  0  0  0  0  0  0
   -4.6149    0.5152    2.5812 H   0  0  0  0  0  0  0  0  0  0  0  0
   -4.1266    3.7787    2.4207 H   0  0  0  0  0  0  0  0  0  0  0  0
  1  2  1  0
  2  3  1  0
  2  4  1  0
  4  5  1  0
  5  6  2  0
  6  7  1  0
  7  8  2  0
  8  9  1  0
  9 10  1  0
  9 11  2  0
 11 12  1  0
 12 13  2  0
 13 14  1  0
 14 15  2  0
 14 16  2  0
 14 17  1  0
 17 18  1  0
 18 19  2  0
 19 20  1  0
 20 21  2  0
 21 22  1  0
 22 23  1  0
 23 24  1  0
 24 25  1  0
 25 26  1  0
 26 27  2  0
 27 28  1  0
 28 29  1  0
 28 30  2  0
 13  7  1  0
 27 18  1  0
 26 21  1  0
  1 31  1  0
  1 32  1  0
  1 33  1  0
  3 34  1  0
  3 35  1  0
  3 36  1  0
  4 37  1  0
  4 38  1  0
  5 39  1  0
  6 40  1  0
  8 41  1  0
 11 42  1  0
 12 43  1  0
 17 44  1  0
 19 45  1  0
 20 46  1  0
 22 47  1  0
 22 48  1  0
 23 49  1  0
 23 50  1  0
 24 51  1  0
 24 52  1  0
 25 53  1  0
 25 54  1  0
 29 55  1  0
M  END
$$$$
