
     RDKit          3D

 50 53  0  0  0  0  0  0  0  0999 V2000
    6.9671    2.3584   -0.6281 C   0  0  0  0  0  0  0  0  0  0  0  0
    5.7444    2.4242    0.0987 O   0  0  0  0  0  0  0  0  0  0  0  0
    4.7327    1.4546    0.0353 C   0  0  0  0  0  0  0  0  0  0  0  0
    4.8393    0.3025   -0.7661 C   0  0  0  0  0  0  0  0  0  0  0  0
    3.8012   -0.6334   -0.7967 C   0  0  0  0  0  0  0  0  0  0  0  0
    2.6359   -0.4295   -0.0425 C   0  0  0  0  0  0  0  0  0  0  0  0
    2.5419    0.7097    0.7745 C   0  0  0  0  0  0  0  0  0  0  0  0
    3.5797    1.6451    0.8045 C   0  0  0  0  0  0  0  0  0  0  0  0
    1.5572   -1.4401   -0.0874 C   0  0  0  0  0  0  0  0  0  0  0  0
    0.1731   -1.2173   -0.0216 C   0  0  0  0  0  0  0  0  0  0  0  0
   -0.3949   -2.4811   -0.0997 C   0  0  0  0  0  0  0  0  0  0  0  0
   -1.7067   -2.9731   -0.1267 C   0  0  0  0  0  0  0  0  0  0  0  0
   -2.8500   -2.1090   -0.1728 N   0  0  0  0  0  0  0  0  0  0  0  0
   -4.1778   -2.5871    0.2087 C   0  0  0  0  0  0  0  0  0  0  0  0
   -5.2055   -1.4557    0.1383 C   0  0  0  0  0  0  0  0  0  0  0  0
   -6.4625   -1.9143    0.5552 O   0  0  0  0  0  0  0  0  0  0  0  0
   -1.8707   -4.3295   -0.1765 N   0  0  0  0  0  0  0  0  0  0  0  0
   -0.8026   -5.1836   -0.2263 C   0  0  0  0  0  0  0  0  0  0  0  0
    0.4714   -4.6964   -0.2442 N   0  0  0  0  0  0  0  0  0  0  0  0
    0.6511   -3.3558   -0.1833 C   0  0  0  0  0  0  0  0  0  0  0  0
    1.8023   -2.7341   -0.1894 O   0  0  0  0  0  0  0  0  0  0  0  0
   -0.5165    0.0790    0.1106 C   0  0  0  0  0  0  0  0  0  0  0  0
   -1.3551    0.3241    1.2075 C   0  0  0  0  0  0  0  0  0  0  0  0
   -1.9966    1.5583    1.3401 C   0  0  0  0  0  0  0  0  0  0  0  0
   -1.8019    2.5670    0.3891 C   0  0  0  0  0  0  0  0  0  0  0  0
   -2.4673    3.7888    0.5680 O   0  0  0  0  0  0  0  0  0  0  0  0
   -2.3609    4.8988   -0.3175 C   0  0  0  0  0  0  0  0  0  0  0  0
   -0.9500    2.3239   -0.7059 C   0  0  0  0  0  0  0  0  0  0  0  0
   -0.3113    1.0879   -0.8408 C   0  0  0  0  0  0  0  0  0  0  0  0
    7.5370    1.4513   -0.3354 H   0  0  0  0  0  0  0  0  0  0  0  0
    6.7623    2.3458   -1.7195 H   0  0  0  0  0  0  0  0  0  0  0  0
    7.5780    3.2535   -0.3916 H   0  0  0  0  0  0  0  0  0  0  0  0
    5.7190    0.1206   -1.3682 H   0  0  0  0  0  0  0  0  0  0  0  0
    3.9022   -1.5122   -1.4221 H   0  0  0  0  0  0  0  0  0  0  0  0
    1.6811    0.8689    1.4094 H   0  0  0  0  0  0  0  0  0  0  0  0
    3.4912    2.5200    1.4362 H   0  0  0  0  0  0  0  0  0  0  0  0
   -2.7446   -1.1398   -0.5441 H   0  0  0  0  0  0  0  0  0  0  0  0
   -4.4851   -3.4085   -0.4741 H   0  0  0  0  0  0  0  0  0  0  0  0
   -4.1406   -2.9795    1.2482 H   0  0  0  0  0  0  0  0  0  0  0  0
   -5.2643   -1.0532   -0.8989 H   0  0  0  0  0  0  0  0  0  0  0  0
   -4.8890   -0.6301    0.8112 H   0  0  0  0  0  0  0  0  0  0  0  0
   -6.8327   -2.4491   -0.1951 H   0  0  0  0  0  0  0  0  0  0  0  0
   -0.9702   -6.2509   -0.2679 H   0  0  0  0  0  0  0  0  0  0  0  0
   -1.5130   -0.4413    1.9576 H   0  0  0  0  0  0  0  0  0  0  0  0
   -2.6467    1.7334    2.1879 H   0  0  0  0  0  0  0  0  0  0  0  0
   -2.9899    5.7287    0.0643 H   0  0  0  0  0  0  0  0  0  0  0  0
   -2.7209    4.6159   -1.3292 H   0  0  0  0  0  0  0  0  0  0  0  0
   -1.3073    5.2459   -0.3696 H   0  0  0  0  0  0  0  0  0  0  0  0
   -0.7749    3.0822   -1.4566 H   0  0  0  0  0  0  0  0  0  0  0  0
    0.3413    0.9158   -1.6880 H   0  0  0  0  0  0  0  0  0  0  0  0
  1  2  1  0
  2  3  1  0
  3  4  2  0
  4  5  1  0
  5  6  2  0
  6  7  1  0
  7  8  2  0
  6  9  1  0
  9 10  2  0
 10 11  1  0
 11 12  2  0
 12 13  1  0
 13 14  1  0
 14 15  1  0
 15 16  1  0
 12 17  1  0
 17 18  2  0
 18 19  1  0
 19 20  2  0
 20 21  1  0
 10 22  1  0
 22 23  2  0
 23 24  1  0
 24 25  2  0
 25 26  1  0
 26 27  1  0
 25 28  1  0
 28 29  2  0
  8  3  1  0
 21  9  1  0
 29 22  1  0
 20 11  1  0
  1 30  1  0
  1 31  1  0
  1 32  1  0
  4 33  1  0
  5 34  1  0
  7 35  1  0
  8 36  1  0
 13 37  1  0
 14 38  1  0
 14 39  1  0
 15 40  1  0
 15 41  1  0
 16 42  1  0
 18 43  1  0
 23 44  1  0
 24 45  1  0
 27 46  1  0
 27 47  1  0
 27 48  1  0
 28 49  1  0
 29 50  1  0
M  END
$$$$
