
     RDKit          3D

142146  0  0  0  0  0  0  0  0999 V2000
    7.0040   -1.3752   -3.8941 C   0  0  0  0  0  0  0  0  0  0  0  0
    7.4588   -1.6486   -2.4605 C   0  0  0  0  0  0  0  0  0  0  0  0
    7.1581   -0.4852   -1.4997 C   0  0  0  0  0  0  0  0  0  0  0  0
    5.6651   -0.1501   -1.3135 C   0  0  0  0  0  0  0  0  0  0  0  0
    4.8824   -1.2150   -0.5168 C   0  0  2  0  0  0  0  0  0  0  0  0
    4.5849   -2.3811   -1.3539 N   0  0  0  0  0  0  0  0  0  0  0  0
    4.6353   -3.7269   -0.8598 C   0  0  0  0  0  0  0  0  0  0  0  0
    4.1955   -4.8545   -1.7341 C   0  0  0  0  0  0  0  0  0  0  0  0
    5.0478   -3.9673    0.3070 O   0  0  0  0  0  0  0  0  0  0  0  0
    3.5919   -0.6222   -0.0180 C   0  0  0  0  0  0  0  0  0  0  0  0
    2.5959   -0.5538   -0.7904 O   0  0  0  0  0  0  0  0  0  0  0  0
    3.5172   -0.0757    1.3084 N   0  0  0  0  0  0  0  0  0  0  0  0
    2.3242    0.6172    1.7996 C   0  0  1  0  0  0  0  0  0  0  0  0
    1.2753   -0.3933    2.3311 C   0  0  0  0  0  0  0  0  0  0  0  0
    1.5455   -0.9490    3.7092 C   0  0  0  0  0  0  0  0  0  0  0  0
    0.9232   -0.4436    4.6820 O   0  0  0  0  0  0  0  0  0  0  0  0
    2.4900   -2.0002    3.9746 N   0  0  0  0  0  0  0  0  0  0  0  0
    3.1432   -2.8461    2.9757 C   0  0  0  0  0  0  0  0  0  0  0  0
    2.6285   -4.2896    3.0647 C   0  0  0  0  0  0  0  0  0  0  0  0
    1.3075   -4.5063    2.3069 C   0  0  0  0  0  0  0  0  0  0  0  0
    1.5276   -4.5930    0.7827 C   0  0  0  0  0  0  0  0  0  0  0  0
    0.2918   -5.0595   -0.0055 C   0  0  2  0  0  0  0  0  0  0  0  0
   -0.8278   -4.1305    0.1770 N   0  0  0  0  0  0  0  0  0  0  0  0
   -1.0810   -3.0536   -0.7374 C   0  0  0  0  0  0  0  0  0  0  0  0
   -0.2405   -2.7710   -1.6353 O   0  0  0  0  0  0  0  0  0  0  0  0
   -2.3757   -2.2920   -0.6676 C   0  0  2  0  0  0  0  0  0  0  0  0
   -3.2632   -2.6609   -1.8670 C   0  0  0  0  0  0  0  0  0  0  0  0
   -4.5954   -1.9730   -1.7918 C   0  0  0  0  0  0  0  0  0  0  0  0
   -4.9845   -0.8364   -2.4936 C   0  0  0  0  0  0  0  0  0  0  0  0
   -6.2426   -0.4774   -2.1489 N   0  0  0  0  0  0  0  0  0  0  0  0
   -6.6452   -1.3680   -1.2265 C   0  0  0  0  0  0  0  0  0  0  0  0
   -7.8661   -1.3978   -0.5530 C   0  0  0  0  0  0  0  0  0  0  0  0
   -8.0629   -2.4058    0.4079 C   0  0  0  0  0  0  0  0  0  0  0  0
   -7.0503   -3.3569    0.6663 C   0  0  0  0  0  0  0  0  0  0  0  0
   -5.8302   -3.3064   -0.0325 C   0  0  0  0  0  0  0  0  0  0  0  0
   -5.6641   -2.2943   -0.9774 C   0  0  0  0  0  0  0  0  0  0  0  0
   -2.1019   -0.8531   -0.6575 N   0  0  0  0  0  0  0  0  0  0  0  0
   -2.1089   -0.0783    0.5516 C   0  0  0  0  0  0  0  0  0  0  0  0
   -2.1731   -0.6669    1.6660 O   0  0  0  0  0  0  0  0  0  0  0  0
   -1.9587    1.4288    0.5145 C   0  0  2  0  0  0  0  0  0  0  0  0
   -2.7859    2.1350    1.6221 C   0  0  0  0  0  0  0  0  0  0  0  0
   -4.2977    2.2840    1.3553 C   0  0  0  0  0  0  0  0  0  0  0  0
   -5.0395    0.9485    1.2406 C   0  0  0  0  0  0  0  0  0  0  0  0
   -6.4805    1.1804    1.1703 N   0  0  0  0  0  0  0  0  0  0  0  0
   -7.3063    1.3508    2.3305 C   0  0  0  0  0  0  0  0  0  0  0  0
   -8.7199    1.4962    2.1765 N   0  0  0  0  0  0  0  0  0  0  0  0
   -6.7784    1.3629    3.5152 N   0  0  0  0  0  0  0  0  0  0  0  0
   -2.2987    1.9640   -0.8098 N   0  0  0  0  0  0  0  0  0  0  0  0
   -1.3200    2.4237   -1.7549 C   0  0  0  0  0  0  0  0  0  0  0  0
   -1.3277    1.9394   -2.9184 O   0  0  0  0  0  0  0  0  0  0  0  0
   -0.3500    3.5423   -1.4419 C   0  0  1  0  0  0  0  0  0  0  0  0
   -1.0739    4.8079   -0.9260 C   0  0  0  0  0  0  0  0  0  0  0  0
   -1.9485    5.4158   -1.9951 C   0  0  0  0  0  0  0  0  0  0  0  0
   -1.3799    6.2152   -3.0016 C   0  0  0  0  0  0  0  0  0  0  0  0
   -2.1820    6.7499   -4.0142 C   0  0  0  0  0  0  0  0  0  0  0  0
   -3.5548    6.4875   -4.0328 C   0  0  0  0  0  0  0  0  0  0  0  0
   -4.1270    5.6869   -3.0403 C   0  0  0  0  0  0  0  0  0  0  0  0
   -3.3282    5.1491   -2.0265 C   0  0  0  0  0  0  0  0  0  0  0  0
    0.7375    3.0665   -0.5718 N   0  0  0  0  0  0  0  0  0  0  0  0
    1.0706    3.5861    0.7312 C   0  0  0  0  0  0  0  0  0  0  0  0
    0.1560    3.9422    1.5208 O   0  0  0  0  0  0  0  0  0  0  0  0
    2.5030    3.7446    1.1874 C   0  0  2  0  0  0  0  0  0  0  0  0
    3.5746    3.3410    0.1517 C   0  0  0  0  0  0  0  0  0  0  0  0
    4.9509    3.7058    0.6255 C   0  0  0  0  0  0  0  0  0  0  0  0
    5.5625    4.9329    0.4922 C   0  0  0  0  0  0  0  0  0  0  0  0
    6.7558    4.9006    1.1180 N   0  0  0  0  0  0  0  0  0  0  0  0
    6.8352    3.6507    1.6232 C   0  0  0  0  0  0  0  0  0  0  0  0
    5.7509    2.9043    1.3453 N   0  0  0  0  0  0  0  0  0  0  0  0
    2.7161    3.1005    2.4931 N   0  0  0  0  0  0  0  0  0  0  0  0
    2.7275    1.6905    2.7952 C   0  0  0  0  0  0  0  0  0  0  0  0
    3.1664    1.3360    3.9226 O   0  0  0  0  0  0  0  0  0  0  0  0
   -0.1040   -6.4676    0.3530 C   0  0  0  0  0  0  0  0  0  0  0  0
   -1.0722   -6.7095    1.3246 O   0  0  0  0  0  0  0  0  0  0  0  0
    0.4805   -7.4377   -0.1999 O   0  0  0  0  0  0  0  0  0  0  0  0
    7.3978   -0.3977   -4.2464 H   0  0  0  0  0  0  0  0  0  0  0  0
    5.8977   -1.3762   -3.9646 H   0  0  0  0  0  0  0  0  0  0  0  0
    7.3892   -2.1740   -4.5623 H   0  0  0  0  0  0  0  0  0  0  0  0
    8.5600   -1.8036   -2.4736 H   0  0  0  0  0  0  0  0  0  0  0  0
    7.0108   -2.5927   -2.0919 H   0  0  0  0  0  0  0  0  0  0  0  0
    7.6760    0.4249   -1.8753 H   0  0  0  0  0  0  0  0  0  0  0  0
    7.6048   -0.7177   -0.5082 H   0  0  0  0  0  0  0  0  0  0  0  0
    5.6277    0.8083   -0.7497 H   0  0  0  0  0  0  0  0  0  0  0  0
    5.1753    0.0473   -2.2899 H   0  0  0  0  0  0  0  0  0  0  0  0
    5.4938   -1.5198    0.3605 H   0  0  0  0  0  0  0  0  0  0  0  0
    4.1901   -2.2228   -2.3092 H   0  0  0  0  0  0  0  0  0  0  0  0
    4.3157   -5.8263   -1.2091 H   0  0  0  0  0  0  0  0  0  0  0  0
    3.1271   -4.7204   -2.0041 H   0  0  0  0  0  0  0  0  0  0  0  0
    4.8080   -4.8673   -2.6597 H   0  0  0  0  0  0  0  0  0  0  0  0
    4.3282   -0.2122    1.9536 H   0  0  0  0  0  0  0  0  0  0  0  0
    1.8348    1.1084    0.9431 H   0  0  0  0  0  0  0  0  0  0  0  0
    1.1367   -1.2232    1.6070 H   0  0  0  0  0  0  0  0  0  0  0  0
    0.2974    0.1317    2.3671 H   0  0  0  0  0  0  0  0  0  0  0  0
    2.6719   -2.2329    4.9776 H   0  0  0  0  0  0  0  0  0  0  0  0
    3.0154   -2.4574    1.9543 H   0  0  0  0  0  0  0  0  0  0  0  0
    4.2350   -2.8447    3.1818 H   0  0  0  0  0  0  0  0  0  0  0  0
    3.4022   -4.9794    2.6621 H   0  0  0  0  0  0  0  0  0  0  0  0
    2.4858   -4.5657    4.1328 H   0  0  0  0  0  0  0  0  0  0  0  0
    0.8699   -5.4595    2.6702 H   0  0  0  0  0  0  0  0  0  0  0  0
    0.5907   -3.6912    2.5466 H   0  0  0  0  0  0  0  0  0  0  0  0
    1.8277   -3.5962    0.3949 H   0  0  0  0  0  0  0  0  0  0  0  0
    2.3614   -5.2968    0.5680 H   0  0  0  0  0  0  0  0  0  0  0  0
    0.5751   -5.0753   -1.0820 H   0  0  0  0  0  0  0  0  0  0  0  0
   -1.4179   -4.2032    1.0369 H   0  0  0  0  0  0  0  0  0  0  0  0
   -2.9184   -2.5837    0.2592 H   0  0  0  0  0  0  0  0  0  0  0  0
   -2.7575   -2.3841   -2.8182 H   0  0  0  0  0  0  0  0  0  0  0  0
   -3.4317   -3.7602   -1.8852 H   0  0  0  0  0  0  0  0  0  0  0  0
   -4.3777   -0.2993   -3.2104 H   0  0  0  0  0  0  0  0  0  0  0  0
   -6.7817    0.3394   -2.5140 H   0  0  0  0  0  0  0  0  0  0  0  0
   -8.6315   -0.6586   -0.7508 H   0  0  0  0  0  0  0  0  0  0  0  0
   -8.9957   -2.4502    0.9548 H   0  0  0  0  0  0  0  0  0  0  0  0
   -7.2128   -4.1260    1.4095 H   0  0  0  0  0  0  0  0  0  0  0  0
   -5.0470   -4.0284    0.1636 H   0  0  0  0  0  0  0  0  0  0  0  0
   -1.7925   -0.4086   -1.5504 H   0  0  0  0  0  0  0  0  0  0  0  0
   -0.8928    1.6246    0.7343 H   0  0  0  0  0  0  0  0  0  0  0  0
   -2.6325    1.6323    2.6023 H   0  0  0  0  0  0  0  0  0  0  0  0
   -2.3789    3.1602    1.7488 H   0  0  0  0  0  0  0  0  0  0  0  0
   -4.7310    2.8598    2.2024 H   0  0  0  0  0  0  0  0  0  0  0  0
   -4.4691    2.8873    0.4391 H   0  0  0  0  0  0  0  0  0  0  0  0
   -4.7233    0.4298    0.3137 H   0  0  0  0  0  0  0  0  0  0  0  0
   -4.8011    0.2870    2.1006 H   0  0  0  0  0  0  0  0  0  0  0  0
   -6.9274    1.2237    0.2264 H   0  0  0  0  0  0  0  0  0  0  0  0
   -9.1496    1.4820    1.2249 H   0  0  0  0  0  0  0  0  0  0  0  0
   -9.3422    1.6100    3.0071 H   0  0  0  0  0  0  0  0  0  0  0  0
   -7.3602    1.4740    4.3749 H   0  0  0  0  0  0  0  0  0  0  0  0
   -3.2362    1.7187   -1.2009 H   0  0  0  0  0  0  0  0  0  0  0  0
    0.1368    3.8353   -2.4008 H   0  0  0  0  0  0  0  0  0  0  0  0
   -0.3209    5.5653   -0.6160 H   0  0  0  0  0  0  0  0  0  0  0  0
   -1.6901    4.5700   -0.0346 H   0  0  0  0  0  0  0  0  0  0  0  0
   -0.3159    6.4188   -3.0034 H   0  0  0  0  0  0  0  0  0  0  0  0
   -1.7378    7.3649   -4.7868 H   0  0  0  0  0  0  0  0  0  0  0  0
   -4.1742    6.9017   -4.8177 H   0  0  0  0  0  0  0  0  0  0  0  0
   -5.1895    5.4806   -3.0581 H   0  0  0  0  0  0  0  0  0  0  0  0
   -3.7841    4.5243   -1.2696 H   0  0  0  0  0  0  0  0  0  0  0  0
    1.3721    2.3535   -0.9954 H   0  0  0  0  0  0  0  0  0  0  0  0
    2.6282    4.8418    1.3348 H   0  0  0  0  0  0  0  0  0  0  0  0
    3.3815    3.8758   -0.8042 H   0  0  0  0  0  0  0  0  0  0  0  0
    3.5483    2.2580   -0.0667 H   0  0  0  0  0  0  0  0  0  0  0  0
    5.1602    5.8013   -0.0132 H   0  0  0  0  0  0  0  0  0  0  0  0
    7.6747    3.2928    2.2025 H   0  0  0  0  0  0  0  0  0  0  0  0
    5.5703    1.9206    1.6429 H   0  0  0  0  0  0  0  0  0  0  0  0
    2.9329    3.7424    3.2895 H   0  0  0  0  0  0  0  0  0  0  0  0
   -1.3242   -7.6558    1.5832 H   0  0  0  0  0  0  0  0  0  0  0  0
  1  2  1  0
  2  3  1  0
  3  4  1  0
  4  5  1  0
  5  6  1  0
  6  7  1  0
  7  8  1  0
  7  9  2  0
  5 10  1  0
 10 11  2  0
 10 12  1  0
 12 13  1  0
 13 14  1  0
 14 15  1  0
 15 16  2  0
 15 17  1  0
 17 18  1  0
 18 19  1  0
 19 20  1  0
 20 21  1  0
 21 22  1  0
 22 23  1  0
 23 24  1  0
 24 25  2  0
 24 26  1  0
 26 27  1  0
 27 28  1  0
 28 29  2  0
 29 30  1  0
 30 31  1  0
 31 32  2  0
 32 33  1  0
 33 34  2  0
 34 35  1  0
 35 36  2  0
 26 37  1  0
 37 38  1  0
 38 39  2  0
 38 40  1  0
 40 41  1  0
 41 42  1  0
 42 43  1  0
 43 44  1  0
 44 45  1  0
 45 46  1  0
 45 47  2  3
 40 48  1  0
 48 49  1  0
 49 50  2  0
 49 51  1  0
 51 52  1  0
 52 53  1  0
 53 54  2  0
 54 55  1  0
 55 56  2  0
 56 57  1  0
 57 58  2  0
 51 59  1  0
 59 60  1  0
 60 61  2  0
 60 62  1  0
 62 63  1  0
 63 64  1  0
 64 65  2  0
 65 66  1  0
 66 67  2  0
 67 68  1  0
 62 69  1  0
 69 70  1  0
 70 71  2  0
 22 72  1  0
 72 73  1  0
 72 74  2  0
 70 13  1  0
 36 28  1  0
 58 53  1  0
 68 64  1  0
 36 31  1  0
  1 75  1  0
  1 76  1  0
  1 77  1  0
  2 78  1  0
  2 79  1  0
  3 80  1  0
  3 81  1  0
  4 82  1  0
  4 83  1  0
  5 84  1  1
  6 85  1  0
  8 86  1  0
  8 87  1  0
  8 88  1  0
 12 89  1  0
 13 90  1  6
 14 91  1  0
 14 92  1  0
 17 93  1  0
 18 94  1  0
 18 95  1  0
 19 96  1  0
 19 97  1  0
 20 98  1  0
 20 99  1  0
 21100  1  0
 21101  1  0
 22102  1  6
 23103  1  0
 26104  1  1
 27105  1  0
 27106  1  0
 29107  1  0
 30108  1  0
 32109  1  0
 33110  1  0
 34111  1  0
 35112  1  0
 37113  1  0
 40114  1  1
 41115  1  0
 41116  1  0
 42117  1  0
 42118  1  0
 43119  1  0
 43120  1  0
 44121  1  0
 46122  1  0
 46123  1  0
 47124  1  0
 48125  1  0
 51126  1  6
 52127  1  0
 52128  1  0
 54129  1  0
 55130  1  0
 56131  1  0
 57132  1  0
 58133  1  0
 59134  1  0
 62135  1  1
 63136  1  0
 63137  1  0
 65138  1  0
 67139  1  0
 68140  1  0
 69141  1  0
 73142  1  0
M  END
$$$$
