
     RDKit          3D

 18 18  0  0  0  0  0  0  0  0999 V2000
    3.1418    0.2389   -0.4814 N   0  0  0  0  0  0  0  0  0  0  0  0
    1.7322    0.0422   -0.3403 C   0  0  0  0  0  0  0  0  0  0  0  0
    0.9870    0.8664    0.5106 C   0  0  0  0  0  0  0  0  0  0  0  0
   -0.3965    0.6808    0.6554 C   0  0  0  0  0  0  0  0  0  0  0  0
   -1.1109    1.5189    1.5114 O   0  0  0  0  0  0  0  0  0  0  0  0
   -1.0503   -0.3474   -0.0628 C   0  0  0  0  0  0  0  0  0  0  0  0
   -0.2875   -1.1690   -0.9154 C   0  0  0  0  0  0  0  0  0  0  0  0
    1.0888   -0.9753   -1.0519 C   0  0  0  0  0  0  0  0  0  0  0  0
   -2.5131   -0.5789    0.0608 C   0  0  0  0  0  0  0  0  0  0  0  0
   -3.2954    0.2154    0.8947 O   0  0  0  0  0  0  0  0  0  0  0  0
   -3.0661   -1.5044   -0.5934 O   0  0  0  0  0  0  0  0  0  0  0  0
    3.7061   -0.3711   -1.1141 H   0  0  0  0  0  0  0  0  0  0  0  0
    3.6316    0.9960    0.0456 H   0  0  0  0  0  0  0  0  0  0  0  0
    1.4829    1.6552    1.0629 H   0  0  0  0  0  0  0  0  0  0  0  0
   -0.6577    2.2602    2.0331 H   0  0  0  0  0  0  0  0  0  0  0  0
   -0.7544   -1.9659   -1.4807 H   0  0  0  0  0  0  0  0  0  0  0  0
    1.6541   -1.6198   -1.7135 H   0  0  0  0  0  0  0  0  0  0  0  0
   -4.2926    0.0578    0.9791 H   0  0  0  0  0  0  0  0  0  0  0  0
  1  2  1  0
  2  3  2  0
  3  4  1  0
  4  5  1  0
  4  6  2  0
  6  7  1  0
  7  8  2  0
  6  9  1  0
  9 10  1  0
  9 11  2  0
  8  2  1  0
  1 12  1  0
  1 13  1  0
  3 14  1  0
  5 15  1  0
  7 16  1  0
  8 17  1  0
 10 18  1  0
M  END
$$$$
