
     RDKit          3D

 29 31  0  0  0  0  0  0  0  0999 V2000
   -3.4791    2.2652   -0.1571 N   0  0  0  0  0  0  0  0  0  0  0  0
   -2.9003    1.0039    0.1762 C   0  0  0  0  0  0  0  0  0  0  0  0
   -3.4803    0.2268    1.1473 N   0  0  0  0  0  0  0  0  0  0  0  0
   -2.9575   -0.9843    1.4966 C   0  0  0  0  0  0  0  0  0  0  0  0
   -3.5000   -1.6819    2.3933 O   0  0  0  0  0  0  0  0  0  0  0  0
   -1.8148   -1.4157    0.8362 C   0  0  0  0  0  0  0  0  0  0  0  0
   -1.2532   -0.6335   -0.1246 C   0  0  0  0  0  0  0  0  0  0  0  0
   -1.7711    0.5726   -0.4692 N   0  0  0  0  0  0  0  0  0  0  0  0
   -0.1360   -1.2914   -0.5958 C   0  0  0  0  0  0  0  0  0  0  0  0
    0.8731   -0.8013   -1.5892 C   0  0  0  0  0  0  0  0  0  0  0  0
    1.9476   -0.0139   -0.8915 C   0  0  0  0  0  0  0  0  0  0  0  0
    3.0270   -0.6695   -0.2789 C   0  0  0  0  0  0  0  0  0  0  0  0
    3.9772    0.0458    0.3808 N   0  0  0  0  0  0  0  0  0  0  0  0
    3.9146    1.4006    0.4749 C   0  0  0  0  0  0  0  0  0  0  0  0
    2.8535    2.0940   -0.1101 C   0  0  0  0  0  0  0  0  0  0  0  0
    1.8648    1.3829   -0.7923 C   0  0  0  0  0  0  0  0  0  0  0  0
   -0.0719   -2.4717    0.1444 C   0  0  0  0  0  0  0  0  0  0  0  0
   -1.1081   -2.5456    1.0146 N   0  0  0  0  0  0  0  0  0  0  0  0
   -3.0509    2.8705   -0.8922 H   0  0  0  0  0  0  0  0  0  0  0  0
   -4.3394    2.5963    0.3333 H   0  0  0  0  0  0  0  0  0  0  0  0
   -1.3237    1.1564   -1.2101 H   0  0  0  0  0  0  0  0  0  0  0  0
    1.3237   -1.6700   -2.1166 H   0  0  0  0  0  0  0  0  0  0  0  0
    0.3718   -0.1799   -2.3620 H   0  0  0  0  0  0  0  0  0  0  0  0
    3.1107   -1.7477   -0.3238 H   0  0  0  0  0  0  0  0  0  0  0  0
    4.6872    1.9392    1.0071 H   0  0  0  0  0  0  0  0  0  0  0  0
    2.7970    3.1721   -0.0337 H   0  0  0  0  0  0  0  0  0  0  0  0
    1.0397    1.9198   -1.2424 H   0  0  0  0  0  0  0  0  0  0  0  0
    0.7004   -3.2253    0.0613 H   0  0  0  0  0  0  0  0  0  0  0  0
   -1.3020   -3.3143    1.6943 H   0  0  0  0  0  0  0  0  0  0  0  0
  1  2  1  0
  2  3  2  0
  3  4  1  0
  4  5  2  0
  4  6  1  0
  6  7  2  0
  7  8  1  0
  7  9  1  0
  9 10  1  0
 10 11  1  0
 11 12  2  0
 12 13  1  0
 13 14  2  0
 14 15  1  0
 15 16  2  0
  9 17  2  0
 17 18  1  0
  8  2  1  0
 16 11  1  0
 18  6  1  0
  1 19  1  0
  1 20  1  0
  8 21  1  0
 10 22  1  0
 10 23  1  0
 12 24  1  0
 14 25  1  0
 15 26  1  0
 16 27  1  0
 17 28  1  0
 18 29  1  0
M  END
$$$$
