
     RDKit          3D

 28 28  0  0  0  0  0  0  0  0999 V2000
    2.5368   -0.2183   -0.0022 C   0  0  2  0  0  0  0  0  0  0  0  0
    3.3409    0.0096    1.2841 C   0  0  0  0  0  0  0  0  0  0  0  0
    3.1618    1.3264    1.7276 O   0  0  0  0  0  0  0  0  0  0  0  0
    1.1019   -0.0308    0.2382 N   0  0  0  0  0  0  0  0  0  0  0  0
    0.1604    0.1022   -0.8383 C   0  0  0  0  0  0  0  0  0  0  0  0
    0.5679    0.1270   -2.0317 O   0  0  0  0  0  0  0  0  0  0  0  0
   -1.2901    0.1672   -0.5576 C   0  0  0  0  0  0  0  0  0  0  0  0
   -2.1475    1.0748   -1.2285 C   0  0  0  0  0  0  0  0  0  0  0  0
   -1.6615    2.0349   -2.1200 O   0  0  0  0  0  0  0  0  0  0  0  0
   -3.5283    1.0421   -0.9793 C   0  0  0  0  0  0  0  0  0  0  0  0
   -4.3707    1.9263   -1.6516 O   0  0  0  0  0  0  0  0  0  0  0  0
   -4.0554    0.1336   -0.0533 C   0  0  0  0  0  0  0  0  0  0  0  0
   -3.2110   -0.7425    0.6273 C   0  0  0  0  0  0  0  0  0  0  0  0
   -1.8380   -0.7281    0.3775 C   0  0  0  0  0  0  0  0  0  0  0  0
    2.7919   -1.6017   -0.5280 C   0  0  0  0  0  0  0  0  0  0  0  0
    3.5985   -1.7779   -1.6478 O   0  0  0  0  0  0  0  0  0  0  0  0
    2.2981   -2.6048    0.0549 O   0  0  0  0  0  0  0  0  0  0  0  0
    2.8798    0.5258   -0.7553 H   0  0  0  0  0  0  0  0  0  0  0  0
    4.4217   -0.1663    1.0807 H   0  0  0  0  0  0  0  0  0  0  0  0
    3.0060   -0.7021    2.0730 H   0  0  0  0  0  0  0  0  0  0  0  0
    3.6955    1.4115    2.5600 H   0  0  0  0  0  0  0  0  0  0  0  0
    0.7488    0.0247    1.2209 H   0  0  0  0  0  0  0  0  0  0  0  0
   -0.6763    2.2111   -2.2642 H   0  0  0  0  0  0  0  0  0  0  0  0
   -5.3715    1.9307   -1.4921 H   0  0  0  0  0  0  0  0  0  0  0  0
   -5.1198    0.1099    0.1428 H   0  0  0  0  0  0  0  0  0  0  0  0
   -3.6226   -1.4428    1.3427 H   0  0  0  0  0  0  0  0  0  0  0  0
   -1.2055   -1.4380    0.8966 H   0  0  0  0  0  0  0  0  0  0  0  0
    3.7881   -2.7045   -2.0107 H   0  0  0  0  0  0  0  0  0  0  0  0
  1  2  1  0
  2  3  1  0
  1  4  1  0
  4  5  1  0
  5  6  2  0
  5  7  1  0
  7  8  2  0
  8  9  1  0
  8 10  1  0
 10 11  1  0
 10 12  2  0
 12 13  1  0
 13 14  2  0
  1 15  1  0
 15 16  1  0
 15 17  2  0
 14  7  1  0
  1 18  1  6
  2 19  1  0
  2 20  1  0
  3 21  1  0
  4 22  1  0
  9 23  1  0
 11 24  1  0
 12 25  1  0
 13 26  1  0
 14 27  1  0
 16 28  1  0
M  END
$$$$
