
     RDKit          3D

 53 54  0  0  0  0  0  0  0  0999 V2000
    6.6264    2.4172    0.6104 C   0  0  0  0  0  0  0  0  0  0  0  0
    6.9362    1.3508   -0.4397 C   0  0  0  0  0  0  0  0  0  0  0  0
    6.9649   -0.0713    0.1449 C   0  0  0  0  0  0  0  0  0  0  0  0
    5.5907   -0.5706    0.6000 C   0  0  0  0  0  0  0  0  0  0  0  0
    4.6771   -0.5609   -0.4949 O   0  0  0  0  0  0  0  0  0  0  0  0
    3.3340   -0.9552   -0.4110 C   0  0  0  0  0  0  0  0  0  0  0  0
    2.7558   -1.4204    0.7859 C   0  0  0  0  0  0  0  0  0  0  0  0
    1.4105   -1.7997    0.8168 C   0  0  0  0  0  0  0  0  0  0  0  0
    0.6292   -1.7263   -0.3430 C   0  0  0  0  0  0  0  0  0  0  0  0
    1.2006   -1.2575   -1.5331 C   0  0  0  0  0  0  0  0  0  0  0  0
    2.5454   -0.8778   -1.5650 C   0  0  0  0  0  0  0  0  0  0  0  0
   -1.0716   -2.1787   -0.2873 S   0  0  0  0  0  6  0  0  0  0  0  0
   -1.5503   -2.5355   -1.6684 O   0  0  0  0  0  0  0  0  0  0  0  0
   -1.2326   -3.3813    0.6005 O   0  0  0  0  0  0  0  0  0  0  0  0
   -2.0020   -0.8486    0.3567 N   0  0  0  0  0  0  0  0  0  0  0  0
   -1.8745    0.3401   -0.4858 C   0  0  0  0  0  0  0  0  0  0  0  0
   -3.1440    1.1468   -0.2709 C   0  0  2  0  0  0  0  0  0  0  0  0
   -4.2040    0.0756   -0.0610 C   0  0  0  0  0  0  0  0  0  0  0  0
   -3.4375   -1.1634    0.4218 C   0  0  2  0  0  0  0  0  0  0  0  0
   -3.8098   -1.5153    1.8370 C   0  0  0  0  0  0  0  0  0  0  0  0
   -3.3860   -0.8086    2.7917 O   0  0  0  0  0  0  0  0  0  0  0  0
   -4.6717   -2.6252    2.1035 N   0  0  0  0  0  0  0  0  0  0  0  0
   -5.0211   -2.9352    3.3748 O   0  0  0  0  0  0  0  0  0  0  0  0
   -3.4315    1.9993   -1.4346 N   0  0  0  0  0  0  0  0  0  0  0  0
   -4.7518    3.0942   -1.1195 S   0  0  0  0  0  6  0  0  0  0  0  0
   -6.2986    2.3345   -1.5666 C   0  0  0  0  0  0  0  0  0  0  0  0
   -4.5705    4.3284   -1.9576 O   0  0  0  0  0  0  0  0  0  0  0  0
   -4.7907    3.4929    0.3300 O   0  0  0  0  0  0  0  0  0  0  0  0
    5.5793    2.3258    0.9659 H   0  0  0  0  0  0  0  0  0  0  0  0
    7.3209    2.3280    1.4727 H   0  0  0  0  0  0  0  0  0  0  0  0
    6.7503    3.4246    0.1601 H   0  0  0  0  0  0  0  0  0  0  0  0
    7.9363    1.5695   -0.8727 H   0  0  0  0  0  0  0  0  0  0  0  0
    6.1951    1.4152   -1.2654 H   0  0  0  0  0  0  0  0  0  0  0  0
    7.6713   -0.1094    1.0026 H   0  0  0  0  0  0  0  0  0  0  0  0
    7.3507   -0.7650   -0.6335 H   0  0  0  0  0  0  0  0  0  0  0  0
    5.2061    0.0657    1.4248 H   0  0  0  0  0  0  0  0  0  0  0  0
    5.6997   -1.6097    0.9795 H   0  0  0  0  0  0  0  0  0  0  0  0
    3.3350   -1.4903    1.6964 H   0  0  0  0  0  0  0  0  0  0  0  0
    0.9772   -2.1472    1.7463 H   0  0  0  0  0  0  0  0  0  0  0  0
    0.6065   -1.1799   -2.4346 H   0  0  0  0  0  0  0  0  0  0  0  0
    2.9768   -0.5176   -2.4903 H   0  0  0  0  0  0  0  0  0  0  0  0
   -0.9804    0.9266   -0.1833 H   0  0  0  0  0  0  0  0  0  0  0  0
   -1.7848    0.0666   -1.5625 H   0  0  0  0  0  0  0  0  0  0  0  0
   -3.0200    1.7525    0.6557 H   0  0  0  0  0  0  0  0  0  0  0  0
   -4.7087   -0.1605   -1.0246 H   0  0  0  0  0  0  0  0  0  0  0  0
   -4.9715    0.4224    0.6661 H   0  0  0  0  0  0  0  0  0  0  0  0
   -3.6989   -2.0155   -0.2464 H   0  0  0  0  0  0  0  0  0  0  0  0
   -5.0581   -3.1936    1.3170 H   0  0  0  0  0  0  0  0  0  0  0  0
   -4.3393   -3.5900    3.6729 H   0  0  0  0  0  0  0  0  0  0  0  0
   -2.5912    2.5989   -1.6058 H   0  0  0  0  0  0  0  0  0  0  0  0
   -7.0920    3.1089   -1.6099 H   0  0  0  0  0  0  0  0  0  0  0  0
   -6.5816    1.5730   -0.8127 H   0  0  0  0  0  0  0  0  0  0  0  0
   -6.2011    1.8528   -2.5612 H   0  0  0  0  0  0  0  0  0  0  0  0
  1  2  1  0
  2  3  1  0
  3  4  1  0
  4  5  1  0
  5  6  1  0
  6  7  2  0
  7  8  1  0
  8  9  2  0
  9 10  1  0
 10 11  2  0
  9 12  1  0
 12 13  2  0
 12 14  2  0
 12 15  1  0
 15 16  1  0
 16 17  1  0
 17 18  1  0
 18 19  1  0
 19 20  1  0
 20 21  2  0
 20 22  1  0
 22 23  1  0
 17 24  1  0
 24 25  1  0
 25 26  1  0
 25 27  2  0
 25 28  2  0
 11  6  1  0
 19 15  1  0
  1 29  1  0
  1 30  1  0
  1 31  1  0
  2 32  1  0
  2 33  1  0
  3 34  1  0
  3 35  1  0
  4 36  1  0
  4 37  1  0
  7 38  1  0
  8 39  1  0
 10 40  1  0
 11 41  1  0
 16 42  1  0
 16 43  1  0
 17 44  1  1
 18 45  1  0
 18 46  1  0
 19 47  1  6
 22 48  1  0
 23 49  1  0
 24 50  1  0
 26 51  1  0
 26 52  1  0
 26 53  1  0
M  END
$$$$
