
     RDKit          3D

169176  0  0  0  0  0  0  0  0999 V2000
    3.1123    1.9395    0.9688 C   0  0  1  0  0  0  0  0  0  0  0  0
    3.5126    1.4524   -0.4625 C   0  0  0  0  0  0  0  0  0  0  0  0
    2.3680    0.5891   -0.9883 C   0  0  0  0  0  0  0  0  0  0  0  0
    1.1135    1.1880   -0.3406 C   0  0  2  0  0  0  0  0  0  0  0  0
    0.8624    2.5495   -1.1107 C   0  0  0  0  0  0  0  0  0  0  0  0
    1.6287    1.4346    1.1082 C   0  0  2  0  0  0  0  0  0  0  0  0
    0.5566    2.2569    1.8817 C   0  0  2  0  0  0  0  0  0  0  0  0
    0.9757    2.5728    3.1774 O   0  0  0  0  0  0  0  0  0  0  0  0
   -0.7445    1.4162    1.9815 C   0  0  0  0  0  0  0  0  0  0  0  0
   -1.3000    0.9923    0.5867 C   0  0  2  0  0  0  0  0  0  0  0  0
   -2.7578    0.3497    0.5793 C   0  0  1  0  0  0  0  0  0  0  0  0
   -2.7922   -1.0029    1.3611 C   0  0  0  0  0  0  0  0  0  0  0  0
   -3.7553    1.3360    1.2731 C   0  0  0  0  0  0  0  0  0  0  0  0
   -5.2363    0.9852    1.0634 C   0  0  0  0  0  0  0  0  0  0  0  0
   -5.6062    0.8872   -0.4221 C   0  0  2  0  0  0  0  0  0  0  0  0
   -6.9747    0.5114   -0.5222 O   0  0  0  0  0  0  0  0  0  0  0  0
   -7.7860    1.5776   -0.9800 C   0  0  2  0  0  0  0  0  0  0  0  0
   -7.8849    2.5593    0.0392 O   0  0  0  0  0  0  0  0  0  0  0  0
   -8.5899    3.6981   -0.4244 C   0  0  2  0  0  0  0  0  0  0  0  0
   -8.4905    4.7845    0.6552 C   0  0  0  0  0  0  0  0  0  0  0  0
   -8.9761    6.0054    0.1689 O   0  0  0  0  0  0  0  0  0  0  0  0
  -10.0628    3.3249   -0.7193 C   0  0  1  0  0  0  0  0  0  0  0  0
  -10.7432    4.4366   -1.2430 O   0  0  0  0  0  0  0  0  0  0  0  0
  -10.1057    2.1678   -1.7390 C   0  0  2  0  0  0  0  0  0  0  0  0
  -11.4216    1.7079   -1.9242 O   0  0  0  0  0  0  0  0  0  0  0  0
   -9.1809    1.0158   -1.3034 C   0  0  1  0  0  0  0  0  0  0  0  0
   -9.0663    0.0891   -2.3737 O   0  0  0  0  0  0  0  0  0  0  0  0
   -9.5655   -1.1878   -2.0209 C   0  0  2  0  0  0  0  0  0  0  0  0
   -8.7130   -1.7576   -1.0372 O   0  0  0  0  0  0  0  0  0  0  0  0
   -9.1140   -3.0787   -0.7310 C   0  0  2  0  0  0  0  0  0  0  0  0
   -8.4030   -3.5054    0.5627 C   0  0  0  0  0  0  0  0  0  0  0  0
   -8.8199   -4.7799    0.9724 O   0  0  0  0  0  0  0  0  0  0  0  0
   -8.7764   -4.0325   -1.9134 C   0  0  1  0  0  0  0  0  0  0  0  0
   -9.7798   -5.0083   -2.0423 O   0  0  0  0  0  0  0  0  0  0  0  0
   -8.6501   -3.2567   -3.2480 C   0  0  2  0  0  0  0  0  0  0  0  0
   -7.3392   -2.7698   -3.3947 O   0  0  0  0  0  0  0  0  0  0  0  0
   -9.6274   -2.0635   -3.3105 C   0  0  1  0  0  0  0  0  0  0  0  0
  -10.9396   -2.5023   -3.5688 O   0  0  0  0  0  0  0  0  0  0  0  0
   -4.7134   -0.1388   -1.1938 C   0  0  0  0  0  0  0  0  0  0  0  0
   -5.0468    0.0180   -2.7043 C   0  0  0  0  0  0  0  0  0  0  0  0
   -5.0689   -1.5973   -0.8048 C   0  0  0  0  0  0  0  0  0  0  0  0
   -3.1939    0.2214   -0.9366 C   0  0  2  0  0  0  0  0  0  0  0  0
   -2.1699   -0.5932   -1.7723 C   0  0  0  0  0  0  0  0  0  0  0  0
   -0.7737    0.0591   -1.7396 C   0  0  0  0  0  0  0  0  0  0  0  0
   -0.2017    0.2582   -0.3036 C   0  0  1  0  0  0  0  0  0  0  0  0
    0.1378   -1.1666    0.2567 C   0  0  0  0  0  0  0  0  0  0  0  0
    4.1552    1.4070    2.0533 C   0  0  0  0  0  0  0  0  0  0  0  0
    3.5732    1.5858    3.4800 C   0  0  0  0  0  0  0  0  0  0  0  0
    5.4771    2.2645    2.0187 C   0  0  0  0  0  0  0  0  0  0  0  0
    6.2981    2.2417    0.7193 C   0  0  0  0  0  0  0  0  0  0  0  0
    7.6828    2.7980    0.9446 C   0  0  0  0  0  0  0  0  0  0  0  0
    8.0132    4.1035    0.8364 C   0  0  0  0  0  0  0  0  0  0  0  0
    7.0083    5.1536    0.4250 C   0  0  0  0  0  0  0  0  0  0  0  0
    9.4368    4.5080    1.1201 C   0  0  0  0  0  0  0  0  0  0  0  0
    4.3751    0.0193    1.7713 O   0  0  0  0  0  0  0  0  0  0  0  0
    5.3337   -0.6541    2.5755 C   0  0  2  0  0  0  0  0  0  0  0  0
    6.5232   -0.8108    1.8208 O   0  0  0  0  0  0  0  0  0  0  0  0
    7.5468   -1.4081    2.6007 C   0  0  2  0  0  0  0  0  0  0  0  0
    8.8630   -1.3705    1.8064 C   0  0  0  0  0  0  0  0  0  0  0  0
    8.7410   -2.1016    0.5979 O   0  0  0  0  0  0  0  0  0  0  0  0
    8.5758   -1.2535   -0.5302 C   0  0  2  0  0  0  0  0  0  0  0  0
    7.7282   -1.8743   -1.4847 O   0  0  0  0  0  0  0  0  0  0  0  0
    8.2049   -3.1339   -1.9584 C   0  0  2  0  0  0  0  0  0  0  0  0
    7.5674   -4.2966   -1.1775 C   0  0  0  0  0  0  0  0  0  0  0  0
    6.1713   -4.1661   -1.1533 O   0  0  0  0  0  0  0  0  0  0  0  0
    9.7549   -3.2534   -2.0118 C   0  0  1  0  0  0  0  0  0  0  0  0
   10.1583   -4.1759   -2.9948 O   0  0  0  0  0  0  0  0  0  0  0  0
   10.3639   -1.8631   -2.2655 C   0  0  2  0  0  0  0  0  0  0  0  0
   11.7634   -1.9318   -2.3879 O   0  0  0  0  0  0  0  0  0  0  0  0
    9.9543   -0.8812   -1.1454 C   0  0  1  0  0  0  0  0  0  0  0  0
    9.9125    0.4199   -1.6749 O   0  0  0  0  0  0  0  0  0  0  0  0
    7.1573   -2.8565    2.9788 C   0  0  1  0  0  0  0  0  0  0  0  0
    8.1462   -3.4132    3.8068 O   0  0  0  0  0  0  0  0  0  0  0  0
    5.8046   -2.8477    3.7186 C   0  0  2  0  0  0  0  0  0  0  0  0
    5.3497   -4.1576    3.9540 O   0  0  0  0  0  0  0  0  0  0  0  0
    4.7603   -2.0405    2.9274 C   0  0  1  0  0  0  0  0  0  0  0  0
    3.5986   -1.9010    3.7045 O   0  0  0  0  0  0  0  0  0  0  0  0
    3.1045    3.0519    0.9888 H   0  0  0  0  0  0  0  0  0  0  0  0
    4.4321    0.8403   -0.5084 H   0  0  0  0  0  0  0  0  0  0  0  0
    3.6708    2.3235   -1.1346 H   0  0  0  0  0  0  0  0  0  0  0  0
    2.3311    0.5882   -2.0997 H   0  0  0  0  0  0  0  0  0  0  0  0
    2.5779   -0.4431   -0.6530 H   0  0  0  0  0  0  0  0  0  0  0  0
    0.9097    2.4033   -2.2107 H   0  0  0  0  0  0  0  0  0  0  0  0
    1.6253    3.3153   -0.8662 H   0  0  0  0  0  0  0  0  0  0  0  0
   -0.0970    3.0476   -0.9089 H   0  0  0  0  0  0  0  0  0  0  0  0
    1.7223    0.4645    1.6308 H   0  0  0  0  0  0  0  0  0  0  0  0
    0.3470    3.2087    1.3451 H   0  0  0  0  0  0  0  0  0  0  0  0
    0.3835    3.2976    3.5100 H   0  0  0  0  0  0  0  0  0  0  0  0
   -1.4878    2.0423    2.5135 H   0  0  0  0  0  0  0  0  0  0  0  0
   -0.5519    0.5296    2.6184 H   0  0  0  0  0  0  0  0  0  0  0  0
   -1.4915    1.9629    0.1029 H   0  0  0  0  0  0  0  0  0  0  0  0
   -1.9465   -1.1028    2.0654 H   0  0  0  0  0  0  0  0  0  0  0  0
   -2.7874   -1.8829    0.6934 H   0  0  0  0  0  0  0  0  0  0  0  0
   -3.6894   -1.1119    1.9996 H   0  0  0  0  0  0  0  0  0  0  0  0
   -3.5958    2.3716    0.8985 H   0  0  0  0  0  0  0  0  0  0  0  0
   -3.5795    1.3541    2.3699 H   0  0  0  0  0  0  0  0  0  0  0  0
   -5.5137    0.0553    1.5977 H   0  0  0  0  0  0  0  0  0  0  0  0
   -5.8443    1.7911    1.5280 H   0  0  0  0  0  0  0  0  0  0  0  0
   -5.3997    1.8979   -0.8568 H   0  0  0  0  0  0  0  0  0  0  0  0
   -7.3573    2.0068   -1.9201 H   0  0  0  0  0  0  0  0  0  0  0  0
   -8.1089    4.1023   -1.3468 H   0  0  0  0  0  0  0  0  0  0  0  0
   -9.0638    4.4771    1.5589 H   0  0  0  0  0  0  0  0  0  0  0  0
   -7.4224    4.9076    0.9444 H   0  0  0  0  0  0  0  0  0  0  0  0
   -8.8942    6.6521    0.9172 H   0  0  0  0  0  0  0  0  0  0  0  0
  -10.5403    2.9957    0.2346 H   0  0  0  0  0  0  0  0  0  0  0  0
  -11.7123    4.2729   -1.1028 H   0  0  0  0  0  0  0  0  0  0  0  0
   -9.7429    2.5548   -2.7179 H   0  0  0  0  0  0  0  0  0  0  0  0
  -11.7469    1.3646   -1.0510 H   0  0  0  0  0  0  0  0  0  0  0  0
   -9.5882    0.5737   -0.3598 H   0  0  0  0  0  0  0  0  0  0  0  0
  -10.5989   -1.0754   -1.6101 H   0  0  0  0  0  0  0  0  0  0  0  0
  -10.2100   -3.1060   -0.5202 H   0  0  0  0  0  0  0  0  0  0  0  0
   -8.6082   -2.7616    1.3663 H   0  0  0  0  0  0  0  0  0  0  0  0
   -7.3038   -3.5219    0.4025 H   0  0  0  0  0  0  0  0  0  0  0  0
   -9.7297   -4.6720    1.3549 H   0  0  0  0  0  0  0  0  0  0  0  0
   -7.7991   -4.5413   -1.7322 H   0  0  0  0  0  0  0  0  0  0  0  0
   -9.6014   -5.7029   -1.3564 H   0  0  0  0  0  0  0  0  0  0  0  0
   -8.8775   -3.9401   -4.1008 H   0  0  0  0  0  0  0  0  0  0  0  0
   -6.7735   -3.5372   -3.6724 H   0  0  0  0  0  0  0  0  0  0  0  0
   -9.3292   -1.4433   -4.1854 H   0  0  0  0  0  0  0  0  0  0  0  0
  -11.2553   -3.0119   -2.7790 H   0  0  0  0  0  0  0  0  0  0  0  0
   -4.6910    0.9954   -3.0950 H   0  0  0  0  0  0  0  0  0  0  0  0
   -6.1420   -0.0398   -2.8810 H   0  0  0  0  0  0  0  0  0  0  0  0
   -4.5994   -0.7964   -3.3109 H   0  0  0  0  0  0  0  0  0  0  0  0
   -5.1033   -1.7554    0.2867 H   0  0  0  0  0  0  0  0  0  0  0  0
   -4.3537   -2.3175   -1.2516 H   0  0  0  0  0  0  0  0  0  0  0  0
   -6.0759   -1.8652   -1.1837 H   0  0  0  0  0  0  0  0  0  0  0  0
   -3.1069    1.2550   -1.3482 H   0  0  0  0  0  0  0  0  0  0  0  0
   -2.4677   -0.6086   -2.8385 H   0  0  0  0  0  0  0  0  0  0  0  0
   -2.1287   -1.6524   -1.4593 H   0  0  0  0  0  0  0  0  0  0  0  0
   -0.8745    1.0308   -2.2625 H   0  0  0  0  0  0  0  0  0  0  0  0
   -0.0721   -0.5557   -2.3452 H   0  0  0  0  0  0  0  0  0  0  0  0
   -0.6904   -1.8779    0.1598 H   0  0  0  0  0  0  0  0  0  0  0  0
    0.9316   -1.6689   -0.3227 H   0  0  0  0  0  0  0  0  0  0  0  0
    0.4118   -1.1693    1.3272 H   0  0  0  0  0  0  0  0  0  0  0  0
    2.7272    0.8929    3.6622 H   0  0  0  0  0  0  0  0  0  0  0  0
    3.2757    2.6429    3.6328 H   0  0  0  0  0  0  0  0  0  0  0  0
    4.3144    1.3995    4.2814 H   0  0  0  0  0  0  0  0  0  0  0  0
    5.2159    3.3223    2.2371 H   0  0  0  0  0  0  0  0  0  0  0  0
    6.1447    1.9482    2.8495 H   0  0  0  0  0  0  0  0  0  0  0  0
    5.7847    2.8090   -0.0812 H   0  0  0  0  0  0  0  0  0  0  0  0
    6.4204    1.2014    0.3714 H   0  0  0  0  0  0  0  0  0  0  0  0
    8.4519    2.0858    1.2333 H   0  0  0  0  0  0  0  0  0  0  0  0
    7.4608    6.1668    0.4151 H   0  0  0  0  0  0  0  0  0  0  0  0
    6.1573    5.1722    1.1355 H   0  0  0  0  0  0  0  0  0  0  0  0
    6.6343    4.9410   -0.5983 H   0  0  0  0  0  0  0  0  0  0  0  0
    9.5891    5.5994    0.9881 H   0  0  0  0  0  0  0  0  0  0  0  0
    9.6999    4.2441    2.1663 H   0  0  0  0  0  0  0  0  0  0  0  0
   10.1232    3.9753    0.4281 H   0  0  0  0  0  0  0  0  0  0  0  0
    5.5552   -0.1280    3.5260 H   0  0  0  0  0  0  0  0  0  0  0  0
    7.7206   -0.8175    3.5313 H   0  0  0  0  0  0  0  0  0  0  0  0
    9.6660   -1.8415    2.4117 H   0  0  0  0  0  0  0  0  0  0  0  0
    9.1890   -0.3135    1.6625 H   0  0  0  0  0  0  0  0  0  0  0  0
    8.0559   -0.3113   -0.2491 H   0  0  0  0  0  0  0  0  0  0  0  0
    7.8313   -3.2196   -3.0026 H   0  0  0  0  0  0  0  0  0  0  0  0
    7.8191   -5.2526   -1.6843 H   0  0  0  0  0  0  0  0  0  0  0  0
    7.9702   -4.3625   -0.1428 H   0  0  0  0  0  0  0  0  0  0  0  0
    5.9558   -3.5378   -0.4151 H   0  0  0  0  0  0  0  0  0  0  0  0
   10.1322   -3.6230   -1.0323 H   0  0  0  0  0  0  0  0  0  0  0  0
    9.8986   -3.8100   -3.8806 H   0  0  0  0  0  0  0  0  0  0  0  0
    9.9597   -1.4865   -3.2324 H   0  0  0  0  0  0  0  0  0  0  0  0
   12.1199   -2.3438   -1.5576 H   0  0  0  0  0  0  0  0  0  0  0  0
   10.7226   -0.9192   -0.3371 H   0  0  0  0  0  0  0  0  0  0  0  0
    9.9564    1.0465   -0.9054 H   0  0  0  0  0  0  0  0  0  0  0  0
    7.0582   -3.4546    2.0425 H   0  0  0  0  0  0  0  0  0  0  0  0
    8.0460   -4.3993    3.7511 H   0  0  0  0  0  0  0  0  0  0  0  0
    5.9506   -2.3572    4.7074 H   0  0  0  0  0  0  0  0  0  0  0  0
    5.2258   -4.5976    3.0724 H   0  0  0  0  0  0  0  0  0  0  0  0
    4.5261   -2.5849    1.9809 H   0  0  0  0  0  0  0  0  0  0  0  0
    2.8522   -1.7128    3.0772 H   0  0  0  0  0  0  0  0  0  0  0  0
  1  2  1  0
  2  3  1  0
  3  4  1  0
  4  5  1  6
  4  6  1  0
  6  7  1  0
  7  8  1  0
  7  9  1  0
  9 10  1  0
 10 11  1  0
 11 12  1  1
 11 13  1  0
 13 14  1  0
 14 15  1  0
 15 16  1  0
 16 17  1  0
 17 18  1  0
 18 19  1  0
 19 20  1  0
 20 21  1  0
 19 22  1  0
 22 23  1  0
 22 24  1  0
 24 25  1  0
 24 26  1  0
 26 27  1  0
 27 28  1  0
 28 29  1  0
 29 30  1  0
 30 31  1  0
 31 32  1  0
 30 33  1  0
 33 34  1  0
 33 35  1  0
 35 36  1  0
 35 37  1  0
 37 38  1  0
 15 39  1  0
 39 40  1  0
 39 41  1  0
 39 42  1  0
 42 43  1  0
 43 44  1  0
 44 45  1  0
 45 46  1  1
  1 47  1  0
 47 48  1  0
 47 49  1  0
 49 50  1  0
 50 51  1  0
 51 52  2  3
 52 53  1  0
 52 54  1  0
 47 55  1  0
 55 56  1  0
 56 57  1  0
 57 58  1  0
 58 59  1  0
 59 60  1  0
 60 61  1  0
 61 62  1  0
 62 63  1  0
 63 64  1  0
 64 65  1  0
 63 66  1  0
 66 67  1  0
 66 68  1  0
 68 69  1  0
 68 70  1  0
 70 71  1  0
 58 72  1  0
 72 73  1  0
 72 74  1  0
 74 75  1  0
 74 76  1  0
 76 77  1  0
  6  1  1  0
 45 10  1  0
 76 56  1  0
 45  4  1  0
 70 61  1  0
 42 11  1  0
 26 17  1  0
 37 28  1  0
  1 78  1  6
  2 79  1  0
  2 80  1  0
  3 81  1  0
  3 82  1  0
  5 83  1  0
  5 84  1  0
  5 85  1  0
  6 86  1  1
  7 87  1  6
  8 88  1  0
  9 89  1  0
  9 90  1  0
 10 91  1  6
 12 92  1  0
 12 93  1  0
 12 94  1  0
 13 95  1  0
 13 96  1  0
 14 97  1  0
 14 98  1  0
 15 99  1  6
 17100  1  6
 19101  1  6
 20102  1  0
 20103  1  0
 21104  1  0
 22105  1  1
 23106  1  0
 24107  1  6
 25108  1  0
 26109  1  1
 28110  1  1
 30111  1  1
 31112  1  0
 31113  1  0
 32114  1  0
 33115  1  1
 34116  1  0
 35117  1  6
 36118  1  0
 37119  1  6
 38120  1  0
 40121  1  0
 40122  1  0
 40123  1  0
 41124  1  0
 41125  1  0
 41126  1  0
 42127  1  6
 43128  1  0
 43129  1  0
 44130  1  0
 44131  1  0
 46132  1  0
 46133  1  0
 46134  1  0
 48135  1  0
 48136  1  0
 48137  1  0
 49138  1  0
 49139  1  0
 50140  1  0
 50141  1  0
 51142  1  0
 53143  1  0
 53144  1  0
 53145  1  0
 54146  1  0
 54147  1  0
 54148  1  0
 56149  1  1
 58150  1  1
 59151  1  0
 59152  1  0
 61153  1  1
 63154  1  6
 64155  1  0
 64156  1  0
 65157  1  0
 66158  1  1
 67159  1  0
 68160  1  6
 69161  1  0
 70162  1  1
 71163  1  0
 72164  1  6
 73165  1  0
 74166  1  1
 75167  1  0
 76168  1  6
 77169  1  0
M  END
$$$$
