
     RDKit          3D

 40 39  0  0  0  0  0  0  0  0999 V2000
    0.0000    0.0000    0.0000 Cr  0  0  0  0  0 15  0  0  0  0  0  0
    2.5809    1.7060    0.1371 O   0  0  0  0  0  1  0  0  0  0  0  0
    2.1887    0.3835   -0.0357 C   0  0  0  0  0  0  0  0  0  0  0  0
    3.0722   -0.4997   -0.1985 O   0  0  0  0  0  0  0  0  0  0  0  0
    0.7552    0.0205   -0.0283 C   0  0  0  0  0  0  0  0  0  0  0  0
    0.3453   -1.3133   -0.2020 C   0  0  0  0  0  0  0  0  0  0  0  0
   -0.9769   -1.6315   -0.1928 N   0  0  0  0  0  0  0  0  0  0  0  0
   -1.9389   -0.6878   -0.0181 C   0  0  0  0  0  0  0  0  0  0  0  0
   -1.5815    0.6493    0.1582 C   0  0  0  0  0  0  0  0  0  0  0  0
   -0.2311    1.0036    0.1530 C   0  0  0  0  0  0  0  0  0  0  0  0
    2.6954   -1.5184    0.1405 O   0  0  0  0  0  1  0  0  0  0  0  0
    2.2089   -0.2164    0.1131 C   0  0  0  0  0  0  0  0  0  0  0  0
    3.0255    0.7422    0.1529 O   0  0  0  0  0  0  0  0  0  0  0  0
    0.7540    0.0381    0.0384 C   0  0  0  0  0  0  0  0  0  0  0  0
    0.2491    1.3501    0.0100 C   0  0  0  0  0  0  0  0  0  0  0  0
   -1.0916    1.5680   -0.0588 N   0  0  0  0  0  0  0  0  0  0  0  0
   -1.9819    0.5423   -0.1022 C   0  0  0  0  0  0  0  0  0  0  0  0
   -1.5291   -0.7770   -0.0765 C   0  0  0  0  0  0  0  0  0  0  0  0
   -0.1577   -1.0291   -0.0060 C   0  0  0  0  0  0  0  0  0  0  0  0
    3.1767   -0.4889   -0.0536 O   0  0  0  0  0  1  0  0  0  0  0  0
    2.1642    0.3879    0.3186 C   0  0  0  0  0  0  0  0  0  0  0  0
    2.4717    1.4767    0.8729 O   0  0  0  0  0  0  0  0  0  0  0  0
    0.7475    0.0463    0.0669 C   0  0  0  0  0  0  0  0  0  0  0  0
    0.4024   -1.1675   -0.5513 C   0  0  0  0  0  0  0  0  0  0  0  0
   -0.9028   -1.4747   -0.7795 N   0  0  0  0  0  0  0  0  0  0  0  0
   -1.9089   -0.6332   -0.4243 C   0  0  0  0  0  0  0  0  0  0  0  0
   -1.6165    0.5837    0.1922 C   0  0  0  0  0  0  0  0  0  0  0  0
   -0.2851    0.9240    0.4382 C   0  0  0  0  0  0  0  0  0  0  0  0
    1.0726   -2.1020   -0.3448 H   0  0  0  0  0  0  0  0  0  0  0  0
   -2.9816   -0.9759   -0.0162 H   0  0  0  0  0  0  0  0  0  0  0  0
   -2.3442    1.4045    0.2977 H   0  0  0  0  0  0  0  0  0  0  0  0
    0.0392    2.0430    0.2904 H   0  0  0  0  0  0  0  0  0  0  0  0
    0.9169    2.2012    0.0424 H   0  0  0  0  0  0  0  0  0  0  0  0
   -3.0419    0.7517   -0.1567 H   0  0  0  0  0  0  0  0  0  0  0  0
   -2.2345   -1.5972   -0.1108 H   0  0  0  0  0  0  0  0  0  0  0  0
    0.1868   -2.0554    0.0136 H   0  0  0  0  0  0  0  0  0  0  0  0
    1.1662   -1.8721   -0.8532 H   0  0  0  0  0  0  0  0  0  0  0  0
   -2.9362   -0.9093   -0.6209 H   0  0  0  0  0  0  0  0  0  0  0  0
   -2.4145    1.2573    0.4769 H   0  0  0  0  0  0  0  0  0  0  0  0
   -0.0648    1.8699    0.9171 H   0  0  0  0  0  0  0  0  0  0  0  0
  2  3  1  0
  3  4  2  0
  3  5  1  0
  5  6  2  0
  6  7  1  0
  7  8  2  0
  8  9  1  0
  9 10  2  0
 11 12  1  0
 12 13  2  0
 12 14  1  0
 14 15  2  0
 15 16  1  0
 16 17  2  0
 17 18  1  0
 18 19  2  0
 20 21  1  0
 21 22  2  0
 21 23  1  0
 23 24  2  0
 24 25  1  0
 25 26  2  0
 26 27  1  0
 27 28  2  0
 10  5  1  0
 19 14  1  0
 28 23  1  0
  6 29  1  0
  8 30  1  0
  9 31  1  0
 10 32  1  0
 15 33  1  0
 17 34  1  0
 18 35  1  0
 19 36  1  0
 24 37  1  0
 26 38  1  0
 27 39  1  0
 28 40  1  0
M  CHG  4   1   3   2  -1  11  -1  20  -1
M  END
$$$$
