
     RDKit          3D

 68 71  0  0  0  0  0  0  0  0999 V2000
   -2.6960   -4.6819   -2.3973 C   0  0  0  0  0  0  0  0  0  0  0  0
   -2.2547   -3.6134   -1.5664 O   0  0  0  0  0  0  0  0  0  0  0  0
   -1.5309   -2.5002   -2.0213 C   0  0  0  0  0  0  0  0  0  0  0  0
   -1.1825   -2.3360   -3.3766 C   0  0  0  0  0  0  0  0  0  0  0  0
   -0.4577   -1.2151   -3.7872 C   0  0  0  0  0  0  0  0  0  0  0  0
   -0.0640   -0.2563   -2.8543 C   0  0  0  0  0  0  0  0  0  0  0  0
   -0.3945   -0.4135   -1.5075 C   0  0  0  0  0  0  0  0  0  0  0  0
   -1.1493   -1.5255   -1.0859 C   0  0  0  0  0  0  0  0  0  0  0  0
   -1.4969   -1.7180    0.2615 O   0  0  0  0  0  0  0  0  0  0  0  0
   -1.5969   -0.7137    1.2350 C   0  0  0  0  0  0  0  0  0  0  0  0
   -1.1488   -0.9517    2.5490 C   0  0  0  0  0  0  0  0  0  0  0  0
   -0.5678   -2.2027    2.9491 N   0  0  0  0  0  0  0  0  0  0  0  0
    0.5736   -3.0975    1.9929 S   0  0  0  0  0  6  0  0  0  0  0  0
   -0.1713   -4.0262    1.0750 O   0  0  0  0  0  0  0  0  0  0  0  0
    1.4432   -3.9130    2.9073 O   0  0  0  0  0  0  0  0  0  0  0  0
    1.6121   -2.0125    1.0719 C   0  0  0  0  0  0  0  0  0  0  0  0
    2.0194   -2.3506   -0.2214 C   0  0  0  0  0  0  0  0  0  0  0  0
    2.8452   -1.4899   -0.9482 C   0  0  0  0  0  0  0  0  0  0  0  0
    3.3001   -0.2720   -0.3939 C   0  0  0  0  0  0  0  0  0  0  0  0
    2.8831    0.0479    0.9202 C   0  0  0  0  0  0  0  0  0  0  0  0
    2.0559   -0.8165    1.6415 C   0  0  0  0  0  0  0  0  0  0  0  0
    4.2123    0.6518   -1.2271 C   0  0  0  0  0  0  0  0  0  0  0  0
    5.4857   -0.1166   -1.6446 C   0  0  0  0  0  0  0  0  0  0  0  0
    4.6614    1.9169   -0.4567 C   0  0  0  0  0  0  0  0  0  0  0  0
    3.4559    1.1148   -2.4895 C   0  0  0  0  0  0  0  0  0  0  0  0
   -1.2994    0.0189    3.4887 N   0  0  0  0  0  0  0  0  0  0  0  0
   -1.8589    1.2204    3.1937 C   0  0  0  0  0  0  0  0  0  0  0  0
   -2.3142    1.4588    1.9378 N   0  0  0  0  0  0  0  0  0  0  0  0
   -2.2129    0.5211    0.9587 C   0  0  0  0  0  0  0  0  0  0  0  0
   -2.7468    0.7689   -0.3094 O   0  0  0  0  0  0  0  0  0  0  0  0
   -3.3447    2.0075   -0.6752 C   0  0  0  0  0  0  0  0  0  0  0  0
   -3.7400    1.9673   -2.1479 C   0  0  0  0  0  0  0  0  0  0  0  0
   -4.6496    0.9273   -2.3853 O   0  0  0  0  0  0  0  0  0  0  0  0
   -1.9853    2.2515    4.2327 C   0  0  0  0  0  0  0  0  0  0  0  0
   -1.5333    2.0106    5.4938 N   0  0  0  0  0  0  0  0  0  0  0  0
   -1.6401    2.9518    6.4675 C   0  0  0  0  0  0  0  0  0  0  0  0
   -2.2198    4.1866    6.1803 C   0  0  0  0  0  0  0  0  0  0  0  0
   -2.6780    4.4194    4.8844 C   0  0  0  0  0  0  0  0  0  0  0  0
   -2.5533    3.4529    3.9380 N   0  0  0  0  0  0  0  0  0  0  0  0
   -3.2361   -5.4249   -1.7755 H   0  0  0  0  0  0  0  0  0  0  0  0
   -1.8249   -5.1812   -2.8716 H   0  0  0  0  0  0  0  0  0  0  0  0
   -3.3890   -4.2990   -3.1759 H   0  0  0  0  0  0  0  0  0  0  0  0
   -1.4680   -3.0677   -4.1198 H   0  0  0  0  0  0  0  0  0  0  0  0
   -0.1958   -1.0927   -4.8302 H   0  0  0  0  0  0  0  0  0  0  0  0
    0.5015    0.6075   -3.1759 H   0  0  0  0  0  0  0  0  0  0  0  0
   -0.0494    0.3237   -0.7947 H   0  0  0  0  0  0  0  0  0  0  0  0
   -0.6173   -2.4542    3.9615 H   0  0  0  0  0  0  0  0  0  0  0  0
    1.6895   -3.2762   -0.6756 H   0  0  0  0  0  0  0  0  0  0  0  0
    3.1223   -1.7813   -1.9519 H   0  0  0  0  0  0  0  0  0  0  0  0
    3.1874    0.9595    1.4116 H   0  0  0  0  0  0  0  0  0  0  0  0
    1.7617   -0.5500    2.6487 H   0  0  0  0  0  0  0  0  0  0  0  0
    6.1833    0.5474   -2.2000 H   0  0  0  0  0  0  0  0  0  0  0  0
    5.2486   -0.9735   -2.3087 H   0  0  0  0  0  0  0  0  0  0  0  0
    6.0140   -0.5050   -0.7470 H   0  0  0  0  0  0  0  0  0  0  0  0
    5.3263    2.5470   -1.0868 H   0  0  0  0  0  0  0  0  0  0  0  0
    5.2293    1.6418    0.4584 H   0  0  0  0  0  0  0  0  0  0  0  0
    3.7864    2.5409   -0.1730 H   0  0  0  0  0  0  0  0  0  0  0  0
    2.5314    1.6615   -2.2042 H   0  0  0  0  0  0  0  0  0  0  0  0
    4.0881    1.7951   -3.1005 H   0  0  0  0  0  0  0  0  0  0  0  0
    3.1712    0.2553   -3.1320 H   0  0  0  0  0  0  0  0  0  0  0  0
   -2.6181    2.8340   -0.5175 H   0  0  0  0  0  0  0  0  0  0  0  0
   -4.2442    2.1914   -0.0484 H   0  0  0  0  0  0  0  0  0  0  0  0
   -4.1797    2.9450   -2.4488 H   0  0  0  0  0  0  0  0  0  0  0  0
   -2.8321    1.7959   -2.7648 H   0  0  0  0  0  0  0  0  0  0  0  0
   -5.5274    1.2328   -2.0364 H   0  0  0  0  0  0  0  0  0  0  0  0
   -1.2748    2.7407    7.4637 H   0  0  0  0  0  0  0  0  0  0  0  0
   -2.3120    4.9466    6.9453 H   0  0  0  0  0  0  0  0  0  0  0  0
   -3.1325    5.3675    4.6301 H   0  0  0  0  0  0  0  0  0  0  0  0
  1  2  1  0
  2  3  1  0
  3  4  2  0
  4  5  1  0
  5  6  2  0
  6  7  1  0
  7  8  2  0
  8  9  1  0
  9 10  1  0
 10 11  1  0
 11 12  1  0
 12 13  1  0
 13 14  2  0
 13 15  2  0
 13 16  1  0
 16 17  2  0
 17 18  1  0
 18 19  2  0
 19 20  1  0
 20 21  2  0
 19 22  1  0
 22 23  1  0
 22 24  1  0
 22 25  1  0
 11 26  2  0
 26 27  1  0
 27 28  2  0
 28 29  1  0
 29 30  1  0
 30 31  1  0
 31 32  1  0
 32 33  1  0
 27 34  1  0
 34 35  2  0
 35 36  1  0
 36 37  2  0
 37 38  1  0
 38 39  2  0
  8  3  1  0
 29 10  2  0
 39 34  1  0
 21 16  1  0
  1 40  1  0
  1 41  1  0
  1 42  1  0
  4 43  1  0
  5 44  1  0
  6 45  1  0
  7 46  1  0
 12 47  1  0
 17 48  1  0
 18 49  1  0
 20 50  1  0
 21 51  1  0
 23 52  1  0
 23 53  1  0
 23 54  1  0
 24 55  1  0
 24 56  1  0
 24 57  1  0
 25 58  1  0
 25 59  1  0
 25 60  1  0
 31 61  1  0
 31 62  1  0
 32 63  1  0
 32 64  1  0
 33 65  1  0
 36 66  1  0
 37 67  1  0
 38 68  1  0
M  END
$$$$
