
     RDKit          3D

 62 65  0  0  0  0  0  0  0  0999 V2000
   -1.7623   -0.0541   -0.9488 C   0  0  2  0  0  0  0  0  0  0  0  0
   -1.3568   -0.5228   -2.2768 N   0  0  0  0  0  0  0  0  0  0  0  0
   -3.2684    0.1187   -0.9818 C   0  0  0  0  0  0  0  0  0  0  0  0
   -3.7558    1.0171   -1.7219 O   0  0  0  0  0  0  0  0  0  0  0  0
   -4.1560   -0.7186   -0.2145 N   0  0  0  0  0  0  0  0  0  0  0  0
   -5.6019   -0.5911   -0.2873 C   0  0  0  0  0  0  0  0  0  0  0  0
   -6.1611   -1.7773    0.4861 C   0  0  0  0  0  0  0  0  0  0  0  0
   -5.0097   -2.2861    1.3511 C   0  0  0  0  0  0  0  0  0  0  0  0
   -5.0203   -3.6689    1.4271 F   0  0  0  0  0  0  0  0  0  0  0  0
   -5.1127   -1.7549    2.6268 F   0  0  0  0  0  0  0  0  0  0  0  0
   -3.7347   -1.7852    0.6803 C   0  0  0  0  0  0  0  0  0  0  0  0
   -1.0493    1.2838   -0.5263 C   0  0  1  0  0  0  0  0  0  0  0  0
   -1.7437    1.9143    0.6793 C   0  0  0  0  0  0  0  0  0  0  0  0
   -2.0570    1.1716    1.6510 O   0  0  0  0  0  0  0  0  0  0  0  0
   -2.0041    3.3351    0.7681 N   0  0  0  0  0  0  0  0  0  0  0  0
   -1.5925    4.2606   -0.2939 C   0  0  0  0  0  0  0  0  0  0  0  0
   -2.6884    3.8529    1.9579 C   0  0  0  0  0  0  0  0  0  0  0  0
    0.4860    1.1885   -0.2172 C   0  0  1  0  0  0  0  0  0  0  0  0
    0.8954    0.0587    0.7752 C   0  0  0  0  0  0  0  0  0  0  0  0
    1.5765   -1.1434    0.1025 C   0  0  0  0  0  0  0  0  0  0  0  0
    2.7619   -0.7530   -0.8267 C   0  0  1  0  0  0  0  0  0  0  0  0
    2.7874    0.7462   -1.1947 C   0  0  0  0  0  0  0  0  0  0  0  0
    1.3739    1.2513   -1.4856 C   0  0  0  0  0  0  0  0  0  0  0  0
    4.0995   -1.1825   -0.2534 C   0  0  0  0  0  0  0  0  0  0  0  0
    4.9375   -2.0558   -0.9792 C   0  0  0  0  0  0  0  0  0  0  0  0
    6.1273   -2.4070   -0.4324 N   0  0  0  0  0  0  0  0  0  0  0  0
    7.0392   -3.2050   -0.9492 N   0  0  0  0  0  0  0  0  0  0  0  0
    8.0313   -3.2330   -0.0273 C   0  0  0  0  0  0  0  0  0  0  0  0
    7.7675   -2.4680    1.0647 N   0  0  0  0  0  0  0  0  0  0  0  0
    6.5565   -1.9725    0.7545 C   0  0  0  0  0  0  0  0  0  0  0  0
    5.7884   -1.1072    1.5253 C   0  0  0  0  0  0  0  0  0  0  0  0
    4.5450   -0.7094    1.0080 C   0  0  0  0  0  0  0  0  0  0  0  0
   -1.5045   -0.8416   -0.2170 H   0  0  0  0  0  0  0  0  0  0  0  0
   -1.2721    0.2786   -2.9435 H   0  0  0  0  0  0  0  0  0  0  0  0
   -0.4462   -1.0278   -2.2228 H   0  0  0  0  0  0  0  0  0  0  0  0
   -5.9146    0.3659    0.1841 H   0  0  0  0  0  0  0  0  0  0  0  0
   -5.9435   -0.6214   -1.3450 H   0  0  0  0  0  0  0  0  0  0  0  0
   -7.0391   -1.4826    1.1012 H   0  0  0  0  0  0  0  0  0  0  0  0
   -6.4714   -2.5703   -0.2299 H   0  0  0  0  0  0  0  0  0  0  0  0
   -3.0240   -1.4002    1.4428 H   0  0  0  0  0  0  0  0  0  0  0  0
   -3.2547   -2.5957    0.0896 H   0  0  0  0  0  0  0  0  0  0  0  0
   -1.1676    1.9743   -1.3854 H   0  0  0  0  0  0  0  0  0  0  0  0
   -0.5055    4.1536   -0.4915 H   0  0  0  0  0  0  0  0  0  0  0  0
   -1.7784    5.3183   -0.0129 H   0  0  0  0  0  0  0  0  0  0  0  0
   -2.1673    4.0501   -1.2199 H   0  0  0  0  0  0  0  0  0  0  0  0
   -2.8529    4.9491    1.8984 H   0  0  0  0  0  0  0  0  0  0  0  0
   -2.0791    3.6414    2.8619 H   0  0  0  0  0  0  0  0  0  0  0  0
   -3.6796    3.3626    2.0621 H   0  0  0  0  0  0  0  0  0  0  0  0
    0.7416    2.1326    0.3196 H   0  0  0  0  0  0  0  0  0  0  0  0
    0.0311   -0.2963    1.3720 H   0  0  0  0  0  0  0  0  0  0  0  0
    1.6099    0.4787    1.5161 H   0  0  0  0  0  0  0  0  0  0  0  0
    0.8166   -1.6980   -0.4834 H   0  0  0  0  0  0  0  0  0  0  0  0
    1.9094   -1.8511    0.8935 H   0  0  0  0  0  0  0  0  0  0  0  0
    2.6000   -1.3042   -1.7814 H   0  0  0  0  0  0  0  0  0  0  0  0
    3.4239    0.8946   -2.0945 H   0  0  0  0  0  0  0  0  0  0  0  0
    3.2241    1.3529   -0.3709 H   0  0  0  0  0  0  0  0  0  0  0  0
    1.4316    2.3037   -1.8413 H   0  0  0  0  0  0  0  0  0  0  0  0
    0.9582    0.6621   -2.3208 H   0  0  0  0  0  0  0  0  0  0  0  0
    4.6480   -2.4413   -1.9491 H   0  0  0  0  0  0  0  0  0  0  0  0
    8.9409   -3.8056   -0.1481 H   0  0  0  0  0  0  0  0  0  0  0  0
    6.1351   -0.7517    2.4871 H   0  0  0  0  0  0  0  0  0  0  0  0
    3.9317   -0.0339    1.5882 H   0  0  0  0  0  0  0  0  0  0  0  0
  1  2  1  0
  1  3  1  0
  3  4  2  0
  3  5  1  0
  5  6  1  0
  6  7  1  0
  7  8  1  0
  8  9  1  0
  8 10  1  0
  8 11  1  0
  1 12  1  0
 12 13  1  0
 13 14  2  0
 13 15  1  0
 15 16  1  0
 15 17  1  0
 12 18  1  0
 18 19  1  0
 19 20  1  0
 20 21  1  0
 21 22  1  0
 22 23  1  0
 21 24  1  0
 24 25  2  0
 25 26  1  0
 26 27  1  0
 27 28  2  0
 28 29  1  0
 29 30  2  0
 30 31  1  0
 31 32  2  0
 11  5  1  0
 23 18  1  0
 32 24  1  0
 30 26  1  0
  1 33  1  1
  2 34  1  0
  2 35  1  0
  6 36  1  0
  6 37  1  0
  7 38  1  0
  7 39  1  0
 11 40  1  0
 11 41  1  0
 12 42  1  6
 16 43  1  0
 16 44  1  0
 16 45  1  0
 17 46  1  0
 17 47  1  0
 17 48  1  0
 18 49  1  1
 19 50  1  0
 19 51  1  0
 20 52  1  0
 20 53  1  0
 21 54  1  6
 22 55  1  0
 22 56  1  0
 23 57  1  0
 23 58  1  0
 25 59  1  0
 28 60  1  0
 31 61  1  0
 32 62  1  0
M  END
$$$$
