
     RDKit          3D

 14 14  0  0  0  0  0  0  0  0999 V2000
    2.2096    0.3287    0.7304 N   0  0  0  0  0  0  0  0  0  0  0  0
    1.5619   -0.4705   -0.3063 C   0  0  0  0  0  0  0  0  0  0  0  0
    0.1029   -0.1427   -0.4033 C   0  0  0  0  0  0  0  0  0  0  0  0
   -0.9175   -0.7259    0.3295 C   0  0  0  0  0  0  0  0  0  0  0  0
   -2.0337   -0.0531   -0.1131 C   0  0  0  0  0  0  0  0  0  0  0  0
   -3.2134   -0.2490    0.2803 O   0  0  0  0  0  0  0  0  0  0  0  0
   -1.6889    0.8596   -1.0352 N   0  0  0  0  0  0  0  0  0  0  0  0
   -0.3999    0.7871   -1.1880 O   0  0  0  0  0  0  0  0  0  0  0  0
    1.7397    0.1376    1.6456 H   0  0  0  0  0  0  0  0  0  0  0  0
    2.0728    1.3422    0.5090 H   0  0  0  0  0  0  0  0  0  0  0  0
    1.6899   -1.5498   -0.0746 H   0  0  0  0  0  0  0  0  0  0  0  0
    2.0501   -0.2701   -1.2838 H   0  0  0  0  0  0  0  0  0  0  0  0
   -0.8523   -1.5114    1.0711 H   0  0  0  0  0  0  0  0  0  0  0  0
   -2.3212    1.5171   -1.5432 H   0  0  0  0  0  0  0  0  0  0  0  0
  1  2  1  0
  2  3  1  0
  3  4  2  0
  4  5  1  0
  5  6  2  0
  5  7  1  0
  7  8  1  0
  8  3  1  0
  1  9  1  0
  1 10  1  0
  2 11  1  0
  2 12  1  0
  4 13  1  0
  7 14  1  0
M  END
$$$$
