
     RDKit          3D

 48 52  0  0  0  0  0  0  0  0999 V2000
    1.3465   -1.1698    1.5742 N   0  0  0  0  0  0  0  0  0  0  0  0
    0.6423   -1.3864    0.3022 C   0  0  2  0  0  0  0  0  0  0  0  0
    1.5049   -0.9562   -0.8769 C   0  0  0  0  0  0  0  0  0  0  0  0
    1.3570   -1.5764   -1.9657 O   0  0  0  0  0  0  0  0  0  0  0  0
    2.5186    0.0739   -0.8023 N   0  0  0  0  0  0  0  0  0  0  0  0
    2.6205    1.0725    0.2521 C   0  0  1  0  0  0  0  0  0  0  0  0
    3.8897    0.9984    1.0874 C   0  0  0  0  0  0  0  0  0  0  0  0
    3.8044    1.9514   -0.0951 C   0  0  1  0  0  0  0  0  0  0  0  0
    4.3689    1.4592   -1.4241 C   0  0  0  0  0  0  0  0  0  0  0  0
    3.5223    0.2529   -1.8478 C   0  0  1  0  0  0  0  0  0  0  0  0
    4.3555   -0.9561   -1.9720 C   0  0  0  0  0  0  0  0  0  0  0  0
    5.0092   -1.9060   -2.0689 N   0  0  0  0  0  0  0  0  0  0  0  0
   -0.8298   -0.8170    0.2751 C   0  0  0  0  0  0  0  0  0  0  0  0
   -1.6169   -1.3108    1.5284 C   0  0  0  0  0  0  0  0  0  0  0  0
   -3.0744   -0.8047    1.4927 C   0  0  0  0  0  0  0  0  0  0  0  0
   -3.7768   -1.3431    0.2309 C   0  0  0  0  0  0  0  0  0  0  0  0
   -3.0322   -0.8449   -1.0234 C   0  0  0  0  0  0  0  0  0  0  0  0
   -3.0408    0.6969   -1.0566 C   0  0  0  0  0  0  0  0  0  0  0  0
   -2.3404    1.2492    0.2105 C   0  0  0  0  0  0  0  0  0  0  0  0
   -2.3268    2.6556    0.1871 O   0  0  0  0  0  0  0  0  0  0  0  0
   -3.0831    0.7383    1.4723 C   0  0  0  0  0  0  0  0  0  0  0  0
   -0.8775    0.7405    0.2468 C   0  0  0  0  0  0  0  0  0  0  0  0
   -1.5743   -1.3462   -0.9923 C   0  0  0  0  0  0  0  0  0  0  0  0
    1.0604   -1.9092    2.2568 H   0  0  0  0  0  0  0  0  0  0  0  0
    1.0904   -0.2517    1.9970 H   0  0  0  0  0  0  0  0  0  0  0  0
    0.5437   -2.4920    0.1912 H   0  0  0  0  0  0  0  0  0  0  0  0
    1.7443    1.6972    0.5101 H   0  0  0  0  0  0  0  0  0  0  0  0
    3.7937    1.4865    2.0793 H   0  0  0  0  0  0  0  0  0  0  0  0
    4.5004    0.0831    0.9307 H   0  0  0  0  0  0  0  0  0  0  0  0
    3.6592    3.0328    0.1154 H   0  0  0  0  0  0  0  0  0  0  0  0
    5.4491    1.2189   -1.3046 H   0  0  0  0  0  0  0  0  0  0  0  0
    4.2737    2.2696   -2.1784 H   0  0  0  0  0  0  0  0  0  0  0  0
    3.0214    0.4565   -2.8193 H   0  0  0  0  0  0  0  0  0  0  0  0
   -1.6112   -2.4226    1.5719 H   0  0  0  0  0  0  0  0  0  0  0  0
   -1.1436   -0.9425    2.4639 H   0  0  0  0  0  0  0  0  0  0  0  0
   -3.6130   -1.1650    2.3962 H   0  0  0  0  0  0  0  0  0  0  0  0
   -4.8340   -0.9985    0.2075 H   0  0  0  0  0  0  0  0  0  0  0  0
   -3.7906   -2.4552    0.2483 H   0  0  0  0  0  0  0  0  0  0  0  0
   -3.5387   -1.2363   -1.9325 H   0  0  0  0  0  0  0  0  0  0  0  0
   -2.5198    1.0597   -1.9702 H   0  0  0  0  0  0  0  0  0  0  0  0
   -4.0905    1.0619   -1.1069 H   0  0  0  0  0  0  0  0  0  0  0  0
   -3.2695    2.9675    0.1677 H   0  0  0  0  0  0  0  0  0  0  0  0
   -2.5934    1.1320    2.3904 H   0  0  0  0  0  0  0  0  0  0  0  0
   -4.1338    1.1040    1.4753 H   0  0  0  0  0  0  0  0  0  0  0  0
   -0.3353    1.1242   -0.6453 H   0  0  0  0  0  0  0  0  0  0  0  0
   -0.3913    1.1637    1.1495 H   0  0  0  0  0  0  0  0  0  0  0  0
   -1.0711   -0.9971   -1.9187 H   0  0  0  0  0  0  0  0  0  0  0  0
   -1.5671   -2.4587   -1.0098 H   0  0  0  0  0  0  0  0  0  0  0  0
  1  2  1  0
  2  3  1  0
  3  4  2  0
  3  5  1  0
  5  6  1  0
  6  7  1  0
  7  8  1  0
  8  9  1  0
  9 10  1  0
 10 11  1  0
 11 12  3  0
  2 13  1  0
 13 14  1  0
 14 15  1  0
 15 16  1  0
 16 17  1  0
 17 18  1  0
 18 19  1  0
 19 20  1  0
 19 21  1  0
 19 22  1  0
 17 23  1  0
 10  5  1  0
 22 13  1  0
  8  6  1  0
 23 13  1  0
 21 15  1  0
  1 24  1  0
  1 25  1  0
  2 26  1  6
  6 27  1  1
  7 28  1  0
  7 29  1  0
  8 30  1  1
  9 31  1  0
  9 32  1  0
 10 33  1  6
 14 34  1  0
 14 35  1  0
 15 36  1  0
 16 37  1  0
 16 38  1  0
 17 39  1  0
 18 40  1  0
 18 41  1  0
 20 42  1  0
 21 43  1  0
 21 44  1  0
 22 45  1  0
 22 46  1  0
 23 47  1  0
 23 48  1  0
M  END
$$$$
