
     RDKit          3D

 52 55  0  0  0  0  0  0  0  0999 V2000
   -3.4615    2.2065   -2.0807 C   0  0  0  0  0  0  0  0  0  0  0  0
   -4.9592    2.2993   -1.8127 C   0  0  0  0  0  0  0  0  0  0  0  0
   -5.3530    1.7703   -0.1530 S   0  0  0  0  0  6  0  0  0  0  0  0
   -6.8336    1.9020    0.0698 O   0  0  0  0  0  0  0  0  0  0  0  0
   -4.6417    2.6453    0.8415 O   0  0  0  0  0  0  0  0  0  0  0  0
   -4.8711    0.0916    0.0773 C   0  0  0  0  0  0  0  0  0  0  0  0
   -5.7569   -0.9439   -0.2357 C   0  0  0  0  0  0  0  0  0  0  0  0
   -5.3732   -2.2749   -0.0608 C   0  0  0  0  0  0  0  0  0  0  0  0
   -4.0846   -2.5903    0.4129 C   0  0  0  0  0  0  0  0  0  0  0  0
   -3.6657   -3.9185    0.5938 O   0  0  0  0  0  0  0  0  0  0  0  0
   -4.4736   -5.0624    0.3363 C   0  0  0  0  0  0  0  0  0  0  0  0
   -3.1811   -1.5496    0.7018 C   0  0  0  0  0  0  0  0  0  0  0  0
   -1.8650   -1.8608    1.1904 N   0  0  0  0  0  0  0  0  0  0  0  0
   -0.6859   -1.1438    0.8033 C   0  0  0  0  0  0  0  0  0  0  0  0
   -0.6540   -0.2193   -0.1801 N   0  0  0  0  0  0  0  0  0  0  0  0
    0.6370    0.1625   -0.2036 C   0  0  0  0  0  0  0  0  0  0  0  0
    1.3342   -0.5467    0.7579 C   0  0  0  0  0  0  0  0  0  0  0  0
    0.4860   -1.3458    1.3584 O   0  0  0  0  0  0  0  0  0  0  0  0
    2.7746   -0.4596    1.0913 C   0  0  0  0  0  0  0  0  0  0  0  0
    3.2927   -1.2547    2.1258 C   0  0  0  0  0  0  0  0  0  0  0  0
    4.6484   -1.1974    2.4505 C   0  0  0  0  0  0  0  0  0  0  0  0
    5.5030   -0.3434    1.7521 C   0  0  0  0  0  0  0  0  0  0  0  0
    5.0091    0.4731    0.7204 C   0  0  0  0  0  0  0  0  0  0  0  0
    3.6412    0.3997    0.3893 C   0  0  0  0  0  0  0  0  0  0  0  0
    5.9356    1.3716   -0.0153 C   0  0  0  0  0  0  0  0  0  0  0  0
    5.4987    2.5869   -0.5752 C   0  0  0  0  0  0  0  0  0  0  0  0
    6.4098    3.3992   -1.2537 C   0  0  0  0  0  0  0  0  0  0  0  0
    7.7431    3.0061   -1.3672 C   0  0  0  0  0  0  0  0  0  0  0  0
    8.1493    1.8016   -0.7922 C   0  0  0  0  0  0  0  0  0  0  0  0
    7.2487    1.0227   -0.1360 N   0  0  0  0  0  0  0  0  0  0  0  0
   -3.5897   -0.2131    0.5500 C   0  0  0  0  0  0  0  0  0  0  0  0
   -3.1214    1.1517   -2.0160 H   0  0  0  0  0  0  0  0  0  0  0  0
   -2.8981    2.8209   -1.3469 H   0  0  0  0  0  0  0  0  0  0  0  0
   -3.2439    2.5842   -3.1017 H   0  0  0  0  0  0  0  0  0  0  0  0
   -5.5055    1.6588   -2.5370 H   0  0  0  0  0  0  0  0  0  0  0  0
   -5.2933    3.3500   -1.9449 H   0  0  0  0  0  0  0  0  0  0  0  0
   -6.7471   -0.7220   -0.6128 H   0  0  0  0  0  0  0  0  0  0  0  0
   -6.0850   -3.0520   -0.3028 H   0  0  0  0  0  0  0  0  0  0  0  0
   -4.7660   -5.0901   -0.7346 H   0  0  0  0  0  0  0  0  0  0  0  0
   -5.3781   -5.0439    0.9803 H   0  0  0  0  0  0  0  0  0  0  0  0
   -3.8910   -5.9771    0.5688 H   0  0  0  0  0  0  0  0  0  0  0  0
   -1.7371   -2.7055    1.7917 H   0  0  0  0  0  0  0  0  0  0  0  0
    1.0287    0.9079   -0.8812 H   0  0  0  0  0  0  0  0  0  0  0  0
    2.6493   -1.9249    2.6824 H   0  0  0  0  0  0  0  0  0  0  0  0
    5.0385   -1.8167    3.2480 H   0  0  0  0  0  0  0  0  0  0  0  0
    6.5497   -0.3123    2.0284 H   0  0  0  0  0  0  0  0  0  0  0  0
    3.2596    0.9905   -0.4303 H   0  0  0  0  0  0  0  0  0  0  0  0
    4.4751    2.9212   -0.4717 H   0  0  0  0  0  0  0  0  0  0  0  0
    6.0833    4.3366   -1.6854 H   0  0  0  0  0  0  0  0  0  0  0  0
    8.4556    3.6309   -1.8900 H   0  0  0  0  0  0  0  0  0  0  0  0
    9.1811    1.4852   -0.8664 H   0  0  0  0  0  0  0  0  0  0  0  0
   -2.9159    0.5924    0.8106 H   0  0  0  0  0  0  0  0  0  0  0  0
  1  2  1  0
  2  3  1  0
  3  4  2  0
  3  5  2  0
  3  6  1  0
  6  7  2  0
  7  8  1  0
  8  9  2  0
  9 10  1  0
 10 11  1  0
  9 12  1  0
 12 13  1  0
 13 14  1  0
 14 15  2  0
 15 16  1  0
 16 17  2  0
 17 18  1  0
 17 19  1  0
 19 20  2  0
 20 21  1  0
 21 22  2  0
 22 23  1  0
 23 24  2  0
 23 25  1  0
 25 26  2  0
 26 27  1  0
 27 28  2  0
 28 29  1  0
 29 30  2  0
 12 31  2  0
 31  6  1  0
 18 14  1  0
 24 19  1  0
 30 25  1  0
  1 32  1  0
  1 33  1  0
  1 34  1  0
  2 35  1  0
  2 36  1  0
  7 37  1  0
  8 38  1  0
 11 39  1  0
 11 40  1  0
 11 41  1  0
 13 42  1  0
 16 43  1  0
 20 44  1  0
 21 45  1  0
 22 46  1  0
 24 47  1  0
 26 48  1  0
 27 49  1  0
 28 50  1  0
 29 51  1  0
 31 52  1  0
M  END
$$$$
