
     RDKit          3D

106109  0  0  0  0  0  0  0  0999 V2000
    8.5669   -6.2533   -0.7108 C   0  0  0  0  0  0  0  0  0  0  0  0
    8.9507   -6.1889    0.6590 O   0  0  0  0  0  0  0  0  0  0  0  0
    8.2192   -5.5322    1.6617 C   0  0  0  0  0  0  0  0  0  0  0  0
    7.0059   -4.8691    1.3925 C   0  0  0  0  0  0  0  0  0  0  0  0
    6.3021   -4.2146    2.4215 C   0  0  0  0  0  0  0  0  0  0  0  0
    5.0169   -3.5127    2.1841 C   0  0  0  0  0  0  0  0  0  0  0  0
    4.6583   -3.0073    0.9952 C   0  0  0  0  0  0  0  0  0  0  0  0
    3.3873   -2.2909    0.7756 C   0  0  0  0  0  0  0  0  0  0  0  0
    3.1394   -1.8335   -0.3704 O   0  0  0  0  0  0  0  0  0  0  0  0
    2.1593   -2.0755    2.0748 S   0  0  0  0  0  0  0  0  0  0  0  0
    2.9323   -0.5889    2.8101 C   0  0  0  0  0  0  0  0  0  0  0  0
    2.3533    0.6999    2.2204 C   0  0  0  0  0  0  0  0  0  0  0  0
    2.7412    0.8686    0.8219 N   0  0  0  0  0  0  0  0  0  0  0  0
    4.0762    1.2164    0.4257 C   0  0  0  0  0  0  0  0  0  0  0  0
    4.9669    1.4210    1.2943 O   0  0  0  0  0  0  0  0  0  0  0  0
    4.4097    1.3900   -1.0266 C   0  0  0  0  0  0  0  0  0  0  0  0
    4.3133    2.8606   -1.4448 C   0  0  0  0  0  0  0  0  0  0  0  0
    2.9695    3.3884   -1.2129 N   0  0  0  0  0  0  0  0  0  0  0  0
    1.8427    3.0184   -2.0202 C   0  0  0  0  0  0  0  0  0  0  0  0
    2.0028    2.2836   -3.0331 O   0  0  0  0  0  0  0  0  0  0  0  0
    0.4618    3.5185   -1.6666 C   0  0  2  0  0  0  0  0  0  0  0  0
   -0.4841    2.5170   -1.9520 O   0  0  0  0  0  0  0  0  0  0  0  0
    0.0803    4.8466   -2.4041 C   0  0  0  0  0  0  0  0  0  0  0  0
    0.0849    4.6492   -3.9382 C   0  0  0  0  0  0  0  0  0  0  0  0
    1.0785    5.9730   -2.0482 C   0  0  0  0  0  0  0  0  0  0  0  0
   -1.3447    5.2830   -1.9714 C   0  0  0  0  0  0  0  0  0  0  0  0
   -1.3824    5.5109   -0.5756 O   0  0  0  0  0  0  0  0  0  0  0  0
   -2.9089    5.0558    0.0295 P   0  0  1  0  0  5  0  0  0  0  0  0
   -2.9782    5.4297    1.4934 O   0  0  0  0  0  0  0  0  0  0  0  0
   -4.1189    5.8778   -0.8252 O   0  0  0  0  0  0  0  0  0  0  0  0
   -3.0632    3.3704   -0.1543 O   0  0  0  0  0  0  0  0  0  0  0  0
   -4.6179    2.9179    0.3708 P   0  0  2  0  0  5  0  0  0  0  0  0
   -5.8039    3.6766   -0.5682 O   0  0  0  0  0  0  0  0  0  0  0  0
   -4.8224    3.2832    1.8254 O   0  0  0  0  0  0  0  0  0  0  0  0
   -4.7846    1.2341    0.1733 O   0  0  0  0  0  0  0  0  0  0  0  0
   -3.8448    0.5875    1.0003 C   0  0  0  0  0  0  0  0  0  0  0  0
   -3.8162   -0.9108    0.6745 C   0  0  1  0  0  0  0  0  0  0  0  0
   -5.1007   -1.4636    0.8877 O   0  0  0  0  0  0  0  0  0  0  0  0
   -5.4300   -2.2066   -0.2616 C   0  0  2  0  0  0  0  0  0  0  0  0
   -4.6591   -1.6246   -1.4301 C   0  0  2  0  0  0  0  0  0  0  0  0
   -4.4499   -2.5911   -2.4269 O   0  0  0  0  0  0  0  0  0  0  0  0
   -3.3719   -1.1754   -0.7775 C   0  0  2  0  0  0  0  0  0  0  0  0
   -2.4286   -2.2320   -0.8108 O   0  0  0  0  0  0  0  0  0  0  0  0
   -0.8454   -1.5942   -0.8768 P   0  0  0  0  0  5  0  0  0  0  0  0
   -0.5969   -0.4847    0.3762 O   0  0  0  0  0  0  0  0  0  0  0  0
    0.2609   -2.8640   -0.7191 O   0  0  0  0  0  0  0  0  0  0  0  0
   -0.6232   -0.9083   -2.2063 O   0  0  0  0  0  0  0  0  0  0  0  0
   -6.8726   -2.1588   -0.5094 N   0  0  0  0  0  0  0  0  0  0  0  0
   -7.6394   -3.1363   -1.0585 C   0  0  0  0  0  0  0  0  0  0  0  0
   -8.9338   -2.7621   -1.2570 N   0  0  0  0  0  0  0  0  0  0  0  0
   -8.9465   -1.4909   -0.8140 C   0  0  0  0  0  0  0  0  0  0  0  0
   -9.9916   -0.5740   -0.7872 C   0  0  0  0  0  0  0  0  0  0  0  0
  -11.3010   -0.9120   -1.2448 N   0  0  0  0  0  0  0  0  0  0  0  0
   -9.7233    0.6783   -0.3095 N   0  0  0  0  0  0  0  0  0  0  0  0
   -8.4689    1.0229    0.1265 C   0  0  0  0  0  0  0  0  0  0  0  0
   -7.4496    0.1130    0.0934 N   0  0  0  0  0  0  0  0  0  0  0  0
   -7.7194   -1.1287   -0.3759 C   0  0  0  0  0  0  0  0  0  0  0  0
    6.8114   -4.2571    3.7274 C   0  0  0  0  0  0  0  0  0  0  0  0
    8.0168   -4.9133    4.0046 C   0  0  0  0  0  0  0  0  0  0  0  0
    8.5161   -4.9369    5.3062 O   0  0  0  0  0  0  0  0  0  0  0  0
    8.7224   -5.5480    2.9699 C   0  0  0  0  0  0  0  0  0  0  0  0
    9.9270   -6.2046    3.2258 O   0  0  0  0  0  0  0  0  0  0  0  0
    8.5016   -5.2302   -1.1378 H   0  0  0  0  0  0  0  0  0  0  0  0
    7.5907   -6.7733   -0.8100 H   0  0  0  0  0  0  0  0  0  0  0  0
    9.3320   -6.8251   -1.2748 H   0  0  0  0  0  0  0  0  0  0  0  0
    6.6015   -4.8871    0.3917 H   0  0  0  0  0  0  0  0  0  0  0  0
    4.3708   -3.3676    3.0403 H   0  0  0  0  0  0  0  0  0  0  0  0
    5.3260   -3.0840    0.1478 H   0  0  0  0  0  0  0  0  0  0  0  0
    2.7083   -0.6034    3.8974 H   0  0  0  0  0  0  0  0  0  0  0  0
    4.0374   -0.6140    2.7060 H   0  0  0  0  0  0  0  0  0  0  0  0
    2.7071    1.5728    2.8103 H   0  0  0  0  0  0  0  0  0  0  0  0
    1.2448    0.6725    2.2978 H   0  0  0  0  0  0  0  0  0  0  0  0
    1.9995    0.7900    0.0899 H   0  0  0  0  0  0  0  0  0  0  0  0
    5.4445    1.0284   -1.2094 H   0  0  0  0  0  0  0  0  0  0  0  0
    3.7293    0.7701   -1.6481 H   0  0  0  0  0  0  0  0  0  0  0  0
    4.5773    2.9654   -2.5192 H   0  0  0  0  0  0  0  0  0  0  0  0
    5.0484    3.4557   -0.8598 H   0  0  0  0  0  0  0  0  0  0  0  0
    2.8352    4.0731   -0.4351 H   0  0  0  0  0  0  0  0  0  0  0  0
    0.4472    3.7169   -0.5686 H   0  0  0  0  0  0  0  0  0  0  0  0
   -0.4070    1.8328   -1.2364 H   0  0  0  0  0  0  0  0  0  0  0  0
   -0.5944    3.8214   -4.2340 H   0  0  0  0  0  0  0  0  0  0  0  0
    1.1049    4.4164   -4.3100 H   0  0  0  0  0  0  0  0  0  0  0  0
   -0.2550    5.5745   -4.4517 H   0  0  0  0  0  0  0  0  0  0  0  0
    0.7543    6.9388   -2.4926 H   0  0  0  0  0  0  0  0  0  0  0  0
    1.1528    6.1036   -0.9474 H   0  0  0  0  0  0  0  0  0  0  0  0
    2.0928    5.7463   -2.4401 H   0  0  0  0  0  0  0  0  0  0  0  0
   -2.0643    4.5046   -2.3228 H   0  0  0  0  0  0  0  0  0  0  0  0
   -1.6222    6.2292   -2.4865 H   0  0  0  0  0  0  0  0  0  0  0  0
   -3.8885    6.8363   -0.7301 H   0  0  0  0  0  0  0  0  0  0  0  0
   -5.6457    3.3444   -1.4877 H   0  0  0  0  0  0  0  0  0  0  0  0
   -2.8171    0.9922    0.8548 H   0  0  0  0  0  0  0  0  0  0  0  0
   -4.1316    0.7086    2.0689 H   0  0  0  0  0  0  0  0  0  0  0  0
   -3.1094   -1.3971    1.3826 H   0  0  0  0  0  0  0  0  0  0  0  0
   -5.1215   -3.2641   -0.0911 H   0  0  0  0  0  0  0  0  0  0  0  0
   -5.2041   -0.7439   -1.8467 H   0  0  0  0  0  0  0  0  0  0  0  0
   -4.0640   -2.1101   -3.2048 H   0  0  0  0  0  0  0  0  0  0  0  0
   -3.0228   -0.2531   -1.3035 H   0  0  0  0  0  0  0  0  0  0  0  0
   -0.6435   -1.0250    1.2045 H   0  0  0  0  0  0  0  0  0  0  0  0
    0.0190   -3.5008   -1.4379 H   0  0  0  0  0  0  0  0  0  0  0  0
   -7.2595   -4.1134   -1.3278 H   0  0  0  0  0  0  0  0  0  0  0  0
  -12.0661   -0.2023   -1.2156 H   0  0  0  0  0  0  0  0  0  0  0  0
  -11.5127   -1.8663   -1.6123 H   0  0  0  0  0  0  0  0  0  0  0  0
   -8.2841    2.0219    0.4969 H   0  0  0  0  0  0  0  0  0  0  0  0
    6.2760   -3.7695    4.5336 H   0  0  0  0  0  0  0  0  0  0  0  0
    8.0271   -4.4871    6.0713 H   0  0  0  0  0  0  0  0  0  0  0  0
   10.3328   -6.2459    4.1530 H   0  0  0  0  0  0  0  0  0  0  0  0
  1  2  1  0
  2  3  1  0
  3  4  2  0
  4  5  1  0
  5  6  1  0
  6  7  2  0
  7  8  1  0
  8  9  2  0
  8 10  1  0
 10 11  1  0
 11 12  1  0
 12 13  1  0
 13 14  1  0
 14 15  2  0
 14 16  1  0
 16 17  1  0
 17 18  1  0
 18 19  1  0
 19 20  2  0
 19 21  1  0
 21 22  1  0
 21 23  1  0
 23 24  1  0
 23 25  1  0
 23 26  1  0
 26 27  1  0
 28 27  1  6
 28 29  2  0
 28 30  1  0
 28 31  1  0
 32 31  1  6
 32 33  1  0
 32 34  2  0
 32 35  1  0
 35 36  1  0
 36 37  1  0
 37 38  1  0
 38 39  1  0
 39 40  1  0
 40 41  1  0
 40 42  1  0
 42 43  1  0
 43 44  1  0
 44 45  1  0
 44 46  1  0
 44 47  2  0
 39 48  1  0
 48 49  1  0
 49 50  2  0
 50 51  1  0
 51 52  2  0
 52 53  1  0
 52 54  1  0
 54 55  2  0
 55 56  1  0
 56 57  2  0
  5 58  2  0
 58 59  1  0
 59 60  1  0
 59 61  2  0
 61 62  1  0
 61  3  1  0
 42 37  1  0
 57 48  1  0
 57 51  1  0
  1 63  1  0
  1 64  1  0
  1 65  1  0
  4 66  1  0
  6 67  1  0
  7 68  1  0
 11 69  1  0
 11 70  1  0
 12 71  1  0
 12 72  1  0
 13 73  1  0
 16 74  1  0
 16 75  1  0
 17 76  1  0
 17 77  1  0
 18 78  1  0
 21 79  1  1
 22 80  1  0
 24 81  1  0
 24 82  1  0
 24 83  1  0
 25 84  1  0
 25 85  1  0
 25 86  1  0
 26 87  1  0
 26 88  1  0
 30 89  1  0
 33 90  1  0
 36 91  1  0
 36 92  1  0
 37 93  1  1
 39 94  1  1
 40 95  1  6
 41 96  1  0
 42 97  1  6
 45 98  1  0
 46 99  1  0
 49100  1  0
 53101  1  0
 53102  1  0
 55103  1  0
 58104  1  0
 60105  1  0
 62106  1  0
M  END
$$$$
