
     RDKit          3D

 37 39  0  0  0  0  0  0  0  0999 V2000
   -2.4941   -2.2801    0.7065 N   0  0  0  0  0  0  0  0  0  0  0  0
   -2.1516   -1.2973    1.7345 C   0  0  0  0  0  0  0  0  0  0  0  0
   -1.5430   -0.0056    1.1374 C   0  0  2  0  0  0  0  0  0  0  0  0
   -2.3844    0.5548    0.0025 C   0  0  0  0  0  0  0  0  0  0  0  0
   -2.2214    0.1059   -1.3234 C   0  0  0  0  0  0  0  0  0  0  0  0
   -3.0252    0.6144   -2.3476 C   0  0  0  0  0  0  0  0  0  0  0  0
   -4.0070    1.5671   -2.0619 C   0  0  0  0  0  0  0  0  0  0  0  0
   -5.0157    2.2019   -3.3488 Cl  0  0  0  0  0  0  0  0  0  0  0  0
   -4.1888    2.0079   -0.7481 C   0  0  0  0  0  0  0  0  0  0  0  0
   -3.3871    1.5019    0.2794 C   0  0  0  0  0  0  0  0  0  0  0  0
   -0.0693   -0.1031    0.7567 C   0  0  0  0  0  0  0  0  0  0  0  0
    0.7107    1.0655    0.7795 C   0  0  0  0  0  0  0  0  0  0  0  0
    2.0559    1.0372    0.4036 C   0  0  0  0  0  0  0  0  0  0  0  0
    2.6567   -0.1615   -0.0179 C   0  0  0  0  0  0  0  0  0  0  0  0
    1.8745   -1.3289   -0.0572 C   0  0  0  0  0  0  0  0  0  0  0  0
    0.5288   -1.3005    0.3193 C   0  0  0  0  0  0  0  0  0  0  0  0
    4.0871   -0.1924   -0.4192 C   0  0  0  0  0  0  0  0  0  0  0  0
    5.0351    0.8024   -0.2537 C   0  0  0  0  0  0  0  0  0  0  0  0
    6.2027    0.3657   -0.7550 N   0  0  0  0  0  0  0  0  0  0  0  0
    6.0546   -0.8575   -1.2353 N   0  0  0  0  0  0  0  0  0  0  0  0
    4.7731   -1.2242   -1.0430 C   0  0  0  0  0  0  0  0  0  0  0  0
   -2.6678   -3.1938    1.1842 H   0  0  0  0  0  0  0  0  0  0  0  0
   -3.4048   -2.0023    0.2736 H   0  0  0  0  0  0  0  0  0  0  0  0
   -3.0676   -1.0376    2.3126 H   0  0  0  0  0  0  0  0  0  0  0  0
   -1.4291   -1.7438    2.4536 H   0  0  0  0  0  0  0  0  0  0  0  0
   -1.5806    0.7279    1.9754 H   0  0  0  0  0  0  0  0  0  0  0  0
   -1.4782   -0.6418   -1.5665 H   0  0  0  0  0  0  0  0  0  0  0  0
   -2.8867    0.2634   -3.3623 H   0  0  0  0  0  0  0  0  0  0  0  0
   -4.9531    2.7400   -0.5207 H   0  0  0  0  0  0  0  0  0  0  0  0
   -3.5500    1.8492    1.2921 H   0  0  0  0  0  0  0  0  0  0  0  0
    0.2725    2.0077    1.0857 H   0  0  0  0  0  0  0  0  0  0  0  0
    2.6160    1.9616    0.4321 H   0  0  0  0  0  0  0  0  0  0  0  0
    2.2979   -2.2722   -0.3736 H   0  0  0  0  0  0  0  0  0  0  0  0
   -0.0320   -2.2205    0.2617 H   0  0  0  0  0  0  0  0  0  0  0  0
    4.8982    1.7718    0.2057 H   0  0  0  0  0  0  0  0  0  0  0  0
    7.1009    0.8972   -0.7699 H   0  0  0  0  0  0  0  0  0  0  0  0
    4.3726   -2.1801   -1.3503 H   0  0  0  0  0  0  0  0  0  0  0  0
  1  2  1  0
  2  3  1  0
  3  4  1  0
  4  5  2  0
  5  6  1  0
  6  7  2  0
  7  8  1  0
  7  9  1  0
  9 10  2  0
  3 11  1  0
 11 12  2  0
 12 13  1  0
 13 14  2  0
 14 15  1  0
 15 16  2  0
 14 17  1  0
 17 18  2  0
 18 19  1  0
 19 20  1  0
 20 21  2  0
 10  4  1  0
 16 11  1  0
 21 17  1  0
  1 22  1  0
  1 23  1  0
  2 24  1  0
  2 25  1  0
  3 26  1  1
  5 27  1  0
  6 28  1  0
  9 29  1  0
 10 30  1  0
 12 31  1  0
 13 32  1  0
 15 33  1  0
 16 34  1  0
 18 35  1  0
 19 36  1  0
 21 37  1  0
M  END
$$$$
