
     RDKit          3D

 16 15  0  0  0  0  0  0  0  0999 V2000
   -1.7308   -1.5377   -0.3217 O   0  0  0  0  0  0  0  0  0  0  0  0
   -0.8620   -0.5834    0.2372 C   0  0  1  0  0  0  0  0  0  0  0  0
    0.5617   -0.7256   -0.3436 C   0  0  2  0  0  0  0  0  0  0  0  0
    0.9933   -2.0533   -0.1922 O   0  0  0  0  0  0  0  0  0  0  0  0
    1.5214    0.1994    0.3539 C   0  0  0  0  0  0  0  0  0  0  0  0
    1.9434    1.3642   -0.2794 O   0  0  0  0  0  0  0  0  0  0  0  0
    1.9202   -0.0612    1.5211 O   0  0  0  0  0  0  0  0  0  0  0  0
   -1.4149    0.8026    0.0328 C   0  0  0  0  0  0  0  0  0  0  0  0
   -1.6193    1.6340    1.1297 O   0  0  0  0  0  0  0  0  0  0  0  0
   -1.6767    1.2195   -1.1277 O   0  0  0  0  0  0  0  0  0  0  0  0
   -1.7241   -1.4148   -1.3074 H   0  0  0  0  0  0  0  0  0  0  0  0
   -0.8153   -0.7805    1.3310 H   0  0  0  0  0  0  0  0  0  0  0  0
    0.5341   -0.4676   -1.4287 H   0  0  0  0  0  0  0  0  0  0  0  0
    1.7728   -2.1728   -0.7960 H   0  0  0  0  0  0  0  0  0  0  0  0
    2.5784    2.0051    0.1812 H   0  0  0  0  0  0  0  0  0  0  0  0
   -1.9822    2.5722    1.0099 H   0  0  0  0  0  0  0  0  0  0  0  0
  1  2  1  0
  2  3  1  0
  3  4  1  0
  3  5  1  0
  5  6  1  0
  5  7  2  0
  2  8  1  0
  8  9  1  0
  8 10  2  0
  1 11  1  0
  2 12  1  1
  3 13  1  6
  4 14  1  0
  6 15  1  0
  9 16  1  0
M  END
$$$$
