
     RDKit          3D

 73 76  0  0  0  0  0  0  0  0999 V2000
   -3.6082    0.7160    2.7548 C   0  0  0  0  0  0  0  0  0  0  0  0
   -4.0317    0.5048    1.3675 N   0  0  0  0  0  0  0  0  0  0  0  0
   -3.5012    1.3724    0.2988 C   0  0  0  0  0  0  0  0  0  0  0  0
   -2.2853    0.7550   -0.4276 C   0  0  1  0  0  0  0  0  0  0  0  0
   -1.0764    0.5727    0.5227 C   0  0  0  0  0  0  0  0  0  0  0  0
    0.2093    0.1927   -0.2304 C   0  0  0  0  0  0  0  0  0  0  0  0
    1.3327    0.0400    0.7186 N   0  0  0  0  0  0  0  0  0  0  0  0
    1.9411    1.3476    1.0920 C   0  0  0  0  0  0  0  0  0  0  0  0
    3.3339    1.5621    0.4790 C   0  0  0  0  0  0  0  0  0  0  0  0
    4.3359    0.4650    0.9408 C   0  0  0  0  0  0  0  0  0  0  0  0
    3.6082   -0.9191    1.0351 C   0  0  0  0  0  0  0  0  0  0  0  0
    2.3073   -0.9582    0.2208 C   0  0  0  0  0  0  0  0  0  0  0  0
    4.8360    0.8017    2.2911 N   0  0  0  0  0  0  0  0  0  0  0  0
    5.8104    0.0123    2.9948 C   0  0  0  0  0  0  0  0  0  0  0  0
    6.2592    0.4272    4.3577 C   0  0  0  0  0  0  0  0  0  0  0  0
    6.3117   -1.0141    2.4613 O   0  0  0  0  0  0  0  0  0  0  0  0
    5.5091    0.4742   -0.0555 C   0  0  0  0  0  0  0  0  0  0  0  0
    5.5314   -0.3551   -1.2001 C   0  0  0  0  0  0  0  0  0  0  0  0
    6.5836   -0.2798   -2.1175 C   0  0  0  0  0  0  0  0  0  0  0  0
    7.6153    0.6394   -1.9294 C   0  0  0  0  0  0  0  0  0  0  0  0
    7.5908    1.4967   -0.8301 C   0  0  0  0  0  0  0  0  0  0  0  0
    6.5422    1.4271    0.0909 C   0  0  0  0  0  0  0  0  0  0  0  0
   -2.6840   -0.4892   -1.2134 C   0  0  0  0  0  0  0  0  0  0  0  0
   -2.5577   -1.7915   -0.6889 C   0  0  0  0  0  0  0  0  0  0  0  0
   -2.9747   -2.8987   -1.4313 C   0  0  0  0  0  0  0  0  0  0  0  0
   -3.5494   -2.7282   -2.6936 C   0  0  0  0  0  0  0  0  0  0  0  0
   -4.0915   -4.1452   -3.5817 Cl  0  0  0  0  0  0  0  0  0  0  0  0
   -3.7054   -1.4360   -3.2180 C   0  0  0  0  0  0  0  0  0  0  0  0
   -4.4580   -1.1736   -4.7851 Cl  0  0  0  0  0  0  0  0  0  0  0  0
   -3.2736   -0.3284   -2.4805 C   0  0  0  0  0  0  0  0  0  0  0  0
   -4.9334   -0.5868    1.0872 C   0  0  0  0  0  0  0  0  0  0  0  0
   -4.8381   -1.6524    1.7556 O   0  0  0  0  0  0  0  0  0  0  0  0
   -5.9741   -0.4974    0.0392 C   0  0  0  0  0  0  0  0  0  0  0  0
   -6.7006    0.6899   -0.1555 C   0  0  0  0  0  0  0  0  0  0  0  0
   -7.6769    0.7642   -1.1538 C   0  0  0  0  0  0  0  0  0  0  0  0
   -7.9483   -0.3496   -1.9527 C   0  0  0  0  0  0  0  0  0  0  0  0
   -7.2547   -1.5441   -1.7442 C   0  0  0  0  0  0  0  0  0  0  0  0
   -6.2814   -1.6233   -0.7440 C   0  0  0  0  0  0  0  0  0  0  0  0
   -2.9110    1.5758    2.8427 H   0  0  0  0  0  0  0  0  0  0  0  0
   -4.4969    0.9190    3.3888 H   0  0  0  0  0  0  0  0  0  0  0  0
   -3.0884   -0.1890    3.1341 H   0  0  0  0  0  0  0  0  0  0  0  0
   -4.2846    1.6068   -0.4480 H   0  0  0  0  0  0  0  0  0  0  0  0
   -3.2060    2.3581    0.7206 H   0  0  0  0  0  0  0  0  0  0  0  0
   -1.9636    1.5208   -1.1702 H   0  0  0  0  0  0  0  0  0  0  0  0
   -0.9058    1.5319    1.0563 H   0  0  0  0  0  0  0  0  0  0  0  0
   -1.2892   -0.1865    1.3025 H   0  0  0  0  0  0  0  0  0  0  0  0
    0.4481    0.9556   -1.0059 H   0  0  0  0  0  0  0  0  0  0  0  0
    0.0223   -0.7647   -0.7654 H   0  0  0  0  0  0  0  0  0  0  0  0
    2.0247    1.3883    2.1988 H   0  0  0  0  0  0  0  0  0  0  0  0
    1.2986    2.2079    0.8014 H   0  0  0  0  0  0  0  0  0  0  0  0
    3.2256    1.5532   -0.6291 H   0  0  0  0  0  0  0  0  0  0  0  0
    3.7102    2.5725    0.7522 H   0  0  0  0  0  0  0  0  0  0  0  0
    3.3264   -1.1264    2.0919 H   0  0  0  0  0  0  0  0  0  0  0  0
    4.2736   -1.7568    0.7369 H   0  0  0  0  0  0  0  0  0  0  0  0
    2.5296   -0.7871   -0.8556 H   0  0  0  0  0  0  0  0  0  0  0  0
    1.8652   -1.9739    0.3162 H   0  0  0  0  0  0  0  0  0  0  0  0
    4.4736    1.6536    2.7776 H   0  0  0  0  0  0  0  0  0  0  0  0
    6.8532    1.3616    4.2819 H   0  0  0  0  0  0  0  0  0  0  0  0
    6.8857   -0.3645    4.8210 H   0  0  0  0  0  0  0  0  0  0  0  0
    5.3746    0.6072    5.0036 H   0  0  0  0  0  0  0  0  0  0  0  0
    4.7420   -1.0625   -1.4012 H   0  0  0  0  0  0  0  0  0  0  0  0
    6.5933   -0.9307   -2.9824 H   0  0  0  0  0  0  0  0  0  0  0  0
    8.4266    0.6971   -2.6435 H   0  0  0  0  0  0  0  0  0  0  0  0
    8.3808    2.2242   -0.6953 H   0  0  0  0  0  0  0  0  0  0  0  0
    6.5375    2.1257    0.9178 H   0  0  0  0  0  0  0  0  0  0  0  0
   -2.1497   -1.9642    0.2958 H   0  0  0  0  0  0  0  0  0  0  0  0
   -2.8674   -3.8918   -1.0138 H   0  0  0  0  0  0  0  0  0  0  0  0
   -3.4108    0.6646   -2.8912 H   0  0  0  0  0  0  0  0  0  0  0  0
   -6.5158    1.5564    0.4675 H   0  0  0  0  0  0  0  0  0  0  0  0
   -8.2257    1.6846   -1.3056 H   0  0  0  0  0  0  0  0  0  0  0  0
   -8.7026   -0.2898   -2.7266 H   0  0  0  0  0  0  0  0  0  0  0  0
   -7.4713   -2.4095   -2.3570 H   0  0  0  0  0  0  0  0  0  0  0  0
   -5.7563   -2.5579   -0.5934 H   0  0  0  0  0  0  0  0  0  0  0  0
  1  2  1  0
  2  3  1  0
  3  4  1  0
  4  5  1  0
  5  6  1  0
  6  7  1  0
  7  8  1  0
  8  9  1  0
  9 10  1  0
 10 11  1  0
 11 12  1  0
 10 13  1  0
 13 14  1  0
 14 15  1  0
 14 16  2  0
 10 17  1  0
 17 18  2  0
 18 19  1  0
 19 20  2  0
 20 21  1  0
 21 22  2  0
  4 23  1  0
 23 24  2  0
 24 25  1  0
 25 26  2  0
 26 27  1  0
 26 28  1  0
 28 29  1  0
 28 30  2  0
  2 31  1  0
 31 32  2  0
 31 33  1  0
 33 34  2  0
 34 35  1  0
 35 36  2  0
 36 37  1  0
 37 38  2  0
 12  7  1  0
 22 17  1  0
 30 23  1  0
 38 33  1  0
  1 39  1  0
  1 40  1  0
  1 41  1  0
  3 42  1  0
  3 43  1  0
  4 44  1  6
  5 45  1  0
  5 46  1  0
  6 47  1  0
  6 48  1  0
  8 49  1  0
  8 50  1  0
  9 51  1  0
  9 52  1  0
 11 53  1  0
 11 54  1  0
 12 55  1  0
 12 56  1  0
 13 57  1  0
 15 58  1  0
 15 59  1  0
 15 60  1  0
 18 61  1  0
 19 62  1  0
 20 63  1  0
 21 64  1  0
 22 65  1  0
 24 66  1  0
 25 67  1  0
 30 68  1  0
 34 69  1  0
 35 70  1  0
 36 71  1  0
 37 72  1  0
 38 73  1  0
M  END
$$$$
