
     RDKit          3D

 27 28  0  0  0  0  0  0  0  0999 V2000
    0.3004   -0.5985   -0.8572 C   0  0  1  0  0  0  0  0  0  0  0  0
   -0.3305   -1.3393    0.1722 O   0  0  0  0  0  0  0  0  0  0  0  0
   -1.5024   -0.7034    0.6790 C   0  0  2  0  0  0  0  0  0  0  0  0
   -2.7674   -1.2680    0.0084 C   0  0  0  0  0  0  0  0  0  0  0  0
   -2.8026   -0.9706   -1.3621 O   0  0  0  0  0  0  0  0  0  0  0  0
   -1.4496    0.8538    0.6800 C   0  0  1  0  0  0  0  0  0  0  0  0
   -2.2115    1.3669    1.7431 O   0  0  0  0  0  0  0  0  0  0  0  0
    0.0061    1.3019    0.8351 C   0  0  2  0  0  0  0  0  0  0  0  0
    0.0680    2.7044    0.8644 O   0  0  0  0  0  0  0  0  0  0  0  0
    0.8324    0.7582   -0.3463 C   0  0  1  0  0  0  0  0  0  0  0  0
    2.2025    0.5607    0.0435 N   0  0  0  0  0  0  0  0  0  0  0  0
    2.7641   -0.4882   -0.4224 C   0  0  0  0  0  0  0  0  0  0  0  0
    4.1628   -0.8520   -0.0434 C   0  0  0  0  0  0  0  0  0  0  0  0
    1.7460   -1.5395   -1.4437 S   0  0  0  0  0  0  0  0  0  0  0  0
   -0.3863   -0.4516   -1.7181 H   0  0  0  0  0  0  0  0  0  0  0  0
   -1.5656   -1.0123    1.7461 H   0  0  0  0  0  0  0  0  0  0  0  0
   -2.7690   -2.3727    0.1248 H   0  0  0  0  0  0  0  0  0  0  0  0
   -3.6791   -0.8875    0.5251 H   0  0  0  0  0  0  0  0  0  0  0  0
   -3.3470   -0.1475   -1.4679 H   0  0  0  0  0  0  0  0  0  0  0  0
   -1.8304    1.2614   -0.2863 H   0  0  0  0  0  0  0  0  0  0  0  0
   -3.1608    1.3396    1.4547 H   0  0  0  0  0  0  0  0  0  0  0  0
    0.3950    0.8890    1.7974 H   0  0  0  0  0  0  0  0  0  0  0  0
    0.9718    2.9421    1.1996 H   0  0  0  0  0  0  0  0  0  0  0  0
    0.8046    1.4819   -1.1920 H   0  0  0  0  0  0  0  0  0  0  0  0
    4.4505   -1.8157   -0.5130 H   0  0  0  0  0  0  0  0  0  0  0  0
    4.8605   -0.0606   -0.3886 H   0  0  0  0  0  0  0  0  0  0  0  0
    4.2377   -0.9523    1.0597 H   0  0  0  0  0  0  0  0  0  0  0  0
  1  2  1  0
  2  3  1  0
  3  4  1  0
  4  5  1  0
  3  6  1  0
  6  7  1  0
  6  8  1  0
  8  9  1  0
  8 10  1  0
 10 11  1  0
 11 12  2  0
 12 13  1  0
 12 14  1  0
 10  1  1  0
 14  1  1  0
  1 15  1  6
  3 16  1  1
  4 17  1  0
  4 18  1  0
  5 19  1  0
  6 20  1  6
  7 21  1  0
  8 22  1  1
  9 23  1  0
 10 24  1  6
 13 25  1  0
 13 26  1  0
 13 27  1  0
M  END
$$$$
