
     RDKit          3D

 31 32  0  0  0  0  0  0  0  0999 V2000
    2.4014    0.0905   -0.5810 C   0  0  1  0  0  0  0  0  0  0  0  0
    2.8029   -1.3892   -0.6103 C   0  0  0  0  0  0  0  0  0  0  0  0
    4.0868   -1.5486   -0.0723 O   0  0  0  0  0  0  0  0  0  0  0  0
    1.1825    0.2476   -1.2848 O   0  0  0  0  0  0  0  0  0  0  0  0
    0.2459    0.8452   -0.4145 C   0  0  1  0  0  0  0  0  0  0  0  0
   -1.0879    0.2539   -0.6192 N   0  0  0  0  0  0  0  0  0  0  0  0
   -1.2508   -1.1643   -0.4655 C   0  0  0  0  0  0  0  0  0  0  0  0
   -2.3381   -1.7218    0.0698 C   0  0  0  0  0  0  0  0  0  0  0  0
   -3.5002   -0.9845    0.5925 C   0  0  0  0  0  0  0  0  0  0  0  0
   -4.0081    0.1377    0.0755 C   0  0  0  0  0  0  0  0  0  0  0  0
   -3.4851    0.7928   -1.0841 N   0  0  0  0  0  0  0  0  0  0  0  0
   -2.0909    0.9986   -1.3282 C   0  0  0  0  0  0  0  0  0  0  0  0
   -1.7442    1.8579   -2.1838 O   0  0  0  0  0  0  0  0  0  0  0  0
    0.7316    0.6545    1.0228 C   0  0  2  0  0  0  0  0  0  0  0  0
    0.2870    1.6552    1.9099 O   0  0  0  0  0  0  0  0  0  0  0  0
    2.2338    0.6128    0.8589 C   0  0  2  0  0  0  0  0  0  0  0  0
    2.8284    1.8811    1.0184 O   0  0  0  0  0  0  0  0  0  0  0  0
    3.1908    0.6684   -1.1114 H   0  0  0  0  0  0  0  0  0  0  0  0
    2.0690   -1.9925   -0.0297 H   0  0  0  0  0  0  0  0  0  0  0  0
    2.7985   -1.7457   -1.6647 H   0  0  0  0  0  0  0  0  0  0  0  0
    4.2815   -2.5210   -0.1092 H   0  0  0  0  0  0  0  0  0  0  0  0
    0.2213    1.9338   -0.6467 H   0  0  0  0  0  0  0  0  0  0  0  0
   -0.4126   -1.8125   -0.6912 H   0  0  0  0  0  0  0  0  0  0  0  0
   -2.3184   -2.7900    0.2473 H   0  0  0  0  0  0  0  0  0  0  0  0
   -4.0495   -1.4560    1.3980 H   0  0  0  0  0  0  0  0  0  0  0  0
   -4.9379    0.5078    0.4901 H   0  0  0  0  0  0  0  0  0  0  0  0
   -4.1567    1.3733   -1.6353 H   0  0  0  0  0  0  0  0  0  0  0  0
    0.4005   -0.3313    1.4166 H   0  0  0  0  0  0  0  0  0  0  0  0
    0.4418    2.5436    1.4969 H   0  0  0  0  0  0  0  0  0  0  0  0
    2.6792   -0.0732    1.6132 H   0  0  0  0  0  0  0  0  0  0  0  0
    2.4975    2.4756    0.2947 H   0  0  0  0  0  0  0  0  0  0  0  0
  1  2  1  0
  2  3  1  0
  1  4  1  0
  4  5  1  0
  5  6  1  0
  6  7  1  0
  7  8  2  0
  8  9  1  0
  9 10  2  0
 10 11  1  0
 11 12  1  0
 12 13  2  0
  5 14  1  0
 14 15  1  0
 14 16  1  0
 16 17  1  0
 16  1  1  0
 12  6  1  0
  1 18  1  6
  2 19  1  0
  2 20  1  0
  3 21  1  0
  5 22  1  6
  7 23  1  0
  8 24  1  0
  9 25  1  0
 10 26  1  0
 11 27  1  0
 14 28  1  1
 15 29  1  0
 16 30  1  1
 17 31  1  0
M  END
$$$$
