
     RDKit          3D

 37 39  0  0  0  0  0  0  0  0999 V2000
    4.0921   -2.5633   -5.6042 F   0  0  0  0  0  0  0  0  0  0  0  0
    3.7924   -2.2435   -4.3212 C   0  0  0  0  0  0  0  0  0  0  0  0
    4.8091   -1.8712   -3.4377 C   0  0  0  0  0  0  0  0  0  0  0  0
    4.5017   -1.5438   -2.1135 C   0  0  0  0  0  0  0  0  0  0  0  0
    3.1718   -1.5711   -1.6644 C   0  0  0  0  0  0  0  0  0  0  0  0
    2.8842   -1.2523   -0.2918 N   0  0  0  0  0  0  0  0  0  0  0  0
    1.6721   -0.6165    0.1476 C   0  0  0  0  0  0  0  0  0  0  0  0
    0.9107   -0.0613   -0.6892 O   0  0  0  0  0  0  0  0  0  0  0  0
    1.3475   -0.5604    1.5866 C   0  0  0  0  0  0  0  0  0  0  0  0
    2.1909   -0.9721    2.5552 N   0  0  0  0  0  0  0  0  0  0  0  0
    1.6021   -0.7697    3.7240 N   0  0  0  0  0  0  0  0  0  0  0  0
    0.3836   -0.2322    3.5380 C   0  0  0  0  0  0  0  0  0  0  0  0
    0.1908   -0.0748    2.1799 C   0  0  0  0  0  0  0  0  0  0  0  0
   -1.0085    0.3565    1.5168 N   0  0  0  0  0  0  0  0  0  0  0  0
   -1.9569    1.2699    2.0950 C   0  0  0  0  0  0  0  0  0  0  0  0
   -1.7625    1.7438    3.2471 O   0  0  0  0  0  0  0  0  0  0  0  0
   -3.1709    1.6687    1.3482 C   0  0  0  0  0  0  0  0  0  0  0  0
   -3.1099    1.9617   -0.0298 C   0  0  0  0  0  0  0  0  0  0  0  0
   -1.9293    1.9333   -0.6987 F   0  0  0  0  0  0  0  0  0  0  0  0
   -4.2663    2.3382   -0.7208 C   0  0  0  0  0  0  0  0  0  0  0  0
   -5.4869    2.4334   -0.0502 C   0  0  0  0  0  0  0  0  0  0  0  0
   -5.5557    2.1591    1.3168 C   0  0  0  0  0  0  0  0  0  0  0  0
   -4.4055    1.7828    2.0178 C   0  0  0  0  0  0  0  0  0  0  0  0
   -4.5041    1.5058    3.3432 F   0  0  0  0  0  0  0  0  0  0  0  0
    2.1566   -1.9689   -2.5549 C   0  0  0  0  0  0  0  0  0  0  0  0
    2.4680   -2.2965   -3.8784 C   0  0  0  0  0  0  0  0  0  0  0  0
    5.8364   -1.8380   -3.7772 H   0  0  0  0  0  0  0  0  0  0  0  0
    5.2988   -1.2588   -1.4382 H   0  0  0  0  0  0  0  0  0  0  0  0
    3.6370   -1.4192    0.4136 H   0  0  0  0  0  0  0  0  0  0  0  0
    2.0285   -1.0146    4.6447 H   0  0  0  0  0  0  0  0  0  0  0  0
   -0.3168   -0.0193    4.3339 H   0  0  0  0  0  0  0  0  0  0  0  0
   -1.2160   -0.0452    0.5768 H   0  0  0  0  0  0  0  0  0  0  0  0
   -4.2144    2.5667   -1.7776 H   0  0  0  0  0  0  0  0  0  0  0  0
   -6.3789    2.7260   -0.5889 H   0  0  0  0  0  0  0  0  0  0  0  0
   -6.5035    2.2366    1.8340 H   0  0  0  0  0  0  0  0  0  0  0  0
    1.1298   -2.0518   -2.2248 H   0  0  0  0  0  0  0  0  0  0  0  0
    1.6821   -2.6003   -4.5579 H   0  0  0  0  0  0  0  0  0  0  0  0
  1  2  1  0
  2  3  2  0
  3  4  1  0
  4  5  2  0
  5  6  1  0
  6  7  1  0
  7  8  2  0
  7  9  1  0
  9 10  2  0
 10 11  1  0
 11 12  1  0
 12 13  2  0
 13 14  1  0
 14 15  1  0
 15 16  2  0
 15 17  1  0
 17 18  2  0
 18 19  1  0
 18 20  1  0
 20 21  2  0
 21 22  1  0
 22 23  2  0
 23 24  1  0
  5 25  1  0
 25 26  2  0
 26  2  1  0
 13  9  1  0
 23 17  1  0
  3 27  1  0
  4 28  1  0
  6 29  1  0
 11 30  1  0
 12 31  1  0
 14 32  1  0
 20 33  1  0
 21 34  1  0
 22 35  1  0
 25 36  1  0
 26 37  1  0
M  END
$$$$
