
     RDKit          3D

 19 19  0  0  0  0  0  0  0  0999 V2000
   -0.5588    2.1427    0.1583 C   0  0  0  0  0  0  0  0  0  0  0  0
   -0.7725    0.6931    0.0323 N   0  0  0  0  0  4  0  0  0  0  0  0
    0.2900   -0.1884   -0.0062 C   0  0  0  0  0  0  0  0  0  0  0  0
    1.6991    0.2856    0.0777 C   0  0  0  0  0  0  0  0  0  0  0  0
    2.6892   -0.5481    0.0407 N   0  0  0  0  0  0  0  0  0  0  0  0
    3.9867   -0.0991    0.1190 O   0  0  0  0  0  0  0  0  0  0  0  0
    0.0367   -1.5693   -0.1278 C   0  0  0  0  0  0  0  0  0  0  0  0
   -1.2725   -2.0335   -0.2077 C   0  0  0  0  0  0  0  0  0  0  0  0
   -2.3276   -1.1315   -0.1672 C   0  0  0  0  0  0  0  0  0  0  0  0
   -2.0603    0.2311   -0.0467 C   0  0  0  0  0  0  0  0  0  0  0  0
    0.0325    2.5147   -0.7053 H   0  0  0  0  0  0  0  0  0  0  0  0
   -1.5167    2.7066    0.1741 H   0  0  0  0  0  0  0  0  0  0  0  0
   -0.0253    2.3658    1.1067 H   0  0  0  0  0  0  0  0  0  0  0  0
    1.9186    1.3406    0.1714 H   0  0  0  0  0  0  0  0  0  0  0  0
    4.7532   -0.7592    0.0892 H   0  0  0  0  0  0  0  0  0  0  0  0
    0.8448   -2.2891   -0.1612 H   0  0  0  0  0  0  0  0  0  0  0  0
   -1.4685   -3.0940   -0.3011 H   0  0  0  0  0  0  0  0  0  0  0  0
   -3.3491   -1.4843   -0.2288 H   0  0  0  0  0  0  0  0  0  0  0  0
   -2.8995    0.9162   -0.0172 H   0  0  0  0  0  0  0  0  0  0  0  0
  1  2  1  0
  2  3  2  0
  3  4  1  0
  4  5  2  0
  5  6  1  0
  3  7  1  0
  7  8  2  0
  8  9  1  0
  9 10  2  0
 10  2  1  0
  1 11  1  0
  1 12  1  0
  1 13  1  0
  4 14  1  0
  6 15  1  0
  7 16  1  0
  8 17  1  0
  9 18  1  0
 10 19  1  0
M  CHG  1   2   1
M  END
$$$$
