
     RDKit          3D

 41 41  0  0  0  0  0  0  0  0999 V2000
   -1.1428    0.3753    1.2154 C   0  0  0  0  0  0  0  0  0  0  0  0
   -0.5628   -0.0891   -0.0688 N   0  0  0  0  0  4  0  0  0  0  0  0
   -0.1817   -1.5167    0.0452 C   0  0  0  0  0  0  0  0  0  0  0  0
   -1.6070    0.0309   -1.1161 C   0  0  0  0  0  0  0  0  0  0  0  0
    0.5983    0.7618   -0.4787 C   0  0  0  0  0  0  0  0  0  0  0  0
    1.8463    0.6868    0.4326 C   0  0  0  0  0  0  0  0  0  0  0  0
    2.5784   -0.4875    0.2037 O   0  0  0  0  0  0  0  0  0  0  0  0
    0.7730    2.4494    0.4320 C   0  0  0  0  0  0  0  0  0  0  0  0
    0.3530    1.0673    0.1656 N   0  0  0  0  0  0  0  0  0  0  0  0
    1.2700    0.0898   -0.0706 C   0  0  0  0  0  0  0  0  0  0  0  0
    0.9181   -1.1902   -0.2994 C   0  0  0  0  0  0  0  0  0  0  0  0
    2.0047   -1.9446   -0.5189 N   0  0  0  0  0  2  0  0  0  0  0  0
    3.0130   -1.0405   -0.4047 C   0  0  0  0  0  0  0  0  0  0  0  0
    2.6042    0.2259   -0.1292 N   0  0  0  0  0  0  0  0  0  0  0  0
   -0.4129   -1.5678   -0.2836 C   0  0  0  0  0  0  0  0  0  0  0  0
   -0.7342   -2.7649   -0.5201 O   0  0  0  0  0  0  0  0  0  0  0  0
   -1.3607   -0.6089   -0.0053 N   0  0  0  0  0  0  0  0  0  0  0  0
   -2.7888   -0.9667   -0.0001 C   0  0  0  0  0  0  0  0  0  0  0  0
   -0.9773    0.7063    0.2053 C   0  0  0  0  0  0  0  0  0  0  0  0
   -1.8543    1.5867    0.4351 O   0  0  0  0  0  0  0  0  0  0  0  0
   -1.3599    1.4663    1.1864 H   0  0  0  0  0  0  0  0  0  0  0  0
   -0.4657    0.1757    2.0719 H   0  0  0  0  0  0  0  0  0  0  0  0
   -2.0952   -0.1562    1.4390 H   0  0  0  0  0  0  0  0  0  0  0  0
    0.3360   -1.8656   -0.8761 H   0  0  0  0  0  0  0  0  0  0  0  0
    0.4881   -1.6905    0.9149 H   0  0  0  0  0  0  0  0  0  0  0  0
   -1.0775   -2.1592    0.2007 H   0  0  0  0  0  0  0  0  0  0  0  0
   -1.2315   -0.3292   -2.1006 H   0  0  0  0  0  0  0  0  0  0  0  0
   -1.9311    1.0891   -1.2390 H   0  0  0  0  0  0  0  0  0  0  0  0
   -2.5091   -0.5706   -0.8622 H   0  0  0  0  0  0  0  0  0  0  0  0
    0.9193    0.5039   -1.5143 H   0  0  0  0  0  0  0  0  0  0  0  0
    0.2816    1.8294   -0.5190 H   0  0  0  0  0  0  0  0  0  0  0  0
    2.4939    1.5695    0.2263 H   0  0  0  0  0  0  0  0  0  0  0  0
    1.5796    0.7467    1.5045 H   0  0  0  0  0  0  0  0  0  0  0  0
    3.0429   -0.3706   -0.6659 H   0  0  0  0  0  0  0  0  0  0  0  0
    0.7697    2.6343    1.5268 H   0  0  0  0  0  0  0  0  0  0  0  0
    1.7916    2.6487    0.0361 H   0  0  0  0  0  0  0  0  0  0  0  0
    0.0846    3.1675   -0.0628 H   0  0  0  0  0  0  0  0  0  0  0  0
    4.0546   -1.3066   -0.5242 H   0  0  0  0  0  0  0  0  0  0  0  0
   -2.9403   -2.0318    0.2766 H   0  0  0  0  0  0  0  0  0  0  0  0
   -3.3476   -0.3658    0.7489 H   0  0  0  0  0  0  0  0  0  0  0  0
   -3.2204   -0.7881   -1.0073 H   0  0  0  0  0  0  0  0  0  0  0  0
  1  2  1  0
  2  3  1  0
  2  4  1  0
  2  5  1  0
  5  6  1  0
  6  7  1  0
  8  9  1  0
  9 10  1  0
 10 11  2  0
 11 12  1  0
 12 13  1  0
 13 14  2  0
 11 15  1  0
 15 16  2  0
 15 17  1  0
 17 18  1  0
 17 19  1  0
 19 20  2  0
 19  9  1  0
 14 10  1  0
  1 21  1  0
  1 22  1  0
  1 23  1  0
  3 24  1  0
  3 25  1  0
  3 26  1  0
  4 27  1  0
  4 28  1  0
  4 29  1  0
  5 30  1  0
  5 31  1  0
  6 32  1  0
  6 33  1  0
  7 34  1  0
  8 35  1  0
  8 36  1  0
  8 37  1  0
 13 38  1  0
 18 39  1  0
 18 40  1  0
 18 41  1  0
M  CHG  2   2   1  12  -1
M  END
$$$$
