
     RDKit          3D

 52 55  0  0  0  0  0  0  0  0999 V2000
   -1.4607    0.8928   -0.1617 C   0  0  2  0  0  0  0  0  0  0  0  0
   -2.3425    2.0456    0.2973 C   0  0  0  0  0  0  0  0  0  0  0  0
   -3.7820    1.5332    0.1101 C   0  0  0  0  0  0  0  0  0  0  0  0
   -3.7012    0.0164   -0.2262 C   0  0  2  0  0  0  0  0  0  0  0  0
   -3.9913   -0.1976   -1.7338 C   0  0  0  0  0  0  0  0  0  0  0  0
   -4.6815   -0.6735    0.5151 O   0  0  0  0  0  0  0  0  0  0  0  0
   -2.2465   -0.3722    0.2161 C   0  0  2  0  0  0  0  0  0  0  0  0
   -2.2484   -0.6505    1.7591 C   0  0  0  0  0  0  0  0  0  0  0  0
   -1.5878   -1.5676   -0.5180 C   0  0  0  0  0  0  0  0  0  0  0  0
   -0.0918   -1.7037   -0.1482 C   0  0  0  0  0  0  0  0  0  0  0  0
    0.7153   -0.3802   -0.3545 C   0  0  1  0  0  0  0  0  0  0  0  0
    0.0120    0.8543    0.3064 C   0  0  1  0  0  0  0  0  0  0  0  0
    0.7462    2.1440   -0.0986 C   0  0  0  0  0  0  0  0  0  0  0  0
    2.1992    2.1113    0.3662 C   0  0  0  0  0  0  0  0  0  0  0  0
    2.9076    0.8784   -0.1445 C   0  0  0  0  0  0  0  0  0  0  0  0
    4.1818    0.9990   -0.5613 C   0  0  0  0  0  0  0  0  0  0  0  0
    4.9901   -0.1642   -0.9486 C   0  0  0  0  0  0  0  0  0  0  0  0
    6.1677    0.0055   -1.3618 O   0  0  0  0  0  0  0  0  0  0  0  0
    4.4516   -1.5490   -0.7933 C   0  0  0  0  0  0  0  0  0  0  0  0
    2.9241   -1.5466   -0.8987 C   0  0  0  0  0  0  0  0  0  0  0  0
    2.2412   -0.4949    0.0360 C   0  0  2  0  0  0  0  0  0  0  0  0
    2.4247   -0.9285    1.5133 C   0  0  0  0  0  0  0  0  0  0  0  0
   -1.4216    0.9709   -1.2736 H   0  0  0  0  0  0  0  0  0  0  0  0
   -2.1484    2.2843    1.3659 H   0  0  0  0  0  0  0  0  0  0  0  0
   -2.1624    2.9556   -0.3158 H   0  0  0  0  0  0  0  0  0  0  0  0
   -4.3503    1.6968    1.0525 H   0  0  0  0  0  0  0  0  0  0  0  0
   -4.2943    2.1137   -0.6889 H   0  0  0  0  0  0  0  0  0  0  0  0
   -3.2805    0.3579   -2.3788 H   0  0  0  0  0  0  0  0  0  0  0  0
   -3.9492   -1.2760   -1.9943 H   0  0  0  0  0  0  0  0  0  0  0  0
   -5.0169    0.1571   -1.9726 H   0  0  0  0  0  0  0  0  0  0  0  0
   -4.5775   -1.6410    0.3165 H   0  0  0  0  0  0  0  0  0  0  0  0
   -2.7512    0.1620    2.3234 H   0  0  0  0  0  0  0  0  0  0  0  0
   -2.7899   -1.5951    1.9776 H   0  0  0  0  0  0  0  0  0  0  0  0
   -1.2392   -0.7686    2.1931 H   0  0  0  0  0  0  0  0  0  0  0  0
   -1.6451   -1.4353   -1.6194 H   0  0  0  0  0  0  0  0  0  0  0  0
   -2.1207   -2.5102   -0.2669 H   0  0  0  0  0  0  0  0  0  0  0  0
   -0.0022   -2.0667    0.8935 H   0  0  0  0  0  0  0  0  0  0  0  0
    0.3267   -2.5006   -0.7965 H   0  0  0  0  0  0  0  0  0  0  0  0
    0.6879   -0.1915   -1.4533 H   0  0  0  0  0  0  0  0  0  0  0  0
    0.0463    0.7919    1.4108 H   0  0  0  0  0  0  0  0  0  0  0  0
    0.2533    3.0239    0.3680 H   0  0  0  0  0  0  0  0  0  0  0  0
    0.7136    2.2783   -1.2029 H   0  0  0  0  0  0  0  0  0  0  0  0
    2.6952    3.0418    0.0114 H   0  0  0  0  0  0  0  0  0  0  0  0
    2.2367    2.1158    1.4769 H   0  0  0  0  0  0  0  0  0  0  0  0
    4.6464    1.9767   -0.6172 H   0  0  0  0  0  0  0  0  0  0  0  0
    4.8695   -2.2039   -1.5885 H   0  0  0  0  0  0  0  0  0  0  0  0
    4.7710   -1.9586    0.1880 H   0  0  0  0  0  0  0  0  0  0  0  0
    2.5701   -2.5727   -0.6637 H   0  0  0  0  0  0  0  0  0  0  0  0
    2.6553   -1.3382   -1.9585 H   0  0  0  0  0  0  0  0  0  0  0  0
    1.8259   -0.3033    2.2043 H   0  0  0  0  0  0  0  0  0  0  0  0
    2.1376   -1.9899    1.6631 H   0  0  0  0  0  0  0  0  0  0  0  0
    3.4862   -0.8269    1.8240 H   0  0  0  0  0  0  0  0  0  0  0  0
  1  2  1  0
  2  3  1  0
  3  4  1  0
  4  5  1  0
  4  6  1  1
  4  7  1  0
  7  8  1  1
  7  9  1  0
  9 10  1  0
 10 11  1  0
 11 12  1  0
 12 13  1  0
 13 14  1  0
 14 15  1  0
 15 16  2  0
 16 17  1  0
 17 18  2  0
 17 19  1  0
 19 20  1  0
 20 21  1  0
 21 22  1  1
  7  1  1  0
 21 11  1  0
 12  1  1  0
 21 15  1  0
  1 23  1  6
  2 24  1  0
  2 25  1  0
  3 26  1  0
  3 27  1  0
  5 28  1  0
  5 29  1  0
  5 30  1  0
  6 31  1  0
  8 32  1  0
  8 33  1  0
  8 34  1  0
  9 35  1  0
  9 36  1  0
 10 37  1  0
 10 38  1  0
 11 39  1  6
 12 40  1  1
 13 41  1  0
 13 42  1  0
 14 43  1  0
 14 44  1  0
 16 45  1  0
 19 46  1  0
 19 47  1  0
 20 48  1  0
 20 49  1  0
 22 50  1  0
 22 51  1  0
 22 52  1  0
M  END
$$$$
