
     RDKit          3D

 39 39  0  0  0  0  0  0  0  0999 V2000
   -4.9443    2.4840   -0.3099 C   0  0  0  0  0  0  0  0  0  0  0  0
   -3.6899    1.7494   -0.7765 C   0  0  0  0  0  0  0  0  0  0  0  0
   -3.7138    0.3362   -0.3398 N   0  0  0  0  0  0  0  0  0  0  0  0
   -3.4337    0.1628    1.1060 C   0  0  0  0  0  0  0  0  0  0  0  0
   -4.6600   -0.4231    1.7932 C   0  0  0  0  0  0  0  0  0  0  0  0
   -2.8788   -0.5355   -1.1970 C   0  0  0  0  0  0  0  0  0  0  0  0
   -1.4304   -0.1264   -1.2211 C   0  0  0  0  0  0  0  0  0  0  0  0
   -1.0406    0.7314   -2.0594 O   0  0  0  0  0  0  0  0  0  0  0  0
   -0.5517   -0.6492   -0.2634 O   0  0  0  0  0  0  0  0  0  0  0  0
    0.8468   -0.5515   -0.3036 C   0  0  0  0  0  0  0  0  0  0  0  0
    1.5489   -0.5493    0.9066 C   0  0  0  0  0  0  0  0  0  0  0  0
    2.9442   -0.4643    0.9193 C   0  0  0  0  0  0  0  0  0  0  0  0
    3.6629   -0.4071   -0.2878 C   0  0  0  0  0  0  0  0  0  0  0  0
    5.0966   -0.2960   -0.3051 N   0  0  0  0  0  0  0  0  0  0  0  0
    5.9644   -0.9025    0.6650 C   0  0  0  0  0  0  0  0  0  0  0  0
    7.4194   -0.5641    0.6750 C   0  0  0  0  0  0  0  0  0  0  0  0
    5.5296   -1.7820    1.4566 O   0  0  0  0  0  0  0  0  0  0  0  0
    2.9588   -0.4075   -1.5007 C   0  0  0  0  0  0  0  0  0  0  0  0
    1.5634   -0.4923   -1.5124 C   0  0  0  0  0  0  0  0  0  0  0  0
   -4.9580    3.5074   -0.7407 H   0  0  0  0  0  0  0  0  0  0  0  0
   -4.9604    2.5713    0.7962 H   0  0  0  0  0  0  0  0  0  0  0  0
   -5.8521    1.9412   -0.6486 H   0  0  0  0  0  0  0  0  0  0  0  0
   -3.6719    1.8090   -1.8878 H   0  0  0  0  0  0  0  0  0  0  0  0
   -2.7831    2.2711   -0.3965 H   0  0  0  0  0  0  0  0  0  0  0  0
   -3.1729    1.1243    1.6020 H   0  0  0  0  0  0  0  0  0  0  0  0
   -2.5813   -0.5262    1.2912 H   0  0  0  0  0  0  0  0  0  0  0  0
   -4.4561   -0.5547    2.8768 H   0  0  0  0  0  0  0  0  0  0  0  0
   -5.5306    0.2551    1.6728 H   0  0  0  0  0  0  0  0  0  0  0  0
   -4.9061   -1.4121    1.3517 H   0  0  0  0  0  0  0  0  0  0  0  0
   -3.2799   -0.5273   -2.2340 H   0  0  0  0  0  0  0  0  0  0  0  0
   -2.9554   -1.5888   -0.8488 H   0  0  0  0  0  0  0  0  0  0  0  0
    1.0081   -0.5958    1.8435 H   0  0  0  0  0  0  0  0  0  0  0  0
    3.4545   -0.4186    1.8718 H   0  0  0  0  0  0  0  0  0  0  0  0
    5.5420    0.1871   -1.1182 H   0  0  0  0  0  0  0  0  0  0  0  0
    7.8648   -0.8025    1.6641 H   0  0  0  0  0  0  0  0  0  0  0  0
    7.9404   -1.1501   -0.1104 H   0  0  0  0  0  0  0  0  0  0  0  0
    7.5572    0.5192    0.4750 H   0  0  0  0  0  0  0  0  0  0  0  0
    3.4953   -0.3610   -2.4403 H   0  0  0  0  0  0  0  0  0  0  0  0
    1.0537   -0.5399   -2.4647 H   0  0  0  0  0  0  0  0  0  0  0  0
  1  2  1  0
  2  3  1  0
  3  4  1  0
  4  5  1  0
  3  6  1  0
  6  7  1  0
  7  8  2  0
  7  9  1  0
  9 10  1  0
 10 11  2  0
 11 12  1  0
 12 13  2  0
 13 14  1  0
 14 15  1  0
 15 16  1  0
 15 17  2  0
 13 18  1  0
 18 19  2  0
 19 10  1  0
  1 20  1  0
  1 21  1  0
  1 22  1  0
  2 23  1  0
  2 24  1  0
  4 25  1  0
  4 26  1  0
  5 27  1  0
  5 28  1  0
  5 29  1  0
  6 30  1  0
  6 31  1  0
 11 32  1  0
 12 33  1  0
 14 34  1  0
 16 35  1  0
 16 36  1  0
 16 37  1  0
 18 38  1  0
 19 39  1  0
M  END
$$$$
