
     RDKit          3D

 77 79  0  0  0  0  0  0  0  0999 V2000
    0.9886   -1.0737    1.9262 C   0  0  1  0  0  0  0  0  0  0  0  0
    1.6516   -0.4839    0.6663 C   0  0  0  0  0  0  0  0  0  0  0  0
    2.3099    0.8955    0.9534 C   0  0  2  0  0  0  0  0  0  0  0  0
    1.6133    1.9800    0.2405 N   0  0  0  0  0  0  0  0  0  0  0  0
    0.4641    2.6581    0.7724 C   0  0  0  0  0  0  0  0  0  0  0  0
    0.3495    3.8976    0.5737 O   0  0  0  0  0  0  0  0  0  0  0  0
   -0.5666    1.9227    1.5965 C   0  0  0  0  0  0  0  0  0  0  0  0
   -1.9531    2.6219    1.7040 C   0  0  2  0  0  0  0  0  0  0  0  0
   -2.5758    2.2112    2.8983 O   0  0  0  0  0  0  0  0  0  0  0  0
   -2.9282    2.3560    0.4941 C   0  0  0  0  0  0  0  0  0  0  0  0
   -4.2078    3.1945    0.7281 C   0  0  0  0  0  0  0  0  0  0  0  0
   -2.2740    2.8390   -0.8214 C   0  0  0  0  0  0  0  0  0  0  0  0
   -3.3389    0.8748    0.3716 C   0  0  0  0  0  0  0  0  0  0  0  0
   -3.0573    0.0890    1.2657 O   0  0  0  0  0  0  0  0  0  0  0  0
   -4.2202    0.3793   -0.7684 C   0  0  2  0  0  0  0  0  0  0  0  0
   -5.5404   -0.1943   -0.2258 C   0  0  0  0  0  0  0  0  0  0  0  0
   -3.5037   -0.5821   -1.7606 C   0  0  1  0  0  0  0  0  0  0  0  0
   -2.4197    0.0873   -2.3550 O   0  0  0  0  0  0  0  0  0  0  0  0
   -3.0617   -1.9706   -1.1744 C   0  0  1  0  0  0  0  0  0  0  0  0
   -3.3654   -3.0857   -2.1944 C   0  0  0  0  0  0  0  0  0  0  0  0
   -1.5658   -1.9991   -0.7542 C   0  0  0  0  0  0  0  0  0  0  0  0
   -1.1646   -3.3124   -0.0582 C   0  0  0  0  0  0  0  0  0  0  0  0
    0.2351   -3.2465    0.5710 C   0  0  0  0  0  0  0  0  0  0  0  0
    0.2807   -2.3864    1.8512 C   0  0  2  0  0  0  0  0  0  0  0  0
   -0.6776   -2.7252    2.9969 C   0  0  0  0  0  0  0  0  0  0  0  0
    1.6057   -2.2778    2.3250 O   0  0  0  0  0  0  0  0  0  0  0  0
    3.7882    0.8833    0.5776 C   0  0  0  0  0  0  0  0  0  0  0  0
    4.8164    0.9936    1.6778 C   0  0  0  0  0  0  0  0  0  0  0  0
    4.1443    0.7003   -0.7135 C   0  0  0  0  0  0  0  0  0  0  0  0
    5.5291    0.6451   -1.2201 C   0  0  0  0  0  0  0  0  0  0  0  0
    6.5313    1.5573   -0.8842 C   0  0  0  0  0  0  0  0  0  0  0  0
    7.9047    1.1669   -1.7723 S   0  0  0  0  0  0  0  0  0  0  0  0
    7.1741   -0.1367   -2.5383 C   0  0  0  0  0  0  0  0  0  0  0  0
    7.8122   -0.9668   -3.5988 C   0  0  0  0  0  0  0  0  0  0  0  0
    5.8856   -0.2727   -2.1593 N   0  0  0  0  0  0  0  0  0  0  0  0
    0.7579   -0.4289    2.8001 H   0  0  0  0  0  0  0  0  0  0  0  0
    0.8881   -0.3758   -0.1320 H   0  0  0  0  0  0  0  0  0  0  0  0
    2.4096   -1.2016    0.2808 H   0  0  0  0  0  0  0  0  0  0  0  0
    2.2456    1.1247    2.0394 H   0  0  0  0  0  0  0  0  0  0  0  0
    2.0903    2.4472   -0.5641 H   0  0  0  0  0  0  0  0  0  0  0  0
   -0.7015    0.9100    1.1785 H   0  0  0  0  0  0  0  0  0  0  0  0
   -0.1410    1.8114    2.6161 H   0  0  0  0  0  0  0  0  0  0  0  0
   -1.7865    3.7235    1.7710 H   0  0  0  0  0  0  0  0  0  0  0  0
   -2.1410    2.7049    3.6426 H   0  0  0  0  0  0  0  0  0  0  0  0
   -4.9010    3.1375   -0.1369 H   0  0  0  0  0  0  0  0  0  0  0  0
   -4.7558    2.8357    1.6259 H   0  0  0  0  0  0  0  0  0  0  0  0
   -3.9545    4.2662    0.8792 H   0  0  0  0  0  0  0  0  0  0  0  0
   -2.9909    2.8377   -1.6676 H   0  0  0  0  0  0  0  0  0  0  0  0
   -1.9121    3.8835   -0.7167 H   0  0  0  0  0  0  0  0  0  0  0  0
   -1.4206    2.1880   -1.1022 H   0  0  0  0  0  0  0  0  0  0  0  0
   -4.5278    1.2502   -1.3822 H   0  0  0  0  0  0  0  0  0  0  0  0
   -5.3704   -1.0054    0.5111 H   0  0  0  0  0  0  0  0  0  0  0  0
   -6.1641   -0.5874   -1.0566 H   0  0  0  0  0  0  0  0  0  0  0  0
   -6.1148    0.6094    0.2830 H   0  0  0  0  0  0  0  0  0  0  0  0
   -4.2628   -0.7586   -2.5607 H   0  0  0  0  0  0  0  0  0  0  0  0
   -2.2237   -0.3787   -3.2097 H   0  0  0  0  0  0  0  0  0  0  0  0
   -3.6649   -2.1990   -0.2732 H   0  0  0  0  0  0  0  0  0  0  0  0
   -4.4296   -3.0435   -2.5104 H   0  0  0  0  0  0  0  0  0  0  0  0
   -3.2127   -4.0890   -1.7471 H   0  0  0  0  0  0  0  0  0  0  0  0
   -2.7194   -2.9818   -3.0922 H   0  0  0  0  0  0  0  0  0  0  0  0
   -0.9149   -1.8592   -1.6448 H   0  0  0  0  0  0  0  0  0  0  0  0
   -1.3717   -1.1558   -0.0655 H   0  0  0  0  0  0  0  0  0  0  0  0
   -1.1438   -4.1268   -0.8131 H   0  0  0  0  0  0  0  0  0  0  0  0
   -1.9179   -3.5919    0.7087 H   0  0  0  0  0  0  0  0  0  0  0  0
    0.9652   -2.9110   -0.1931 H   0  0  0  0  0  0  0  0  0  0  0  0
    0.5324   -4.2800    0.8524 H   0  0  0  0  0  0  0  0  0  0  0  0
   -1.6834   -2.3144    2.7703 H   0  0  0  0  0  0  0  0  0  0  0  0
   -0.3331   -2.2928    3.9613 H   0  0  0  0  0  0  0  0  0  0  0  0
   -0.7519   -3.8265    3.1155 H   0  0  0  0  0  0  0  0  0  0  0  0
    5.2484    2.0142    1.6922 H   0  0  0  0  0  0  0  0  0  0  0  0
    4.3655    0.8046    2.6741 H   0  0  0  0  0  0  0  0  0  0  0  0
    5.6207    0.2405    1.5384 H   0  0  0  0  0  0  0  0  0  0  0  0
    3.3668    0.5018   -1.4420 H   0  0  0  0  0  0  0  0  0  0  0  0
    6.4389    2.4057   -0.2222 H   0  0  0  0  0  0  0  0  0  0  0  0
    8.8971   -1.0774   -3.3916 H   0  0  0  0  0  0  0  0  0  0  0  0
    7.3465   -1.9743   -3.6234 H   0  0  0  0  0  0  0  0  0  0  0  0
    7.6753   -0.4760   -4.5845 H   0  0  0  0  0  0  0  0  0  0  0  0
  1  2  1  0
  2  3  1  0
  3  4  1  0
  4  5  1  0
  5  6  2  0
  5  7  1  0
  7  8  1  0
  8  9  1  0
  8 10  1  0
 10 11  1  0
 10 12  1  0
 10 13  1  0
 13 14  2  0
 13 15  1  0
 15 16  1  0
 15 17  1  0
 17 18  1  0
 17 19  1  0
 19 20  1  0
 19 21  1  0
 21 22  1  0
 22 23  1  0
 23 24  1  0
 24 25  1  1
 24 26  1  0
  3 27  1  0
 27 28  1  0
 27 29  2  0
 29 30  1  0
 30 31  2  0
 31 32  1  0
 32 33  1  0
 33 34  1  0
 33 35  2  0
 24  1  1  0
 35 30  1  0
 26  1  1  0
  1 36  1  1
  2 37  1  0
  2 38  1  0
  3 39  1  1
  4 40  1  0
  7 41  1  0
  7 42  1  0
  8 43  1  1
  9 44  1  0
 11 45  1  0
 11 46  1  0
 11 47  1  0
 12 48  1  0
 12 49  1  0
 12 50  1  0
 15 51  1  6
 16 52  1  0
 16 53  1  0
 16 54  1  0
 17 55  1  6
 18 56  1  0
 19 57  1  1
 20 58  1  0
 20 59  1  0
 20 60  1  0
 21 61  1  0
 21 62  1  0
 22 63  1  0
 22 64  1  0
 23 65  1  0
 23 66  1  0
 25 67  1  0
 25 68  1  0
 25 69  1  0
 28 70  1  0
 28 71  1  0
 28 72  1  0
 29 73  1  0
 31 74  1  0
 34 75  1  0
 34 76  1  0
 34 77  1  0
M  END
$$$$
