
     RDKit          3D

 16 16  0  0  0  0  0  0  0  0999 V2000
    2.6969   -0.3115   -0.7238 O   0  0  0  0  0  0  0  0  0  0  0  0
    2.0236   -0.1112    0.4885 C   0  0  0  0  0  0  0  0  0  0  0  0
    0.5363   -0.0557    0.2515 C   0  0  0  0  0  0  0  0  0  0  0  0
   -0.1082    1.1797    0.0508 C   0  0  0  0  0  0  0  0  0  0  0  0
    0.5947    2.3403    0.0946 F   0  0  0  0  0  0  0  0  0  0  0  0
   -1.4842    1.2231   -0.2003 C   0  0  0  0  0  0  0  0  0  0  0  0
   -2.1012    2.4166   -0.3860 F   0  0  0  0  0  0  0  0  0  0  0  0
   -2.2237    0.0386   -0.2654 C   0  0  0  0  0  0  0  0  0  0  0  0
   -3.5569    0.0844   -0.5105 F   0  0  0  0  0  0  0  0  0  0  0  0
   -1.5882   -1.1933   -0.0858 C   0  0  0  0  0  0  0  0  0  0  0  0
   -2.3059   -2.3419   -0.1605 F   0  0  0  0  0  0  0  0  0  0  0  0
   -0.2126   -1.2444    0.1655 C   0  0  0  0  0  0  0  0  0  0  0  0
    0.3896   -2.4511    0.3218 F   0  0  0  0  0  0  0  0  0  0  0  0
    2.6864    0.5592   -1.2010 H   0  0  0  0  0  0  0  0  0  0  0  0
    2.3864    0.8168    0.9858 H   0  0  0  0  0  0  0  0  0  0  0  0
    2.2670   -0.9497    1.1749 H   0  0  0  0  0  0  0  0  0  0  0  0
  1  2  1  0
  2  3  1  0
  3  4  2  0
  4  5  1  0
  4  6  1  0
  6  7  1  0
  6  8  2  0
  8  9  1  0
  8 10  1  0
 10 11  1  0
 10 12  2  0
 12 13  1  0
 12  3  1  0
  1 14  1  0
  2 15  1  0
  2 16  1  0
M  END
$$$$
