
     RDKit          3D

 21 20  0  0  0  0  0  0  0  0999 V2000
   -1.1399    1.5085    0.5872 C   0  0  0  0  0  0  0  0  0  0  0  0
   -1.2533    0.0653    0.0729 C   0  0  0  0  0  0  0  0  0  0  0  0
   -1.4910    0.0646   -1.4469 C   0  0  0  0  0  0  0  0  0  0  0  0
   -0.0329   -0.7911    0.5127 C   0  0  1  0  0  0  0  0  0  0  0  0
   -0.2818   -2.2163    0.2689 N   0  0  0  0  0  0  0  0  0  0  0  0
    1.2684   -0.3406   -0.1194 C   0  0  0  0  0  0  0  0  0  0  0  0
    1.5900   -0.7445   -1.2700 O   0  0  0  0  0  0  0  0  0  0  0  0
    2.1258    0.5717    0.5729 N   0  0  0  0  0  0  0  0  0  0  0  0
    3.2778    1.0005    0.0040 O   0  0  0  0  0  0  0  0  0  0  0  0
   -0.2886    2.0349    0.1058 H   0  0  0  0  0  0  0  0  0  0  0  0
   -0.9928    1.5165    1.6882 H   0  0  0  0  0  0  0  0  0  0  0  0
   -2.0730    2.0682    0.3629 H   0  0  0  0  0  0  0  0  0  0  0  0
   -2.1575   -0.3765    0.5485 H   0  0  0  0  0  0  0  0  0  0  0  0
   -2.4067    0.6465   -1.6858 H   0  0  0  0  0  0  0  0  0  0  0  0
   -1.6472   -0.9668   -1.8234 H   0  0  0  0  0  0  0  0  0  0  0  0
   -0.6374    0.5265   -1.9858 H   0  0  0  0  0  0  0  0  0  0  0  0
    0.0689   -0.6703    1.6149 H   0  0  0  0  0  0  0  0  0  0  0  0
    0.4780   -2.7692    0.7293 H   0  0  0  0  0  0  0  0  0  0  0  0
   -0.2315   -2.4251   -0.7541 H   0  0  0  0  0  0  0  0  0  0  0  0
    1.8567    0.9370    1.5138 H   0  0  0  0  0  0  0  0  0  0  0  0
    3.9679    0.3602    0.3143 H   0  0  0  0  0  0  0  0  0  0  0  0
  1  2  1  0
  2  3  1  0
  2  4  1  0
  4  5  1  0
  4  6  1  0
  6  7  2  0
  6  8  1  0
  8  9  1  0
  1 10  1  0
  1 11  1  0
  1 12  1  0
  2 13  1  0
  3 14  1  0
  3 15  1  0
  3 16  1  0
  4 17  1  1
  5 18  1  0
  5 19  1  0
  8 20  1  0
  9 21  1  0
M  END
$$$$
