
     RDKit          3D

 29 31  0  0  0  0  0  0  0  0999 V2000
   -4.8894    1.4290   -1.2313 O   0  0  0  0  0  0  0  0  0  0  0  0
   -4.5900    0.2241   -0.6003 C   0  0  0  0  0  0  0  0  0  0  0  0
   -5.5221   -0.5853   -0.3437 O   0  0  0  0  0  0  0  0  0  0  0  0
   -3.1925   -0.1004   -0.2343 C   0  0  0  0  0  0  0  0  0  0  0  0
   -2.1569    0.7975   -0.5282 C   0  0  0  0  0  0  0  0  0  0  0  0
   -0.8283    0.5053   -0.1756 C   0  0  0  0  0  0  0  0  0  0  0  0
   -0.5270   -0.7000    0.4955 C   0  0  0  0  0  0  0  0  0  0  0  0
   -1.5647   -1.6364    0.7330 C   0  0  0  0  0  0  0  0  0  0  0  0
   -1.3289   -2.9039    1.2707 O   0  0  0  0  0  0  0  0  0  0  0  0
   -2.8822   -1.3160    0.3919 C   0  0  0  0  0  0  0  0  0  0  0  0
    0.8618   -0.9051    0.9832 C   0  0  0  0  0  0  0  0  0  0  0  0
    1.0682   -1.5993    2.0141 O   0  0  0  0  0  0  0  0  0  0  0  0
    1.9792   -0.1419    0.3700 C   0  0  0  0  0  0  0  0  0  0  0  0
    1.6737    1.0634   -0.3027 C   0  0  0  0  0  0  0  0  0  0  0  0
    2.7134    1.8819   -0.7759 C   0  0  0  0  0  0  0  0  0  0  0  0
    4.0434    1.5064   -0.5978 C   0  0  0  0  0  0  0  0  0  0  0  0
    4.3516    0.2994    0.0259 C   0  0  0  0  0  0  0  0  0  0  0  0
    3.3361   -0.5437    0.4886 C   0  0  0  0  0  0  0  0  0  0  0  0
    3.7153   -1.7772    1.0230 O   0  0  0  0  0  0  0  0  0  0  0  0
    0.2598    1.4554   -0.5100 C   0  0  0  0  0  0  0  0  0  0  0  0
   -0.0162    2.5876   -0.9945 O   0  0  0  0  0  0  0  0  0  0  0  0
   -5.8423    1.6606   -1.4854 H   0  0  0  0  0  0  0  0  0  0  0  0
   -2.3842    1.7279   -1.0338 H   0  0  0  0  0  0  0  0  0  0  0  0
   -0.4090   -3.3150    1.3499 H   0  0  0  0  0  0  0  0  0  0  0  0
   -3.6630   -2.0380    0.5988 H   0  0  0  0  0  0  0  0  0  0  0  0
    2.4987    2.8130   -1.2852 H   0  0  0  0  0  0  0  0  0  0  0  0
    4.8383    2.1443   -0.9624 H   0  0  0  0  0  0  0  0  0  0  0  0
    5.3880    0.0035    0.1291 H   0  0  0  0  0  0  0  0  0  0  0  0
    3.0695   -2.5371    1.1872 H   0  0  0  0  0  0  0  0  0  0  0  0
  1  2  1  0
  2  3  2  0
  2  4  1  0
  4  5  2  0
  5  6  1  0
  6  7  2  0
  7  8  1  0
  8  9  1  0
  8 10  2  0
  7 11  1  0
 11 12  2  0
 11 13  1  0
 13 14  2  0
 14 15  1  0
 15 16  2  0
 16 17  1  0
 17 18  2  0
 18 19  1  0
 14 20  1  0
 20 21  2  0
 10  4  1  0
 18 13  1  0
 20  6  1  0
  1 22  1  0
  5 23  1  0
  9 24  1  0
 10 25  1  0
 15 26  1  0
 16 27  1  0
 17 28  1  0
 19 29  1  0
M  END
$$$$
