
     RDKit          3D

 55 59  0  0  0  0  0  0  0  0999 V2000
   -2.1418   -0.6288    0.6475 C   0  0  0  0  0  0  0  0  0  0  0  0
   -3.0955    0.0421   -0.3454 C   0  0  0  0  0  0  0  0  0  0  0  0
   -4.4824   -0.4165   -0.1187 N   0  0  0  0  0  0  0  0  0  0  0  0
   -5.1560    0.3921    0.9152 C   0  0  0  0  0  0  0  0  0  0  0  0
   -6.5260   -0.2252    1.2637 C   0  0  0  0  0  0  0  0  0  0  0  0
   -7.0383   -1.1089    0.2026 N   0  0  0  0  0  0  0  0  0  0  0  0
   -6.7731   -0.5493   -1.1280 C   0  0  0  0  0  0  0  0  0  0  0  0
   -5.2587   -0.3726   -1.3771 C   0  0  0  0  0  0  0  0  0  0  0  0
   -0.7643   -0.2273    0.3739 N   0  0  0  0  0  0  0  0  0  0  0  0
   -0.1860    0.9570    0.9434 C   0  0  0  0  0  0  0  0  0  0  0  0
    1.1866    1.2313    0.8708 C   0  0  0  0  0  0  0  0  0  0  0  0
    1.6551    2.4327    1.3233 C   0  0  0  0  0  0  0  0  0  0  0  0
    2.9452    2.5490    1.1403 O   0  0  0  0  0  0  0  0  0  0  0  0
    3.3720    1.4292    0.5851 C   0  0  0  0  0  0  0  0  0  0  0  0
    2.2963    0.5486    0.3924 C   0  0  0  0  0  0  0  0  0  0  0  0
    2.3462   -0.8036   -0.1920 C   0  0  0  0  0  0  0  0  0  0  0  0
    1.9298   -1.9142    0.5594 C   0  0  0  0  0  0  0  0  0  0  0  0
    1.9999   -3.1986    0.0117 C   0  0  0  0  0  0  0  0  0  0  0  0
    2.4936   -3.3818   -1.2832 C   0  0  0  0  0  0  0  0  0  0  0  0
    2.9193   -2.2807   -2.0320 C   0  0  0  0  0  0  0  0  0  0  0  0
    2.8487   -0.9944   -1.4886 C   0  0  0  0  0  0  0  0  0  0  0  0
    4.7947    1.2016    0.2518 C   0  0  0  0  0  0  0  0  0  0  0  0
    5.5811    2.2815   -0.1827 C   0  0  0  0  0  0  0  0  0  0  0  0
    6.9311    2.0929   -0.4944 C   0  0  0  0  0  0  0  0  0  0  0  0
    7.5106    0.8288   -0.3617 C   0  0  0  0  0  0  0  0  0  0  0  0
    6.7431   -0.2467    0.0917 C   0  0  0  0  0  0  0  0  0  0  0  0
    5.3929   -0.0626    0.4048 C   0  0  0  0  0  0  0  0  0  0  0  0
    0.8464    3.3597    1.8885 N   0  0  0  0  0  0  0  0  0  0  0  0
   -0.4837    3.0804    2.0015 C   0  0  0  0  0  0  0  0  0  0  0  0
   -0.9863    1.8997    1.5270 N   0  0  0  0  0  0  0  0  0  0  0  0
   -2.2229   -1.7325    0.5425 H   0  0  0  0  0  0  0  0  0  0  0  0
   -2.4080   -0.3723    1.6943 H   0  0  0  0  0  0  0  0  0  0  0  0
   -2.7525   -0.2392   -1.3677 H   0  0  0  0  0  0  0  0  0  0  0  0
   -3.0188    1.1504   -0.2673 H   0  0  0  0  0  0  0  0  0  0  0  0
   -4.5451    0.4406    1.8417 H   0  0  0  0  0  0  0  0  0  0  0  0
   -5.3008    1.4368    0.5546 H   0  0  0  0  0  0  0  0  0  0  0  0
   -6.4383   -0.8088    2.2068 H   0  0  0  0  0  0  0  0  0  0  0  0
   -7.2618    0.5867    1.4506 H   0  0  0  0  0  0  0  0  0  0  0  0
   -6.5605   -2.0386    0.2750 H   0  0  0  0  0  0  0  0  0  0  0  0
   -7.2874    0.4330   -1.2222 H   0  0  0  0  0  0  0  0  0  0  0  0
   -7.2060   -1.2199   -1.9017 H   0  0  0  0  0  0  0  0  0  0  0  0
   -5.0919    0.5900   -1.9134 H   0  0  0  0  0  0  0  0  0  0  0  0
   -4.9098   -1.1961   -2.0381 H   0  0  0  0  0  0  0  0  0  0  0  0
   -0.2711   -0.7189   -0.4021 H   0  0  0  0  0  0  0  0  0  0  0  0
    1.5533   -1.7840    1.5667 H   0  0  0  0  0  0  0  0  0  0  0  0
    1.6744   -4.0522    0.5921 H   0  0  0  0  0  0  0  0  0  0  0  0
    2.5488   -4.3769   -1.7053 H   0  0  0  0  0  0  0  0  0  0  0  0
    3.3051   -2.4242   -3.0329 H   0  0  0  0  0  0  0  0  0  0  0  0
    3.1834   -0.1485   -2.0765 H   0  0  0  0  0  0  0  0  0  0  0  0
    5.1466    3.2676   -0.2934 H   0  0  0  0  0  0  0  0  0  0  0  0
    7.5282    2.9276   -0.8384 H   0  0  0  0  0  0  0  0  0  0  0  0
    8.5560    0.6847   -0.6020 H   0  0  0  0  0  0  0  0  0  0  0  0
    7.1969   -1.2223    0.2093 H   0  0  0  0  0  0  0  0  0  0  0  0
    4.8297   -0.9019    0.7890 H   0  0  0  0  0  0  0  0  0  0  0  0
   -1.1480    3.8033    2.4545 H   0  0  0  0  0  0  0  0  0  0  0  0
  1  2  1  0
  2  3  1  0
  3  4  1  0
  4  5  1  0
  5  6  1  0
  6  7  1  0
  7  8  1  0
  1  9  1  0
  9 10  1  0
 10 11  1  0
 11 12  2  0
 12 13  1  0
 13 14  1  0
 14 15  2  0
 15 16  1  0
 16 17  2  0
 17 18  1  0
 18 19  2  0
 19 20  1  0
 20 21  2  0
 14 22  1  0
 22 23  2  0
 23 24  1  0
 24 25  2  0
 25 26  1  0
 26 27  2  0
 12 28  1  0
 28 29  2  0
 29 30  1  0
  8  3  1  0
 30 10  2  0
 15 11  1  0
 21 16  1  0
 27 22  1  0
  1 31  1  0
  1 32  1  0
  2 33  1  0
  2 34  1  0
  4 35  1  0
  4 36  1  0
  5 37  1  0
  5 38  1  0
  6 39  1  0
  7 40  1  0
  7 41  1  0
  8 42  1  0
  8 43  1  0
  9 44  1  0
 17 45  1  0
 18 46  1  0
 19 47  1  0
 20 48  1  0
 21 49  1  0
 23 50  1  0
 24 51  1  0
 25 52  1  0
 26 53  1  0
 27 54  1  0
 29 55  1  0
M  END
$$$$
