
     RDKit          3D

 59 61  0  0  0  0  0  0  0  0999 V2000
    2.4960    0.3233   -2.0818 C   0  0  2  0  0  0  0  0  0  0  0  0
    3.4933    0.0997   -1.0334 N   0  0  0  0  0  0  0  0  0  0  0  0
    2.4790    1.7878   -2.5989 C   0  0  0  0  0  0  0  0  0  0  0  0
    2.3767    2.8543   -1.5303 C   0  0  0  0  0  0  0  0  0  0  0  0
    3.5272    3.2837   -0.8438 C   0  0  0  0  0  0  0  0  0  0  0  0
    3.4426    4.2975    0.1148 C   0  0  0  0  0  0  0  0  0  0  0  0
    2.2155    4.9082    0.3809 C   0  0  0  0  0  0  0  0  0  0  0  0
    1.0715    4.5072   -0.3125 C   0  0  0  0  0  0  0  0  0  0  0  0
    1.1479    3.4833   -1.2621 C   0  0  0  0  0  0  0  0  0  0  0  0
    1.1468   -0.1835   -1.6178 C   0  0  0  0  0  0  0  0  0  0  0  0
    0.3421    0.6071   -1.0553 O   0  0  0  0  0  0  0  0  0  0  0  0
    0.8023   -1.5804   -1.7252 N   0  0  0  0  0  0  0  0  0  0  0  0
    1.6490   -2.5883   -2.3467 C   0  0  0  0  0  0  0  0  0  0  0  0
    0.9344   -3.9165   -2.1369 C   0  0  0  0  0  0  0  0  0  0  0  0
   -0.5088   -3.5569   -1.8009 C   0  0  0  0  0  0  0  0  0  0  0  0
   -0.4564   -2.1352   -1.2405 C   0  0  1  0  0  0  0  0  0  0  0  0
   -0.4994   -2.1502    0.2665 C   0  0  0  0  0  0  0  0  0  0  0  0
    0.5663   -2.0404    0.9333 O   0  0  0  0  0  0  0  0  0  0  0  0
   -1.7539   -2.3427    0.9341 N   0  0  0  0  0  0  0  0  0  0  0  0
   -1.9305   -2.1370    2.3745 C   0  0  1  0  0  0  0  0  0  0  0  0
   -3.0365   -1.0989    2.6272 C   0  0  0  0  0  0  0  0  0  0  0  0
   -2.7137    0.2098    1.9516 C   0  0  0  0  0  0  0  0  0  0  0  0
   -1.8313    1.1196    2.5569 C   0  0  0  0  0  0  0  0  0  0  0  0
   -1.4982    2.3168    1.9097 C   0  0  0  0  0  0  0  0  0  0  0  0
   -2.0407    2.6035    0.6508 C   0  0  0  0  0  0  0  0  0  0  0  0
   -2.9036    1.6933    0.0365 C   0  0  0  0  0  0  0  0  0  0  0  0
   -3.2382    0.4998    0.6808 C   0  0  0  0  0  0  0  0  0  0  0  0
   -0.6005    3.2493    2.5391 C   0  0  0  0  0  0  0  0  0  0  0  0
    0.1210    3.9984    3.0465 N   0  0  0  0  0  0  0  0  0  0  0  0
   -2.2837   -3.5302    3.0829 B   0  0  0  0  0  0  0  0  0  0  0  0
   -2.4260   -3.5924    4.5357 O   0  0  0  0  0  0  0  0  0  0  0  0
   -2.4270   -4.7505    2.2908 O   0  0  0  0  0  0  0  0  0  0  0  0
    2.7957   -0.2864   -2.9601 H   0  0  0  0  0  0  0  0  0  0  0  0
    4.4249    0.4368   -1.3676 H   0  0  0  0  0  0  0  0  0  0  0  0
    3.2338    0.6367   -0.1745 H   0  0  0  0  0  0  0  0  0  0  0  0
    3.4113    1.9655   -3.1793 H   0  0  0  0  0  0  0  0  0  0  0  0
    1.6475    1.9021   -3.3291 H   0  0  0  0  0  0  0  0  0  0  0  0
    4.4915    2.8405   -1.0562 H   0  0  0  0  0  0  0  0  0  0  0  0
    4.3312    4.6174    0.6434 H   0  0  0  0  0  0  0  0  0  0  0  0
    2.1525    5.6987    1.1175 H   0  0  0  0  0  0  0  0  0  0  0  0
    0.1266    4.9963   -0.1173 H   0  0  0  0  0  0  0  0  0  0  0  0
    0.2528    3.1937   -1.7983 H   0  0  0  0  0  0  0  0  0  0  0  0
    1.7468   -2.3763   -3.4334 H   0  0  0  0  0  0  0  0  0  0  0  0
    2.6514   -2.6065   -1.8669 H   0  0  0  0  0  0  0  0  0  0  0  0
    1.3903   -4.4536   -1.2761 H   0  0  0  0  0  0  0  0  0  0  0  0
    0.9925   -4.5586   -3.0424 H   0  0  0  0  0  0  0  0  0  0  0  0
   -0.9556   -4.2918   -1.0949 H   0  0  0  0  0  0  0  0  0  0  0  0
   -1.1098   -3.5585   -2.7371 H   0  0  0  0  0  0  0  0  0  0  0  0
   -1.3104   -1.5401   -1.6336 H   0  0  0  0  0  0  0  0  0  0  0  0
   -2.5904   -2.5944    0.3588 H   0  0  0  0  0  0  0  0  0  0  0  0
   -0.9891   -1.7676    2.8361 H   0  0  0  0  0  0  0  0  0  0  0  0
   -4.0135   -1.4847    2.2582 H   0  0  0  0  0  0  0  0  0  0  0  0
   -3.1472   -0.9245    3.7206 H   0  0  0  0  0  0  0  0  0  0  0  0
   -1.4049    0.8932    3.5276 H   0  0  0  0  0  0  0  0  0  0  0  0
   -1.7980    3.5280    0.1434 H   0  0  0  0  0  0  0  0  0  0  0  0
   -3.3132    1.9126   -0.9410 H   0  0  0  0  0  0  0  0  0  0  0  0
   -3.9013   -0.2000    0.1876 H   0  0  0  0  0  0  0  0  0  0  0  0
   -3.3895   -3.4325    4.7008 H   0  0  0  0  0  0  0  0  0  0  0  0
   -3.3888   -4.7851    2.0565 H   0  0  0  0  0  0  0  0  0  0  0  0
  1  2  1  0
  1  3  1  0
  3  4  1  0
  4  5  2  0
  5  6  1  0
  6  7  2  0
  7  8  1  0
  8  9  2  0
  1 10  1  0
 10 11  2  0
 10 12  1  0
 12 13  1  0
 13 14  1  0
 14 15  1  0
 15 16  1  0
 16 17  1  0
 17 18  2  0
 17 19  1  0
 19 20  1  0
 20 21  1  0
 21 22  1  0
 22 23  2  0
 23 24  1  0
 24 25  2  0
 25 26  1  0
 26 27  2  0
 24 28  1  0
 28 29  3  0
 20 30  1  0
 30 31  1  0
 30 32  1  0
  9  4  1  0
 16 12  1  0
 27 22  1  0
  1 33  1  6
  2 34  1  0
  2 35  1  0
  3 36  1  0
  3 37  1  0
  5 38  1  0
  6 39  1  0
  7 40  1  0
  8 41  1  0
  9 42  1  0
 13 43  1  0
 13 44  1  0
 14 45  1  0
 14 46  1  0
 15 47  1  0
 15 48  1  0
 16 49  1  6
 19 50  1  0
 20 51  1  1
 21 52  1  0
 21 53  1  0
 23 54  1  0
 25 55  1  0
 26 56  1  0
 27 57  1  0
 31 58  1  0
 32 59  1  0
M  END
$$$$
