
     RDKit          3D

 46 49  0  0  0  0  0  0  0  0999 V2000
    0.0551    0.4837   -1.5977 C   0  0  1  0  0  0  0  0  0  0  0  0
    1.0577    0.9119   -0.5121 C   0  0  0  0  0  0  0  0  0  0  0  0
    2.3907    1.1272   -1.0872 N   0  0  0  0  0  0  0  0  0  0  0  0
    3.4151    1.8040   -0.2823 C   0  0  0  0  0  0  0  0  0  0  0  0
    4.0855    0.8271    0.6468 C   0  0  0  0  0  0  0  0  0  0  0  0
    5.2511    0.1509    0.2493 C   0  0  0  0  0  0  0  0  0  0  0  0
    5.8512   -0.7802    1.1028 C   0  0  0  0  0  0  0  0  0  0  0  0
    5.2901   -1.0467    2.3547 C   0  0  0  0  0  0  0  0  0  0  0  0
    4.1275   -0.3828    2.7550 C   0  0  0  0  0  0  0  0  0  0  0  0
    3.5247    0.5493    1.9048 C   0  0  0  0  0  0  0  0  0  0  0  0
    2.7357    0.4718   -2.3221 C   0  0  0  0  0  0  0  0  0  0  0  0
    3.9153    0.5087   -2.7651 O   0  0  0  0  0  0  0  0  0  0  0  0
    1.6612   -0.1924   -3.1361 C   0  0  0  0  0  0  0  0  0  0  0  0
    0.5781   -0.6129   -2.3277 O   0  0  0  0  0  0  0  0  0  0  0  0
   -1.2571    0.0889   -0.9601 C   0  0  0  0  0  0  0  0  0  0  0  0
   -2.3310    1.0006   -0.9332 C   0  0  0  0  0  0  0  0  0  0  0  0
   -3.5292    0.6401   -0.3112 C   0  0  0  0  0  0  0  0  0  0  0  0
   -3.6642   -0.6118    0.2919 C   0  0  0  0  0  0  0  0  0  0  0  0
   -2.6045   -1.5237    0.2882 C   0  0  0  0  0  0  0  0  0  0  0  0
   -1.4010   -1.1689   -0.3336 C   0  0  0  0  0  0  0  0  0  0  0  0
   -4.9338   -0.8478    0.8918 N   0  0  0  0  0  0  0  0  0  0  0  0
   -5.3533   -2.0556    1.5909 C   0  0  0  0  0  0  0  0  0  0  0  0
   -5.9163    0.5418    0.6656 S   0  0  0  0  0  6  0  0  0  0  0  0
   -7.1285    0.2271   -0.1647 O   0  0  0  0  0  0  0  0  0  0  0  0
   -6.2918    1.1677    1.9790 O   0  0  0  0  0  0  0  0  0  0  0  0
   -4.7367    1.5314   -0.2289 C   0  0  0  0  0  0  0  0  0  0  0  0
   -0.1293    1.3485   -2.2798 H   0  0  0  0  0  0  0  0  0  0  0  0
    0.6971    1.8482   -0.0325 H   0  0  0  0  0  0  0  0  0  0  0  0
    1.1289    0.1215    0.2664 H   0  0  0  0  0  0  0  0  0  0  0  0
    2.9515    2.6255    0.3068 H   0  0  0  0  0  0  0  0  0  0  0  0
    4.1655    2.2916   -0.9423 H   0  0  0  0  0  0  0  0  0  0  0  0
    5.6972    0.3456   -0.7176 H   0  0  0  0  0  0  0  0  0  0  0  0
    6.7507   -1.2963    0.7930 H   0  0  0  0  0  0  0  0  0  0  0  0
    5.7553   -1.7684    3.0136 H   0  0  0  0  0  0  0  0  0  0  0  0
    3.6919   -0.5921    3.7235 H   0  0  0  0  0  0  0  0  0  0  0  0
    2.6211    1.0528    2.2257 H   0  0  0  0  0  0  0  0  0  0  0  0
    1.3096    0.4986   -3.9340 H   0  0  0  0  0  0  0  0  0  0  0  0
    2.0892   -1.0867   -3.6360 H   0  0  0  0  0  0  0  0  0  0  0  0
   -2.2368    1.9793   -1.3877 H   0  0  0  0  0  0  0  0  0  0  0  0
   -2.7020   -2.4919    0.7613 H   0  0  0  0  0  0  0  0  0  0  0  0
   -0.5780   -1.8726   -0.3237 H   0  0  0  0  0  0  0  0  0  0  0  0
   -5.2996   -2.9238    0.9015 H   0  0  0  0  0  0  0  0  0  0  0  0
   -6.3977   -1.9470    1.9512 H   0  0  0  0  0  0  0  0  0  0  0  0
   -4.6893   -2.2322    2.4626 H   0  0  0  0  0  0  0  0  0  0  0  0
   -4.4998    2.4588    0.3336 H   0  0  0  0  0  0  0  0  0  0  0  0
   -5.1170    1.7684   -1.2446 H   0  0  0  0  0  0  0  0  0  0  0  0
  1  2  1  0
  2  3  1  0
  3  4  1  0
  4  5  1  0
  5  6  2  0
  6  7  1  0
  7  8  2  0
  8  9  1  0
  9 10  2  0
  3 11  1  0
 11 12  2  0
 11 13  1  0
 13 14  1  0
  1 15  1  0
 15 16  2  0
 16 17  1  0
 17 18  2  0
 18 19  1  0
 19 20  2  0
 18 21  1  0
 21 22  1  0
 21 23  1  0
 23 24  2  0
 23 25  2  0
 23 26  1  0
 14  1  1  0
 20 15  1  0
 10  5  1  0
 26 17  1  0
  1 27  1  6
  2 28  1  0
  2 29  1  0
  4 30  1  0
  4 31  1  0
  6 32  1  0
  7 33  1  0
  8 34  1  0
  9 35  1  0
 10 36  1  0
 13 37  1  0
 13 38  1  0
 16 39  1  0
 19 40  1  0
 20 41  1  0
 22 42  1  0
 22 43  1  0
 22 44  1  0
 26 45  1  0
 26 46  1  0
M  END
$$$$
