
     RDKit          3D

123125  0  0  0  0  0  0  0  0999 V2000
   -4.7626    3.0388    1.6519 C   0  0  0  0  0  0  0  0  0  0  0  0
   -4.4841    1.8282    0.9817 O   0  0  0  0  0  0  0  0  0  0  0  0
   -3.9874    0.8419    1.8717 C   0  0  1  0  0  0  0  0  0  0  0  0
   -5.1640    0.1378    2.5218 C   0  0  0  0  0  0  0  0  0  0  0  0
   -6.0722   -0.6287    1.9011 C   0  0  0  0  0  0  0  0  0  0  0  0
   -5.8806   -1.2731    0.5900 C   0  0  0  0  0  0  0  0  0  0  0  0
   -6.7731   -1.2019   -0.4113 C   0  0  0  0  0  0  0  0  0  0  0  0
   -6.6300   -2.1628   -1.5605 C   0  0  0  0  0  0  0  0  0  0  0  0
   -7.9012   -0.1901   -0.4107 C   0  0  0  0  0  0  0  0  0  0  0  0
   -7.4221    1.2163   -0.8812 C   0  0  2  0  0  0  0  0  0  0  0  0
   -8.2242    2.3025   -0.1426 C   0  0  0  0  0  0  0  0  0  0  0  0
   -7.5413    1.3557   -2.4283 C   0  0  2  0  0  0  0  0  0  0  0  0
   -6.7510    0.3763   -3.0479 O   0  0  0  0  0  0  0  0  0  0  0  0
   -7.1892    2.7639   -2.9921 C   0  0  2  0  0  0  0  0  0  0  0  0
   -7.2920    2.8247   -4.5238 C   0  0  0  0  0  0  0  0  0  0  0  0
   -5.9038    3.4114   -2.4942 C   0  0  0  0  0  0  0  0  0  0  0  0
   -4.6290    2.9990   -2.6686 C   0  0  0  0  0  0  0  0  0  0  0  0
   -3.5366    4.0011   -2.4054 C   0  0  0  0  0  0  0  0  0  0  0  0
   -4.2673    1.6834   -3.2483 C   0  0  0  0  0  0  0  0  0  0  0  0
   -3.6225    0.6963   -2.5773 C   0  0  0  0  0  0  0  0  0  0  0  0
   -3.4116   -0.5684   -3.1535 O   0  0  0  0  0  0  0  0  0  0  0  0
   -3.7735   -0.9426   -4.4799 C   0  0  0  0  0  0  0  0  0  0  0  0
   -3.1268    0.8574   -1.1977 C   0  0  0  0  0  0  0  0  0  0  0  0
   -2.5002    1.8959   -0.8639 O   0  0  0  0  0  0  0  0  0  0  0  0
   -3.3182   -0.1845   -0.2755 O   0  0  0  0  0  0  0  0  0  0  0  0
   -3.0065   -0.1369    1.1313 C   0  0  0  0  0  0  0  0  0  0  0  0
   -1.4762    0.1194    1.3935 C   0  0  1  0  0  0  0  0  0  0  0  0
   -1.1663    0.1005    2.9143 C   0  0  0  0  0  0  0  0  0  0  0  0
   -0.5419   -0.9269    0.6816 C   0  0  1  0  0  0  0  0  0  0  0  0
   -1.0599   -1.3470   -0.5587 O   0  0  0  0  0  0  0  0  0  0  0  0
    0.9064   -0.3648    0.4624 C   0  0  2  0  0  0  0  0  0  0  0  0
    0.9821    0.4970   -0.8188 C   0  0  0  0  0  0  0  0  0  0  0  0
    1.9897   -1.4972    0.4895 C   0  0  1  0  0  0  0  0  0  0  0  0
    1.7774   -2.3797   -0.5918 O   0  0  0  0  0  0  0  0  0  0  0  0
    3.4073   -0.8884    0.3739 C   0  0  0  0  0  0  0  0  0  0  0  0
    4.4934   -1.9509    0.5832 C   0  0  1  0  0  0  0  0  0  0  0  0
    5.7737   -1.3187    0.6533 O   0  0  0  0  0  0  0  0  0  0  0  0
    6.4579   -0.8283   -0.4642 C   0  0  0  0  0  0  0  0  0  0  0  0
    5.9787   -0.9711   -1.6233 O   0  0  0  0  0  0  0  0  0  0  0  0
    7.7483   -0.1504   -0.2624 C   0  0  0  0  0  0  0  0  0  0  0  0
    8.4717    0.3307   -1.2813 C   0  0  0  0  0  0  0  0  0  0  0  0
    9.7723    1.0022   -1.0948 C   0  0  0  0  0  0  0  0  0  0  0  0
   10.4973    1.1994   -2.1066 O   0  0  0  0  0  0  0  0  0  0  0  0
   10.1924    1.4839    0.1916 N   0  0  0  0  0  0  0  0  0  0  0  0
   11.5663    1.7386    0.5249 C   0  0  0  0  0  0  0  0  0  0  0  0
   11.9616    2.5974    1.4471 C   0  0  0  0  0  0  0  0  0  0  0  0
   11.0879    3.4003    2.1738 O   0  0  0  0  0  0  0  0  0  0  0  0
   13.4500    2.6151    1.6230 C   0  0  0  0  0  0  0  0  0  0  0  0
   13.9703    1.5604    0.6292 C   0  0  0  0  0  0  0  0  0  0  0  0
   12.7260    1.0437    0.0009 C   0  0  0  0  0  0  0  0  0  0  0  0
   12.6917    0.0910   -0.8215 O   0  0  0  0  0  0  0  0  0  0  0  0
    4.2346   -2.7359    1.8842 C   0  0  2  0  0  0  0  0  0  0  0  0
    5.2736   -3.8634    2.0229 C   0  0  0  0  0  0  0  0  0  0  0  0
    2.7693   -3.2639    1.8865 C   0  0  2  0  0  0  0  0  0  0  0  0
    1.8750   -2.1677    1.7411 O   0  0  0  0  0  0  0  0  0  0  0  0
    2.4150   -4.0458    3.2016 C   0  0  0  0  0  0  0  0  0  0  0  0
    2.4967   -5.5689    2.9913 C   0  0  0  0  0  0  0  0  0  0  0  0
    1.0163   -3.7022    3.7492 C   0  0  0  0  0  0  0  0  0  0  0  0
   -3.8248    3.5092    2.0202 H   0  0  0  0  0  0  0  0  0  0  0  0
   -5.2317    3.7395    0.9310 H   0  0  0  0  0  0  0  0  0  0  0  0
   -5.4789    2.8862    2.4890 H   0  0  0  0  0  0  0  0  0  0  0  0
   -3.4349    1.3189    2.7067 H   0  0  0  0  0  0  0  0  0  0  0  0
   -5.3773    0.4146    3.5479 H   0  0  0  0  0  0  0  0  0  0  0  0
   -6.9608   -0.9060    2.4549 H   0  0  0  0  0  0  0  0  0  0  0  0
   -5.0669   -1.9822    0.5072 H   0  0  0  0  0  0  0  0  0  0  0  0
   -5.6615   -1.9926   -2.0763 H   0  0  0  0  0  0  0  0  0  0  0  0
   -7.4519   -2.0453   -2.2968 H   0  0  0  0  0  0  0  0  0  0  0  0
   -6.6587   -3.2068   -1.1826 H   0  0  0  0  0  0  0  0  0  0  0  0
   -8.3447   -0.1488    0.6072 H   0  0  0  0  0  0  0  0  0  0  0  0
   -8.7318   -0.5451   -1.0584 H   0  0  0  0  0  0  0  0  0  0  0  0
   -6.3573    1.3512   -0.6024 H   0  0  0  0  0  0  0  0  0  0  0  0
   -8.1620    2.1476    0.9559 H   0  0  0  0  0  0  0  0  0  0  0  0
   -7.8068    3.3104   -0.3415 H   0  0  0  0  0  0  0  0  0  0  0  0
   -9.2914    2.2778   -0.4504 H   0  0  0  0  0  0  0  0  0  0  0  0
   -8.6152    1.1738   -2.6812 H   0  0  0  0  0  0  0  0  0  0  0  0
   -7.2362    0.0664   -3.8568 H   0  0  0  0  0  0  0  0  0  0  0  0
   -8.0076    3.4348   -2.6479 H   0  0  0  0  0  0  0  0  0  0  0  0
   -7.1083    3.8616   -4.8787 H   0  0  0  0  0  0  0  0  0  0  0  0
   -6.5686    2.1507   -5.0193 H   0  0  0  0  0  0  0  0  0  0  0  0
   -8.3132    2.5284   -4.8458 H   0  0  0  0  0  0  0  0  0  0  0  0
   -6.0463    4.3863   -2.0385 H   0  0  0  0  0  0  0  0  0  0  0  0
   -3.5025    4.2536   -1.3242 H   0  0  0  0  0  0  0  0  0  0  0  0
   -3.7319    4.9309   -2.9815 H   0  0  0  0  0  0  0  0  0  0  0  0
   -2.5470    3.6145   -2.7294 H   0  0  0  0  0  0  0  0  0  0  0  0
   -4.5974    1.5013   -4.2571 H   0  0  0  0  0  0  0  0  0  0  0  0
   -4.8733   -0.8766   -4.6117 H   0  0  0  0  0  0  0  0  0  0  0  0
   -3.2578   -0.2901   -5.2156 H   0  0  0  0  0  0  0  0  0  0  0  0
   -3.4608   -1.9919   -4.6567 H   0  0  0  0  0  0  0  0  0  0  0  0
   -3.1862   -1.1582    1.5314 H   0  0  0  0  0  0  0  0  0  0  0  0
   -1.2230    1.1360    1.0335 H   0  0  0  0  0  0  0  0  0  0  0  0
   -1.7559   -0.6875    3.4299 H   0  0  0  0  0  0  0  0  0  0  0  0
   -0.0959   -0.1029    3.1224 H   0  0  0  0  0  0  0  0  0  0  0  0
   -1.3822    1.0847    3.3783 H   0  0  0  0  0  0  0  0  0  0  0  0
   -0.4865   -1.8139    1.3578 H   0  0  0  0  0  0  0  0  0  0  0  0
   -1.5836   -2.1765   -0.4023 H   0  0  0  0  0  0  0  0  0  0  0  0
    1.1469    0.3194    1.3046 H   0  0  0  0  0  0  0  0  0  0  0  0
    1.8950    1.1278   -0.8148 H   0  0  0  0  0  0  0  0  0  0  0  0
    0.9863   -0.1395   -1.7287 H   0  0  0  0  0  0  0  0  0  0  0  0
    0.1187    1.1895   -0.8816 H   0  0  0  0  0  0  0  0  0  0  0  0
    0.9996   -2.9531   -0.3668 H   0  0  0  0  0  0  0  0  0  0  0  0
    3.5501   -0.4391   -0.6310 H   0  0  0  0  0  0  0  0  0  0  0  0
    3.5350   -0.0872    1.1356 H   0  0  0  0  0  0  0  0  0  0  0  0
    4.4771   -2.6637   -0.2735 H   0  0  0  0  0  0  0  0  0  0  0  0
    8.1102   -0.0684    0.7539 H   0  0  0  0  0  0  0  0  0  0  0  0
    8.1201    0.1989   -2.2979 H   0  0  0  0  0  0  0  0  0  0  0  0
    9.4595    1.7650    0.8808 H   0  0  0  0  0  0  0  0  0  0  0  0
   11.4386    4.0456    2.8710 H   0  0  0  0  0  0  0  0  0  0  0  0
   13.8507    3.6224    1.3792 H   0  0  0  0  0  0  0  0  0  0  0  0
   13.7131    2.3408    2.6671 H   0  0  0  0  0  0  0  0  0  0  0  0
   14.5045    0.7422    1.1584 H   0  0  0  0  0  0  0  0  0  0  0  0
   14.6263    2.0225   -0.1394 H   0  0  0  0  0  0  0  0  0  0  0  0
    4.3622   -2.0404    2.7445 H   0  0  0  0  0  0  0  0  0  0  0  0
    6.3037   -3.4601    1.9275 H   0  0  0  0  0  0  0  0  0  0  0  0
    5.2114   -4.3365    3.0237 H   0  0  0  0  0  0  0  0  0  0  0  0
    5.1234   -4.6339    1.2368 H   0  0  0  0  0  0  0  0  0  0  0  0
    2.6438   -3.9650    1.0298 H   0  0  0  0  0  0  0  0  0  0  0  0
    3.1352   -3.7722    4.0038 H   0  0  0  0  0  0  0  0  0  0  0  0
    1.7219   -5.9032    2.2681 H   0  0  0  0  0  0  0  0  0  0  0  0
    3.4879   -5.8732    2.6029 H   0  0  0  0  0  0  0  0  0  0  0  0
    2.3349   -6.0984    3.9546 H   0  0  0  0  0  0  0  0  0  0  0  0
    0.2350   -3.9104    2.9865 H   0  0  0  0  0  0  0  0  0  0  0  0
    0.7968   -4.3027    4.6580 H   0  0  0  0  0  0  0  0  0  0  0  0
    0.9658   -2.6310    4.0397 H   0  0  0  0  0  0  0  0  0  0  0  0
  1  2  1  0
  2  3  1  0
  3  4  1  0
  4  5  2  0
  5  6  1  0
  6  7  2  0
  7  8  1  0
  7  9  1  0
  9 10  1  0
 10 11  1  0
 10 12  1  0
 12 13  1  0
 12 14  1  0
 14 15  1  0
 14 16  1  0
 16 17  2  0
 17 18  1  0
 17 19  1  0
 19 20  2  0
 20 21  1  0
 21 22  1  0
 20 23  1  0
 23 24  2  0
 23 25  1  0
 25 26  1  0
 26 27  1  0
 27 28  1  0
 27 29  1  0
 29 30  1  0
 29 31  1  0
 31 32  1  0
 31 33  1  0
 33 34  1  6
 33 35  1  0
 35 36  1  0
 36 37  1  0
 37 38  1  0
 38 39  2  0
 38 40  1  0
 40 41  2  0
 41 42  1  0
 42 43  2  0
 42 44  1  0
 44 45  1  0
 45 46  2  0
 46 47  1  0
 46 48  1  0
 48 49  1  0
 49 50  1  0
 50 51  2  0
 36 52  1  0
 52 53  1  0
 52 54  1  0
 54 55  1  0
 54 56  1  0
 56 57  1  0
 56 58  1  0
 26  3  1  0
 55 33  1  0
 50 45  1  0
  1 59  1  0
  1 60  1  0
  1 61  1  0
  3 62  1  1
  4 63  1  0
  5 64  1  0
  6 65  1  0
  8 66  1  0
  8 67  1  0
  8 68  1  0
  9 69  1  0
  9 70  1  0
 10 71  1  6
 11 72  1  0
 11 73  1  0
 11 74  1  0
 12 75  1  1
 13 76  1  0
 14 77  1  1
 15 78  1  0
 15 79  1  0
 15 80  1  0
 16 81  1  0
 18 82  1  0
 18 83  1  0
 18 84  1  0
 19 85  1  0
 22 86  1  0
 22 87  1  0
 22 88  1  0
 26 89  1  0
 27 90  1  6
 28 91  1  0
 28 92  1  0
 28 93  1  0
 29 94  1  1
 30 95  1  0
 31 96  1  1
 32 97  1  0
 32 98  1  0
 32 99  1  0
 34100  1  0
 35101  1  0
 35102  1  0
 36103  1  6
 40104  1  0
 41105  1  0
 44106  1  0
 47107  1  0
 48108  1  0
 48109  1  0
 49110  1  0
 49111  1  0
 52112  1  1
 53113  1  0
 53114  1  0
 53115  1  0
 54116  1  6
 56117  1  0
 57118  1  0
 57119  1  0
 57120  1  0
 58121  1  0
 58122  1  0
 58123  1  0
M  END
$$$$
