
     RDKit          3D

 45 48  0  0  0  0  0  0  0  0999 V2000
    4.8487   -1.8271    0.9347 C   0  0  0  0  0  0  0  0  0  0  0  0
    5.1839   -1.1930   -0.3349 N   0  0  0  0  0  0  0  0  0  0  0  0
    5.7207   -1.7705   -1.4235 C   0  0  0  0  0  0  0  0  0  0  0  0
    5.9833   -0.8546   -2.3766 N   0  0  0  0  0  0  0  0  0  0  0  0
    5.6244    0.3276   -1.8948 N   0  0  0  0  0  0  0  0  0  0  0  0
    5.1474    0.1127   -0.6550 C   0  0  0  0  0  0  0  0  0  0  0  0
    4.5597    1.4185    0.4230 S   0  0  0  0  0  0  0  0  0  0  0  0
    2.8910    1.3034   -0.2127 C   0  0  0  0  0  0  0  0  0  0  0  0
    2.0066    0.4517    0.3686 N   0  0  0  0  0  0  0  0  0  0  0  0
    0.7277    0.3098   -0.0771 C   0  0  0  0  0  0  0  0  0  0  0  0
   -0.1440   -0.6556    0.6197 C   0  0  0  0  0  0  0  0  0  0  0  0
   -0.0253   -0.7898    1.8673 O   0  0  0  0  0  0  0  0  0  0  0  0
   -1.0461   -1.4974   -0.1146 N   0  0  0  0  0  0  0  0  0  0  0  0
   -2.1768   -2.1642    0.4628 C   0  0  0  0  0  0  0  0  0  0  0  0
   -2.9341   -3.0400   -0.2318 N   0  0  0  0  0  0  0  0  0  0  0  0
   -3.9764   -3.5047    0.5095 C   0  0  0  0  0  0  0  0  0  0  0  0
   -4.9335   -4.5184   -0.0252 C   0  0  0  0  0  0  0  0  0  0  0  0
   -4.0521   -3.0052    1.8073 C   0  0  0  0  0  0  0  0  0  0  0  0
   -2.7772   -1.9296    2.0203 S   0  0  0  0  0  0  0  0  0  0  0  0
    0.2836    1.1024   -1.1615 C   0  0  0  0  0  0  0  0  0  0  0  0
   -1.4211    1.0971   -1.7429 S   0  0  0  0  0  0  0  0  0  0  0  0
   -1.9232    2.3834   -0.5988 C   0  0  0  0  0  0  0  0  0  0  0  0
   -1.7948    3.7315   -0.9574 C   0  0  0  0  0  0  0  0  0  0  0  0
   -2.1823    4.7342   -0.0628 C   0  0  0  0  0  0  0  0  0  0  0  0
   -2.7041    4.3922    1.1893 C   0  0  0  0  0  0  0  0  0  0  0  0
   -3.0795    5.3647    2.0561 F   0  0  0  0  0  0  0  0  0  0  0  0
   -2.8408    3.0465    1.5456 C   0  0  0  0  0  0  0  0  0  0  0  0
   -2.4536    2.0430    0.6521 C   0  0  0  0  0  0  0  0  0  0  0  0
    1.1889    1.9767   -1.7742 C   0  0  0  0  0  0  0  0  0  0  0  0
    2.4966    2.0791   -1.3031 C   0  0  0  0  0  0  0  0  0  0  0  0
    5.6510   -1.6245    1.6744 H   0  0  0  0  0  0  0  0  0  0  0  0
    4.7457   -2.9249    0.8009 H   0  0  0  0  0  0  0  0  0  0  0  0
    3.8869   -1.4274    1.3177 H   0  0  0  0  0  0  0  0  0  0  0  0
    5.9279   -2.8283   -1.5214 H   0  0  0  0  0  0  0  0  0  0  0  0
   -0.8659   -1.6472   -1.1327 H   0  0  0  0  0  0  0  0  0  0  0  0
   -4.6810   -5.5185    0.3845 H   0  0  0  0  0  0  0  0  0  0  0  0
   -5.9714   -4.2535    0.2677 H   0  0  0  0  0  0  0  0  0  0  0  0
   -4.8745   -4.5548   -1.1335 H   0  0  0  0  0  0  0  0  0  0  0  0
   -4.7987   -3.2615    2.5472 H   0  0  0  0  0  0  0  0  0  0  0  0
   -1.3908    4.0027   -1.9245 H   0  0  0  0  0  0  0  0  0  0  0  0
   -2.0780    5.7751   -0.3406 H   0  0  0  0  0  0  0  0  0  0  0  0
   -3.2476    2.7801    2.5127 H   0  0  0  0  0  0  0  0  0  0  0  0
   -2.5673    1.0047    0.9326 H   0  0  0  0  0  0  0  0  0  0  0  0
    0.8734    2.5933   -2.6063 H   0  0  0  0  0  0  0  0  0  0  0  0
    3.1926    2.7603   -1.7758 H   0  0  0  0  0  0  0  0  0  0  0  0
  1  2  1  0
  2  3  1  0
  3  4  2  0
  4  5  1  0
  5  6  2  0
  6  7  1  0
  7  8  1  0
  8  9  2  0
  9 10  1  0
 10 11  1  0
 11 12  2  0
 11 13  1  0
 13 14  1  0
 14 15  2  0
 15 16  1  0
 16 17  1  0
 16 18  2  0
 18 19  1  0
 10 20  2  0
 20 21  1  0
 21 22  1  0
 22 23  2  0
 23 24  1  0
 24 25  2  0
 25 26  1  0
 25 27  1  0
 27 28  2  0
 20 29  1  0
 29 30  2  0
  6  2  1  0
 30  8  1  0
 19 14  1  0
 28 22  1  0
  1 31  1  0
  1 32  1  0
  1 33  1  0
  3 34  1  0
 13 35  1  0
 17 36  1  0
 17 37  1  0
 17 38  1  0
 18 39  1  0
 23 40  1  0
 24 41  1  0
 27 42  1  0
 28 43  1  0
 29 44  1  0
 30 45  1  0
M  END
$$$$
