
     RDKit          3D

 41 42  0  0  0  0  0  0  0  0999 V2000
   -7.2290    1.1346    0.1325 N   0  0  0  0  0  0  0  0  0  0  0  0
   -6.0932    1.3473    1.0256 C   0  0  0  0  0  0  0  0  0  0  0  0
   -4.8345    0.6623    0.4817 C   0  0  0  0  0  0  0  0  0  0  0  0
   -4.3669    1.2891   -0.8369 C   0  0  0  0  0  0  0  0  0  0  0  0
   -3.1168    0.6169   -1.3193 C   0  0  0  0  0  0  0  0  0  0  0  0
   -3.1951   -0.2590   -2.2228 O   0  0  0  0  0  0  0  0  0  0  0  0
   -1.8458    0.9753   -0.7538 N   0  0  0  0  0  0  0  0  0  0  0  0
   -0.6304    0.2379   -0.9688 C   0  0  0  0  0  0  0  0  0  0  0  0
   -0.6319   -1.1631   -1.0833 C   0  0  0  0  0  0  0  0  0  0  0  0
    0.5674   -1.8575   -1.2658 C   0  0  0  0  0  0  0  0  0  0  0  0
    1.7865   -1.1731   -1.3204 C   0  0  0  0  0  0  0  0  0  0  0  0
    2.9605   -1.9220   -1.5028 O   0  0  0  0  0  0  0  0  0  0  0  0
    4.2878   -1.3954   -1.4773 C   0  0  0  0  0  0  0  0  0  0  0  0
    4.6727   -0.9796   -0.0821 C   0  0  0  0  0  0  0  0  0  0  0  0
    5.2105    0.2956    0.1610 C   0  0  0  0  0  0  0  0  0  0  0  0
    5.5752    0.6704    1.4579 C   0  0  0  0  0  0  0  0  0  0  0  0
    5.4149   -0.2263    2.5178 C   0  0  0  0  0  0  0  0  0  0  0  0
    4.8928   -1.5010    2.2820 C   0  0  0  0  0  0  0  0  0  0  0  0
    4.5266   -1.8797    0.9867 C   0  0  0  0  0  0  0  0  0  0  0  0
    1.7912    0.2284   -1.1888 C   0  0  0  0  0  0  0  0  0  0  0  0
    0.5922    0.9230   -1.0048 C   0  0  0  0  0  0  0  0  0  0  0  0
   -8.0392    1.6739    0.5147 H   0  0  0  0  0  0  0  0  0  0  0  0
   -7.4964    0.1243    0.1781 H   0  0  0  0  0  0  0  0  0  0  0  0
   -6.3272    0.9353    2.0326 H   0  0  0  0  0  0  0  0  0  0  0  0
   -5.9059    2.4380    1.1370 H   0  0  0  0  0  0  0  0  0  0  0  0
   -4.0267    0.7595    1.2402 H   0  0  0  0  0  0  0  0  0  0  0  0
   -5.0370   -0.4216    0.3340 H   0  0  0  0  0  0  0  0  0  0  0  0
   -4.1668    2.3727   -0.6913 H   0  0  0  0  0  0  0  0  0  0  0  0
   -5.1617    1.1881   -1.6079 H   0  0  0  0  0  0  0  0  0  0  0  0
   -1.7882    1.8690   -0.2146 H   0  0  0  0  0  0  0  0  0  0  0  0
   -1.5528   -1.7251   -1.0051 H   0  0  0  0  0  0  0  0  0  0  0  0
    0.5509   -2.9366   -1.3529 H   0  0  0  0  0  0  0  0  0  0  0  0
    4.9875   -2.1905   -1.8096 H   0  0  0  0  0  0  0  0  0  0  0  0
    4.3774   -0.5577   -2.2026 H   0  0  0  0  0  0  0  0  0  0  0  0
    5.3438    1.0005   -0.6502 H   0  0  0  0  0  0  0  0  0  0  0  0
    5.9837    1.6558    1.6410 H   0  0  0  0  0  0  0  0  0  0  0  0
    5.6982    0.0653    3.5208 H   0  0  0  0  0  0  0  0  0  0  0  0
    4.7734   -2.1964    3.1027 H   0  0  0  0  0  0  0  0  0  0  0  0
    4.1270   -2.8718    0.8165 H   0  0  0  0  0  0  0  0  0  0  0  0
    2.7116    0.7923   -1.2286 H   0  0  0  0  0  0  0  0  0  0  0  0
    0.6140    2.0008   -0.9015 H   0  0  0  0  0  0  0  0  0  0  0  0
  1  2  1  0
  2  3  1  0
  3  4  1  0
  4  5  1  0
  5  6  2  0
  5  7  1  0
  7  8  1  0
  8  9  2  0
  9 10  1  0
 10 11  2  0
 11 12  1  0
 12 13  1  0
 13 14  1  0
 14 15  2  0
 15 16  1  0
 16 17  2  0
 17 18  1  0
 18 19  2  0
 11 20  1  0
 20 21  2  0
 21  8  1  0
 19 14  1  0
  1 22  1  0
  1 23  1  0
  2 24  1  0
  2 25  1  0
  3 26  1  0
  3 27  1  0
  4 28  1  0
  4 29  1  0
  7 30  1  0
  9 31  1  0
 10 32  1  0
 13 33  1  0
 13 34  1  0
 15 35  1  0
 16 36  1  0
 17 37  1  0
 18 38  1  0
 19 39  1  0
 20 40  1  0
 21 41  1  0
M  END
$$$$
