
     RDKit          3D

 37 37  0  0  0  0  0  0  0  0999 V2000
    5.0460   -1.1593   -1.2170 N   0  0  0  0  0  0  0  0  0  0  0  0
    3.7131   -0.5947   -0.9994 C   0  0  1  0  0  0  0  0  0  0  0  0
    2.8909   -1.5253   -0.0873 C   0  0  0  0  0  0  0  0  0  0  0  0
    1.4675   -1.0479    0.0604 C   0  0  0  0  0  0  0  0  0  0  0  0
    0.5266   -1.3112   -0.9468 C   0  0  0  0  0  0  0  0  0  0  0  0
   -0.7827   -0.8365   -0.8313 C   0  0  0  0  0  0  0  0  0  0  0  0
   -1.1694   -0.0871    0.2907 C   0  0  0  0  0  0  0  0  0  0  0  0
   -0.2264    0.1809    1.2952 C   0  0  0  0  0  0  0  0  0  0  0  0
    1.0832   -0.2928    1.1794 C   0  0  0  0  0  0  0  0  0  0  0  0
   -2.5171    0.4093    0.4061 N   0  0  0  0  0  0  0  0  0  0  0  0
   -3.0705    1.2720   -0.6477 C   0  0  0  0  0  0  0  0  0  0  0  0
   -2.3776    2.6324   -0.6394 C   0  0  0  0  0  0  0  0  0  0  0  0
   -3.0828    3.6888   -1.8883 Cl  0  0  0  0  0  0  0  0  0  0  0  0
   -3.3293    0.0528    1.5783 C   0  0  0  0  0  0  0  0  0  0  0  0
   -3.6995   -1.4278    1.5376 C   0  0  0  0  0  0  0  0  0  0  0  0
   -4.7207   -1.8445    2.9364 Cl  0  0  0  0  0  0  0  0  0  0  0  0
    3.8357    0.7756   -0.3901 C   0  0  0  0  0  0  0  0  0  0  0  0
    3.0861    1.8294   -0.9036 O   0  0  0  0  0  0  0  0  0  0  0  0
    4.5865    0.9650    0.6049 O   0  0  0  0  0  0  0  0  0  0  0  0
    5.5657   -0.5322   -1.8742 H   0  0  0  0  0  0  0  0  0  0  0  0
    4.9402   -2.0720   -1.7174 H   0  0  0  0  0  0  0  0  0  0  0  0
    3.1974   -0.5050   -1.9832 H   0  0  0  0  0  0  0  0  0  0  0  0
    3.3786   -1.6062    0.9096 H   0  0  0  0  0  0  0  0  0  0  0  0
    2.8797   -2.5498   -0.5199 H   0  0  0  0  0  0  0  0  0  0  0  0
    0.8085   -1.8833   -1.8222 H   0  0  0  0  0  0  0  0  0  0  0  0
   -1.4974   -1.0656   -1.6107 H   0  0  0  0  0  0  0  0  0  0  0  0
   -0.4975    0.7763    2.1570 H   0  0  0  0  0  0  0  0  0  0  0  0
    1.8002   -0.0623    1.9577 H   0  0  0  0  0  0  0  0  0  0  0  0
   -4.1620    1.4228   -0.5009 H   0  0  0  0  0  0  0  0  0  0  0  0
   -2.9427    0.7915   -1.6406 H   0  0  0  0  0  0  0  0  0  0  0  0
   -2.5045    3.1143    0.3532 H   0  0  0  0  0  0  0  0  0  0  0  0
   -1.2933    2.5119   -0.8473 H   0  0  0  0  0  0  0  0  0  0  0  0
   -2.7706    0.2746    2.5119 H   0  0  0  0  0  0  0  0  0  0  0  0
   -4.2621    0.6565    1.6099 H   0  0  0  0  0  0  0  0  0  0  0  0
   -2.7824   -2.0532    1.5685 H   0  0  0  0  0  0  0  0  0  0  0  0
   -4.2589   -1.6512    0.6045 H   0  0  0  0  0  0  0  0  0  0  0  0
    3.1414    2.7542   -0.4941 H   0  0  0  0  0  0  0  0  0  0  0  0
  1  2  1  0
  2  3  1  0
  3  4  1  0
  4  5  2  0
  5  6  1  0
  6  7  2  0
  7  8  1  0
  8  9  2  0
  7 10  1  0
 10 11  1  0
 11 12  1  0
 12 13  1  0
 10 14  1  0
 14 15  1  0
 15 16  1  0
  2 17  1  0
 17 18  1  0
 17 19  2  0
  9  4  1  0
  1 20  1  0
  1 21  1  0
  2 22  1  6
  3 23  1  0
  3 24  1  0
  5 25  1  0
  6 26  1  0
  8 27  1  0
  9 28  1  0
 11 29  1  0
 11 30  1  0
 12 31  1  0
 12 32  1  0
 14 33  1  0
 14 34  1  0
 15 35  1  0
 15 36  1  0
 18 37  1  0
M  END
$$$$
