
     RDKit          3D

 53 54  0  0  0  0  0  0  0  0999 V2000
    0.0548    0.3139    1.6642 C   0  0  2  0  0  0  0  0  0  0  0  0
    0.3098   -1.0801    2.2414 C   0  0  0  0  0  0  0  0  0  0  0  0
   -0.7778   -1.9806    1.6609 C   0  0  0  0  0  0  0  0  0  0  0  0
   -1.8952   -1.0505    1.2046 C   0  0  0  0  0  0  0  0  0  0  0  0
   -1.3094    0.2803    1.1556 N   0  0  0  0  0  0  0  0  0  0  0  0
   -2.0300    1.4609    0.7548 C   0  0  0  0  0  0  0  0  0  0  0  0
   -1.4773    2.5904    0.8637 O   0  0  0  0  0  0  0  0  0  0  0  0
   -3.4502    1.3615    0.2531 C   0  0  0  0  0  0  0  0  0  0  0  0
   -3.9545    2.6725   -0.3763 C   0  0  0  0  0  0  0  0  0  0  0  0
   -5.3434    2.5234   -1.0378 C   0  0  0  0  0  0  0  0  0  0  0  0
   -5.6738    3.7801   -1.8536 C   0  0  0  0  0  0  0  0  0  0  0  0
   -6.4487    2.2701   -0.0013 C   0  0  0  0  0  0  0  0  0  0  0  0
    1.0287    0.6364    0.5606 C   0  0  0  0  0  0  0  0  0  0  0  0
    1.9572    1.4601    0.7823 O   0  0  0  0  0  0  0  0  0  0  0  0
    0.9358   -0.0181   -0.7141 N   0  0  0  0  0  0  0  0  0  0  0  0
    1.9880    0.0836   -1.7214 C   0  0  0  0  0  0  0  0  0  0  0  0
    3.1957   -0.7001   -1.2852 C   0  0  0  0  0  0  0  0  0  0  0  0
    4.3733   -0.0437   -0.8985 C   0  0  0  0  0  0  0  0  0  0  0  0
    5.4809   -0.7779   -0.4647 C   0  0  0  0  0  0  0  0  0  0  0  0
    5.4279   -2.1823   -0.4061 C   0  0  0  0  0  0  0  0  0  0  0  0
    4.2427   -2.8349   -0.7864 C   0  0  0  0  0  0  0  0  0  0  0  0
    3.1367   -2.0998   -1.2218 C   0  0  0  0  0  0  0  0  0  0  0  0
    6.5973   -2.9686    0.0613 C   0  0  0  0  0  0  0  0  0  0  0  0
    6.4040   -4.1502    0.8432 N   0  0  0  0  0  0  0  0  0  0  0  0
    7.8066   -2.6057   -0.2360 N   0  0  0  0  0  0  0  0  0  0  0  0
    0.1342    1.0721    2.4756 H   0  0  0  0  0  0  0  0  0  0  0  0
    0.1986   -1.0450    3.3477 H   0  0  0  0  0  0  0  0  0  0  0  0
    1.3248   -1.4707    2.0040 H   0  0  0  0  0  0  0  0  0  0  0  0
   -0.3708   -2.5347    0.7863 H   0  0  0  0  0  0  0  0  0  0  0  0
   -1.1423   -2.7113    2.4152 H   0  0  0  0  0  0  0  0  0  0  0  0
   -2.2607   -1.3536    0.2001 H   0  0  0  0  0  0  0  0  0  0  0  0
   -2.7333   -1.0635    1.9347 H   0  0  0  0  0  0  0  0  0  0  0  0
   -4.0946    1.0826    1.1122 H   0  0  0  0  0  0  0  0  0  0  0  0
   -3.5048    0.5555   -0.5089 H   0  0  0  0  0  0  0  0  0  0  0  0
   -3.2225    2.9866   -1.1537 H   0  0  0  0  0  0  0  0  0  0  0  0
   -3.9912    3.4694    0.3995 H   0  0  0  0  0  0  0  0  0  0  0  0
   -5.3184    1.6624   -1.7422 H   0  0  0  0  0  0  0  0  0  0  0  0
   -5.7111    4.6753   -1.1960 H   0  0  0  0  0  0  0  0  0  0  0  0
   -4.9044    3.9430   -2.6384 H   0  0  0  0  0  0  0  0  0  0  0  0
   -6.6565    3.6643   -2.3589 H   0  0  0  0  0  0  0  0  0  0  0  0
   -7.4427    2.2474   -0.4971 H   0  0  0  0  0  0  0  0  0  0  0  0
   -6.4541    3.0689    0.7710 H   0  0  0  0  0  0  0  0  0  0  0  0
   -6.3055    1.2872    0.4926 H   0  0  0  0  0  0  0  0  0  0  0  0
    0.1160   -0.6315   -0.9198 H   0  0  0  0  0  0  0  0  0  0  0  0
    2.2350    1.1526   -1.9016 H   0  0  0  0  0  0  0  0  0  0  0  0
    1.6178   -0.3331   -2.6832 H   0  0  0  0  0  0  0  0  0  0  0  0
    4.4330    1.0373   -0.9242 H   0  0  0  0  0  0  0  0  0  0  0  0
    6.3696   -0.2441   -0.1529 H   0  0  0  0  0  0  0  0  0  0  0  0
    4.1749   -3.9151   -0.7635 H   0  0  0  0  0  0  0  0  0  0  0  0
    2.2314   -2.6214   -1.5079 H   0  0  0  0  0  0  0  0  0  0  0  0
    7.2233   -4.7274    1.1372 H   0  0  0  0  0  0  0  0  0  0  0  0
    5.4556   -4.4276    1.1795 H   0  0  0  0  0  0  0  0  0  0  0  0
    8.0199   -1.7666   -0.8198 H   0  0  0  0  0  0  0  0  0  0  0  0
  1  2  1  0
  2  3  1  0
  3  4  1  0
  4  5  1  0
  5  6  1  0
  6  7  2  0
  6  8  1  0
  8  9  1  0
  9 10  1  0
 10 11  1  0
 10 12  1  0
  1 13  1  0
 13 14  2  0
 13 15  1  0
 15 16  1  0
 16 17  1  0
 17 18  2  0
 18 19  1  0
 19 20  2  0
 20 21  1  0
 21 22  2  0
 20 23  1  0
 23 24  1  0
 23 25  2  3
  5  1  1  0
 22 17  1  0
  1 26  1  1
  2 27  1  0
  2 28  1  0
  3 29  1  0
  3 30  1  0
  4 31  1  0
  4 32  1  0
  8 33  1  0
  8 34  1  0
  9 35  1  0
  9 36  1  0
 10 37  1  0
 11 38  1  0
 11 39  1  0
 11 40  1  0
 12 41  1  0
 12 42  1  0
 12 43  1  0
 15 44  1  0
 16 45  1  0
 16 46  1  0
 18 47  1  0
 19 48  1  0
 21 49  1  0
 22 50  1  0
 24 51  1  0
 24 52  1  0
 25 53  1  0
M  END
$$$$
