
     RDKit          3D

 32 35  0  0  0  0  0  0  0  0999 V2000
    6.3519    0.0669    0.7524 O   0  0  0  0  0  0  0  0  0  0  0  0
    5.0351   -0.2033    0.3881 C   0  0  0  0  0  0  0  0  0  0  0  0
    4.0294    0.7404    0.6775 C   0  0  0  0  0  0  0  0  0  0  0  0
    2.7269    0.4316    0.2971 C   0  0  0  0  0  0  0  0  0  0  0  0
    2.4097   -0.7319   -0.3326 C   0  0  0  0  0  0  0  0  0  0  0  0
    3.3729   -1.6894   -0.6377 C   0  0  0  0  0  0  0  0  0  0  0  0
    4.7045   -1.4164   -0.2689 C   0  0  0  0  0  0  0  0  0  0  0  0
    1.0920   -0.7743   -0.5895 N   0  0  0  0  0  0  0  0  0  0  0  0
    0.6621    0.4088   -0.0717 C   0  0  0  0  0  0  0  0  0  0  0  0
    1.6388    1.1354    0.4505 O   0  0  0  0  0  0  0  0  0  0  0  0
   -0.7419    0.8758   -0.1354 C   0  0  0  0  0  0  0  0  0  0  0  0
   -1.8650    0.0199    0.0478 C   0  0  0  0  0  0  0  0  0  0  0  0
   -1.7137   -1.3198    0.4641 C   0  0  0  0  0  0  0  0  0  0  0  0
   -2.8218   -2.1463    0.6264 C   0  0  0  0  0  0  0  0  0  0  0  0
   -4.1016   -1.6595    0.3881 C   0  0  0  0  0  0  0  0  0  0  0  0
   -4.3022   -0.3318    0.0046 C   0  0  0  0  0  0  0  0  0  0  0  0
   -5.6235    0.0711   -0.2143 O   0  0  0  0  0  0  0  0  0  0  0  0
   -3.1845    0.5350   -0.1464 C   0  0  0  0  0  0  0  0  0  0  0  0
   -3.3428    1.9003   -0.4599 C   0  0  0  0  0  0  0  0  0  0  0  0
   -2.2362    2.7354   -0.5828 C   0  0  0  0  0  0  0  0  0  0  0  0
   -0.9509    2.2310   -0.4237 C   0  0  0  0  0  0  0  0  0  0  0  0
    7.0991   -0.5897    0.5593 H   0  0  0  0  0  0  0  0  0  0  0  0
    4.2589    1.6728    1.1770 H   0  0  0  0  0  0  0  0  0  0  0  0
    3.1089   -2.6109   -1.1403 H   0  0  0  0  0  0  0  0  0  0  0  0
    5.4771   -2.1410   -0.4916 H   0  0  0  0  0  0  0  0  0  0  0  0
   -0.7480   -1.7384    0.7027 H   0  0  0  0  0  0  0  0  0  0  0  0
   -2.6872   -3.1724    0.9443 H   0  0  0  0  0  0  0  0  0  0  0  0
   -4.9513   -2.3194    0.5113 H   0  0  0  0  0  0  0  0  0  0  0  0
   -5.9001    0.9799   -0.5548 H   0  0  0  0  0  0  0  0  0  0  0  0
   -4.3106    2.3553   -0.5931 H   0  0  0  0  0  0  0  0  0  0  0  0
   -2.3762    3.7836   -0.8148 H   0  0  0  0  0  0  0  0  0  0  0  0
   -0.1096    2.9014   -0.5545 H   0  0  0  0  0  0  0  0  0  0  0  0
  1  2  1  0
  2  3  2  0
  3  4  1  0
  4  5  2  0
  5  6  1  0
  6  7  2  0
  5  8  1  0
  8  9  2  0
  9 10  1  0
  9 11  1  0
 11 12  1  0
 12 13  2  0
 13 14  1  0
 14 15  2  0
 15 16  1  0
 16 17  1  0
 16 18  2  0
 18 19  1  0
 19 20  2  0
 20 21  1  0
  7  2  1  0
 21 11  2  0
 10  4  1  0
 18 12  1  0
  1 22  1  0
  3 23  1  0
  6 24  1  0
  7 25  1  0
 13 26  1  0
 14 27  1  0
 15 28  1  0
 17 29  1  0
 19 30  1  0
 20 31  1  0
 21 32  1  0
M  END
$$$$
