
     RDKit          3D

 59 62  0  0  0  0  0  0  0  0999 V2000
   -2.1604   -0.5510    0.7730 C   0  0  2  0  0  0  0  0  0  0  0  0
   -3.4226    0.1071    0.4077 N   0  0  0  0  0  0  0  0  0  0  0  0
   -1.0484    0.4794    0.7577 C   0  0  0  0  0  0  0  0  0  0  0  0
   -0.3939    0.6525    1.8222 O   0  0  0  0  0  0  0  0  0  0  0  0
   -0.7522    1.3143   -0.3824 N   0  0  0  0  0  0  0  0  0  0  0  0
    0.0240    2.5376   -0.2531 C   0  0  0  0  0  0  0  0  0  0  0  0
    0.3200    2.9977   -1.6729 C   0  0  0  0  0  0  0  0  0  0  0  0
   -0.6680    2.2526   -2.5635 C   0  0  2  0  0  0  0  0  0  0  0  0
   -1.7650    3.0598   -2.8186 F   0  0  0  0  0  0  0  0  0  0  0  0
   -1.1002    1.0277   -1.7660 C   0  0  0  0  0  0  0  0  0  0  0  0
   -1.8702   -1.8275   -0.0877 C   0  0  2  0  0  0  0  0  0  0  0  0
   -2.9897   -2.8932    0.0653 C   0  0  0  0  0  0  0  0  0  0  0  0
   -3.0674   -3.5103    1.4749 C   0  0  0  0  0  0  0  0  0  0  0  0
   -4.2788   -4.4091    1.6809 C   0  0  0  0  0  0  0  0  0  0  0  0
   -4.2158   -3.0541    2.3638 C   0  0  0  0  0  0  0  0  0  0  0  0
   -0.4695   -2.4586    0.1679 C   0  0  0  0  0  0  0  0  0  0  0  0
    0.5566   -1.7477   -0.5702 N   0  0  0  0  0  0  0  0  0  0  0  0
    1.7165   -1.8866    0.2855 C   0  0  2  0  0  0  0  0  0  0  0  0
    1.2319   -2.3464    1.5859 N   0  0  0  0  0  0  0  0  0  0  0  0
   -0.1292   -2.4236    1.5307 O   0  0  0  0  0  0  0  0  0  0  0  0
    2.4554   -0.5611    0.3630 C   0  0  0  0  0  0  0  0  0  0  0  0
    2.7628    0.0988    1.5774 C   0  0  0  0  0  0  0  0  0  0  0  0
    2.4086   -0.4150    2.7818 F   0  0  0  0  0  0  0  0  0  0  0  0
    3.4436    1.3208    1.5619 C   0  0  0  0  0  0  0  0  0  0  0  0
    3.8481    1.8945    0.3515 C   0  0  0  0  0  0  0  0  0  0  0  0
    3.5729    1.2358   -0.8497 C   0  0  0  0  0  0  0  0  0  0  0  0
    2.8869    0.0203   -0.8440 C   0  0  0  0  0  0  0  0  0  0  0  0
    4.6432    3.4639    0.3303 S   0  0  0  0  0  6  0  0  0  0  0  0
    3.4317    4.7273    0.0167 C   0  0  0  0  0  0  0  0  0  0  0  0
    5.6900    3.4873   -0.7480 O   0  0  0  0  0  0  0  0  0  0  0  0
    5.3067    3.7230    1.6539 O   0  0  0  0  0  0  0  0  0  0  0  0
   -2.2525   -0.8915    1.8305 H   0  0  0  0  0  0  0  0  0  0  0  0
   -4.1891   -0.2514    1.0209 H   0  0  0  0  0  0  0  0  0  0  0  0
   -3.6964   -0.1180   -0.5747 H   0  0  0  0  0  0  0  0  0  0  0  0
    0.9690    2.3483    0.2971 H   0  0  0  0  0  0  0  0  0  0  0  0
   -0.5758    3.3014    0.2871 H   0  0  0  0  0  0  0  0  0  0  0  0
    1.3558    2.7070   -1.9516 H   0  0  0  0  0  0  0  0  0  0  0  0
    0.2164    4.1000   -1.7722 H   0  0  0  0  0  0  0  0  0  0  0  0
   -0.1985    1.9608   -3.5282 H   0  0  0  0  0  0  0  0  0  0  0  0
   -2.1879    0.8642   -1.8852 H   0  0  0  0  0  0  0  0  0  0  0  0
   -0.5384    0.1376   -2.1172 H   0  0  0  0  0  0  0  0  0  0  0  0
   -1.8997   -1.5346   -1.1584 H   0  0  0  0  0  0  0  0  0  0  0  0
   -2.7951   -3.7172   -0.6554 H   0  0  0  0  0  0  0  0  0  0  0  0
   -3.9670   -2.4577   -0.2362 H   0  0  0  0  0  0  0  0  0  0  0  0
   -2.1592   -3.9027    1.9772 H   0  0  0  0  0  0  0  0  0  0  0  0
   -5.0085   -4.4551    0.8438 H   0  0  0  0  0  0  0  0  0  0  0  0
   -4.1122   -5.2641    2.3700 H   0  0  0  0  0  0  0  0  0  0  0  0
   -4.9212   -2.3133    1.9339 H   0  0  0  0  0  0  0  0  0  0  0  0
   -4.0037   -3.1091    3.4522 H   0  0  0  0  0  0  0  0  0  0  0  0
   -0.4762   -3.5260   -0.1600 H   0  0  0  0  0  0  0  0  0  0  0  0
    0.7286   -2.2369   -1.4809 H   0  0  0  0  0  0  0  0  0  0  0  0
    2.4181   -2.6444   -0.1405 H   0  0  0  0  0  0  0  0  0  0  0  0
    1.5879   -3.3147    1.7665 H   0  0  0  0  0  0  0  0  0  0  0  0
    3.6471    1.8245    2.4982 H   0  0  0  0  0  0  0  0  0  0  0  0
    3.8740    1.6714   -1.7940 H   0  0  0  0  0  0  0  0  0  0  0  0
    2.6822   -0.4668   -1.7895 H   0  0  0  0  0  0  0  0  0  0  0  0
    2.6340    4.6759    0.7864 H   0  0  0  0  0  0  0  0  0  0  0  0
    3.9161    5.7247    0.0521 H   0  0  0  0  0  0  0  0  0  0  0  0
    2.9841    4.5711   -0.9863 H   0  0  0  0  0  0  0  0  0  0  0  0
  1  2  1  0
  1  3  1  0
  3  4  2  0
  3  5  1  0
  5  6  1  0
  6  7  1  0
  7  8  1  0
  8  9  1  0
  8 10  1  0
  1 11  1  0
 11 12  1  0
 12 13  1  0
 13 14  1  0
 14 15  1  0
 11 16  1  0
 16 17  1  0
 17 18  1  0
 18 19  1  0
 19 20  1  0
 18 21  1  0
 21 22  2  0
 22 23  1  0
 22 24  1  0
 24 25  2  0
 25 26  1  0
 26 27  2  0
 25 28  1  0
 28 29  1  0
 28 30  2  0
 28 31  2  0
 10  5  1  0
 15 13  1  0
 20 16  1  0
 27 21  1  0
  1 32  1  1
  2 33  1  0
  2 34  1  0
  6 35  1  0
  6 36  1  0
  7 37  1  0
  7 38  1  0
  8 39  1  6
 10 40  1  0
 10 41  1  0
 11 42  1  6
 12 43  1  0
 12 44  1  0
 13 45  1  0
 14 46  1  0
 14 47  1  0
 15 48  1  0
 15 49  1  0
 16 50  1  0
 17 51  1  0
 18 52  1  6
 19 53  1  0
 24 54  1  0
 26 55  1  0
 27 56  1  0
 29 57  1  0
 29 58  1  0
 29 59  1  0
M  END
$$$$
