
     RDKit          3D

 21 22  0  0  0  0  0  0  0  0999 V2000
    0.3947    2.6731    0.2747 C   0  0  0  0  0  0  0  0  0  0  0  0
    0.1052    1.2385    0.1498 N   0  0  0  0  0  0  0  0  0  0  0  0
    1.1109    0.3299    0.0279 C   0  0  0  0  0  0  0  0  0  0  0  0
    0.8740   -0.9920   -0.1078 C   0  0  0  0  0  0  0  0  0  0  0  0
    2.0366   -1.6505   -0.1899 N   0  0  0  0  0  0  0  0  0  0  0  0
    2.9649   -0.6676   -0.1005 C   0  0  0  0  0  0  0  0  0  0  0  0
    4.8420   -0.9961   -0.1598 Br  0  0  0  0  0  0  0  0  0  0  0  0
    2.4353    0.5766    0.0363 N   0  0  0  0  0  0  0  0  0  0  0  0
   -0.4206   -1.4783   -0.1477 C   0  0  0  0  0  0  0  0  0  0  0  0
   -0.6300   -2.7181   -0.2537 O   0  0  0  0  0  0  0  0  0  0  0  0
   -1.4574   -0.5761   -0.0692 N   0  0  0  0  0  0  0  0  0  0  0  0
   -2.8499   -1.0538   -0.0866 C   0  0  0  0  0  0  0  0  0  0  0  0
   -1.1929    0.7753    0.0922 C   0  0  0  0  0  0  0  0  0  0  0  0
   -2.1501    1.5947    0.1890 O   0  0  0  0  0  0  0  0  0  0  0  0
   -0.2998    3.1486    1.0000 H   0  0  0  0  0  0  0  0  0  0  0  0
    0.2814    3.1626   -0.7153 H   0  0  0  0  0  0  0  0  0  0  0  0
    1.4261    2.8491    0.6478 H   0  0  0  0  0  0  0  0  0  0  0  0
    2.1942   -2.6768   -0.3002 H   0  0  0  0  0  0  0  0  0  0  0  0
   -3.5166   -0.3206   -0.5886 H   0  0  0  0  0  0  0  0  0  0  0  0
   -3.2010   -1.2139    0.9545 H   0  0  0  0  0  0  0  0  0  0  0  0
   -2.9468   -2.0045   -0.6529 H   0  0  0  0  0  0  0  0  0  0  0  0
  1  2  1  0
  2  3  1  0
  3  4  2  0
  4  5  1  0
  5  6  1  0
  6  7  1  0
  6  8  2  0
  4  9  1  0
  9 10  2  0
  9 11  1  0
 11 12  1  0
 11 13  1  0
 13 14  2  0
 13  2  1  0
  8  3  1  0
  1 15  1  0
  1 16  1  0
  1 17  1  0
  5 18  1  0
 12 19  1  0
 12 20  1  0
 12 21  1  0
M  END
$$$$
