
     RDKit          3D

 67 68  0  0  0  0  0  0  0  0999 V2000
    3.2767    1.7197   -2.1142 C   0  0  2  0  0  0  0  0  0  0  0  0
    2.7405    2.4700   -0.8672 C   0  0  0  0  0  0  0  0  0  0  0  0
    2.1134    1.5911    0.2327 C   0  0  0  0  0  0  0  0  0  0  0  0
    3.1248    0.6694    0.9292 C   0  0  0  0  0  0  0  0  0  0  0  0
    2.5012   -0.1468    2.0759 C   0  0  0  0  0  0  0  0  0  0  0  0
    2.2263    0.6771    3.3447 C   0  0  0  0  0  0  0  0  0  0  0  0
    0.9535    1.3857    3.2474 N   0  0  0  0  0  0  0  0  0  0  0  0
    2.3939    0.6126   -2.5075 N   0  0  0  0  0  0  0  0  0  0  0  0
    1.1070    0.8346   -3.1032 C   0  0  0  0  0  0  0  0  0  0  0  0
    0.6751    2.0107   -3.2541 O   0  0  0  0  0  0  0  0  0  0  0  0
    0.2395   -0.3404   -3.4877 C   0  0  2  0  0  0  0  0  0  0  0  0
   -0.5391   -0.0818   -4.7801 C   0  0  0  0  0  0  0  0  0  0  0  0
   -1.9287    0.3655   -4.3354 C   0  0  0  0  0  0  0  0  0  0  0  0
   -2.1129   -0.2009   -2.9327 C   0  0  0  0  0  0  0  0  0  0  0  0
   -0.7798   -0.5572   -2.4701 N   0  0  0  0  0  0  0  0  0  0  0  0
   -0.5047   -1.1683   -1.1937 C   0  0  0  0  0  0  0  0  0  0  0  0
    0.6569   -1.5976   -0.9515 O   0  0  0  0  0  0  0  0  0  0  0  0
   -1.5586   -1.2236   -0.1104 C   0  0  1  0  0  0  0  0  0  0  0  0
   -1.3162   -2.3944    0.8627 C   0  0  0  0  0  0  0  0  0  0  0  0
   -2.4156   -2.4891    1.8892 C   0  0  0  0  0  0  0  0  0  0  0  0
   -2.2600   -1.8953    3.1535 C   0  0  0  0  0  0  0  0  0  0  0  0
   -3.3012   -1.9398    4.0853 C   0  0  0  0  0  0  0  0  0  0  0  0
   -4.5046   -2.5721    3.7612 C   0  0  0  0  0  0  0  0  0  0  0  0
   -4.6698   -3.1585    2.5033 C   0  0  0  0  0  0  0  0  0  0  0  0
   -3.6315   -3.1149    1.5678 C   0  0  0  0  0  0  0  0  0  0  0  0
   -1.5548    0.0463    0.6199 N   0  0  0  0  0  0  0  0  0  0  0  0
   -2.7498    0.7673    0.9494 C   0  0  0  0  0  0  0  0  0  0  0  0
   -2.6702    1.9688    1.8327 C   0  0  0  0  0  0  0  0  0  0  0  0
   -3.8734    0.3721    0.5363 O   0  0  0  0  0  0  0  0  0  0  0  0
    4.8036    1.2355   -1.9326 B   0  0  0  0  0  0  0  0  0  0  0  0
    5.1722   -0.1701   -2.0928 O   0  0  0  0  0  0  0  0  0  0  0  0
    5.8460    2.2192   -1.6482 O   0  0  0  0  0  0  0  0  0  0  0  0
    3.3176    2.4469   -2.9544 H   0  0  0  0  0  0  0  0  0  0  0  0
    1.9496    3.1717   -1.2104 H   0  0  0  0  0  0  0  0  0  0  0  0
    3.5327    3.1117   -0.4225 H   0  0  0  0  0  0  0  0  0  0  0  0
    1.2844    0.9908   -0.1919 H   0  0  0  0  0  0  0  0  0  0  0  0
    1.6717    2.2794    0.9817 H   0  0  0  0  0  0  0  0  0  0  0  0
    3.9864    1.2617    1.3073 H   0  0  0  0  0  0  0  0  0  0  0  0
    3.5122   -0.0582    0.1868 H   0  0  0  0  0  0  0  0  0  0  0  0
    1.5749   -0.6548    1.7315 H   0  0  0  0  0  0  0  0  0  0  0  0
    3.2238   -0.9478    2.3455 H   0  0  0  0  0  0  0  0  0  0  0  0
    3.0499    1.4043    3.5170 H   0  0  0  0  0  0  0  0  0  0  0  0
    2.1964   -0.0075    4.2220 H   0  0  0  0  0  0  0  0  0  0  0  0
    0.1821    0.6849    3.3330 H   0  0  0  0  0  0  0  0  0  0  0  0
    0.8737    2.0140    4.0794 H   0  0  0  0  0  0  0  0  0  0  0  0
    2.6789   -0.3746   -2.3176 H   0  0  0  0  0  0  0  0  0  0  0  0
    0.8605   -1.2550   -3.6132 H   0  0  0  0  0  0  0  0  0  0  0  0
   -0.6318   -1.0343   -5.3476 H   0  0  0  0  0  0  0  0  0  0  0  0
   -0.0561    0.6726   -5.4397 H   0  0  0  0  0  0  0  0  0  0  0  0
   -2.7143   -0.0035   -5.0299 H   0  0  0  0  0  0  0  0  0  0  0  0
   -1.9665    1.4764   -4.2982 H   0  0  0  0  0  0  0  0  0  0  0  0
   -2.5675    0.5585   -2.2603 H   0  0  0  0  0  0  0  0  0  0  0  0
   -2.7513   -1.1101   -2.9713 H   0  0  0  0  0  0  0  0  0  0  0  0
   -2.5451   -1.3923   -0.5912 H   0  0  0  0  0  0  0  0  0  0  0  0
   -0.3354   -2.2715    1.3728 H   0  0  0  0  0  0  0  0  0  0  0  0
   -1.2689   -3.3472    0.2904 H   0  0  0  0  0  0  0  0  0  0  0  0
   -1.3374   -1.3918    3.4135 H   0  0  0  0  0  0  0  0  0  0  0  0
   -3.1767   -1.4802    5.0572 H   0  0  0  0  0  0  0  0  0  0  0  0
   -5.3104   -2.6043    4.4831 H   0  0  0  0  0  0  0  0  0  0  0  0
   -5.6044   -3.6427    2.2513 H   0  0  0  0  0  0  0  0  0  0  0  0
   -3.7760   -3.5618    0.5919 H   0  0  0  0  0  0  0  0  0  0  0  0
   -0.6533    0.3774    1.0288 H   0  0  0  0  0  0  0  0  0  0  0  0
   -3.6067    2.5623    1.7681 H   0  0  0  0  0  0  0  0  0  0  0  0
   -1.8185    2.6093    1.5210 H   0  0  0  0  0  0  0  0  0  0  0  0
   -2.5164    1.6431    2.8826 H   0  0  0  0  0  0  0  0  0  0  0  0
    5.3771   -0.2672   -3.0569 H   0  0  0  0  0  0  0  0  0  0  0  0
    5.9049    2.2445   -0.6598 H   0  0  0  0  0  0  0  0  0  0  0  0
  1  2  1  0
  2  3  1  0
  3  4  1  0
  4  5  1  0
  5  6  1  0
  6  7  1  0
  1  8  1  0
  8  9  1  0
  9 10  2  0
  9 11  1  0
 11 12  1  0
 12 13  1  0
 13 14  1  0
 14 15  1  0
 15 16  1  0
 16 17  2  0
 16 18  1  0
 18 19  1  0
 19 20  1  0
 20 21  2  0
 21 22  1  0
 22 23  2  0
 23 24  1  0
 24 25  2  0
 18 26  1  0
 26 27  1  0
 27 28  1  0
 27 29  2  0
  1 30  1  0
 30 31  1  0
 30 32  1  0
 15 11  1  0
 25 20  1  0
  1 33  1  6
  2 34  1  0
  2 35  1  0
  3 36  1  0
  3 37  1  0
  4 38  1  0
  4 39  1  0
  5 40  1  0
  5 41  1  0
  6 42  1  0
  6 43  1  0
  7 44  1  0
  7 45  1  0
  8 46  1  0
 11 47  1  6
 12 48  1  0
 12 49  1  0
 13 50  1  0
 13 51  1  0
 14 52  1  0
 14 53  1  0
 18 54  1  6
 19 55  1  0
 19 56  1  0
 21 57  1  0
 22 58  1  0
 23 59  1  0
 24 60  1  0
 25 61  1  0
 26 62  1  0
 28 63  1  0
 28 64  1  0
 28 65  1  0
 31 66  1  0
 32 67  1  0
M  END
$$$$
