
     RDKit          3D

 54 56  0  0  0  0  0  0  0  0999 V2000
   -0.1191    2.0811    0.9327 C   0  0  1  0  0  0  0  0  0  0  0  0
   -1.5002    1.4150    0.6979 C   0  0  0  0  0  0  0  0  0  0  0  0
   -1.3634    0.1778   -0.0817 N   0  0  0  0  0  0  0  0  0  0  0  0
   -0.3479   -0.8074    0.3105 C   0  0  0  0  0  0  0  0  0  0  0  0
    0.5709   -0.2422    1.3938 C   0  0  0  0  0  0  0  0  0  0  0  0
    1.0019    1.1076    1.0003 N   0  0  0  0  0  0  0  0  0  0  0  0
    2.2521    1.6698    2.0856 S   0  0  0  0  0  6  0  0  0  0  0  0
    2.5907    3.1035    1.7865 O   0  0  0  0  0  0  0  0  0  0  0  0
    1.7692    1.5636    3.5064 O   0  0  0  0  0  0  0  0  0  0  0  0
    3.7020    0.6954    1.8659 C   0  0  0  0  0  0  0  0  0  0  0  0
    4.1003    0.3241    0.5758 C   0  0  0  0  0  0  0  0  0  0  0  0
    5.2484   -0.4511    0.3881 C   0  0  0  0  0  0  0  0  0  0  0  0
    6.0161   -0.8610    1.4954 C   0  0  0  0  0  0  0  0  0  0  0  0
    7.1752   -1.6395    1.3608 O   0  0  0  0  0  0  0  0  0  0  0  0
    7.6966   -2.0960    0.1170 C   0  0  0  0  0  0  0  0  0  0  0  0
    5.6151   -0.4812    2.7820 C   0  0  0  0  0  0  0  0  0  0  0  0
    4.4665    0.2934    2.9687 C   0  0  0  0  0  0  0  0  0  0  0  0
   -2.2928   -0.1402   -1.1339 C   0  0  0  0  0  0  0  0  0  0  0  0
   -2.1881   -1.2330   -1.7570 O   0  0  0  0  0  0  0  0  0  0  0  0
   -3.3090    0.7631   -1.4708 O   0  0  0  0  0  0  0  0  0  0  0  0
   -4.2982    0.4978   -2.4627 C   0  0  0  0  0  0  0  0  0  0  0  0
   -5.2740   -0.5339   -1.9664 C   0  0  0  0  0  0  0  0  0  0  0  0
   -6.1321   -0.2290   -0.8974 C   0  0  0  0  0  0  0  0  0  0  0  0
   -7.0284   -1.1893   -0.4178 C   0  0  0  0  0  0  0  0  0  0  0  0
   -7.0713   -2.4595   -0.9994 C   0  0  0  0  0  0  0  0  0  0  0  0
   -6.2169   -2.7718   -2.0606 C   0  0  0  0  0  0  0  0  0  0  0  0
   -5.3192   -1.8142   -2.5432 C   0  0  0  0  0  0  0  0  0  0  0  0
    0.1592    3.0619   -0.1756 C   0  0  0  0  0  0  0  0  0  0  0  0
    0.0748    4.2991    0.0506 O   0  0  0  0  0  0  0  0  0  0  0  0
    0.4893    2.6006   -1.4894 N   0  0  0  0  0  0  0  0  0  0  0  0
    0.7268    3.4825   -2.4893 O   0  0  0  0  0  0  0  0  0  0  0  0
   -0.2016    2.6463    1.8899 H   0  0  0  0  0  0  0  0  0  0  0  0
   -1.9511    1.1578    1.6812 H   0  0  0  0  0  0  0  0  0  0  0  0
   -2.1969    2.1333    0.2131 H   0  0  0  0  0  0  0  0  0  0  0  0
   -0.8418   -1.7299    0.6851 H   0  0  0  0  0  0  0  0  0  0  0  0
    0.2692   -1.0678   -0.5773 H   0  0  0  0  0  0  0  0  0  0  0  0
    1.4478   -0.9183    1.4931 H   0  0  0  0  0  0  0  0  0  0  0  0
    0.0393   -0.2167    2.3718 H   0  0  0  0  0  0  0  0  0  0  0  0
    3.5199    0.6331   -0.2847 H   0  0  0  0  0  0  0  0  0  0  0  0
    5.5299   -0.7251   -0.6194 H   0  0  0  0  0  0  0  0  0  0  0  0
    6.9537   -2.7449   -0.3933 H   0  0  0  0  0  0  0  0  0  0  0  0
    7.9561   -1.2307   -0.5289 H   0  0  0  0  0  0  0  0  0  0  0  0
    8.6158   -2.6878    0.3044 H   0  0  0  0  0  0  0  0  0  0  0  0
    6.1977   -0.7879    3.6415 H   0  0  0  0  0  0  0  0  0  0  0  0
    4.1768    0.5780    3.9720 H   0  0  0  0  0  0  0  0  0  0  0  0
   -3.8100    0.1796   -3.4100 H   0  0  0  0  0  0  0  0  0  0  0  0
   -4.8478    1.4388   -2.6761 H   0  0  0  0  0  0  0  0  0  0  0  0
   -6.1042    0.7504   -0.4358 H   0  0  0  0  0  0  0  0  0  0  0  0
   -7.6884   -0.9494    0.4057 H   0  0  0  0  0  0  0  0  0  0  0  0
   -7.7649   -3.2021   -0.6267 H   0  0  0  0  0  0  0  0  0  0  0  0
   -6.2491   -3.7567   -2.5082 H   0  0  0  0  0  0  0  0  0  0  0  0
   -4.6599   -2.0723   -3.3626 H   0  0  0  0  0  0  0  0  0  0  0  0
    0.5685    1.5775   -1.6844 H   0  0  0  0  0  0  0  0  0  0  0  0
   -0.1541    3.6167   -2.9236 H   0  0  0  0  0  0  0  0  0  0  0  0
  1  2  1  0
  2  3  1  0
  3  4  1  0
  4  5  1  0
  5  6  1  0
  6  7  1  0
  7  8  2  0
  7  9  2  0
  7 10  1  0
 10 11  2  0
 11 12  1  0
 12 13  2  0
 13 14  1  0
 14 15  1  0
 13 16  1  0
 16 17  2  0
  3 18  1  0
 18 19  2  0
 18 20  1  0
 20 21  1  0
 21 22  1  0
 22 23  2  0
 23 24  1  0
 24 25  2  0
 25 26  1  0
 26 27  2  0
  1 28  1  0
 28 29  2  0
 28 30  1  0
 30 31  1  0
  6  1  1  0
 17 10  1  0
 27 22  1  0
  1 32  1  1
  2 33  1  0
  2 34  1  0
  4 35  1  0
  4 36  1  0
  5 37  1  0
  5 38  1  0
 11 39  1  0
 12 40  1  0
 15 41  1  0
 15 42  1  0
 15 43  1  0
 16 44  1  0
 17 45  1  0
 21 46  1  0
 21 47  1  0
 23 48  1  0
 24 49  1  0
 25 50  1  0
 26 51  1  0
 27 52  1  0
 30 53  1  0
 31 54  1  0
M  END
$$$$
