
     RDKit          3D

 24 24  0  0  0  0  0  0  0  0999 V2000
    3.4026    0.4228    0.3110 O   0  0  0  0  0  0  0  0  0  0  0  0
    2.4409    0.7562   -0.6559 C   0  0  0  0  0  0  0  0  0  0  0  0
    1.0224    0.6587   -0.0739 C   0  0  1  0  0  0  0  0  0  0  0  0
    0.1314    1.2507   -1.0052 O   0  0  0  0  0  0  0  0  0  0  0  0
   -1.1743    1.3412   -0.4664 C   0  0  1  0  0  0  0  0  0  0  0  0
   -1.9741    2.0465   -1.3788 O   0  0  0  0  0  0  0  0  0  0  0  0
   -1.7567   -0.0688   -0.2568 C   0  0  2  0  0  0  0  0  0  0  0  0
   -3.0417    0.0343    0.3012 O   0  0  0  0  0  0  0  0  0  0  0  0
   -0.8424   -0.8728    0.6819 C   0  0  1  0  0  0  0  0  0  0  0  0
   -1.2801   -2.2072    0.7210 O   0  0  0  0  0  0  0  0  0  0  0  0
    0.6176   -0.8123    0.1918 C   0  0  2  0  0  0  0  0  0  0  0  0
    1.4597   -1.3687    1.1694 O   0  0  0  0  0  0  0  0  0  0  0  0
    3.7412   -0.4830    0.0870 H   0  0  0  0  0  0  0  0  0  0  0  0
    2.5323    0.1182   -1.5669 H   0  0  0  0  0  0  0  0  0  0  0  0
    2.6256    1.8051   -0.9723 H   0  0  0  0  0  0  0  0  0  0  0  0
    1.0163    1.2309    0.8843 H   0  0  0  0  0  0  0  0  0  0  0  0
   -1.1530    1.8974    0.5041 H   0  0  0  0  0  0  0  0  0  0  0  0
   -2.7585    2.3894   -0.8755 H   0  0  0  0  0  0  0  0  0  0  0  0
   -1.8095   -0.5768   -1.2497 H   0  0  0  0  0  0  0  0  0  0  0  0
   -3.5056   -0.8237    0.1162 H   0  0  0  0  0  0  0  0  0  0  0  0
   -0.9040   -0.4196    1.7012 H   0  0  0  0  0  0  0  0  0  0  0  0
   -0.9704   -2.5886    1.5837 H   0  0  0  0  0  0  0  0  0  0  0  0
    0.7043   -1.3809   -0.7657 H   0  0  0  0  0  0  0  0  0  0  0  0
    1.4759   -2.3491    1.0143 H   0  0  0  0  0  0  0  0  0  0  0  0
  1  2  1  0
  2  3  1  0
  3  4  1  0
  4  5  1  0
  5  6  1  0
  5  7  1  0
  7  8  1  0
  7  9  1  0
  9 10  1  0
  9 11  1  0
 11 12  1  0
 11  3  1  0
  1 13  1  0
  2 14  1  0
  2 15  1  0
  3 16  1  1
  5 17  1  1
  6 18  1  0
  7 19  1  6
  8 20  1  0
  9 21  1  1
 10 22  1  0
 11 23  1  6
 12 24  1  0
M  END
$$$$
