
     RDKit          3D

 30 31  0  0  0  0  0  0  0  0999 V2000
    4.8898   -2.7783   -0.0091 O   0  0  0  0  0  0  0  0  0  0  0  0
    4.1379   -1.6102    0.0962 C   0  0  0  0  0  0  0  0  0  0  0  0
    2.7373   -1.6608    0.1027 C   0  0  0  0  0  0  0  0  0  0  0  0
    1.9785   -0.4819    0.1979 C   0  0  0  0  0  0  0  0  0  0  0  0
    0.4984   -0.5905    0.2102 C   0  0  0  0  0  0  0  0  0  0  0  0
   -0.3239    0.4141   -0.1321 C   0  0  0  0  0  0  0  0  0  0  0  0
   -1.8042    0.3063   -0.1202 C   0  0  0  0  0  0  0  0  0  0  0  0
   -2.4764   -0.9279   -0.2254 C   0  0  0  0  0  0  0  0  0  0  0  0
   -3.8732   -0.9749   -0.2211 C   0  0  0  0  0  0  0  0  0  0  0  0
   -4.6204    0.2052   -0.1222 C   0  0  0  0  0  0  0  0  0  0  0  0
   -6.0134    0.1608   -0.1160 O   0  0  0  0  0  0  0  0  0  0  0  0
   -3.9642    1.4382   -0.0332 C   0  0  0  0  0  0  0  0  0  0  0  0
   -4.7101    2.6120    0.0592 O   0  0  0  0  0  0  0  0  0  0  0  0
   -2.5627    1.4863   -0.0382 C   0  0  0  0  0  0  0  0  0  0  0  0
    2.6498    0.7523    0.3163 C   0  0  0  0  0  0  0  0  0  0  0  0
    4.0512    0.8017    0.3114 C   0  0  0  0  0  0  0  0  0  0  0  0
    4.7187    2.0193    0.4252 O   0  0  0  0  0  0  0  0  0  0  0  0
    4.7898   -0.3787    0.1965 C   0  0  0  0  0  0  0  0  0  0  0  0
    4.4487   -3.6876   -0.0833 H   0  0  0  0  0  0  0  0  0  0  0  0
    2.2412   -2.6209    0.0235 H   0  0  0  0  0  0  0  0  0  0  0  0
    0.0842   -1.5472    0.4979 H   0  0  0  0  0  0  0  0  0  0  0  0
    0.0910    1.3701   -0.4210 H   0  0  0  0  0  0  0  0  0  0  0  0
   -1.9357   -1.8571   -0.3372 H   0  0  0  0  0  0  0  0  0  0  0  0
   -4.3751   -1.9307   -0.3027 H   0  0  0  0  0  0  0  0  0  0  0  0
   -6.5160   -0.7168   -0.1803 H   0  0  0  0  0  0  0  0  0  0  0  0
   -4.2646    3.5198    0.1247 H   0  0  0  0  0  0  0  0  0  0  0  0
   -2.0656    2.4466    0.0315 H   0  0  0  0  0  0  0  0  0  0  0  0
    2.1017    1.6759    0.4395 H   0  0  0  0  0  0  0  0  0  0  0  0
    4.2149    2.8943    0.5113 H   0  0  0  0  0  0  0  0  0  0  0  0
    5.8720   -0.3395    0.1923 H   0  0  0  0  0  0  0  0  0  0  0  0
  1  2  1  0
  2  3  2  0
  3  4  1  0
  4  5  1  0
  5  6  2  0
  6  7  1  0
  7  8  2  0
  8  9  1  0
  9 10  2  0
 10 11  1  0
 10 12  1  0
 12 13  1  0
 12 14  2  0
  4 15  2  0
 15 16  1  0
 16 17  1  0
 16 18  2  0
 18  2  1  0
 14  7  1  0
  1 19  1  0
  3 20  1  0
  5 21  1  0
  6 22  1  0
  8 23  1  0
  9 24  1  0
 11 25  1  0
 13 26  1  0
 14 27  1  0
 15 28  1  0
 17 29  1  0
 18 30  1  0
M  END
$$$$
