
     RDKit          3D

 55 58  0  0  0  0  0  0  0  0999 V2000
    3.5636    0.2022   -0.0417 C   0  0  1  0  0  0  0  0  0  0  0  0
    3.7619   -0.7475   -1.2485 C   0  0  0  0  0  0  0  0  0  0  0  0
    2.3540   -1.2059   -1.6763 C   0  0  0  0  0  0  0  0  0  0  0  0
    1.4080   -0.3560   -0.8310 C   0  0  1  0  0  0  0  0  0  0  0  0
   -0.0555   -0.8084   -0.6192 C   0  0  2  0  0  0  0  0  0  0  0  0
   -0.7856   -1.1473   -1.9489 C   0  0  0  0  0  0  0  0  0  0  0  0
   -1.9646   -0.2218   -2.2533 C   0  0  0  0  0  0  0  0  0  0  0  0
   -2.9883   -0.1839   -1.0939 C   0  0  2  0  0  0  0  0  0  0  0  0
   -4.0726    0.8592   -1.4414 C   0  0  0  0  0  0  0  0  0  0  0  0
   -5.0483    0.9917   -0.3132 C   0  0  0  0  0  0  0  0  0  0  0  0
   -6.2497    0.9842   -0.5334 O   0  0  0  0  0  0  0  0  0  0  0  0
   -4.5456    1.1657    1.0865 C   0  0  0  0  0  0  0  0  0  0  0  0
   -3.0097    1.1961    1.1241 C   0  0  0  0  0  0  0  0  0  0  0  0
   -2.3314    0.0143    0.3484 C   0  0  1  0  0  0  0  0  0  0  0  0
   -2.5502   -1.2842    1.1763 C   0  0  0  0  0  0  0  0  0  0  0  0
   -0.7895    0.3148    0.1939 C   0  0  1  0  0  0  0  0  0  0  0  0
   -0.0352    0.6601    1.5174 C   0  0  0  0  0  0  0  0  0  0  0  0
    1.4628    0.9767    1.2822 C   0  0  0  0  0  0  0  0  0  0  0  0
    2.1605   -0.1571    0.4983 C   0  0  2  0  0  0  0  0  0  0  0  0
    2.2359   -1.4460    1.3838 C   0  0  0  0  0  0  0  0  0  0  0  0
    4.6855    0.1504    0.9810 C   0  0  0  0  0  0  0  0  0  0  0  0
    5.1264    1.3923    1.6970 C   0  0  0  0  0  0  0  0  0  0  0  0
    5.2328   -0.9092    1.2491 O   0  0  0  0  0  0  0  0  0  0  0  0
    3.5282    1.2384   -0.4518 H   0  0  0  0  0  0  0  0  0  0  0  0
    4.2687   -0.2097   -2.0795 H   0  0  0  0  0  0  0  0  0  0  0  0
    4.3712   -1.6392   -0.9859 H   0  0  0  0  0  0  0  0  0  0  0  0
    2.2035   -1.0269   -2.7627 H   0  0  0  0  0  0  0  0  0  0  0  0
    2.2072   -2.2867   -1.4605 H   0  0  0  0  0  0  0  0  0  0  0  0
    1.3498    0.6277   -1.3600 H   0  0  0  0  0  0  0  0  0  0  0  0
   -0.0411   -1.7449   -0.0314 H   0  0  0  0  0  0  0  0  0  0  0  0
   -0.0972   -1.1132   -2.8175 H   0  0  0  0  0  0  0  0  0  0  0  0
   -1.1693   -2.1906   -1.8975 H   0  0  0  0  0  0  0  0  0  0  0  0
   -1.5799    0.7983   -2.4736 H   0  0  0  0  0  0  0  0  0  0  0  0
   -2.4678   -0.5825   -3.1776 H   0  0  0  0  0  0  0  0  0  0  0  0
   -3.5075   -1.1700   -1.1216 H   0  0  0  0  0  0  0  0  0  0  0  0
   -3.6076    1.8527   -1.6235 H   0  0  0  0  0  0  0  0  0  0  0  0
   -4.6061    0.5550   -2.3695 H   0  0  0  0  0  0  0  0  0  0  0  0
   -4.9312    0.3414    1.7223 H   0  0  0  0  0  0  0  0  0  0  0  0
   -4.9366    2.1214    1.4972 H   0  0  0  0  0  0  0  0  0  0  0  0
   -2.6729    2.1657    0.6939 H   0  0  0  0  0  0  0  0  0  0  0  0
   -2.7041    1.1916    2.1926 H   0  0  0  0  0  0  0  0  0  0  0  0
   -2.0995   -2.1677    0.6824 H   0  0  0  0  0  0  0  0  0  0  0  0
   -2.1334   -1.1960    2.1999 H   0  0  0  0  0  0  0  0  0  0  0  0
   -3.6321   -1.5082    1.2784 H   0  0  0  0  0  0  0  0  0  0  0  0
   -0.7200    1.2517   -0.4050 H   0  0  0  0  0  0  0  0  0  0  0  0
   -0.1325   -0.1592    2.2553 H   0  0  0  0  0  0  0  0  0  0  0  0
   -0.4797    1.5647    1.9811 H   0  0  0  0  0  0  0  0  0  0  0  0
    1.5409    1.9338    0.7203 H   0  0  0  0  0  0  0  0  0  0  0  0
    1.9668    1.1296    2.2613 H   0  0  0  0  0  0  0  0  0  0  0  0
    2.7883   -1.2325    2.3231 H   0  0  0  0  0  0  0  0  0  0  0  0
    2.7588   -2.2751    0.8646 H   0  0  0  0  0  0  0  0  0  0  0  0
    1.2462   -1.8255    1.6963 H   0  0  0  0  0  0  0  0  0  0  0  0
    6.1928    1.5959    1.4658 H   0  0  0  0  0  0  0  0  0  0  0  0
    4.5195    2.2708    1.3928 H   0  0  0  0  0  0  0  0  0  0  0  0
    5.0117    1.2487    2.7918 H   0  0  0  0  0  0  0  0  0  0  0  0
  1  2  1  0
  2  3  1  0
  3  4  1  0
  4  5  1  0
  5  6  1  0
  6  7  1  0
  7  8  1  0
  8  9  1  0
  9 10  1  0
 10 11  2  0
 10 12  1  0
 12 13  1  0
 13 14  1  0
 14 15  1  1
 14 16  1  0
 16 17  1  0
 17 18  1  0
 18 19  1  0
 19 20  1  1
  1 21  1  0
 21 22  1  0
 21 23  2  0
 19  1  1  0
 19  4  1  0
 16  5  1  0
 14  8  1  0
  1 24  1  6
  2 25  1  0
  2 26  1  0
  3 27  1  0
  3 28  1  0
  4 29  1  6
  5 30  1  1
  6 31  1  0
  6 32  1  0
  7 33  1  0
  7 34  1  0
  8 35  1  1
  9 36  1  0
  9 37  1  0
 12 38  1  0
 12 39  1  0
 13 40  1  0
 13 41  1  0
 15 42  1  0
 15 43  1  0
 15 44  1  0
 16 45  1  6
 17 46  1  0
 17 47  1  0
 18 48  1  0
 18 49  1  0
 20 50  1  0
 20 51  1  0
 20 52  1  0
 22 53  1  0
 22 54  1  0
 22 55  1  0
M  END
$$$$
