
     RDKit          3D

 23 24  0  0  0  0  0  0  0  0999 V2000
    3.6992    2.1235   -0.9448 F   0  0  0  0  0  0  0  0  0  0  0  0
    2.8800    1.1645   -0.4443 C   0  0  0  0  0  0  0  0  0  0  0  0
    1.5456    1.1030   -0.8372 C   0  0  0  0  0  0  0  0  0  0  0  0
    0.7158    0.1348   -0.3423 N   0  0  0  0  0  0  0  0  0  0  0  0
   -0.6973    0.1210   -0.7742 C   0  0  0  0  0  0  0  0  0  0  0  0
   -1.6064    0.7059    0.2938 C   0  0  0  0  0  0  0  0  0  0  0  0
   -2.8794   -0.0534    0.0882 C   0  0  0  0  0  0  0  0  0  0  0  0
   -2.4128   -1.3566   -0.5342 C   0  0  0  0  0  0  0  0  0  0  0  0
   -1.1190   -1.1921   -1.0723 O   0  0  0  0  0  0  0  0  0  0  0  0
    1.2028   -0.7678    0.5744 C   0  0  0  0  0  0  0  0  0  0  0  0
    0.4500   -1.6502    1.0712 O   0  0  0  0  0  0  0  0  0  0  0  0
    2.5072   -0.7161    0.9634 N   0  0  0  0  0  0  0  0  0  0  0  0
    3.3505    0.2281    0.4709 C   0  0  0  0  0  0  0  0  0  0  0  0
    4.5536    0.2579    0.8446 O   0  0  0  0  0  0  0  0  0  0  0  0
    1.1789    1.8387   -1.5434 H   0  0  0  0  0  0  0  0  0  0  0  0
   -0.8236    0.7207   -1.7056 H   0  0  0  0  0  0  0  0  0  0  0  0
   -1.2122    0.5067    1.3147 H   0  0  0  0  0  0  0  0  0  0  0  0
   -1.7517    1.7997    0.1567 H   0  0  0  0  0  0  0  0  0  0  0  0
   -3.4184   -0.2214    1.0460 H   0  0  0  0  0  0  0  0  0  0  0  0
   -3.5370    0.4938   -0.6234 H   0  0  0  0  0  0  0  0  0  0  0  0
   -2.3783   -2.1526    0.2408 H   0  0  0  0  0  0  0  0  0  0  0  0
   -3.1128   -1.6760   -1.3356 H   0  0  0  0  0  0  0  0  0  0  0  0
    2.8653   -1.4123    1.6571 H   0  0  0  0  0  0  0  0  0  0  0  0
  1  2  1  0
  2  3  2  0
  3  4  1  0
  4  5  1  0
  5  6  1  0
  6  7  1  0
  7  8  1  0
  8  9  1  0
  4 10  1  0
 10 11  2  0
 10 12  1  0
 12 13  1  0
 13 14  2  0
 13  2  1  0
  9  5  1  0
  3 15  1  0
  5 16  1  0
  6 17  1  0
  6 18  1  0
  7 19  1  0
  7 20  1  0
  8 21  1  0
  8 22  1  0
 12 23  1  0
M  END
$$$$
