
     RDKit          2D

152152  0  0  0  0  0  0  0  0999 V2000
   -4.4052  -24.8521    0.0000 C   0  0  0  0  0  0  0  0  0  0  0  0
   -4.1448  -23.3749    0.0000 C   0  0  0  0  0  0  0  0  0  0  0  0
   -3.8843  -21.8977    0.0000 C   0  0  0  0  0  0  0  0  0  0  0  0
   -3.6238  -20.4205    0.0000 C   0  0  0  0  0  0  0  0  0  0  0  0
   -3.3634  -18.9433    0.0000 C   0  0  0  0  0  0  0  0  0  0  0  0
   -3.1029  -17.4661    0.0000 C   0  0  0  0  0  0  0  0  0  0  0  0
   -2.8424  -15.9889    0.0000 C   0  0  0  0  0  0  0  0  0  0  0  0
   -2.5819  -14.5116    0.0000 C   0  0  0  0  0  0  0  0  0  0  0  0
   -2.3215  -13.0344    0.0000 C   0  0  0  0  0  0  0  0  0  0  0  0
   -2.0610  -11.5572    0.0000 C   0  0  0  0  0  0  0  0  0  0  0  0
   -1.8005  -10.0800    0.0000 C   0  0  0  0  0  0  0  0  0  0  0  0
   -1.5400   -8.6028    0.0000 C   0  0  0  0  0  0  0  0  0  0  0  0
   -1.2796   -7.1256    0.0000 C   0  0  0  0  0  0  0  0  0  0  0  0
   -1.0191   -5.6484    0.0000 C   0  0  0  0  0  0  0  0  0  0  0  0
    0.3904   -5.1353    0.0000 C   0  0  0  0  0  0  0  0  0  0  0  0
    0.6509   -3.6581    0.0000 C   0  0  0  0  0  0  0  0  0  0  0  0
   -0.8263   -3.3977    0.0000 O   0  0  0  0  0  0  0  0  0  0  0  0
    2.1281   -3.9186    0.0000 C   0  0  0  0  0  0  0  0  0  0  0  0
    2.3886   -2.4414    0.0000 C   0  0  0  0  0  0  0  0  0  0  0  0
    2.6491   -0.9642    0.0000 O   0  0  0  0  0  0  0  0  0  0  0  0
    1.5000    0.0000    0.0000 C   0  0  0  0  0  0  0  0  0  0  0  0
    0.7500   -1.2990    0.0000 O   0  0  0  0  0  0  0  0  0  0  0  0
   -0.7500   -1.2990    0.0000 C   0  0  0  0  0  0  0  0  0  0  0  0
   -2.1595   -1.8121    0.0000 C   0  0  0  0  0  0  0  0  0  0  0  0
   -3.5691   -2.3251    0.0000 O   0  0  0  0  0  0  0  0  0  0  0  0
   -1.5000    0.0000    0.0000 C   0  0  0  0  0  0  0  0  0  0  0  0
   -2.6491    0.9642    0.0000 O   0  0  0  0  0  0  0  0  0  0  0  0
   -0.7500    1.2990    0.0000 C   0  0  0  0  0  0  0  0  0  0  0  0
   -0.4895    2.7762    0.0000 O   0  0  0  0  0  0  0  0  0  0  0  0
    0.9200    3.2893    0.0000 S   0  0  0  0  0  6  0  0  0  0  0  0
    2.3296    3.8023    0.0000 O   0  0  0  0  0  0  0  0  0  0  0  0
    1.4704    2.4734    0.0000 O   0  0  0  0  0  0  0  0  0  0  0  0
    0.4070    4.6988    0.0000 O   0  0  0  0  0  0  0  0  0  0  0  0
    0.7500    1.2990    0.0000 C   0  0  0  0  0  0  0  0  0  0  0  0
    2.1595    1.8121    0.0000 O   0  0  0  0  0  0  0  0  0  0  0  0
    3.6053   -4.1791    0.0000 N   0  0  0  0  0  0  0  0  0  0  0  0
    4.5695   -3.0300    0.0000 C   0  0  0  0  0  0  0  0  0  0  0  0
    4.2666   -2.1977    0.0000 O   0  0  0  0  0  0  0  0  0  0  0  0
    6.0467   -3.2905    0.0000 C   0  0  0  0  0  0  0  0  0  0  0  0
    7.5239   -3.5510    0.0000 C   0  0  0  0  0  0  0  0  0  0  0  0
    9.0012   -3.8114    0.0000 C   0  0  0  0  0  0  0  0  0  0  0  0
   10.4784   -4.0719    0.0000 C   0  0  0  0  0  0  0  0  0  0  0  0
   11.9556   -4.3324    0.0000 C   0  0  0  0  0  0  0  0  0  0  0  0
   13.4328   -4.5928    0.0000 C   0  0  0  0  0  0  0  0  0  0  0  0
   14.9100   -4.8533    0.0000 C   0  0  0  0  0  0  0  0  0  0  0  0
   16.3872   -5.1138    0.0000 C   0  0  0  0  0  0  0  0  0  0  0  0
   17.8644   -5.3743    0.0000 C   0  0  0  0  0  0  0  0  0  0  0  0
   19.3416   -5.6347    0.0000 C   0  0  0  0  0  0  0  0  0  0  0  0
   20.8188   -5.8952    0.0000 C   0  0  0  0  0  0  0  0  0  0  0  0
   22.2961   -6.1557    0.0000 C   0  0  0  0  0  0  0  0  0  0  0  0
   23.7733   -6.4161    0.0000 C   0  0  0  0  0  0  0  0  0  0  0  0
   25.2505   -6.6766    0.0000 C   0  0  0  0  0  0  0  0  0  0  0  0
   25.7635   -8.0862    0.0000 C   0  0  0  0  0  0  0  0  0  0  0  0
   24.7993   -9.2352    0.0000 C   0  0  0  0  0  0  0  0  0  0  0  0
   23.8351  -10.3843    0.0000 C   0  0  0  0  0  0  0  0  0  0  0  0
   22.8710  -11.5334    0.0000 C   0  0  0  0  0  0  0  0  0  0  0  0
   21.9068  -12.6824    0.0000 C   0  0  0  0  0  0  0  0  0  0  0  0
   20.9426  -13.8315    0.0000 C   0  0  0  0  0  0  0  0  0  0  0  0
   19.9784  -14.9806    0.0000 C   0  0  0  0  0  0  0  0  0  0  0  0
   19.0142  -16.1296    0.0000 C   0  0  0  0  0  0  0  0  0  0  0  0
   18.0501  -17.2787    0.0000 C   0  0  0  0  0  0  0  0  0  0  0  0
   -5.8825  -24.5917    0.0000 H   0  0  0  0  0  0  0  0  0  0  0  0
   -2.9280  -25.1126    0.0000 H   0  0  0  0  0  0  0  0  0  0  0  0
   -4.6657  -26.3293    0.0000 H   0  0  0  0  0  0  0  0  0  0  0  0
   -2.6676  -23.6354    0.0000 H   0  0  0  0  0  0  0  0  0  0  0  0
   -5.6220  -23.1144    0.0000 H   0  0  0  0  0  0  0  0  0  0  0  0
   -5.3615  -21.6372    0.0000 H   0  0  0  0  0  0  0  0  0  0  0  0
   -2.4071  -22.1582    0.0000 H   0  0  0  0  0  0  0  0  0  0  0  0
   -2.1466  -20.6810    0.0000 H   0  0  0  0  0  0  0  0  0  0  0  0
   -5.1010  -20.1600    0.0000 H   0  0  0  0  0  0  0  0  0  0  0  0
   -4.8406  -18.6828    0.0000 H   0  0  0  0  0  0  0  0  0  0  0  0
   -1.8861  -19.2038    0.0000 H   0  0  0  0  0  0  0  0  0  0  0  0
   -1.6257  -17.7265    0.0000 H   0  0  0  0  0  0  0  0  0  0  0  0
   -4.5801  -17.2056    0.0000 H   0  0  0  0  0  0  0  0  0  0  0  0
   -4.3196  -15.7284    0.0000 H   0  0  0  0  0  0  0  0  0  0  0  0
   -1.3652  -16.2493    0.0000 H   0  0  0  0  0  0  0  0  0  0  0  0
   -1.1047  -14.7721    0.0000 H   0  0  0  0  0  0  0  0  0  0  0  0
   -4.0591  -14.2512    0.0000 H   0  0  0  0  0  0  0  0  0  0  0  0
   -3.7987  -12.7740    0.0000 H   0  0  0  0  0  0  0  0  0  0  0  0
   -0.8443  -13.2949    0.0000 H   0  0  0  0  0  0  0  0  0  0  0  0
   -0.5838  -11.8177    0.0000 H   0  0  0  0  0  0  0  0  0  0  0  0
   -3.5382  -11.2967    0.0000 H   0  0  0  0  0  0  0  0  0  0  0  0
   -3.2777   -9.8195    0.0000 H   0  0  0  0  0  0  0  0  0  0  0  0
   -0.3233  -10.3405    0.0000 H   0  0  0  0  0  0  0  0  0  0  0  0
   -0.0628   -8.8633    0.0000 H   0  0  0  0  0  0  0  0  0  0  0  0
   -3.0173   -8.3423    0.0000 H   0  0  0  0  0  0  0  0  0  0  0  0
   -2.7568   -6.8651    0.0000 H   0  0  0  0  0  0  0  0  0  0  0  0
    0.1976   -7.3861    0.0000 H   0  0  0  0  0  0  0  0  0  0  0  0
   -1.9362   -5.0528    0.0000 H   0  0  0  0  0  0  0  0  0  0  0  0
    1.4134   -6.2324    0.0000 H   0  0  0  0  0  0  0  0  0  0  0  0
    0.4422   -2.5847    0.0000 H   0  0  0  0  0  0  0  0  0  0  0  0
   -1.6261   -4.1434    0.0000 H   0  0  0  0  0  0  0  0  0  0  0  0
    2.0497   -5.4166    0.0000 H   0  0  0  0  0  0  0  0  0  0  0  0
    3.2722   -2.3796    0.0000 H   0  0  0  0  0  0  0  0  0  0  0  0
    1.2966   -2.3842    0.0000 H   0  0  0  0  0  0  0  0  0  0  0  0
    2.7580    0.8169    0.0000 H   0  0  0  0  0  0  0  0  0  0  0  0
   -0.8547   -2.7954    0.0000 H   0  0  0  0  0  0  0  0  0  0  0  0
   -2.8406   -0.4756    0.0000 H   0  0  0  0  0  0  0  0  0  0  0  0
   -2.0028   -3.3039    0.0000 H   0  0  0  0  0  0  0  0  0  0  0  0
   -3.8296   -3.8023    0.0000 H   0  0  0  0  0  0  0  0  0  0  0  0
   -2.7580   -0.8169    0.0000 H   0  0  0  0  0  0  0  0  0  0  0  0
   -2.5706    2.4621    0.0000 H   0  0  0  0  0  0  0  0  0  0  0  0
   -2.0865    1.9801    0.0000 H   0  0  0  0  0  0  0  0  0  0  0  0
    2.5900    5.2795    0.0000 H   0  0  0  0  0  0  0  0  0  0  0  0
    0.8547    2.7954    0.0000 H   0  0  0  0  0  0  0  0  0  0  0  0
    3.4176    0.9951    0.0000 H   0  0  0  0  0  0  0  0  0  0  0  0
    4.1184   -5.5886    0.0000 H   0  0  0  0  0  0  0  0  0  0  0  0
    6.3072   -1.8133    0.0000 H   0  0  0  0  0  0  0  0  0  0  0  0
    5.7863   -4.7677    0.0000 H   0  0  0  0  0  0  0  0  0  0  0  0
    7.2635   -5.0282    0.0000 H   0  0  0  0  0  0  0  0  0  0  0  0
    7.7844   -2.0737    0.0000 H   0  0  0  0  0  0  0  0  0  0  0  0
    9.2616   -2.3342    0.0000 H   0  0  0  0  0  0  0  0  0  0  0  0
    8.7407   -5.2886    0.0000 H   0  0  0  0  0  0  0  0  0  0  0  0
   10.2179   -5.5491    0.0000 H   0  0  0  0  0  0  0  0  0  0  0  0
   10.7388   -2.5947    0.0000 H   0  0  0  0  0  0  0  0  0  0  0  0
   12.2160   -2.8552    0.0000 H   0  0  0  0  0  0  0  0  0  0  0  0
   11.6951   -5.8096    0.0000 H   0  0  0  0  0  0  0  0  0  0  0  0
   13.1723   -6.0701    0.0000 H   0  0  0  0  0  0  0  0  0  0  0  0
   13.6933   -3.1156    0.0000 H   0  0  0  0  0  0  0  0  0  0  0  0
   15.1705   -3.3761    0.0000 H   0  0  0  0  0  0  0  0  0  0  0  0
   14.6495   -6.3305    0.0000 H   0  0  0  0  0  0  0  0  0  0  0  0
   16.6477   -3.6366    0.0000 H   0  0  0  0  0  0  0  0  0  0  0  0
   16.1267   -6.5910    0.0000 H   0  0  0  0  0  0  0  0  0  0  0  0
   17.6039   -6.8515    0.0000 H   0  0  0  0  0  0  0  0  0  0  0  0
   18.1249   -3.8970    0.0000 H   0  0  0  0  0  0  0  0  0  0  0  0
   19.6021   -4.1575    0.0000 H   0  0  0  0  0  0  0  0  0  0  0  0
   19.0812   -7.1119    0.0000 H   0  0  0  0  0  0  0  0  0  0  0  0
   20.5584   -7.3724    0.0000 H   0  0  0  0  0  0  0  0  0  0  0  0
   21.0793   -4.4180    0.0000 H   0  0  0  0  0  0  0  0  0  0  0  0
   22.5565   -4.6785    0.0000 H   0  0  0  0  0  0  0  0  0  0  0  0
   22.0356   -7.6329    0.0000 H   0  0  0  0  0  0  0  0  0  0  0  0
   23.3347   -7.8506    0.0000 H   0  0  0  0  0  0  0  0  0  0  0  0
   24.0337   -4.9389    0.0000 H   0  0  0  0  0  0  0  0  0  0  0  0
   26.2147   -5.5276    0.0000 H   0  0  0  0  0  0  0  0  0  0  0  0
   27.2407   -8.3466    0.0000 H   0  0  0  0  0  0  0  0  0  0  0  0
   25.9484  -10.1994    0.0000 H   0  0  0  0  0  0  0  0  0  0  0  0
   23.5413   -8.4183    0.0000 H   0  0  0  0  0  0  0  0  0  0  0  0
   24.9842  -11.3485    0.0000 H   0  0  0  0  0  0  0  0  0  0  0  0
   22.6861   -9.4201    0.0000 H   0  0  0  0  0  0  0  0  0  0  0  0
   21.7219  -10.5692    0.0000 H   0  0  0  0  0  0  0  0  0  0  0  0
   24.0200  -12.4975    0.0000 H   0  0  0  0  0  0  0  0  0  0  0  0
   23.0558  -13.6466    0.0000 H   0  0  0  0  0  0  0  0  0  0  0  0
   20.7577  -11.7182    0.0000 H   0  0  0  0  0  0  0  0  0  0  0  0
   19.7935  -12.8673    0.0000 H   0  0  0  0  0  0  0  0  0  0  0  0
   22.0917  -14.7957    0.0000 H   0  0  0  0  0  0  0  0  0  0  0  0
   21.1275  -15.9447    0.0000 H   0  0  0  0  0  0  0  0  0  0  0  0
   18.8294  -14.0164    0.0000 H   0  0  0  0  0  0  0  0  0  0  0  0
   17.8652  -15.1654    0.0000 H   0  0  0  0  0  0  0  0  0  0  0  0
   20.1633  -17.0938    0.0000 H   0  0  0  0  0  0  0  0  0  0  0  0
   19.1991  -18.2429    0.0000 H   0  0  0  0  0  0  0  0  0  0  0  0
   16.9010  -16.3145    0.0000 H   0  0  0  0  0  0  0  0  0  0  0  0
   17.0859  -18.4278    0.0000 H   0  0  0  0  0  0  0  0  0  0  0  0
  1  2  1  0
  2  3  1  0
  3  4  1  0
  4  5  1  0
  5  6  1  0
  6  7  1  0
  7  8  1  0
  8  9  1  0
  9 10  1  0
 10 11  1  0
 11 12  1  0
 12 13  1  0
 13 14  1  0
 14 15  2  0
 15 16  1  0
 16 17  1  0
 16 18  1  0
 18 19  1  0
 19 20  1  0
 20 21  1  0
 21 22  1  0
 22 23  1  0
 23 24  1  0
 24 25  1  0
 23 26  1  0
 26 27  1  0
 26 28  1  0
 28 29  1  0
 29 30  1  0
 30 31  1  0
 30 32  2  0
 30 33  2  0
 28 34  1  0
 34 35  1  0
 18 36  1  0
 36 37  1  0
 37 38  2  0
 37 39  1  0
 39 40  1  0
 40 41  1  0
 41 42  1  0
 42 43  1  0
 43 44  1  0
 44 45  1  0
 45 46  1  0
 46 47  1  0
 47 48  1  0
 48 49  1  0
 49 50  1  0
 50 51  1  0
 51 52  1  0
 52 53  2  0
 53 54  1  0
 54 55  1  0
 55 56  1  0
 56 57  1  0
 57 58  1  0
 58 59  1  0
 59 60  1  0
 60 61  1  0
 34 21  1  0
  1 62  1  0
  1 63  1  0
  1 64  1  0
  2 65  1  0
  2 66  1  0
  3 67  1  0
  3 68  1  0
  4 69  1  0
  4 70  1  0
  5 71  1  0
  5 72  1  0
  6 73  1  0
  6 74  1  0
  7 75  1  0
  7 76  1  0
  8 77  1  0
  8 78  1  0
  9 79  1  0
  9 80  1  0
 10 81  1  0
 10 82  1  0
 11 83  1  0
 11 84  1  0
 12 85  1  0
 12 86  1  0
 13 87  1  0
 13 88  1  0
 14 89  1  0
 15 90  1  0
 16 91  1  6
 17 92  1  0
 18 93  1  1
 19 94  1  0
 19 95  1  0
 21 96  1  1
 23 97  1  1
 24 98  1  0
 24 99  1  0
 25100  1  0
 26101  1  1
 27102  1  0
 28103  1  1
 31104  1  0
 34105  1  6
 35106  1  0
 36107  1  0
 39108  1  0
 39109  1  0
 40110  1  0
 40111  1  0
 41112  1  0
 41113  1  0
 42114  1  0
 42115  1  0
 43116  1  0
 43117  1  0
 44118  1  0
 44119  1  0
 45120  1  0
 45121  1  0
 46122  1  0
 46123  1  0
 47124  1  0
 47125  1  0
 48126  1  0
 48127  1  0
 49128  1  0
 49129  1  0
 50130  1  0
 50131  1  0
 51132  1  0
 51133  1  0
 52134  1  0
 53135  1  0
 54136  1  0
 54137  1  0
 55138  1  0
 55139  1  0
 56140  1  0
 56141  1  0
 57142  1  0
 57143  1  0
 58144  1  0
 58145  1  0
 59146  1  0
 59147  1  0
 60148  1  0
 60149  1  0
 61150  1  0
 61151  1  0
 61152  1  0
M  END
$$$$
