
     RDKit          3D

 52 54  0  0  0  0  0  0  0  0999 V2000
   -8.1715    2.1586    1.7802 N   0  0  0  0  0  0  0  0  0  0  0  0
   -7.0987    1.5858    1.0332 C   0  0  0  0  0  0  0  0  0  0  0  0
   -5.8029    1.8644    1.3848 N   0  0  0  0  0  0  0  0  0  0  0  0
   -4.7485    1.3368    0.6986 C   0  0  0  0  0  0  0  0  0  0  0  0
   -3.5677    1.6039    1.0434 O   0  0  0  0  0  0  0  0  0  0  0  0
   -5.0229    0.5029   -0.3817 C   0  0  0  0  0  0  0  0  0  0  0  0
   -6.3176    0.2344   -0.7144 C   0  0  0  0  0  0  0  0  0  0  0  0
   -6.3969   -0.6058   -1.7596 N   0  0  0  0  0  0  0  0  0  0  0  0
   -5.1173   -0.8822   -2.1028 C   0  0  0  0  0  0  0  0  0  0  0  0
   -4.2303   -0.1988   -1.2727 C   0  0  0  0  0  0  0  0  0  0  0  0
   -2.7347   -0.3044   -1.2931 C   0  0  0  0  0  0  0  0  0  0  0  0
   -2.2549   -1.3478   -0.2809 C   0  0  0  0  0  0  0  0  0  0  0  0
   -0.7523   -1.4281   -0.2778 C   0  0  0  0  0  0  0  0  0  0  0  0
   -0.0010   -0.5829    0.5519 C   0  0  0  0  0  0  0  0  0  0  0  0
    1.3957   -0.6313    0.5318 C   0  0  0  0  0  0  0  0  0  0  0  0
    2.0665   -1.5249   -0.3230 C   0  0  0  0  0  0  0  0  0  0  0  0
    1.3090   -2.3509   -1.1723 C   0  0  0  0  0  0  0  0  0  0  0  0
   -0.0877   -2.3021   -1.1502 C   0  0  0  0  0  0  0  0  0  0  0  0
    3.5473   -1.5774   -0.3623 C   0  0  0  0  0  0  0  0  0  0  0  0
    4.1241   -2.0070   -1.3989 O   0  0  0  0  0  0  0  0  0  0  0  0
    4.3332   -1.1600    0.7666 N   0  0  0  0  0  0  0  0  0  0  0  0
    5.7740   -0.8966    0.6566 C   0  0  1  0  0  0  0  0  0  0  0  0
    6.0431    0.3876   -0.1557 C   0  0  0  0  0  0  0  0  0  0  0  0
    5.3472    1.6322    0.4167 C   0  0  0  0  0  0  0  0  0  0  0  0
    5.5882    2.8151   -0.4664 C   0  0  0  0  0  0  0  0  0  0  0  0
    4.7223    3.0782   -1.5232 O   0  0  0  0  0  0  0  0  0  0  0  0
    6.5955    3.5488   -0.2792 O   0  0  0  0  0  0  0  0  0  0  0  0
    6.4223   -0.8298    2.0161 C   0  0  0  0  0  0  0  0  0  0  0  0
    5.7833   -0.1922    3.0764 O   0  0  0  0  0  0  0  0  0  0  0  0
    7.5717   -1.3184    2.1850 O   0  0  0  0  0  0  0  0  0  0  0  0
   -7.3621    0.7595   -0.0267 N   0  0  0  0  0  0  0  0  0  0  0  0
   -7.9730    2.7877    2.5895 H   0  0  0  0  0  0  0  0  0  0  0  0
   -9.1643    1.9567    1.5277 H   0  0  0  0  0  0  0  0  0  0  0  0
   -7.2628   -0.9815   -2.2059 H   0  0  0  0  0  0  0  0  0  0  0  0
   -4.8396   -1.5534   -2.9050 H   0  0  0  0  0  0  0  0  0  0  0  0
   -2.2904    0.6874   -1.0616 H   0  0  0  0  0  0  0  0  0  0  0  0
   -2.4021   -0.5943   -2.3138 H   0  0  0  0  0  0  0  0  0  0  0  0
   -2.6861   -2.3414   -0.5355 H   0  0  0  0  0  0  0  0  0  0  0  0
   -2.6175   -1.0824    0.7367 H   0  0  0  0  0  0  0  0  0  0  0  0
   -0.4977    0.1204    1.2091 H   0  0  0  0  0  0  0  0  0  0  0  0
    1.9448    0.0515    1.1665 H   0  0  0  0  0  0  0  0  0  0  0  0
    1.7970   -3.0406   -1.8499 H   0  0  0  0  0  0  0  0  0  0  0  0
   -0.6513   -2.9449   -1.8152 H   0  0  0  0  0  0  0  0  0  0  0  0
    3.8623   -1.0656    1.6942 H   0  0  0  0  0  0  0  0  0  0  0  0
    6.2432   -1.7469    0.1127 H   0  0  0  0  0  0  0  0  0  0  0  0
    5.6951    0.2271   -1.1998 H   0  0  0  0  0  0  0  0  0  0  0  0
    7.1405    0.5666   -0.2007 H   0  0  0  0  0  0  0  0  0  0  0  0
    4.2520    1.4610    0.4903 H   0  0  0  0  0  0  0  0  0  0  0  0
    5.7339    1.8554    1.4335 H   0  0  0  0  0  0  0  0  0  0  0  0
    4.8804    3.8656   -2.1405 H   0  0  0  0  0  0  0  0  0  0  0  0
    6.2233   -0.1294    3.9866 H   0  0  0  0  0  0  0  0  0  0  0  0
   -8.3443    0.5334   -0.3019 H   0  0  0  0  0  0  0  0  0  0  0  0
  1  2  1  0
  2  3  2  0
  3  4  1  0
  4  5  2  0
  4  6  1  0
  6  7  2  0
  7  8  1  0
  8  9  1  0
  9 10  2  0
 10 11  1  0
 11 12  1  0
 12 13  1  0
 13 14  2  0
 14 15  1  0
 15 16  2  0
 16 17  1  0
 17 18  2  0
 16 19  1  0
 19 20  2  0
 19 21  1  0
 21 22  1  0
 22 23  1  0
 23 24  1  0
 24 25  1  0
 25 26  1  0
 25 27  2  0
 22 28  1  0
 28 29  1  0
 28 30  2  0
  7 31  1  0
 31  2  1  0
 10  6  1  0
 18 13  1  0
  1 32  1  0
  1 33  1  0
  8 34  1  0
  9 35  1  0
 11 36  1  0
 11 37  1  0
 12 38  1  0
 12 39  1  0
 14 40  1  0
 15 41  1  0
 17 42  1  0
 18 43  1  0
 21 44  1  0
 22 45  1  6
 23 46  1  0
 23 47  1  0
 24 48  1  0
 24 49  1  0
 26 50  1  0
 29 51  1  0
 31 52  1  0
M  END
$$$$
