
     RDKit          3D

 75 81  0  0  0  0  0  0  0  0999 V2000
    2.8851    3.6717   -0.3662 C   0  0  0  0  0  0  0  0  0  0  0  0
    2.7688    2.3275   -0.7845 O   0  0  0  0  0  0  0  0  0  0  0  0
    1.6312    1.6281   -0.2759 C   0  0  2  0  0  0  0  0  0  0  0  0
    1.1758    2.0423    1.1754 C   0  0  0  0  0  0  0  0  0  0  0  0
   -0.0056    1.1798    1.6746 C   0  0  0  0  0  0  0  0  0  0  0  0
   -0.4739    0.1945    0.5577 C   0  0  1  0  0  0  0  0  0  0  0  0
    0.7468   -0.7388    0.3215 C   0  0  0  0  0  0  0  0  0  0  0  0
    1.9351    0.0571   -0.3244 C   0  0  2  0  0  0  0  0  0  0  0  0
    3.4010   -0.4304    0.0829 C   0  0  2  0  0  0  0  0  0  0  0  0
    3.6870   -0.0578    1.5695 C   0  0  0  0  0  0  0  0  0  0  0  0
    4.2893    0.2978   -0.7443 O   0  0  0  0  0  0  0  0  0  0  0  0
    3.6890   -1.9932   -0.2036 C   0  0  0  0  0  0  0  0  0  0  0  0
    3.2254   -2.3992   -1.6266 C   0  0  0  0  0  0  0  0  0  0  0  0
    5.2180   -2.2926   -0.1554 C   0  0  0  0  0  0  0  0  0  0  0  0
    3.0182   -2.9594    0.8112 C   0  0  0  0  0  0  0  0  0  0  0  0
   -1.7863   -0.5627    0.9424 C   0  0  1  0  0  0  0  0  0  0  0  0
   -3.0033    0.4285    1.1613 C   0  0  0  0  0  0  0  0  0  0  0  0
   -2.9089    1.7404    0.3985 C   0  0  0  0  0  0  0  0  0  0  0  0
   -1.8395    1.9546   -0.4684 C   0  0  0  0  0  0  0  0  0  0  0  0
   -1.4023    3.2104   -0.7613 C   0  0  0  0  0  0  0  0  0  0  0  0
   -0.1014    3.1892   -1.2298 O   0  0  0  0  0  0  0  0  0  0  0  0
    0.4096    1.8480   -1.2381 C   0  0  2  0  0  0  0  0  0  0  0  0
   -0.7900    0.9559   -0.7683 C   0  0  1  0  0  0  0  0  0  0  0  0
   -1.2813    0.0037   -1.9008 C   0  0  0  0  0  0  0  0  0  0  0  0
   -2.3987   -0.9530   -1.4399 C   0  0  0  0  0  0  0  0  0  0  0  0
   -2.0533   -1.5438   -0.1354 N   0  0  0  0  0  0  0  0  0  0  0  0
   -2.7366   -2.8017    0.2255 C   0  0  0  0  0  0  0  0  0  0  0  0
   -4.1903   -2.6034    0.6824 C   0  0  0  0  0  0  0  0  0  0  0  0
   -5.1068   -3.7868    0.4013 C   0  0  0  0  0  0  0  0  0  0  0  0
   -5.2388   -2.5121   -0.4155 C   0  0  0  0  0  0  0  0  0  0  0  0
   -2.1708    4.3318   -0.4531 C   0  0  0  0  0  0  0  0  0  0  0  0
   -1.7358    5.6059   -0.8077 O   0  0  0  0  0  0  0  0  0  0  0  0
   -3.3734    4.1351    0.2585 C   0  0  0  0  0  0  0  0  0  0  0  0
   -3.7212    2.8458    0.7193 C   0  0  0  0  0  0  0  0  0  0  0  0
    1.9597    4.2551   -0.5396 H   0  0  0  0  0  0  0  0  0  0  0  0
    3.1995    3.7278    0.6973 H   0  0  0  0  0  0  0  0  0  0  0  0
    3.6855    4.1527   -0.9644 H   0  0  0  0  0  0  0  0  0  0  0  0
    2.0016    1.9926    1.9053 H   0  0  0  0  0  0  0  0  0  0  0  0
    0.8396    3.1013    1.1848 H   0  0  0  0  0  0  0  0  0  0  0  0
    0.3055    0.6097    2.5780 H   0  0  0  0  0  0  0  0  0  0  0  0
   -0.8218    1.8472    2.0196 H   0  0  0  0  0  0  0  0  0  0  0  0
    0.4662   -1.5862   -0.3352 H   0  0  0  0  0  0  0  0  0  0  0  0
    1.0318   -1.1777    1.2967 H   0  0  0  0  0  0  0  0  0  0  0  0
    1.8851   -0.1801   -1.4083 H   0  0  0  0  0  0  0  0  0  0  0  0
    4.5734   -0.5808    1.9720 H   0  0  0  0  0  0  0  0  0  0  0  0
    3.9251    1.0218    1.6533 H   0  0  0  0  0  0  0  0  0  0  0  0
    2.8359   -0.2912    2.2380 H   0  0  0  0  0  0  0  0  0  0  0  0
    5.1707    0.3927   -0.2962 H   0  0  0  0  0  0  0  0  0  0  0  0
    3.5674   -3.4270   -1.8777 H   0  0  0  0  0  0  0  0  0  0  0  0
    3.6395   -1.7055   -2.3893 H   0  0  0  0  0  0  0  0  0  0  0  0
    2.1213   -2.4093   -1.7174 H   0  0  0  0  0  0  0  0  0  0  0  0
    5.4194   -3.3680   -0.3544 H   0  0  0  0  0  0  0  0  0  0  0  0
    5.6624   -2.0673    0.8331 H   0  0  0  0  0  0  0  0  0  0  0  0
    5.7717   -1.7271   -0.9342 H   0  0  0  0  0  0  0  0  0  0  0  0
    3.4387   -3.9838    0.7143 H   0  0  0  0  0  0  0  0  0  0  0  0
    1.9358   -3.0841    0.6270 H   0  0  0  0  0  0  0  0  0  0  0  0
    3.1816   -2.6418    1.8603 H   0  0  0  0  0  0  0  0  0  0  0  0
   -1.6033   -1.1087    1.8951 H   0  0  0  0  0  0  0  0  0  0  0  0
   -3.0508    0.6702    2.2452 H   0  0  0  0  0  0  0  0  0  0  0  0
   -3.9707   -0.0359    0.9020 H   0  0  0  0  0  0  0  0  0  0  0  0
    0.7109    1.6067   -2.2821 H   0  0  0  0  0  0  0  0  0  0  0  0
   -0.4288   -0.6044   -2.2718 H   0  0  0  0  0  0  0  0  0  0  0  0
   -1.6485    0.5974   -2.7670 H   0  0  0  0  0  0  0  0  0  0  0  0
   -2.5056   -1.7513   -2.2061 H   0  0  0  0  0  0  0  0  0  0  0  0
   -3.3686   -0.4154   -1.3867 H   0  0  0  0  0  0  0  0  0  0  0  0
   -2.1807   -3.2887    1.0547 H   0  0  0  0  0  0  0  0  0  0  0  0
   -2.6731   -3.5071   -0.6327 H   0  0  0  0  0  0  0  0  0  0  0  0
   -4.4106   -2.1214    1.6582 H   0  0  0  0  0  0  0  0  0  0  0  0
   -5.9267   -3.9271    1.1371 H   0  0  0  0  0  0  0  0  0  0  0  0
   -4.6716   -4.6368   -0.1667 H   0  0  0  0  0  0  0  0  0  0  0  0
   -6.1205   -1.8913   -0.1515 H   0  0  0  0  0  0  0  0  0  0  0  0
   -4.8668   -2.6073   -1.4577 H   0  0  0  0  0  0  0  0  0  0  0  0
   -2.2777    6.4305   -0.5776 H   0  0  0  0  0  0  0  0  0  0  0  0
   -3.9913    4.9827    0.5255 H   0  0  0  0  0  0  0  0  0  0  0  0
   -4.5735    2.7235    1.3755 H   0  0  0  0  0  0  0  0  0  0  0  0
  1  2  1  0
  3  2  1  6
  3  4  1  0
  4  5  1  0
  6  5  1  1
  6  7  1  0
  7  8  1  0
  8  9  1  0
  9 10  1  0
  9 11  1  6
  9 12  1  0
 12 13  1  0
 12 14  1  0
 12 15  1  0
  6 16  1  0
 16 17  1  0
 17 18  1  0
 18 19  1  0
 19 20  2  0
 20 21  1  0
 21 22  1  0
 22 23  1  0
 23 24  1  6
 24 25  1  0
 25 26  1  0
 26 27  1  0
 27 28  1  0
 28 29  1  0
 29 30  1  0
 20 31  1  0
 31 32  1  0
 31 33  2  0
 33 34  1  0
  8  3  1  0
 26 16  1  0
 30 28  1  0
 22  3  1  0
 23  6  1  0
 34 18  2  0
 23 19  1  0
  1 35  1  0
  1 36  1  0
  1 37  1  0
  4 38  1  0
  4 39  1  0
  5 40  1  0
  5 41  1  0
  7 42  1  0
  7 43  1  0
  8 44  1  6
 10 45  1  0
 10 46  1  0
 10 47  1  0
 11 48  1  0
 13 49  1  0
 13 50  1  0
 13 51  1  0
 14 52  1  0
 14 53  1  0
 14 54  1  0
 15 55  1  0
 15 56  1  0
 15 57  1  0
 16 58  1  1
 17 59  1  0
 17 60  1  0
 22 61  1  6
 24 62  1  0
 24 63  1  0
 25 64  1  0
 25 65  1  0
 27 66  1  0
 27 67  1  0
 28 68  1  0
 29 69  1  0
 29 70  1  0
 30 71  1  0
 30 72  1  0
 32 73  1  0
 33 74  1  0
 34 75  1  0
M  END
$$$$
