
     RDKit          3D

 44 48  0  0  0  0  0  0  0  0999 V2000
    0.4376    0.9719    1.8726 C   0  0  2  0  0  0  0  0  0  0  0  0
    1.8023    0.6112    1.6147 O   0  0  0  0  0  0  0  0  0  0  0  0
    1.8918   -0.0683    0.4165 C   0  0  0  0  0  0  0  0  0  0  0  0
    3.0449   -0.3640   -0.3106 C   0  0  0  0  0  0  0  0  0  0  0  0
    4.3001   -0.1017    0.2550 O   0  0  0  0  0  0  0  0  0  0  0  0
    5.5382   -0.3518   -0.4011 C   0  0  0  0  0  0  0  0  0  0  0  0
    2.8771   -0.8956   -1.6142 C   0  0  0  0  0  0  0  0  0  0  0  0
    1.5834   -1.0514   -2.1600 C   0  0  0  0  0  0  0  0  0  0  0  0
    0.4490   -0.7456   -1.3854 C   0  0  0  0  0  0  0  0  0  0  0  0
    0.6533   -0.3416   -0.0697 C   0  0  0  0  0  0  0  0  0  0  0  0
   -0.4029    0.0764    0.8969 C   0  0  1  0  0  0  0  0  0  0  0  0
   -0.9580   -1.1802    1.6128 C   0  0  0  0  0  0  0  0  0  0  0  0
   -1.6262   -2.1638    0.6283 C   0  0  0  0  0  0  0  0  0  0  0  0
   -2.5572   -1.5121   -0.3246 N   0  0  0  0  0  0  0  0  0  0  0  0
   -3.9241   -1.4075    0.2159 C   0  0  0  0  0  0  0  0  0  0  0  0
   -2.0422   -0.2607   -0.9500 C   0  0  2  0  0  0  0  0  0  0  0  0
   -0.9339   -0.6361   -1.9883 C   0  0  0  0  0  0  0  0  0  0  0  0
   -1.5552    0.7719    0.1298 C   0  0  1  0  0  0  0  0  0  0  0  0
   -2.6450    1.0759    0.9749 O   0  0  0  0  0  0  0  0  0  0  0  0
   -1.0556    2.0916   -0.5032 C   0  0  0  0  0  0  0  0  0  0  0  0
   -0.5628    3.0837    0.5584 C   0  0  0  0  0  0  0  0  0  0  0  0
    0.2876    2.4658    1.6481 C   0  0  0  0  0  0  0  0  0  0  0  0
    0.8770    3.2197    2.4074 O   0  0  0  0  0  0  0  0  0  0  0  0
    0.1890    0.7495    2.9335 H   0  0  0  0  0  0  0  0  0  0  0  0
    6.3706   -0.0576    0.2705 H   0  0  0  0  0  0  0  0  0  0  0  0
    5.6039    0.2479   -1.3335 H   0  0  0  0  0  0  0  0  0  0  0  0
    5.6344   -1.4331   -0.6352 H   0  0  0  0  0  0  0  0  0  0  0  0
    3.7328   -1.1347   -2.2306 H   0  0  0  0  0  0  0  0  0  0  0  0
    1.4701   -1.3691   -3.1887 H   0  0  0  0  0  0  0  0  0  0  0  0
   -1.6962   -0.8812    2.3875 H   0  0  0  0  0  0  0  0  0  0  0  0
   -0.1363   -1.7124    2.1418 H   0  0  0  0  0  0  0  0  0  0  0  0
   -0.8407   -2.6971    0.0525 H   0  0  0  0  0  0  0  0  0  0  0  0
   -2.1495   -2.9557    1.2093 H   0  0  0  0  0  0  0  0  0  0  0  0
   -3.9287   -0.9926    1.2455 H   0  0  0  0  0  0  0  0  0  0  0  0
   -4.5713   -0.7844   -0.4371 H   0  0  0  0  0  0  0  0  0  0  0  0
   -4.3787   -2.4198    0.2543 H   0  0  0  0  0  0  0  0  0  0  0  0
   -2.8615    0.2149   -1.5353 H   0  0  0  0  0  0  0  0  0  0  0  0
   -1.1938   -1.5921   -2.4922 H   0  0  0  0  0  0  0  0  0  0  0  0
   -0.9029    0.1477   -2.7760 H   0  0  0  0  0  0  0  0  0  0  0  0
   -2.3025    1.4504    1.8270 H   0  0  0  0  0  0  0  0  0  0  0  0
   -0.2272    1.9123   -1.2199 H   0  0  0  0  0  0  0  0  0  0  0  0
   -1.8821    2.5627   -1.0785 H   0  0  0  0  0  0  0  0  0  0  0  0
    0.0271    3.8757    0.0478 H   0  0  0  0  0  0  0  0  0  0  0  0
   -1.4359    3.5810    1.0332 H   0  0  0  0  0  0  0  0  0  0  0  0
  1  2  1  0
  2  3  1  0
  3  4  2  0
  4  5  1  0
  5  6  1  0
  4  7  1  0
  7  8  2  0
  8  9  1  0
  9 10  2  0
 10 11  1  0
 11 12  1  1
 12 13  1  0
 13 14  1  0
 14 15  1  0
 14 16  1  0
 16 17  1  0
 16 18  1  0
 18 19  1  1
 18 20  1  0
 20 21  1  0
 21 22  1  0
 22 23  2  0
 11  1  1  0
 18 11  1  0
 22  1  1  0
 10  3  1  0
 17  9  1  0
  1 24  1  1
  6 25  1  0
  6 26  1  0
  6 27  1  0
  7 28  1  0
  8 29  1  0
 12 30  1  0
 12 31  1  0
 13 32  1  0
 13 33  1  0
 15 34  1  0
 15 35  1  0
 15 36  1  0
 16 37  1  6
 17 38  1  0
 17 39  1  0
 19 40  1  0
 20 41  1  0
 20 42  1  0
 21 43  1  0
 21 44  1  0
M  END
$$$$
