
     RDKit          3D

 16 17  0  0  0  0  0  0  0  0999 V2000
    3.1045   -0.0682   -0.2415 N   0  0  0  0  0  0  0  0  0  0  0  0
    1.6952    0.1004   -0.0932 C   0  0  0  0  0  0  0  0  0  0  0  0
    1.1934    1.3211    0.2858 N   0  0  0  0  0  0  0  0  0  0  0  0
   -0.1478    1.5251    0.4391 C   0  0  0  0  0  0  0  0  0  0  0  0
   -0.7150    2.9908    0.8916 S   0  0  0  0  0  0  0  0  0  0  0  0
   -0.9935    0.4483    0.1971 C   0  0  0  0  0  0  0  0  0  0  0  0
   -0.4846   -0.7481   -0.1755 C   0  0  0  0  0  0  0  0  0  0  0  0
    0.8470   -0.9506   -0.3278 N   0  0  0  0  0  0  0  0  0  0  0  0
   -1.4622   -1.6522   -0.3595 N   0  0  0  0  0  0  0  0  0  0  0  0
   -2.5812   -0.9308   -0.0767 C   0  0  0  0  0  0  0  0  0  0  0  0
   -2.3275    0.3571    0.2670 N   0  0  0  0  0  0  0  0  0  0  0  0
    3.7524    0.7310   -0.0633 H   0  0  0  0  0  0  0  0  0  0  0  0
    3.5038   -0.9891   -0.5288 H   0  0  0  0  0  0  0  0  0  0  0  0
    1.2118   -1.8859   -0.6167 H   0  0  0  0  0  0  0  0  0  0  0  0
   -3.5792   -1.3464   -0.1220 H   0  0  0  0  0  0  0  0  0  0  0  0
   -3.0172    1.0975    0.5244 H   0  0  0  0  0  0  0  0  0  0  0  0
  1  2  1  0
  2  3  2  0
  3  4  1  0
  4  5  2  0
  4  6  1  0
  6  7  2  0
  7  8  1  0
  7  9  1  0
  9 10  2  0
 10 11  1  0
  8  2  1  0
 11  6  1  0
  1 12  1  0
  1 13  1  0
  8 14  1  0
 10 15  1  0
 11 16  1  0
M  END
$$$$
