
     RDKit          2D

181188  0  0  0  0  0  0  0  0999 V2000
    2.4433    7.7626    0.0000 C   0  0  0  0  0  0  0  0  0  0  0  0
    1.6933    6.4635    0.0000 C   0  0  0  0  0  0  0  0  0  0  0  0
    2.9924    5.7135    0.0000 C   0  0  0  0  0  0  0  0  0  0  0  0
    4.2914    4.9635    0.0000 N   0  0  0  0  0  0  0  0  0  0  0  0
    4.2914    3.4635    0.0000 C   0  0  0  0  0  0  0  0  0  0  0  0
    5.5905    2.7135    0.0000 O   0  0  0  0  0  0  0  0  0  0  0  0
    2.9924    2.7135    0.0000 C   0  0  0  0  0  0  0  0  0  0  0  0
    1.6933    1.9635    0.0000 C   0  0  0  0  0  0  0  0  0  0  0  0
    0.3943    1.2135    0.0000 C   0  0  0  0  0  0  0  0  0  0  0  0
   -0.2158    2.5838    0.0000 C   0  0  0  0  0  0  0  0  0  0  0  0
    1.2760    0.0000    0.0000 C   0  0  0  0  0  0  0  0  0  0  0  0
    2.3907   -1.0037    0.0000 C   0  0  0  0  0  0  0  0  0  0  0  0
    3.5054   -2.0074    0.0000 C   0  0  0  0  0  0  0  0  0  0  0  0
    4.9320   -1.5439    0.0000 N   0  0  0  0  0  0  0  0  0  0  0  0
    3.6302   -2.7947    0.0000 O   0  0  0  0  0  0  0  0  0  0  0  0
    0.3943   -1.2135    0.0000 C   0  0  0  0  0  0  0  0  0  0  0  0
   -1.0323   -0.7500    0.0000 N   0  0  0  0  0  0  0  0  0  0  0  0
   -1.0323    0.7500    0.0000 C   0  0  0  0  0  0  0  0  0  0  0  0
   -2.4589    1.2135    0.0000 C   0  0  0  0  0  0  0  0  0  0  0  0
   -2.3021    2.7053    0.0000 C   0  0  0  0  0  0  0  0  0  0  0  0
   -3.9507    1.0567    0.0000 C   0  0  0  0  0  0  0  0  0  0  0  0
   -5.2497    0.3067    0.0000 N   0  0  0  0  0  0  0  0  0  0  0  0
   -6.1314   -0.9068    0.0000 C   0  0  0  0  0  0  0  0  0  0  0  0
   -6.4432   -2.3740    0.0000 C   0  0  0  0  0  0  0  0  0  0  0  0
   -6.1314   -3.8412    0.0000 C   0  0  0  0  0  0  0  0  0  0  0  0
   -5.2497   -5.0548    0.0000 N   0  0  0  0  0  0  0  0  0  0  0  0
   -3.9507   -5.8048    0.0000 C   0  0  0  0  0  0  0  0  0  0  0  0
   -2.4589   -5.9616    0.0000 C   0  0  0  0  0  0  0  0  0  0  0  0
   -2.3021   -7.4533    0.0000 C   0  0  0  0  0  0  0  0  0  0  0  0
   -1.0323   -5.4980    0.0000 C   0  0  0  0  0  0  0  0  0  0  0  0
    0.3943   -5.9616    0.0000 C   0  0  0  0  0  0  0  0  0  0  0  0
    1.6933   -6.7116    0.0000 C   0  0  0  0  0  0  0  0  0  0  0  0
    2.9924   -7.4616    0.0000 C   0  0  0  0  0  0  0  0  0  0  0  0
    4.2914   -8.2116    0.0000 C   0  0  0  0  0  0  0  0  0  0  0  0
    4.2914   -9.7116    0.0000 N   0  0  0  0  0  0  0  0  0  0  0  0
    5.5905   -7.4616    0.0000 O   0  0  0  0  0  0  0  0  0  0  0  0
    1.2760   -4.7480    0.0000 C   0  0  0  0  0  0  0  0  0  0  0  0
    2.3907   -5.7517    0.0000 C   0  0  0  0  0  0  0  0  0  0  0  0
    2.3907   -3.7443    0.0000 C   0  0  0  0  0  0  0  0  0  0  0  0
    3.5054   -2.7406    0.0000 C   0  0  0  0  0  0  0  0  0  0  0  0
    4.9320   -3.2042    0.0000 N   0  0  0  0  0  0  0  0  0  0  0  0
    3.5578   -1.2416    0.0000 O   0  0  0  0  0  0  0  0  0  0  0  0
    0.6925   -3.1240    0.0000 C   0  0  0  0  0  0  0  0  0  0  0  0
    2.1598   -3.4359    0.0000 C   0  0  0  0  0  0  0  0  0  0  0  0
    0.0824   -4.4943    0.0000 N   0  0  0  0  0  0  0  0  0  0  0  0
    1.2960   -5.3760    0.0000 Co  0  0  0  0  0  2  0  0  0  0  0  0
    2.5095   -6.2577    0.0000 C   0  0  0  0  0  0  0  0  0  0  0  0
    3.6065   -7.2807    0.0000 N   0  0  0  0  0  0  0  0  0  0  0  0
   -5.2497   -6.5548    0.0000 C   0  0  0  0  0  0  0  0  0  0  0  0
   -4.3680   -7.7683    0.0000 C   0  0  0  0  0  0  0  0  0  0  0  0
   -6.3644   -7.5585    0.0000 C   0  0  0  0  0  0  0  0  0  0  0  0
   -7.4791   -8.5622    0.0000 C   0  0  0  0  0  0  0  0  0  0  0  0
   -8.9057   -8.0986    0.0000 N   0  0  0  0  0  0  0  0  0  0  0  0
   -7.1673  -10.0294    0.0000 O   0  0  0  0  0  0  0  0  0  0  0  0
   -6.3644   -5.5511    0.0000 C   0  0  0  0  0  0  0  0  0  0  0  0
   -7.6634   -4.8011    0.0000 C   0  0  0  0  0  0  0  0  0  0  0  0
   -8.9625   -4.0511    0.0000 C   0  0  0  0  0  0  0  0  0  0  0  0
  -10.2615   -3.3011    0.0000 C   0  0  0  0  0  0  0  0  0  0  0  0
  -11.5606   -4.0511    0.0000 N   0  0  0  0  0  0  0  0  0  0  0  0
  -10.2615   -1.8011    0.0000 O   0  0  0  0  0  0  0  0  0  0  0  0
   -6.7415    0.4635    0.0000 C   0  0  0  0  0  0  0  0  0  0  0  0
   -8.0405   -0.2865    0.0000 C   0  0  0  0  0  0  0  0  0  0  0  0
   -7.6232    1.6771    0.0000 C   0  0  0  0  0  0  0  0  0  0  0  0
   -5.6268    1.4672    0.0000 C   0  0  0  0  0  0  0  0  0  0  0  0
   -4.7451    2.6807    0.0000 C   0  0  0  0  0  0  0  0  0  0  0  0
   -3.8634    3.8943    0.0000 C   0  0  0  0  0  0  0  0  0  0  0  0
   -2.9817    5.1078    0.0000 C   0  0  0  0  0  0  0  0  0  0  0  0
   -3.5918    6.4781    0.0000 N   0  0  0  0  0  0  0  0  0  0  0  0
   -1.4899    4.9510    0.0000 O   0  0  0  0  0  0  0  0  0  0  0  0
    0.3943    7.2135    0.0000 O   0  0  0  0  0  0  0  0  0  0  0  0
    0.3943    8.7135    0.0000 P   0  0  0  0  0  5  0  0  0  0  0  0
   -1.1057    8.7135    0.0000 O   0  0  0  0  0  1  0  0  0  0  0  0
    1.8831    8.8964    0.0000 O   0  0  0  0  0  0  0  0  0  0  0  0
    0.3943   10.2135    0.0000 O   0  0  0  0  0  0  0  0  0  0  0  0
   -0.9047   10.9635    0.0000 C   0  0  0  0  0  0  0  0  0  0  0  0
   -2.3313   11.4271    0.0000 C   0  0  0  0  0  0  0  0  0  0  0  0
   -3.8231   11.5838    0.0000 C   0  0  0  0  0  0  0  0  0  0  0  0
   -5.3149   11.7406    0.0000 O   0  0  0  0  0  0  0  0  0  0  0  0
   -2.3313   12.9271    0.0000 O   0  0  0  0  0  0  0  0  0  0  0  0
   -0.9047   13.3906    0.0000 C   0  0  0  0  0  0  0  0  0  0  0  0
   -0.0231   12.1771    0.0000 C   0  0  0  0  0  0  0  0  0  0  0  0
    1.0917   11.1734    0.0000 O   0  0  0  0  0  0  0  0  0  0  0  0
    0.3943   14.1406    0.0000 N   0  0  0  0  0  0  0  0  0  0  0  0
    1.7646   13.5305    0.0000 C   0  0  0  0  0  0  0  0  0  0  0  0
    2.7683   14.6452    0.0000 N   0  0  0  0  0  0  0  0  0  0  0  0
    2.0183   15.9442    0.0000 C   0  0  0  0  0  0  0  0  0  0  0  0
    0.5511   15.6324    0.0000 C   0  0  0  0  0  0  0  0  0  0  0  0
   -0.4526   16.7471    0.0000 C   0  0  0  0  0  0  0  0  0  0  0  0
    0.0109   18.1737    0.0000 C   0  0  0  0  0  0  0  0  0  0  0  0
   -0.9928   19.2884    0.0000 C   0  0  0  0  0  0  0  0  0  0  0  0
    1.4781   18.4855    0.0000 C   0  0  0  0  0  0  0  0  0  0  0  0
    1.9417   19.9121    0.0000 C   0  0  0  0  0  0  0  0  0  0  0  0
    2.4818   17.3708    0.0000 C   0  0  0  0  0  0  0  0  0  0  0  0
    1.4995    8.9284    0.0000 H   0  0  0  0  0  0  0  0  0  0  0  0
    3.8241    7.1765    0.0000 H   0  0  0  0  0  0  0  0  0  0  0  0
    3.1933    9.0616    0.0000 H   0  0  0  0  0  0  0  0  0  0  0  0
    0.9433    5.1645    0.0000 H   0  0  0  0  0  0  0  0  0  0  0  0
    3.8951    6.9115    0.0000 H   0  0  0  0  0  0  0  0  0  0  0  0
    2.0896    4.5156    0.0000 H   0  0  0  0  0  0  0  0  0  0  0  0
    5.5905    5.7135    0.0000 H   0  0  0  0  0  0  0  0  0  0  0  0
    2.0896    3.9115    0.0000 H   0  0  0  0  0  0  0  0  0  0  0  0
    3.7424    1.4145    0.0000 H   0  0  0  0  0  0  0  0  0  0  0  0
    1.1073    3.3443    0.0000 H   0  0  0  0  0  0  0  0  0  0  0  0
    2.5961    0.7656    0.0000 H   0  0  0  0  0  0  0  0  0  0  0  0
    1.0699    3.3564    0.0000 H   0  0  0  0  0  0  0  0  0  0  0  0
   -1.5861    1.9737    0.0000 H   0  0  0  0  0  0  0  0  0  0  0  0
   -0.8259    3.9542    0.0000 H   0  0  0  0  0  0  0  0  0  0  0  0
    2.5047    0.8603    0.0000 H   0  0  0  0  0  0  0  0  0  0  0  0
    1.3870   -2.1184    0.0000 H   0  0  0  0  0  0  0  0  0  0  0  0
    3.3944    0.1110    0.0000 H   0  0  0  0  0  0  0  0  0  0  0  0
    6.1607   -2.4042    0.0000 H   0  0  0  0  0  0  0  0  0  0  0  0
    5.2439   -0.0766    0.0000 H   0  0  0  0  0  0  0  0  0  0  0  0
    0.8578   -2.6401    0.0000 H   0  0  0  0  0  0  0  0  0  0  0  0
   -0.8167    2.9141    0.0000 H   0  0  0  0  0  0  0  0  0  0  0  0
   -3.7939    2.8621    0.0000 H   0  0  0  0  0  0  0  0  0  0  0  0
   -2.1453    4.1971    0.0000 H   0  0  0  0  0  0  0  0  0  0  0  0
   -7.9321   -2.1912    0.0000 H   0  0  0  0  0  0  0  0  0  0  0  0
   -3.7116   -7.9664    0.0000 H   0  0  0  0  0  0  0  0  0  0  0  0
   -0.8023   -7.4796    0.0000 H   0  0  0  0  0  0  0  0  0  0  0  0
   -2.1453   -8.9451    0.0000 H   0  0  0  0  0  0  0  0  0  0  0  0
   -0.0442   -7.3960    0.0000 H   0  0  0  0  0  0  0  0  0  0  0  0
    0.9433   -8.0106    0.0000 H   0  0  0  0  0  0  0  0  0  0  0  0
    2.8591   -5.7677    0.0000 H   0  0  0  0  0  0  0  0  0  0  0  0
    3.8951   -6.2636    0.0000 H   0  0  0  0  0  0  0  0  0  0  0  0
    2.2424   -8.7606    0.0000 H   0  0  0  0  0  0  0  0  0  0  0  0
    5.5905  -10.4616    0.0000 H   0  0  0  0  0  0  0  0  0  0  0  0
    2.9924  -10.4616    0.0000 H   0  0  0  0  0  0  0  0  0  0  0  0
    3.5228   -4.7677    0.0000 H   0  0  0  0  0  0  0  0  0  0  0  0
    1.6866   -7.0762    0.0000 H   0  0  0  0  0  0  0  0  0  0  0  0
    3.7152   -6.4559    0.0000 H   0  0  0  0  0  0  0  0  0  0  0  0
    1.1471   -2.9056    0.0000 H   0  0  0  0  0  0  0  0  0  0  0  0
    3.5228   -4.7284    0.0000 H   0  0  0  0  0  0  0  0  0  0  0  0
    6.1607   -2.3438    0.0000 H   0  0  0  0  0  0  0  0  0  0  0  0
    5.2439   -4.6714    0.0000 H   0  0  0  0  0  0  0  0  0  0  0  0
    2.4716   -1.9687    0.0000 H   0  0  0  0  0  0  0  0  0  0  0  0
    2.7460   -4.8166    0.0000 H   0  0  0  0  0  0  0  0  0  0  0  0
    3.5780   -3.9243    0.0000 H   0  0  0  0  0  0  0  0  0  0  0  0
   -5.4650   -8.7913    0.0000 H   0  0  0  0  0  0  0  0  0  0  0  0
   -3.1545   -6.8866    0.0000 H   0  0  0  0  0  0  0  0  0  0  0  0
   -3.4863   -8.9818    0.0000 H   0  0  0  0  0  0  0  0  0  0  0  0
   -7.4965   -6.5744    0.0000 H   0  0  0  0  0  0  0  0  0  0  0  0
   -5.5041   -8.7872    0.0000 H   0  0  0  0  0  0  0  0  0  0  0  0
  -10.0204   -9.1023    0.0000 H   0  0  0  0  0  0  0  0  0  0  0  0
   -9.2176   -6.6314    0.0000 H   0  0  0  0  0  0  0  0  0  0  0  0
   -7.3874   -6.6481    0.0000 H   0  0  0  0  0  0  0  0  0  0  0  0
   -8.4134   -6.1001    0.0000 H   0  0  0  0  0  0  0  0  0  0  0  0
   -6.9134   -3.5020    0.0000 H   0  0  0  0  0  0  0  0  0  0  0  0
   -8.3764   -2.6703    0.0000 H   0  0  0  0  0  0  0  0  0  0  0  0
   -9.7125   -5.3501    0.0000 H   0  0  0  0  0  0  0  0  0  0  0  0
  -12.8596   -3.3011    0.0000 H   0  0  0  0  0  0  0  0  0  0  0  0
  -11.5606   -5.5511    0.0000 H   0  0  0  0  0  0  0  0  0  0  0  0
   -8.9433    0.9115    0.0000 H   0  0  0  0  0  0  0  0  0  0  0  0
   -7.2905   -1.5855    0.0000 H   0  0  0  0  0  0  0  0  0  0  0  0
   -9.3396   -1.0365    0.0000 H   0  0  0  0  0  0  0  0  0  0  0  0
   -8.9351    0.9499    0.0000 H   0  0  0  0  0  0  0  0  0  0  0  0
   -6.5261    2.7001    0.0000 H   0  0  0  0  0  0  0  0  0  0  0  0
   -8.5048    2.8906    0.0000 H   0  0  0  0  0  0  0  0  0  0  0  0
   -6.6108    2.5993    0.0000 H   0  0  0  0  0  0  0  0  0  0  0  0
   -5.9586    3.5624    0.0000 H   0  0  0  0  0  0  0  0  0  0  0  0
   -3.5316    1.7991    0.0000 H   0  0  0  0  0  0  0  0  0  0  0  0
   -2.4726    3.3324    0.0000 H   0  0  0  0  0  0  0  0  0  0  0  0
   -5.0769    4.7760    0.0000 H   0  0  0  0  0  0  0  0  0  0  0  0
   -2.7102    7.6916    0.0000 H   0  0  0  0  0  0  0  0  0  0  0  0
   -5.0836    6.6349    0.0000 H   0  0  0  0  0  0  0  0  0  0  0  0
   -1.5148    9.5932    0.0000 H   0  0  0  0  0  0  0  0  0  0  0  0
   -2.6432    9.9598    0.0000 H   0  0  0  0  0  0  0  0  0  0  0  0
   -3.9799   10.0921    0.0000 H   0  0  0  0  0  0  0  0  0  0  0  0
   -3.6663   13.0756    0.0000 H   0  0  0  0  0  0  0  0  0  0  0  0
   -6.1966   10.5271    0.0000 H   0  0  0  0  0  0  0  0  0  0  0  0
   -1.5148   14.7609    0.0000 H   0  0  0  0  0  0  0  0  0  0  0  0
    1.3014   12.8812    0.0000 H   0  0  0  0  0  0  0  0  0  0  0  0
    2.5641   11.4595    0.0000 H   0  0  0  0  0  0  0  0  0  0  0  0
    2.2530   12.1122    0.0000 H   0  0  0  0  0  0  0  0  0  0  0  0
   -1.9198   16.4352    0.0000 H   0  0  0  0  0  0  0  0  0  0  0  0
   -0.0087   20.4205    0.0000 H   0  0  0  0  0  0  0  0  0  0  0  0
   -2.1075   18.2847    0.0000 H   0  0  0  0  0  0  0  0  0  0  0  0
   -1.9965   20.4031    0.0000 H   0  0  0  0  0  0  0  0  0  0  0  0
    3.3683   19.4486    0.0000 H   0  0  0  0  0  0  0  0  0  0  0  0
    0.5822   20.5461    0.0000 H   0  0  0  0  0  0  0  0  0  0  0  0
    2.4052   21.3387    0.0000 H   0  0  0  0  0  0  0  0  0  0  0  0
    3.9491   17.6827    0.0000 H   0  0  0  0  0  0  0  0  0  0  0  0
  1  2  1  0
  2  3  1  0
  3  4  1  0
  4  5  1  0
  5  6  2  0
  5  7  1  0
  7  8  1  0
  9  8  1  6
  9 10  1  0
  9 11  1  0
 11 12  1  0
 12 13  1  0
 13 14  1  0
 13 15  2  0
 11 16  1  0
 16 17  1  0
 17 18  2  0
 18 19  1  0
 19 20  1  0
 19 21  2  0
 21 22  1  0
 22 23  2  0
 23 24  1  0
 24 25  2  0
 25 26  1  0
 26 27  2  0
 27 28  1  0
 28 29  1  0
 28 30  2  0
 30 31  1  0
 31 32  1  0
 32 33  1  0
 33 34  1  0
 34 35  1  0
 34 36  2  0
 31 37  1  0
 37 38  1  6
 37 39  1  0
 39 40  1  0
 40 41  1  0
 40 42  2  0
 37 43  1  0
 43 44  1  6
 43 45  1  0
 45 46  1  0
 46 47  1  0
 47 48  3  0
 27 49  1  0
 49 50  1  6
 49 51  1  0
 51 52  1  0
 52 53  1  0
 52 54  2  0
 49 55  1  0
 55 56  1  0
 56 57  1  0
 57 58  1  0
 58 59  1  0
 58 60  2  0
 23 61  1  0
 61 62  1  0
 61 63  1  0
 61 64  1  0
 64 65  1  0
 65 66  1  0
 66 67  1  0
 67 68  1  0
 67 69  2  0
  2 70  1  0
 70 71  1  0
 71 72  1  0
 71 73  2  0
 71 74  1  0
 74 75  1  0
 75 76  1  0
 76 77  1  0
 77 78  1  0
 76 79  1  0
 79 80  1  0
 80 81  1  0
 81 82  1  0
 80 83  1  0
 83 84  1  0
 84 85  2  0
 85 86  1  0
 86 87  2  0
 87 88  1  0
 88 89  2  0
 89 90  1  0
 89 91  1  0
 91 92  1  0
 91 93  2  0
 18  9  1  0
 64 21  1  0
 81 75  1  0
 87 83  1  0
 43 16  1  0
 93 86  1  0
 55 25  1  0
 45 30  1  0
  1 94  1  0
  1 95  1  0
  1 96  1  0
  2 97  1  1
  3 98  1  0
  3 99  1  0
  4100  1  0
  7101  1  0
  7102  1  0
  8103  1  0
  8104  1  0
 10105  1  0
 10106  1  0
 10107  1  0
 11108  1  6
 12109  1  0
 12110  1  0
 14111  1  0
 14112  1  0
 16113  1  1
 20114  1  0
 20115  1  0
 20116  1  0
 24117  1  0
 29118  1  0
 29119  1  0
 29120  1  0
 31121  1  1
 32122  1  0
 32123  1  0
 33124  1  0
 33125  1  0
 35126  1  0
 35127  1  0
 38128  1  0
 38129  1  0
 38130  1  0
 39131  1  0
 39132  1  0
 41133  1  0
 41134  1  0
 44135  1  0
 44136  1  0
 44137  1  0
 50138  1  0
 50139  1  0
 50140  1  0
 51141  1  0
 51142  1  0
 53143  1  0
 53144  1  0
 55145  1  1
 56146  1  0
 56147  1  0
 57148  1  0
 57149  1  0
 59150  1  0
 59151  1  0
 62152  1  0
 62153  1  0
 62154  1  0
 63155  1  0
 63156  1  0
 63157  1  0
 64158  1  1
 65159  1  0
 65160  1  0
 66161  1  0
 66162  1  0
 68163  1  0
 68164  1  0
 75165  1  1
 76166  1  6
 77167  1  0
 77168  1  0
 78169  1  0
 80170  1  1
 81171  1  1
 82172  1  0
 84173  1  0
 88174  1  0
 90175  1  0
 90176  1  0
 90177  1  0
 92178  1  0
 92179  1  0
 92180  1  0
 93181  1  0
M  CHG  2  46   1  72  -1
M  END
$$$$
