
     RDKit          3D

 28 29  0  0  0  0  0  0  0  0999 V2000
   -5.1181    0.5273    0.5610 O   0  0  0  0  0  0  0  0  0  0  0  0
   -4.6566   -0.0678   -0.6088 C   0  0  0  0  0  0  0  0  0  0  0  0
   -4.8149    0.5121   -1.7161 O   0  0  0  0  0  0  0  0  0  0  0  0
   -3.9419   -1.3796   -0.5475 C   0  0  0  0  0  0  0  0  0  0  0  0
   -2.5047   -1.1796   -0.7146 N   0  0  0  0  0  0  0  0  0  0  0  0
   -1.6840   -0.6001    0.3112 C   0  0  0  0  0  0  0  0  0  0  0  0
   -2.1960   -0.2811    1.4186 O   0  0  0  0  0  0  0  0  0  0  0  0
   -0.2304   -0.4454    0.0940 C   0  0  0  0  0  0  0  0  0  0  0  0
    0.5185    0.6227    0.6409 C   0  0  0  0  0  0  0  0  0  0  0  0
   -0.0930    1.6823    1.3203 O   0  0  0  0  0  0  0  0  0  0  0  0
    1.9174    0.6370    0.4641 C   0  0  0  0  0  0  0  0  0  0  0  0
    2.7021    1.6654    1.0181 C   0  0  0  0  0  0  0  0  0  0  0  0
    4.0840    1.6790    0.8309 C   0  0  0  0  0  0  0  0  0  0  0  0
    4.7023    0.6742    0.0888 C   0  0  0  0  0  0  0  0  0  0  0  0
    3.9478   -0.3582   -0.4777 C   0  0  0  0  0  0  0  0  0  0  0  0
    5.0120   -1.8252   -1.5878 I   0  0  0  0  0  0  0  0  0  0  0  0
    2.5457   -0.3841   -0.2940 C   0  0  0  0  0  0  0  0  0  0  0  0
    1.7450   -1.3923   -0.8492 C   0  0  0  0  0  0  0  0  0  0  0  0
    0.4056   -1.3981   -0.6376 N   0  0  0  0  0  0  0  0  0  0  0  0
   -5.5921    1.4222    0.5364 H   0  0  0  0  0  0  0  0  0  0  0  0
   -4.1452   -1.8875    0.4197 H   0  0  0  0  0  0  0  0  0  0  0  0
   -4.3214   -2.0350   -1.3610 H   0  0  0  0  0  0  0  0  0  0  0  0
   -2.0680   -1.4678   -1.6193 H   0  0  0  0  0  0  0  0  0  0  0  0
   -1.0921    1.8338    1.3373 H   0  0  0  0  0  0  0  0  0  0  0  0
    2.2532    2.4610    1.5997 H   0  0  0  0  0  0  0  0  0  0  0  0
    4.6790    2.4733    1.2630 H   0  0  0  0  0  0  0  0  0  0  0  0
    5.7758    0.6996   -0.0476 H   0  0  0  0  0  0  0  0  0  0  0  0
    2.1700   -2.1881   -1.4427 H   0  0  0  0  0  0  0  0  0  0  0  0
  1  2  1  0
  2  3  2  0
  2  4  1  0
  4  5  1  0
  5  6  1  0
  6  7  2  0
  6  8  1  0
  8  9  2  0
  9 10  1  0
  9 11  1  0
 11 12  2  0
 12 13  1  0
 13 14  2  0
 14 15  1  0
 15 16  1  0
 15 17  2  0
 17 18  1  0
 18 19  2  0
 19  8  1  0
 17 11  1  0
  1 20  1  0
  4 21  1  0
  4 22  1  0
  5 23  1  0
 10 24  1  0
 12 25  1  0
 13 26  1  0
 14 27  1  0
 18 28  1  0
M  END
$$$$
