
     RDKit          3D

 48 50  0  0  0  0  0  0  0  0999 V2000
    7.3768   -1.1790   -1.4477 C   0  0  0  0  0  0  0  0  0  0  0  0
    6.7726   -1.4013   -0.1398 N   0  0  0  0  0  0  0  0  0  0  0  0
    5.5920   -0.6970    0.2735 C   0  0  0  0  0  0  0  0  0  0  0  0
    5.0577    0.1370   -0.5084 O   0  0  0  0  0  0  0  0  0  0  0  0
    4.9972   -0.9420    1.6060 C   0  0  0  0  0  0  0  0  0  0  0  0
    3.8464   -0.2517    2.0240 C   0  0  0  0  0  0  0  0  0  0  0  0
    3.2994   -0.5137    3.2917 C   0  0  0  0  0  0  0  0  0  0  0  0
    2.1610    0.1567    3.7632 O   0  0  0  0  0  0  0  0  0  0  0  0
    1.1021    0.6195    2.9679 C   0  0  0  0  0  0  0  0  0  0  0  0
    0.3918    1.7494    3.3857 C   0  0  0  0  0  0  0  0  0  0  0  0
   -0.6796    2.2351    2.6295 C   0  0  0  0  0  0  0  0  0  0  0  0
   -1.3451    3.3389    3.0538 F   0  0  0  0  0  0  0  0  0  0  0  0
   -1.0749    1.5760    1.4536 C   0  0  0  0  0  0  0  0  0  0  0  0
   -2.1635    2.1020    0.6741 N   0  0  0  0  0  0  0  0  0  0  0  0
   -3.0881    1.2888   -0.0644 C   0  0  0  0  0  0  0  0  0  0  0  0
   -3.1435    0.0455    0.1407 O   0  0  0  0  0  0  0  0  0  0  0  0
   -4.0041    1.9117   -0.9779 N   0  0  0  0  0  0  0  0  0  0  0  0
   -4.8243    1.1902   -1.9133 C   0  0  0  0  0  0  0  0  0  0  0  0
   -6.0897    1.6900   -2.2414 C   0  0  0  0  0  0  0  0  0  0  0  0
   -6.8972    1.0211   -3.1608 C   0  0  0  0  0  0  0  0  0  0  0  0
   -6.4487   -0.1505   -3.7786 C   0  0  0  0  0  0  0  0  0  0  0  0
   -7.5216   -0.9401   -4.9314 Cl  0  0  0  0  0  0  0  0  0  0  0  0
   -5.1649   -0.6615   -3.4803 C   0  0  0  0  0  0  0  0  0  0  0  0
   -4.3586    0.0266   -2.5509 C   0  0  0  0  0  0  0  0  0  0  0  0
   -4.6579   -1.9176   -4.1568 C   0  0  0  0  0  0  0  0  0  0  0  0
   -5.5101   -2.9712   -3.8794 F   0  0  0  0  0  0  0  0  0  0  0  0
   -3.3893   -2.2619   -3.7223 F   0  0  0  0  0  0  0  0  0  0  0  0
   -4.6092   -1.7199   -5.5249 F   0  0  0  0  0  0  0  0  0  0  0  0
   -0.3609    0.4392    1.0344 C   0  0  0  0  0  0  0  0  0  0  0  0
    0.7102   -0.0427    1.7917 C   0  0  0  0  0  0  0  0  0  0  0  0
    3.9322   -1.4345    4.1299 C   0  0  0  0  0  0  0  0  0  0  0  0
    5.0737   -2.1015    3.6843 C   0  0  0  0  0  0  0  0  0  0  0  0
    5.5732   -1.8454    2.4469 N   0  0  0  0  0  0  0  0  0  0  0  0
    6.6493   -1.4336   -2.2469 H   0  0  0  0  0  0  0  0  0  0  0  0
    7.6808   -0.1156   -1.5463 H   0  0  0  0  0  0  0  0  0  0  0  0
    8.2755   -1.8211   -1.5628 H   0  0  0  0  0  0  0  0  0  0  0  0
    7.2215   -2.0933    0.5012 H   0  0  0  0  0  0  0  0  0  0  0  0
    3.3927    0.4927    1.3826 H   0  0  0  0  0  0  0  0  0  0  0  0
    0.6788    2.2589    4.2969 H   0  0  0  0  0  0  0  0  0  0  0  0
   -2.3345    3.1326    0.6964 H   0  0  0  0  0  0  0  0  0  0  0  0
   -4.1380    2.9454   -0.9021 H   0  0  0  0  0  0  0  0  0  0  0  0
   -6.4550    2.5962   -1.7744 H   0  0  0  0  0  0  0  0  0  0  0  0
   -7.8771    1.4176   -3.3950 H   0  0  0  0  0  0  0  0  0  0  0  0
   -3.3578   -0.3241   -2.3401 H   0  0  0  0  0  0  0  0  0  0  0  0
   -0.6167   -0.0668    0.1130 H   0  0  0  0  0  0  0  0  0  0  0  0
    1.2244   -0.9369    1.4648 H   0  0  0  0  0  0  0  0  0  0  0  0
    3.5365   -1.6379    5.1168 H   0  0  0  0  0  0  0  0  0  0  0  0
    5.5645   -2.8233    4.3234 H   0  0  0  0  0  0  0  0  0  0  0  0
  1  2  1  0
  2  3  1  0
  3  4  2  0
  3  5  1  0
  5  6  2  0
  6  7  1  0
  7  8  1  0
  8  9  1  0
  9 10  2  0
 10 11  1  0
 11 12  1  0
 11 13  2  0
 13 14  1  0
 14 15  1  0
 15 16  2  0
 15 17  1  0
 17 18  1  0
 18 19  2  0
 19 20  1  0
 20 21  2  0
 21 22  1  0
 21 23  1  0
 23 24  2  0
 23 25  1  0
 25 26  1  0
 25 27  1  0
 25 28  1  0
 13 29  1  0
 29 30  2  0
  7 31  2  0
 31 32  1  0
 32 33  2  0
 33  5  1  0
 30  9  1  0
 24 18  1  0
  1 34  1  0
  1 35  1  0
  1 36  1  0
  2 37  1  0
  6 38  1  0
 10 39  1  0
 14 40  1  0
 17 41  1  0
 19 42  1  0
 20 43  1  0
 24 44  1  0
 29 45  1  0
 30 46  1  0
 31 47  1  0
 32 48  1  0
M  END
$$$$
