
     RDKit          3D

 36 38  0  0  0  0  0  0  0  0999 V2000
   -0.0754    2.1102   -1.0925 C   0  0  0  0  0  0  0  0  0  0  0  0
   -0.9622    1.0146   -0.6978 N   0  0  0  0  0  0  0  0  0  0  0  0
   -0.6270    0.0886    0.3581 C   0  0  0  0  0  0  0  0  0  0  0  0
    0.8037   -0.1670    0.6616 C   0  0  0  0  0  0  0  0  0  0  0  0
    1.1835   -0.2524    1.8615 O   0  0  0  0  0  0  0  0  0  0  0  0
    1.7465   -0.3216   -0.4108 N   0  0  0  0  0  0  0  0  0  0  0  0
    3.1655   -0.3882   -0.2223 C   0  0  0  0  0  0  0  0  0  0  0  0
    3.7793   -0.2486    0.9746 N   0  0  0  0  0  0  0  0  0  0  0  0
    5.1309   -0.3337    0.8584 C   0  0  0  0  0  0  0  0  0  0  0  0
    5.5899   -0.5516   -0.4360 C   0  0  0  0  0  0  0  0  0  0  0  0
    7.0197   -0.6041   -0.8579 C   0  0  0  0  0  0  0  0  0  0  0  0
    4.2673   -0.6082   -1.4748 S   0  0  0  0  0  0  0  0  0  0  0  0
   -1.5911   -0.5894    1.0358 C   0  0  0  0  0  0  0  0  0  0  0  0
   -1.1842   -1.5510    1.9683 O   0  0  0  0  0  0  0  0  0  0  0  0
   -3.0613   -0.3789    0.8010 C   0  0  0  0  0  0  0  0  0  0  0  0
   -3.5487    0.1654   -0.4060 C   0  0  0  0  0  0  0  0  0  0  0  0
   -4.9254    0.2935   -0.6311 C   0  0  0  0  0  0  0  0  0  0  0  0
   -5.8337   -0.0986    0.3516 C   0  0  0  0  0  0  0  0  0  0  0  0
   -5.3699   -0.6042    1.5656 C   0  0  0  0  0  0  0  0  0  0  0  0
   -3.9972   -0.7397    1.7930 C   0  0  0  0  0  0  0  0  0  0  0  0
   -2.4159    0.7525   -1.5881 S   0  0  0  0  0  6  0  0  0  0  0  0
   -2.9082    2.0447   -2.1784 O   0  0  0  0  0  0  0  0  0  0  0  0
   -2.1905   -0.2659   -2.6693 O   0  0  0  0  0  0  0  0  0  0  0  0
   -0.6657    3.0346   -1.2610 H   0  0  0  0  0  0  0  0  0  0  0  0
    0.4549    1.8432   -2.0300 H   0  0  0  0  0  0  0  0  0  0  0  0
    0.6665    2.3317   -0.2968 H   0  0  0  0  0  0  0  0  0  0  0  0
    1.3826   -0.4022   -1.3867 H   0  0  0  0  0  0  0  0  0  0  0  0
    5.7873   -0.2305    1.7123 H   0  0  0  0  0  0  0  0  0  0  0  0
    7.3864    0.4256   -1.0495 H   0  0  0  0  0  0  0  0  0  0  0  0
    7.6358   -1.0705   -0.0607 H   0  0  0  0  0  0  0  0  0  0  0  0
    7.1193   -1.2059   -1.7853 H   0  0  0  0  0  0  0  0  0  0  0  0
   -1.8185   -2.2127    2.3957 H   0  0  0  0  0  0  0  0  0  0  0  0
   -5.2930    0.7089   -1.5609 H   0  0  0  0  0  0  0  0  0  0  0  0
   -6.8971    0.0054    0.1790 H   0  0  0  0  0  0  0  0  0  0  0  0
   -6.0756   -0.8880    2.3359 H   0  0  0  0  0  0  0  0  0  0  0  0
   -3.6788   -1.1062    2.7587 H   0  0  0  0  0  0  0  0  0  0  0  0
  1  2  1  0
  2  3  1  0
  3  4  1  0
  4  5  2  0
  4  6  1  0
  6  7  1  0
  7  8  2  0
  8  9  1  0
  9 10  2  0
 10 11  1  0
 10 12  1  0
  3 13  2  0
 13 14  1  0
 13 15  1  0
 15 16  2  0
 16 17  1  0
 17 18  2  0
 18 19  1  0
 19 20  2  0
 16 21  1  0
 21 22  2  0
 21 23  2  0
 21  2  1  0
 12  7  1  0
 20 15  1  0
  1 24  1  0
  1 25  1  0
  1 26  1  0
  6 27  1  0
  9 28  1  0
 11 29  1  0
 11 30  1  0
 11 31  1  0
 14 32  1  0
 17 33  1  0
 18 34  1  0
 19 35  1  0
 20 36  1  0
M  END
$$$$
