
     RDKit          3D

 48 53  0  0  0  0  0  0  0  0999 V2000
   -2.1584   -0.6944   -1.2202 C   0  0  1  0  0  0  0  0  0  0  0  0
   -2.6177    0.7775   -1.0746 C   0  0  0  0  0  0  0  0  0  0  0  0
   -1.5526    1.6248   -0.4869 C   0  0  0  0  0  0  0  0  0  0  0  0
   -0.2106    1.3902   -0.6678 C   0  0  0  0  0  0  0  0  0  0  0  0
    0.5304    2.4330   -0.2224 N   0  0  0  0  0  0  0  0  0  0  0  0
   -0.3597    3.3349    0.2313 C   0  0  0  0  0  0  0  0  0  0  0  0
   -0.0906    4.5979    0.7564 C   0  0  0  0  0  0  0  0  0  0  0  0
   -1.1842    5.4040    1.1233 C   0  0  0  0  0  0  0  0  0  0  0  0
   -2.5075    4.9393    0.9494 C   0  0  0  0  0  0  0  0  0  0  0  0
   -2.7504    3.6623    0.4109 C   0  0  0  0  0  0  0  0  0  0  0  0
   -1.6465    2.8811    0.0726 C   0  0  0  0  0  0  0  0  0  0  0  0
    0.3328    0.1534   -1.3185 C   0  0  2  0  0  0  0  0  0  0  0  0
   -0.7225   -0.8703   -1.5394 N   0  0  0  0  0  0  0  0  0  0  0  0
   -0.3302   -2.2307   -1.8103 C   0  0  0  0  0  0  0  0  0  0  0  0
    0.6526   -2.4755   -2.5605 O   0  0  0  0  0  0  0  0  0  0  0  0
   -1.0984   -3.3647   -1.1800 C   0  0  0  0  0  0  0  0  0  0  0  0
   -1.8728   -2.8926   -0.0162 N   0  0  0  0  0  0  0  0  0  0  0  0
   -2.1055   -3.7775    1.1262 C   0  0  0  0  0  0  0  0  0  0  0  0
   -2.4620   -1.5768   -0.0400 C   0  0  0  0  0  0  0  0  0  0  0  0
   -3.2144   -1.1907    0.8965 O   0  0  0  0  0  0  0  0  0  0  0  0
    1.4441   -0.3972   -0.4444 C   0  0  0  0  0  0  0  0  0  0  0  0
    2.7777   -0.4093   -0.9135 C   0  0  0  0  0  0  0  0  0  0  0  0
    3.7614   -0.9273   -0.0762 C   0  0  0  0  0  0  0  0  0  0  0  0
    3.4751   -1.4100    1.1589 C   0  0  0  0  0  0  0  0  0  0  0  0
    4.6363   -1.8561    1.7597 O   0  0  0  0  0  0  0  0  0  0  0  0
    5.7197   -1.6400    0.8446 C   0  0  0  0  0  0  0  0  0  0  0  0
    5.1172   -1.0457   -0.3136 O   0  0  0  0  0  0  0  0  0  0  0  0
    2.1801   -1.4158    1.6660 C   0  0  0  0  0  0  0  0  0  0  0  0
    1.1552   -0.9004    0.8535 C   0  0  0  0  0  0  0  0  0  0  0  0
   -2.7492   -1.1075   -2.0686 H   0  0  0  0  0  0  0  0  0  0  0  0
   -2.8405    1.1821   -2.0857 H   0  0  0  0  0  0  0  0  0  0  0  0
   -3.5514    0.8574   -0.4789 H   0  0  0  0  0  0  0  0  0  0  0  0
    1.5702    2.5291   -0.2498 H   0  0  0  0  0  0  0  0  0  0  0  0
    0.9259    4.9514    0.8716 H   0  0  0  0  0  0  0  0  0  0  0  0
   -1.0105    6.3898    1.5344 H   0  0  0  0  0  0  0  0  0  0  0  0
   -3.3402    5.5715    1.2287 H   0  0  0  0  0  0  0  0  0  0  0  0
   -3.7608    3.3020    0.2678 H   0  0  0  0  0  0  0  0  0  0  0  0
    0.7376    0.4480   -2.3110 H   0  0  0  0  0  0  0  0  0  0  0  0
   -0.3817   -4.1573   -0.8742 H   0  0  0  0  0  0  0  0  0  0  0  0
   -1.7954   -3.7879   -1.9335 H   0  0  0  0  0  0  0  0  0  0  0  0
   -1.6755   -3.3224    2.0433 H   0  0  0  0  0  0  0  0  0  0  0  0
   -1.6341   -4.7709    0.9701 H   0  0  0  0  0  0  0  0  0  0  0  0
   -3.1964   -3.9293    1.2679 H   0  0  0  0  0  0  0  0  0  0  0  0
    3.0382   -0.0319   -1.8939 H   0  0  0  0  0  0  0  0  0  0  0  0
    6.1931   -2.6076    0.5762 H   0  0  0  0  0  0  0  0  0  0  0  0
    6.4633   -0.9455    1.2886 H   0  0  0  0  0  0  0  0  0  0  0  0
    1.9692   -1.8033    2.6540 H   0  0  0  0  0  0  0  0  0  0  0  0
    0.1397   -0.8912    1.2284 H   0  0  0  0  0  0  0  0  0  0  0  0
  1  2  1  0
  2  3  1  0
  3  4  2  0
  4  5  1  0
  5  6  1  0
  6  7  2  0
  7  8  1  0
  8  9  2  0
  9 10  1  0
 10 11  2  0
  4 12  1  0
 12 13  1  0
 13 14  1  0
 14 15  2  0
 14 16  1  0
 16 17  1  0
 17 18  1  0
 17 19  1  0
 19 20  2  0
 12 21  1  0
 21 22  2  0
 22 23  1  0
 23 24  2  0
 24 25  1  0
 25 26  1  0
 26 27  1  0
 24 28  1  0
 28 29  2  0
 13  1  1  0
 29 21  1  0
 19  1  1  0
 27 23  1  0
 11  3  1  0
 11  6  1  0
  1 30  1  6
  2 31  1  0
  2 32  1  0
  5 33  1  0
  7 34  1  0
  8 35  1  0
  9 36  1  0
 10 37  1  0
 12 38  1  6
 16 39  1  0
 16 40  1  0
 18 41  1  0
 18 42  1  0
 18 43  1  0
 22 44  1  0
 26 45  1  0
 26 46  1  0
 28 47  1  0
 29 48  1  0
M  END
$$$$
