
     RDKit          3D

 53 56  0  0  0  0  0  0  0  0999 V2000
   -8.4521   -0.7644   -0.2008 O   0  0  0  0  0  0  0  0  0  0  0  0
   -7.3537   -0.1585   -0.8278 C   0  0  0  0  0  0  0  0  0  0  0  0
   -6.1411   -1.0992   -0.8343 C   0  0  1  0  0  0  0  0  0  0  0  0
   -5.0634   -0.4797   -1.4988 O   0  0  0  0  0  0  0  0  0  0  0  0
   -3.8740   -0.8452   -0.8270 C   0  0  2  0  0  0  0  0  0  0  0  0
   -4.2131   -1.7359    0.3699 C   0  0  2  0  0  0  0  0  0  0  0  0
   -3.9850   -3.0822    0.0320 O   0  0  0  0  0  0  0  0  0  0  0  0
   -5.6850   -1.4676    0.5705 C   0  0  2  0  0  0  0  0  0  0  0  0
   -6.3764   -2.5933    1.0469 O   0  0  0  0  0  0  0  0  0  0  0  0
   -3.1695    0.3604   -0.3837 N   0  0  0  0  0  0  0  0  0  0  0  0
   -3.7010    1.5094    0.1114 C   0  0  0  0  0  0  0  0  0  0  0  0
   -2.7620    2.4007    0.5343 N   0  0  0  0  0  0  0  0  0  0  0  0
   -1.6073    1.7521    0.2923 C   0  0  0  0  0  0  0  0  0  0  0  0
   -0.2999    2.1504    0.5438 C   0  0  0  0  0  0  0  0  0  0  0  0
    0.0027    3.4233    1.1150 N   0  0  0  0  0  0  0  0  0  0  0  0
    0.7000    1.2735    0.2301 N   0  0  0  0  0  0  0  0  0  0  0  0
    0.4310    0.0394   -0.3113 C   0  0  0  0  0  0  0  0  0  0  0  0
    1.4996   -0.8547   -0.6238 N   0  0  0  0  0  0  0  0  0  0  0  0
    2.8301   -0.4795   -0.3814 N   0  0  0  0  0  0  0  0  0  0  0  0
    3.8230   -1.2681   -0.6535 C   0  0  0  0  0  0  0  0  0  0  0  0
    5.2388   -0.8409   -0.3836 C   0  0  0  0  0  0  0  0  0  0  0  0
    5.6010    0.4071   -1.2115 C   0  0  0  0  0  0  0  0  0  0  0  0
    7.0412    0.8531   -0.9281 C   0  0  0  0  0  0  0  0  0  0  0  0
    7.2542    1.1084    0.5692 C   0  0  0  0  0  0  0  0  0  0  0  0
    6.8954   -0.1324    1.3964 C   0  0  0  0  0  0  0  0  0  0  0  0
    5.4548   -0.5813    1.1198 C   0  0  0  0  0  0  0  0  0  0  0  0
   -0.8619   -0.3397   -0.5507 N   0  0  0  0  0  0  0  0  0  0  0  0
   -1.8499    0.5356   -0.2453 C   0  0  0  0  0  0  0  0  0  0  0  0
   -8.8065   -1.4383   -0.8379 H   0  0  0  0  0  0  0  0  0  0  0  0
   -7.6170    0.1214   -1.8732 H   0  0  0  0  0  0  0  0  0  0  0  0
   -7.1036    0.7781   -0.2857 H   0  0  0  0  0  0  0  0  0  0  0  0
   -6.4079   -2.0226   -1.3976 H   0  0  0  0  0  0  0  0  0  0  0  0
   -3.2251   -1.3959   -1.5443 H   0  0  0  0  0  0  0  0  0  0  0  0
   -3.6253   -1.4537    1.2762 H   0  0  0  0  0  0  0  0  0  0  0  0
   -3.8925   -3.5804    0.8858 H   0  0  0  0  0  0  0  0  0  0  0  0
   -5.8151   -0.6025    1.2639 H   0  0  0  0  0  0  0  0  0  0  0  0
   -6.1511   -2.6728    2.0104 H   0  0  0  0  0  0  0  0  0  0  0  0
   -4.7641    1.6970    0.1808 H   0  0  0  0  0  0  0  0  0  0  0  0
   -0.7564    4.0978    1.3586 H   0  0  0  0  0  0  0  0  0  0  0  0
    0.9947    3.6944    1.2954 H   0  0  0  0  0  0  0  0  0  0  0  0
    1.2778   -1.7907   -1.0344 H   0  0  0  0  0  0  0  0  0  0  0  0
    3.6417   -2.2478   -1.0802 H   0  0  0  0  0  0  0  0  0  0  0  0
    5.9075   -1.6747   -0.6951 H   0  0  0  0  0  0  0  0  0  0  0  0
    4.9070    1.2433   -0.9712 H   0  0  0  0  0  0  0  0  0  0  0  0
    5.5010    0.1781   -2.2951 H   0  0  0  0  0  0  0  0  0  0  0  0
    7.2542    1.7861   -1.4929 H   0  0  0  0  0  0  0  0  0  0  0  0
    7.7507    0.0714   -1.2786 H   0  0  0  0  0  0  0  0  0  0  0  0
    8.3185    1.3731    0.7482 H   0  0  0  0  0  0  0  0  0  0  0  0
    6.6279    1.9682    0.8945 H   0  0  0  0  0  0  0  0  0  0  0  0
    7.0051    0.1031    2.4769 H   0  0  0  0  0  0  0  0  0  0  0  0
    7.5981   -0.9596    1.1534 H   0  0  0  0  0  0  0  0  0  0  0  0
    5.2509   -1.5124    1.6924 H   0  0  0  0  0  0  0  0  0  0  0  0
    4.7533    0.2043    1.4795 H   0  0  0  0  0  0  0  0  0  0  0  0
  1  2  1  0
  2  3  1  0
  3  4  1  0
  4  5  1  0
  5  6  1  0
  6  7  1  0
  6  8  1  0
  8  9  1  0
  5 10  1  0
 10 11  1  0
 11 12  2  0
 12 13  1  0
 13 14  2  0
 14 15  1  0
 14 16  1  0
 16 17  2  0
 17 18  1  0
 18 19  1  0
 19 20  2  0
 20 21  1  0
 21 22  1  0
 22 23  1  0
 23 24  1  0
 24 25  1  0
 25 26  1  0
 17 27  1  0
 27 28  2  0
  8  3  1  0
 28 10  1  0
 28 13  1  0
 26 21  1  0
  1 29  1  0
  2 30  1  0
  2 31  1  0
  3 32  1  6
  5 33  1  6
  6 34  1  1
  7 35  1  0
  8 36  1  1
  9 37  1  0
 11 38  1  0
 15 39  1  0
 15 40  1  0
 18 41  1  0
 20 42  1  0
 21 43  1  0
 22 44  1  0
 22 45  1  0
 23 46  1  0
 23 47  1  0
 24 48  1  0
 24 49  1  0
 25 50  1  0
 25 51  1  0
 26 52  1  0
 26 53  1  0
M  END
$$$$
