
     RDKit          3D

 49 51  0  0  0  0  0  0  0  0999 V2000
   -3.4480    1.4565    3.3327 C   0  0  0  0  0  0  0  0  0  0  0  0
   -4.4410    0.7974    2.5531 O   0  0  0  0  0  0  0  0  0  0  0  0
   -4.2313    0.2805    1.2638 C   0  0  0  0  0  0  0  0  0  0  0  0
   -2.9888    0.3888    0.6156 C   0  0  0  0  0  0  0  0  0  0  0  0
   -2.8023   -0.1486   -0.6639 C   0  0  0  0  0  0  0  0  0  0  0  0
   -1.5425   -0.0294   -1.3470 N   0  0  0  0  0  0  0  0  0  0  0  0
   -0.2643   -0.1314   -0.7029 C   0  0  0  0  0  0  0  0  0  0  0  0
   -0.1577   -0.6138    0.5634 N   0  0  0  0  0  0  0  0  0  0  0  0
    1.0598   -0.7349    1.1475 C   0  0  0  0  0  0  0  0  0  0  0  0
    2.1769   -0.3825    0.4646 N   0  0  0  0  0  0  0  0  0  0  0  0
    2.0806    0.1010   -0.8021 C   0  0  0  0  0  0  0  0  0  0  0  0
    3.2554    0.4445   -1.5507 N   0  0  0  0  0  0  0  0  0  0  0  0
    4.5665    0.5854   -0.9778 C   0  0  0  0  0  0  0  0  0  0  0  0
    4.7525    1.1502    0.2953 C   0  0  0  0  0  0  0  0  0  0  0  0
    6.0396    1.2992    0.8241 C   0  0  0  0  0  0  0  0  0  0  0  0
    6.2334    2.0030    2.4226 Cl  0  0  0  0  0  0  0  0  0  0  0  0
    7.1621    0.9008    0.0819 C   0  0  0  0  0  0  0  0  0  0  0  0
    8.4377    1.0625    0.6457 O   0  0  0  0  0  0  0  0  0  0  0  0
    9.6552    0.7017    0.0015 C   0  0  0  0  0  0  0  0  0  0  0  0
    6.9753    0.3575   -1.2035 C   0  0  0  0  0  0  0  0  0  0  0  0
    5.6886    0.2107   -1.7283 C   0  0  0  0  0  0  0  0  0  0  0  0
    0.8590    0.2096   -1.3858 N   0  0  0  0  0  0  0  0  0  0  0  0
   -3.8794   -0.7575   -1.3143 C   0  0  0  0  0  0  0  0  0  0  0  0
   -5.1349   -0.8773   -0.6870 C   0  0  0  0  0  0  0  0  0  0  0  0
   -6.2086   -1.5025   -1.3407 O   0  0  0  0  0  0  0  0  0  0  0  0
   -6.1557   -2.0624   -2.6492 C   0  0  0  0  0  0  0  0  0  0  0  0
   -5.3069   -0.3553    0.6215 C   0  0  0  0  0  0  0  0  0  0  0  0
   -6.5165   -0.4286    1.3394 O   0  0  0  0  0  0  0  0  0  0  0  0
   -7.7306   -1.0268    0.8991 C   0  0  0  0  0  0  0  0  0  0  0  0
   -3.8874    1.7462    4.3091 H   0  0  0  0  0  0  0  0  0  0  0  0
   -3.1017    2.3748    2.8131 H   0  0  0  0  0  0  0  0  0  0  0  0
   -2.5915    0.7740    3.5170 H   0  0  0  0  0  0  0  0  0  0  0  0
   -2.1726    0.9119    1.0924 H   0  0  0  0  0  0  0  0  0  0  0  0
   -1.5522    0.0548   -2.3889 H   0  0  0  0  0  0  0  0  0  0  0  0
    1.1404   -1.1180    2.1554 H   0  0  0  0  0  0  0  0  0  0  0  0
    3.1614    0.5171   -2.5893 H   0  0  0  0  0  0  0  0  0  0  0  0
    3.9041    1.4987    0.8695 H   0  0  0  0  0  0  0  0  0  0  0  0
    9.6643   -0.3874   -0.2154 H   0  0  0  0  0  0  0  0  0  0  0  0
    9.7759    1.2804   -0.9385 H   0  0  0  0  0  0  0  0  0  0  0  0
   10.5048    0.9368    0.6747 H   0  0  0  0  0  0  0  0  0  0  0  0
    7.8175    0.0471   -1.8065 H   0  0  0  0  0  0  0  0  0  0  0  0
    5.5640   -0.2073   -2.7195 H   0  0  0  0  0  0  0  0  0  0  0  0
   -3.7229   -1.1471   -2.3109 H   0  0  0  0  0  0  0  0  0  0  0  0
   -5.9073   -1.2753   -3.3921 H   0  0  0  0  0  0  0  0  0  0  0  0
   -7.1493   -2.4860   -2.9013 H   0  0  0  0  0  0  0  0  0  0  0  0
   -5.4031   -2.8780   -2.6859 H   0  0  0  0  0  0  0  0  0  0  0  0
   -8.1099   -0.5070   -0.0056 H   0  0  0  0  0  0  0  0  0  0  0  0
   -7.5776   -2.1089    0.7031 H   0  0  0  0  0  0  0  0  0  0  0  0
   -8.4909   -0.9249    1.7002 H   0  0  0  0  0  0  0  0  0  0  0  0
  1  2  1  0
  2  3  1  0
  3  4  2  0
  4  5  1  0
  5  6  1  0
  6  7  1  0
  7  8  2  0
  8  9  1  0
  9 10  2  0
 10 11  1  0
 11 12  1  0
 12 13  1  0
 13 14  2  0
 14 15  1  0
 15 16  1  0
 15 17  2  0
 17 18  1  0
 18 19  1  0
 17 20  1  0
 20 21  2  0
 11 22  2  0
  5 23  2  0
 23 24  1  0
 24 25  1  0
 25 26  1  0
 24 27  2  0
 27 28  1  0
 28 29  1  0
 27  3  1  0
 22  7  1  0
 21 13  1  0
  1 30  1  0
  1 31  1  0
  1 32  1  0
  4 33  1  0
  6 34  1  0
  9 35  1  0
 12 36  1  0
 14 37  1  0
 19 38  1  0
 19 39  1  0
 19 40  1  0
 20 41  1  0
 21 42  1  0
 23 43  1  0
 26 44  1  0
 26 45  1  0
 26 46  1  0
 29 47  1  0
 29 48  1  0
 29 49  1  0
M  END
$$$$
