
     RDKit          3D

 26 26  0  0  0  0  0  0  0  0999 V2000
   -3.6616   -1.1369    0.1765 C   0  0  0  0  0  0  0  0  0  0  0  0
   -2.4306   -0.3368   -0.2522 C   0  0  0  0  0  0  0  0  0  0  0  0
   -2.8548    0.9254   -1.0214 C   0  0  0  0  0  0  0  0  0  0  0  0
   -1.6312   -0.0087    0.9388 N   0  0  0  0  0  0  0  0  0  0  0  0
   -0.3369    0.3752    0.5427 N   0  0  0  0  0  0  0  0  0  0  0  0
    0.7296   -0.5835    0.5300 C   0  0  0  0  0  0  0  0  0  0  0  0
    0.4751   -1.7904    0.7942 O   0  0  0  0  0  0  0  0  0  0  0  0
    2.1192   -0.1883    0.1950 C   0  0  0  0  0  0  0  0  0  0  0  0
    2.5653    1.1339    0.3678 C   0  0  0  0  0  0  0  0  0  0  0  0
    3.8837    1.4669    0.0464 C   0  0  0  0  0  0  0  0  0  0  0  0
    4.7332    0.5169   -0.4247 N   0  0  0  0  0  0  0  0  0  0  0  0
    4.3359   -0.7712   -0.5940 C   0  0  0  0  0  0  0  0  0  0  0  0
    3.0271   -1.1482   -0.2841 C   0  0  0  0  0  0  0  0  0  0  0  0
   -4.2548   -1.4389   -0.7130 H   0  0  0  0  0  0  0  0  0  0  0  0
   -3.3450   -2.0564    0.7136 H   0  0  0  0  0  0  0  0  0  0  0  0
   -4.3041   -0.5321    0.8520 H   0  0  0  0  0  0  0  0  0  0  0  0
   -1.8355   -0.9839   -0.9362 H   0  0  0  0  0  0  0  0  0  0  0  0
   -3.4461    1.6037   -0.3698 H   0  0  0  0  0  0  0  0  0  0  0  0
   -3.4742    0.6462   -1.9005 H   0  0  0  0  0  0  0  0  0  0  0  0
   -1.9636    1.4706   -1.3952 H   0  0  0  0  0  0  0  0  0  0  0  0
   -2.0631    0.7955    1.4518 H   0  0  0  0  0  0  0  0  0  0  0  0
   -0.1810    1.3407    0.1758 H   0  0  0  0  0  0  0  0  0  0  0  0
    1.9175    1.9011    0.7692 H   0  0  0  0  0  0  0  0  0  0  0  0
    4.2337    2.4821    0.1785 H   0  0  0  0  0  0  0  0  0  0  0  0
    5.0369   -1.5046   -0.9697 H   0  0  0  0  0  0  0  0  0  0  0  0
    2.7252   -2.1783   -0.4284 H   0  0  0  0  0  0  0  0  0  0  0  0
  1  2  1  0
  2  3  1  0
  2  4  1  0
  4  5  1  0
  5  6  1  0
  6  7  2  0
  6  8  1  0
  8  9  2  0
  9 10  1  0
 10 11  2  0
 11 12  1  0
 12 13  2  0
 13  8  1  0
  1 14  1  0
  1 15  1  0
  1 16  1  0
  2 17  1  0
  3 18  1  0
  3 19  1  0
  3 20  1  0
  4 21  1  0
  5 22  1  0
  9 23  1  0
 10 24  1  0
 12 25  1  0
 13 26  1  0
M  END
$$$$
