
     RDKit          3D

 36 37  0  0  0  0  0  0  0  0999 V2000
   -1.2772   -2.3629    0.1399 C   0  0  0  0  0  0  0  0  0  0  0  0
   -0.6532   -1.4254   -0.8495 C   0  0  0  0  0  0  0  0  0  0  0  0
   -0.1063   -1.9094   -1.8769 O   0  0  0  0  0  0  0  0  0  0  0  0
   -0.6616    0.0009   -0.6486 N   0  0  0  0  0  0  0  0  0  0  0  0
   -1.5754    0.6292    0.2606 C   0  0  0  0  0  0  0  0  0  0  0  0
   -2.9529    0.5298    0.2550 C   0  0  0  0  0  0  0  0  0  0  0  0
   -3.8395   -0.1839   -0.7166 C   0  0  0  0  0  0  0  0  0  0  0  0
   -3.3356    1.3190    1.3229 C   0  0  0  0  0  0  0  0  0  0  0  0
   -4.7356    1.6279    1.7414 C   0  0  0  0  0  0  0  0  0  0  0  0
   -2.2426    1.8657    1.8939 N   0  0  0  0  0  0  0  0  0  0  0  0
   -1.2078    1.4292    1.2339 O   0  0  0  0  0  0  0  0  0  0  0  0
    0.5842    0.9686   -1.3783 S   0  0  0  0  0  6  0  0  0  0  0  0
    0.3751    2.4199   -1.0468 O   0  0  0  0  0  0  0  0  0  0  0  0
    0.5210    0.7981   -2.8707 O   0  0  0  0  0  0  0  0  0  0  0  0
    2.1566    0.4629   -0.7704 C   0  0  0  0  0  0  0  0  0  0  0  0
    3.2797    0.4786   -1.6088 C   0  0  0  0  0  0  0  0  0  0  0  0
    4.5270    0.0769   -1.1207 C   0  0  0  0  0  0  0  0  0  0  0  0
    4.6629   -0.3408    0.2109 C   0  0  0  0  0  0  0  0  0  0  0  0
    5.9384   -0.7519    0.7098 N   0  0  0  0  0  0  0  0  0  0  0  0
    3.5400   -0.3507    1.0503 C   0  0  0  0  0  0  0  0  0  0  0  0
    2.2931    0.0514    0.5623 C   0  0  0  0  0  0  0  0  0  0  0  0
   -1.2694   -1.9219    1.1584 H   0  0  0  0  0  0  0  0  0  0  0  0
   -0.7037   -3.3132    0.1722 H   0  0  0  0  0  0  0  0  0  0  0  0
   -2.3202   -2.5878   -0.1608 H   0  0  0  0  0  0  0  0  0  0  0  0
   -4.3227   -1.0468   -0.2136 H   0  0  0  0  0  0  0  0  0  0  0  0
   -4.6257    0.5090   -1.0823 H   0  0  0  0  0  0  0  0  0  0  0  0
   -3.2577   -0.5452   -1.5895 H   0  0  0  0  0  0  0  0  0  0  0  0
   -4.7419    2.0527    2.7671 H   0  0  0  0  0  0  0  0  0  0  0  0
   -5.3465    0.7009    1.7347 H   0  0  0  0  0  0  0  0  0  0  0  0
   -5.1782    2.3647    1.0394 H   0  0  0  0  0  0  0  0  0  0  0  0
    3.1919    0.8017   -2.6381 H   0  0  0  0  0  0  0  0  0  0  0  0
    5.3866    0.0920   -1.7790 H   0  0  0  0  0  0  0  0  0  0  0  0
    6.0496   -1.0641    1.7003 H   0  0  0  0  0  0  0  0  0  0  0  0
    6.7808   -0.7474    0.0923 H   0  0  0  0  0  0  0  0  0  0  0  0
    3.6311   -0.6687    2.0813 H   0  0  0  0  0  0  0  0  0  0  0  0
    1.4359    0.0410    1.2233 H   0  0  0  0  0  0  0  0  0  0  0  0
  1  2  1  0
  2  3  2  0
  2  4  1  0
  4  5  1  0
  5  6  2  0
  6  7  1  0
  6  8  1  0
  8  9  1  0
  8 10  2  0
 10 11  1  0
  4 12  1  0
 12 13  2  0
 12 14  2  0
 12 15  1  0
 15 16  2  0
 16 17  1  0
 17 18  2  0
 18 19  1  0
 18 20  1  0
 20 21  2  0
 11  5  1  0
 21 15  1  0
  1 22  1  0
  1 23  1  0
  1 24  1  0
  7 25  1  0
  7 26  1  0
  7 27  1  0
  9 28  1  0
  9 29  1  0
  9 30  1  0
 16 31  1  0
 17 32  1  0
 19 33  1  0
 19 34  1  0
 20 35  1  0
 21 36  1  0
M  END
$$$$
