
     RDKit          3D

 55 59  0  0  0  0  0  0  0  0999 V2000
   -0.4404   -2.3766    0.5226 C   0  0  1  0  0  0  0  0  0  0  0  0
   -0.0427   -3.8530    0.5930 C   0  0  0  0  0  0  0  0  0  0  0  0
   -1.3519   -4.6317    0.6375 C   0  0  0  0  0  0  0  0  0  0  0  0
   -2.3971   -3.6546    1.1556 C   0  0  0  0  0  0  0  0  0  0  0  0
   -1.8343   -2.3269    0.9573 N   0  0  0  0  0  0  0  0  0  0  0  0
   -2.6200   -1.1166    0.9998 C   0  0  0  0  0  0  0  0  0  0  0  0
   -2.1202    0.0355    0.4736 N   0  0  0  0  0  0  0  0  0  0  0  0
   -2.8211    1.2016    0.5153 C   0  0  0  0  0  0  0  0  0  0  0  0
   -4.0514    1.2261    1.0937 N   0  0  0  0  0  0  0  0  0  0  0  0
   -4.6012    0.1052    1.6284 C   0  0  0  0  0  0  0  0  0  0  0  0
   -5.9485    0.1715    2.2740 C   0  0  0  0  0  0  0  0  0  0  0  0
   -3.8887   -1.0966    1.5986 C   0  0  0  0  0  0  0  0  0  0  0  0
   -2.2631    2.4008   -0.0386 N   0  0  0  0  0  0  0  0  0  0  0  0
   -1.0907    2.5275   -0.6807 C   0  0  0  0  0  0  0  0  0  0  0  0
   -0.9428    3.8478   -1.0389 C   0  0  0  0  0  0  0  0  0  0  0  0
   -2.0174    4.5510   -0.6259 N   0  0  0  0  0  0  0  0  0  0  0  0
   -2.8029    3.6358   -0.0199 C   0  0  0  0  0  0  0  0  0  0  0  0
    0.4633   -1.5324    1.3884 C   0  0  0  0  0  0  0  0  0  0  0  0
    0.0250   -1.0097    2.4500 O   0  0  0  0  0  0  0  0  0  0  0  0
    1.8363   -1.3532    1.0148 N   0  0  0  0  0  0  0  0  0  0  0  0
    2.6834   -0.3290    1.6224 C   0  0  0  0  0  0  0  0  0  0  0  0
    2.3622    1.0520    1.0396 C   0  0  0  0  0  0  0  0  0  0  0  0
    2.8880    1.1904   -0.3668 C   0  0  0  0  0  0  0  0  0  0  0  0
    4.1093    1.8616   -0.6033 C   0  0  0  0  0  0  0  0  0  0  0  0
    4.5647    1.9490   -1.9157 C   0  0  0  0  0  0  0  0  0  0  0  0
    3.8789    1.4068   -2.9531 C   0  0  0  0  0  0  0  0  0  0  0  0
    4.5613    1.6436   -4.1306 O   0  0  0  0  0  0  0  0  0  0  0  0
    5.7502    2.3807   -3.8128 C   0  0  0  0  0  0  0  0  0  0  0  0
    5.7132    2.5533   -2.3892 O   0  0  0  0  0  0  0  0  0  0  0  0
    2.6796    0.7271   -2.7683 C   0  0  0  0  0  0  0  0  0  0  0  0
    2.1838    0.6152   -1.4570 C   0  0  0  0  0  0  0  0  0  0  0  0
   -0.3769   -2.0211   -0.5296 H   0  0  0  0  0  0  0  0  0  0  0  0
    0.5696   -4.1475   -0.2871 H   0  0  0  0  0  0  0  0  0  0  0  0
    0.5334   -4.0722    1.5206 H   0  0  0  0  0  0  0  0  0  0  0  0
   -1.2718   -5.5255    1.2937 H   0  0  0  0  0  0  0  0  0  0  0  0
   -1.6230   -4.9570   -0.3912 H   0  0  0  0  0  0  0  0  0  0  0  0
   -3.3433   -3.7694    0.5829 H   0  0  0  0  0  0  0  0  0  0  0  0
   -2.5840   -3.8214    2.2385 H   0  0  0  0  0  0  0  0  0  0  0  0
   -6.6091   -0.6157    1.8530 H   0  0  0  0  0  0  0  0  0  0  0  0
   -5.8453    0.0164    3.3684 H   0  0  0  0  0  0  0  0  0  0  0  0
   -6.4184    1.1618    2.0945 H   0  0  0  0  0  0  0  0  0  0  0  0
   -4.3135   -1.9870    2.0442 H   0  0  0  0  0  0  0  0  0  0  0  0
   -0.3988    1.7236   -0.8799 H   0  0  0  0  0  0  0  0  0  0  0  0
   -0.1026    4.2734   -1.5709 H   0  0  0  0  0  0  0  0  0  0  0  0
   -3.7575    3.8757    0.4306 H   0  0  0  0  0  0  0  0  0  0  0  0
    2.2355   -1.9396    0.2473 H   0  0  0  0  0  0  0  0  0  0  0  0
    3.7529   -0.5743    1.4414 H   0  0  0  0  0  0  0  0  0  0  0  0
    2.5295   -0.3190    2.7231 H   0  0  0  0  0  0  0  0  0  0  0  0
    1.2648    1.2281    1.0531 H   0  0  0  0  0  0  0  0  0  0  0  0
    2.8179    1.8289    1.6915 H   0  0  0  0  0  0  0  0  0  0  0  0
    4.6819    2.2989    0.2048 H   0  0  0  0  0  0  0  0  0  0  0  0
    5.7351    3.3687   -4.3189 H   0  0  0  0  0  0  0  0  0  0  0  0
    6.6504    1.8004   -4.1050 H   0  0  0  0  0  0  0  0  0  0  0  0
    2.1486    0.2943   -3.6058 H   0  0  0  0  0  0  0  0  0  0  0  0
    1.2599    0.0774   -1.2896 H   0  0  0  0  0  0  0  0  0  0  0  0
  1  2  1  0
  2  3  1  0
  3  4  1  0
  4  5  1  0
  5  6  1  0
  6  7  2  0
  7  8  1  0
  8  9  2  0
  9 10  1  0
 10 11  1  0
 10 12  2  0
  8 13  1  0
 13 14  1  0
 14 15  2  0
 15 16  1  0
 16 17  2  0
  1 18  1  0
 18 19  2  0
 18 20  1  0
 20 21  1  0
 21 22  1  0
 22 23  1  0
 23 24  2  0
 24 25  1  0
 25 26  2  0
 26 27  1  0
 27 28  1  0
 28 29  1  0
 26 30  1  0
 30 31  2  0
  5  1  1  0
 12  6  1  0
 17 13  1  0
 31 23  1  0
 29 25  1  0
  1 32  1  6
  2 33  1  0
  2 34  1  0
  3 35  1  0
  3 36  1  0
  4 37  1  0
  4 38  1  0
 11 39  1  0
 11 40  1  0
 11 41  1  0
 12 42  1  0
 14 43  1  0
 15 44  1  0
 17 45  1  0
 20 46  1  0
 21 47  1  0
 21 48  1  0
 22 49  1  0
 22 50  1  0
 24 51  1  0
 28 52  1  0
 28 53  1  0
 30 54  1  0
 31 55  1  0
M  END
$$$$
