
     RDKit          3D

 30 31  0  0  0  0  0  0  0  0999 V2000
    4.8632    0.2085    1.4440 N   0  0  0  0  0  0  0  0  0  0  0  0
    3.5807    0.2177    0.8170 C   0  0  0  0  0  0  0  0  0  0  0  0
    2.4594    0.0902    1.5697 N   0  0  0  0  0  0  0  0  0  0  0  0
    1.2224    0.0946    1.0078 C   0  0  0  0  0  0  0  0  0  0  0  0
    0.2148   -0.0354    1.7536 O   0  0  0  0  0  0  0  0  0  0  0  0
    1.0796    0.2343   -0.3523 N   0  0  0  0  0  0  0  0  0  0  0  0
    2.1958    0.3576   -1.1340 C   0  0  0  0  0  0  0  0  0  0  0  0
    3.4674    0.3535   -0.5649 C   0  0  0  0  0  0  0  0  0  0  0  0
   -0.2500    0.2336   -0.9966 C   0  0  2  0  0  0  0  0  0  0  0  0
   -1.0922    1.1857   -0.3789 O   0  0  0  0  0  0  0  0  0  0  0  0
   -2.3849    0.6131   -0.2757 C   0  0  2  0  0  0  0  0  0  0  0  0
   -3.0662    1.0919    1.0121 C   0  0  0  0  0  0  0  0  0  0  0  0
   -3.1829    2.4891    1.0140 O   0  0  0  0  0  0  0  0  0  0  0  0
   -2.2627   -0.9187   -0.3168 C   0  0  1  0  0  0  0  0  0  0  0  0
   -3.2554   -1.5030   -1.1266 O   0  0  0  0  0  0  0  0  0  0  0  0
   -0.9108   -1.0921   -0.8750 C   0  0  0  0  0  0  0  0  0  0  0  0
   -0.3605   -2.2617   -1.2282 C   0  0  0  0  0  0  0  0  0  0  0  0
   -1.0437   -3.4262   -1.0720 F   0  0  0  0  0  0  0  0  0  0  0  0
    5.7374    0.3044    0.8805 H   0  0  0  0  0  0  0  0  0  0  0  0
    4.9411    0.1051    2.4801 H   0  0  0  0  0  0  0  0  0  0  0  0
    2.1117    0.4583   -2.2096 H   0  0  0  0  0  0  0  0  0  0  0  0
    4.3461    0.4531   -1.1897 H   0  0  0  0  0  0  0  0  0  0  0  0
   -0.1720    0.4877   -2.0780 H   0  0  0  0  0  0  0  0  0  0  0  0
   -2.9875    0.9697   -1.1417 H   0  0  0  0  0  0  0  0  0  0  0  0
   -2.4601    0.7885    1.8921 H   0  0  0  0  0  0  0  0  0  0  0  0
   -4.0715    0.6219    1.1110 H   0  0  0  0  0  0  0  0  0  0  0  0
   -3.9323    2.7126    0.4023 H   0  0  0  0  0  0  0  0  0  0  0  0
   -2.2959   -1.3719    0.6984 H   0  0  0  0  0  0  0  0  0  0  0  0
   -3.1345   -1.1705   -2.0554 H   0  0  0  0  0  0  0  0  0  0  0  0
    0.6432   -2.2917   -1.6403 H   0  0  0  0  0  0  0  0  0  0  0  0
  1  2  1  0
  2  3  2  0
  3  4  1  0
  4  5  2  0
  4  6  1  0
  6  7  1  0
  7  8  2  0
  6  9  1  0
  9 10  1  0
 10 11  1  0
 11 12  1  0
 12 13  1  0
 11 14  1  0
 14 15  1  0
 14 16  1  0
 16 17  2  0
 17 18  1  0
  8  2  1  0
 16  9  1  0
  1 19  1  0
  1 20  1  0
  7 21  1  0
  8 22  1  0
  9 23  1  6
 11 24  1  6
 12 25  1  0
 12 26  1  0
 13 27  1  0
 14 28  1  1
 15 29  1  0
 17 30  1  0
M  END
$$$$
