
     RDKit          3D

 69 71  0  0  0  0  0  0  0  0999 V2000
   -7.6215   -2.2824   -2.8395 C   0  0  0  0  0  0  0  0  0  0  0  0
   -6.3205   -1.6473   -3.3164 C   0  0  0  0  0  0  0  0  0  0  0  0
   -5.3371   -1.6776   -2.2841 O   0  0  0  0  0  0  0  0  0  0  0  0
   -5.3526   -0.8179   -1.1800 C   0  0  0  0  0  0  0  0  0  0  0  0
   -6.2224    0.0901   -1.0800 O   0  0  0  0  0  0  0  0  0  0  0  0
   -4.2870   -0.9406   -0.1406 C   0  0  0  0  0  0  0  0  0  0  0  0
   -3.1506   -0.0837   -0.4998 N   0  0  0  0  0  0  0  0  0  0  0  0
   -2.1370   -0.0267    0.5705 C   0  0  1  0  0  0  0  0  0  0  0  0
   -1.4348   -1.3629    0.7354 C   0  0  0  0  0  0  0  0  0  0  0  0
   -1.6605   -2.0429    1.7718 O   0  0  0  0  0  0  0  0  0  0  0  0
   -0.5239   -1.8770   -0.2443 N   0  0  0  0  0  0  0  0  0  0  0  0
   -0.0948   -1.6025   -1.6312 C   0  0  0  0  0  0  0  0  0  0  0  0
    0.8475   -2.7527   -1.7422 C   0  0  0  0  0  0  0  0  0  0  0  0
    0.4083   -3.0223   -0.3324 C   0  0  1  0  0  0  0  0  0  0  0  0
    1.5156   -2.9114    0.6898 C   0  0  0  0  0  0  0  0  0  0  0  0
    1.2679   -2.4151    1.8221 O   0  0  0  0  0  0  0  0  0  0  0  0
    2.8283   -3.4195    0.4090 N   0  0  0  0  0  0  0  0  0  0  0  0
    3.9906   -3.0460    1.2126 C   0  0  0  0  0  0  0  0  0  0  0  0
    4.2150   -1.5579    1.1430 C   0  0  0  0  0  0  0  0  0  0  0  0
    3.9988   -0.7499    2.2689 C   0  0  0  0  0  0  0  0  0  0  0  0
    4.1504    0.6365    2.1831 C   0  0  0  0  0  0  0  0  0  0  0  0
    4.5113    1.2430    0.9659 C   0  0  0  0  0  0  0  0  0  0  0  0
    4.7358    0.4271   -0.1578 C   0  0  0  0  0  0  0  0  0  0  0  0
    4.5869   -0.9600   -0.0694 C   0  0  0  0  0  0  0  0  0  0  0  0
    4.6385    2.7192    0.8719 C   0  0  0  0  0  0  0  0  0  0  0  0
    4.4282    3.3761   -0.3870 N   0  0  0  0  0  0  0  0  0  0  0  0
    4.9271    3.3960    1.9475 N   0  0  0  0  0  0  0  0  0  0  0  0
    5.0008    4.7729    2.0240 O   0  0  0  0  0  0  0  0  0  0  0  0
   -1.1537    1.1448    0.2977 C   0  0  0  0  0  0  0  0  0  0  0  0
   -0.0114    1.2183    1.3356 C   0  0  0  0  0  0  0  0  0  0  0  0
    1.0332    2.2818    0.9442 C   0  0  0  0  0  0  0  0  0  0  0  0
    0.4375    3.4826    0.1840 C   0  0  0  0  0  0  0  0  0  0  0  0
   -1.0263    3.7230    0.5625 C   0  0  0  0  0  0  0  0  0  0  0  0
   -1.9114    2.5015    0.2370 C   0  0  0  0  0  0  0  0  0  0  0  0
   -7.4333   -3.3237   -2.5025 H   0  0  0  0  0  0  0  0  0  0  0  0
   -8.3552   -2.3007   -3.6727 H   0  0  0  0  0  0  0  0  0  0  0  0
   -8.0518   -1.6996   -1.9986 H   0  0  0  0  0  0  0  0  0  0  0  0
   -5.9391   -2.2249   -4.1846 H   0  0  0  0  0  0  0  0  0  0  0  0
   -6.5002   -0.6021   -3.6500 H   0  0  0  0  0  0  0  0  0  0  0  0
   -3.9684   -2.0042   -0.0743 H   0  0  0  0  0  0  0  0  0  0  0  0
   -4.7092   -0.6353    0.8423 H   0  0  0  0  0  0  0  0  0  0  0  0
   -2.7147   -0.4487   -1.3782 H   0  0  0  0  0  0  0  0  0  0  0  0
   -2.6435    0.2074    1.5358 H   0  0  0  0  0  0  0  0  0  0  0  0
    0.4400   -0.6322   -1.7102 H   0  0  0  0  0  0  0  0  0  0  0  0
   -0.9460   -1.6859   -2.3417 H   0  0  0  0  0  0  0  0  0  0  0  0
    0.5019   -3.5273   -2.4608 H   0  0  0  0  0  0  0  0  0  0  0  0
    1.9012   -2.4188   -1.8669 H   0  0  0  0  0  0  0  0  0  0  0  0
   -0.1386   -3.9865   -0.2340 H   0  0  0  0  0  0  0  0  0  0  0  0
    2.9754   -4.0313   -0.4252 H   0  0  0  0  0  0  0  0  0  0  0  0
    3.8395   -3.3844    2.2607 H   0  0  0  0  0  0  0  0  0  0  0  0
    4.8923   -3.5667    0.8235 H   0  0  0  0  0  0  0  0  0  0  0  0
    3.6984   -1.1904    3.2115 H   0  0  0  0  0  0  0  0  0  0  0  0
    3.9602    1.2366    3.0642 H   0  0  0  0  0  0  0  0  0  0  0  0
    5.0374    0.8558   -1.1045 H   0  0  0  0  0  0  0  0  0  0  0  0
    4.7519   -1.5692   -0.9497 H   0  0  0  0  0  0  0  0  0  0  0  0
    3.9174    2.8932   -1.1587 H   0  0  0  0  0  0  0  0  0  0  0  0
    4.8213    4.3183   -0.5964 H   0  0  0  0  0  0  0  0  0  0  0  0
    4.7210    5.3830    1.2680 H   0  0  0  0  0  0  0  0  0  0  0  0
   -0.6937    0.9880   -0.6987 H   0  0  0  0  0  0  0  0  0  0  0  0
   -0.4373    1.4637    2.3336 H   0  0  0  0  0  0  0  0  0  0  0  0
    0.5121    0.2437    1.4262 H   0  0  0  0  0  0  0  0  0  0  0  0
    1.5430    2.6389    1.8655 H   0  0  0  0  0  0  0  0  0  0  0  0
    1.8033    1.8092    0.2979 H   0  0  0  0  0  0  0  0  0  0  0  0
    0.4998    3.2974   -0.9112 H   0  0  0  0  0  0  0  0  0  0  0  0
    1.0349    4.3938    0.4035 H   0  0  0  0  0  0  0  0  0  0  0  0
   -1.4093    4.6146    0.0205 H   0  0  0  0  0  0  0  0  0  0  0  0
   -1.0834    3.9431    1.6515 H   0  0  0  0  0  0  0  0  0  0  0  0
   -2.3360    2.6249   -0.7837 H   0  0  0  0  0  0  0  0  0  0  0  0
   -2.7676    2.5035    0.9470 H   0  0  0  0  0  0  0  0  0  0  0  0
  1  2  1  0
  2  3  1  0
  3  4  1  0
  4  5  2  0
  4  6  1  0
  6  7  1  0
  7  8  1  0
  8  9  1  0
  9 10  2  0
  9 11  1  0
 11 12  1  0
 12 13  1  0
 13 14  1  0
 14 15  1  0
 15 16  2  0
 15 17  1  0
 17 18  1  0
 18 19  1  0
 19 20  2  0
 20 21  1  0
 21 22  2  0
 22 23  1  0
 23 24  2  0
 22 25  1  0
 25 26  1  0
 25 27  2  0
 27 28  1  0
  8 29  1  0
 29 30  1  0
 30 31  1  0
 31 32  1  0
 32 33  1  0
 33 34  1  0
 14 11  1  0
 24 19  1  0
 34 29  1  0
  1 35  1  0
  1 36  1  0
  1 37  1  0
  2 38  1  0
  2 39  1  0
  6 40  1  0
  6 41  1  0
  7 42  1  0
  8 43  1  1
 12 44  1  0
 12 45  1  0
 13 46  1  0
 13 47  1  0
 14 48  1  6
 17 49  1  0
 18 50  1  0
 18 51  1  0
 20 52  1  0
 21 53  1  0
 23 54  1  0
 24 55  1  0
 26 56  1  0
 26 57  1  0
 28 58  1  0
 29 59  1  0
 30 60  1  0
 30 61  1  0
 31 62  1  0
 31 63  1  0
 32 64  1  0
 32 65  1  0
 33 66  1  0
 33 67  1  0
 34 68  1  0
 34 69  1  0
M  END
$$$$
