
     RDKit          3D

 50 52  0  0  0  0  0  0  0  0999 V2000
   -0.4695   -2.6565   -1.2234 C   0  0  1  0  0  0  0  0  0  0  0  0
   -1.6534   -1.8121   -1.7312 C   0  0  0  0  0  0  0  0  0  0  0  0
   -1.4528   -0.4101   -1.2712 C   0  0  0  0  0  0  0  0  0  0  0  0
   -1.6929    0.5607   -2.0386 O   0  0  0  0  0  0  0  0  0  0  0  0
   -0.9831   -0.2051    0.0653 N   0  0  0  0  0  0  0  0  0  0  0  0
   -0.6879    1.1382    0.5774 C   0  0  0  0  0  0  0  0  0  0  0  0
   -1.9622    1.9064    0.8007 C   0  0  0  0  0  0  0  0  0  0  0  0
   -2.8335    1.5345    1.8378 C   0  0  0  0  0  0  0  0  0  0  0  0
   -4.0266    2.2347    2.0404 C   0  0  0  0  0  0  0  0  0  0  0  0
   -4.3584    3.3084    1.2095 C   0  0  0  0  0  0  0  0  0  0  0  0
   -3.4975    3.6832    0.1743 C   0  0  0  0  0  0  0  0  0  0  0  0
   -2.3032    2.9856   -0.0319 C   0  0  0  0  0  0  0  0  0  0  0  0
   -0.8947   -1.3925    0.9240 C   0  0  0  0  0  0  0  0  0  0  0  0
   -0.2091   -2.5137    0.2385 N   0  0  0  0  0  0  0  0  0  0  0  0
    1.5066   -2.5127    0.5901 S   0  0  0  0  0  6  0  0  0  0  0  0
    1.7082   -2.9143    2.0248 O   0  0  0  0  0  0  0  0  0  0  0  0
    2.2126   -3.5191   -0.2765 O   0  0  0  0  0  0  0  0  0  0  0  0
    2.2178   -0.9189    0.3244 C   0  0  0  0  0  0  0  0  0  0  0  0
    2.5655   -0.5054   -0.9684 C   0  0  0  0  0  0  0  0  0  0  0  0
    3.0920    0.7714   -1.1817 C   0  0  0  0  0  0  0  0  0  0  0  0
    3.2856    1.6496   -0.1093 C   0  0  0  0  0  0  0  0  0  0  0  0
    3.8067    2.9241   -0.3766 O   0  0  0  0  0  0  0  0  0  0  0  0
    4.0388    3.9207    0.6134 C   0  0  0  0  0  0  0  0  0  0  0  0
    2.9530    1.2271    1.1918 C   0  0  0  0  0  0  0  0  0  0  0  0
    2.4258   -0.0500    1.4042 C   0  0  0  0  0  0  0  0  0  0  0  0
   -0.7157   -4.1051   -1.5432 C   0  0  0  0  0  0  0  0  0  0  0  0
   -1.4873   -4.7852   -0.8136 O   0  0  0  0  0  0  0  0  0  0  0  0
   -0.1109   -4.7068   -2.6914 N   0  0  0  0  0  0  0  0  0  0  0  0
   -0.3424   -6.0077   -2.9888 O   0  0  0  0  0  0  0  0  0  0  0  0
    0.4151   -2.3191   -1.8048 H   0  0  0  0  0  0  0  0  0  0  0  0
   -1.7005   -1.8501   -2.8420 H   0  0  0  0  0  0  0  0  0  0  0  0
   -2.6129   -2.1925   -1.3180 H   0  0  0  0  0  0  0  0  0  0  0  0
   -0.1436    1.0798    1.5434 H   0  0  0  0  0  0  0  0  0  0  0  0
   -0.0146    1.6660   -0.1330 H   0  0  0  0  0  0  0  0  0  0  0  0
   -2.5883    0.7029    2.4869 H   0  0  0  0  0  0  0  0  0  0  0  0
   -4.6945    1.9444    2.8411 H   0  0  0  0  0  0  0  0  0  0  0  0
   -5.2826    3.8492    1.3672 H   0  0  0  0  0  0  0  0  0  0  0  0
   -3.7563    4.5139   -0.4695 H   0  0  0  0  0  0  0  0  0  0  0  0
   -1.6479    3.2855   -0.8402 H   0  0  0  0  0  0  0  0  0  0  0  0
   -1.9258   -1.7200    1.1764 H   0  0  0  0  0  0  0  0  0  0  0  0
   -0.4068   -1.1555    1.8944 H   0  0  0  0  0  0  0  0  0  0  0  0
    2.4322   -1.1674   -1.8130 H   0  0  0  0  0  0  0  0  0  0  0  0
    3.3496    1.0815   -2.1865 H   0  0  0  0  0  0  0  0  0  0  0  0
    3.0859    4.1861    1.1184 H   0  0  0  0  0  0  0  0  0  0  0  0
    4.4470    4.8290    0.1249 H   0  0  0  0  0  0  0  0  0  0  0  0
    4.7772    3.5548    1.3578 H   0  0  0  0  0  0  0  0  0  0  0  0
    3.0904    1.8792    2.0433 H   0  0  0  0  0  0  0  0  0  0  0  0
    2.1618   -0.3509    2.4097 H   0  0  0  0  0  0  0  0  0  0  0  0
    0.4981   -4.1413   -3.3242 H   0  0  0  0  0  0  0  0  0  0  0  0
    0.3852   -6.5051   -2.5350 H   0  0  0  0  0  0  0  0  0  0  0  0
  1  2  1  0
  2  3  1  0
  3  4  2  0
  3  5  1  0
  5  6  1  0
  6  7  1  0
  7  8  2  0
  8  9  1  0
  9 10  2  0
 10 11  1  0
 11 12  2  0
  5 13  1  0
 13 14  1  0
 14 15  1  0
 15 16  2  0
 15 17  2  0
 15 18  1  0
 18 19  2  0
 19 20  1  0
 20 21  2  0
 21 22  1  0
 22 23  1  0
 21 24  1  0
 24 25  2  0
  1 26  1  0
 26 27  2  0
 26 28  1  0
 28 29  1  0
 14  1  1  0
 25 18  1  0
 12  7  1  0
  1 30  1  6
  2 31  1  0
  2 32  1  0
  6 33  1  0
  6 34  1  0
  8 35  1  0
  9 36  1  0
 10 37  1  0
 11 38  1  0
 12 39  1  0
 13 40  1  0
 13 41  1  0
 19 42  1  0
 20 43  1  0
 23 44  1  0
 23 45  1  0
 23 46  1  0
 24 47  1  0
 25 48  1  0
 28 49  1  0
 29 50  1  0
M  END
$$$$
