
     RDKit          3D

 49 51  0  0  0  0  0  0  0  0999 V2000
    5.3383    1.3763    1.8247 C   0  0  1  0  0  0  0  0  0  0  0  0
    6.5345    2.2080    1.6802 N   0  0  0  0  0  0  0  0  0  0  0  0
    4.4377    1.4857    0.5754 C   0  0  0  0  0  0  0  0  0  0  0  0
    3.0901    0.7844    0.7736 C   0  0  0  0  0  0  0  0  0  0  0  0
    2.0553    1.0090   -0.6629 S   0  0  0  0  0  3  0  0  0  0  0  0
    2.6319    0.0239   -2.0283 C   0  0  0  0  0  0  0  0  0  0  0  0
    0.3244    0.7493   -0.2803 C   0  0  0  0  0  0  0  0  0  0  0  0
    0.0434   -0.6512    0.2968 C   0  0  1  0  0  0  0  0  0  0  0  0
   -1.1629   -0.6023    1.0333 O   0  0  0  0  0  0  0  0  0  0  0  0
   -2.0097   -1.6245    0.5600 C   0  0  1  0  0  0  0  0  0  0  0  0
   -3.3969   -1.1579    0.5417 N   0  0  0  0  0  0  0  0  0  0  0  0
   -4.5102   -1.8724    0.8486 C   0  0  0  0  0  0  0  0  0  0  0  0
   -5.6673   -1.1810    0.6522 N   0  0  0  0  0  0  0  0  0  0  0  0
   -5.2291    0.0077    0.1956 C   0  0  0  0  0  0  0  0  0  0  0  0
   -5.9549    1.1244   -0.2032 C   0  0  0  0  0  0  0  0  0  0  0  0
   -7.3812    1.1542   -0.1478 N   0  0  0  0  0  0  0  0  0  0  0  0
   -5.2537    2.2048   -0.6609 N   0  0  0  0  0  0  0  0  0  0  0  0
   -3.8832    2.1911   -0.7290 C   0  0  0  0  0  0  0  0  0  0  0  0
   -3.1805    1.0862   -0.3364 N   0  0  0  0  0  0  0  0  0  0  0  0
   -3.8789    0.0198    0.1232 C   0  0  0  0  0  0  0  0  0  0  0  0
   -1.5574   -2.0250   -0.8352 C   0  0  2  0  0  0  0  0  0  0  0  0
   -1.8128   -3.3808   -1.0966 O   0  0  0  0  0  0  0  0  0  0  0  0
   -0.0778   -1.7263   -0.7988 C   0  0  2  0  0  0  0  0  0  0  0  0
    0.6896   -2.8658   -0.4829 O   0  0  0  0  0  0  0  0  0  0  0  0
    5.7520   -0.0469    2.0770 C   0  0  0  0  0  0  0  0  0  0  0  0
    6.5356   -0.7241    1.1500 O   0  0  0  0  0  1  0  0  0  0  0  0
    5.3833   -0.6367    3.1267 O   0  0  0  0  0  0  0  0  0  0  0  0
    4.7676    1.7451    2.7073 H   0  0  0  0  0  0  0  0  0  0  0  0
    6.2414    3.2113    1.6345 H   0  0  0  0  0  0  0  0  0  0  0  0
    7.0102    1.9824    0.7756 H   0  0  0  0  0  0  0  0  0  0  0  0
    4.2474    2.5605    0.3623 H   0  0  0  0  0  0  0  0  0  0  0  0
    4.9599    1.0511   -0.3050 H   0  0  0  0  0  0  0  0  0  0  0  0
    2.5689    1.2120    1.6564 H   0  0  0  0  0  0  0  0  0  0  0  0
    3.2423   -0.3033    0.9368 H   0  0  0  0  0  0  0  0  0  0  0  0
    3.6289    0.3872   -2.3505 H   0  0  0  0  0  0  0  0  0  0  0  0
    1.9229    0.1130   -2.8767 H   0  0  0  0  0  0  0  0  0  0  0  0
    2.7152   -1.0371   -1.7161 H   0  0  0  0  0  0  0  0  0  0  0  0
    0.0388    1.5154    0.4718 H   0  0  0  0  0  0  0  0  0  0  0  0
   -0.2888    0.9319   -1.1886 H   0  0  0  0  0  0  0  0  0  0  0  0
    0.8570   -0.9153    1.0062 H   0  0  0  0  0  0  0  0  0  0  0  0
   -1.9215   -2.4930    1.2520 H   0  0  0  0  0  0  0  0  0  0  0  0
   -4.4858   -2.8952    1.2021 H   0  0  0  0  0  0  0  0  0  0  0  0
   -7.9003    2.0059   -0.4562 H   0  0  0  0  0  0  0  0  0  0  0  0
   -7.9232    0.3319    0.1995 H   0  0  0  0  0  0  0  0  0  0  0  0
   -3.3552    3.0594   -1.0979 H   0  0  0  0  0  0  0  0  0  0  0  0
   -2.0380   -1.3802   -1.6093 H   0  0  0  0  0  0  0  0  0  0  0  0
   -2.7894   -3.4556   -1.2576 H   0  0  0  0  0  0  0  0  0  0  0  0
    0.2433   -1.3586   -1.7959 H   0  0  0  0  0  0  0  0  0  0  0  0
    0.3989   -3.1986    0.4069 H   0  0  0  0  0  0  0  0  0  0  0  0
  1  2  1  0
  1  3  1  0
  3  4  1  0
  4  5  1  0
  5  6  1  0
  5  7  1  0
  7  8  1  0
  8  9  1  0
  9 10  1  0
 10 11  1  0
 11 12  1  0
 12 13  2  0
 13 14  1  0
 14 15  2  0
 15 16  1  0
 15 17  1  0
 17 18  2  0
 18 19  1  0
 19 20  2  0
 10 21  1  0
 21 22  1  0
 21 23  1  0
 23 24  1  0
  1 25  1  0
 25 26  1  0
 25 27  2  0
 23  8  1  0
 20 11  1  0
 20 14  1  0
  1 28  1  1
  2 29  1  0
  2 30  1  0
  3 31  1  0
  3 32  1  0
  4 33  1  0
  4 34  1  0
  6 35  1  0
  6 36  1  0
  6 37  1  0
  7 38  1  0
  7 39  1  0
  8 40  1  1
 10 41  1  1
 12 42  1  0
 16 43  1  0
 16 44  1  0
 18 45  1  0
 21 46  1  6
 22 47  1  0
 23 48  1  6
 24 49  1  0
M  CHG  2   5   1  26  -1
M  END
$$$$
