
     RDKit          3D

 32 33  0  0  0  0  0  0  0  0999 V2000
   -3.4724    0.9856    3.0656 N   0  0  0  0  0  0  0  0  0  0  0  0
   -3.2981    0.6608    1.6887 C   0  0  0  0  0  0  0  0  0  0  0  0
   -4.3232    0.8758    0.8004 N   0  0  0  0  0  0  0  0  0  0  0  0
   -4.1920    0.5794   -0.5274 C   0  0  0  0  0  0  0  0  0  0  0  0
   -5.2677    0.8182   -1.4351 N   0  0  0  0  0  0  0  0  0  0  0  0
   -2.9800    0.0472   -0.9512 C   0  0  0  0  0  0  0  0  0  0  0  0
   -2.5838   -0.3040   -2.1898 N   0  0  0  0  0  0  0  0  0  0  0  0
   -1.3062   -0.7306   -1.9865 C   0  0  0  0  0  0  0  0  0  0  0  0
   -0.9175   -0.6622   -0.6874 N   0  0  0  0  0  0  0  0  0  0  0  0
    0.4018   -0.9577   -0.1349 C   0  0  0  0  0  0  0  0  0  0  0  0
    1.2757    0.2972   -0.1534 C   0  0  0  0  0  0  0  0  0  0  0  0
    2.5288    0.0277    0.4461 O   0  0  0  0  0  0  0  0  0  0  0  0
    3.4941   -0.2682   -0.5396 C   0  0  0  0  0  0  0  0  0  0  0  0
    5.0306   -0.7842    0.2769 P   0  0  0  0  0  5  0  0  0  0  0  0
    6.2064   -1.1272   -0.8908 O   0  0  0  0  0  0  0  0  0  0  0  0
    5.5810    0.4538    1.2910 O   0  0  0  0  0  0  0  0  0  0  0  0
    4.7688   -2.0246    1.1000 O   0  0  0  0  0  0  0  0  0  0  0  0
   -1.9858   -0.1593   -0.0584 C   0  0  0  0  0  0  0  0  0  0  0  0
   -2.1092    0.1382    1.2575 N   0  0  0  0  0  0  0  0  0  0  0  0
   -4.3757    1.3855    3.4039 H   0  0  0  0  0  0  0  0  0  0  0  0
   -2.6985    0.8267    3.7482 H   0  0  0  0  0  0  0  0  0  0  0  0
   -6.1664    1.2211   -1.0886 H   0  0  0  0  0  0  0  0  0  0  0  0
   -5.1739    0.5953   -2.4509 H   0  0  0  0  0  0  0  0  0  0  0  0
   -0.6635   -1.0767   -2.7857 H   0  0  0  0  0  0  0  0  0  0  0  0
    0.8813   -1.7626   -0.7321 H   0  0  0  0  0  0  0  0  0  0  0  0
    0.2969   -1.3244    0.9095 H   0  0  0  0  0  0  0  0  0  0  0  0
    1.3525    0.6984   -1.1926 H   0  0  0  0  0  0  0  0  0  0  0  0
    0.7734    1.0833    0.4497 H   0  0  0  0  0  0  0  0  0  0  0  0
    3.7141    0.6346   -1.1509 H   0  0  0  0  0  0  0  0  0  0  0  0
    3.1608   -1.0993   -1.2002 H   0  0  0  0  0  0  0  0  0  0  0  0
    6.3280   -0.2777   -1.3852 H   0  0  0  0  0  0  0  0  0  0  0  0
    5.7196    1.2298    0.6915 H   0  0  0  0  0  0  0  0  0  0  0  0
  1  2  1  0
  2  3  2  0
  3  4  1  0
  4  5  1  0
  4  6  2  0
  6  7  1  0
  7  8  2  0
  8  9  1  0
  9 10  1  0
 10 11  1  0
 11 12  1  0
 12 13  1  0
 13 14  1  0
 14 15  1  0
 14 16  1  0
 14 17  2  0
  9 18  1  0
 18 19  2  0
 19  2  1  0
 18  6  1  0
  1 20  1  0
  1 21  1  0
  5 22  1  0
  5 23  1  0
  8 24  1  0
 10 25  1  0
 10 26  1  0
 11 27  1  0
 11 28  1  0
 13 29  1  0
 13 30  1  0
 15 31  1  0
 16 32  1  0
M  END
$$$$
