
     RDKit          3D

 48 51  0  0  0  0  0  0  0  0999 V2000
    8.4805    2.4076    2.3645 C   0  0  0  0  0  0  0  0  0  0  0  0
    7.1338    1.9926    1.8797 C   0  0  0  0  0  0  0  0  0  0  0  0
    6.7684    1.9778    0.5845 N   0  0  0  0  0  0  0  0  0  0  0  0
    5.5231    1.5293    0.5576 N   0  0  0  0  0  0  0  0  0  0  0  0
    5.1785    1.2833    1.8377 C   0  0  0  0  0  0  0  0  0  0  0  0
    6.1672    1.5637    2.6542 O   0  0  0  0  0  0  0  0  0  0  0  0
    3.8641    0.7649    2.2656 C   0  0  0  0  0  0  0  0  0  0  0  0
    3.6049    0.5435    3.6245 C   0  0  0  0  0  0  0  0  0  0  0  0
    2.3669    0.0479    4.0366 C   0  0  0  0  0  0  0  0  0  0  0  0
    1.3631   -0.2430    3.0992 C   0  0  0  0  0  0  0  0  0  0  0  0
    0.0509   -0.7990    3.5881 C   0  0  0  0  0  0  0  0  0  0  0  0
    1.6046    0.0087    1.7261 C   0  0  0  0  0  0  0  0  0  0  0  0
    2.8599    0.4953    1.3231 C   0  0  0  0  0  0  0  0  0  0  0  0
    0.5730   -0.2312    0.6915 C   0  0  0  0  0  0  0  0  0  0  0  0
   -0.6453    0.4629    0.7250 C   0  0  0  0  0  0  0  0  0  0  0  0
   -1.6125    0.2418   -0.2594 C   0  0  0  0  0  0  0  0  0  0  0  0
   -1.3729   -0.6691   -1.3044 C   0  0  0  0  0  0  0  0  0  0  0  0
   -0.1484   -1.3607   -1.3345 C   0  0  0  0  0  0  0  0  0  0  0  0
    0.8180   -1.1377   -0.3498 C   0  0  0  0  0  0  0  0  0  0  0  0
   -2.3957   -0.9171   -2.3495 C   0  0  0  0  0  0  0  0  0  0  0  0
   -2.3171   -1.9566   -3.0603 O   0  0  0  0  0  0  0  0  0  0  0  0
   -3.4450    0.0348   -2.5946 N   0  0  0  0  0  0  0  0  0  0  0  0
   -4.6752   -0.2884   -3.2660 C   0  0  0  0  0  0  0  0  0  0  0  0
   -5.2596   -1.5642   -3.1524 C   0  0  0  0  0  0  0  0  0  0  0  0
   -6.4706   -1.8475   -3.7985 C   0  0  0  0  0  0  0  0  0  0  0  0
   -7.1100   -0.8547   -4.5503 C   0  0  0  0  0  0  0  0  0  0  0  0
   -6.5455    0.4193   -4.6491 C   0  0  0  0  0  0  0  0  0  0  0  0
   -5.3382    0.7038   -4.0050 C   0  0  0  0  0  0  0  0  0  0  0  0
   -7.0618   -3.1549   -3.6815 C   0  0  0  0  0  0  0  0  0  0  0  0
   -7.5370   -4.2059   -3.5874 N   0  0  0  0  0  0  0  0  0  0  0  0
    9.1861    1.5567    2.2687 H   0  0  0  0  0  0  0  0  0  0  0  0
    8.8517    3.2628    1.7619 H   0  0  0  0  0  0  0  0  0  0  0  0
    8.4200    2.7149    3.4295 H   0  0  0  0  0  0  0  0  0  0  0  0
    4.3619    0.7508    4.3708 H   0  0  0  0  0  0  0  0  0  0  0  0
    2.1953   -0.1182    5.0931 H   0  0  0  0  0  0  0  0  0  0  0  0
   -0.6862    0.0232    3.6961 H   0  0  0  0  0  0  0  0  0  0  0  0
    0.1711   -1.2966    4.5741 H   0  0  0  0  0  0  0  0  0  0  0  0
   -0.3424   -1.5591    2.8808 H   0  0  0  0  0  0  0  0  0  0  0  0
    3.0457    0.6780    0.2709 H   0  0  0  0  0  0  0  0  0  0  0  0
   -0.8449    1.1809    1.5106 H   0  0  0  0  0  0  0  0  0  0  0  0
   -2.5514    0.7748   -0.1891 H   0  0  0  0  0  0  0  0  0  0  0  0
    0.0670   -2.0685   -2.1253 H   0  0  0  0  0  0  0  0  0  0  0  0
    1.7553   -1.6789   -0.3944 H   0  0  0  0  0  0  0  0  0  0  0  0
   -3.2571    1.0394   -2.3768 H   0  0  0  0  0  0  0  0  0  0  0  0
   -4.7893   -2.3286   -2.5463 H   0  0  0  0  0  0  0  0  0  0  0  0
   -8.0470   -1.0631   -5.0528 H   0  0  0  0  0  0  0  0  0  0  0  0
   -7.0450    1.1881   -5.2243 H   0  0  0  0  0  0  0  0  0  0  0  0
   -4.9131    1.6962   -4.0890 H   0  0  0  0  0  0  0  0  0  0  0  0
  1  2  1  0
  2  3  2  0
  3  4  1  0
  4  5  2  0
  5  6  1  0
  5  7  1  0
  7  8  2  0
  8  9  1  0
  9 10  2  0
 10 11  1  0
 10 12  1  0
 12 13  2  0
 12 14  1  0
 14 15  2  0
 15 16  1  0
 16 17  2  0
 17 18  1  0
 18 19  2  0
 17 20  1  0
 20 21  2  0
 20 22  1  0
 22 23  1  0
 23 24  2  0
 24 25  1  0
 25 26  2  0
 26 27  1  0
 27 28  2  0
 25 29  1  0
 29 30  3  0
  6  2  1  0
 13  7  1  0
 19 14  1  0
 28 23  1  0
  1 31  1  0
  1 32  1  0
  1 33  1  0
  8 34  1  0
  9 35  1  0
 11 36  1  0
 11 37  1  0
 11 38  1  0
 13 39  1  0
 15 40  1  0
 16 41  1  0
 18 42  1  0
 19 43  1  0
 22 44  1  0
 24 45  1  0
 26 46  1  0
 27 47  1  0
 28 48  1  0
M  END
$$$$
