
     RDKit          3D

 43 45  0  0  0  0  0  0  0  0999 V2000
    0.9074    1.1837   -0.3724 C   0  0  1  0  0  0  0  0  0  0  0  0
    1.7772    0.0644    0.2144 C   0  0  0  0  0  0  0  0  0  0  0  0
    2.8427    0.6310    0.9419 O   0  0  0  0  0  0  0  0  0  0  0  0
    3.8166   -0.6334    1.5466 P   0  0  0  0  0  5  0  0  0  0  0  0
    5.0860    0.0286    2.4503 O   0  0  0  0  0  0  0  0  0  0  0  0
    2.9924   -1.5127    2.4608 O   0  0  0  0  0  0  0  0  0  0  0  0
    4.4273   -1.5886    0.2753 O   0  0  0  0  0  0  0  0  0  0  0  0
    5.4802   -0.6170   -0.6457 P   0  0  0  0  0  5  0  0  0  0  0  0
    6.0076   -1.5131   -1.9799 O   0  0  0  0  0  0  0  0  0  0  0  0
    6.8286   -0.1695    0.2753 O   0  0  0  0  0  0  0  0  0  0  0  0
    4.7708    0.6219   -1.1463 O   0  0  0  0  0  0  0  0  0  0  0  0
   -0.0601    0.6105   -1.2290 O   0  0  0  0  0  0  0  0  0  0  0  0
   -1.3358    0.8766   -0.6883 C   0  0  1  0  0  0  0  0  0  0  0  0
   -2.1677   -0.3263   -0.7444 N   0  0  0  0  0  0  0  0  0  0  0  0
   -1.7851   -1.6180   -0.5638 C   0  0  0  0  0  0  0  0  0  0  0  0
   -2.8263   -2.4960   -0.5747 N   0  0  0  0  0  0  0  0  0  0  0  0
   -3.8904   -1.6919   -0.7601 C   0  0  0  0  0  0  0  0  0  0  0  0
   -5.2409   -2.0142   -0.8313 C   0  0  0  0  0  0  0  0  0  0  0  0
   -5.6990   -3.3628   -0.7337 N   0  0  0  0  0  0  0  0  0  0  0  0
   -6.1288   -0.9877   -0.9937 N   0  0  0  0  0  0  0  0  0  0  0  0
   -5.7073    0.3154   -1.0804 C   0  0  0  0  0  0  0  0  0  0  0  0
   -4.3766    0.6207   -1.0064 N   0  0  0  0  0  0  0  0  0  0  0  0
   -3.4994   -0.4006   -0.8523 C   0  0  0  0  0  0  0  0  0  0  0  0
   -1.1725    1.3504    0.7464 C   0  0  2  0  0  0  0  0  0  0  0  0
   -2.1964    2.2435    1.1016 O   0  0  0  0  0  0  0  0  0  0  0  0
    0.1961    1.9930    0.7241 C   0  0  2  0  0  0  0  0  0  0  0  0
    0.1203    3.4079    0.3435 N   0  0  0  0  0  0  0  0  0  0  0  0
    1.5675    1.8404   -0.9817 H   0  0  0  0  0  0  0  0  0  0  0  0
    2.1634   -0.5468   -0.6329 H   0  0  0  0  0  0  0  0  0  0  0  0
    1.1447   -0.5783    0.8683 H   0  0  0  0  0  0  0  0  0  0  0  0
    4.6474    0.6511    3.0835 H   0  0  0  0  0  0  0  0  0  0  0  0
    6.4636   -2.3006   -1.5890 H   0  0  0  0  0  0  0  0  0  0  0  0
    7.4100    0.3286   -0.3531 H   0  0  0  0  0  0  0  0  0  0  0  0
   -1.8048    1.6794   -1.3016 H   0  0  0  0  0  0  0  0  0  0  0  0
   -0.7581   -1.9229   -0.4100 H   0  0  0  0  0  0  0  0  0  0  0  0
   -5.0263   -4.1516   -0.6081 H   0  0  0  0  0  0  0  0  0  0  0  0
   -6.7198   -3.5750   -0.7879 H   0  0  0  0  0  0  0  0  0  0  0  0
   -6.4332    1.1068   -1.2061 H   0  0  0  0  0  0  0  0  0  0  0  0
   -1.1615    0.4747    1.4390 H   0  0  0  0  0  0  0  0  0  0  0  0
   -2.1342    2.3631    2.0851 H   0  0  0  0  0  0  0  0  0  0  0  0
    0.6906    1.8998    1.7187 H   0  0  0  0  0  0  0  0  0  0  0  0
    1.0962    3.7773    0.2686 H   0  0  0  0  0  0  0  0  0  0  0  0
   -0.3128    3.9382    1.1341 H   0  0  0  0  0  0  0  0  0  0  0  0
  1  2  1  0
  2  3  1  0
  3  4  1  0
  4  5  1  0
  4  6  2  0
  4  7  1  0
  7  8  1  0
  8  9  1  0
  8 10  1  0
  8 11  2  0
  1 12  1  0
 12 13  1  0
 13 14  1  0
 14 15  1  0
 15 16  2  0
 16 17  1  0
 17 18  2  0
 18 19  1  0
 18 20  1  0
 20 21  2  0
 21 22  1  0
 22 23  2  0
 13 24  1  0
 24 25  1  0
 24 26  1  0
 26 27  1  0
 26  1  1  0
 23 14  1  0
 23 17  1  0
  1 28  1  6
  2 29  1  0
  2 30  1  0
  5 31  1  0
  9 32  1  0
 10 33  1  0
 13 34  1  6
 15 35  1  0
 19 36  1  0
 19 37  1  0
 21 38  1  0
 24 39  1  1
 25 40  1  0
 26 41  1  1
 27 42  1  0
 27 43  1  0
M  END
$$$$
