
     RDKit          3D

 36 35  0  0  0  0  0  0  0  0999 V2000
   -1.2566    0.7793    3.0002 O   0  0  0  0  0  0  0  0  0  0  0  0
   -0.9447    0.4582    1.6677 C   0  0  2  0  0  0  0  0  0  0  0  0
   -2.2558    0.1729    0.9186 C   0  0  0  0  0  0  0  0  0  0  0  0
   -3.0773    1.3158    0.9842 O   0  0  0  0  0  0  0  0  0  0  0  0
   -4.5374    0.9816    0.1680 P   0  0  0  0  0  5  0  0  0  0  0  0
   -4.2195    0.5069   -1.4266 O   0  0  0  0  0  0  0  0  0  0  0  0
   -5.4838    2.3843    0.1519 O   0  0  0  0  0  0  0  0  0  0  0  0
   -5.2903   -0.1169    0.8860 O   0  0  0  0  0  0  0  0  0  0  0  0
    0.0602   -0.7294    1.6502 C   0  0  1  0  0  0  0  0  0  0  0  0
   -0.4513   -1.8082    2.3963 O   0  0  0  0  0  0  0  0  0  0  0  0
    0.5434   -1.2119    0.2445 C   0  0  2  0  0  0  0  0  0  0  0  0
    1.3335   -2.3657    0.4073 O   0  0  0  0  0  0  0  0  0  0  0  0
    1.3307   -0.1260   -0.5505 C   0  0  2  0  0  0  0  0  0  0  0  0
    0.4736    0.8977   -0.9919 O   0  0  0  0  0  0  0  0  0  0  0  0
    2.0903   -0.7204   -1.7572 C   0  0  0  0  0  0  0  0  0  0  0  0
    2.6580    0.3126   -2.5378 O   0  0  0  0  0  0  0  0  0  0  0  0
    4.3215    0.4776   -2.1811 P   0  0  0  0  0  5  0  0  0  0  0  0
    5.1708   -0.8679   -2.7628 O   0  0  0  0  0  0  0  0  0  0  0  0
    4.9081    1.8631   -2.9541 O   0  0  0  0  0  0  0  0  0  0  0  0
    4.5385    0.6185   -0.6900 O   0  0  0  0  0  0  0  0  0  0  0  0
   -0.4684    1.2511    3.3777 H   0  0  0  0  0  0  0  0  0  0  0  0
   -0.4697    1.3468    1.1962 H   0  0  0  0  0  0  0  0  0  0  0  0
   -2.0275   -0.0645   -0.1413 H   0  0  0  0  0  0  0  0  0  0  0  0
   -2.7625   -0.6954    1.3959 H   0  0  0  0  0  0  0  0  0  0  0  0
   -5.1102    0.3295   -1.8215 H   0  0  0  0  0  0  0  0  0  0  0  0
   -6.3048    2.1315   -0.3410 H   0  0  0  0  0  0  0  0  0  0  0  0
    0.9658   -0.3765    2.1914 H   0  0  0  0  0  0  0  0  0  0  0  0
   -1.1294   -2.2701    1.8383 H   0  0  0  0  0  0  0  0  0  0  0  0
   -0.3362   -1.5193   -0.3580 H   0  0  0  0  0  0  0  0  0  0  0  0
    2.1335   -2.1083    0.9372 H   0  0  0  0  0  0  0  0  0  0  0  0
    2.0800    0.3289    0.1310 H   0  0  0  0  0  0  0  0  0  0  0  0
   -0.1642    0.4986   -1.6400 H   0  0  0  0  0  0  0  0  0  0  0  0
    1.3627   -1.2621   -2.3987 H   0  0  0  0  0  0  0  0  0  0  0  0
    2.8249   -1.4890   -1.4253 H   0  0  0  0  0  0  0  0  0  0  0  0
    5.1746   -1.5187   -2.0163 H   0  0  0  0  0  0  0  0  0  0  0  0
    4.3193    2.5953   -2.6406 H   0  0  0  0  0  0  0  0  0  0  0  0
  1  2  1  0
  2  3  1  0
  3  4  1  0
  4  5  1  0
  5  6  1  0
  5  7  1  0
  5  8  2  0
  2  9  1  0
  9 10  1  0
  9 11  1  0
 11 12  1  0
 11 13  1  0
 13 14  1  0
 13 15  1  0
 15 16  1  0
 16 17  1  0
 17 18  1  0
 17 19  1  0
 17 20  2  0
  1 21  1  0
  2 22  1  6
  3 23  1  0
  3 24  1  0
  6 25  1  0
  7 26  1  0
  9 27  1  1
 10 28  1  0
 11 29  1  6
 12 30  1  0
 13 31  1  1
 14 32  1  0
 15 33  1  0
 15 34  1  0
 18 35  1  0
 19 36  1  0
M  END
$$$$
