
     RDKit          3D

 44 46  0  0  0  0  0  0  0  0999 V2000
    8.1503   -0.6959   -0.2718 C   0  0  0  0  0  0  0  0  0  0  0  0
    6.7499   -0.8934   -0.7525 C   0  0  0  0  0  0  0  0  0  0  0  0
    6.4964   -0.8062   -1.9846 O   0  0  0  0  0  0  0  0  0  0  0  0
    5.7128   -1.2230    0.1814 N   0  0  0  0  0  0  0  0  0  0  0  0
    4.3217   -1.4192   -0.2225 C   0  0  0  0  0  0  0  0  0  0  0  0
    3.6535   -0.0739   -0.5344 C   0  0  1  0  0  0  0  0  0  0  0  0
    2.1550   -0.2412   -0.9169 C   0  0  0  0  0  0  0  0  0  0  0  0
    1.4085    0.4465    0.1326 N   0  0  0  0  0  0  0  0  0  0  0  0
    2.3627    1.0404    0.9938 C   0  0  0  0  0  0  0  0  0  0  0  0
    2.0743    1.8009    1.9548 O   0  0  0  0  0  0  0  0  0  0  0  0
    3.6554    0.7514    0.6263 O   0  0  0  0  0  0  0  0  0  0  0  0
   -0.0264    0.4544    0.2727 C   0  0  0  0  0  0  0  0  0  0  0  0
   -0.8482    0.3545   -0.8629 C   0  0  0  0  0  0  0  0  0  0  0  0
   -2.2408    0.3523   -0.7372 C   0  0  0  0  0  0  0  0  0  0  0  0
   -3.0076    0.2300   -1.8499 F   0  0  0  0  0  0  0  0  0  0  0  0
   -2.8370    0.4431    0.5304 C   0  0  0  0  0  0  0  0  0  0  0  0
   -2.0195    0.5195    1.6683 C   0  0  0  0  0  0  0  0  0  0  0  0
   -0.6279    0.5239    1.5415 C   0  0  0  0  0  0  0  0  0  0  0  0
   -4.2694    0.4401    0.6607 N   0  0  0  0  0  0  0  0  0  0  0  0
   -4.9155   -0.4151    1.6593 C   0  0  0  0  0  0  0  0  0  0  0  0
   -6.3364   -0.7557    1.1991 C   0  0  0  0  0  0  0  0  0  0  0  0
   -7.0567    0.4199    0.8771 O   0  0  0  0  0  0  0  0  0  0  0  0
   -6.4611    1.0582   -0.2374 C   0  0  0  0  0  0  0  0  0  0  0  0
   -5.0512    1.5481    0.1059 C   0  0  0  0  0  0  0  0  0  0  0  0
    8.5959   -1.6801   -0.0179 H   0  0  0  0  0  0  0  0  0  0  0  0
    8.7667   -0.2093   -1.0574 H   0  0  0  0  0  0  0  0  0  0  0  0
    8.1497   -0.0506    0.6315 H   0  0  0  0  0  0  0  0  0  0  0  0
    5.9669   -1.3798    1.1830 H   0  0  0  0  0  0  0  0  0  0  0  0
    3.7703   -1.9187    0.6043 H   0  0  0  0  0  0  0  0  0  0  0  0
    4.2799   -2.0850   -1.1119 H   0  0  0  0  0  0  0  0  0  0  0  0
    4.1963    0.4443   -1.3544 H   0  0  0  0  0  0  0  0  0  0  0  0
    1.8446   -1.3081   -0.9659 H   0  0  0  0  0  0  0  0  0  0  0  0
    1.9615    0.2452   -1.8970 H   0  0  0  0  0  0  0  0  0  0  0  0
   -0.4140    0.2846   -1.8511 H   0  0  0  0  0  0  0  0  0  0  0  0
   -2.4601    0.5808    2.6551 H   0  0  0  0  0  0  0  0  0  0  0  0
   -0.0272    0.5552    2.4396 H   0  0  0  0  0  0  0  0  0  0  0  0
   -4.9595    0.1212    2.6320 H   0  0  0  0  0  0  0  0  0  0  0  0
   -4.3399   -1.3571    1.7932 H   0  0  0  0  0  0  0  0  0  0  0  0
   -6.3073   -1.4579    0.3346 H   0  0  0  0  0  0  0  0  0  0  0  0
   -6.8628   -1.2778    2.0256 H   0  0  0  0  0  0  0  0  0  0  0  0
   -6.4324    0.3800   -1.1209 H   0  0  0  0  0  0  0  0  0  0  0  0
   -7.0838    1.9335   -0.5181 H   0  0  0  0  0  0  0  0  0  0  0  0
   -5.1149    2.3620    0.8603 H   0  0  0  0  0  0  0  0  0  0  0  0
   -4.5726    1.9577   -0.8091 H   0  0  0  0  0  0  0  0  0  0  0  0
  1  2  1  0
  2  3  2  0
  2  4  1  0
  4  5  1  0
  5  6  1  0
  6  7  1  0
  7  8  1  0
  8  9  1  0
  9 10  2  0
  9 11  1  0
  8 12  1  0
 12 13  2  0
 13 14  1  0
 14 15  1  0
 14 16  2  0
 16 17  1  0
 17 18  2  0
 16 19  1  0
 19 20  1  0
 20 21  1  0
 21 22  1  0
 22 23  1  0
 23 24  1  0
 11  6  1  0
 18 12  1  0
 24 19  1  0
  1 25  1  0
  1 26  1  0
  1 27  1  0
  4 28  1  0
  5 29  1  0
  5 30  1  0
  6 31  1  6
  7 32  1  0
  7 33  1  0
 13 34  1  0
 17 35  1  0
 18 36  1  0
 20 37  1  0
 20 38  1  0
 21 39  1  0
 21 40  1  0
 23 41  1  0
 23 42  1  0
 24 43  1  0
 24 44  1  0
M  END
$$$$
