
     RDKit          3D

 45 48  0  0  0  0  0  0  0  0999 V2000
    7.2806    0.6696    2.3071 Cl  0  0  0  0  0  0  0  0  0  0  0  0
    6.5725   -0.4240    1.1323 C   0  0  0  0  0  0  0  0  0  0  0  0
    7.3813   -1.3435    0.4572 C   0  0  0  0  0  0  0  0  0  0  0  0
    6.8147   -2.2283   -0.4634 C   0  0  0  0  0  0  0  0  0  0  0  0
    5.4406   -2.1902   -0.7183 C   0  0  0  0  0  0  0  0  0  0  0  0
    4.6229   -1.2550   -0.0655 C   0  0  0  0  0  0  0  0  0  0  0  0
    3.2093   -1.2504   -0.3271 N   0  0  0  0  0  0  0  0  0  0  0  0
    2.3976   -0.0678   -0.3505 C   0  0  0  0  0  0  0  0  0  0  0  0
    1.0298   -0.1915   -0.3783 N   0  0  0  0  0  0  0  0  0  0  0  0
    0.2122    0.9043   -0.4296 C   0  0  0  0  0  0  0  0  0  0  0  0
   -1.1791    0.7824   -0.4519 O   0  0  0  0  0  0  0  0  0  0  0  0
   -1.8413   -0.4782   -0.4128 C   0  0  0  0  0  0  0  0  0  0  0  0
   -3.3631   -0.2733   -0.4415 C   0  0  0  0  0  0  0  0  0  0  0  0
   -4.0959   -1.6314   -0.5941 C   0  0  0  0  0  0  0  0  0  0  0  0
   -5.5398   -1.6180   -0.0500 C   0  0  0  0  0  0  0  0  0  0  0  0
   -6.1593   -0.2188   -0.1087 C   0  0  0  0  0  0  0  0  0  0  0  0
   -5.3601    0.7914    0.7382 C   0  0  0  0  0  0  0  0  0  0  0  0
   -3.8517    0.4751    0.8140 C   0  0  0  0  0  0  0  0  0  0  0  0
    0.8175    2.1506   -0.4607 C   0  0  0  0  0  0  0  0  0  0  0  0
    0.2745    3.3713   -0.5144 N   0  0  0  0  0  0  0  0  0  0  0  0
    1.3500    4.1992   -0.5294 C   0  0  0  0  0  0  0  0  0  0  0  0
    2.5444    3.5464   -0.4879 N   0  0  0  0  0  0  0  0  0  0  0  0
    2.1634    2.2589   -0.4448 C   0  0  0  0  0  0  0  0  0  0  0  0
    2.9737    1.1753   -0.3955 N   0  0  0  0  0  0  0  0  0  0  0  0
    5.1965   -0.3835    0.8789 C   0  0  0  0  0  0  0  0  0  0  0  0
    8.4457   -1.3790    0.6514 H   0  0  0  0  0  0  0  0  0  0  0  0
    7.4402   -2.9458   -0.9787 H   0  0  0  0  0  0  0  0  0  0  0  0
    5.0130   -2.8824   -1.4328 H   0  0  0  0  0  0  0  0  0  0  0  0
    2.7549   -2.1526   -0.5956 H   0  0  0  0  0  0  0  0  0  0  0  0
   -1.5478   -1.0264    0.5098 H   0  0  0  0  0  0  0  0  0  0  0  0
   -1.5322   -1.0773   -1.2977 H   0  0  0  0  0  0  0  0  0  0  0  0
   -3.6021    0.3536   -1.3307 H   0  0  0  0  0  0  0  0  0  0  0  0
   -4.1150   -1.9027   -1.6725 H   0  0  0  0  0  0  0  0  0  0  0  0
   -3.5383   -2.4357   -0.0649 H   0  0  0  0  0  0  0  0  0  0  0  0
   -5.5410   -1.9658    1.0068 H   0  0  0  0  0  0  0  0  0  0  0  0
   -6.1644   -2.3263   -0.6360 H   0  0  0  0  0  0  0  0  0  0  0  0
   -6.1847    0.1206   -1.1678 H   0  0  0  0  0  0  0  0  0  0  0  0
   -7.2086   -0.2601    0.2554 H   0  0  0  0  0  0  0  0  0  0  0  0
   -5.7711    0.8126    1.7711 H   0  0  0  0  0  0  0  0  0  0  0  0
   -5.5030    1.8058    0.3059 H   0  0  0  0  0  0  0  0  0  0  0  0
   -3.6532   -0.1513    1.7122 H   0  0  0  0  0  0  0  0  0  0  0  0
   -3.2922    1.4276    0.9401 H   0  0  0  0  0  0  0  0  0  0  0  0
   -0.7368    3.6300   -0.5404 H   0  0  0  0  0  0  0  0  0  0  0  0
    1.2672    5.2772   -0.5715 H   0  0  0  0  0  0  0  0  0  0  0  0
    4.5782    0.3077    1.4363 H   0  0  0  0  0  0  0  0  0  0  0  0
  1  2  1  0
  2  3  2  0
  3  4  1  0
  4  5  2  0
  5  6  1  0
  6  7  1  0
  7  8  1  0
  8  9  2  0
  9 10  1  0
 10 11  1  0
 11 12  1  0
 12 13  1  0
 13 14  1  0
 14 15  1  0
 15 16  1  0
 16 17  1  0
 17 18  1  0
 10 19  2  0
 19 20  1  0
 20 21  1  0
 21 22  2  0
 22 23  1  0
 23 24  2  0
  6 25  2  0
 25  2  1  0
 24  8  1  0
 18 13  1  0
 23 19  1  0
  3 26  1  0
  4 27  1  0
  5 28  1  0
  7 29  1  0
 12 30  1  0
 12 31  1  0
 13 32  1  0
 14 33  1  0
 14 34  1  0
 15 35  1  0
 15 36  1  0
 16 37  1  0
 16 38  1  0
 17 39  1  0
 17 40  1  0
 18 41  1  0
 18 42  1  0
 20 43  1  0
 21 44  1  0
 25 45  1  0
M  END
$$$$
