
     RDKit          3D

 25 25  0  0  0  0  0  0  0  0999 V2000
   -1.7059    0.0171    0.1135 C   0  0  1  0  0  0  0  0  0  0  0  0
   -1.5387   -1.0860    1.0644 N   0  0  0  0  0  0  0  0  0  0  0  0
   -0.7243   -0.1273   -1.0625 C   0  0  0  0  0  0  0  0  0  0  0  0
    0.7072   -0.0554   -0.5957 C   0  0  0  0  0  0  0  0  0  0  0  0
    1.4247   -1.2306   -0.3176 C   0  0  0  0  0  0  0  0  0  0  0  0
    2.7431   -1.1594    0.1425 C   0  0  0  0  0  0  0  0  0  0  0  0
    3.3547    0.0867    0.3365 C   0  0  0  0  0  0  0  0  0  0  0  0
    4.6676    0.1700    0.7945 O   0  0  0  0  0  0  0  0  0  0  0  0
    2.6403    1.2592    0.0703 C   0  0  0  0  0  0  0  0  0  0  0  0
    1.3217    1.1907   -0.3898 C   0  0  0  0  0  0  0  0  0  0  0  0
   -3.1260    0.0763   -0.3959 C   0  0  0  0  0  0  0  0  0  0  0  0
   -3.8731    1.2908   -0.3192 N   0  0  0  0  0  0  0  0  0  0  0  0
   -3.6533   -0.9441   -0.9156 O   0  0  0  0  0  0  0  0  0  0  0  0
   -1.4762    0.9685    0.6432 H   0  0  0  0  0  0  0  0  0  0  0  0
   -1.7881   -1.9910    0.6020 H   0  0  0  0  0  0  0  0  0  0  0  0
   -2.2023   -0.9457    1.8610 H   0  0  0  0  0  0  0  0  0  0  0  0
   -0.9067    0.6868   -1.7989 H   0  0  0  0  0  0  0  0  0  0  0  0
   -0.9050   -1.0883   -1.5936 H   0  0  0  0  0  0  0  0  0  0  0  0
    0.9629   -2.2005   -0.4550 H   0  0  0  0  0  0  0  0  0  0  0  0
    3.2869   -2.0720    0.3505 H   0  0  0  0  0  0  0  0  0  0  0  0
    5.2113   -0.6608    0.9971 H   0  0  0  0  0  0  0  0  0  0  0  0
    3.1064    2.2244    0.2228 H   0  0  0  0  0  0  0  0  0  0  0  0
    0.7787    2.1074   -0.5841 H   0  0  0  0  0  0  0  0  0  0  0  0
   -3.4533    2.1547    0.0900 H   0  0  0  0  0  0  0  0  0  0  0  0
   -4.8526    1.3289   -0.6790 H   0  0  0  0  0  0  0  0  0  0  0  0
  1  2  1  0
  1  3  1  0
  3  4  1  0
  4  5  2  0
  5  6  1  0
  6  7  2  0
  7  8  1  0
  7  9  1  0
  9 10  2  0
  1 11  1  0
 11 12  1  0
 11 13  2  0
 10  4  1  0
  1 14  1  1
  2 15  1  0
  2 16  1  0
  3 17  1  0
  3 18  1  0
  5 19  1  0
  6 20  1  0
  8 21  1  0
  9 22  1  0
 10 23  1  0
 12 24  1  0
 12 25  1  0
M  END
$$$$
