
     RDKit          3D

 40 41  0  0  0  0  0  0  0  0999 V2000
   -3.3712   -1.9000   -1.4234 C   0  0  0  0  0  0  0  0  0  0  0  0
   -2.3440   -1.2667   -0.4730 C   0  0  2  0  0  0  0  0  0  0  0  0
   -2.6956   -1.5201    1.0036 C   0  0  0  0  0  0  0  0  0  0  0  0
   -2.4739   -3.2716    1.4588 S   0  0  0  0  0  0  0  0  0  0  0  0
   -2.2461    0.2224   -0.7227 C   0  0  0  0  0  0  0  0  0  0  0  0
   -3.3068    0.8987   -0.8257 O   0  0  0  0  0  0  0  0  0  0  0  0
   -0.9707    0.8907   -0.7997 N   0  0  0  0  0  0  0  0  0  0  0  0
    0.2848    0.2974   -0.3671 C   0  0  0  0  0  0  0  0  0  0  0  0
    1.2525    1.4663   -0.2027 C   0  0  2  0  0  0  0  0  0  0  0  0
    0.6777    2.5866   -1.0679 C   0  0  0  0  0  0  0  0  0  0  0  0
   -0.8243    2.3002   -1.1447 C   0  0  1  0  0  0  0  0  0  0  0  0
   -1.3700    2.5882   -2.5160 C   0  0  0  0  0  0  0  0  0  0  0  0
   -2.1104    3.7455   -2.7343 O   0  0  0  0  0  0  0  0  0  0  0  0
   -1.1333    1.8034   -3.4741 O   0  0  0  0  0  0  0  0  0  0  0  0
    2.9605    1.0347   -0.7060 S   0  0  0  0  0  0  0  0  0  0  0  0
    3.2759   -0.0017    0.7257 C   0  0  0  0  0  0  0  0  0  0  0  0
    3.7696    0.5661    1.9073 C   0  0  0  0  0  0  0  0  0  0  0  0
    4.0113   -0.2404    3.0241 C   0  0  0  0  0  0  0  0  0  0  0  0
    3.7649   -1.6155    2.9610 C   0  0  0  0  0  0  0  0  0  0  0  0
    3.2792   -2.1857    1.7801 C   0  0  0  0  0  0  0  0  0  0  0  0
    3.0379   -1.3811    0.6620 C   0  0  0  0  0  0  0  0  0  0  0  0
   -4.3996   -1.5514   -1.1870 H   0  0  0  0  0  0  0  0  0  0  0  0
   -3.1342   -1.6295   -2.4748 H   0  0  0  0  0  0  0  0  0  0  0  0
   -3.3414   -3.0068   -1.3466 H   0  0  0  0  0  0  0  0  0  0  0  0
   -1.3642   -1.7413   -0.6917 H   0  0  0  0  0  0  0  0  0  0  0  0
   -3.7399   -1.2069    1.2203 H   0  0  0  0  0  0  0  0  0  0  0  0
   -2.0201   -0.9244    1.6543 H   0  0  0  0  0  0  0  0  0  0  0  0
   -3.7408   -3.6471    0.9733 H   0  0  0  0  0  0  0  0  0  0  0  0
    0.1593   -0.2285    0.6039 H   0  0  0  0  0  0  0  0  0  0  0  0
    0.6370   -0.4150   -1.1441 H   0  0  0  0  0  0  0  0  0  0  0  0
    1.2457    1.8047    0.8581 H   0  0  0  0  0  0  0  0  0  0  0  0
    1.1397    2.5555   -2.0806 H   0  0  0  0  0  0  0  0  0  0  0  0
    0.8745    3.5832   -0.6159 H   0  0  0  0  0  0  0  0  0  0  0  0
   -1.3615    2.9154   -0.3890 H   0  0  0  0  0  0  0  0  0  0  0  0
   -2.4763    3.9622   -3.6537 H   0  0  0  0  0  0  0  0  0  0  0  0
    3.9598    1.6304    1.9626 H   0  0  0  0  0  0  0  0  0  0  0  0
    4.3888    0.2002    3.9378 H   0  0  0  0  0  0  0  0  0  0  0  0
    3.9515   -2.2389    3.8259 H   0  0  0  0  0  0  0  0  0  0  0  0
    3.0904   -3.2503    1.7311 H   0  0  0  0  0  0  0  0  0  0  0  0
    2.6631   -1.8289   -0.2494 H   0  0  0  0  0  0  0  0  0  0  0  0
  1  2  1  0
  2  3  1  0
  3  4  1  0
  2  5  1  0
  5  6  2  0
  5  7  1  0
  7  8  1  0
  8  9  1  0
  9 10  1  0
 10 11  1  0
 11 12  1  0
 12 13  1  0
 12 14  2  0
  9 15  1  0
 15 16  1  0
 16 17  2  0
 17 18  1  0
 18 19  2  0
 19 20  1  0
 20 21  2  0
 11  7  1  0
 21 16  1  0
  1 22  1  0
  1 23  1  0
  1 24  1  0
  2 25  1  6
  3 26  1  0
  3 27  1  0
  4 28  1  0
  8 29  1  0
  8 30  1  0
  9 31  1  1
 10 32  1  0
 10 33  1  0
 11 34  1  1
 13 35  1  0
 17 36  1  0
 18 37  1  0
 19 38  1  0
 20 39  1  0
 21 40  1  0
M  END
$$$$
