
     RDKit          3D

 63 64  0  0  0  0  0  0  0  0999 V2000
    6.5852   -0.9605    0.7594 C   0  0  1  0  0  0  0  0  0  0  0  0
    7.3786   -0.7183   -0.4499 N   0  0  0  0  0  0  0  0  0  0  0  0
    6.0238    0.3431    1.3753 C   0  0  0  0  0  0  0  0  0  0  0  0
    4.9736    1.0292    0.5338 C   0  0  0  0  0  0  0  0  0  0  0  0
    5.3432    1.9841   -0.4291 C   0  0  0  0  0  0  0  0  0  0  0  0
    4.3675    2.6219   -1.2013 C   0  0  0  0  0  0  0  0  0  0  0  0
    3.0163    2.3214   -1.0108 C   0  0  0  0  0  0  0  0  0  0  0  0
    2.6387    1.3840   -0.0466 C   0  0  0  0  0  0  0  0  0  0  0  0
    3.6117    0.7364    0.7212 C   0  0  0  0  0  0  0  0  0  0  0  0
    5.5145   -1.9988    0.5161 C   0  0  0  0  0  0  0  0  0  0  0  0
    5.2777   -2.8473    1.4187 O   0  0  0  0  0  0  0  0  0  0  0  0
    4.7521   -2.0214   -0.7028 N   0  0  0  0  0  0  0  0  0  0  0  0
    3.7938   -3.0837   -1.0059 C   0  0  0  0  0  0  0  0  0  0  0  0
    2.4761   -2.8543   -0.2637 C   0  0  0  0  0  0  0  0  0  0  0  0
    1.9319   -1.5948   -0.6099 O   0  0  0  0  0  0  0  0  0  0  0  0
    0.9849   -1.7042   -1.6551 C   0  0  0  0  0  0  0  0  0  0  0  0
   -0.4291   -1.8385   -1.0878 C   0  0  0  0  0  0  0  0  0  0  0  0
   -0.7740   -0.6778   -0.3517 O   0  0  0  0  0  0  0  0  0  0  0  0
   -0.6795   -0.8973    1.0441 C   0  0  0  0  0  0  0  0  0  0  0  0
   -2.0062   -1.4106    1.6092 C   0  0  0  0  0  0  0  0  0  0  0  0
   -3.0756   -0.4437    1.3654 N   0  0  0  0  0  0  0  0  0  0  0  0
   -3.9526   -0.5307    0.2293 C   0  0  0  0  0  0  0  0  0  0  0  0
   -3.7758   -1.4395   -0.6279 O   0  0  0  0  0  0  0  0  0  0  0  0
   -5.0540    0.4431    0.0359 C   0  0  0  0  0  0  0  0  0  0  0  0
   -5.6204    1.1276    1.1269 C   0  0  0  0  0  0  0  0  0  0  0  0
   -6.6616    2.0393    0.9285 C   0  0  0  0  0  0  0  0  0  0  0  0
   -7.1533    2.2812   -0.3597 C   0  0  0  0  0  0  0  0  0  0  0  0
   -6.6080    1.5897   -1.4480 C   0  0  0  0  0  0  0  0  0  0  0  0
   -5.5676    0.6767   -1.2526 C   0  0  0  0  0  0  0  0  0  0  0  0
   -8.4749    3.4186   -0.6022 S   0  0  0  0  0  6  0  0  0  0  0  0
   -9.9831    2.5940   -0.4210 N   0  0  0  0  0  0  0  0  0  0  0  0
   -8.3905    4.0117   -1.9807 O   0  0  0  0  0  0  0  0  0  0  0  0
   -8.3807    4.5290    0.4069 O   0  0  0  0  0  0  0  0  0  0  0  0
    7.2787   -1.3894    1.5182 H   0  0  0  0  0  0  0  0  0  0  0  0
    6.8304   -0.1663   -1.1452 H   0  0  0  0  0  0  0  0  0  0  0  0
    8.2095   -0.1379   -0.1909 H   0  0  0  0  0  0  0  0  0  0  0  0
    5.5961    0.1091    2.3753 H   0  0  0  0  0  0  0  0  0  0  0  0
    6.8646    1.0463    1.5626 H   0  0  0  0  0  0  0  0  0  0  0  0
    6.3858    2.2345   -0.5810 H   0  0  0  0  0  0  0  0  0  0  0  0
    4.6589    3.3525   -1.9447 H   0  0  0  0  0  0  0  0  0  0  0  0
    2.2619    2.8176   -1.6074 H   0  0  0  0  0  0  0  0  0  0  0  0
    1.5915    1.1564    0.1032 H   0  0  0  0  0  0  0  0  0  0  0  0
    3.3041    0.0079    1.4613 H   0  0  0  0  0  0  0  0  0  0  0  0
    4.9061   -1.2874   -1.4284 H   0  0  0  0  0  0  0  0  0  0  0  0
    4.2209   -4.0715   -0.7279 H   0  0  0  0  0  0  0  0  0  0  0  0
    3.5982   -3.1001   -2.0996 H   0  0  0  0  0  0  0  0  0  0  0  0
    2.6720   -2.8548    0.8287 H   0  0  0  0  0  0  0  0  0  0  0  0
    1.7798   -3.7053   -0.4498 H   0  0  0  0  0  0  0  0  0  0  0  0
    1.0328   -0.7731   -2.2590 H   0  0  0  0  0  0  0  0  0  0  0  0
    1.1988   -2.5420   -2.3594 H   0  0  0  0  0  0  0  0  0  0  0  0
   -1.1340   -1.9203   -1.9418 H   0  0  0  0  0  0  0  0  0  0  0  0
   -0.5292   -2.7896   -0.5142 H   0  0  0  0  0  0  0  0  0  0  0  0
    0.1485   -1.5888    1.3236 H   0  0  0  0  0  0  0  0  0  0  0  0
   -0.4436    0.0737    1.5290 H   0  0  0  0  0  0  0  0  0  0  0  0
   -2.2596   -2.3993    1.1703 H   0  0  0  0  0  0  0  0  0  0  0  0
   -1.8971   -1.5559    2.7053 H   0  0  0  0  0  0  0  0  0  0  0  0
   -3.0841    0.4170    1.9566 H   0  0  0  0  0  0  0  0  0  0  0  0
   -5.2819    0.9441    2.1378 H   0  0  0  0  0  0  0  0  0  0  0  0
   -7.0896    2.5499    1.7820 H   0  0  0  0  0  0  0  0  0  0  0  0
   -6.9881    1.7543   -2.4482 H   0  0  0  0  0  0  0  0  0  0  0  0
   -5.1581    0.1600   -2.1119 H   0  0  0  0  0  0  0  0  0  0  0  0
  -10.7366    3.3122   -0.5081 H   0  0  0  0  0  0  0  0  0  0  0  0
  -10.0192    2.2363    0.5598 H   0  0  0  0  0  0  0  0  0  0  0  0
  1  2  1  0
  1  3  1  0
  3  4  1  0
  4  5  2  0
  5  6  1  0
  6  7  2  0
  7  8  1  0
  8  9  2  0
  1 10  1  0
 10 11  2  0
 10 12  1  0
 12 13  1  0
 13 14  1  0
 14 15  1  0
 15 16  1  0
 16 17  1  0
 17 18  1  0
 18 19  1  0
 19 20  1  0
 20 21  1  0
 21 22  1  0
 22 23  2  0
 22 24  1  0
 24 25  2  0
 25 26  1  0
 26 27  2  0
 27 28  1  0
 28 29  2  0
 27 30  1  0
 30 31  1  0
 30 32  2  0
 30 33  2  0
  9  4  1  0
 29 24  1  0
  1 34  1  1
  2 35  1  0
  2 36  1  0
  3 37  1  0
  3 38  1  0
  5 39  1  0
  6 40  1  0
  7 41  1  0
  8 42  1  0
  9 43  1  0
 12 44  1  0
 13 45  1  0
 13 46  1  0
 14 47  1  0
 14 48  1  0
 16 49  1  0
 16 50  1  0
 17 51  1  0
 17 52  1  0
 19 53  1  0
 19 54  1  0
 20 55  1  0
 20 56  1  0
 21 57  1  0
 25 58  1  0
 26 59  1  0
 28 60  1  0
 29 61  1  0
 31 62  1  0
 31 63  1  0
M  END
$$$$
