
     RDKit          3D

 22 21  0  0  0  0  0  0  0  0999 V2000
    2.5212   -0.8030    0.2702 C   0  0  0  0  0  0  0  0  0  0  0  0
    1.2617   -0.0412   -0.1661 C   0  0  0  0  0  0  0  0  0  0  0  0
    1.2268    1.3323    0.5202 C   0  0  0  0  0  0  0  0  0  0  0  0
    0.0010   -0.8885    0.1398 C   0  0  0  0  0  0  0  0  0  0  0  0
   -1.2986   -0.3501   -0.5107 C   0  0  1  0  0  0  0  0  0  0  0  0
   -2.2779   -1.4315   -0.6384 N   0  0  0  0  0  0  0  0  0  0  0  0
   -1.9061    0.7636    0.2994 C   0  0  0  0  0  0  0  0  0  0  0  0
   -2.2069    1.9771   -0.3115 O   0  0  0  0  0  0  0  0  0  0  0  0
   -2.1796    0.5908    1.5180 O   0  0  0  0  0  0  0  0  0  0  0  0
    3.4327   -0.2198    0.0178 H   0  0  0  0  0  0  0  0  0  0  0  0
    2.5058   -0.9892    1.3658 H   0  0  0  0  0  0  0  0  0  0  0  0
    2.5860   -1.7777   -0.2589 H   0  0  0  0  0  0  0  0  0  0  0  0
    1.3330    0.1179   -1.2650 H   0  0  0  0  0  0  0  0  0  0  0  0
    0.4636    1.9830    0.0494 H   0  0  0  0  0  0  0  0  0  0  0  0
    1.0061    1.2264    1.6040 H   0  0  0  0  0  0  0  0  0  0  0  0
    2.2040    1.8483    0.4052 H   0  0  0  0  0  0  0  0  0  0  0  0
    0.1834   -1.9109   -0.2595 H   0  0  0  0  0  0  0  0  0  0  0  0
   -0.1283   -1.0043    1.2388 H   0  0  0  0  0  0  0  0  0  0  0  0
   -1.0629    0.0347   -1.5292 H   0  0  0  0  0  0  0  0  0  0  0  0
   -1.9002   -2.1437   -1.3054 H   0  0  0  0  0  0  0  0  0  0  0  0
   -3.1382   -1.0479   -1.0950 H   0  0  0  0  0  0  0  0  0  0  0  0
   -2.6265    2.7339    0.2152 H   0  0  0  0  0  0  0  0  0  0  0  0
  1  2  1  0
  2  3  1  0
  2  4  1  0
  4  5  1  0
  5  6  1  0
  5  7  1  0
  7  8  1  0
  7  9  2  0
  1 10  1  0
  1 11  1  0
  1 12  1  0
  2 13  1  0
  3 14  1  0
  3 15  1  0
  3 16  1  0
  4 17  1  0
  4 18  1  0
  5 19  1  6
  6 20  1  0
  6 21  1  0
  8 22  1  0
M  END
$$$$
