
     RDKit          3D

 47 48  0  0  0  0  0  0  0  0999 V2000
    7.7242   -0.5113    0.8556 C   0  0  0  0  0  0  0  0  0  0  0  0
    6.4449   -1.1048    0.2670 C   0  0  0  0  0  0  0  0  0  0  0  0
    5.1787   -0.6797    1.0310 C   0  0  0  0  0  0  0  0  0  0  0  0
    4.8947    0.8346    1.0185 C   0  0  0  0  0  0  0  0  0  0  0  0
    4.6931    1.4167   -0.3882 C   0  0  0  0  0  0  0  0  0  0  0  0
    3.7094    0.6864   -1.1204 O   0  0  0  0  0  0  0  0  0  0  0  0
    2.3361    0.7713   -0.8658 C   0  0  0  0  0  0  0  0  0  0  0  0
    1.8993    1.5711    0.0067 O   0  0  0  0  0  0  0  0  0  0  0  0
    1.4385   -0.0581   -1.6176 N   0  0  0  0  0  0  0  0  0  0  0  0
    0.0102   -0.0857   -1.4401 C   0  0  0  0  0  0  0  0  0  0  0  0
   -0.5890    0.6922   -0.5015 N   0  0  0  0  0  0  0  0  0  0  0  0
   -1.9341    0.6841   -0.3136 C   0  0  0  0  0  0  0  0  0  0  0  0
   -2.4259    1.4186    0.5844 O   0  0  0  0  0  0  0  0  0  0  0  0
   -2.7368   -0.1179   -1.0889 N   0  0  0  0  0  0  0  0  0  0  0  0
   -2.1618   -0.9276   -2.0294 C   0  0  0  0  0  0  0  0  0  0  0  0
   -0.7824   -0.9241   -2.2277 C   0  0  0  0  0  0  0  0  0  0  0  0
   -0.2323   -1.7295   -3.1710 F   0  0  0  0  0  0  0  0  0  0  0  0
   -4.2018   -0.1760   -0.9031 C   0  0  2  0  0  0  0  0  0  0  0  0
   -4.7424    1.1144   -0.7335 O   0  0  0  0  0  0  0  0  0  0  0  0
   -5.8488    0.9963    0.1395 C   0  0  2  0  0  0  0  0  0  0  0  0
   -5.7155    2.0279    1.2612 C   0  0  0  0  0  0  0  0  0  0  0  0
   -5.9189   -0.4357    0.6916 C   0  0  1  0  0  0  0  0  0  0  0  0
   -6.9622   -1.1319    0.0545 O   0  0  0  0  0  0  0  0  0  0  0  0
   -4.5720   -1.0082    0.3117 C   0  0  1  0  0  0  0  0  0  0  0  0
   -4.6354   -2.3723   -0.0153 O   0  0  0  0  0  0  0  0  0  0  0  0
    7.7839   -0.7186    1.9452 H   0  0  0  0  0  0  0  0  0  0  0  0
    7.7631    0.5842    0.6829 H   0  0  0  0  0  0  0  0  0  0  0  0
    8.6056   -0.9693    0.3595 H   0  0  0  0  0  0  0  0  0  0  0  0
    6.5219   -2.2126    0.3165 H   0  0  0  0  0  0  0  0  0  0  0  0
    6.3640   -0.8334   -0.8065 H   0  0  0  0  0  0  0  0  0  0  0  0
    5.2680   -1.0130    2.0879 H   0  0  0  0  0  0  0  0  0  0  0  0
    4.3067   -1.2173    0.5996 H   0  0  0  0  0  0  0  0  0  0  0  0
    3.9769    1.0195    1.6166 H   0  0  0  0  0  0  0  0  0  0  0  0
    5.7170    1.3810    1.5265 H   0  0  0  0  0  0  0  0  0  0  0  0
    5.6516    1.3866   -0.9461 H   0  0  0  0  0  0  0  0  0  0  0  0
    4.3951    2.4851   -0.3134 H   0  0  0  0  0  0  0  0  0  0  0  0
    1.8677   -0.6834   -2.3362 H   0  0  0  0  0  0  0  0  0  0  0  0
   -2.7702   -1.5873   -2.6371 H   0  0  0  0  0  0  0  0  0  0  0  0
   -4.6873   -0.6152   -1.8071 H   0  0  0  0  0  0  0  0  0  0  0  0
   -6.7745    1.2347   -0.4307 H   0  0  0  0  0  0  0  0  0  0  0  0
   -5.6292    3.0468    0.8276 H   0  0  0  0  0  0  0  0  0  0  0  0
   -4.8127    1.8223    1.8747 H   0  0  0  0  0  0  0  0  0  0  0  0
   -6.6126    1.9985    1.9158 H   0  0  0  0  0  0  0  0  0  0  0  0
   -6.0576   -0.4566    1.7995 H   0  0  0  0  0  0  0  0  0  0  0  0
   -7.1889   -1.9048    0.6350 H   0  0  0  0  0  0  0  0  0  0  0  0
   -3.8431   -0.8359    1.1381 H   0  0  0  0  0  0  0  0  0  0  0  0
   -4.7154   -2.8623    0.8443 H   0  0  0  0  0  0  0  0  0  0  0  0
  1  2  1  0
  2  3  1  0
  3  4  1  0
  4  5  1  0
  5  6  1  0
  6  7  1  0
  7  8  2  0
  7  9  1  0
  9 10  1  0
 10 11  2  0
 11 12  1  0
 12 13  2  0
 12 14  1  0
 14 15  1  0
 15 16  2  0
 16 17  1  0
 14 18  1  0
 18 19  1  0
 19 20  1  0
 20 21  1  0
 20 22  1  0
 22 23  1  0
 22 24  1  0
 24 25  1  0
 16 10  1  0
 24 18  1  0
  1 26  1  0
  1 27  1  0
  1 28  1  0
  2 29  1  0
  2 30  1  0
  3 31  1  0
  3 32  1  0
  4 33  1  0
  4 34  1  0
  5 35  1  0
  5 36  1  0
  9 37  1  0
 15 38  1  0
 18 39  1  6
 20 40  1  6
 21 41  1  0
 21 42  1  0
 21 43  1  0
 22 44  1  1
 23 45  1  0
 24 46  1  1
 25 47  1  0
M  END
$$$$
