
     RDKit          3D

 32 33  0  0  0  0  0  0  0  0999 V2000
   -2.3713   -0.7400   -0.4933 C   0  0  1  0  0  0  0  0  0  0  0  0
   -3.6404   -1.5461   -0.2090 C   0  0  0  0  0  0  0  0  0  0  0  0
   -1.8766   -0.0188    0.7796 C   0  0  0  0  0  0  0  0  0  0  0  0
   -0.6593    0.9091    0.5175 C   0  0  2  0  0  0  0  0  0  0  0  0
   -0.9696    1.9387   -0.4953 N   0  0  0  0  0  0  0  0  0  0  0  0
   -1.8580    2.9802    0.0312 C   0  0  0  0  0  0  0  0  0  0  0  0
    0.5372    0.1010    0.0624 C   0  0  0  0  0  0  0  0  0  0  0  0
    0.4357   -1.0451   -0.7143 C   0  0  0  0  0  0  0  0  0  0  0  0
    1.9676   -1.6226   -1.0903 S   0  0  0  0  0  0  0  0  0  0  0  0
    2.7835   -0.3870   -0.2879 C   0  0  0  0  0  0  0  0  0  0  0  0
    1.8670    0.4817    0.2917 C   0  0  0  0  0  0  0  0  0  0  0  0
    4.5268   -0.2389   -0.1848 S   0  0  0  0  0  6  0  0  0  0  0  0
    5.0764   -0.9146    1.3080 N   0  0  0  0  0  0  0  0  0  0  0  0
    4.9111    1.2120   -0.2553 O   0  0  0  0  0  0  0  0  0  0  0  0
    5.1622   -0.9687   -1.3349 O   0  0  0  0  0  0  0  0  0  0  0  0
   -1.0784   -1.8041   -1.1362 S   0  0  0  0  0  6  0  0  0  0  0  0
   -1.2044   -1.9166   -2.6292 O   0  0  0  0  0  0  0  0  0  0  0  0
   -1.1485   -3.1681   -0.5081 O   0  0  0  0  0  0  0  0  0  0  0  0
   -2.6162    0.0179   -1.2684 H   0  0  0  0  0  0  0  0  0  0  0  0
   -3.4606   -2.2952    0.5915 H   0  0  0  0  0  0  0  0  0  0  0  0
   -3.9708   -2.0726   -1.1295 H   0  0  0  0  0  0  0  0  0  0  0  0
   -4.4574   -0.8669    0.1152 H   0  0  0  0  0  0  0  0  0  0  0  0
   -1.5938   -0.7756    1.5452 H   0  0  0  0  0  0  0  0  0  0  0  0
   -2.7065    0.5716    1.2213 H   0  0  0  0  0  0  0  0  0  0  0  0
   -0.3856    1.3930    1.4833 H   0  0  0  0  0  0  0  0  0  0  0  0
   -0.0786    2.4209   -0.7627 H   0  0  0  0  0  0  0  0  0  0  0  0
   -1.9284    3.8095   -0.7045 H   0  0  0  0  0  0  0  0  0  0  0  0
   -2.8830    2.5821    0.1751 H   0  0  0  0  0  0  0  0  0  0  0  0
   -1.4712    3.3971    0.9869 H   0  0  0  0  0  0  0  0  0  0  0  0
    2.1506    1.3606    0.8561 H   0  0  0  0  0  0  0  0  0  0  0  0
    4.8205   -1.9273    1.2970 H   0  0  0  0  0  0  0  0  0  0  0  0
    6.1199   -0.8669    1.2993 H   0  0  0  0  0  0  0  0  0  0  0  0
  1  2  1  0
  1  3  1  0
  3  4  1  0
  4  5  1  0
  5  6  1  0
  4  7  1  0
  7  8  2  0
  8  9  1  0
  9 10  1  0
 10 11  2  0
 10 12  1  0
 12 13  1  0
 12 14  2  0
 12 15  2  0
  8 16  1  0
 16 17  2  0
 16 18  2  0
 16  1  1  0
 11  7  1  0
  1 19  1  6
  2 20  1  0
  2 21  1  0
  2 22  1  0
  3 23  1  0
  3 24  1  0
  4 25  1  1
  5 26  1  0
  6 27  1  0
  6 28  1  0
  6 29  1  0
 11 30  1  0
 13 31  1  0
 13 32  1  0
M  END
$$$$
