
     RDKit          3D

 67 70  0  0  0  0  0  0  0  0999 V2000
    0.1161   -0.3762    1.0760 C   0  0  2  0  0  0  0  0  0  0  0  0
    0.8591   -0.8050    2.3332 C   0  0  0  0  0  0  0  0  0  0  0  0
    2.3130   -0.3646    2.0881 C   0  0  0  0  0  0  0  0  0  0  0  0
    2.3412    0.4291    0.7482 C   0  0  2  0  0  0  0  0  0  0  0  0
    2.6876   -0.5203   -0.2795 O   0  0  0  0  0  0  0  0  0  0  0  0
    3.1338   -0.2321   -1.5797 C   0  0  0  0  0  0  0  0  0  0  0  0
    3.2497    0.9554   -1.9864 O   0  0  0  0  0  0  0  0  0  0  0  0
    3.5060   -1.3619   -2.4875 C   0  0  0  0  0  0  0  0  0  0  0  0
    5.0109   -1.6532   -2.4379 C   0  0  0  0  0  0  0  0  0  0  0  0
    5.4474   -2.2351   -1.0936 C   0  0  0  0  0  0  0  0  0  0  0  0
    3.3962    1.5401    0.7949 C   0  0  0  0  0  0  0  0  0  0  0  0
    3.1571    2.6392    0.3178 O   0  0  0  0  0  0  0  0  0  0  0  0
    4.7954    1.2690    1.2840 C   0  0  0  0  0  0  0  0  0  0  0  0
    5.1039    2.1134    2.3587 O   0  0  0  0  0  0  0  0  0  0  0  0
    0.8438    0.8978    0.6173 C   0  0  2  0  0  0  0  0  0  0  0  0
    0.5800    2.1181    1.5715 C   0  0  0  0  0  0  0  0  0  0  0  0
    0.3456    1.2249   -0.8156 C   0  0  0  0  0  0  0  0  0  0  0  0
   -1.1974    1.3891   -0.8880 C   0  0  2  0  0  0  0  0  0  0  0  0
   -1.5880    2.5872   -0.2722 O   0  0  0  0  0  0  0  0  0  0  0  0
   -1.9566    0.1578   -0.2788 C   0  0  1  0  0  0  0  0  0  0  0  0
   -1.4262   -0.2418    1.1402 C   0  0  1  0  0  0  0  0  0  0  0  0
   -2.0516   -1.5825    1.5727 C   0  0  0  0  0  0  0  0  0  0  0  0
   -3.5736   -1.5015    1.6062 C   0  0  0  0  0  0  0  0  0  0  0  0
   -4.1179   -1.0423    0.2754 C   0  0  0  0  0  0  0  0  0  0  0  0
   -5.2254   -1.6364   -0.2067 C   0  0  0  0  0  0  0  0  0  0  0  0
   -5.9110   -1.1470   -1.4095 C   0  0  0  0  0  0  0  0  0  0  0  0
   -6.9211   -1.7605   -1.8450 O   0  0  0  0  0  0  0  0  0  0  0  0
   -5.4623    0.1121   -2.0768 C   0  0  0  0  0  0  0  0  0  0  0  0
   -3.9617    0.3230   -1.8610 C   0  0  0  0  0  0  0  0  0  0  0  0
   -3.5368    0.2304   -0.3589 C   0  0  2  0  0  0  0  0  0  0  0  0
   -4.1202    1.4433    0.4128 C   0  0  0  0  0  0  0  0  0  0  0  0
    0.3167   -1.1791    0.3242 H   0  0  0  0  0  0  0  0  0  0  0  0
    0.7965   -1.9055    2.4801 H   0  0  0  0  0  0  0  0  0  0  0  0
    0.4412   -0.2912    3.2267 H   0  0  0  0  0  0  0  0  0  0  0  0
    2.9803   -1.2535    2.0388 H   0  0  0  0  0  0  0  0  0  0  0  0
    2.6480    0.2610    2.9443 H   0  0  0  0  0  0  0  0  0  0  0  0
    3.2234   -1.0964   -3.5292 H   0  0  0  0  0  0  0  0  0  0  0  0
    2.9314   -2.2714   -2.2078 H   0  0  0  0  0  0  0  0  0  0  0  0
    5.5856   -0.7239   -2.6449 H   0  0  0  0  0  0  0  0  0  0  0  0
    5.2561   -2.3875   -3.2354 H   0  0  0  0  0  0  0  0  0  0  0  0
    5.2927   -1.4966   -0.2799 H   0  0  0  0  0  0  0  0  0  0  0  0
    4.8732   -3.1583   -0.8663 H   0  0  0  0  0  0  0  0  0  0  0  0
    6.5273   -2.4898   -1.1335 H   0  0  0  0  0  0  0  0  0  0  0  0
    5.5073    1.4711    0.4563 H   0  0  0  0  0  0  0  0  0  0  0  0
    4.9300    0.2047    1.5771 H   0  0  0  0  0  0  0  0  0  0  0  0
    4.6395    1.7426    3.1538 H   0  0  0  0  0  0  0  0  0  0  0  0
   -0.4777    2.2411    1.8571 H   0  0  0  0  0  0  0  0  0  0  0  0
    1.1461    2.0388    2.5219 H   0  0  0  0  0  0  0  0  0  0  0  0
    0.8756    3.0708    1.0866 H   0  0  0  0  0  0  0  0  0  0  0  0
    0.8421    2.1442   -1.1943 H   0  0  0  0  0  0  0  0  0  0  0  0
    0.6080    0.4011   -1.5105 H   0  0  0  0  0  0  0  0  0  0  0  0
   -1.4516    1.4452   -1.9708 H   0  0  0  0  0  0  0  0  0  0  0  0
   -1.3162    3.3271   -0.8759 H   0  0  0  0  0  0  0  0  0  0  0  0
   -1.6709   -0.6940   -0.9403 H   0  0  0  0  0  0  0  0  0  0  0  0
   -1.7144    0.5111    1.8970 H   0  0  0  0  0  0  0  0  0  0  0  0
   -1.6982   -1.8531    2.5911 H   0  0  0  0  0  0  0  0  0  0  0  0
   -1.7441   -2.3955    0.8775 H   0  0  0  0  0  0  0  0  0  0  0  0
   -3.9672   -2.5043    1.8839 H   0  0  0  0  0  0  0  0  0  0  0  0
   -3.8930   -0.7872    2.3953 H   0  0  0  0  0  0  0  0  0  0  0  0
   -5.6468   -2.4970    0.2997 H   0  0  0  0  0  0  0  0  0  0  0  0
   -5.6688    0.0529   -3.1675 H   0  0  0  0  0  0  0  0  0  0  0  0
   -6.0355    0.9693   -1.6649 H   0  0  0  0  0  0  0  0  0  0  0  0
   -3.4201   -0.4472   -2.4546 H   0  0  0  0  0  0  0  0  0  0  0  0
   -3.6941    1.3142   -2.2852 H   0  0  0  0  0  0  0  0  0  0  0  0
   -3.6471    1.5660    1.4071 H   0  0  0  0  0  0  0  0  0  0  0  0
   -5.2106    1.3132    0.5836 H   0  0  0  0  0  0  0  0  0  0  0  0
   -4.0020    2.3878   -0.1566 H   0  0  0  0  0  0  0  0  0  0  0  0
  1  2  1  0
  2  3  1  0
  3  4  1  0
  4  5  1  6
  5  6  1  0
  6  7  2  0
  6  8  1  0
  8  9  1  0
  9 10  1  0
  4 11  1  0
 11 12  2  0
 11 13  1  0
 13 14  1  0
  4 15  1  0
 15 16  1  1
 15 17  1  0
 17 18  1  0
 18 19  1  0
 18 20  1  0
 20 21  1  0
 21 22  1  0
 22 23  1  0
 23 24  1  0
 24 25  2  0
 25 26  1  0
 26 27  2  0
 26 28  1  0
 28 29  1  0
 29 30  1  0
 30 31  1  1
 15  1  1  0
 30 20  1  0
 21  1  1  0
 30 24  1  0
  1 32  1  6
  2 33  1  0
  2 34  1  0
  3 35  1  0
  3 36  1  0
  8 37  1  0
  8 38  1  0
  9 39  1  0
  9 40  1  0
 10 41  1  0
 10 42  1  0
 10 43  1  0
 13 44  1  0
 13 45  1  0
 14 46  1  0
 16 47  1  0
 16 48  1  0
 16 49  1  0
 17 50  1  0
 17 51  1  0
 18 52  1  6
 19 53  1  0
 20 54  1  6
 21 55  1  1
 22 56  1  0
 22 57  1  0
 23 58  1  0
 23 59  1  0
 25 60  1  0
 28 61  1  0
 28 62  1  0
 29 63  1  0
 29 64  1  0
 31 65  1  0
 31 66  1  0
 31 67  1  0
M  END
$$$$
