
     RDKit          3D

 16 15  0  0  0  0  0  0  0  0999 V2000
   -0.1313   -1.0899   -1.2003 N   0  0  0  0  0  0  0  0  0  0  0  0
   -0.3958   -0.3732    0.0505 C   0  0  1  0  0  0  0  0  0  0  0  0
    0.5616    0.8203    0.2041 C   0  0  0  0  0  0  0  0  0  0  0  0
    1.9861    0.3648    0.2829 C   0  0  0  0  0  0  0  0  0  0  0  0
    2.7594    0.3026   -0.8721 O   0  0  0  0  0  0  0  0  0  0  0  0
    2.4734    0.0036    1.3876 O   0  0  0  0  0  0  0  0  0  0  0  0
   -1.8281    0.0889    0.1083 C   0  0  0  0  0  0  0  0  0  0  0  0
   -2.6588   -0.3619    1.1295 O   0  0  0  0  0  0  0  0  0  0  0  0
   -2.2780    0.8832   -0.7615 O   0  0  0  0  0  0  0  0  0  0  0  0
   -0.7694   -1.9174   -1.2538 H   0  0  0  0  0  0  0  0  0  0  0  0
   -0.3525   -0.4698   -2.0138 H   0  0  0  0  0  0  0  0  0  0  0  0
   -0.2221   -1.0716    0.8999 H   0  0  0  0  0  0  0  0  0  0  0  0
    0.4477    1.5168   -0.6553 H   0  0  0  0  0  0  0  0  0  0  0  0
    0.3126    1.3826    1.1311 H   0  0  0  0  0  0  0  0  0  0  0  0
    3.7197   -0.0180   -0.8376 H   0  0  0  0  0  0  0  0  0  0  0  0
   -3.6244   -0.0608    1.1847 H   0  0  0  0  0  0  0  0  0  0  0  0
  1  2  1  0
  2  3  1  0
  3  4  1  0
  4  5  1  0
  4  6  2  0
  2  7  1  0
  7  8  1  0
  7  9  2  0
  1 10  1  0
  1 11  1  0
  2 12  1  1
  3 13  1  0
  3 14  1  0
  5 15  1  0
  8 16  1  0
M  END
$$$$
