
     RDKit          3D

 73 77  0  0  0  0  0  0  0  0999 V2000
  -11.7947    0.1272    0.0011 C   0  0  0  0  0  0  0  0  0  0  0  0
  -10.3786    0.1171    0.1356 O   0  0  0  0  0  0  0  0  0  0  0  0
   -9.7130   -0.7004    1.0557 C   0  0  0  0  0  0  0  0  0  0  0  0
  -10.3720   -1.4702    1.8084 O   0  0  0  0  0  0  0  0  0  0  0  0
   -8.2367   -0.6618    1.1429 C   0  0  0  0  0  0  0  0  0  0  0  0
   -7.4968    0.2091    0.3084 C   0  0  0  0  0  0  0  0  0  0  0  0
   -6.0959    0.2619    0.3835 C   0  0  0  0  0  0  0  0  0  0  0  0
   -5.4350   -0.5947    1.2719 C   0  0  0  0  0  0  0  0  0  0  0  0
   -6.1611   -1.4116    2.1222 C   0  0  0  0  0  0  0  0  0  0  0  0
   -5.3362   -2.0835    3.0632 N   0  0  0  0  0  0  0  0  0  0  0  0
   -4.0157   -1.6447    2.7708 C   0  0  0  0  0  0  0  0  0  0  0  0
   -3.0035   -2.0608    3.3940 O   0  0  0  0  0  0  0  0  0  0  0  0
   -4.0031   -0.7183    1.6246 C   0  0  0  0  0  0  0  0  0  0  0  0
   -2.9117   -0.1954    1.0225 C   0  0  0  0  0  0  0  0  0  0  0  0
   -1.6353   -0.2535    1.6865 N   0  0  0  0  0  0  0  0  0  0  0  0
   -0.3826   -0.3782    0.9923 C   0  0  0  0  0  0  0  0  0  0  0  0
   -0.2762   -1.1353   -0.1867 C   0  0  0  0  0  0  0  0  0  0  0  0
    0.9507   -1.2475   -0.8460 C   0  0  0  0  0  0  0  0  0  0  0  0
    2.0939   -0.6154   -0.3310 C   0  0  0  0  0  0  0  0  0  0  0  0
    1.9916    0.1204    0.8603 C   0  0  0  0  0  0  0  0  0  0  0  0
    0.7643    0.2317    1.5195 C   0  0  0  0  0  0  0  0  0  0  0  0
    3.3614   -0.7270   -1.0078 N   0  0  0  0  0  0  0  0  0  0  0  0
    3.8280   -2.0441   -1.4555 C   0  0  0  0  0  0  0  0  0  0  0  0
    4.1068    0.4669   -1.3348 C   0  0  0  0  0  0  0  0  0  0  0  0
    3.5442    1.5945   -1.2728 O   0  0  0  0  0  0  0  0  0  0  0  0
    5.5550    0.4090   -1.7408 C   0  0  0  0  0  0  0  0  0  0  0  0
    6.3852   -0.0750   -0.6198 N   0  0  0  0  0  0  0  0  0  0  0  0
    7.6695   -0.6129   -1.1228 C   0  0  0  0  0  0  0  0  0  0  0  0
    8.7006   -0.7340    0.0078 C   0  0  0  0  0  0  0  0  0  0  0  0
    9.0004    0.5744    0.6421 N   0  0  0  0  0  0  0  0  0  0  0  0
   10.3028    1.0985    0.2026 C   0  0  0  0  0  0  0  0  0  0  0  0
    7.9433    1.5900    0.4365 C   0  0  0  0  0  0  0  0  0  0  0  0
    6.5482    0.9495    0.4458 C   0  0  0  0  0  0  0  0  0  0  0  0
   -2.9953    0.4812   -0.2913 C   0  0  0  0  0  0  0  0  0  0  0  0
   -3.4804   -0.2051   -1.4189 C   0  0  0  0  0  0  0  0  0  0  0  0
   -3.5057    0.4233   -2.6674 C   0  0  0  0  0  0  0  0  0  0  0  0
   -3.0335    1.7318   -2.8024 C   0  0  0  0  0  0  0  0  0  0  0  0
   -2.5302    2.4121   -1.6900 C   0  0  0  0  0  0  0  0  0  0  0  0
   -2.5037    1.7878   -0.4392 C   0  0  0  0  0  0  0  0  0  0  0  0
   -7.5525   -1.4714    2.0745 C   0  0  0  0  0  0  0  0  0  0  0  0
  -12.1563   -0.8820   -0.2891 H   0  0  0  0  0  0  0  0  0  0  0  0
  -12.0806    0.8523   -0.7882 H   0  0  0  0  0  0  0  0  0  0  0  0
  -12.2654    0.4339    0.9592 H   0  0  0  0  0  0  0  0  0  0  0  0
   -8.0025    0.8642   -0.3897 H   0  0  0  0  0  0  0  0  0  0  0  0
   -5.5655    0.9821   -0.2193 H   0  0  0  0  0  0  0  0  0  0  0  0
   -5.6355   -2.7352    3.8221 H   0  0  0  0  0  0  0  0  0  0  0  0
   -1.6083   -0.0627    2.7139 H   0  0  0  0  0  0  0  0  0  0  0  0
   -1.1374   -1.6513   -0.5894 H   0  0  0  0  0  0  0  0  0  0  0  0
    1.0088   -1.8217   -1.7620 H   0  0  0  0  0  0  0  0  0  0  0  0
    2.8664    0.5995    1.2819 H   0  0  0  0  0  0  0  0  0  0  0  0
    0.7039    0.8042    2.4365 H   0  0  0  0  0  0  0  0  0  0  0  0
    3.7769   -2.1027   -2.5630 H   0  0  0  0  0  0  0  0  0  0  0  0
    4.8707   -2.2195   -1.1215 H   0  0  0  0  0  0  0  0  0  0  0  0
    3.2063   -2.8577   -1.0243 H   0  0  0  0  0  0  0  0  0  0  0  0
    5.6355   -0.2731   -2.6162 H   0  0  0  0  0  0  0  0  0  0  0  0
    5.9046    1.4112   -2.0792 H   0  0  0  0  0  0  0  0  0  0  0  0
    8.0923    0.0373   -1.9229 H   0  0  0  0  0  0  0  0  0  0  0  0
    7.4951   -1.6212   -1.5569 H   0  0  0  0  0  0  0  0  0  0  0  0
    8.2918   -1.4140    0.7859 H   0  0  0  0  0  0  0  0  0  0  0  0
    9.6177   -1.2272   -0.3873 H   0  0  0  0  0  0  0  0  0  0  0  0
   10.5093    2.0764    0.6894 H   0  0  0  0  0  0  0  0  0  0  0  0
   10.3278    1.2284   -0.9022 H   0  0  0  0  0  0  0  0  0  0  0  0
   11.1138    0.4021    0.5060 H   0  0  0  0  0  0  0  0  0  0  0  0
    7.9985    2.3405    1.2544 H   0  0  0  0  0  0  0  0  0  0  0  0
    8.0786    2.1273   -0.5305 H   0  0  0  0  0  0  0  0  0  0  0  0
    5.7836    1.7547    0.3751 H   0  0  0  0  0  0  0  0  0  0  0  0
    6.3917    0.4571    1.4296 H   0  0  0  0  0  0  0  0  0  0  0  0
   -3.8349   -1.2245   -1.3292 H   0  0  0  0  0  0  0  0  0  0  0  0
   -3.8863   -0.1060   -3.5312 H   0  0  0  0  0  0  0  0  0  0  0  0
   -3.0519    2.2162   -3.7700 H   0  0  0  0  0  0  0  0  0  0  0  0
   -2.1566    3.4221   -1.7978 H   0  0  0  0  0  0  0  0  0  0  0  0
   -2.1035    2.3222    0.4137 H   0  0  0  0  0  0  0  0  0  0  0  0
   -8.0856   -2.1214    2.7569 H   0  0  0  0  0  0  0  0  0  0  0  0
  1  2  1  0
  2  3  1  0
  3  4  2  0
  3  5  1  0
  5  6  2  0
  6  7  1  0
  7  8  2  0
  8  9  1  0
  9 10  1  0
 10 11  1  0
 11 12  2  0
 11 13  1  0
 13 14  2  0
 14 15  1  0
 15 16  1  0
 16 17  2  0
 17 18  1  0
 18 19  2  0
 19 20  1  0
 20 21  2  0
 19 22  1  0
 22 23  1  0
 22 24  1  0
 24 25  2  0
 24 26  1  0
 26 27  1  0
 27 28  1  0
 28 29  1  0
 29 30  1  0
 30 31  1  0
 30 32  1  0
 32 33  1  0
 14 34  1  0
 34 35  2  0
 35 36  1  0
 36 37  2  0
 37 38  1  0
 38 39  2  0
  9 40  2  0
 40  5  1  0
 13  8  1  0
 21 16  1  0
 33 27  1  0
 39 34  1  0
  1 41  1  0
  1 42  1  0
  1 43  1  0
  6 44  1  0
  7 45  1  0
 10 46  1  0
 15 47  1  0
 17 48  1  0
 18 49  1  0
 20 50  1  0
 21 51  1  0
 23 52  1  0
 23 53  1  0
 23 54  1  0
 26 55  1  0
 26 56  1  0
 28 57  1  0
 28 58  1  0
 29 59  1  0
 29 60  1  0
 31 61  1  0
 31 62  1  0
 31 63  1  0
 32 64  1  0
 32 65  1  0
 33 66  1  0
 33 67  1  0
 35 68  1  0
 36 69  1  0
 37 70  1  0
 38 71  1  0
 39 72  1  0
 40 73  1  0
M  END
$$$$
