
     RDKit          2D

 76 83  0  0  0  0  0  0  0  0999 V2000
    0.3943    1.2135    0.0000 C   0  0  0  0  0  0  0  0  0  0  0  0
    1.2760    0.0000    0.0000 C   0  0  0  0  0  0  0  0  0  0  0  0
    0.3943   -1.2135    0.0000 C   0  0  0  0  0  0  0  0  0  0  0  0
    1.6933   -1.9635    0.0000 C   0  0  0  0  0  0  0  0  0  0  0  0
    2.8118   -1.4888    0.0000 O   0  0  0  0  0  0  0  0  0  0  0  0
    1.6933   -3.4635    0.0000 O   0  0  0  0  0  0  0  0  0  0  0  0
    2.9924   -4.2135    0.0000 O   0  0  0  0  0  0  0  0  0  0  0  0
    2.9924   -5.7135    0.0000 C   0  0  0  0  0  0  0  0  0  0  0  0
   -1.0323   -0.7500    0.0000 C   0  0  0  0  0  0  0  0  0  0  0  0
   -2.2458   -1.6317    0.0000 C   0  0  0  0  0  0  0  0  0  0  0  0
   -1.0323    0.7500    0.0000 O   0  0  0  0  0  0  0  0  0  0  0  0
   -2.5737   -0.3836    0.0000 N   0  0  0  0  0  0  0  0  0  0  0  0
   -3.8256   -1.2100    0.0000 C   0  0  0  0  0  0  0  0  0  0  0  0
   -4.9983   -0.2747    0.0000 C   0  0  0  0  0  0  0  0  0  0  0  0
   -6.3946   -0.8228    0.0000 C   0  0  0  0  0  0  0  0  0  0  0  0
   -6.6182   -2.3060    0.0000 C   0  0  0  0  0  0  0  0  0  0  0  0
   -8.0145   -2.8540    0.0000 C   0  0  0  0  0  0  0  0  0  0  0  0
   -9.4108   -3.4020    0.0000 S   0  0  0  0  0  0  0  0  0  0  0  0
  -10.5836   -2.4668    0.0000 C   0  0  0  0  0  0  0  0  0  0  0  0
  -11.7563   -1.5316    0.0000 C   0  0  0  0  0  0  0  0  0  0  0  0
   -5.4455   -3.2412    0.0000 C   0  0  0  0  0  0  0  0  0  0  0  0
   -4.0491   -2.6932    0.0000 C   0  0  0  0  0  0  0  0  0  0  0  0
   -4.4713    1.1296    0.0000 C   0  0  0  0  0  0  0  0  0  0  0  0
   -4.9916    2.6235    0.0000 C   0  0  0  0  0  0  0  0  0  0  0  0
   -6.4182    3.0870    0.0000 C   0  0  0  0  0  0  0  0  0  0  0  0
   -6.4182    4.5870    0.0000 N   0  0  0  0  0  0  0  0  0  0  0  0
   -4.9916    5.0505    0.0000 C   0  0  0  0  0  0  0  0  0  0  0  0
   -4.5281    6.4771    0.0000 O   0  0  0  0  0  0  0  0  0  0  0  0
   -4.1099    3.8370    0.0000 C   0  0  0  0  0  0  0  0  0  0  0  0
   -2.6182    3.6802    0.0000 C   0  0  0  0  0  0  0  0  0  0  0  0
   -1.4454    4.6154    0.0000 C   0  0  0  0  0  0  0  0  0  0  0  0
   -0.1936    3.7891    0.0000 C   0  0  0  0  0  0  0  0  0  0  0  0
    1.1480    4.4600    0.0000 C   0  0  0  0  0  0  0  0  0  0  0  0
    1.2377    5.9574    0.0000 C   0  0  0  0  0  0  0  0  0  0  0  0
   -0.0141    6.7837    0.0000 C   0  0  0  0  0  0  0  0  0  0  0  0
    0.0756    8.2810    0.0000 C   0  0  0  0  0  0  0  0  0  0  0  0
    0.1653    9.7783    0.0000 S   0  0  0  0  0  0  0  0  0  0  0  0
    1.5068   10.4493    0.0000 C   0  0  0  0  0  0  0  0  0  0  0  0
    2.8484   11.1203    0.0000 C   0  0  0  0  0  0  0  0  0  0  0  0
   -1.3557    6.1127    0.0000 C   0  0  0  0  0  0  0  0  0  0  0  0
   -0.5926    2.3431    0.0000 N   0  0  0  0  0  0  0  0  0  0  0  0
   -2.0911    2.2758    0.0000 C   0  0  0  0  0  0  0  0  0  0  0  0
   -2.9728    1.0623    0.0000 C   0  0  0  0  0  0  0  0  0  0  0  0
    0.8578    2.6401    0.0000 H   0  0  0  0  0  0  0  0  0  0  0  0
    2.3907    1.0037    0.0000 H   0  0  0  0  0  0  0  0  0  0  0  0
    2.2713   -0.6969    0.0000 H   0  0  0  0  0  0  0  0  0  0  0  0
   -0.2158   -2.5838    0.0000 H   0  0  0  0  0  0  0  0  0  0  0  0
    2.9924   -7.2135    0.0000 H   0  0  0  0  0  0  0  0  0  0  0  0
    4.4924   -5.7135    0.0000 H   0  0  0  0  0  0  0  0  0  0  0  0
    1.4924   -5.7135    0.0000 H   0  0  0  0  0  0  0  0  0  0  0  0
   -3.2099   -2.7808    0.0000 H   0  0  0  0  0  0  0  0  0  0  0  0
   -1.3641   -2.8452    0.0000 H   0  0  0  0  0  0  0  0  0  0  0  0
   -2.8565   -1.1193    0.0000 H   0  0  0  0  0  0  0  0  0  0  0  0
   -7.5674    0.1125    0.0000 H   0  0  0  0  0  0  0  0  0  0  0  0
   -7.4665   -4.2503    0.0000 H   0  0  0  0  0  0  0  0  0  0  0  0
   -8.5625   -1.4577    0.0000 H   0  0  0  0  0  0  0  0  0  0  0  0
   -9.6483   -1.2940    0.0000 H   0  0  0  0  0  0  0  0  0  0  0  0
  -11.5188   -3.6395    0.0000 H   0  0  0  0  0  0  0  0  0  0  0  0
  -12.9291   -0.5963    0.0000 H   0  0  0  0  0  0  0  0  0  0  0  0
  -10.8211   -0.3588    0.0000 H   0  0  0  0  0  0  0  0  0  0  0  0
  -12.6916   -2.7043    0.0000 H   0  0  0  0  0  0  0  0  0  0  0  0
   -5.6690   -4.7245    0.0000 H   0  0  0  0  0  0  0  0  0  0  0  0
   -2.8764   -3.6285    0.0000 H   0  0  0  0  0  0  0  0  0  0  0  0
   -6.7301    1.6198    0.0000 H   0  0  0  0  0  0  0  0  0  0  0  0
   -7.9100    3.2438    0.0000 H   0  0  0  0  0  0  0  0  0  0  0  0
   -7.6317    5.4687    0.0000 H   0  0  0  0  0  0  0  0  0  0  0  0
    2.3999    3.6337    0.0000 H   0  0  0  0  0  0  0  0  0  0  0  0
    2.5793    6.6283    0.0000 H   0  0  0  0  0  0  0  0  0  0  0  0
   -1.4218    8.3707    0.0000 H   0  0  0  0  0  0  0  0  0  0  0  0
    1.5729    8.1913    0.0000 H   0  0  0  0  0  0  0  0  0  0  0  0
    2.1778    9.1077    0.0000 H   0  0  0  0  0  0  0  0  0  0  0  0
    0.8359   11.7909    0.0000 H   0  0  0  0  0  0  0  0  0  0  0  0
    4.1900   11.7912    0.0000 H   0  0  0  0  0  0  0  0  0  0  0  0
    3.5194    9.7787    0.0000 H   0  0  0  0  0  0  0  0  0  0  0  0
    2.1774   12.4618    0.0000 H   0  0  0  0  0  0  0  0  0  0  0  0
   -2.6076    6.9391    0.0000 H   0  0  0  0  0  0  0  0  0  0  0  0
  1  2  1  0
  2  3  1  0
  3  4  1  0
  4  5  2  0
  4  6  1  0
  6  7  1  0
  7  8  1  0
  3  9  1  0
  9 10  1  6
  9 11  1  0
  9 12  1  0
 12 13  1  0
 13 14  2  0
 14 15  1  0
 15 16  2  0
 16 17  1  0
 17 18  1  0
 18 19  1  0
 19 20  1  0
 16 21  1  0
 21 22  2  0
 14 23  1  0
 23 24  2  0
 24 25  1  0
 25 26  1  0
 26 27  1  0
 27 28  2  0
 27 29  1  0
 29 30  2  0
 30 31  1  0
 31 32  2  0
 32 33  1  0
 33 34  2  0
 34 35  1  0
 35 36  1  0
 36 37  1  0
 37 38  1  0
 38 39  1  0
 35 40  2  0
 32 41  1  0
 41 42  1  0
 42 43  2  0
 11  1  1  0
 43 12  1  0
 41  1  1  0
 22 13  1  0
 43 23  1  0
 29 24  1  0
 42 30  1  0
 40 31  1  0
  1 44  1  1
  2 45  1  0
  2 46  1  0
  3 47  1  1
  8 48  1  0
  8 49  1  0
  8 50  1  0
 10 51  1  0
 10 52  1  0
 10 53  1  0
 15 54  1  0
 17 55  1  0
 17 56  1  0
 19 57  1  0
 19 58  1  0
 20 59  1  0
 20 60  1  0
 20 61  1  0
 21 62  1  0
 22 63  1  0
 25 64  1  0
 25 65  1  0
 26 66  1  0
 33 67  1  0
 34 68  1  0
 36 69  1  0
 36 70  1  0
 38 71  1  0
 38 72  1  0
 39 73  1  0
 39 74  1  0
 39 75  1  0
 40 76  1  0
M  END
$$$$
