
     RDKit          3D

 83 87  0  0  0  0  0  0  0  0999 V2000
    1.6041    0.9978   -1.6776 C   0  0  1  0  0  0  0  0  0  0  0  0
    1.9069    0.7068   -3.1624 C   0  0  0  0  0  0  0  0  0  0  0  0
    0.9141   -0.2096   -0.9477 C   0  0  0  0  0  0  0  0  0  0  0  0
   -0.6641   -0.1603   -0.7960 C   0  0  0  0  0  0  0  0  0  0  0  0
   -1.1727   -0.2046   -2.2273 C   0  0  0  0  0  0  0  0  0  0  0  0
   -1.3574   -1.3396   -2.9322 N   0  0  0  0  0  0  0  0  0  0  0  0
   -1.7363   -0.9200   -4.1263 N   0  0  0  0  0  0  0  0  0  0  0  0
   -1.7703    0.4001   -4.1716 N   0  0  0  0  0  0  0  0  0  0  0  0
   -1.4110    0.8831   -2.9936 N   0  0  0  0  0  0  0  0  0  0  0  0
   -1.1267    1.1272   -0.0651 C   0  0  0  0  0  0  0  0  0  0  0  0
   -0.2681    1.8188    0.8225 C   0  0  0  0  0  0  0  0  0  0  0  0
   -0.6308    3.0438    1.3803 C   0  0  0  0  0  0  0  0  0  0  0  0
   -1.8847    3.5964    1.1166 C   0  0  0  0  0  0  0  0  0  0  0  0
   -2.8105    2.8490    0.3833 C   0  0  0  0  0  0  0  0  0  0  0  0
   -2.4599    1.6042   -0.1738 C   0  0  0  0  0  0  0  0  0  0  0  0
   -3.5715    0.7008   -0.6370 C   0  0  0  0  0  0  0  0  0  0  0  0
   -3.7094   -0.4692    0.3251 C   0  0  0  0  0  0  0  0  0  0  0  0
   -2.6319   -1.5515    0.3175 C   0  0  0  0  0  0  0  0  0  0  0  0
   -3.0721   -2.7687    0.8815 C   0  0  0  0  0  0  0  0  0  0  0  0
   -2.2127   -3.8478    1.0859 C   0  0  0  0  0  0  0  0  0  0  0  0
   -0.8663   -3.6995    0.7782 C   0  0  0  0  0  0  0  0  0  0  0  0
   -0.3905   -2.5144    0.2278 C   0  0  0  0  0  0  0  0  0  0  0  0
   -1.2383   -1.4015   -0.0386 C   0  0  0  0  0  0  0  0  0  0  0  0
   -2.7075   -5.1129    1.6796 C   0  0  0  0  0  0  0  0  0  0  0  0
   -1.9423   -5.7760    2.4320 O   0  0  0  0  0  0  0  0  0  0  0  0
   -4.0420   -5.5966    1.4301 N   0  0  0  0  0  0  0  0  0  0  0  0
   -4.6918   -5.4144    0.1295 C   0  0  0  0  0  0  0  0  0  0  0  0
   -4.7509   -6.3166    2.4883 C   0  0  0  0  0  0  0  0  0  0  0  0
   -2.2657    4.8954    1.7126 C   0  0  0  0  0  0  0  0  0  0  0  0
   -1.9067    5.1502    2.8950 O   0  0  0  0  0  0  0  0  0  0  0  0
   -3.0245    5.8748    0.9742 N   0  0  0  0  0  0  0  0  0  0  0  0
   -2.9031    5.9658   -0.4852 C   0  0  0  0  0  0  0  0  0  0  0  0
   -3.8017    6.8754    1.7100 C   0  0  0  0  0  0  0  0  0  0  0  0
    2.8347    1.4506   -0.9883 N   0  0  0  0  0  0  0  0  0  0  0  0
    3.9164    0.4493   -0.9449 C   0  0  0  0  0  0  0  0  0  0  0  0
    5.1028    0.9769   -0.1798 C   0  0  0  0  0  0  0  0  0  0  0  0
    5.2842    2.2233   -0.1048 O   0  0  0  0  0  0  0  0  0  0  0  0
    6.0723    0.0830    0.4013 N   0  0  0  0  0  0  0  0  0  0  0  0
    5.9631   -1.3675    0.3735 C   0  0  0  0  0  0  0  0  0  0  0  0
    7.2393   -1.8892    1.0208 C   0  0  0  0  0  0  0  0  0  0  0  0
    7.8168   -0.7112    1.8003 C   0  0  0  0  0  0  0  0  0  0  0  0
    7.2399    0.5414    1.1406 C   0  0  1  0  0  0  0  0  0  0  0  0
    8.2125    1.1498    0.2176 C   0  0  0  0  0  0  0  0  0  0  0  0
    8.9763    1.6280   -0.5083 N   0  0  0  0  0  0  0  0  0  0  0  0
    0.9061    1.8616   -1.6773 H   0  0  0  0  0  0  0  0  0  0  0  0
    2.5156    1.5310   -3.5916 H   0  0  0  0  0  0  0  0  0  0  0  0
    2.4609   -0.2471   -3.2852 H   0  0  0  0  0  0  0  0  0  0  0  0
    0.9812    0.6335   -3.7599 H   0  0  0  0  0  0  0  0  0  0  0  0
    1.1974   -1.1236   -1.5142 H   0  0  0  0  0  0  0  0  0  0  0  0
    1.3576   -0.3427    0.0602 H   0  0  0  0  0  0  0  0  0  0  0  0
   -1.9694   -1.5464   -4.9277 H   0  0  0  0  0  0  0  0  0  0  0  0
    0.6911    1.4261    1.1064 H   0  0  0  0  0  0  0  0  0  0  0  0
    0.0749    3.5637    2.0170 H   0  0  0  0  0  0  0  0  0  0  0  0
   -3.8308    3.2059    0.3088 H   0  0  0  0  0  0  0  0  0  0  0  0
   -3.4885    0.3504   -1.6774 H   0  0  0  0  0  0  0  0  0  0  0  0
   -4.5362    1.2550   -0.6265 H   0  0  0  0  0  0  0  0  0  0  0  0
   -4.6899   -0.9407    0.0875 H   0  0  0  0  0  0  0  0  0  0  0  0
   -3.7988   -0.0768    1.3627 H   0  0  0  0  0  0  0  0  0  0  0  0
   -4.1030   -2.8671    1.2026 H   0  0  0  0  0  0  0  0  0  0  0  0
   -0.1734   -4.5151    0.9484 H   0  0  0  0  0  0  0  0  0  0  0  0
    0.6651   -2.5132    0.0200 H   0  0  0  0  0  0  0  0  0  0  0  0
   -5.5288   -4.6916    0.2266 H   0  0  0  0  0  0  0  0  0  0  0  0
   -3.9737   -5.0436   -0.6322 H   0  0  0  0  0  0  0  0  0  0  0  0
   -5.0922   -6.3859   -0.2302 H   0  0  0  0  0  0  0  0  0  0  0  0
   -4.2045   -7.2496    2.7411 H   0  0  0  0  0  0  0  0  0  0  0  0
   -5.7801   -6.5865    2.1677 H   0  0  0  0  0  0  0  0  0  0  0  0
   -4.8227   -5.6761    3.3926 H   0  0  0  0  0  0  0  0  0  0  0  0
   -1.8376    5.8681   -0.7839 H   0  0  0  0  0  0  0  0  0  0  0  0
   -3.4973    5.1661   -0.9707 H   0  0  0  0  0  0  0  0  0  0  0  0
   -3.2701    6.9439   -0.8615 H   0  0  0  0  0  0  0  0  0  0  0  0
   -3.1208    7.5137    2.3118 H   0  0  0  0  0  0  0  0  0  0  0  0
   -4.5193    6.3656    2.3871 H   0  0  0  0  0  0  0  0  0  0  0  0
   -4.3828    7.5266    1.0234 H   0  0  0  0  0  0  0  0  0  0  0  0
    2.5950    1.7299   -0.0100 H   0  0  0  0  0  0  0  0  0  0  0  0
    4.2708    0.2204   -1.9704 H   0  0  0  0  0  0  0  0  0  0  0  0
    3.5600   -0.4881   -0.4730 H   0  0  0  0  0  0  0  0  0  0  0  0
    5.8785   -1.7321   -0.6732 H   0  0  0  0  0  0  0  0  0  0  0  0
    5.0771   -1.6876    0.9636 H   0  0  0  0  0  0  0  0  0  0  0  0
    7.0337   -2.7552    1.6868 H   0  0  0  0  0  0  0  0  0  0  0  0
    7.9591   -2.1972    0.2307 H   0  0  0  0  0  0  0  0  0  0  0  0
    8.9296   -0.7340    1.8052 H   0  0  0  0  0  0  0  0  0  0  0  0
    7.4605   -0.7653    2.8528 H   0  0  0  0  0  0  0  0  0  0  0  0
    6.9440    1.2833    1.9141 H   0  0  0  0  0  0  0  0  0  0  0  0
  1  2  1  0
  1  3  1  0
  3  4  1  0
  4  5  1  0
  5  6  2  0
  6  7  1  0
  7  8  1  0
  8  9  2  0
  4 10  1  0
 10 11  2  0
 11 12  1  0
 12 13  2  0
 13 14  1  0
 14 15  2  0
 15 16  1  0
 16 17  1  0
 17 18  1  0
 18 19  2  0
 19 20  1  0
 20 21  2  0
 21 22  1  0
 22 23  2  0
 20 24  1  0
 24 25  2  0
 24 26  1  0
 26 27  1  0
 26 28  1  0
 13 29  1  0
 29 30  2  0
 29 31  1  0
 31 32  1  0
 31 33  1  0
  1 34  1  0
 34 35  1  0
 35 36  1  0
 36 37  2  0
 36 38  1  0
 38 39  1  0
 39 40  1  0
 40 41  1  0
 41 42  1  0
 42 43  1  0
 43 44  3  0
 23  4  1  0
 42 38  1  0
  9  5  1  0
 15 10  1  0
 23 18  1  0
  1 45  1  6
  2 46  1  0
  2 47  1  0
  2 48  1  0
  3 49  1  0
  3 50  1  0
  7 51  1  0
 11 52  1  0
 12 53  1  0
 14 54  1  0
 16 55  1  0
 16 56  1  0
 17 57  1  0
 17 58  1  0
 19 59  1  0
 21 60  1  0
 22 61  1  0
 27 62  1  0
 27 63  1  0
 27 64  1  0
 28 65  1  0
 28 66  1  0
 28 67  1  0
 32 68  1  0
 32 69  1  0
 32 70  1  0
 33 71  1  0
 33 72  1  0
 33 73  1  0
 34 74  1  0
 35 75  1  0
 35 76  1  0
 39 77  1  0
 39 78  1  0
 40 79  1  0
 40 80  1  0
 41 81  1  0
 41 82  1  0
 42 83  1  1
M  END
$$$$
