
     RDKit          3D

 62 66  0  0  0  0  0  0  0  0999 V2000
    2.7060    0.5077    1.5031 C   0  0  2  0  0  0  0  0  0  0  0  0
    1.2840    0.4049    2.0974 C   0  0  0  0  0  0  0  0  0  0  0  0
    0.3983    0.1317    0.8897 C   0  0  1  0  0  0  0  0  0  0  0  0
   -1.1270    0.3500    1.0026 C   0  0  2  0  0  0  0  0  0  0  0  0
   -1.6910   -0.4621    2.1880 C   0  0  0  0  0  0  0  0  0  0  0  0
   -3.2106   -0.3411    2.2814 C   0  0  2  0  0  0  0  0  0  0  0  0
   -3.6524   -1.1105    3.3470 F   0  0  0  0  0  0  0  0  0  0  0  0
   -3.8349   -0.7630    0.9675 C   0  0  0  0  0  0  0  0  0  0  0  0
   -4.7766   -1.7237    0.9396 C   0  0  0  0  0  0  0  0  0  0  0  0
   -5.3482   -2.1828   -0.3253 C   0  0  0  0  0  0  0  0  0  0  0  0
   -6.2427   -3.0689   -0.3321 O   0  0  0  0  0  0  0  0  0  0  0  0
   -4.8638   -1.6202   -1.5812 C   0  0  0  0  0  0  0  0  0  0  0  0
   -3.9404   -0.6595   -1.5812 C   0  0  0  0  0  0  0  0  0  0  0  0
   -3.3691   -0.0336   -0.3071 C   0  0  1  0  0  0  0  0  0  0  0  0
   -3.9141    1.4143   -0.2439 C   0  0  0  0  0  0  0  0  0  0  0  0
   -1.7908   -0.1094   -0.3456 C   0  0  1  0  0  0  0  0  0  0  0  0
   -1.1074    0.5263   -1.6114 C   0  0  1  0  0  0  0  0  0  0  0  0
   -1.5007    1.8611   -1.7856 O   0  0  0  0  0  0  0  0  0  0  0  0
    0.4448    0.4240   -1.5812 C   0  0  0  0  0  0  0  0  0  0  0  0
    1.0503    0.9281   -0.2460 C   0  0  1  0  0  0  0  0  0  0  0  0
    0.8469    2.4750   -0.1038 C   0  0  0  0  0  0  0  0  0  0  0  0
    2.5568    0.5803   -0.0208 C   0  0  2  0  0  0  0  0  0  0  0  0
    2.8442   -0.7177   -0.4646 O   0  0  0  0  0  0  0  0  0  0  0  0
    3.5768   -1.3437    0.5677 C   0  0  0  0  0  0  0  0  0  0  0  0
    3.0542   -2.7723    0.7461 C   0  0  0  0  0  0  0  0  0  0  0  0
    5.0626   -1.3840    0.1861 C   0  0  0  0  0  0  0  0  0  0  0  0
    3.4311   -0.6513    1.7878 O   0  0  0  0  0  0  0  0  0  0  0  0
    3.5245    1.5524   -0.6995 C   0  0  0  0  0  0  0  0  0  0  0  0
    3.9818    2.5036   -0.0821 O   0  0  0  0  0  0  0  0  0  0  0  0
    3.9138    1.3801   -2.1446 C   0  0  0  0  0  0  0  0  0  0  0  0
    3.6532    2.5554   -2.8623 O   0  0  0  0  0  0  0  0  0  0  0  0
    3.2276    1.3839    1.9443 H   0  0  0  0  0  0  0  0  0  0  0  0
    1.2094   -0.4145    2.8458 H   0  0  0  0  0  0  0  0  0  0  0  0
    0.9936    1.3621    2.5828 H   0  0  0  0  0  0  0  0  0  0  0  0
    0.5270   -0.9550    0.6709 H   0  0  0  0  0  0  0  0  0  0  0  0
   -1.3422    1.4154    1.2071 H   0  0  0  0  0  0  0  0  0  0  0  0
   -1.2537   -0.0887    3.1393 H   0  0  0  0  0  0  0  0  0  0  0  0
   -1.4154   -1.5355    2.0829 H   0  0  0  0  0  0  0  0  0  0  0  0
   -3.4849    0.7135    2.4956 H   0  0  0  0  0  0  0  0  0  0  0  0
   -5.1166   -2.2018    1.8494 H   0  0  0  0  0  0  0  0  0  0  0  0
   -5.2639   -1.9816   -2.5207 H   0  0  0  0  0  0  0  0  0  0  0  0
   -3.6605   -0.2444   -2.5406 H   0  0  0  0  0  0  0  0  0  0  0  0
   -4.9935    1.4032    0.0237 H   0  0  0  0  0  0  0  0  0  0  0  0
   -3.3870    2.0306    0.5102 H   0  0  0  0  0  0  0  0  0  0  0  0
   -3.8434    1.9285   -1.2244 H   0  0  0  0  0  0  0  0  0  0  0  0
   -1.5631   -1.1987   -0.4329 H   0  0  0  0  0  0  0  0  0  0  0  0
   -1.4302   -0.0591   -2.5019 H   0  0  0  0  0  0  0  0  0  0  0  0
   -1.3038    2.1031   -2.7282 H   0  0  0  0  0  0  0  0  0  0  0  0
    0.8732    0.9923   -2.4336 H   0  0  0  0  0  0  0  0  0  0  0  0
    0.7163   -0.6420   -1.7434 H   0  0  0  0  0  0  0  0  0  0  0  0
   -0.2071    2.7824   -0.0001 H   0  0  0  0  0  0  0  0  0  0  0  0
    1.2425    2.9981   -0.9994 H   0  0  0  0  0  0  0  0  0  0  0  0
    1.3801    2.8786    0.7818 H   0  0  0  0  0  0  0  0  0  0  0  0
    1.9875   -2.7572    1.0509 H   0  0  0  0  0  0  0  0  0  0  0  0
    3.6315   -3.3021    1.5340 H   0  0  0  0  0  0  0  0  0  0  0  0
    3.1402   -3.3382   -0.2063 H   0  0  0  0  0  0  0  0  0  0  0  0
    5.1979   -1.8988   -0.7892 H   0  0  0  0  0  0  0  0  0  0  0  0
    5.4661   -0.3535    0.0994 H   0  0  0  0  0  0  0  0  0  0  0  0
    5.6493   -1.9200    0.9626 H   0  0  0  0  0  0  0  0  0  0  0  0
    5.0022    1.1683   -2.1946 H   0  0  0  0  0  0  0  0  0  0  0  0
    3.3842    0.5196   -2.6110 H   0  0  0  0  0  0  0  0  0  0  0  0
    2.6769    2.5706   -3.0399 H   0  0  0  0  0  0  0  0  0  0  0  0
  1  2  1  0
  2  3  1  0
  3  4  1  0
  4  5  1  0
  5  6  1  0
  6  7  1  0
  6  8  1  0
  8  9  2  0
  9 10  1  0
 10 11  2  0
 10 12  1  0
 12 13  2  0
 13 14  1  0
 14 15  1  1
 14 16  1  0
 16 17  1  0
 17 18  1  0
 17 19  1  0
 19 20  1  0
 20 21  1  1
 20 22  1  0
 22 23  1  0
 23 24  1  0
 24 25  1  0
 24 26  1  0
 24 27  1  0
 22 28  1  6
 28 29  2  0
 28 30  1  0
 30 31  1  0
 22  1  1  0
 27  1  1  0
 20  3  1  0
 16  4  1  0
 14  8  1  0
  1 32  1  1
  2 33  1  0
  2 34  1  0
  3 35  1  6
  4 36  1  1
  5 37  1  0
  5 38  1  0
  6 39  1  1
  9 40  1  0
 12 41  1  0
 13 42  1  0
 15 43  1  0
 15 44  1  0
 15 45  1  0
 16 46  1  6
 17 47  1  6
 18 48  1  0
 19 49  1  0
 19 50  1  0
 21 51  1  0
 21 52  1  0
 21 53  1  0
 25 54  1  0
 25 55  1  0
 25 56  1  0
 26 57  1  0
 26 58  1  0
 26 59  1  0
 30 60  1  0
 30 61  1  0
 31 62  1  0
M  END
$$$$
