
     RDKit          3D

 33 35  0  0  0  0  0  0  0  0999 V2000
    0.4459   -2.6185   -0.9813 C   0  0  0  0  0  0  0  0  0  0  0  0
    0.1050   -1.1753   -1.3427 C   0  0  0  0  0  0  0  0  0  0  0  0
    0.5501   -0.2231   -0.2636 C   0  0  0  0  0  0  0  0  0  0  0  0
    1.8489    0.1749   -0.0198 C   0  0  0  0  0  0  0  0  0  0  0  0
    3.0683   -0.1727   -0.6000 C   0  0  0  0  0  0  0  0  0  0  0  0
    4.2291    0.4613   -0.1155 C   0  0  0  0  0  0  0  0  0  0  0  0
    5.4661    0.1351   -0.6660 O   0  0  0  0  0  0  0  0  0  0  0  0
    4.1350    1.4243    0.9208 C   0  0  0  0  0  0  0  0  0  0  0  0
    2.8848    1.7613    1.4728 C   0  0  0  0  0  0  0  0  0  0  0  0
    1.7598    1.1119    0.9728 C   0  0  0  0  0  0  0  0  0  0  0  0
    0.4778    1.3010    1.3294 N   0  0  0  0  0  0  0  0  0  0  0  0
   -0.2549    0.4803    0.5813 N   0  0  0  0  0  0  0  0  0  0  0  0
   -1.6886    0.4441    0.6607 C   0  0  0  0  0  0  0  0  0  0  0  0
   -2.4165    1.6441    0.6643 C   0  0  0  0  0  0  0  0  0  0  0  0
   -3.8110    1.6247    0.7639 C   0  0  0  0  0  0  0  0  0  0  0  0
   -4.4910    0.4080    0.8767 C   0  0  0  0  0  0  0  0  0  0  0  0
   -5.8806    0.4025    0.9742 O   0  0  0  0  0  0  0  0  0  0  0  0
   -3.7683   -0.7925    0.8951 C   0  0  0  0  0  0  0  0  0  0  0  0
   -2.3739   -0.7742    0.7951 C   0  0  0  0  0  0  0  0  0  0  0  0
    1.5453   -2.7512   -0.9042 H   0  0  0  0  0  0  0  0  0  0  0  0
    0.0643   -3.2983   -1.7718 H   0  0  0  0  0  0  0  0  0  0  0  0
   -0.0171   -2.9033   -0.0143 H   0  0  0  0  0  0  0  0  0  0  0  0
    0.6151   -0.9096   -2.2933 H   0  0  0  0  0  0  0  0  0  0  0  0
   -0.9855   -1.0848   -1.5233 H   0  0  0  0  0  0  0  0  0  0  0  0
    3.1243   -0.9006   -1.3987 H   0  0  0  0  0  0  0  0  0  0  0  0
    6.3209    0.5724   -0.3421 H   0  0  0  0  0  0  0  0  0  0  0  0
    5.0277    1.9125    1.2901 H   0  0  0  0  0  0  0  0  0  0  0  0
    2.8016    2.5037    2.2559 H   0  0  0  0  0  0  0  0  0  0  0  0
   -1.9023    2.5932    0.5781 H   0  0  0  0  0  0  0  0  0  0  0  0
   -4.3633    2.5558    0.7552 H   0  0  0  0  0  0  0  0  0  0  0  0
   -6.4019   -0.4623    1.0584 H   0  0  0  0  0  0  0  0  0  0  0  0
   -4.2850   -1.7386    0.9948 H   0  0  0  0  0  0  0  0  0  0  0  0
   -1.8305   -1.7064    0.8422 H   0  0  0  0  0  0  0  0  0  0  0  0
  1  2  1  0
  2  3  1  0
  3  4  2  0
  4  5  1  0
  5  6  2  0
  6  7  1  0
  6  8  1  0
  8  9  2  0
  9 10  1  0
 10 11  2  0
 11 12  1  0
 12 13  1  0
 13 14  2  0
 14 15  1  0
 15 16  2  0
 16 17  1  0
 16 18  1  0
 18 19  2  0
 12  3  1  0
 19 13  1  0
 10  4  1  0
  1 20  1  0
  1 21  1  0
  1 22  1  0
  2 23  1  0
  2 24  1  0
  5 25  1  0
  7 26  1  0
  8 27  1  0
  9 28  1  0
 14 29  1  0
 15 30  1  0
 17 31  1  0
 18 32  1  0
 19 33  1  0
M  END
$$$$
