
     RDKit          3D

 48 52  0  0  0  0  0  0  0  0999 V2000
   -5.4588    3.1822   -2.1228 Cl  0  0  0  0  0  0  0  0  0  0  0  0
   -4.3721    2.0978   -1.2743 C   0  0  0  0  0  0  0  0  0  0  0  0
   -3.4274    1.3574   -1.9850 C   0  0  0  0  0  0  0  0  0  0  0  0
   -2.5622    0.4926   -1.3109 C   0  0  0  0  0  0  0  0  0  0  0  0
   -2.6191    0.3520    0.0941 C   0  0  0  0  0  0  0  0  0  0  0  0
   -3.5892    1.1081    0.7943 C   0  0  0  0  0  0  0  0  0  0  0  0
   -4.4527    1.9709    0.1130 C   0  0  0  0  0  0  0  0  0  0  0  0
   -1.6402   -0.6251    0.7861 C   0  0  0  0  0  0  0  0  0  0  0  0
   -2.0160   -2.0758    0.3613 C   0  0  0  0  0  0  0  0  0  0  0  0
   -3.4227   -2.4915    0.8503 C   0  0  0  0  0  0  0  0  0  0  0  0
   -3.8907   -1.6900    1.9928 N   0  0  0  0  0  0  0  0  0  0  0  0
   -2.8164   -1.4554    2.9618 C   0  0  0  0  0  0  0  0  0  0  0  0
   -1.6900   -0.5913    2.3512 C   0  0  0  0  0  0  0  0  0  0  0  0
   -0.2102   -0.2231    0.3682 C   0  0  0  0  0  0  0  0  0  0  0  0
    0.2480    1.0749    0.6759 C   0  0  0  0  0  0  0  0  0  0  0  0
    1.5313    1.4915    0.3170 C   0  0  0  0  0  0  0  0  0  0  0  0
    2.4030    0.6212   -0.3527 C   0  0  0  0  0  0  0  0  0  0  0  0
    1.9521   -0.6670   -0.6820 C   0  0  0  0  0  0  0  0  0  0  0  0
    0.6673   -1.0863   -0.3257 C   0  0  0  0  0  0  0  0  0  0  0  0
    3.7581    1.0866   -0.7342 C   0  0  0  0  0  0  0  0  0  0  0  0
    4.8793    0.2523   -0.7445 C   0  0  0  0  0  0  0  0  0  0  0  0
    4.9931   -1.0432   -0.3967 N   0  0  0  0  0  0  0  0  0  0  0  0
    6.3210   -1.2870   -0.5693 C   0  0  0  0  0  0  0  0  0  0  0  0
    7.0211   -0.2058   -0.9927 N   0  0  0  0  0  0  0  0  0  0  0  0
    6.0907    0.7477   -1.0906 C   0  0  0  0  0  0  0  0  0  0  0  0
    6.2826    2.0435   -1.4308 N   0  0  0  0  0  0  0  0  0  0  0  0
    5.1977    2.8733   -1.4240 C   0  0  0  0  0  0  0  0  0  0  0  0
    3.9599    2.3971   -1.0752 N   0  0  0  0  0  0  0  0  0  0  0  0
   -3.3615    1.4501   -3.0616 H   0  0  0  0  0  0  0  0  0  0  0  0
   -1.8386   -0.0674   -1.8897 H   0  0  0  0  0  0  0  0  0  0  0  0
   -3.7057    1.0387    1.8646 H   0  0  0  0  0  0  0  0  0  0  0  0
   -5.1885    2.5396    0.6675 H   0  0  0  0  0  0  0  0  0  0  0  0
   -1.2841   -2.7857    0.8081 H   0  0  0  0  0  0  0  0  0  0  0  0
   -1.9666   -2.2010   -0.7423 H   0  0  0  0  0  0  0  0  0  0  0  0
   -3.4175   -3.5728    1.1161 H   0  0  0  0  0  0  0  0  0  0  0  0
   -4.1458   -2.3583    0.0170 H   0  0  0  0  0  0  0  0  0  0  0  0
   -4.6549   -2.2206    2.4726 H   0  0  0  0  0  0  0  0  0  0  0  0
   -2.4036   -2.4301    3.3099 H   0  0  0  0  0  0  0  0  0  0  0  0
   -3.2319   -0.9348    3.8518 H   0  0  0  0  0  0  0  0  0  0  0  0
   -0.7310   -0.9855    2.7579 H   0  0  0  0  0  0  0  0  0  0  0  0
   -1.7527    0.4512    2.7286 H   0  0  0  0  0  0  0  0  0  0  0  0
   -0.3967    1.7743    1.1933 H   0  0  0  0  0  0  0  0  0  0  0  0
    1.8471    2.4949    0.5750 H   0  0  0  0  0  0  0  0  0  0  0  0
    2.5802   -1.3466   -1.2423 H   0  0  0  0  0  0  0  0  0  0  0  0
    0.3768   -2.0853   -0.6137 H   0  0  0  0  0  0  0  0  0  0  0  0
    6.7754   -2.2498   -0.3765 H   0  0  0  0  0  0  0  0  0  0  0  0
    8.0456   -0.1332   -1.1799 H   0  0  0  0  0  0  0  0  0  0  0  0
    5.3167    3.9147   -1.6894 H   0  0  0  0  0  0  0  0  0  0  0  0
  1  2  1  0
  2  3  2  0
  3  4  1  0
  4  5  2  0
  5  6  1  0
  6  7  2  0
  5  8  1  0
  8  9  1  0
  9 10  1  0
 10 11  1  0
 11 12  1  0
 12 13  1  0
  8 14  1  0
 14 15  2  0
 15 16  1  0
 16 17  2  0
 17 18  1  0
 18 19  2  0
 17 20  1  0
 20 21  2  0
 21 22  1  0
 22 23  2  0
 23 24  1  0
 24 25  1  0
 25 26  2  0
 26 27  1  0
 27 28  2  0
  7  2  1  0
 13  8  1  0
 19 14  1  0
 28 20  1  0
 25 21  1  0
  3 29  1  0
  4 30  1  0
  6 31  1  0
  7 32  1  0
  9 33  1  0
  9 34  1  0
 10 35  1  0
 10 36  1  0
 11 37  1  0
 12 38  1  0
 12 39  1  0
 13 40  1  0
 13 41  1  0
 15 42  1  0
 16 43  1  0
 18 44  1  0
 19 45  1  0
 23 46  1  0
 24 47  1  0
 27 48  1  0
M  END
$$$$
