
     RDKit          3D

 27 29  0  0  0  0  0  0  0  0999 V2000
    6.7792   -0.3398    1.1634 N   0  0  0  0  0  0  0  0  0  0  0  0
    5.7336    0.1445    1.0572 C   0  0  0  0  0  0  0  0  0  0  0  0
    4.4348    0.7460    0.9252 C   0  0  0  0  0  0  0  0  0  0  0  0
    4.2710    2.0619    1.2236 N   0  0  0  0  0  0  0  0  0  0  0  0
    3.0625    2.6734    1.1138 C   0  0  0  0  0  0  0  0  0  0  0  0
    1.9468    1.9506    0.6853 C   0  0  0  0  0  0  0  0  0  0  0  0
    2.0811    0.5892    0.3688 C   0  0  0  0  0  0  0  0  0  0  0  0
    3.3429   -0.0156    0.4921 C   0  0  0  0  0  0  0  0  0  0  0  0
    0.9129   -0.1941   -0.0867 C   0  0  0  0  0  0  0  0  0  0  0  0
    0.9647   -1.5023   -0.4071 N   0  0  0  0  0  0  0  0  0  0  0  0
   -0.2611   -1.8390   -0.7620 N   0  0  0  0  0  0  0  0  0  0  0  0
   -1.0386   -0.7440   -0.6552 C   0  0  0  0  0  0  0  0  0  0  0  0
   -0.3281    0.3209   -0.2289 N   0  0  0  0  0  0  0  0  0  0  0  0
   -2.4899   -0.6894   -0.9606 C   0  0  0  0  0  0  0  0  0  0  0  0
   -3.1921    0.5188   -0.8087 C   0  0  0  0  0  0  0  0  0  0  0  0
   -4.5580    0.5692   -1.0964 C   0  0  0  0  0  0  0  0  0  0  0  0
   -5.2073   -0.5454   -1.5220 N   0  0  0  0  0  0  0  0  0  0  0  0
   -4.5591   -1.7288   -1.6795 C   0  0  0  0  0  0  0  0  0  0  0  0
   -3.1927   -1.8246   -1.4031 C   0  0  0  0  0  0  0  0  0  0  0  0
    2.9670    3.7226    1.3595 H   0  0  0  0  0  0  0  0  0  0  0  0
    0.9906    2.4519    0.6029 H   0  0  0  0  0  0  0  0  0  0  0  0
    3.4778   -1.0646    0.2551 H   0  0  0  0  0  0  0  0  0  0  0  0
   -0.5341   -2.7985   -1.0656 H   0  0  0  0  0  0  0  0  0  0  0  0
   -2.6918    1.4177   -0.4707 H   0  0  0  0  0  0  0  0  0  0  0  0
   -5.1025    1.4969   -0.9809 H   0  0  0  0  0  0  0  0  0  0  0  0
   -5.1051   -2.5985   -2.0202 H   0  0  0  0  0  0  0  0  0  0  0  0
   -2.7045   -2.7787   -1.5377 H   0  0  0  0  0  0  0  0  0  0  0  0
  1  2  3  0
  2  3  1  0
  3  4  2  0
  4  5  1  0
  5  6  2  0
  6  7  1  0
  7  8  2  0
  7  9  1  0
  9 10  2  0
 10 11  1  0
 11 12  1  0
 12 13  2  0
 12 14  1  0
 14 15  2  0
 15 16  1  0
 16 17  2  0
 17 18  1  0
 18 19  2  0
  8  3  1  0
 13  9  1  0
 19 14  1  0
  5 20  1  0
  6 21  1  0
  8 22  1  0
 11 23  1  0
 15 24  1  0
 16 25  1  0
 18 26  1  0
 19 27  1  0
M  END
$$$$
