
     RDKit          3D

 57 60  0  0  0  0  0  0  0  0999 V2000
   -6.4080    1.9921    1.3130 C   0  0  0  0  0  0  0  0  0  0  0  0
   -5.8134    1.4942    0.1189 O   0  0  0  0  0  0  0  0  0  0  0  0
   -4.7780    0.5472    0.0830 C   0  0  0  0  0  0  0  0  0  0  0  0
   -4.2815    0.1445   -1.1786 C   0  0  0  0  0  0  0  0  0  0  0  0
   -4.8476    0.7143   -2.3297 O   0  0  0  0  0  0  0  0  0  0  0  0
   -4.4457    0.4072   -3.6607 C   0  0  0  0  0  0  0  0  0  0  0  0
   -3.2402   -0.8088   -1.2518 C   0  0  0  0  0  0  0  0  0  0  0  0
   -2.7268   -1.3280   -0.0658 C   0  0  0  0  0  0  0  0  0  0  0  0
   -1.6638   -2.2844    0.1207 C   0  0  0  0  0  0  0  0  0  0  0  0
   -1.0663   -2.8878   -0.8100 O   0  0  0  0  0  0  0  0  0  0  0  0
   -1.3974   -2.4822    1.5801 C   0  0  0  0  0  0  0  0  0  0  0  0
    0.0407   -2.0900    2.0024 C   0  0  0  0  0  0  0  0  0  0  0  0
    0.4773   -0.6231    1.7003 C   0  0  0  0  0  0  0  0  0  0  0  0
    1.6773   -0.2127    2.5949 C   0  0  0  0  0  0  0  0  0  0  0  0
    3.0082   -0.4614    1.8773 C   0  0  0  0  0  0  0  0  0  0  0  0
    3.1467    0.3863    0.6680 N   0  0  0  0  0  0  0  0  0  0  0  0
    4.1422   -0.1894   -0.2593 C   0  0  0  0  0  0  0  0  0  0  0  0
    4.7119    0.8817   -1.1524 C   0  0  0  0  0  0  0  0  0  0  0  0
    5.4683    1.9279   -0.5987 C   0  0  0  0  0  0  0  0  0  0  0  0
    5.9931    2.9297   -1.4211 C   0  0  0  0  0  0  0  0  0  0  0  0
    5.7668    2.8940   -2.7997 C   0  0  0  0  0  0  0  0  0  0  0  0
    5.0153    1.8564   -3.3583 C   0  0  0  0  0  0  0  0  0  0  0  0
    4.4888    0.8524   -2.5395 C   0  0  0  0  0  0  0  0  0  0  0  0
    1.8572    0.6888   -0.0093 C   0  0  0  0  0  0  0  0  0  0  0  0
    0.8065   -0.4117    0.1970 C   0  0  0  0  0  0  0  0  0  0  0  0
   -2.5036   -1.6428    2.2828 C   0  0  0  0  0  0  0  0  0  0  0  0
   -3.1985   -0.9381    1.1596 C   0  0  0  0  0  0  0  0  0  0  0  0
   -4.2288   -0.0048    1.2644 C   0  0  0  0  0  0  0  0  0  0  0  0
   -6.8742    1.1607    1.8828 H   0  0  0  0  0  0  0  0  0  0  0  0
   -5.6433    2.5018    1.9365 H   0  0  0  0  0  0  0  0  0  0  0  0
   -7.1960    2.7259    1.0469 H   0  0  0  0  0  0  0  0  0  0  0  0
   -4.6060   -0.6718   -3.8686 H   0  0  0  0  0  0  0  0  0  0  0  0
   -3.3767    0.6704   -3.8070 H   0  0  0  0  0  0  0  0  0  0  0  0
   -5.0579    1.0005   -4.3702 H   0  0  0  0  0  0  0  0  0  0  0  0
   -2.8340   -1.1370   -2.1988 H   0  0  0  0  0  0  0  0  0  0  0  0
   -1.5522   -3.5574    1.8204 H   0  0  0  0  0  0  0  0  0  0  0  0
    0.0981   -2.2741    3.0973 H   0  0  0  0  0  0  0  0  0  0  0  0
    0.7613   -2.7976    1.5372 H   0  0  0  0  0  0  0  0  0  0  0  0
   -0.3554    0.0634    1.9618 H   0  0  0  0  0  0  0  0  0  0  0  0
    1.6054    0.8715    2.8346 H   0  0  0  0  0  0  0  0  0  0  0  0
    1.6727   -0.7488    3.5681 H   0  0  0  0  0  0  0  0  0  0  0  0
    3.8396   -0.2256    2.5760 H   0  0  0  0  0  0  0  0  0  0  0  0
    3.0758   -1.5441    1.6212 H   0  0  0  0  0  0  0  0  0  0  0  0
    4.9940   -0.6295    0.3074 H   0  0  0  0  0  0  0  0  0  0  0  0
    3.6903   -1.0160   -0.8534 H   0  0  0  0  0  0  0  0  0  0  0  0
    5.6485    1.9668    0.4687 H   0  0  0  0  0  0  0  0  0  0  0  0
    6.5747    3.7339   -0.9894 H   0  0  0  0  0  0  0  0  0  0  0  0
    6.1732    3.6704   -3.4350 H   0  0  0  0  0  0  0  0  0  0  0  0
    4.8398    1.8305   -4.4260 H   0  0  0  0  0  0  0  0  0  0  0  0
    3.9057    0.0567   -2.9863 H   0  0  0  0  0  0  0  0  0  0  0  0
    1.9923    0.8569   -1.1003 H   0  0  0  0  0  0  0  0  0  0  0  0
    1.4603    1.6433    0.3989 H   0  0  0  0  0  0  0  0  0  0  0  0
   -0.1138   -0.1198   -0.3516 H   0  0  0  0  0  0  0  0  0  0  0  0
    1.1950   -1.3475   -0.2602 H   0  0  0  0  0  0  0  0  0  0  0  0
   -2.1035   -0.9160    3.0205 H   0  0  0  0  0  0  0  0  0  0  0  0
   -3.2263   -2.3127    2.7969 H   0  0  0  0  0  0  0  0  0  0  0  0
   -4.5877    0.2797    2.2440 H   0  0  0  0  0  0  0  0  0  0  0  0
  1  2  1  0
  2  3  1  0
  3  4  2  0
  4  5  1  0
  5  6  1  0
  4  7  1  0
  7  8  2  0
  8  9  1  0
  9 10  2  0
  9 11  1  0
 11 12  1  0
 12 13  1  0
 13 14  1  0
 14 15  1  0
 15 16  1  0
 16 17  1  0
 17 18  1  0
 18 19  2  0
 19 20  1  0
 20 21  2  0
 21 22  1  0
 22 23  2  0
 16 24  1  0
 24 25  1  0
 11 26  1  0
 26 27  1  0
 27 28  2  0
 28  3  1  0
 27  8  1  0
 25 13  1  0
 23 18  1  0
  1 29  1  0
  1 30  1  0
  1 31  1  0
  6 32  1  0
  6 33  1  0
  6 34  1  0
  7 35  1  0
 11 36  1  0
 12 37  1  0
 12 38  1  0
 13 39  1  0
 14 40  1  0
 14 41  1  0
 15 42  1  0
 15 43  1  0
 17 44  1  0
 17 45  1  0
 19 46  1  0
 20 47  1  0
 21 48  1  0
 22 49  1  0
 23 50  1  0
 24 51  1  0
 24 52  1  0
 25 53  1  0
 25 54  1  0
 26 55  1  0
 26 56  1  0
 28 57  1  0
M  END
$$$$
