
     RDKit          3D

 80 81  0  0  0  0  0  0  0  0999 V2000
   -1.5673   -5.2566   -0.8533 C   0  0  0  0  0  0  0  0  0  0  0  0
   -1.6327   -4.3293    0.2091 O   0  0  0  0  0  0  0  0  0  0  0  0
   -0.6994   -3.2729    0.0225 C   0  0  1  0  0  0  0  0  0  0  0  0
   -1.3684   -1.9346    0.4591 C   0  0  0  0  0  0  0  0  0  0  0  0
   -2.8131   -1.7593   -0.0859 C   0  0  2  0  0  0  0  0  0  0  0  0
   -2.8433   -1.5401   -1.6056 C   0  0  0  0  0  0  0  0  0  0  0  0
   -3.6203   -0.6893    0.6986 C   0  0  0  0  0  0  0  0  0  0  0  0
   -3.2938    0.7619    0.3758 C   0  0  0  0  0  0  0  0  0  0  0  0
   -3.9869    1.4203   -0.5839 C   0  0  0  0  0  0  0  0  0  0  0  0
   -4.9565    0.7123   -1.3196 O   0  0  0  0  0  0  0  0  0  0  0  0
   -5.7741    1.2426   -2.3559 C   0  0  0  0  0  0  0  0  0  0  0  0
   -3.7221    2.8691   -0.8082 C   0  0  0  0  0  0  0  0  0  0  0  0
   -4.2612    3.4968   -1.7565 O   0  0  0  0  0  0  0  0  0  0  0  0
   -2.8233    3.5997    0.0933 C   0  0  0  0  0  0  0  0  0  0  0  0
   -2.1354    2.9680    1.0505 C   0  0  0  0  0  0  0  0  0  0  0  0
   -1.2833    3.7440    1.9145 N   0  0  0  0  0  0  0  0  0  0  0  0
   -0.0063    3.2883    2.3704 C   0  0  0  0  0  0  0  0  0  0  0  0
    0.0863    2.7499    3.5059 O   0  0  0  0  0  0  0  0  0  0  0  0
    1.2130    3.5280    1.5621 C   0  0  0  0  0  0  0  0  0  0  0  0
    2.5430    3.6002    2.2667 C   0  0  0  0  0  0  0  0  0  0  0  0
    1.1151    3.5750    0.2219 C   0  0  0  0  0  0  0  0  0  0  0  0
    2.2653    3.6452   -0.6927 C   0  0  0  0  0  0  0  0  0  0  0  0
    2.6168    2.6437   -1.5167 C   0  0  0  0  0  0  0  0  0  0  0  0
    2.1327    1.2018   -1.4148 C   0  0  2  0  0  0  0  0  0  0  0  0
    0.8063    1.1142   -0.9183 O   0  0  0  0  0  0  0  0  0  0  0  0
   -0.1232    1.2681   -1.9701 C   0  0  0  0  0  0  0  0  0  0  0  0
    3.1087    0.3554   -0.5470 C   0  0  1  0  0  0  0  0  0  0  0  0
    3.8716    1.1823    0.3405 O   0  0  0  0  0  0  0  0  0  0  0  0
    5.0796    0.7783    0.9232 C   0  0  0  0  0  0  0  0  0  0  0  0
    5.8042    1.6896    1.7444 N   0  0  0  0  0  0  0  0  0  0  0  0
    5.5325   -0.3824    0.7291 O   0  0  0  0  0  0  0  0  0  0  0  0
    2.4222   -0.7847    0.2092 C   0  0  0  0  0  0  0  0  0  0  0  0
    2.1994   -0.6818    1.7016 C   0  0  0  0  0  0  0  0  0  0  0  0
    2.0703   -1.8951   -0.4819 C   0  0  0  0  0  0  0  0  0  0  0  0
    1.9419   -3.2875    0.1262 C   0  0  2  0  0  0  0  0  0  0  0  0
    2.2565   -4.3393   -0.9535 C   0  0  0  0  0  0  0  0  0  0  0  0
    0.5917   -3.6201    0.8345 C   0  0  1  0  0  0  0  0  0  0  0  0
    0.5482   -3.0752    2.1287 O   0  0  0  0  0  0  0  0  0  0  0  0
   -2.2944    1.4974    1.2054 C   0  0  0  0  0  0  0  0  0  0  0  0
   -1.6117    0.8768    2.0632 O   0  0  0  0  0  0  0  0  0  0  0  0
   -2.2454   -6.1041   -0.6252 H   0  0  0  0  0  0  0  0  0  0  0  0
   -0.5415   -5.6682   -0.9739 H   0  0  0  0  0  0  0  0  0  0  0  0
   -1.9130   -4.7946   -1.8033 H   0  0  0  0  0  0  0  0  0  0  0  0
   -0.4238   -3.1405   -1.0505 H   0  0  0  0  0  0  0  0  0  0  0  0
   -0.7383   -1.0778    0.1376 H   0  0  0  0  0  0  0  0  0  0  0  0
   -1.4326   -1.9070    1.5665 H   0  0  0  0  0  0  0  0  0  0  0  0
   -3.3647   -2.7057    0.1009 H   0  0  0  0  0  0  0  0  0  0  0  0
   -3.8925   -1.5180   -1.9659 H   0  0  0  0  0  0  0  0  0  0  0  0
   -2.3370   -2.3719   -2.1345 H   0  0  0  0  0  0  0  0  0  0  0  0
   -2.3421   -0.5938   -1.8827 H   0  0  0  0  0  0  0  0  0  0  0  0
   -4.7037   -0.8730    0.5269 H   0  0  0  0  0  0  0  0  0  0  0  0
   -3.4952   -0.8598    1.7897 H   0  0  0  0  0  0  0  0  0  0  0  0
   -6.3987    2.0735   -1.9658 H   0  0  0  0  0  0  0  0  0  0  0  0
   -6.4482    0.4430   -2.7251 H   0  0  0  0  0  0  0  0  0  0  0  0
   -5.1443    1.5849   -3.2036 H   0  0  0  0  0  0  0  0  0  0  0  0
   -2.7086    4.6689   -0.0418 H   0  0  0  0  0  0  0  0  0  0  0  0
   -1.4317    4.7780    1.9552 H   0  0  0  0  0  0  0  0  0  0  0  0
    2.4228    4.0920    3.2550 H   0  0  0  0  0  0  0  0  0  0  0  0
    2.9370    2.5789    2.4296 H   0  0  0  0  0  0  0  0  0  0  0  0
    3.2835    4.1951    1.6927 H   0  0  0  0  0  0  0  0  0  0  0  0
    0.1467    3.4922   -0.2488 H   0  0  0  0  0  0  0  0  0  0  0  0
    2.8037    4.5825   -0.7546 H   0  0  0  0  0  0  0  0  0  0  0  0
    3.4444    2.8258   -2.1916 H   0  0  0  0  0  0  0  0  0  0  0  0
    2.1967    0.7666   -2.4432 H   0  0  0  0  0  0  0  0  0  0  0  0
    0.0900    2.1696   -2.5871 H   0  0  0  0  0  0  0  0  0  0  0  0
   -0.1399    0.3581   -2.6083 H   0  0  0  0  0  0  0  0  0  0  0  0
   -1.1301    1.4052   -1.5332 H   0  0  0  0  0  0  0  0  0  0  0  0
    3.8406   -0.1027   -1.2535 H   0  0  0  0  0  0  0  0  0  0  0  0
    5.4514    2.6606    1.8912 H   0  0  0  0  0  0  0  0  0  0  0  0
    6.7004    1.3990    2.1943 H   0  0  0  0  0  0  0  0  0  0  0  0
    2.5575    0.2765    2.1190 H   0  0  0  0  0  0  0  0  0  0  0  0
    1.1126   -0.7121    1.9136 H   0  0  0  0  0  0  0  0  0  0  0  0
    2.7283   -1.4960    2.2373 H   0  0  0  0  0  0  0  0  0  0  0  0
    2.1584   -1.8488   -1.5658 H   0  0  0  0  0  0  0  0  0  0  0  0
    2.7550   -3.4018    0.8766 H   0  0  0  0  0  0  0  0  0  0  0  0
    3.2601   -4.1489   -1.3918 H   0  0  0  0  0  0  0  0  0  0  0  0
    1.5050   -4.3113   -1.7704 H   0  0  0  0  0  0  0  0  0  0  0  0
    2.2718   -5.3598   -0.5146 H   0  0  0  0  0  0  0  0  0  0  0  0
    0.5871   -4.7289    0.9676 H   0  0  0  0  0  0  0  0  0  0  0  0
    1.1895   -3.5863    2.6893 H   0  0  0  0  0  0  0  0  0  0  0  0
  1  2  1  0
  2  3  1  0
  3  4  1  0
  4  5  1  0
  5  6  1  0
  5  7  1  0
  7  8  1  0
  8  9  2  0
  9 10  1  0
 10 11  1  0
  9 12  1  0
 12 13  2  0
 12 14  1  0
 14 15  2  0
 15 16  1  0
 16 17  1  0
 17 18  2  0
 17 19  1  0
 19 20  1  0
 19 21  2  0
 21 22  1  0
 22 23  2  0
 23 24  1  0
 24 25  1  0
 25 26  1  0
 24 27  1  0
 27 28  1  0
 28 29  1  0
 29 30  1  0
 29 31  2  0
 27 32  1  0
 32 33  1  0
 32 34  2  0
 34 35  1  0
 35 36  1  0
 35 37  1  0
 37 38  1  0
 15 39  1  0
 39 40  2  0
 37  3  1  0
 39  8  1  0
  1 41  1  0
  1 42  1  0
  1 43  1  0
  3 44  1  6
  4 45  1  0
  4 46  1  0
  5 47  1  6
  6 48  1  0
  6 49  1  0
  6 50  1  0
  7 51  1  0
  7 52  1  0
 11 53  1  0
 11 54  1  0
 11 55  1  0
 14 56  1  0
 16 57  1  0
 20 58  1  0
 20 59  1  0
 20 60  1  0
 21 61  1  0
 22 62  1  0
 23 63  1  0
 24 64  1  6
 26 65  1  0
 26 66  1  0
 26 67  1  0
 27 68  1  6
 30 69  1  0
 30 70  1  0
 33 71  1  0
 33 72  1  0
 33 73  1  0
 34 74  1  0
 35 75  1  1
 36 76  1  0
 36 77  1  0
 36 78  1  0
 37 79  1  1
 38 80  1  0
M  END
$$$$
