
     RDKit          3D

 46 46  0  0  0  0  0  0  0  0999 V2000
    5.7815    0.1357    2.0632 C   0  0  0  0  0  0  0  0  0  0  0  0
    4.4252    0.5332    1.4860 C   0  0  0  0  0  0  0  0  0  0  0  0
    3.7866   -0.6128    0.8024 N   0  0  0  0  0  0  0  0  0  0  0  0
    4.4145   -1.0805   -0.4600 C   0  0  0  0  0  0  0  0  0  0  0  0
    4.8984    0.0353   -1.3982 C   0  0  0  0  0  0  0  0  0  0  0  0
    2.3082   -0.5587    0.7788 C   0  0  0  0  0  0  0  0  0  0  0  0
    1.7462    0.5201   -0.1599 C   0  0  0  0  0  0  0  0  0  0  0  0
    0.3101    0.6832    0.0572 N   0  0  0  0  0  0  0  0  0  0  0  0
   -0.6585   -0.2480   -0.4510 C   0  0  0  0  0  0  0  0  0  0  0  0
   -0.2753   -1.3154   -1.0034 O   0  0  0  0  0  0  0  0  0  0  0  0
   -2.1085    0.0095   -0.3047 C   0  0  0  0  0  0  0  0  0  0  0  0
   -2.9594   -1.0583    0.0286 C   0  0  0  0  0  0  0  0  0  0  0  0
   -4.3337   -0.8525    0.1927 C   0  0  0  0  0  0  0  0  0  0  0  0
   -4.8691    0.4244    0.0015 C   0  0  0  0  0  0  0  0  0  0  0  0
   -4.0392    1.4903   -0.3495 C   0  0  0  0  0  0  0  0  0  0  0  0
   -2.6540    1.2949   -0.5174 C   0  0  0  0  0  0  0  0  0  0  0  0
   -1.8083    2.3423   -0.9199 O   0  0  0  0  0  0  0  0  0  0  0  0
   -2.2334    3.6787   -1.1657 C   0  0  0  0  0  0  0  0  0  0  0  0
   -5.3854   -2.2021    0.6083 S   0  0  0  0  0  6  0  0  0  0  0  0
   -5.8991   -3.0292   -0.8795 C   0  0  0  0  0  0  0  0  0  0  0  0
   -4.6474   -3.1679    1.4926 O   0  0  0  0  0  0  0  0  0  0  0  0
   -6.5947   -1.7001    1.3465 O   0  0  0  0  0  0  0  0  0  0  0  0
    6.1999    0.9824    2.6473 H   0  0  0  0  0  0  0  0  0  0  0  0
    6.4972   -0.1182    1.2546 H   0  0  0  0  0  0  0  0  0  0  0  0
    5.6661   -0.7402    2.7362 H   0  0  0  0  0  0  0  0  0  0  0  0
    3.7959    0.8688    2.3397 H   0  0  0  0  0  0  0  0  0  0  0  0
    4.5364    1.4063    0.8099 H   0  0  0  0  0  0  0  0  0  0  0  0
    5.2844   -1.7222   -0.2051 H   0  0  0  0  0  0  0  0  0  0  0  0
    3.7118   -1.7335   -1.0232 H   0  0  0  0  0  0  0  0  0  0  0  0
    4.1160    0.7986   -1.5712 H   0  0  0  0  0  0  0  0  0  0  0  0
    5.1743   -0.4066   -2.3788 H   0  0  0  0  0  0  0  0  0  0  0  0
    5.8034    0.5291   -0.9881 H   0  0  0  0  0  0  0  0  0  0  0  0
    1.9296   -0.3792    1.8092 H   0  0  0  0  0  0  0  0  0  0  0  0
    1.9102   -1.5525    0.4812 H   0  0  0  0  0  0  0  0  0  0  0  0
    2.2470    1.4908    0.0396 H   0  0  0  0  0  0  0  0  0  0  0  0
    1.9252    0.2447   -1.2204 H   0  0  0  0  0  0  0  0  0  0  0  0
   -0.0099    1.5055    0.6164 H   0  0  0  0  0  0  0  0  0  0  0  0
   -2.5489   -2.0503    0.1750 H   0  0  0  0  0  0  0  0  0  0  0  0
   -5.9323    0.5952    0.1138 H   0  0  0  0  0  0  0  0  0  0  0  0
   -4.4886    2.4619   -0.5015 H   0  0  0  0  0  0  0  0  0  0  0  0
   -2.6749    4.1144   -0.2446 H   0  0  0  0  0  0  0  0  0  0  0  0
   -2.9742    3.6980   -1.9927 H   0  0  0  0  0  0  0  0  0  0  0  0
   -1.3557    4.2889   -1.4613 H   0  0  0  0  0  0  0  0  0  0  0  0
   -6.5621   -3.8806   -0.6218 H   0  0  0  0  0  0  0  0  0  0  0  0
   -6.4487   -2.3168   -1.5287 H   0  0  0  0  0  0  0  0  0  0  0  0
   -5.0070   -3.4068   -1.4205 H   0  0  0  0  0  0  0  0  0  0  0  0
  1  2  1  0
  2  3  1  0
  3  4  1  0
  4  5  1  0
  3  6  1  0
  6  7  1  0
  7  8  1  0
  8  9  1  0
  9 10  2  0
  9 11  1  0
 11 12  2  0
 12 13  1  0
 13 14  2  0
 14 15  1  0
 15 16  2  0
 16 17  1  0
 17 18  1  0
 13 19  1  0
 19 20  1  0
 19 21  2  0
 19 22  2  0
 16 11  1  0
  1 23  1  0
  1 24  1  0
  1 25  1  0
  2 26  1  0
  2 27  1  0
  4 28  1  0
  4 29  1  0
  5 30  1  0
  5 31  1  0
  5 32  1  0
  6 33  1  0
  6 34  1  0
  7 35  1  0
  7 36  1  0
  8 37  1  0
 12 38  1  0
 14 39  1  0
 15 40  1  0
 18 41  1  0
 18 42  1  0
 18 43  1  0
 20 44  1  0
 20 45  1  0
 20 46  1  0
M  END
$$$$
