
     RDKit          3D

 33 34  0  0  0  0  0  0  0  0999 V2000
   -5.7530   -0.4845    1.6019 C   0  0  0  0  0  0  0  0  0  0  0  0
   -5.6180   -0.3491    0.0868 C   0  0  0  0  0  0  0  0  0  0  0  0
   -4.3243    0.3633   -0.3065 C   0  0  0  0  0  0  0  0  0  0  0  0
   -3.1984   -0.4222    0.0792 O   0  0  0  0  0  0  0  0  0  0  0  0
   -1.8632   -0.0528   -0.1372 C   0  0  0  0  0  0  0  0  0  0  0  0
   -0.8511   -0.9277    0.3067 C   0  0  0  0  0  0  0  0  0  0  0  0
    0.4734   -0.5576    0.0906 C   0  0  0  0  0  0  0  0  0  0  0  0
    0.8109    0.6078   -0.5282 C   0  0  0  0  0  0  0  0  0  0  0  0
   -0.1533    1.5015   -0.9830 C   0  0  0  0  0  0  0  0  0  0  0  0
   -1.5059    1.1652   -0.7842 C   0  0  0  0  0  0  0  0  0  0  0  0
    2.1482    0.7268   -0.6124 N   0  0  0  0  0  0  0  0  0  0  0  0
    2.5845   -0.4166   -0.0177 C   0  0  0  0  0  0  0  0  0  0  0  0
    3.9704   -0.7536    0.1374 N   0  0  0  0  0  0  0  0  0  0  0  0
    5.0538    0.0697   -0.3133 C   0  0  0  0  0  0  0  0  0  0  0  0
    4.8306    1.1702   -0.8889 O   0  0  0  0  0  0  0  0  0  0  0  0
    6.3668   -0.3630   -0.1067 O   0  0  0  0  0  0  0  0  0  0  0  0
    7.4981    0.3927   -0.5226 C   0  0  0  0  0  0  0  0  0  0  0  0
    1.5869   -1.2219    0.4222 N   0  0  0  0  0  0  0  0  0  0  0  0
   -6.7137   -0.9853    1.8451 H   0  0  0  0  0  0  0  0  0  0  0  0
   -5.7440    0.5175    2.0815 H   0  0  0  0  0  0  0  0  0  0  0  0
   -4.9221   -1.0960    2.0133 H   0  0  0  0  0  0  0  0  0  0  0  0
   -6.4830    0.2308   -0.3015 H   0  0  0  0  0  0  0  0  0  0  0  0
   -5.6414   -1.3587   -0.3776 H   0  0  0  0  0  0  0  0  0  0  0  0
   -4.2801    1.3594    0.1860 H   0  0  0  0  0  0  0  0  0  0  0  0
   -4.3160    0.5046   -1.4090 H   0  0  0  0  0  0  0  0  0  0  0  0
   -1.0947   -1.8595    0.8012 H   0  0  0  0  0  0  0  0  0  0  0  0
    0.1264    2.4248   -1.4736 H   0  0  0  0  0  0  0  0  0  0  0  0
   -2.2639    1.8522   -1.1340 H   0  0  0  0  0  0  0  0  0  0  0  0
    4.2070   -1.6555    0.6083 H   0  0  0  0  0  0  0  0  0  0  0  0
    7.4764    0.5351   -1.6239 H   0  0  0  0  0  0  0  0  0  0  0  0
    7.5022    1.3812   -0.0162 H   0  0  0  0  0  0  0  0  0  0  0  0
    8.4231   -0.1551   -0.2491 H   0  0  0  0  0  0  0  0  0  0  0  0
    1.6677   -2.1438    0.9061 H   0  0  0  0  0  0  0  0  0  0  0  0
  1  2  1  0
  2  3  1  0
  3  4  1  0
  4  5  1  0
  5  6  2  0
  6  7  1  0
  7  8  2  0
  8  9  1  0
  9 10  2  0
  8 11  1  0
 11 12  2  0
 12 13  1  0
 13 14  1  0
 14 15  2  0
 14 16  1  0
 16 17  1  0
 12 18  1  0
 10  5  1  0
 18  7  1  0
  1 19  1  0
  1 20  1  0
  1 21  1  0
  2 22  1  0
  2 23  1  0
  3 24  1  0
  3 25  1  0
  6 26  1  0
  9 27  1  0
 10 28  1  0
 13 29  1  0
 17 30  1  0
 17 31  1  0
 17 32  1  0
 18 33  1  0
M  END
$$$$
