
     RDKit          3D

 56 58  0  0  0  0  0  0  0  0999 V2000
   -0.4646   -0.4912    0.4482 C   0  0  2  0  0  0  0  0  0  0  0  0
    0.2048   -0.9143    1.7587 C   0  0  0  0  0  0  0  0  0  0  0  0
   -0.5854   -2.1200    2.2572 C   0  0  0  0  0  0  0  0  0  0  0  0
   -1.2921   -2.6889    1.0353 C   0  0  0  0  0  0  0  0  0  0  0  0
   -1.2946   -1.6225    0.0483 N   0  0  0  0  0  0  0  0  0  0  0  0
   -2.1471   -1.6633   -1.1136 C   0  0  0  0  0  0  0  0  0  0  0  0
   -2.6599   -2.7598   -1.4666 O   0  0  0  0  0  0  0  0  0  0  0  0
   -2.4799   -0.4300   -1.9086 C   0  0  0  0  0  0  0  0  0  0  0  0
   -3.9211   -0.1405   -1.8393 N   0  0  0  0  0  0  0  0  0  0  0  0
   -4.2871    0.6084   -0.6196 C   0  0  0  0  0  0  0  0  0  0  0  0
   -4.4240   -0.3079    0.5973 C   0  0  0  0  0  0  0  0  0  0  0  0
   -5.5455    0.2712    1.4574 C   0  0  0  0  0  0  0  0  0  0  0  0
   -6.1860    1.3967    0.6533 C   0  0  0  0  0  0  0  0  0  0  0  0
   -5.6624    1.2508   -0.7639 C   0  0  0  0  0  0  0  0  0  0  0  0
    0.5664   -0.1688   -0.6022 C   0  0  0  0  0  0  0  0  0  0  0  0
    1.1288   -1.1038   -1.2358 O   0  0  0  0  0  0  0  0  0  0  0  0
    0.9412    1.1945   -0.8428 N   0  0  0  0  0  0  0  0  0  0  0  0
    2.0091    1.5610   -1.7693 C   0  0  0  0  0  0  0  0  0  0  0  0
    3.3482    1.1972   -1.1878 C   0  0  0  0  0  0  0  0  0  0  0  0
    3.8481    1.9032   -0.0841 C   0  0  0  0  0  0  0  0  0  0  0  0
    5.0780    1.5538    0.4805 C   0  0  0  0  0  0  0  0  0  0  0  0
    5.8280    0.4875   -0.0475 C   0  0  0  0  0  0  0  0  0  0  0  0
    5.3227   -0.2178   -1.1532 C   0  0  0  0  0  0  0  0  0  0  0  0
    4.0920    0.1318   -1.7162 C   0  0  0  0  0  0  0  0  0  0  0  0
    7.1366    0.1113    0.5445 C   0  0  0  0  0  0  0  0  0  0  0  0
    8.2055   -0.3323   -0.2954 N   0  0  0  0  0  0  0  0  0  0  0  0
    7.3299    0.1683    1.8258 N   0  0  0  0  0  0  0  0  0  0  0  0
   -1.1164    0.3899    0.6367 H   0  0  0  0  0  0  0  0  0  0  0  0
    0.1855   -0.0887    2.5032 H   0  0  0  0  0  0  0  0  0  0  0  0
    1.2628   -1.2219    1.5970 H   0  0  0  0  0  0  0  0  0  0  0  0
   -1.3416   -1.7838    3.0008 H   0  0  0  0  0  0  0  0  0  0  0  0
    0.0795   -2.8758    2.7288 H   0  0  0  0  0  0  0  0  0  0  0  0
   -0.7391   -3.5653    0.6336 H   0  0  0  0  0  0  0  0  0  0  0  0
   -2.3325   -2.9840    1.2950 H   0  0  0  0  0  0  0  0  0  0  0  0
   -2.2036   -0.6374   -2.9659 H   0  0  0  0  0  0  0  0  0  0  0  0
   -1.8805    0.4527   -1.6062 H   0  0  0  0  0  0  0  0  0  0  0  0
   -4.1410    0.4659   -2.6651 H   0  0  0  0  0  0  0  0  0  0  0  0
   -3.5498    1.4161   -0.4006 H   0  0  0  0  0  0  0  0  0  0  0  0
   -3.4750   -0.3475    1.1726 H   0  0  0  0  0  0  0  0  0  0  0  0
   -4.6990   -1.3383    0.2795 H   0  0  0  0  0  0  0  0  0  0  0  0
   -6.2978   -0.5157    1.6850 H   0  0  0  0  0  0  0  0  0  0  0  0
   -5.1408    0.6649    2.4156 H   0  0  0  0  0  0  0  0  0  0  0  0
   -7.2957    1.3333    0.6783 H   0  0  0  0  0  0  0  0  0  0  0  0
   -5.8690    2.3800    1.0661 H   0  0  0  0  0  0  0  0  0  0  0  0
   -6.3423    0.5815   -1.3379 H   0  0  0  0  0  0  0  0  0  0  0  0
   -5.5989    2.2358   -1.2754 H   0  0  0  0  0  0  0  0  0  0  0  0
    0.4435    1.9575   -0.3308 H   0  0  0  0  0  0  0  0  0  0  0  0
    1.8411    1.0660   -2.7508 H   0  0  0  0  0  0  0  0  0  0  0  0
    1.9805    2.6578   -1.9478 H   0  0  0  0  0  0  0  0  0  0  0  0
    3.2840    2.7257    0.3387 H   0  0  0  0  0  0  0  0  0  0  0  0
    5.4488    2.1304    1.3183 H   0  0  0  0  0  0  0  0  0  0  0  0
    5.8681   -1.0549   -1.5703 H   0  0  0  0  0  0  0  0  0  0  0  0
    3.7174   -0.4339   -2.5602 H   0  0  0  0  0  0  0  0  0  0  0  0
    8.1216   -0.3096   -1.3357 H   0  0  0  0  0  0  0  0  0  0  0  0
    9.1127   -0.6372    0.1228 H   0  0  0  0  0  0  0  0  0  0  0  0
    6.5880    0.4623    2.4993 H   0  0  0  0  0  0  0  0  0  0  0  0
  1  2  1  0
  2  3  1  0
  3  4  1  0
  4  5  1  0
  5  6  1  0
  6  7  2  0
  6  8  1  0
  8  9  1  0
  9 10  1  0
 10 11  1  0
 11 12  1  0
 12 13  1  0
 13 14  1  0
  1 15  1  0
 15 16  2  0
 15 17  1  0
 17 18  1  0
 18 19  1  0
 19 20  2  0
 20 21  1  0
 21 22  2  0
 22 23  1  0
 23 24  2  0
 22 25  1  0
 25 26  1  0
 25 27  2  3
  5  1  1  0
 14 10  1  0
 24 19  1  0
  1 28  1  1
  2 29  1  0
  2 30  1  0
  3 31  1  0
  3 32  1  0
  4 33  1  0
  4 34  1  0
  8 35  1  0
  8 36  1  0
  9 37  1  0
 10 38  1  0
 11 39  1  0
 11 40  1  0
 12 41  1  0
 12 42  1  0
 13 43  1  0
 13 44  1  0
 14 45  1  0
 14 46  1  0
 17 47  1  0
 18 48  1  0
 18 49  1  0
 20 50  1  0
 21 51  1  0
 23 52  1  0
 24 53  1  0
 26 54  1  0
 26 55  1  0
 27 56  1  0
M  END
$$$$
