
     RDKit          3D

 47 51  0  0  0  0  0  0  0  0999 V2000
    3.7779    3.7049    2.3276 O   0  0  0  0  0  0  0  0  0  0  0  0
    4.6076    2.6702    2.7480 C   0  0  0  0  0  0  0  0  0  0  0  0
    4.7119    2.4049    3.9755 O   0  0  0  0  0  0  0  0  0  0  0  0
    5.3367    1.8438    1.7380 C   0  0  0  0  0  0  0  0  0  0  0  0
    4.4691    0.7039    1.2814 C   0  0  0  0  0  0  0  0  0  0  0  0
    3.5898    0.8718    0.2008 C   0  0  0  0  0  0  0  0  0  0  0  0
    2.7593   -0.1773   -0.2034 C   0  0  0  0  0  0  0  0  0  0  0  0
    2.7816   -1.4050    0.4785 C   0  0  0  0  0  0  0  0  0  0  0  0
    3.6662   -1.5728    1.5562 C   0  0  0  0  0  0  0  0  0  0  0  0
    4.4960   -0.5234    1.9612 C   0  0  0  0  0  0  0  0  0  0  0  0
    1.9118   -2.5228    0.0544 C   0  0  0  0  0  0  0  0  0  0  0  0
    2.2635   -3.8732    0.0204 C   0  0  0  0  0  0  0  0  0  0  0  0
    1.2305   -4.6237   -0.4254 N   0  0  0  0  0  0  0  0  0  0  0  0
    0.2316   -3.7597   -0.6614 C   0  0  0  0  0  0  0  0  0  0  0  0
   -1.0118   -4.0817   -1.0921 N   0  0  0  0  0  0  0  0  0  0  0  0
   -1.9401   -3.0926   -1.2522 C   0  0  0  0  0  0  0  0  0  0  0  0
   -1.6219   -1.7402   -0.9530 C   0  0  0  0  0  0  0  0  0  0  0  0
   -0.3199   -1.4308   -0.4968 C   0  0  0  0  0  0  0  0  0  0  0  0
    0.5964   -2.4739   -0.3794 C   0  0  0  0  0  0  0  0  0  0  0  0
   -2.6410   -0.6715   -1.1083 C   0  0  0  0  0  0  0  0  0  0  0  0
   -3.5094   -0.6716   -2.2145 C   0  0  0  0  0  0  0  0  0  0  0  0
   -4.4678    0.3331   -2.3685 C   0  0  0  0  0  0  0  0  0  0  0  0
   -4.5765    1.3569   -1.4182 C   0  0  0  0  0  0  0  0  0  0  0  0
   -5.5364    2.3707   -1.5642 C   0  0  0  0  0  0  0  0  0  0  0  0
   -5.6356    3.3857   -0.6083 C   0  0  0  0  0  0  0  0  0  0  0  0
   -4.7806    3.3968    0.4969 C   0  0  0  0  0  0  0  0  0  0  0  0
   -3.8203    2.3931    0.6536 C   0  0  0  0  0  0  0  0  0  0  0  0
   -3.7095    1.3684   -0.2997 C   0  0  0  0  0  0  0  0  0  0  0  0
   -2.7495    0.3557   -0.1528 C   0  0  0  0  0  0  0  0  0  0  0  0
    3.2633    4.2631    2.9982 H   0  0  0  0  0  0  0  0  0  0  0  0
    6.2817    1.4576    2.1790 H   0  0  0  0  0  0  0  0  0  0  0  0
    5.6183    2.4830    0.8734 H   0  0  0  0  0  0  0  0  0  0  0  0
    3.5519    1.8135   -0.3328 H   0  0  0  0  0  0  0  0  0  0  0  0
    2.1198   -0.0351   -1.0646 H   0  0  0  0  0  0  0  0  0  0  0  0
    3.7020   -2.5104    2.0972 H   0  0  0  0  0  0  0  0  0  0  0  0
    5.1580   -0.6668    2.8062 H   0  0  0  0  0  0  0  0  0  0  0  0
    3.2270   -4.2819    0.2962 H   0  0  0  0  0  0  0  0  0  0  0  0
    1.2131   -5.6602   -0.5495 H   0  0  0  0  0  0  0  0  0  0  0  0
   -2.9343   -3.3609   -1.5849 H   0  0  0  0  0  0  0  0  0  0  0  0
   -0.0417   -0.4170   -0.2442 H   0  0  0  0  0  0  0  0  0  0  0  0
   -3.4350   -1.4408   -2.9729 H   0  0  0  0  0  0  0  0  0  0  0  0
   -5.1212    0.3113   -3.2327 H   0  0  0  0  0  0  0  0  0  0  0  0
   -6.2080    2.3776   -2.4145 H   0  0  0  0  0  0  0  0  0  0  0  0
   -6.3771    4.1656   -0.7243 H   0  0  0  0  0  0  0  0  0  0  0  0
   -4.8622    4.1852    1.2340 H   0  0  0  0  0  0  0  0  0  0  0  0
   -3.1658    2.4182    1.5168 H   0  0  0  0  0  0  0  0  0  0  0  0
   -2.0993    0.3579    0.7145 H   0  0  0  0  0  0  0  0  0  0  0  0
  1  2  1  0
  2  3  2  0
  2  4  1  0
  4  5  1  0
  5  6  2  0
  6  7  1  0
  7  8  2  0
  8  9  1  0
  9 10  2  0
  8 11  1  0
 11 12  2  0
 12 13  1  0
 13 14  1  0
 14 15  2  0
 15 16  1  0
 16 17  2  0
 17 18  1  0
 18 19  2  0
 17 20  1  0
 20 21  2  0
 21 22  1  0
 22 23  2  0
 23 24  1  0
 24 25  2  0
 25 26  1  0
 26 27  2  0
 27 28  1  0
 28 29  2  0
 10  5  1  0
 19 11  1  0
 29 20  1  0
 19 14  1  0
 28 23  1  0
  1 30  1  0
  4 31  1  0
  4 32  1  0
  6 33  1  0
  7 34  1  0
  9 35  1  0
 10 36  1  0
 12 37  1  0
 13 38  1  0
 16 39  1  0
 18 40  1  0
 21 41  1  0
 22 42  1  0
 24 43  1  0
 25 44  1  0
 26 45  1  0
 27 46  1  0
 29 47  1  0
M  END
$$$$
