
     RDKit          3D

 60 62  0  0  0  0  0  0  0  0999 V2000
   -4.5736   -2.6073   -1.9811 C   0  0  0  0  0  0  0  0  0  0  0  0
   -5.3613   -1.3750   -1.8763 N   0  0  0  0  0  0  0  0  0  0  0  0
   -6.3978   -1.0789   -2.8706 C   0  0  0  0  0  0  0  0  0  0  0  0
   -5.1054   -0.4211   -0.8229 C   0  0  0  0  0  0  0  0  0  0  0  0
   -5.7226    0.6800   -0.8188 O   0  0  0  0  0  0  0  0  0  0  0  0
   -4.1597   -0.7043    0.2244 N   0  0  0  0  0  0  0  0  0  0  0  0
   -3.7396    0.3178    1.1938 C   0  0  1  0  0  0  0  0  0  0  0  0
   -3.0269   -0.3211    2.4047 C   0  0  0  0  0  0  0  0  0  0  0  0
   -1.6314   -0.8678    2.0525 C   0  0  0  0  0  0  0  0  0  0  0  0
   -0.7362    0.1832    1.3627 C   0  0  2  0  0  0  0  0  0  0  0  0
   -0.2256    1.2421    2.3787 C   0  0  0  0  0  0  0  0  0  0  0  0
    0.7693    2.2591    1.7881 C   0  0  0  0  0  0  0  0  0  0  0  0
    1.8450    1.5976    1.0186 N   0  0  0  0  0  0  0  0  0  0  0  0
    2.7968    0.8905    1.9114 C   0  0  0  0  0  0  0  0  0  0  0  0
    4.1162    0.5100    1.2047 C   0  0  0  0  0  0  0  0  0  0  0  0
    3.9842    0.6042   -0.2521 N   0  0  0  0  0  0  0  0  0  0  0  0
    3.3943    1.8001   -0.8606 C   0  0  0  0  0  0  0  0  0  0  0  0
    2.5517    2.5662    0.1617 C   0  0  0  0  0  0  0  0  0  0  0  0
    4.6026   -0.3813   -1.0909 C   0  0  0  0  0  0  0  0  0  0  0  0
    4.0343   -1.6631   -1.2278 C   0  0  0  0  0  0  0  0  0  0  0  0
    2.5269   -2.0528   -0.3989 Cl  0  0  0  0  0  0  0  0  0  0  0  0
    4.6591   -2.6175   -2.0516 C   0  0  0  0  0  0  0  0  0  0  0  0
    3.9858   -4.2296   -2.2548 Cl  0  0  0  0  0  0  0  0  0  0  0  0
    5.8371   -2.2887   -2.7318 C   0  0  0  0  0  0  0  0  0  0  0  0
    6.3938   -1.0152   -2.6000 C   0  0  0  0  0  0  0  0  0  0  0  0
    5.7789   -0.0636   -1.7844 C   0  0  0  0  0  0  0  0  0  0  0  0
   -1.4697    0.7864    0.1443 C   0  0  0  0  0  0  0  0  0  0  0  0
   -2.8373    1.3709    0.5214 C   0  0  0  0  0  0  0  0  0  0  0  0
   -4.8190   -3.1751   -2.9030 H   0  0  0  0  0  0  0  0  0  0  0  0
   -4.7831   -3.2624   -1.1098 H   0  0  0  0  0  0  0  0  0  0  0  0
   -3.4911   -2.3607   -2.0130 H   0  0  0  0  0  0  0  0  0  0  0  0
   -7.3760   -0.9443   -2.3622 H   0  0  0  0  0  0  0  0  0  0  0  0
   -6.5058   -1.8982   -3.6119 H   0  0  0  0  0  0  0  0  0  0  0  0
   -6.1383   -0.1472   -3.4164 H   0  0  0  0  0  0  0  0  0  0  0  0
   -3.8119   -1.6809    0.3388 H   0  0  0  0  0  0  0  0  0  0  0  0
   -4.6482    0.8302    1.5809 H   0  0  0  0  0  0  0  0  0  0  0  0
   -2.9347    0.4333    3.2151 H   0  0  0  0  0  0  0  0  0  0  0  0
   -3.6512   -1.1483    2.8071 H   0  0  0  0  0  0  0  0  0  0  0  0
   -1.7381   -1.7466    1.3807 H   0  0  0  0  0  0  0  0  0  0  0  0
   -1.1400   -1.2377    2.9785 H   0  0  0  0  0  0  0  0  0  0  0  0
    0.1501   -0.3648    0.9750 H   0  0  0  0  0  0  0  0  0  0  0  0
   -1.0755    1.8048    2.8166 H   0  0  0  0  0  0  0  0  0  0  0  0
    0.2693    0.7203    3.2259 H   0  0  0  0  0  0  0  0  0  0  0  0
    1.1934    2.8816    2.6079 H   0  0  0  0  0  0  0  0  0  0  0  0
    0.1936    2.9550    1.1399 H   0  0  0  0  0  0  0  0  0  0  0  0
    3.0417    1.5067    2.8061 H   0  0  0  0  0  0  0  0  0  0  0  0
    2.3191   -0.0459    2.2709 H   0  0  0  0  0  0  0  0  0  0  0  0
    4.4208   -0.5163    1.5079 H   0  0  0  0  0  0  0  0  0  0  0  0
    4.9218    1.2037    1.5296 H   0  0  0  0  0  0  0  0  0  0  0  0
    4.1943    2.4577   -1.2629 H   0  0  0  0  0  0  0  0  0  0  0  0
    2.7355    1.4887   -1.7010 H   0  0  0  0  0  0  0  0  0  0  0  0
    1.8340    3.2064   -0.3979 H   0  0  0  0  0  0  0  0  0  0  0  0
    3.2020    3.2312    0.7751 H   0  0  0  0  0  0  0  0  0  0  0  0
    6.3211   -3.0199   -3.3667 H   0  0  0  0  0  0  0  0  0  0  0  0
    7.3041   -0.7657   -3.1297 H   0  0  0  0  0  0  0  0  0  0  0  0
    6.2219    0.9191   -1.6839 H   0  0  0  0  0  0  0  0  0  0  0  0
   -1.6187   -0.0118   -0.6161 H   0  0  0  0  0  0  0  0  0  0  0  0
   -0.8514    1.5664   -0.3454 H   0  0  0  0  0  0  0  0  0  0  0  0
   -3.3268    1.7638   -0.3948 H   0  0  0  0  0  0  0  0  0  0  0  0
   -2.7019    2.2359    1.2050 H   0  0  0  0  0  0  0  0  0  0  0  0
  1  2  1  0
  2  3  1  0
  2  4  1  0
  4  5  2  0
  4  6  1  0
  6  7  1  0
  7  8  1  0
  8  9  1  0
  9 10  1  0
 10 11  1  0
 11 12  1  0
 12 13  1  0
 13 14  1  0
 14 15  1  0
 15 16  1  0
 16 17  1  0
 17 18  1  0
 16 19  1  0
 19 20  2  0
 20 21  1  0
 20 22  1  0
 22 23  1  0
 22 24  2  0
 24 25  1  0
 25 26  2  0
 10 27  1  0
 27 28  1  0
 28  7  1  0
 18 13  1  0
 26 19  1  0
  1 29  1  0
  1 30  1  0
  1 31  1  0
  3 32  1  0
  3 33  1  0
  3 34  1  0
  6 35  1  0
  7 36  1  1
  8 37  1  0
  8 38  1  0
  9 39  1  0
  9 40  1  0
 10 41  1  6
 11 42  1  0
 11 43  1  0
 12 44  1  0
 12 45  1  0
 14 46  1  0
 14 47  1  0
 15 48  1  0
 15 49  1  0
 17 50  1  0
 17 51  1  0
 18 52  1  0
 18 53  1  0
 24 54  1  0
 25 55  1  0
 26 56  1  0
 27 57  1  0
 27 58  1  0
 28 59  1  0
 28 60  1  0
M  END
$$$$
