
     RDKit          3D

 26 25  0  0  0  0  0  0  0  0999 V2000
   -4.0330   -0.6206   -1.1568 N   0  0  0  0  0  0  0  0  0  0  0  0
   -3.3307   -0.1153    0.0250 C   0  0  1  0  0  0  0  0  0  0  0  0
   -1.9492   -0.7749    0.1633 C   0  0  0  0  0  0  0  0  0  0  0  0
   -0.9185   -0.5248   -1.3261 S   0  0  0  0  0  0  0  0  0  0  0  0
    0.7614   -1.5459   -0.4959 S   0  0  0  0  0  0  0  0  0  0  0  0
    1.5569   -0.0039    0.0735 C   0  0  0  0  0  0  0  0  0  0  0  0
    2.8896   -0.3005    0.7742 C   0  0  2  0  0  0  0  0  0  0  0  0
    3.4127    0.9237    1.3833 N   0  0  0  0  0  0  0  0  0  0  0  0
    3.8945   -0.8834   -0.1863 C   0  0  0  0  0  0  0  0  0  0  0  0
    4.2759   -0.1697   -1.3192 O   0  0  0  0  0  0  0  0  0  0  0  0
    4.3967   -2.0171    0.0387 O   0  0  0  0  0  0  0  0  0  0  0  0
   -3.2022    1.3829   -0.0327 C   0  0  0  0  0  0  0  0  0  0  0  0
   -3.2086    2.1191    1.1480 O   0  0  0  0  0  0  0  0  0  0  0  0
   -3.0460    1.9712   -1.1370 O   0  0  0  0  0  0  0  0  0  0  0  0
   -4.9946   -0.2080   -1.1685 H   0  0  0  0  0  0  0  0  0  0  0  0
   -4.1638   -1.6526   -1.0458 H   0  0  0  0  0  0  0  0  0  0  0  0
   -3.9242   -0.3733    0.9315 H   0  0  0  0  0  0  0  0  0  0  0  0
   -2.0806   -1.8661    0.3270 H   0  0  0  0  0  0  0  0  0  0  0  0
   -1.4291   -0.3576    1.0522 H   0  0  0  0  0  0  0  0  0  0  0  0
    1.7201    0.6724   -0.7936 H   0  0  0  0  0  0  0  0  0  0  0  0
    0.8771    0.5049    0.7898 H   0  0  0  0  0  0  0  0  0  0  0  0
    2.6937   -1.0345    1.5883 H   0  0  0  0  0  0  0  0  0  0  0  0
    3.6655    1.6079    0.6326 H   0  0  0  0  0  0  0  0  0  0  0  0
    4.2905    0.6907    1.9030 H   0  0  0  0  0  0  0  0  0  0  0  0
    4.9513   -0.5512   -1.9706 H   0  0  0  0  0  0  0  0  0  0  0  0
   -3.1053    3.1267    1.1324 H   0  0  0  0  0  0  0  0  0  0  0  0
  1  2  1  0
  2  3  1  0
  3  4  1  0
  4  5  1  0
  5  6  1  0
  6  7  1  0
  7  8  1  0
  7  9  1  0
  9 10  1  0
  9 11  2  0
  2 12  1  0
 12 13  1  0
 12 14  2  0
  1 15  1  0
  1 16  1  0
  2 17  1  1
  3 18  1  0
  3 19  1  0
  6 20  1  0
  6 21  1  0
  7 22  1  1
  8 23  1  0
  8 24  1  0
 10 25  1  0
 13 26  1  0
M  END
$$$$
