
     RDKit          3D

 24 24  0  0  0  0  0  0  0  0999 V2000
   -1.9030    0.4936    1.1355 N   0  0  0  0  0  0  0  0  0  0  0  0
   -1.7621    0.6298   -0.3169 C   0  0  1  0  0  0  0  0  0  0  0  0
   -0.7694   -0.3986   -0.8992 C   0  0  0  0  0  0  0  0  0  0  0  0
    0.6320   -0.1736   -0.3913 C   0  0  0  0  0  0  0  0  0  0  0  0
    1.4335    0.8332   -0.9540 C   0  0  0  0  0  0  0  0  0  0  0  0
    2.7242    1.0600   -0.4680 C   0  0  0  0  0  0  0  0  0  0  0  0
    3.2222    0.2892    0.5859 C   0  0  0  0  0  0  0  0  0  0  0  0
    2.4305   -0.7105    1.1603 C   0  0  0  0  0  0  0  0  0  0  0  0
    2.9376   -1.4679    2.2137 O   0  0  0  0  0  0  0  0  0  0  0  0
    1.1357   -0.9403    0.6732 C   0  0  0  0  0  0  0  0  0  0  0  0
   -3.1074    0.4657   -0.9622 C   0  0  0  0  0  0  0  0  0  0  0  0
   -3.8665   -0.6744   -0.7131 O   0  0  0  0  0  0  0  0  0  0  0  0
   -3.5441    1.3507   -1.7461 O   0  0  0  0  0  0  0  0  0  0  0  0
   -2.0451   -0.5128    1.3845 H   0  0  0  0  0  0  0  0  0  0  0  0
   -1.0186    0.8107    1.5946 H   0  0  0  0  0  0  0  0  0  0  0  0
   -1.3898    1.6552   -0.5424 H   0  0  0  0  0  0  0  0  0  0  0  0
   -1.1048   -1.4321   -0.6593 H   0  0  0  0  0  0  0  0  0  0  0  0
   -0.7630   -0.3159   -2.0089 H   0  0  0  0  0  0  0  0  0  0  0  0
    1.0574    1.4419   -1.7671 H   0  0  0  0  0  0  0  0  0  0  0  0
    3.3382    1.8357   -0.9070 H   0  0  0  0  0  0  0  0  0  0  0  0
    4.2223    0.4705    0.9586 H   0  0  0  0  0  0  0  0  0  0  0  0
    2.3896   -2.1989    2.6522 H   0  0  0  0  0  0  0  0  0  0  0  0
    0.5228   -1.7104    1.1255 H   0  0  0  0  0  0  0  0  0  0  0  0
   -4.7723   -0.8010   -1.1486 H   0  0  0  0  0  0  0  0  0  0  0  0
  1  2  1  0
  2  3  1  0
  3  4  1  0
  4  5  2  0
  5  6  1  0
  6  7  2  0
  7  8  1  0
  8  9  1  0
  8 10  2  0
  2 11  1  0
 11 12  1  0
 11 13  2  0
 10  4  1  0
  1 14  1  0
  1 15  1  0
  2 16  1  1
  3 17  1  0
  3 18  1  0
  5 19  1  0
  6 20  1  0
  7 21  1  0
  9 22  1  0
 10 23  1  0
 12 24  1  0
M  END
$$$$
