
     RDKit          3D

 62 65  0  0  0  0  0  0  0  0999 V2000
   -2.2379   -2.1779    0.9485 C   0  0  2  0  0  0  0  0  0  0  0  0
   -1.8251   -2.4413    2.4106 C   0  0  0  0  0  0  0  0  0  0  0  0
   -0.4237   -3.0334    2.4749 C   0  0  0  0  0  0  0  0  0  0  0  0
    0.5508   -2.0906    1.8337 C   0  0  0  0  0  0  0  0  0  0  0  0
    1.8614   -2.0004    2.3255 C   0  0  0  0  0  0  0  0  0  0  0  0
    2.7846   -1.1499    1.7194 C   0  0  0  0  0  0  0  0  0  0  0  0
    2.4126   -0.3886    0.6067 C   0  0  0  0  0  0  0  0  0  0  0  0
    1.1141   -0.4971    0.0918 C   0  0  0  0  0  0  0  0  0  0  0  0
    0.1635   -1.3451    0.6986 C   0  0  0  0  0  0  0  0  0  0  0  0
   -1.1903   -1.4654    0.1774 N   0  0  0  0  0  0  0  0  0  0  0  0
   -1.4515   -1.1955   -1.2502 C   0  0  0  0  0  0  0  0  0  0  0  0
   -1.8540    0.2712   -1.4756 C   0  0  0  0  0  0  0  0  0  0  0  0
   -1.6609    0.6848   -2.9335 C   0  0  0  0  0  0  0  0  0  0  0  0
   -2.0881    2.0209   -3.0927 O   0  0  0  0  0  0  0  0  0  0  0  0
   -1.9056    2.4127   -4.4346 C   0  0  0  0  0  0  0  0  0  0  0  0
    3.3940    0.5095   -0.0382 C   0  0  0  0  0  0  0  0  0  0  0  0
    4.4263   -0.0121   -0.8470 C   0  0  0  0  0  0  0  0  0  0  0  0
    4.5441   -1.4160   -1.1033 N   0  0  0  0  0  0  0  0  0  0  0  0
    5.3263    0.8330   -1.4135 N   0  0  0  0  0  0  0  0  0  0  0  0
    5.2586    2.1738   -1.2213 C   0  0  0  0  0  0  0  0  0  0  0  0
    6.2229    3.0313   -1.8270 N   0  0  0  0  0  0  0  0  0  0  0  0
    4.2733    2.6979   -0.4505 N   0  0  0  0  0  0  0  0  0  0  0  0
    3.3337    1.9115    0.1384 C   0  0  0  0  0  0  0  0  0  0  0  0
    2.3055    2.5758    1.0192 C   0  0  0  0  0  0  0  0  0  0  0  0
    2.7537    2.5740    2.4769 C   0  0  0  0  0  0  0  0  0  0  0  0
   -3.5443   -1.4084    0.9251 C   0  0  0  0  0  0  0  0  0  0  0  0
   -4.7139   -2.0108    0.4287 C   0  0  0  0  0  0  0  0  0  0  0  0
   -5.9183   -1.3011    0.4046 C   0  0  0  0  0  0  0  0  0  0  0  0
   -5.9679    0.0126    0.8774 C   0  0  0  0  0  0  0  0  0  0  0  0
   -4.8130    0.6197    1.3764 C   0  0  0  0  0  0  0  0  0  0  0  0
   -3.6065   -0.0855    1.4033 C   0  0  0  0  0  0  0  0  0  0  0  0
   -2.3837   -3.1743    0.4729 H   0  0  0  0  0  0  0  0  0  0  0  0
   -1.8400   -1.5002    3.0036 H   0  0  0  0  0  0  0  0  0  0  0  0
   -2.5435   -3.1500    2.8780 H   0  0  0  0  0  0  0  0  0  0  0  0
   -0.1582   -3.2077    3.5407 H   0  0  0  0  0  0  0  0  0  0  0  0
   -0.3962   -4.0091    1.9431 H   0  0  0  0  0  0  0  0  0  0  0  0
    2.1681   -2.5880    3.1820 H   0  0  0  0  0  0  0  0  0  0  0  0
    3.7903   -1.0835    2.1162 H   0  0  0  0  0  0  0  0  0  0  0  0
    0.8616    0.0886   -0.7799 H   0  0  0  0  0  0  0  0  0  0  0  0
   -2.2733   -1.8461   -1.6236 H   0  0  0  0  0  0  0  0  0  0  0  0
   -0.5575   -1.4664   -1.8539 H   0  0  0  0  0  0  0  0  0  0  0  0
   -1.2621    0.9474   -0.8231 H   0  0  0  0  0  0  0  0  0  0  0  0
   -2.9245    0.4019   -1.2118 H   0  0  0  0  0  0  0  0  0  0  0  0
   -2.2610    0.0022   -3.5789 H   0  0  0  0  0  0  0  0  0  0  0  0
   -0.5804    0.5871   -3.1896 H   0  0  0  0  0  0  0  0  0  0  0  0
   -2.5140    1.7860   -5.1242 H   0  0  0  0  0  0  0  0  0  0  0  0
   -2.2478    3.4620   -4.5459 H   0  0  0  0  0  0  0  0  0  0  0  0
   -0.8312    2.3774   -4.7223 H   0  0  0  0  0  0  0  0  0  0  0  0
    5.3283   -1.7716   -1.6939 H   0  0  0  0  0  0  0  0  0  0  0  0
    3.8534   -2.1090   -0.7407 H   0  0  0  0  0  0  0  0  0  0  0  0
    6.1767    4.0643   -1.6822 H   0  0  0  0  0  0  0  0  0  0  0  0
    6.9844    2.6342   -2.4210 H   0  0  0  0  0  0  0  0  0  0  0  0
    2.1647    3.6284    0.6906 H   0  0  0  0  0  0  0  0  0  0  0  0
    1.3178    2.0787    0.9304 H   0  0  0  0  0  0  0  0  0  0  0  0
    2.8634    1.5343    2.8499 H   0  0  0  0  0  0  0  0  0  0  0  0
    3.7243    3.1044    2.5820 H   0  0  0  0  0  0  0  0  0  0  0  0
    1.9952    3.0938    3.0991 H   0  0  0  0  0  0  0  0  0  0  0  0
   -4.6947   -3.0277    0.0573 H   0  0  0  0  0  0  0  0  0  0  0  0
   -6.8142   -1.7701    0.0186 H   0  0  0  0  0  0  0  0  0  0  0  0
   -6.9011    0.5604    0.8565 H   0  0  0  0  0  0  0  0  0  0  0  0
   -4.8517    1.6385    1.7396 H   0  0  0  0  0  0  0  0  0  0  0  0
   -2.7172    0.4040    1.7805 H   0  0  0  0  0  0  0  0  0  0  0  0
  1  2  1  0
  2  3  1  0
  3  4  1  0
  4  5  2  0
  5  6  1  0
  6  7  2  0
  7  8  1  0
  8  9  2  0
  9 10  1  0
 10 11  1  0
 11 12  1  0
 12 13  1  0
 13 14  1  0
 14 15  1  0
  7 16  1  0
 16 17  2  0
 17 18  1  0
 17 19  1  0
 19 20  2  0
 20 21  1  0
 20 22  1  0
 22 23  2  0
 23 24  1  0
 24 25  1  0
  1 26  1  0
 26 27  2  0
 27 28  1  0
 28 29  2  0
 29 30  1  0
 30 31  2  0
 10  1  1  0
 23 16  1  0
 31 26  1  0
  9  4  1  0
  1 32  1  6
  2 33  1  0
  2 34  1  0
  3 35  1  0
  3 36  1  0
  5 37  1  0
  6 38  1  0
  8 39  1  0
 11 40  1  0
 11 41  1  0
 12 42  1  0
 12 43  1  0
 13 44  1  0
 13 45  1  0
 15 46  1  0
 15 47  1  0
 15 48  1  0
 18 49  1  0
 18 50  1  0
 21 51  1  0
 21 52  1  0
 24 53  1  0
 24 54  1  0
 25 55  1  0
 25 56  1  0
 25 57  1  0
 27 58  1  0
 28 59  1  0
 29 60  1  0
 30 61  1  0
 31 62  1  0
M  END
$$$$
