
     RDKit          3D

 64 68  0  0  0  0  0  0  0  0999 V2000
    2.3880    1.3247   -3.7250 N   0  0  0  0  0  0  0  0  0  0  0  0
    1.2669    2.1434   -3.3903 C   0  0  0  0  0  0  0  0  0  0  0  0
    0.9105    3.0560   -4.1817 O   0  0  0  0  0  0  0  0  0  0  0  0
    0.5048    1.9132   -2.1481 C   0  0  0  0  0  0  0  0  0  0  0  0
   -0.8590    2.0323   -1.9710 C   0  0  0  0  0  0  0  0  0  0  0  0
   -1.8404    2.4481   -2.9197 N   0  0  0  0  0  0  0  0  0  0  0  0
   -3.1955    2.7113   -2.4398 C   0  0  0  0  0  0  0  0  0  0  0  0
   -3.5913    1.6976   -1.3498 C   0  0  0  0  0  0  0  0  0  0  0  0
   -2.5585    1.6773   -0.1909 C   0  0  1  0  0  0  0  0  0  0  0  0
   -2.7796    0.5447    0.8638 C   0  0  0  0  0  0  0  0  0  0  0  0
   -4.1275    0.6365    1.6208 C   0  0  0  0  0  0  0  0  0  0  0  0
   -5.2640   -0.1774    0.9925 C   0  0  0  0  0  0  0  0  0  0  0  0
   -4.8127   -1.5374    0.6901 N   0  0  0  0  0  0  0  0  0  0  0  0
   -3.6354   -1.6878   -0.1675 C   0  0  0  0  0  0  0  0  0  0  0  0
   -2.4465   -0.8974    0.3902 C   0  0  0  0  0  0  0  0  0  0  0  0
   -5.6415   -2.6829    0.9719 C   0  0  0  0  0  0  0  0  0  0  0  0
   -5.0970   -3.7958    1.2110 O   0  0  0  0  0  0  0  0  0  0  0  0
   -7.1173   -2.5787    0.9580 C   0  0  0  0  0  0  0  0  0  0  0  0
   -7.9074   -3.5871    1.3229 C   0  0  0  0  0  0  0  0  0  0  0  0
   -1.1918    1.6411   -0.7341 N   0  0  0  0  0  0  0  0  0  0  0  0
   -0.0960    1.3203   -0.0640 N   0  0  0  0  0  0  0  0  0  0  0  0
    0.9559    1.4669   -0.9021 C   0  0  0  0  0  0  0  0  0  0  0  0
    2.3508    1.2455   -0.4689 C   0  0  0  0  0  0  0  0  0  0  0  0
    2.6455    0.1966    0.4158 C   0  0  0  0  0  0  0  0  0  0  0  0
    3.9572   -0.0152    0.8497 C   0  0  0  0  0  0  0  0  0  0  0  0
    4.9948    0.8233    0.4063 C   0  0  0  0  0  0  0  0  0  0  0  0
    6.3208    0.6510    0.8299 O   0  0  0  0  0  0  0  0  0  0  0  0
    6.9194   -0.5769    1.1484 C   0  0  0  0  0  0  0  0  0  0  0  0
    6.5476   -1.7752    0.5098 C   0  0  0  0  0  0  0  0  0  0  0  0
    7.1810   -2.9762    0.8443 C   0  0  0  0  0  0  0  0  0  0  0  0
    8.1948   -2.9893    1.8061 C   0  0  0  0  0  0  0  0  0  0  0  0
    8.5818   -1.7997    2.4292 C   0  0  0  0  0  0  0  0  0  0  0  0
    7.9503   -0.5971    2.0964 C   0  0  0  0  0  0  0  0  0  0  0  0
    4.6936    1.8944   -0.4415 C   0  0  0  0  0  0  0  0  0  0  0  0
    3.3825    2.1071   -0.8768 C   0  0  0  0  0  0  0  0  0  0  0  0
    2.6311    0.4851   -3.1544 H   0  0  0  0  0  0  0  0  0  0  0  0
    2.9434    1.5224   -4.5867 H   0  0  0  0  0  0  0  0  0  0  0  0
   -1.6057    2.5693   -3.9295 H   0  0  0  0  0  0  0  0  0  0  0  0
   -3.2377    3.7393   -2.0194 H   0  0  0  0  0  0  0  0  0  0  0  0
   -3.9110    2.6513   -3.2879 H   0  0  0  0  0  0  0  0  0  0  0  0
   -4.5895    1.9855   -0.9622 H   0  0  0  0  0  0  0  0  0  0  0  0
   -3.6580    0.7037   -1.8273 H   0  0  0  0  0  0  0  0  0  0  0  0
   -2.6651    2.6471    0.3451 H   0  0  0  0  0  0  0  0  0  0  0  0
   -2.0166    0.7680    1.6448 H   0  0  0  0  0  0  0  0  0  0  0  0
   -4.4457    1.6966    1.7225 H   0  0  0  0  0  0  0  0  0  0  0  0
   -3.9735    0.2490    2.6529 H   0  0  0  0  0  0  0  0  0  0  0  0
   -6.1014   -0.1939    1.7230 H   0  0  0  0  0  0  0  0  0  0  0  0
   -5.6395    0.2992    0.0661 H   0  0  0  0  0  0  0  0  0  0  0  0
   -3.3341   -2.7553   -0.2444 H   0  0  0  0  0  0  0  0  0  0  0  0
   -3.8861   -1.3624   -1.1949 H   0  0  0  0  0  0  0  0  0  0  0  0
   -2.0580   -1.4638    1.2658 H   0  0  0  0  0  0  0  0  0  0  0  0
   -1.6341   -0.8928   -0.3662 H   0  0  0  0  0  0  0  0  0  0  0  0
   -7.5816   -1.6594    0.6250 H   0  0  0  0  0  0  0  0  0  0  0  0
   -7.5012   -4.5324    1.6600 H   0  0  0  0  0  0  0  0  0  0  0  0
   -8.9827   -3.4692    1.2887 H   0  0  0  0  0  0  0  0  0  0  0  0
    1.8606   -0.4627    0.7662 H   0  0  0  0  0  0  0  0  0  0  0  0
    4.1574   -0.8193    1.5455 H   0  0  0  0  0  0  0  0  0  0  0  0
    5.7850   -1.7784   -0.2578 H   0  0  0  0  0  0  0  0  0  0  0  0
    6.8909   -3.8957    0.3524 H   0  0  0  0  0  0  0  0  0  0  0  0
    8.6853   -3.9193    2.0630 H   0  0  0  0  0  0  0  0  0  0  0  0
    9.3722   -1.8089    3.1686 H   0  0  0  0  0  0  0  0  0  0  0  0
    8.2570    0.3209    2.5815 H   0  0  0  0  0  0  0  0  0  0  0  0
    5.4800    2.5643   -0.7655 H   0  0  0  0  0  0  0  0  0  0  0  0
    3.1736    2.9544   -1.5170 H   0  0  0  0  0  0  0  0  0  0  0  0
  1  2  1  0
  2  3  2  0
  2  4  1  0
  4  5  2  0
  5  6  1  0
  6  7  1  0
  7  8  1  0
  8  9  1  0
  9 10  1  0
 10 11  1  0
 11 12  1  0
 12 13  1  0
 13 14  1  0
 14 15  1  0
 13 16  1  0
 16 17  2  0
 16 18  1  0
 18 19  2  3
  9 20  1  0
 20 21  1  0
 21 22  2  0
 22 23  1  0
 23 24  2  0
 24 25  1  0
 25 26  2  0
 26 27  1  0
 27 28  1  0
 28 29  2  0
 29 30  1  0
 30 31  2  0
 31 32  1  0
 32 33  2  0
 26 34  1  0
 34 35  2  0
 22  4  1  0
 35 23  1  0
 20  5  1  0
 33 28  1  0
 15 10  1  0
  1 36  1  0
  1 37  1  0
  6 38  1  0
  7 39  1  0
  7 40  1  0
  8 41  1  0
  8 42  1  0
  9 43  1  1
 10 44  1  0
 11 45  1  0
 11 46  1  0
 12 47  1  0
 12 48  1  0
 14 49  1  0
 14 50  1  0
 15 51  1  0
 15 52  1  0
 18 53  1  0
 19 54  1  0
 19 55  1  0
 24 56  1  0
 25 57  1  0
 29 58  1  0
 30 59  1  0
 31 60  1  0
 32 61  1  0
 33 62  1  0
 34 63  1  0
 35 64  1  0
M  END
$$$$
