
     RDKit          3D

 49 52  0  0  0  0  0  0  0  0999 V2000
   -8.9028   -0.3011    1.1814 C   0  0  0  0  0  0  0  0  0  0  0  0
   -7.8059   -0.0594    2.1133 N   0  0  0  0  0  0  0  0  0  0  0  0
   -6.4177   -0.0484    1.7257 C   0  0  0  0  0  0  0  0  0  0  0  0
   -5.4283    0.1938    2.6946 C   0  0  0  0  0  0  0  0  0  0  0  0
   -5.7721    0.4163    3.9884 F   0  0  0  0  0  0  0  0  0  0  0  0
   -4.0764    0.2090    2.3414 C   0  0  0  0  0  0  0  0  0  0  0  0
   -3.6866   -0.0173    1.0103 C   0  0  0  0  0  0  0  0  0  0  0  0
   -4.6682   -0.2613    0.0326 C   0  0  0  0  0  0  0  0  0  0  0  0
   -4.2952   -0.4817   -1.2570 N   0  0  0  0  0  0  0  0  0  0  0  0
   -2.9859   -0.4683   -1.6255 C   0  0  0  0  0  0  0  0  0  0  0  0
   -2.6866   -0.6611   -2.8369 O   0  0  0  0  0  0  0  0  0  0  0  0
   -2.0047   -0.2363   -0.6959 N   0  0  0  0  0  0  0  0  0  0  0  0
   -2.3380   -0.0124    0.6153 C   0  0  0  0  0  0  0  0  0  0  0  0
   -1.4326    0.1877    1.4742 O   0  0  0  0  0  0  0  0  0  0  0  0
   -0.6192   -0.2266   -1.0987 C   0  0  0  0  0  0  0  0  0  0  0  0
    0.1395    0.9489   -0.9962 C   0  0  0  0  0  0  0  0  0  0  0  0
    1.4820    0.9593   -1.3855 C   0  0  0  0  0  0  0  0  0  0  0  0
    2.0901   -0.2123   -1.8713 C   0  0  0  0  0  0  0  0  0  0  0  0
    3.4627   -0.2237   -2.2998 N   0  0  0  0  0  0  0  0  0  0  0  0
    4.5065    0.5429   -1.6805 C   0  0  0  0  0  0  0  0  0  0  0  0
    4.3070    1.1201   -0.5771 O   0  0  0  0  0  0  0  0  0  0  0  0
    5.7943    0.6142   -2.3008 N   0  0  0  0  0  0  0  0  0  0  0  0
    7.1110    1.4737   -1.5739 S   0  0  0  0  0  6  0  0  0  0  0  0
    8.3261    1.3635   -2.4505 O   0  0  0  0  0  0  0  0  0  0  0  0
    6.7354    2.9217   -1.4298 O   0  0  0  0  0  0  0  0  0  0  0  0
    7.4709    0.7850   -0.0027 C   0  0  0  0  0  0  0  0  0  0  0  0
    7.4199   -0.5648    0.3157 C   0  0  0  0  0  0  0  0  0  0  0  0
    7.7522   -0.8228    1.6503 C   0  0  0  0  0  0  0  0  0  0  0  0
    8.0613    0.3259    2.3656 C   0  0  0  0  0  0  0  0  0  0  0  0
    8.5198    0.3835    4.0543 Cl  0  0  0  0  0  0  0  0  0  0  0  0
    7.9256    1.6641    1.3565 S   0  0  0  0  0  0  0  0  0  0  0  0
    1.3217   -1.3795   -1.9950 C   0  0  0  0  0  0  0  0  0  0  0  0
   -0.0203   -1.3899   -1.6047 C   0  0  0  0  0  0  0  0  0  0  0  0
   -6.0253   -0.2757    0.3923 C   0  0  0  0  0  0  0  0  0  0  0  0
   -8.9046    0.4767    0.3892 H   0  0  0  0  0  0  0  0  0  0  0  0
   -9.8725   -0.2581    1.7211 H   0  0  0  0  0  0  0  0  0  0  0  0
   -8.7968   -1.3077    0.7250 H   0  0  0  0  0  0  0  0  0  0  0  0
   -8.0582    0.1134    3.1127 H   0  0  0  0  0  0  0  0  0  0  0  0
   -3.3386    0.3985    3.1115 H   0  0  0  0  0  0  0  0  0  0  0  0
   -5.0229   -0.6610   -1.9872 H   0  0  0  0  0  0  0  0  0  0  0  0
   -0.3163    1.8591   -0.6271 H   0  0  0  0  0  0  0  0  0  0  0  0
    2.0330    1.8886   -1.3313 H   0  0  0  0  0  0  0  0  0  0  0  0
    3.7382   -0.8985   -3.0488 H   0  0  0  0  0  0  0  0  0  0  0  0
    5.9565    0.1305   -3.2117 H   0  0  0  0  0  0  0  0  0  0  0  0
    7.1495   -1.3379   -0.3913 H   0  0  0  0  0  0  0  0  0  0  0  0
    7.7659   -1.8159    2.0793 H   0  0  0  0  0  0  0  0  0  0  0  0
    1.7683   -2.2861   -2.3838 H   0  0  0  0  0  0  0  0  0  0  0  0
   -0.5946   -2.3037   -1.6916 H   0  0  0  0  0  0  0  0  0  0  0  0
   -6.7667   -0.4648   -0.3725 H   0  0  0  0  0  0  0  0  0  0  0  0
  1  2  1  0
  2  3  1  0
  3  4  2  0
  4  5  1  0
  4  6  1  0
  6  7  2  0
  7  8  1  0
  8  9  1  0
  9 10  1  0
 10 11  2  0
 10 12  1  0
 12 13  1  0
 13 14  2  0
 12 15  1  0
 15 16  2  0
 16 17  1  0
 17 18  2  0
 18 19  1  0
 19 20  1  0
 20 21  2  0
 20 22  1  0
 22 23  1  0
 23 24  2  0
 23 25  2  0
 23 26  1  0
 26 27  2  0
 27 28  1  0
 28 29  2  0
 29 30  1  0
 29 31  1  0
 18 32  1  0
 32 33  2  0
  8 34  2  0
 34  3  1  0
 13  7  1  0
 33 15  1  0
 31 26  1  0
  1 35  1  0
  1 36  1  0
  1 37  1  0
  2 38  1  0
  6 39  1  0
  9 40  1  0
 16 41  1  0
 17 42  1  0
 19 43  1  0
 22 44  1  0
 27 45  1  0
 28 46  1  0
 32 47  1  0
 33 48  1  0
 34 49  1  0
M  END
$$$$
