
     RDKit          3D

 83 85  0  0  0  0  0  0  0  0999 V2000
   -5.0427    4.1637   -0.4032 C   0  0  0  0  0  0  0  0  0  0  0  0
   -5.0226    2.7660    0.2079 C   0  0  0  0  0  0  0  0  0  0  0  0
   -6.4240    2.1396    0.2043 C   0  0  0  0  0  0  0  0  0  0  0  0
   -6.4249    0.7490    0.8530 C   0  0  0  0  0  0  0  0  0  0  0  0
   -5.5721   -0.1869    0.0830 N   0  0  0  0  0  0  0  0  0  0  0  0
   -6.3315   -0.8407   -1.0070 C   0  0  0  0  0  0  0  0  0  0  0  0
   -5.3991   -1.1288   -2.1933 C   0  0  0  0  0  0  0  0  0  0  0  0
   -6.1494   -1.6646   -3.4222 C   0  0  0  0  0  0  0  0  0  0  0  0
   -6.6685   -3.0880   -3.2211 C   0  0  0  0  0  0  0  0  0  0  0  0
   -4.9268   -1.1830    0.9682 C   0  0  0  0  0  0  0  0  0  0  0  0
   -3.6144   -0.6166    1.5215 C   0  0  0  0  0  0  0  0  0  0  0  0
   -2.8907   -1.6448    2.3965 C   0  0  0  0  0  0  0  0  0  0  0  0
   -1.6702   -1.1031    2.9016 O   0  0  0  0  0  0  0  0  0  0  0  0
   -0.4914   -0.9177    2.1603 C   0  0  0  0  0  0  0  0  0  0  0  0
   -0.3439   -1.3702    0.8350 C   0  0  0  0  0  0  0  0  0  0  0  0
    0.8530   -1.1565    0.1453 C   0  0  0  0  0  0  0  0  0  0  0  0
    1.9275   -0.5005    0.7673 C   0  0  0  0  0  0  0  0  0  0  0  0
    1.7749   -0.0448    2.0882 C   0  0  0  0  0  0  0  0  0  0  0  0
    0.5778   -0.2586    2.7763 C   0  0  0  0  0  0  0  0  0  0  0  0
    3.1888   -0.2729    0.0262 C   0  0  0  0  0  0  0  0  0  0  0  0
    3.1603   -0.1783   -1.2306 O   0  0  0  0  0  0  0  0  0  0  0  0
    4.4855   -0.1298    0.7163 C   0  0  0  0  0  0  0  0  0  0  0  0
    5.0619   -0.9718    1.6751 C   0  0  0  0  0  0  0  0  0  0  0  0
    4.4953   -2.2525    2.2206 C   0  0  0  0  0  0  0  0  0  0  0  0
    5.0352   -3.4759    1.4696 C   0  0  0  0  0  0  0  0  0  0  0  0
    4.5005   -3.5593    0.0325 C   0  0  0  0  0  0  0  0  0  0  0  0
    4.9571   -4.8444   -0.6510 C   0  0  0  0  0  0  0  0  0  0  0  0
    6.2610   -0.5268    2.0067 O   0  0  0  0  0  0  0  0  0  0  0  0
    6.4943    0.5565    1.3065 C   0  0  0  0  0  0  0  0  0  0  0  0
    5.4372    0.8416    0.4861 C   0  0  0  0  0  0  0  0  0  0  0  0
    5.4405    1.9475   -0.3635 C   0  0  0  0  0  0  0  0  0  0  0  0
    6.5806    2.7881   -0.3629 C   0  0  0  0  0  0  0  0  0  0  0  0
    6.6683    3.9506   -1.2068 N   0  0  0  0  0  0  0  0  0  0  0  0
    5.3544    4.5832   -2.1489 S   0  0  0  0  0  6  0  0  0  0  0  0
    4.0417    5.1367   -1.0807 C   0  0  0  0  0  0  0  0  0  0  0  0
    4.8510    3.5351   -3.1012 O   0  0  0  0  0  0  0  0  0  0  0  0
    5.8498    5.7579   -2.9441 O   0  0  0  0  0  0  0  0  0  0  0  0
    7.6727    2.4750    0.4873 C   0  0  0  0  0  0  0  0  0  0  0  0
    7.6339    1.3522    1.3328 C   0  0  0  0  0  0  0  0  0  0  0  0
   -5.7135    4.8302    0.1798 H   0  0  0  0  0  0  0  0  0  0  0  0
   -5.3939    4.1190   -1.4562 H   0  0  0  0  0  0  0  0  0  0  0  0
   -4.0177    4.5905   -0.3884 H   0  0  0  0  0  0  0  0  0  0  0  0
   -4.3227    2.1314   -0.3780 H   0  0  0  0  0  0  0  0  0  0  0  0
   -4.6446    2.8349    1.2512 H   0  0  0  0  0  0  0  0  0  0  0  0
   -7.1192    2.7937    0.7748 H   0  0  0  0  0  0  0  0  0  0  0  0
   -6.8009    2.0723   -0.8387 H   0  0  0  0  0  0  0  0  0  0  0  0
   -6.0650    0.8668    1.8996 H   0  0  0  0  0  0  0  0  0  0  0  0
   -7.4699    0.3705    0.9269 H   0  0  0  0  0  0  0  0  0  0  0  0
   -6.8140   -1.7762   -0.6456 H   0  0  0  0  0  0  0  0  0  0  0  0
   -7.1470   -0.1795   -1.3765 H   0  0  0  0  0  0  0  0  0  0  0  0
   -4.8966   -0.1795   -2.4814 H   0  0  0  0  0  0  0  0  0  0  0  0
   -4.6052   -1.8482   -1.8997 H   0  0  0  0  0  0  0  0  0  0  0  0
   -5.4497   -1.6682   -4.2860 H   0  0  0  0  0  0  0  0  0  0  0  0
   -6.9960   -0.9916   -3.6795 H   0  0  0  0  0  0  0  0  0  0  0  0
   -7.0949   -3.4631   -4.1753 H   0  0  0  0  0  0  0  0  0  0  0  0
   -5.8421   -3.7637   -2.9140 H   0  0  0  0  0  0  0  0  0  0  0  0
   -7.4692   -3.1099   -2.4534 H   0  0  0  0  0  0  0  0  0  0  0  0
   -4.6786   -2.1131    0.4095 H   0  0  0  0  0  0  0  0  0  0  0  0
   -5.6050   -1.4801    1.8008 H   0  0  0  0  0  0  0  0  0  0  0  0
   -3.8157    0.2906    2.1297 H   0  0  0  0  0  0  0  0  0  0  0  0
   -2.9657   -0.3189    0.6708 H   0  0  0  0  0  0  0  0  0  0  0  0
   -2.6985   -2.5885    1.8425 H   0  0  0  0  0  0  0  0  0  0  0  0
   -3.5397   -1.8959    3.2623 H   0  0  0  0  0  0  0  0  0  0  0  0
   -1.1427   -1.8899    0.3258 H   0  0  0  0  0  0  0  0  0  0  0  0
    0.9437   -1.5174   -0.8720 H   0  0  0  0  0  0  0  0  0  0  0  0
    2.5788    0.4807    2.5881 H   0  0  0  0  0  0  0  0  0  0  0  0
    0.4777    0.0961    3.7943 H   0  0  0  0  0  0  0  0  0  0  0  0
    3.3883   -2.2535    2.1917 H   0  0  0  0  0  0  0  0  0  0  0  0
    4.7907   -2.3335    3.2885 H   0  0  0  0  0  0  0  0  0  0  0  0
    6.1474   -3.4487    1.4586 H   0  0  0  0  0  0  0  0  0  0  0  0
    4.7232   -4.3872    2.0254 H   0  0  0  0  0  0  0  0  0  0  0  0
    3.3888   -3.5318    0.0410 H   0  0  0  0  0  0  0  0  0  0  0  0
    4.8709   -2.6952   -0.5592 H   0  0  0  0  0  0  0  0  0  0  0  0
    6.0665   -4.8874   -0.6891 H   0  0  0  0  0  0  0  0  0  0  0  0
    4.5645   -4.8726   -1.6893 H   0  0  0  0  0  0  0  0  0  0  0  0
    4.5736   -5.7309   -0.1024 H   0  0  0  0  0  0  0  0  0  0  0  0
    4.5865    2.1372   -0.9947 H   0  0  0  0  0  0  0  0  0  0  0  0
    7.5598    4.4950   -1.2224 H   0  0  0  0  0  0  0  0  0  0  0  0
    4.4354    5.8988   -0.3772 H   0  0  0  0  0  0  0  0  0  0  0  0
    3.6324    4.2842   -0.5025 H   0  0  0  0  0  0  0  0  0  0  0  0
    3.2314    5.5851   -1.6917 H   0  0  0  0  0  0  0  0  0  0  0  0
    8.5520    3.1066    0.4954 H   0  0  0  0  0  0  0  0  0  0  0  0
    8.4653    1.1144    1.9833 H   0  0  0  0  0  0  0  0  0  0  0  0
  1  2  1  0
  2  3  1  0
  3  4  1  0
  4  5  1  0
  5  6  1  0
  6  7  1  0
  7  8  1  0
  8  9  1  0
  5 10  1  0
 10 11  1  0
 11 12  1  0
 12 13  1  0
 13 14  1  0
 14 15  2  0
 15 16  1  0
 16 17  2  0
 17 18  1  0
 18 19  2  0
 17 20  1  0
 20 21  2  0
 20 22  1  0
 22 23  2  0
 23 24  1  0
 24 25  1  0
 25 26  1  0
 26 27  1  0
 23 28  1  0
 28 29  1  0
 29 30  2  0
 30 31  1  0
 31 32  2  0
 32 33  1  0
 33 34  1  0
 34 35  1  0
 34 36  2  0
 34 37  2  0
 32 38  1  0
 38 39  2  0
 19 14  1  0
 30 22  1  0
 39 29  1  0
  1 40  1  0
  1 41  1  0
  1 42  1  0
  2 43  1  0
  2 44  1  0
  3 45  1  0
  3 46  1  0
  4 47  1  0
  4 48  1  0
  6 49  1  0
  6 50  1  0
  7 51  1  0
  7 52  1  0
  8 53  1  0
  8 54  1  0
  9 55  1  0
  9 56  1  0
  9 57  1  0
 10 58  1  0
 10 59  1  0
 11 60  1  0
 11 61  1  0
 12 62  1  0
 12 63  1  0
 15 64  1  0
 16 65  1  0
 18 66  1  0
 19 67  1  0
 24 68  1  0
 24 69  1  0
 25 70  1  0
 25 71  1  0
 26 72  1  0
 26 73  1  0
 27 74  1  0
 27 75  1  0
 27 76  1  0
 31 77  1  0
 33 78  1  0
 35 79  1  0
 35 80  1  0
 35 81  1  0
 38 82  1  0
 39 83  1  0
M  END
$$$$
