
     RDKit          3D

 35 36  0  0  0  0  0  0  0  0999 V2000
   -0.7754    1.4259   -0.0113 C   0  0  0  0  0  0  0  0  0  0  0  0
   -0.5998   -0.0927   -0.2038 C   0  0  1  0  0  0  0  0  0  0  0  0
    0.6442   -0.6059    0.5520 C   0  0  0  0  0  0  0  0  0  0  0  0
    1.8835   -0.0453   -0.0363 N   0  0  0  0  0  0  0  0  0  0  0  0
    2.9031    0.1922    1.0088 C   0  0  0  0  0  0  0  0  0  0  0  0
    4.1341    0.8097    0.4084 C   0  0  0  0  0  0  0  0  0  0  0  0
    4.8906    1.5286    1.1139 O   0  0  0  0  0  0  0  0  0  0  0  0
    4.4722    0.5361   -0.9527 N   0  0  0  0  0  0  0  0  0  0  0  0
    3.6208   -0.3035   -1.7340 C   0  0  0  0  0  0  0  0  0  0  0  0
    3.9096   -0.5554   -2.9339 O   0  0  0  0  0  0  0  0  0  0  0  0
    2.4161   -0.9306   -1.0968 C   0  0  0  0  0  0  0  0  0  0  0  0
   -1.7952   -0.8926    0.1861 N   0  0  0  0  0  0  0  0  0  0  0  0
   -2.7934   -1.0853   -0.8891 C   0  0  0  0  0  0  0  0  0  0  0  0
   -3.7452    0.0706   -0.9785 C   0  0  0  0  0  0  0  0  0  0  0  0
   -4.2888    0.3590   -2.0774 O   0  0  0  0  0  0  0  0  0  0  0  0
   -4.0803    0.8042    0.1990 N   0  0  0  0  0  0  0  0  0  0  0  0
   -3.4184    0.5151    1.4312 C   0  0  0  0  0  0  0  0  0  0  0  0
   -3.7135    1.1648    2.4691 O   0  0  0  0  0  0  0  0  0  0  0  0
   -2.4039   -0.5943    1.5049 C   0  0  0  0  0  0  0  0  0  0  0  0
   -1.6502    1.7947   -0.5827 H   0  0  0  0  0  0  0  0  0  0  0  0
   -0.8925    1.6890    1.0605 H   0  0  0  0  0  0  0  0  0  0  0  0
    0.1175    1.9616   -0.3977 H   0  0  0  0  0  0  0  0  0  0  0  0
   -0.4007   -0.2483   -1.2858 H   0  0  0  0  0  0  0  0  0  0  0  0
    0.6598   -1.7199    0.5328 H   0  0  0  0  0  0  0  0  0  0  0  0
    0.5460   -0.3195    1.6224 H   0  0  0  0  0  0  0  0  0  0  0  0
    3.1805   -0.7610    1.5123 H   0  0  0  0  0  0  0  0  0  0  0  0
    2.5010    0.8945    1.7724 H   0  0  0  0  0  0  0  0  0  0  0  0
    5.3317    0.9534   -1.3756 H   0  0  0  0  0  0  0  0  0  0  0  0
    2.7088   -1.9190   -0.6769 H   0  0  0  0  0  0  0  0  0  0  0  0
    1.6473   -1.0974   -1.8813 H   0  0  0  0  0  0  0  0  0  0  0  0
   -2.2991   -1.2533   -1.8705 H   0  0  0  0  0  0  0  0  0  0  0  0
   -3.3820   -2.0019   -0.6711 H   0  0  0  0  0  0  0  0  0  0  0  0
   -4.7828    1.5762    0.1515 H   0  0  0  0  0  0  0  0  0  0  0  0
   -2.9177   -1.5073    1.8737 H   0  0  0  0  0  0  0  0  0  0  0  0
   -1.6277   -0.3426    2.2563 H   0  0  0  0  0  0  0  0  0  0  0  0
  1  2  1  0
  2  3  1  0
  3  4  1  0
  4  5  1  0
  5  6  1  0
  6  7  2  0
  6  8  1  0
  8  9  1  0
  9 10  2  0
  9 11  1  0
  2 12  1  0
 12 13  1  0
 13 14  1  0
 14 15  2  0
 14 16  1  0
 16 17  1  0
 17 18  2  0
 17 19  1  0
 11  4  1  0
 19 12  1  0
  1 20  1  0
  1 21  1  0
  1 22  1  0
  2 23  1  6
  3 24  1  0
  3 25  1  0
  5 26  1  0
  5 27  1  0
  8 28  1  0
 11 29  1  0
 11 30  1  0
 13 31  1  0
 13 32  1  0
 16 33  1  0
 19 34  1  0
 19 35  1  0
M  END
$$$$
