
     RDKit          3D

 44 44  0  0  0  0  0  0  0  0999 V2000
    1.9479    0.7424   -1.9601 C   0  0  0  0  0  0  0  0  0  0  0  0
    1.4686    0.3695   -0.5503 C   0  0  1  0  0  0  0  0  0  0  0  0
    2.4154    0.9230    0.5336 C   0  0  0  0  0  0  0  0  0  0  0  0
    3.7698    0.2620    0.4927 C   0  0  0  0  0  0  0  0  0  0  0  0
    4.8619    0.9096   -0.1099 C   0  0  0  0  0  0  0  0  0  0  0  0
    6.1102    0.2818   -0.1642 C   0  0  0  0  0  0  0  0  0  0  0  0
    6.2764   -0.9956    0.3780 C   0  0  0  0  0  0  0  0  0  0  0  0
    5.1938   -1.6484    0.9739 C   0  0  0  0  0  0  0  0  0  0  0  0
    3.9437   -1.0245    1.0301 C   0  0  0  0  0  0  0  0  0  0  0  0
    0.1150    0.8893   -0.3318 N   0  0  0  0  0  0  0  0  0  0  0  0
   -0.7629    0.3416    0.6653 C   0  0  0  0  0  0  0  0  0  0  0  0
   -0.3789   -0.6200    1.3855 O   0  0  0  0  0  0  0  0  0  0  0  0
   -2.1520    0.9032    0.8703 C   0  0  1  0  0  0  0  0  0  0  0  0
   -2.0845    2.2836    1.3549 N   0  0  0  0  0  0  0  0  0  0  0  0
   -3.0071    0.8398   -0.4138 C   0  0  0  0  0  0  0  0  0  0  0  0
   -3.1271   -0.5672   -1.0355 C   0  0  0  0  0  0  0  0  0  0  0  0
   -3.7321   -1.6409   -0.1100 C   0  0  0  0  0  0  0  0  0  0  0  0
   -5.1517   -1.3189    0.3780 C   0  0  0  0  0  0  0  0  0  0  0  0
   -6.0601   -1.1173   -0.7473 N   0  0  0  0  0  0  0  0  0  0  0  0
    1.2135    0.3858   -2.7134 H   0  0  0  0  0  0  0  0  0  0  0  0
    2.0554    1.8439   -2.0593 H   0  0  0  0  0  0  0  0  0  0  0  0
    2.9239    0.2611   -2.1800 H   0  0  0  0  0  0  0  0  0  0  0  0
    1.4409   -0.7417   -0.4901 H   0  0  0  0  0  0  0  0  0  0  0  0
    1.9716    0.7507    1.5381 H   0  0  0  0  0  0  0  0  0  0  0  0
    2.5146    2.0251    0.4190 H   0  0  0  0  0  0  0  0  0  0  0  0
    4.7456    1.8963   -0.5408 H   0  0  0  0  0  0  0  0  0  0  0  0
    6.9484    0.7847   -0.6289 H   0  0  0  0  0  0  0  0  0  0  0  0
    7.2431   -1.4803    0.3344 H   0  0  0  0  0  0  0  0  0  0  0  0
    5.3228   -2.6389    1.3906 H   0  0  0  0  0  0  0  0  0  0  0  0
    3.1110   -1.5426    1.4899 H   0  0  0  0  0  0  0  0  0  0  0  0
   -0.2273    1.6780   -0.9257 H   0  0  0  0  0  0  0  0  0  0  0  0
   -2.6669    0.3052    1.6538 H   0  0  0  0  0  0  0  0  0  0  0  0
   -1.5495    2.2982    2.2541 H   0  0  0  0  0  0  0  0  0  0  0  0
   -1.5600    2.8752    0.6701 H   0  0  0  0  0  0  0  0  0  0  0  0
   -4.0219    1.2351   -0.1955 H   0  0  0  0  0  0  0  0  0  0  0  0
   -2.5733    1.5169   -1.1808 H   0  0  0  0  0  0  0  0  0  0  0  0
   -2.1213   -0.9091   -1.3618 H   0  0  0  0  0  0  0  0  0  0  0  0
   -3.7450   -0.4928   -1.9563 H   0  0  0  0  0  0  0  0  0  0  0  0
   -3.0709   -1.8034    0.7668 H   0  0  0  0  0  0  0  0  0  0  0  0
   -3.7598   -2.6033   -0.6660 H   0  0  0  0  0  0  0  0  0  0  0  0
   -5.1392   -0.4109    1.0176 H   0  0  0  0  0  0  0  0  0  0  0  0
   -5.5173   -2.1615    1.0064 H   0  0  0  0  0  0  0  0  0  0  0  0
   -6.9931   -0.8489   -0.3589 H   0  0  0  0  0  0  0  0  0  0  0  0
   -6.1915   -2.0360   -1.2299 H   0  0  0  0  0  0  0  0  0  0  0  0
  1  2  1  0
  2  3  1  0
  3  4  1  0
  4  5  2  0
  5  6  1  0
  6  7  2  0
  7  8  1  0
  8  9  2  0
  2 10  1  0
 10 11  1  0
 11 12  2  0
 11 13  1  0
 13 14  1  0
 13 15  1  0
 15 16  1  0
 16 17  1  0
 17 18  1  0
 18 19  1  0
  9  4  1  0
  1 20  1  0
  1 21  1  0
  1 22  1  0
  2 23  1  6
  3 24  1  0
  3 25  1  0
  5 26  1  0
  6 27  1  0
  7 28  1  0
  8 29  1  0
  9 30  1  0
 10 31  1  0
 13 32  1  1
 14 33  1  0
 14 34  1  0
 15 35  1  0
 15 36  1  0
 16 37  1  0
 16 38  1  0
 17 39  1  0
 17 40  1  0
 18 41  1  0
 18 42  1  0
 19 43  1  0
 19 44  1  0
M  END
$$$$
