
     RDKit          3D

 38 41  0  0  0  0  0  0  0  0999 V2000
    3.2840   -1.5162    2.2394 C   0  0  0  0  0  0  0  0  0  0  0  0
    2.7062   -0.7294    1.1540 N   0  0  0  0  0  0  0  0  0  0  0  0
    1.3901   -0.6085    0.8658 C   0  0  0  0  0  0  0  0  0  0  0  0
    1.2080    0.2364   -0.2299 C   0  0  0  0  0  0  0  0  0  0  0  0
   -0.0850    0.6328   -0.8344 C   0  0  0  0  0  0  0  0  0  0  0  0
   -0.1183    1.5891   -1.6553 O   0  0  0  0  0  0  0  0  0  0  0  0
   -1.3776   -0.0386   -0.4292 C   0  0  2  0  0  0  0  0  0  0  0  0
   -2.3693   -0.1302   -1.6209 C   0  0  0  0  0  0  0  0  0  0  0  0
   -3.6456   -0.9081   -1.2402 C   0  0  0  0  0  0  0  0  0  0  0  0
   -4.1533   -0.4513    0.0927 C   0  0  0  0  0  0  0  0  0  0  0  0
   -3.3972    0.2072    1.0235 C   0  0  0  0  0  0  0  0  0  0  0  0
   -2.0103    0.7114    0.7682 C   0  0  0  0  0  0  0  0  0  0  0  0
   -4.1215    0.4153    2.1395 N   0  0  0  0  0  0  0  0  0  0  0  0
   -5.3105   -0.1693    1.8572 C   0  0  0  0  0  0  0  0  0  0  0  0
   -5.3561   -0.7119    0.6215 N   0  0  0  0  0  0  0  0  0  0  0  0
    2.4848    0.6368   -0.6046 C   0  0  0  0  0  0  0  0  0  0  0  0
    3.3662    0.0301    0.2589 C   0  0  0  0  0  0  0  0  0  0  0  0
    4.7461    0.2253    0.1562 C   0  0  0  0  0  0  0  0  0  0  0  0
    5.2194    1.0642   -0.8669 C   0  0  0  0  0  0  0  0  0  0  0  0
    4.3176    1.6830   -1.7576 C   0  0  0  0  0  0  0  0  0  0  0  0
    2.9331    1.4717   -1.6332 C   0  0  0  0  0  0  0  0  0  0  0  0
    4.0009   -2.2559    1.8252 H   0  0  0  0  0  0  0  0  0  0  0  0
    3.8152   -0.8443    2.9459 H   0  0  0  0  0  0  0  0  0  0  0  0
    2.4897   -2.0614    2.7925 H   0  0  0  0  0  0  0  0  0  0  0  0
    0.6057   -1.0953    1.4305 H   0  0  0  0  0  0  0  0  0  0  0  0
   -1.1556   -1.0825   -0.1155 H   0  0  0  0  0  0  0  0  0  0  0  0
   -1.8809   -0.6408   -2.4795 H   0  0  0  0  0  0  0  0  0  0  0  0
   -2.6574    0.8934   -1.9489 H   0  0  0  0  0  0  0  0  0  0  0  0
   -3.4152   -1.9933   -1.1810 H   0  0  0  0  0  0  0  0  0  0  0  0
   -4.4265   -0.7517   -2.0144 H   0  0  0  0  0  0  0  0  0  0  0  0
   -1.3904    0.5658    1.6786 H   0  0  0  0  0  0  0  0  0  0  0  0
   -2.0697    1.7998    0.5494 H   0  0  0  0  0  0  0  0  0  0  0  0
   -6.1388   -0.1988    2.5527 H   0  0  0  0  0  0  0  0  0  0  0  0
   -6.1508   -1.2260    0.1807 H   0  0  0  0  0  0  0  0  0  0  0  0
    5.4356   -0.2527    0.8398 H   0  0  0  0  0  0  0  0  0  0  0  0
    6.2828    1.2348   -0.9732 H   0  0  0  0  0  0  0  0  0  0  0  0
    4.6943    2.3243   -2.5439 H   0  0  0  0  0  0  0  0  0  0  0  0
    2.2503    1.9445   -2.3243 H   0  0  0  0  0  0  0  0  0  0  0  0
  1  2  1  0
  2  3  1  0
  3  4  2  0
  4  5  1  0
  5  6  2  0
  5  7  1  0
  7  8  1  0
  8  9  1  0
  9 10  1  0
 10 11  2  0
 11 12  1  0
 11 13  1  0
 13 14  2  0
 14 15  1  0
  4 16  1  0
 16 17  2  0
 17 18  1  0
 18 19  2  0
 19 20  1  0
 20 21  2  0
 17  2  1  0
 12  7  1  0
 21 16  1  0
 15 10  1  0
  1 22  1  0
  1 23  1  0
  1 24  1  0
  3 25  1  0
  7 26  1  1
  8 27  1  0
  8 28  1  0
  9 29  1  0
  9 30  1  0
 12 31  1  0
 12 32  1  0
 14 33  1  0
 15 34  1  0
 18 35  1  0
 19 36  1  0
 20 37  1  0
 21 38  1  0
M  END
$$$$
