
     RDKit          3D

 55 57  0  0  0  0  0  0  0  0999 V2000
   -2.3137    2.2951    2.7518 C   0  0  0  0  0  0  0  0  0  0  0  0
   -1.7809    1.5298    1.5412 C   0  0  0  0  0  0  0  0  0  0  0  0
   -2.7767    1.4559    0.4027 C   0  0  0  0  0  0  0  0  0  0  0  0
   -2.7008    0.4457   -0.5864 C   0  0  0  0  0  0  0  0  0  0  0  0
   -3.6474    0.4725   -1.6350 C   0  0  0  0  0  0  0  0  0  0  0  0
   -3.6243   -0.4881   -2.6970 N   0  0  0  0  0  0  0  0  0  0  0  0
   -4.5868    1.4530   -1.6660 N   0  0  0  0  0  0  0  0  0  0  0  0
   -4.6355    2.4189   -0.7162 C   0  0  0  0  0  0  0  0  0  0  0  0
   -5.6293    3.4385   -0.7851 N   0  0  0  0  0  0  0  0  0  0  0  0
   -3.7324    2.4188    0.2949 N   0  0  0  0  0  0  0  0  0  0  0  0
   -1.6660   -0.6131   -0.5227 C   0  0  0  0  0  0  0  0  0  0  0  0
   -2.0361   -1.9430   -0.2871 C   0  0  0  0  0  0  0  0  0  0  0  0
   -1.0626   -2.9383   -0.2151 C   0  0  0  0  0  0  0  0  0  0  0  0
    0.2881   -2.6164   -0.3712 C   0  0  0  0  0  0  0  0  0  0  0  0
    1.2409   -3.6348   -0.2937 O   0  0  0  0  0  0  0  0  0  0  0  0
    2.5860   -3.4874   -0.7529 C   0  0  0  0  0  0  0  0  0  0  0  0
    2.6389   -3.8336   -2.2472 C   0  0  0  0  0  0  0  0  0  0  0  0
    3.4641   -4.4670    0.0406 C   0  0  0  0  0  0  0  0  0  0  0  0
    3.0526   -2.0593   -0.5596 C   0  0  0  0  0  0  0  0  0  0  0  0
    4.2820   -1.8194   -0.3981 O   0  0  0  0  0  0  0  0  0  0  0  0
    2.1043   -0.9728   -0.6449 N   0  0  0  0  0  0  0  0  0  0  0  0
    2.6017    0.4149   -0.6436 C   0  0  0  0  0  0  0  0  0  0  0  0
    2.5664    0.9925    0.7763 C   0  0  0  0  0  0  0  0  0  0  0  0
    2.9706    2.4702    0.7875 C   0  0  0  0  0  0  0  0  0  0  0  0
    3.1014    2.9354    2.1180 O   0  0  0  0  0  0  0  0  0  0  0  0
    1.8989    3.5303    2.5547 C   0  0  0  0  0  0  0  0  0  0  0  0
    0.6876   -1.2823   -0.5814 C   0  0  0  0  0  0  0  0  0  0  0  0
   -0.3094   -0.2859   -0.6696 C   0  0  0  0  0  0  0  0  0  0  0  0
   -1.5620    2.2657    3.5687 H   0  0  0  0  0  0  0  0  0  0  0  0
   -3.2546    1.8309    3.1171 H   0  0  0  0  0  0  0  0  0  0  0  0
   -2.5017    3.3578    2.4885 H   0  0  0  0  0  0  0  0  0  0  0  0
   -0.8602    2.0312    1.1763 H   0  0  0  0  0  0  0  0  0  0  0  0
   -1.5125    0.5072    1.8829 H   0  0  0  0  0  0  0  0  0  0  0  0
   -4.3563   -0.4559   -3.4408 H   0  0  0  0  0  0  0  0  0  0  0  0
   -2.8672   -1.1996   -2.7909 H   0  0  0  0  0  0  0  0  0  0  0  0
   -6.3258    3.4463   -1.5630 H   0  0  0  0  0  0  0  0  0  0  0  0
   -5.6700    4.1869   -0.0580 H   0  0  0  0  0  0  0  0  0  0  0  0
   -3.0789   -2.2071   -0.1599 H   0  0  0  0  0  0  0  0  0  0  0  0
   -1.3574   -3.9650   -0.0394 H   0  0  0  0  0  0  0  0  0  0  0  0
    3.6780   -3.7514   -2.6337 H   0  0  0  0  0  0  0  0  0  0  0  0
    1.9899   -3.1425   -2.8273 H   0  0  0  0  0  0  0  0  0  0  0  0
    2.2773   -4.8707   -2.4154 H   0  0  0  0  0  0  0  0  0  0  0  0
    3.4504   -4.2038    1.1202 H   0  0  0  0  0  0  0  0  0  0  0  0
    4.5153   -4.4446   -0.3201 H   0  0  0  0  0  0  0  0  0  0  0  0
    3.0783   -5.5034   -0.0686 H   0  0  0  0  0  0  0  0  0  0  0  0
    2.0168    1.0412   -1.3472 H   0  0  0  0  0  0  0  0  0  0  0  0
    3.6438    0.4566   -1.0289 H   0  0  0  0  0  0  0  0  0  0  0  0
    1.5443    0.8881    1.1967 H   0  0  0  0  0  0  0  0  0  0  0  0
    3.2652    0.4151    1.4201 H   0  0  0  0  0  0  0  0  0  0  0  0
    3.9641    2.5696    0.3002 H   0  0  0  0  0  0  0  0  0  0  0  0
    2.2574    3.0715    0.1741 H   0  0  0  0  0  0  0  0  0  0  0  0
    1.0538    2.8100    2.5212 H   0  0  0  0  0  0  0  0  0  0  0  0
    1.6622    4.4385    1.9575 H   0  0  0  0  0  0  0  0  0  0  0  0
    2.0247    3.8474    3.6101 H   0  0  0  0  0  0  0  0  0  0  0  0
   -0.0562    0.7499   -0.8348 H   0  0  0  0  0  0  0  0  0  0  0  0
  1  2  1  0
  2  3  1  0
  3  4  2  0
  4  5  1  0
  5  6  1  0
  5  7  2  0
  7  8  1  0
  8  9  1  0
  8 10  2  0
  4 11  1  0
 11 12  2  0
 12 13  1  0
 13 14  2  0
 14 15  1  0
 15 16  1  0
 16 17  1  0
 16 18  1  0
 16 19  1  0
 19 20  2  0
 19 21  1  0
 21 22  1  0
 22 23  1  0
 23 24  1  0
 24 25  1  0
 25 26  1  0
 21 27  1  0
 27 28  2  0
 10  3  1  0
 28 11  1  0
 27 14  1  0
  1 29  1  0
  1 30  1  0
  1 31  1  0
  2 32  1  0
  2 33  1  0
  6 34  1  0
  6 35  1  0
  9 36  1  0
  9 37  1  0
 12 38  1  0
 13 39  1  0
 17 40  1  0
 17 41  1  0
 17 42  1  0
 18 43  1  0
 18 44  1  0
 18 45  1  0
 22 46  1  0
 22 47  1  0
 23 48  1  0
 23 49  1  0
 24 50  1  0
 24 51  1  0
 26 52  1  0
 26 53  1  0
 26 54  1  0
 28 55  1  0
M  END
$$$$
