
     RDKit          3D

 51 53  0  0  0  0  0  0  0  0999 V2000
   -3.4425   -1.6467   -0.0743 C   0  0  2  0  0  0  0  0  0  0  0  0
   -3.8302   -0.8715   -1.3497 C   0  0  0  0  0  0  0  0  0  0  0  0
   -3.3830   -1.5961   -2.6184 C   0  0  0  0  0  0  0  0  0  0  0  0
   -4.0114   -0.9775    1.1862 C   0  0  0  0  0  0  0  0  0  0  0  0
   -3.5755   -1.6610    2.3288 O   0  0  0  0  0  0  0  0  0  0  0  0
   -1.9872   -1.8361    0.0231 N   0  0  0  0  0  0  0  0  0  0  0  0
   -1.0131   -0.7831    0.0988 C   0  0  0  0  0  0  0  0  0  0  0  0
   -1.3946    0.5171    0.2966 N   0  0  0  0  0  0  0  0  0  0  0  0
   -0.4311    1.4678    0.3564 C   0  0  0  0  0  0  0  0  0  0  0  0
    0.8830    1.1778    0.2331 C   0  0  0  0  0  0  0  0  0  0  0  0
    1.6289    2.2904    0.3559 N   0  0  0  0  0  0  0  0  0  0  0  0
    0.6918    3.2573    0.5586 C   0  0  0  0  0  0  0  0  0  0  0  0
   -0.5829    2.7857    0.5601 N   0  0  0  0  0  0  0  0  0  0  0  0
   -1.8024    3.5560    0.8325 C   0  0  0  0  0  0  0  0  0  0  0  0
   -2.8397    3.3569   -0.2769 C   0  0  0  0  0  0  0  0  0  0  0  0
   -2.3735    3.1839    2.2032 C   0  0  0  0  0  0  0  0  0  0  0  0
    1.2900   -0.1326    0.0399 C   0  0  0  0  0  0  0  0  0  0  0  0
    2.6451   -0.4499   -0.0815 O   0  0  0  0  0  0  0  0  0  0  0  0
    3.1069   -1.7813   -0.2798 C   0  0  0  0  0  0  0  0  0  0  0  0
    4.6045   -1.7768   -0.3694 C   0  0  0  0  0  0  0  0  0  0  0  0
    5.2391   -1.5868   -1.6081 C   0  0  0  0  0  0  0  0  0  0  0  0
    6.6349   -1.5447   -1.6845 C   0  0  0  0  0  0  0  0  0  0  0  0
    7.4045   -1.6793   -0.5255 C   0  0  0  0  0  0  0  0  0  0  0  0
    6.7793   -1.8513    0.7127 C   0  0  0  0  0  0  0  0  0  0  0  0
    5.3837   -1.8940    0.7934 C   0  0  0  0  0  0  0  0  0  0  0  0
    0.3189   -1.0941   -0.0227 N   0  0  0  0  0  0  0  0  0  0  0  0
   -3.9159   -2.6527   -0.1404 H   0  0  0  0  0  0  0  0  0  0  0  0
   -4.9357   -0.7572   -1.3857 H   0  0  0  0  0  0  0  0  0  0  0  0
   -3.3891    0.1460   -1.3420 H   0  0  0  0  0  0  0  0  0  0  0  0
   -3.8199   -2.6167   -2.6555 H   0  0  0  0  0  0  0  0  0  0  0  0
   -2.2755   -1.6685   -2.6561 H   0  0  0  0  0  0  0  0  0  0  0  0
   -3.7279   -1.0304   -3.5094 H   0  0  0  0  0  0  0  0  0  0  0  0
   -3.7042    0.0879    1.2419 H   0  0  0  0  0  0  0  0  0  0  0  0
   -5.1234   -1.0078    1.1422 H   0  0  0  0  0  0  0  0  0  0  0  0
   -3.9634   -1.1776    3.1039 H   0  0  0  0  0  0  0  0  0  0  0  0
   -1.6293   -2.8171   -0.0241 H   0  0  0  0  0  0  0  0  0  0  0  0
    0.9445    4.2977    0.7178 H   0  0  0  0  0  0  0  0  0  0  0  0
   -1.5465    4.6391    0.8557 H   0  0  0  0  0  0  0  0  0  0  0  0
   -3.6826    4.0670   -0.1383 H   0  0  0  0  0  0  0  0  0  0  0  0
   -2.3770    3.5508   -1.2678 H   0  0  0  0  0  0  0  0  0  0  0  0
   -3.2470    2.3258   -0.2633 H   0  0  0  0  0  0  0  0  0  0  0  0
   -3.2648    3.8074    2.4285 H   0  0  0  0  0  0  0  0  0  0  0  0
   -1.6103    3.3648    2.9896 H   0  0  0  0  0  0  0  0  0  0  0  0
   -2.6672    2.1141    2.2323 H   0  0  0  0  0  0  0  0  0  0  0  0
    2.7764   -2.4229    0.5665 H   0  0  0  0  0  0  0  0  0  0  0  0
    2.6691   -2.1947   -1.2150 H   0  0  0  0  0  0  0  0  0  0  0  0
    4.6542   -1.4712   -2.5122 H   0  0  0  0  0  0  0  0  0  0  0  0
    7.1199   -1.4037   -2.6418 H   0  0  0  0  0  0  0  0  0  0  0  0
    8.4846   -1.6450   -0.5862 H   0  0  0  0  0  0  0  0  0  0  0  0
    7.3760   -1.9476    1.6105 H   0  0  0  0  0  0  0  0  0  0  0  0
    4.9114   -2.0176    1.7602 H   0  0  0  0  0  0  0  0  0  0  0  0
  1  2  1  0
  2  3  1  0
  1  4  1  0
  4  5  1  0
  1  6  1  0
  6  7  1  0
  7  8  2  0
  8  9  1  0
  9 10  2  0
 10 11  1  0
 11 12  2  0
 12 13  1  0
 13 14  1  0
 14 15  1  0
 14 16  1  0
 10 17  1  0
 17 18  1  0
 18 19  1  0
 19 20  1  0
 20 21  2  0
 21 22  1  0
 22 23  2  0
 23 24  1  0
 24 25  2  0
 17 26  2  0
 26  7  1  0
 13  9  1  0
 25 20  1  0
  1 27  1  6
  2 28  1  0
  2 29  1  0
  3 30  1  0
  3 31  1  0
  3 32  1  0
  4 33  1  0
  4 34  1  0
  5 35  1  0
  6 36  1  0
 12 37  1  0
 14 38  1  0
 15 39  1  0
 15 40  1  0
 15 41  1  0
 16 42  1  0
 16 43  1  0
 16 44  1  0
 19 45  1  0
 19 46  1  0
 21 47  1  0
 22 48  1  0
 23 49  1  0
 24 50  1  0
 25 51  1  0
M  END
$$$$
