
     RDKit          3D

 42 43  0  0  0  0  0  0  0  0999 V2000
   -6.6066    0.7505   -2.9444 C   0  0  0  0  0  0  0  0  0  0  0  0
   -6.2526   -0.6620   -2.4919 C   0  0  0  0  0  0  0  0  0  0  0  0
   -4.8899   -0.7326   -2.0716 O   0  0  0  0  0  0  0  0  0  0  0  0
   -4.3822   -0.2436   -0.8563 C   0  0  0  0  0  0  0  0  0  0  0  0
   -2.9974   -0.2964   -0.6525 C   0  0  0  0  0  0  0  0  0  0  0  0
   -2.4225    0.1718    0.5436 C   0  0  0  0  0  0  0  0  0  0  0  0
   -3.2620    0.6959    1.5419 C   0  0  0  0  0  0  0  0  0  0  0  0
   -4.6435    0.7491    1.3471 C   0  0  0  0  0  0  0  0  0  0  0  0
   -5.2055    0.2821    0.1573 C   0  0  0  0  0  0  0  0  0  0  0  0
   -0.9523    0.1135    0.7473 C   0  0  0  0  0  0  0  0  0  0  0  0
   -0.0723    0.4328   -0.3019 C   0  0  0  0  0  0  0  0  0  0  0  0
    1.3113    0.3779   -0.1107 C   0  0  0  0  0  0  0  0  0  0  0  0
    1.8430   -0.0112    1.1306 C   0  0  0  0  0  0  0  0  0  0  0  0
    3.2624   -0.0525    1.3592 N   0  0  0  0  0  0  0  0  0  0  0  0
    4.2266   -0.4080    0.3519 C   0  0  0  0  0  0  0  0  0  0  0  0
    3.8461   -1.0181   -0.6847 O   0  0  0  0  0  0  0  0  0  0  0  0
    5.6655   -0.0763    0.5413 C   0  0  0  0  0  0  0  0  0  0  0  0
    5.9995    0.9284    1.5289 C   0  0  0  0  0  0  0  0  0  0  0  0
    6.2660    1.7317    2.3184 N   0  0  0  0  0  0  0  0  0  0  0  0
    6.6457   -0.6690   -0.1801 C   0  0  0  0  0  0  0  0  0  0  0  0
    8.0956   -0.2995    0.0080 C   0  0  0  0  0  0  0  0  0  0  0  0
    6.3294   -1.6575   -1.1138 O   0  0  0  0  0  0  0  0  0  0  0  0
    0.9671   -0.3078    2.1841 C   0  0  0  0  0  0  0  0  0  0  0  0
   -0.4165   -0.2535    1.9944 C   0  0  0  0  0  0  0  0  0  0  0  0
   -5.9332    1.0619   -3.7707 H   0  0  0  0  0  0  0  0  0  0  0  0
   -6.5047    1.4696   -2.1060 H   0  0  0  0  0  0  0  0  0  0  0  0
   -7.6555    0.7736   -3.3078 H   0  0  0  0  0  0  0  0  0  0  0  0
   -6.9352   -1.0061   -1.6864 H   0  0  0  0  0  0  0  0  0  0  0  0
   -6.3865   -1.3485   -3.3543 H   0  0  0  0  0  0  0  0  0  0  0  0
   -2.3720   -0.7202   -1.4286 H   0  0  0  0  0  0  0  0  0  0  0  0
   -2.8492    1.0803    2.4661 H   0  0  0  0  0  0  0  0  0  0  0  0
   -5.2813    1.1564    2.1211 H   0  0  0  0  0  0  0  0  0  0  0  0
   -6.2785    0.3336    0.0419 H   0  0  0  0  0  0  0  0  0  0  0  0
   -0.4541    0.7502   -1.2642 H   0  0  0  0  0  0  0  0  0  0  0  0
    1.9619    0.6663   -0.9255 H   0  0  0  0  0  0  0  0  0  0  0  0
    3.6008    0.0871    2.3381 H   0  0  0  0  0  0  0  0  0  0  0  0
    8.2424    0.7822   -0.1968 H   0  0  0  0  0  0  0  0  0  0  0  0
    8.4127   -0.5264    1.0479 H   0  0  0  0  0  0  0  0  0  0  0  0
    8.7435   -0.8738   -0.6863 H   0  0  0  0  0  0  0  0  0  0  0  0
    7.0425   -2.1218   -1.6634 H   0  0  0  0  0  0  0  0  0  0  0  0
    1.3586   -0.5952    3.1520 H   0  0  0  0  0  0  0  0  0  0  0  0
   -1.0672   -0.5145    2.8196 H   0  0  0  0  0  0  0  0  0  0  0  0
  1  2  1  0
  2  3  1  0
  3  4  1  0
  4  5  2  0
  5  6  1  0
  6  7  2  0
  7  8  1  0
  8  9  2  0
  6 10  1  0
 10 11  2  0
 11 12  1  0
 12 13  2  0
 13 14  1  0
 14 15  1  0
 15 16  2  0
 15 17  1  0
 17 18  1  0
 18 19  3  0
 17 20  2  0
 20 21  1  0
 20 22  1  0
 13 23  1  0
 23 24  2  0
  9  4  1  0
 24 10  1  0
  1 25  1  0
  1 26  1  0
  1 27  1  0
  2 28  1  0
  2 29  1  0
  5 30  1  0
  7 31  1  0
  8 32  1  0
  9 33  1  0
 11 34  1  0
 12 35  1  0
 14 36  1  0
 21 37  1  0
 21 38  1  0
 21 39  1  0
 22 40  1  0
 23 41  1  0
 24 42  1  0
M  END
$$$$
