
     RDKit          3D

 58 59  0  0  0  0  0  0  0  0999 V2000
    6.5793    4.3617    1.0423 C   0  0  0  0  0  0  0  0  0  0  0  0
    6.5901    3.1563    0.1600 C   0  0  0  0  0  0  0  0  0  0  0  0
    7.5898    2.9316   -0.5748 O   0  0  0  0  0  0  0  0  0  0  0  0
    5.4495    2.2879    0.1213 N   0  0  0  0  0  0  0  0  0  0  0  0
    5.3966    1.0945   -0.7207 C   0  0  0  0  0  0  0  0  0  0  0  0
    6.2308   -0.0293   -0.1085 C   0  0  0  0  0  0  0  0  0  0  0  0
    6.3407   -1.4698   -1.2258 S   0  0  0  0  0  0  0  0  0  0  0  0
    4.3974   -2.2315   -0.7550 S   0  0  0  0  0  0  0  0  0  0  0  0
    3.8521   -2.3550   -2.4969 C   0  0  0  0  0  0  0  0  0  0  0  0
    3.2703   -1.0388   -3.0162 C   0  0  0  0  0  0  0  0  0  0  0  0
    2.1000   -0.6346   -2.2377 N   0  0  0  0  0  0  0  0  0  0  0  0
    0.8369   -1.3088   -2.3339 C   0  0  0  0  0  0  0  0  0  0  0  0
    0.6706   -2.2235   -3.1872 O   0  0  0  0  0  0  0  0  0  0  0  0
   -0.3113   -0.8908   -1.4507 C   0  0  0  0  0  0  0  0  0  0  0  0
   -1.3252   -0.0313   -2.2441 C   0  0  0  0  0  0  0  0  0  0  0  0
   -2.7523   -0.0731   -1.6580 C   0  0  0  0  0  0  0  0  0  0  0  0
   -2.7430   -0.3243   -0.1396 C   0  0  0  0  0  0  0  0  0  0  0  0
   -2.0882   -1.6885    0.1931 C   0  0  0  0  0  0  0  0  0  0  0  0
   -0.9961   -2.1117   -0.8116 C   0  0  0  0  0  0  0  0  0  0  0  0
   -4.1070   -0.2731    0.3975 N   0  0  0  0  0  0  0  0  0  0  0  0
   -4.3711   -0.1557    1.8039 C   0  0  0  0  0  0  0  0  0  0  0  0
   -3.4132   -0.0803    2.6206 O   0  0  0  0  0  0  0  0  0  0  0  0
   -5.7632   -0.1920    2.2987 C   0  0  0  0  0  0  0  0  0  0  0  0
   -6.6429   -1.0120    1.6603 N   0  0  0  0  0  0  0  0  0  0  0  0
   -7.9146   -1.1857    2.0999 C   0  0  0  0  0  0  0  0  0  0  0  0
   -8.3360   -0.5220    3.2478 C   0  0  0  0  0  0  0  0  0  0  0  0
   -7.4791    0.3156    3.8843 N   0  0  0  0  0  0  0  0  0  0  0  0
   -6.2069    0.5199    3.4432 C   0  0  0  0  0  0  0  0  0  0  0  0
   -5.3887    1.5289    4.1460 C   0  0  0  0  0  0  0  0  0  0  0  0
   -4.4155    2.2589    3.4693 O   0  0  0  0  0  0  0  0  0  0  0  0
   -5.6184    1.7805    5.3593 O   0  0  0  0  0  0  0  0  0  0  0  0
    6.2016    4.0866    2.0492 H   0  0  0  0  0  0  0  0  0  0  0  0
    7.6042    4.7769    1.1469 H   0  0  0  0  0  0  0  0  0  0  0  0
    5.9168    5.1356    0.6021 H   0  0  0  0  0  0  0  0  0  0  0  0
    4.5996    2.5469    0.6716 H   0  0  0  0  0  0  0  0  0  0  0  0
    4.3430    0.7591   -0.7942 H   0  0  0  0  0  0  0  0  0  0  0  0
    5.7583    1.3377   -1.7432 H   0  0  0  0  0  0  0  0  0  0  0  0
    5.8019   -0.3358    0.8695 H   0  0  0  0  0  0  0  0  0  0  0  0
    7.2650    0.3310    0.0715 H   0  0  0  0  0  0  0  0  0  0  0  0
    4.7002   -2.6680   -3.1421 H   0  0  0  0  0  0  0  0  0  0  0  0
    3.0831   -3.1524   -2.5618 H   0  0  0  0  0  0  0  0  0  0  0  0
    4.0463   -0.2472   -2.9667 H   0  0  0  0  0  0  0  0  0  0  0  0
    2.9855   -1.1529   -4.0843 H   0  0  0  0  0  0  0  0  0  0  0  0
    2.1746    0.2134   -1.6326 H   0  0  0  0  0  0  0  0  0  0  0  0
    0.0962   -0.2715   -0.6200 H   0  0  0  0  0  0  0  0  0  0  0  0
   -0.9643    1.0206   -2.2537 H   0  0  0  0  0  0  0  0  0  0  0  0
   -1.3802   -0.3676   -3.3034 H   0  0  0  0  0  0  0  0  0  0  0  0
   -3.2653    0.8886   -1.8779 H   0  0  0  0  0  0  0  0  0  0  0  0
   -3.3295   -0.8837   -2.1564 H   0  0  0  0  0  0  0  0  0  0  0  0
   -2.1460    0.4911    0.3286 H   0  0  0  0  0  0  0  0  0  0  0  0
   -2.8636   -2.4857    0.2213 H   0  0  0  0  0  0  0  0  0  0  0  0
   -1.6412   -1.6291    1.2093 H   0  0  0  0  0  0  0  0  0  0  0  0
   -1.4587   -2.7345   -1.6097 H   0  0  0  0  0  0  0  0  0  0  0  0
   -0.2425   -2.7403   -0.2878 H   0  0  0  0  0  0  0  0  0  0  0  0
   -4.9181   -0.2791   -0.2627 H   0  0  0  0  0  0  0  0  0  0  0  0
   -8.5865   -1.8475    1.5700 H   0  0  0  0  0  0  0  0  0  0  0  0
   -9.3414   -0.6582    3.6232 H   0  0  0  0  0  0  0  0  0  0  0  0
   -3.8704    2.9669    3.9465 H   0  0  0  0  0  0  0  0  0  0  0  0
  1  2  1  0
  2  3  2  0
  2  4  1  0
  4  5  1  0
  5  6  1  0
  6  7  1  0
  7  8  1  0
  8  9  1  0
  9 10  1  0
 10 11  1  0
 11 12  1  0
 12 13  2  0
 12 14  1  0
 14 15  1  0
 15 16  1  0
 16 17  1  0
 17 18  1  0
 18 19  1  0
 17 20  1  0
 20 21  1  0
 21 22  2  0
 21 23  1  0
 23 24  2  0
 24 25  1  0
 25 26  2  0
 26 27  1  0
 27 28  2  0
 28 29  1  0
 29 30  1  0
 29 31  2  0
 19 14  1  0
 28 23  1  0
  1 32  1  0
  1 33  1  0
  1 34  1  0
  4 35  1  0
  5 36  1  0
  5 37  1  0
  6 38  1  0
  6 39  1  0
  9 40  1  0
  9 41  1  0
 10 42  1  0
 10 43  1  0
 11 44  1  0
 14 45  1  0
 15 46  1  0
 15 47  1  0
 16 48  1  0
 16 49  1  0
 17 50  1  0
 18 51  1  0
 18 52  1  0
 19 53  1  0
 19 54  1  0
 20 55  1  0
 25 56  1  0
 26 57  1  0
 30 58  1  0
M  END
$$$$
