
     RDKit          3D

 61 64  0  0  0  0  0  0  0  0999 V2000
   -3.2438   -2.4986   -0.6472 C   0  0  2  0  0  0  0  0  0  0  0  0
   -3.9924   -3.7874   -0.2294 C   0  0  0  0  0  0  0  0  0  0  0  0
   -4.5100   -4.5584   -1.3659 N   0  0  0  0  0  0  0  0  0  0  0  0
   -3.4554   -5.0854   -2.2435 C   0  0  0  0  0  0  0  0  0  0  0  0
   -2.9300   -4.0163   -3.2154 C   0  0  0  0  0  0  0  0  0  0  0  0
   -1.7600   -3.1829   -2.6662 C   0  0  0  0  0  0  0  0  0  0  0  0
   -1.8132   -2.8126   -1.1653 C   0  0  1  0  0  0  0  0  0  0  0  0
   -0.9748   -1.6744   -0.9466 O   0  0  0  0  0  0  0  0  0  0  0  0
    0.4233   -1.7245   -0.8915 C   0  0  0  0  0  0  0  0  0  0  0  0
    1.0284   -2.8154   -1.0821 O   0  0  0  0  0  0  0  0  0  0  0  0
    1.1840   -0.4935   -0.5860 C   0  0  0  0  0  0  0  0  0  0  0  0
    2.5823   -0.5239   -0.4546 C   0  0  0  0  0  0  0  0  0  0  0  0
    3.2910    0.6404   -0.1443 C   0  0  0  0  0  0  0  0  0  0  0  0
    2.6171    1.8623    0.0358 C   0  0  0  0  0  0  0  0  0  0  0  0
    1.2177    1.8883   -0.0896 C   0  0  0  0  0  0  0  0  0  0  0  0
    0.5105    0.7250   -0.4031 C   0  0  0  0  0  0  0  0  0  0  0  0
    3.3574    3.1034    0.3799 C   0  0  0  0  0  0  0  0  0  0  0  0
    2.7369    4.0723    0.8967 O   0  0  0  0  0  0  0  0  0  0  0  0
    4.8026    3.2543    0.0999 C   0  0  0  0  0  0  0  0  0  0  0  0
    5.2760    3.0032   -1.2003 C   0  0  0  0  0  0  0  0  0  0  0  0
    6.6255    3.1843   -1.5111 C   0  0  0  0  0  0  0  0  0  0  0  0
    7.5157    3.6244   -0.5311 C   0  0  0  0  0  0  0  0  0  0  0  0
    7.0601    3.8770    0.7645 C   0  0  0  0  0  0  0  0  0  0  0  0
    5.7120    3.6885    1.0939 C   0  0  0  0  0  0  0  0  0  0  0  0
    5.3169    3.9170    2.4136 O   0  0  0  0  0  0  0  0  0  0  0  0
   -3.1585   -1.6157    0.5241 N   0  0  0  0  0  0  0  0  0  0  0  0
   -3.2577   -0.1835    0.4220 C   0  0  0  0  0  0  0  0  0  0  0  0
   -3.5252    0.3471   -0.6911 O   0  0  0  0  0  0  0  0  0  0  0  0
   -3.0060    0.6872    1.5954 C   0  0  0  0  0  0  0  0  0  0  0  0
   -2.5571    2.0074    1.4061 C   0  0  0  0  0  0  0  0  0  0  0  0
   -2.2968    2.8331    2.5033 C   0  0  0  0  0  0  0  0  0  0  0  0
   -2.4938    2.3564    3.8050 C   0  0  0  0  0  0  0  0  0  0  0  0
   -2.2373    3.1699    4.9063 O   0  0  0  0  0  0  0  0  0  0  0  0
   -2.9554    1.0521    4.0023 C   0  0  0  0  0  0  0  0  0  0  0  0
   -3.2131    0.2215    2.9072 C   0  0  0  0  0  0  0  0  0  0  0  0
   -3.8317   -1.9901   -1.4427 H   0  0  0  0  0  0  0  0  0  0  0  0
   -4.8616   -3.5008    0.4027 H   0  0  0  0  0  0  0  0  0  0  0  0
   -3.3508   -4.4342    0.4087 H   0  0  0  0  0  0  0  0  0  0  0  0
   -5.1979   -3.9833   -1.9067 H   0  0  0  0  0  0  0  0  0  0  0  0
   -3.8997   -5.9079   -2.8442 H   0  0  0  0  0  0  0  0  0  0  0  0
   -2.6288   -5.5409   -1.6543 H   0  0  0  0  0  0  0  0  0  0  0  0
   -3.7534   -3.3400   -3.5318 H   0  0  0  0  0  0  0  0  0  0  0  0
   -2.5790   -4.5231   -4.1410 H   0  0  0  0  0  0  0  0  0  0  0  0
   -1.6997   -2.2495   -3.2682 H   0  0  0  0  0  0  0  0  0  0  0  0
   -0.8160   -3.7406   -2.8509 H   0  0  0  0  0  0  0  0  0  0  0  0
   -1.4028   -3.6607   -0.5719 H   0  0  0  0  0  0  0  0  0  0  0  0
    3.1296   -1.4497   -0.5818 H   0  0  0  0  0  0  0  0  0  0  0  0
    4.3655    0.5775   -0.0293 H   0  0  0  0  0  0  0  0  0  0  0  0
    0.6677    2.8115    0.0460 H   0  0  0  0  0  0  0  0  0  0  0  0
   -0.5649    0.7818   -0.5030 H   0  0  0  0  0  0  0  0  0  0  0  0
    4.5955    2.6802   -1.9789 H   0  0  0  0  0  0  0  0  0  0  0  0
    6.9798    2.9905   -2.5153 H   0  0  0  0  0  0  0  0  0  0  0  0
    8.5605    3.7678   -0.7747 H   0  0  0  0  0  0  0  0  0  0  0  0
    7.7597    4.2101    1.5208 H   0  0  0  0  0  0  0  0  0  0  0  0
    4.3833    3.7234    2.7517 H   0  0  0  0  0  0  0  0  0  0  0  0
   -2.7842   -2.0326    1.4060 H   0  0  0  0  0  0  0  0  0  0  0  0
   -2.3911    2.3967    0.4092 H   0  0  0  0  0  0  0  0  0  0  0  0
   -1.9411    3.8426    2.3403 H   0  0  0  0  0  0  0  0  0  0  0  0
   -1.9025    4.1200    4.7961 H   0  0  0  0  0  0  0  0  0  0  0  0
   -3.1191    0.6823    5.0066 H   0  0  0  0  0  0  0  0  0  0  0  0
   -3.5944   -0.7735    3.0931 H   0  0  0  0  0  0  0  0  0  0  0  0
  1  2  1  0
  2  3  1  0
  3  4  1  0
  4  5  1  0
  5  6  1  0
  6  7  1  0
  7  8  1  0
  8  9  1  0
  9 10  2  0
  9 11  1  0
 11 12  2  0
 12 13  1  0
 13 14  2  0
 14 15  1  0
 15 16  2  0
 14 17  1  0
 17 18  2  0
 17 19  1  0
 19 20  2  0
 20 21  1  0
 21 22  2  0
 22 23  1  0
 23 24  2  0
 24 25  1  0
  1 26  1  0
 26 27  1  0
 27 28  2  0
 27 29  1  0
 29 30  2  0
 30 31  1  0
 31 32  2  0
 32 33  1  0
 32 34  1  0
 34 35  2  0
  7  1  1  0
 16 11  1  0
 24 19  1  0
 35 29  1  0
  1 36  1  6
  2 37  1  0
  2 38  1  0
  3 39  1  0
  4 40  1  0
  4 41  1  0
  5 42  1  0
  5 43  1  0
  6 44  1  0
  6 45  1  0
  7 46  1  1
 12 47  1  0
 13 48  1  0
 15 49  1  0
 16 50  1  0
 20 51  1  0
 21 52  1  0
 22 53  1  0
 23 54  1  0
 25 55  1  0
 26 56  1  0
 30 57  1  0
 31 58  1  0
 33 59  1  0
 34 60  1  0
 35 61  1  0
M  END
$$$$
