
     RDKit          3D

 50 50  0  0  0  0  0  0  0  0999 V2000
    5.7493   -1.1938   -2.8541 C   0  0  0  0  0  0  0  0  0  0  0  0
    5.7364    0.1095   -2.0637 C   0  0  0  0  0  0  0  0  0  0  0  0
    4.6531    0.1245   -1.1362 O   0  0  0  0  0  0  0  0  0  0  0  0
    3.3202    0.3425   -1.5073 C   0  0  0  0  0  0  0  0  0  0  0  0
    3.0321    0.5974   -2.7100 O   0  0  0  0  0  0  0  0  0  0  0  0
    2.2572    0.2783   -0.4764 C   0  0  0  0  0  0  0  0  0  0  0  0
    0.9605    0.3672   -0.8310 C   0  0  0  0  0  0  0  0  0  0  0  0
   -0.1754    0.3737    0.1639 C   0  0  1  0  0  0  0  0  0  0  0  0
   -1.2703   -0.3504   -0.3741 O   0  0  0  0  0  0  0  0  0  0  0  0
   -2.1919    0.4897   -1.0524 C   0  0  0  0  0  0  0  0  0  0  0  0
   -3.2718    0.9776   -0.0577 C   0  0  0  0  0  0  0  0  0  0  0  0
   -4.2822    1.9357   -0.6879 C   0  0  0  0  0  0  0  0  0  0  0  0
   -2.7694   -0.2926   -2.2513 C   0  0  0  0  0  0  0  0  0  0  0  0
   -3.5406   -1.5533   -1.8533 C   0  0  0  0  0  0  0  0  0  0  0  0
    0.2226   -0.2728    1.5028 C   0  0  2  0  0  0  0  0  0  0  0  0
   -0.8302   -0.0174    2.4924 N   0  0  0  0  0  0  0  0  0  0  0  0
   -1.9070   -0.9344    2.7319 C   0  0  0  0  0  0  0  0  0  0  0  0
   -3.0283   -0.5435    3.6378 C   0  0  0  0  0  0  0  0  0  0  0  0
   -1.9322   -2.0576    2.1597 O   0  0  0  0  0  0  0  0  0  0  0  0
    1.5699    0.3026    1.9840 C   0  0  1  0  0  0  0  0  0  0  0  0
    1.9385   -0.2694    3.2824 N   0  0  0  0  0  0  0  0  0  0  0  0
    2.6635   -0.0225    0.9503 C   0  0  0  0  0  0  0  0  0  0  0  0
    5.8106   -2.0576   -2.1588 H   0  0  0  0  0  0  0  0  0  0  0  0
    6.6304   -1.2120   -3.5295 H   0  0  0  0  0  0  0  0  0  0  0  0
    4.8286   -1.2846   -3.4672 H   0  0  0  0  0  0  0  0  0  0  0  0
    5.6694    0.9792   -2.7529 H   0  0  0  0  0  0  0  0  0  0  0  0
    6.6876    0.1919   -1.4970 H   0  0  0  0  0  0  0  0  0  0  0  0
    0.6994    0.5498   -1.8666 H   0  0  0  0  0  0  0  0  0  0  0  0
   -0.4249    1.4412    0.3769 H   0  0  0  0  0  0  0  0  0  0  0  0
   -1.6894    1.3846   -1.4935 H   0  0  0  0  0  0  0  0  0  0  0  0
   -2.7731    1.5159    0.7762 H   0  0  0  0  0  0  0  0  0  0  0  0
   -3.8064    0.1156    0.3940 H   0  0  0  0  0  0  0  0  0  0  0  0
   -4.9365    1.4000   -1.4063 H   0  0  0  0  0  0  0  0  0  0  0  0
   -3.7591    2.7664   -1.2076 H   0  0  0  0  0  0  0  0  0  0  0  0
   -4.9269    2.3665    0.1069 H   0  0  0  0  0  0  0  0  0  0  0  0
   -1.9237   -0.5960   -2.9065 H   0  0  0  0  0  0  0  0  0  0  0  0
   -3.4251    0.3628   -2.8625 H   0  0  0  0  0  0  0  0  0  0  0  0
   -2.9271   -2.1988   -1.1901 H   0  0  0  0  0  0  0  0  0  0  0  0
   -4.4886   -1.2887   -1.3411 H   0  0  0  0  0  0  0  0  0  0  0  0
   -3.7959   -2.1312   -2.7664 H   0  0  0  0  0  0  0  0  0  0  0  0
    0.3476   -1.3705    1.3580 H   0  0  0  0  0  0  0  0  0  0  0  0
   -0.8926    0.9358    2.9181 H   0  0  0  0  0  0  0  0  0  0  0  0
   -3.6779   -1.4178    3.8551 H   0  0  0  0  0  0  0  0  0  0  0  0
   -2.6188   -0.1551    4.5936 H   0  0  0  0  0  0  0  0  0  0  0  0
   -3.6363    0.2479    3.1522 H   0  0  0  0  0  0  0  0  0  0  0  0
    1.4865    1.4104    2.0813 H   0  0  0  0  0  0  0  0  0  0  0  0
    1.2693    0.0810    4.0054 H   0  0  0  0  0  0  0  0  0  0  0  0
    2.8722    0.1130    3.5591 H   0  0  0  0  0  0  0  0  0  0  0  0
    3.5742    0.5616    1.2064 H   0  0  0  0  0  0  0  0  0  0  0  0
    2.9225   -1.1023    1.0132 H   0  0  0  0  0  0  0  0  0  0  0  0
  1  2  1  0
  2  3  1  0
  3  4  1  0
  4  5  2  0
  4  6  1  0
  6  7  2  0
  7  8  1  0
  8  9  1  0
  9 10  1  0
 10 11  1  0
 11 12  1  0
 10 13  1  0
 13 14  1  0
  8 15  1  0
 15 16  1  0
 16 17  1  0
 17 18  1  0
 17 19  2  0
 15 20  1  0
 20 21  1  0
 20 22  1  0
 22  6  1  0
  1 23  1  0
  1 24  1  0
  1 25  1  0
  2 26  1  0
  2 27  1  0
  7 28  1  0
  8 29  1  1
 10 30  1  0
 11 31  1  0
 11 32  1  0
 12 33  1  0
 12 34  1  0
 12 35  1  0
 13 36  1  0
 13 37  1  0
 14 38  1  0
 14 39  1  0
 14 40  1  0
 15 41  1  6
 16 42  1  0
 18 43  1  0
 18 44  1  0
 18 45  1  0
 20 46  1  1
 21 47  1  0
 21 48  1  0
 22 49  1  0
 22 50  1  0
M  END
$$$$
