
     RDKit          3D

 46 47  0  0  0  0  0  0  0  0999 V2000
   -3.9886   -2.6213    0.1936 C   0  0  0  0  0  0  0  0  0  0  0  0
   -4.0709   -1.3073   -0.5788 C   0  0  0  0  0  0  0  0  0  0  0  0
   -3.0549   -0.3531   -0.0888 N   0  0  0  0  0  0  0  0  0  0  0  0
   -3.4243    0.2583    1.2025 C   0  0  0  0  0  0  0  0  0  0  0  0
   -3.3651    1.7718    1.0511 C   0  0  0  0  0  0  0  0  0  0  0  0
   -2.5757    2.0048   -0.2129 C   0  0  0  0  0  0  0  0  0  0  0  0
   -2.8362    0.7515   -1.0391 C   0  0  0  0  0  0  0  0  0  0  0  0
   -1.6755    0.4358   -2.0002 C   0  0  0  0  0  0  0  0  0  0  0  0
   -0.4527    0.0979   -1.2683 N   0  0  0  0  0  0  0  0  0  0  0  0
    0.8403    0.5914   -1.6495 C   0  0  0  0  0  0  0  0  0  0  0  0
    0.9867    1.1892   -2.7507 O   0  0  0  0  0  0  0  0  0  0  0  0
    2.0190    0.3713   -0.7804 C   0  0  0  0  0  0  0  0  0  0  0  0
    1.9174    0.4383    0.6274 C   0  0  0  0  0  0  0  0  0  0  0  0
    0.6845    0.7728    1.2126 O   0  0  0  0  0  0  0  0  0  0  0  0
    0.4557    0.8875    2.6130 C   0  0  0  0  0  0  0  0  0  0  0  0
    3.0617    0.1930    1.4119 C   0  0  0  0  0  0  0  0  0  0  0  0
    4.2890   -0.0865    0.8092 C   0  0  0  0  0  0  0  0  0  0  0  0
    4.3995   -0.1177   -0.5838 C   0  0  0  0  0  0  0  0  0  0  0  0
    3.2661    0.1076   -1.3732 C   0  0  0  0  0  0  0  0  0  0  0  0
    5.9486   -0.4770   -1.3397 S   0  0  0  0  0  6  0  0  0  0  0  0
    6.0973   -2.1849   -1.5602 N   0  0  0  0  0  0  0  0  0  0  0  0
    7.0681    0.0196   -0.4678 O   0  0  0  0  0  0  0  0  0  0  0  0
    6.0354    0.2104   -2.6735 O   0  0  0  0  0  0  0  0  0  0  0  0
   -4.2354   -2.4640    1.2642 H   0  0  0  0  0  0  0  0  0  0  0  0
   -2.9647   -3.0445    0.1141 H   0  0  0  0  0  0  0  0  0  0  0  0
   -4.7110   -3.3494   -0.2316 H   0  0  0  0  0  0  0  0  0  0  0  0
   -5.0968   -0.8811   -0.5015 H   0  0  0  0  0  0  0  0  0  0  0  0
   -3.8867   -1.5436   -1.6502 H   0  0  0  0  0  0  0  0  0  0  0  0
   -2.6866   -0.0670    1.9666 H   0  0  0  0  0  0  0  0  0  0  0  0
   -4.4361   -0.0409    1.5589 H   0  0  0  0  0  0  0  0  0  0  0  0
   -4.3938    2.1773    0.9278 H   0  0  0  0  0  0  0  0  0  0  0  0
   -2.8816    2.2543    1.9282 H   0  0  0  0  0  0  0  0  0  0  0  0
   -2.9144    2.9224   -0.7416 H   0  0  0  0  0  0  0  0  0  0  0  0
   -1.4987    2.1068    0.0448 H   0  0  0  0  0  0  0  0  0  0  0  0
   -3.7540    0.9398   -1.6464 H   0  0  0  0  0  0  0  0  0  0  0  0
   -1.9524   -0.4215   -2.6494 H   0  0  0  0  0  0  0  0  0  0  0  0
   -1.5119    1.3165   -2.6587 H   0  0  0  0  0  0  0  0  0  0  0  0
   -0.5021   -0.6501   -0.5403 H   0  0  0  0  0  0  0  0  0  0  0  0
   -0.6008    1.1762    2.7849 H   0  0  0  0  0  0  0  0  0  0  0  0
    0.6441   -0.0867    3.1113 H   0  0  0  0  0  0  0  0  0  0  0  0
    1.1110    1.6733    3.0443 H   0  0  0  0  0  0  0  0  0  0  0  0
    3.0156    0.2246    2.4917 H   0  0  0  0  0  0  0  0  0  0  0  0
    5.1548   -0.2744    1.4314 H   0  0  0  0  0  0  0  0  0  0  0  0
    3.3513    0.0578   -2.4521 H   0  0  0  0  0  0  0  0  0  0  0  0
    6.0743   -2.6182   -0.6100 H   0  0  0  0  0  0  0  0  0  0  0  0
    7.0507   -2.3611   -1.9491 H   0  0  0  0  0  0  0  0  0  0  0  0
  1  2  1  0
  2  3  1  0
  3  4  1  0
  4  5  1  0
  5  6  1  0
  6  7  1  0
  7  8  1  0
  8  9  1  0
  9 10  1  0
 10 11  2  0
 10 12  1  0
 12 13  2  0
 13 14  1  0
 14 15  1  0
 13 16  1  0
 16 17  2  0
 17 18  1  0
 18 19  2  0
 18 20  1  0
 20 21  1  0
 20 22  2  0
 20 23  2  0
  7  3  1  0
 19 12  1  0
  1 24  1  0
  1 25  1  0
  1 26  1  0
  2 27  1  0
  2 28  1  0
  4 29  1  0
  4 30  1  0
  5 31  1  0
  5 32  1  0
  6 33  1  0
  6 34  1  0
  7 35  1  0
  8 36  1  0
  8 37  1  0
  9 38  1  0
 15 39  1  0
 15 40  1  0
 15 41  1  0
 16 42  1  0
 17 43  1  0
 19 44  1  0
 21 45  1  0
 21 46  1  0
M  END
$$$$
