
     RDKit          3D

 33 34  0  0  0  0  0  0  0  0999 V2000
    6.4802    0.6175   -0.3312 N   0  0  0  0  0  0  0  0  0  0  0  0
    5.3049    1.3616    0.0002 C   0  0  0  0  0  0  0  0  0  0  0  0
    5.4349    2.5801    0.4254 N   0  0  0  0  0  0  0  0  0  0  0  0
    3.9623    0.7461   -0.1523 C   0  0  0  0  0  0  0  0  0  0  0  0
    3.7040   -0.1359   -1.2150 C   0  0  0  0  0  0  0  0  0  0  0  0
    2.4430   -0.7209   -1.3608 C   0  0  0  0  0  0  0  0  0  0  0  0
    1.4125   -0.4277   -0.4570 C   0  0  0  0  0  0  0  0  0  0  0  0
    0.1317   -1.0617   -0.6179 N   0  0  0  0  0  0  0  0  0  0  0  0
   -1.1192   -0.4533   -0.2617 C   0  0  0  0  0  0  0  0  0  0  0  0
   -1.1775    0.7834   -0.0208 O   0  0  0  0  0  0  0  0  0  0  0  0
   -2.3163   -1.2461   -0.2636 N   0  0  0  0  0  0  0  0  0  0  0  0
   -3.5780   -0.8042    0.2664 C   0  0  0  0  0  0  0  0  0  0  0  0
   -4.7686   -1.2650   -0.3172 C   0  0  0  0  0  0  0  0  0  0  0  0
   -6.0082   -0.8676    0.1933 C   0  0  0  0  0  0  0  0  0  0  0  0
   -6.0700   -0.0177    1.3018 C   0  0  0  0  0  0  0  0  0  0  0  0
   -7.6256    0.4777    1.9433 Cl  0  0  0  0  0  0  0  0  0  0  0  0
   -4.8897    0.4280    1.9047 C   0  0  0  0  0  0  0  0  0  0  0  0
   -3.6486    0.0329    1.3957 C   0  0  0  0  0  0  0  0  0  0  0  0
    1.6752    0.4336    0.6221 C   0  0  0  0  0  0  0  0  0  0  0  0
    2.9359    1.0196    0.7690 C   0  0  0  0  0  0  0  0  0  0  0  0
    6.4267   -0.3924   -0.5900 H   0  0  0  0  0  0  0  0  0  0  0  0
    7.4223    1.0633   -0.2648 H   0  0  0  0  0  0  0  0  0  0  0  0
    4.6200    3.1872    0.6657 H   0  0  0  0  0  0  0  0  0  0  0  0
    4.4709   -0.3607   -1.9453 H   0  0  0  0  0  0  0  0  0  0  0  0
    2.2637   -1.3951   -2.1890 H   0  0  0  0  0  0  0  0  0  0  0  0
    0.1008   -1.9926   -1.0921 H   0  0  0  0  0  0  0  0  0  0  0  0
   -2.2844   -2.1718   -0.7476 H   0  0  0  0  0  0  0  0  0  0  0  0
   -4.7345   -1.9251   -1.1748 H   0  0  0  0  0  0  0  0  0  0  0  0
   -6.9190   -1.2225   -0.2721 H   0  0  0  0  0  0  0  0  0  0  0  0
   -4.9326    1.0731    2.7731 H   0  0  0  0  0  0  0  0  0  0  0  0
   -2.7499    0.3606    1.9008 H   0  0  0  0  0  0  0  0  0  0  0  0
    0.9186    0.6319    1.3694 H   0  0  0  0  0  0  0  0  0  0  0  0
    3.1146    1.6638    1.6206 H   0  0  0  0  0  0  0  0  0  0  0  0
  1  2  1  0
  2  3  2  3
  2  4  1  0
  4  5  2  0
  5  6  1  0
  6  7  2  0
  7  8  1  0
  8  9  1  0
  9 10  2  0
  9 11  1  0
 11 12  1  0
 12 13  2  0
 13 14  1  0
 14 15  2  0
 15 16  1  0
 15 17  1  0
 17 18  2  0
  7 19  1  0
 19 20  2  0
 20  4  1  0
 18 12  1  0
  1 21  1  0
  1 22  1  0
  3 23  1  0
  5 24  1  0
  6 25  1  0
  8 26  1  0
 11 27  1  0
 13 28  1  0
 14 29  1  0
 17 30  1  0
 18 31  1  0
 19 32  1  0
 20 33  1  0
M  END
$$$$
