
     RDKit          3D

 58 62  0  0  0  0  0  0  0  0999 V2000
    1.1886   -0.7949    0.9504 C   0  0  2  0  0  0  0  0  0  0  0  0
    0.8538   -2.2934    1.1447 C   0  0  0  0  0  0  0  0  0  0  0  0
    1.0799   -3.1198   -0.1295 C   0  0  0  0  0  0  0  0  0  0  0  0
    0.3259   -2.5225   -1.3198 C   0  0  0  0  0  0  0  0  0  0  0  0
    0.7334   -1.0630   -1.5457 C   0  0  0  0  0  0  0  0  0  0  0  0
    0.4724   -0.2011   -0.2939 C   0  0  1  0  0  0  0  0  0  0  0  0
   -0.9710   -0.0611   -0.0544 N   0  0  0  0  0  0  0  0  0  0  0  0
   -1.8088    0.7641   -0.8794 C   0  0  0  0  0  0  0  0  0  0  0  0
   -1.3039    1.4551   -1.8054 O   0  0  0  0  0  0  0  0  0  0  0  0
   -3.2600    0.8166   -0.6505 C   0  0  0  0  0  0  0  0  0  0  0  0
   -3.8931    0.1029    0.3104 N   0  0  0  0  0  0  0  0  0  0  0  0
   -5.2307    0.3412    0.3082 C   0  0  0  0  0  0  0  0  0  0  0  0
   -5.6684    1.2119   -0.6728 C   0  0  0  0  0  0  0  0  0  0  0  0
   -7.0886    1.6707   -0.8002 C   0  0  0  0  0  0  0  0  0  0  0  0
   -8.0232    0.7427   -0.1217 N   0  0  0  0  0  0  0  0  0  0  0  0
   -8.3195   -0.4378   -0.9515 C   0  0  0  0  0  0  0  0  0  0  0  0
   -7.5570    0.3706    1.2370 C   0  0  0  0  0  0  0  0  0  0  0  0
   -6.1865   -0.3432    1.2337 C   0  0  0  0  0  0  0  0  0  0  0  0
   -4.3413    1.7600   -1.5435 S   0  0  0  0  0  0  0  0  0  0  0  0
    2.6416   -0.5949    0.8506 N   0  0  0  0  0  0  0  0  0  0  0  0
    3.2479    0.6970    1.0173 C   0  0  0  0  0  0  0  0  0  0  0  0
    2.5558    1.6671    1.4306 O   0  0  0  0  0  0  0  0  0  0  0  0
    4.6782    0.9100    0.7210 C   0  0  0  0  0  0  0  0  0  0  0  0
    5.3818    2.0786    1.0126 C   0  0  0  0  0  0  0  0  0  0  0  0
    6.6596    1.8509    0.5524 C   0  0  0  0  0  0  0  0  0  0  0  0
    6.6841    0.5931    0.0105 C   0  0  0  0  0  0  0  0  0  0  0  0
    5.4798    0.0057    0.1046 N   0  0  0  0  0  0  0  0  0  0  0  0
    7.8426    0.0623   -0.5549 C   0  0  0  0  0  0  0  0  0  0  0  0
    9.0013    0.8607   -0.5514 C   0  0  0  0  0  0  0  0  0  0  0  0
    8.9756    2.1586    0.0094 C   0  0  0  0  0  0  0  0  0  0  0  0
   10.4282    3.1411    0.0045 Cl  0  0  0  0  0  0  0  0  0  0  0  0
    7.7885    2.6672    0.5707 C   0  0  0  0  0  0  0  0  0  0  0  0
    0.8287   -0.2608    1.8582 H   0  0  0  0  0  0  0  0  0  0  0  0
   -0.2059   -2.4029    1.4604 H   0  0  0  0  0  0  0  0  0  0  0  0
    1.4774   -2.7098    1.9654 H   0  0  0  0  0  0  0  0  0  0  0  0
    0.7233   -4.1581    0.0429 H   0  0  0  0  0  0  0  0  0  0  0  0
    2.1644   -3.1744   -0.3650 H   0  0  0  0  0  0  0  0  0  0  0  0
    0.5588   -3.1123   -2.2323 H   0  0  0  0  0  0  0  0  0  0  0  0
   -0.7702   -2.5873   -1.1428 H   0  0  0  0  0  0  0  0  0  0  0  0
    1.8141   -1.0190   -1.8056 H   0  0  0  0  0  0  0  0  0  0  0  0
    0.1721   -0.6587   -2.4145 H   0  0  0  0  0  0  0  0  0  0  0  0
    0.8878    0.8131   -0.4812 H   0  0  0  0  0  0  0  0  0  0  0  0
   -1.4024   -0.5275    0.7746 H   0  0  0  0  0  0  0  0  0  0  0  0
   -7.3520    1.7841   -1.8747 H   0  0  0  0  0  0  0  0  0  0  0  0
   -7.1760    2.6747   -0.3332 H   0  0  0  0  0  0  0  0  0  0  0  0
   -8.8494   -0.1226   -1.8755 H   0  0  0  0  0  0  0  0  0  0  0  0
   -8.9920   -1.1353   -0.4076 H   0  0  0  0  0  0  0  0  0  0  0  0
   -7.3920   -0.9774   -1.2410 H   0  0  0  0  0  0  0  0  0  0  0  0
   -7.4799    1.2923    1.8551 H   0  0  0  0  0  0  0  0  0  0  0  0
   -8.3103   -0.2786    1.7344 H   0  0  0  0  0  0  0  0  0  0  0  0
   -5.7694   -0.3467    2.2634 H   0  0  0  0  0  0  0  0  0  0  0  0
   -6.3114   -1.3977    0.9083 H   0  0  0  0  0  0  0  0  0  0  0  0
    3.2631   -1.4250    0.7349 H   0  0  0  0  0  0  0  0  0  0  0  0
    5.0081    2.9734    1.4937 H   0  0  0  0  0  0  0  0  0  0  0  0
    5.2264   -0.9428   -0.2500 H   0  0  0  0  0  0  0  0  0  0  0  0
    7.8521   -0.9317   -0.9830 H   0  0  0  0  0  0  0  0  0  0  0  0
    9.9160    0.4749   -0.9826 H   0  0  0  0  0  0  0  0  0  0  0  0
    7.7517    3.6597    1.0018 H   0  0  0  0  0  0  0  0  0  0  0  0
  1  2  1  0
  2  3  1  0
  3  4  1  0
  4  5  1  0
  5  6  1  0
  6  7  1  0
  7  8  1  0
  8  9  2  0
  8 10  1  0
 10 11  2  0
 11 12  1  0
 12 13  2  0
 13 14  1  0
 14 15  1  0
 15 16  1  0
 15 17  1  0
 17 18  1  0
 13 19  1  0
  1 20  1  0
 20 21  1  0
 21 22  2  0
 21 23  1  0
 23 24  2  0
 24 25  1  0
 25 26  2  0
 26 27  1  0
 26 28  1  0
 28 29  2  0
 29 30  1  0
 30 31  1  0
 30 32  2  0
  6  1  1  0
 19 10  1  0
 27 23  1  0
 18 12  1  0
 32 25  1  0
  1 33  1  1
  2 34  1  0
  2 35  1  0
  3 36  1  0
  3 37  1  0
  4 38  1  0
  4 39  1  0
  5 40  1  0
  5 41  1  0
  6 42  1  6
  7 43  1  0
 14 44  1  0
 14 45  1  0
 16 46  1  0
 16 47  1  0
 16 48  1  0
 17 49  1  0
 17 50  1  0
 18 51  1  0
 18 52  1  0
 20 53  1  0
 24 54  1  0
 27 55  1  0
 28 56  1  0
 29 57  1  0
 32 58  1  0
M  END
$$$$
