
     RDKit          3D

 38 40  0  0  0  0  0  0  0  0999 V2000
   -2.8428    0.6982   -0.1276 C   0  0  1  0  0  0  0  0  0  0  0  0
   -2.4990    1.2050    1.2899 C   0  0  0  0  0  0  0  0  0  0  0  0
   -1.8796    2.4617    1.2268 O   0  0  0  0  0  0  0  0  0  0  0  0
   -1.7060    0.6848   -0.9847 O   0  0  0  0  0  0  0  0  0  0  0  0
   -0.7462   -0.3437   -0.7297 C   0  0  2  0  0  0  0  0  0  0  0  0
    0.4402    0.2095    0.1000 C   0  0  0  0  0  0  0  0  0  0  0  0
    1.5849    0.0891   -0.8537 C   0  0  0  0  0  0  0  0  0  0  0  0
    1.2180   -0.3906   -1.9897 N   0  0  0  0  0  0  0  0  0  0  0  0
   -0.1253   -0.6538   -1.9711 O   0  0  0  0  0  0  0  0  0  0  0  0
    2.9860    0.4770   -0.5615 C   0  0  0  0  0  0  0  0  0  0  0  0
    3.3358    1.0153    0.6915 C   0  0  0  0  0  0  0  0  0  0  0  0
    4.6586    1.3792    0.9618 C   0  0  0  0  0  0  0  0  0  0  0  0
    5.6454    1.2109   -0.0118 C   0  0  0  0  0  0  0  0  0  0  0  0
    5.3116    0.6781   -1.2586 C   0  0  0  0  0  0  0  0  0  0  0  0
    3.9905    0.3124   -1.5348 C   0  0  0  0  0  0  0  0  0  0  0  0
   -1.3365   -1.6516   -0.1169 C   0  0  2  0  0  0  0  0  0  0  0  0
   -0.5361   -2.7722   -0.4148 O   0  0  0  0  0  0  0  0  0  0  0  0
   -2.7782   -1.8363   -0.6067 C   0  0  1  0  0  0  0  0  0  0  0  0
   -3.3194   -3.0581   -0.1662 O   0  0  0  0  0  0  0  0  0  0  0  0
   -3.6360   -0.6481   -0.1267 C   0  0  2  0  0  0  0  0  0  0  0  0
   -4.8006   -0.5484   -0.9096 O   0  0  0  0  0  0  0  0  0  0  0  0
   -3.5273    1.4710   -0.5423 H   0  0  0  0  0  0  0  0  0  0  0  0
   -1.8201    0.5026    1.8108 H   0  0  0  0  0  0  0  0  0  0  0  0
   -3.4271    1.2741    1.9027 H   0  0  0  0  0  0  0  0  0  0  0  0
   -2.5942    3.1232    1.0335 H   0  0  0  0  0  0  0  0  0  0  0  0
    0.6447   -0.3882    1.0143 H   0  0  0  0  0  0  0  0  0  0  0  0
    0.2951    1.2771    0.3659 H   0  0  0  0  0  0  0  0  0  0  0  0
    2.5913    1.1573    1.4639 H   0  0  0  0  0  0  0  0  0  0  0  0
    4.9186    1.7925    1.9278 H   0  0  0  0  0  0  0  0  0  0  0  0
    6.6686    1.4933    0.1999 H   0  0  0  0  0  0  0  0  0  0  0  0
    6.0772    0.5480   -2.0125 H   0  0  0  0  0  0  0  0  0  0  0  0
    3.7565   -0.0989   -2.5087 H   0  0  0  0  0  0  0  0  0  0  0  0
   -1.3661   -1.5648    0.9904 H   0  0  0  0  0  0  0  0  0  0  0  0
   -0.6723   -3.0060   -1.3700 H   0  0  0  0  0  0  0  0  0  0  0  0
   -2.7665   -1.8530   -1.7195 H   0  0  0  0  0  0  0  0  0  0  0  0
   -3.2534   -3.0809    0.8245 H   0  0  0  0  0  0  0  0  0  0  0  0
   -3.9682   -0.8587    0.9139 H   0  0  0  0  0  0  0  0  0  0  0  0
   -4.5222   -0.3067   -1.8320 H   0  0  0  0  0  0  0  0  0  0  0  0
  1  2  1  0
  2  3  1  0
  1  4  1  0
  5  4  1  6
  5  6  1  0
  6  7  1  0
  7  8  2  0
  8  9  1  0
  7 10  1  0
 10 11  2  0
 11 12  1  0
 12 13  2  0
 13 14  1  0
 14 15  2  0
  5 16  1  0
 16 17  1  0
 16 18  1  0
 18 19  1  0
 18 20  1  0
 20 21  1  0
 20  1  1  0
  9  5  1  0
 15 10  1  0
  1 22  1  6
  2 23  1  0
  2 24  1  0
  3 25  1  0
  6 26  1  0
  6 27  1  0
 11 28  1  0
 12 29  1  0
 13 30  1  0
 14 31  1  0
 15 32  1  0
 16 33  1  1
 17 34  1  0
 18 35  1  6
 19 36  1  0
 20 37  1  1
 21 38  1  0
M  END
$$$$
