
     RDKit          3D

 48 51  0  0  0  0  0  0  0  0999 V2000
   -4.0675    0.2207    1.1873 C   0  0  1  0  0  0  0  0  0  0  0  0
   -5.0884   -0.7260    1.8215 C   0  0  0  0  0  0  0  0  0  0  0  0
   -2.6998   -0.4652    1.0203 C   0  0  0  0  0  0  0  0  0  0  0  0
   -1.8614    0.2897    0.0838 N   0  0  0  0  0  0  0  0  0  0  0  0
   -2.2172    1.6648   -0.2812 C   0  0  0  0  0  0  0  0  0  0  0  0
   -3.7200    1.7786   -0.6650 C   0  0  1  0  0  0  0  0  0  0  0  0
   -3.8927    1.8699   -2.1873 C   0  0  0  0  0  0  0  0  0  0  0  0
   -4.5516    0.6794   -0.1229 N   0  0  0  0  0  0  0  0  0  0  0  0
   -0.5901   -0.2497   -0.3057 C   0  0  0  0  0  0  0  0  0  0  0  0
   -0.5374   -1.2931   -1.2287 C   0  0  0  0  0  0  0  0  0  0  0  0
   -1.6844   -1.7927   -1.7554 F   0  0  0  0  0  0  0  0  0  0  0  0
    0.6887   -1.7972   -1.6535 C   0  0  0  0  0  0  0  0  0  0  0  0
    0.6816   -2.7877   -2.5830 F   0  0  0  0  0  0  0  0  0  0  0  0
    1.8984   -1.2773   -1.1364 C   0  0  0  0  0  0  0  0  0  0  0  0
    3.1484   -1.7404   -1.5993 C   0  0  0  0  0  0  0  0  0  0  0  0
    3.2041   -2.6516   -2.4704 O   0  0  0  0  0  0  0  0  0  0  0  0
    4.3361   -1.1782   -1.1028 C   0  0  0  0  0  0  0  0  0  0  0  0
    4.2459   -0.2020   -0.1036 C   0  0  0  0  0  0  0  0  0  0  0  0
    3.0434    0.1922    0.4147 N   0  0  0  0  0  0  0  0  0  0  0  0
    3.0788    1.1509    1.5366 C   0  0  0  0  0  0  0  0  0  0  0  0
    2.5147    0.6015    2.8447 C   0  0  0  0  0  0  0  0  0  0  0  0
    4.0106    0.7698    2.6887 C   0  0  0  0  0  0  0  0  0  0  0  0
    1.8602   -0.2558   -0.1439 C   0  0  0  0  0  0  0  0  0  0  0  0
    0.5940    0.2785    0.2257 C   0  0  0  0  0  0  0  0  0  0  0  0
    0.4808    1.3377    1.0658 F   0  0  0  0  0  0  0  0  0  0  0  0
    5.6766   -1.5976   -1.5996 C   0  0  0  0  0  0  0  0  0  0  0  0
    5.8001   -2.5262   -2.6300 O   0  0  0  0  0  0  0  0  0  0  0  0
    6.7233   -1.1108   -1.0917 O   0  0  0  0  0  0  0  0  0  0  0  0
   -3.9562    1.0957    1.8682 H   0  0  0  0  0  0  0  0  0  0  0  0
   -5.2545   -1.6150    1.1759 H   0  0  0  0  0  0  0  0  0  0  0  0
   -4.7287   -1.0639    2.8168 H   0  0  0  0  0  0  0  0  0  0  0  0
   -6.0565   -0.1986    1.9570 H   0  0  0  0  0  0  0  0  0  0  0  0
   -2.1886   -0.5370    2.0048 H   0  0  0  0  0  0  0  0  0  0  0  0
   -2.8451   -1.4947    0.6255 H   0  0  0  0  0  0  0  0  0  0  0  0
   -1.5639    2.0301   -1.1053 H   0  0  0  0  0  0  0  0  0  0  0  0
   -2.0195    2.3196    0.5954 H   0  0  0  0  0  0  0  0  0  0  0  0
   -4.1054    2.7333   -0.2431 H   0  0  0  0  0  0  0  0  0  0  0  0
   -3.4641    0.9714   -2.6813 H   0  0  0  0  0  0  0  0  0  0  0  0
   -3.3805    2.7748   -2.5787 H   0  0  0  0  0  0  0  0  0  0  0  0
   -4.9713    1.9423   -2.4432 H   0  0  0  0  0  0  0  0  0  0  0  0
   -4.5395   -0.1360   -0.7827 H   0  0  0  0  0  0  0  0  0  0  0  0
    5.1600    0.2343    0.2835 H   0  0  0  0  0  0  0  0  0  0  0  0
    2.9552    2.2343    1.3244 H   0  0  0  0  0  0  0  0  0  0  0  0
    2.1720   -0.4551    2.8124 H   0  0  0  0  0  0  0  0  0  0  0  0
    2.0369    1.3659    3.4930 H   0  0  0  0  0  0  0  0  0  0  0  0
    4.4199    1.6294    3.2600 H   0  0  0  0  0  0  0  0  0  0  0  0
    4.5430   -0.2024    2.6163 H   0  0  0  0  0  0  0  0  0  0  0  0
    6.7116   -2.8106   -2.9687 H   0  0  0  0  0  0  0  0  0  0  0  0
  1  2  1  0
  1  3  1  0
  3  4  1  0
  4  5  1  0
  5  6  1  0
  6  7  1  0
  6  8  1  0
  4  9  1  0
  9 10  2  0
 10 11  1  0
 10 12  1  0
 12 13  1  0
 12 14  2  0
 14 15  1  0
 15 16  2  0
 15 17  1  0
 17 18  2  0
 18 19  1  0
 19 20  1  0
 20 21  1  0
 21 22  1  0
 19 23  1  0
 23 24  2  0
 24 25  1  0
 17 26  1  0
 26 27  1  0
 26 28  2  0
  8  1  1  0
 24  9  1  0
 23 14  1  0
 22 20  1  0
  1 29  1  1
  2 30  1  0
  2 31  1  0
  2 32  1  0
  3 33  1  0
  3 34  1  0
  5 35  1  0
  5 36  1  0
  6 37  1  1
  7 38  1  0
  7 39  1  0
  7 40  1  0
  8 41  1  0
 18 42  1  0
 20 43  1  0
 21 44  1  0
 21 45  1  0
 22 46  1  0
 22 47  1  0
 27 48  1  0
M  END
$$$$
