
     RDKit          3D

 32 33  0  0  0  0  0  0  0  0999 V2000
   -1.2933    1.8042   -0.8148 N   0  0  0  0  0  0  0  0  0  0  0  0
   -1.2267    0.3672   -0.8652 C   0  0  0  0  0  0  0  0  0  0  0  0
   -2.4136   -0.4163   -0.8597 C   0  0  0  0  0  0  0  0  0  0  0  0
   -3.7931    0.2023   -0.8317 C   0  0  0  0  0  0  0  0  0  0  0  0
   -4.1294    0.6830    0.5453 C   0  0  0  0  0  0  0  0  0  0  0  0
   -4.2471    2.0460    0.7979 O   0  0  0  0  0  0  0  0  0  0  0  0
   -4.3034   -0.1468    1.4779 O   0  0  0  0  0  0  0  0  0  0  0  0
   -2.3149   -1.8178   -0.8232 C   0  0  0  0  0  0  0  0  0  0  0  0
   -1.0722   -2.4446   -0.8164 C   0  0  0  0  0  0  0  0  0  0  0  0
    0.0936   -1.6861   -0.8472 C   0  0  0  0  0  0  0  0  0  0  0  0
    0.0336   -0.2847   -0.8720 C   0  0  0  0  0  0  0  0  0  0  0  0
    1.3032    0.4725   -0.9579 C   0  0  0  0  0  0  0  0  0  0  0  0
    1.4524    1.2968   -1.9010 O   0  0  0  0  0  0  0  0  0  0  0  0
    2.4085    0.2630    0.0124 C   0  0  0  0  0  0  0  0  0  0  0  0
    2.1682   -0.3168    1.2734 C   0  0  0  0  0  0  0  0  0  0  0  0
    3.2161   -0.5006    2.1804 C   0  0  0  0  0  0  0  0  0  0  0  0
    4.5131   -0.1039    1.8447 C   0  0  0  0  0  0  0  0  0  0  0  0
    5.9420   -0.3559    3.0865 Br  0  0  0  0  0  0  0  0  0  0  0  0
    4.7621    0.4818    0.6006 C   0  0  0  0  0  0  0  0  0  0  0  0
    3.7174    0.6680   -0.3097 C   0  0  0  0  0  0  0  0  0  0  0  0
   -2.1866    2.3284   -0.9233 H   0  0  0  0  0  0  0  0  0  0  0  0
   -0.4503    2.3835   -0.6103 H   0  0  0  0  0  0  0  0  0  0  0  0
   -4.5621   -0.5380   -1.1428 H   0  0  0  0  0  0  0  0  0  0  0  0
   -3.8660    1.0318   -1.5650 H   0  0  0  0  0  0  0  0  0  0  0  0
   -4.4705    2.3850    1.7259 H   0  0  0  0  0  0  0  0  0  0  0  0
   -3.2070   -2.4316   -0.7958 H   0  0  0  0  0  0  0  0  0  0  0  0
   -1.0125   -3.5252   -0.7934 H   0  0  0  0  0  0  0  0  0  0  0  0
    1.0502   -2.1946   -0.8623 H   0  0  0  0  0  0  0  0  0  0  0  0
    1.1702   -0.6165    1.5663 H   0  0  0  0  0  0  0  0  0  0  0  0
    3.0176   -0.9478    3.1460 H   0  0  0  0  0  0  0  0  0  0  0  0
    5.7650    0.7931    0.3377 H   0  0  0  0  0  0  0  0  0  0  0  0
    3.9355    1.1208   -1.2689 H   0  0  0  0  0  0  0  0  0  0  0  0
  1  2  1  0
  2  3  2  0
  3  4  1  0
  4  5  1  0
  5  6  1  0
  5  7  2  0
  3  8  1  0
  8  9  2  0
  9 10  1  0
 10 11  2  0
 11 12  1  0
 12 13  2  0
 12 14  1  0
 14 15  2  0
 15 16  1  0
 16 17  2  0
 17 18  1  0
 17 19  1  0
 19 20  2  0
 11  2  1  0
 20 14  1  0
  1 21  1  0
  1 22  1  0
  4 23  1  0
  4 24  1  0
  6 25  1  0
  8 26  1  0
  9 27  1  0
 10 28  1  0
 15 29  1  0
 16 30  1  0
 19 31  1  0
 20 32  1  0
M  END
$$$$
