
     RDKit          3D

 47 50  0  0  0  0  0  0  0  0999 V2000
   -1.3455    3.8235    1.3147 Cl  0  0  0  0  0  0  0  0  0  0  0  0
   -2.0512    2.3078    0.7963 C   0  0  0  0  0  0  0  0  0  0  0  0
   -2.1530    1.1580    1.5634 C   0  0  0  0  0  0  0  0  0  0  0  0
   -2.7519    0.0923    0.8816 C   0  0  0  0  0  0  0  0  0  0  0  0
   -3.1208    0.4094   -0.4249 C   0  0  0  0  0  0  0  0  0  0  0  0
   -2.6923    2.0112   -0.7268 S   0  0  0  0  0  0  0  0  0  0  0  0
   -3.6813   -0.5125   -1.4288 C   0  0  0  0  0  0  0  0  0  0  0  0
   -3.8287   -0.1146   -2.6157 O   0  0  0  0  0  0  0  0  0  0  0  0
   -4.0231   -1.8622   -1.0826 N   0  0  0  0  0  0  0  0  0  0  0  0
   -3.8197   -2.9781   -2.0096 C   0  0  0  0  0  0  0  0  0  0  0  0
   -2.4728   -3.6768   -1.7458 C   0  0  1  0  0  0  0  0  0  0  0  0
   -1.2568   -2.7365   -1.9829 C   0  0  0  0  0  0  0  0  0  0  0  0
   -0.7276   -2.4522   -0.6497 N   0  0  0  0  0  0  0  0  0  0  0  0
   -1.4187   -3.3041    0.2486 C   0  0  0  0  0  0  0  0  0  0  0  0
   -1.2235   -3.3333    1.4919 O   0  0  0  0  0  0  0  0  0  0  0  0
   -2.3881   -4.0541   -0.3756 O   0  0  0  0  0  0  0  0  0  0  0  0
    0.2285   -1.4276   -0.3068 C   0  0  0  0  0  0  0  0  0  0  0  0
    0.2805   -0.2241   -1.0332 C   0  0  0  0  0  0  0  0  0  0  0  0
    1.1634    0.7929   -0.6624 C   0  0  0  0  0  0  0  0  0  0  0  0
    2.0245    0.6219    0.4299 C   0  0  0  0  0  0  0  0  0  0  0  0
    1.9944   -0.5857    1.1428 C   0  0  0  0  0  0  0  0  0  0  0  0
    1.1091   -1.6025    0.7751 C   0  0  0  0  0  0  0  0  0  0  0  0
    2.9110    1.6833    0.8274 N   0  0  0  0  0  0  0  0  0  0  0  0
    2.3377    2.9727    1.2341 C   0  0  0  0  0  0  0  0  0  0  0  0
    3.4298    4.0329    1.4087 C   0  0  0  0  0  0  0  0  0  0  0  0
    4.4728    3.5280    2.2186 O   0  0  0  0  0  0  0  0  0  0  0  0
    5.2053    2.5502    1.5045 C   0  0  0  0  0  0  0  0  0  0  0  0
    4.3171    1.4385    1.0211 C   0  0  0  0  0  0  0  0  0  0  0  0
    4.8268    0.3274    0.7117 O   0  0  0  0  0  0  0  0  0  0  0  0
   -1.7948    1.0863    2.5817 H   0  0  0  0  0  0  0  0  0  0  0  0
   -2.8821   -0.8819    1.3309 H   0  0  0  0  0  0  0  0  0  0  0  0
   -4.2356   -2.0933   -0.0868 H   0  0  0  0  0  0  0  0  0  0  0  0
   -3.8657   -2.6317   -3.0647 H   0  0  0  0  0  0  0  0  0  0  0  0
   -4.6398   -3.7141   -1.8678 H   0  0  0  0  0  0  0  0  0  0  0  0
   -2.3924   -4.5810   -2.3874 H   0  0  0  0  0  0  0  0  0  0  0  0
   -1.5463   -1.8126   -2.5204 H   0  0  0  0  0  0  0  0  0  0  0  0
   -0.4792   -3.2632   -2.5767 H   0  0  0  0  0  0  0  0  0  0  0  0
   -0.3813   -0.0460   -1.8676 H   0  0  0  0  0  0  0  0  0  0  0  0
    1.1774    1.7139   -1.2308 H   0  0  0  0  0  0  0  0  0  0  0  0
    2.6479   -0.7338    1.9932 H   0  0  0  0  0  0  0  0  0  0  0  0
    1.1240   -2.5286    1.3326 H   0  0  0  0  0  0  0  0  0  0  0  0
    1.6103    3.3308    0.4755 H   0  0  0  0  0  0  0  0  0  0  0  0
    1.8016    2.8402    2.1989 H   0  0  0  0  0  0  0  0  0  0  0  0
    2.9894    4.9209    1.9095 H   0  0  0  0  0  0  0  0  0  0  0  0
    3.8080    4.3720    0.4163 H   0  0  0  0  0  0  0  0  0  0  0  0
    5.9743    2.1259    2.1838 H   0  0  0  0  0  0  0  0  0  0  0  0
    5.7384    3.0106    0.6431 H   0  0  0  0  0  0  0  0  0  0  0  0
  1  2  1  0
  2  3  2  0
  3  4  1  0
  4  5  2  0
  5  6  1  0
  5  7  1  0
  7  8  2  0
  7  9  1  0
  9 10  1  0
 10 11  1  0
 11 12  1  0
 12 13  1  0
 13 14  1  0
 14 15  2  0
 14 16  1  0
 13 17  1  0
 17 18  2  0
 18 19  1  0
 19 20  2  0
 20 21  1  0
 21 22  2  0
 20 23  1  0
 23 24  1  0
 24 25  1  0
 25 26  1  0
 26 27  1  0
 27 28  1  0
 28 29  2  0
  6  2  1  0
 16 11  1  0
 22 17  1  0
 28 23  1  0
  3 30  1  0
  4 31  1  0
  9 32  1  0
 10 33  1  0
 10 34  1  0
 11 35  1  6
 12 36  1  0
 12 37  1  0
 18 38  1  0
 19 39  1  0
 21 40  1  0
 22 41  1  0
 24 42  1  0
 24 43  1  0
 25 44  1  0
 25 45  1  0
 27 46  1  0
 27 47  1  0
M  END
$$$$
