
     RDKit          3D

 20 21  0  0  0  0  0  0  0  0999 V2000
    4.1119   -0.2972   -0.0927 O   0  0  0  0  0  0  0  0  0  0  0  0
    2.7255   -0.1780   -0.0266 C   0  0  0  0  0  0  0  0  0  0  0  0
    2.1553    1.0257    0.3959 C   0  0  0  0  0  0  0  0  0  0  0  0
    0.7655    1.1602    0.4679 C   0  0  0  0  0  0  0  0  0  0  0  0
   -0.0760    0.0878    0.1158 C   0  0  0  0  0  0  0  0  0  0  0  0
    0.5082   -1.1205   -0.3095 C   0  0  0  0  0  0  0  0  0  0  0  0
    1.8984   -1.2514   -0.3791 C   0  0  0  0  0  0  0  0  0  0  0  0
   -1.5103    0.2243    0.1886 N   0  0  0  0  0  0  0  0  0  0  0  0
   -2.4327   -0.4700   -0.5040 C   0  0  0  0  0  0  0  0  0  0  0  0
   -3.6780   -0.0205   -0.1301 C   0  0  0  0  0  0  0  0  0  0  0  0
   -3.5484    0.9502    0.7955 N   0  0  0  0  0  0  0  0  0  0  0  0
   -2.2157    1.0750    0.9651 C   0  0  0  0  0  0  0  0  0  0  0  0
    4.5555   -1.1567   -0.3952 H   0  0  0  0  0  0  0  0  0  0  0  0
    2.7902    1.8601    0.6657 H   0  0  0  0  0  0  0  0  0  0  0  0
    0.3518    2.1091    0.7813 H   0  0  0  0  0  0  0  0  0  0  0  0
   -0.1071   -1.9706   -0.5716 H   0  0  0  0  0  0  0  0  0  0  0  0
    2.3315   -2.1889   -0.7041 H   0  0  0  0  0  0  0  0  0  0  0  0
   -2.2252   -1.2334   -1.2420 H   0  0  0  0  0  0  0  0  0  0  0  0
   -4.6254   -0.3767   -0.5115 H   0  0  0  0  0  0  0  0  0  0  0  0
   -1.7750    1.7716    1.6658 H   0  0  0  0  0  0  0  0  0  0  0  0
  1  2  1  0
  2  3  2  0
  3  4  1  0
  4  5  2  0
  5  6  1  0
  6  7  2  0
  5  8  1  0
  8  9  1  0
  9 10  2  0
 10 11  1  0
 11 12  2  0
  7  2  1  0
 12  8  1  0
  1 13  1  0
  3 14  1  0
  4 15  1  0
  6 16  1  0
  7 17  1  0
  9 18  1  0
 10 19  1  0
 12 20  1  0
M  END
$$$$
