
     RDKit          3D

 46 48  0  0  0  0  0  0  0  0999 V2000
    6.8588   -2.9505   -1.1521 N   0  0  0  0  0  0  0  0  0  0  0  0
    6.4491   -1.8282   -0.3707 C   0  0  0  0  0  0  0  0  0  0  0  0
    7.3742   -1.0461    0.2624 N   0  0  0  0  0  0  0  0  0  0  0  0
    6.9993    0.0415    1.0104 C   0  0  0  0  0  0  0  0  0  0  0  0
    5.6789    0.3715    1.1419 N   0  0  0  0  0  0  0  0  0  0  0  0
    4.7646   -0.4106    0.5184 C   0  0  0  0  0  0  0  0  0  0  0  0
    5.1096   -1.4847   -0.2275 C   0  0  0  0  0  0  0  0  0  0  0  0
    4.0159   -2.0600   -0.7619 N   0  0  0  0  0  0  0  0  0  0  0  0
    3.0055   -1.2756   -0.2943 C   0  0  0  0  0  0  0  0  0  0  0  0
    3.4345   -0.2625    0.5041 N   0  0  0  0  0  0  0  0  0  0  0  0
    2.6430    0.8195    1.0942 C   0  0  1  0  0  0  0  0  0  0  0  0
    2.4077    1.9269    0.0737 C   0  0  0  0  0  0  0  0  0  0  0  0
    0.9785    1.7251   -0.3330 C   0  0  2  0  0  0  0  0  0  0  0  0
    0.3608    2.9589   -0.5927 O   0  0  0  0  0  0  0  0  0  0  0  0
    0.3816    1.0451    0.8959 C   0  0  1  0  0  0  0  0  0  0  0  0
   -0.7763    0.1058    0.5423 C   0  0  0  0  0  0  0  0  0  0  0  0
   -1.8415    0.8520    0.0021 O   0  0  0  0  0  0  0  0  0  0  0  0
   -3.1251   -0.2114   -0.3597 P   0  0  0  0  0  5  0  0  0  0  0  0
   -2.5888   -1.4053   -1.4381 O   0  0  0  0  0  0  0  0  0  0  0  0
   -3.6224   -0.8503    0.9202 O   0  0  0  0  0  0  0  0  0  0  0  0
   -4.3650    0.7045   -1.0853 O   0  0  0  0  0  0  0  0  0  0  0  0
   -5.6954   -0.3264   -1.3542 P   0  0  0  0  0  5  0  0  0  0  0  0
   -6.8858    0.5388   -2.1926 O   0  0  0  0  0  0  0  0  0  0  0  0
   -5.2771   -1.4988   -2.2142 O   0  0  0  0  0  0  0  0  0  0  0  0
   -6.3173   -0.9181    0.1170 O   0  0  0  0  0  0  0  0  0  0  0  0
   -7.0322    0.3894    0.9408 P   0  0  0  0  0  5  0  0  0  0  0  0
   -5.9743    1.7090    1.0352 O   0  0  0  0  0  0  0  0  0  0  0  0
   -8.4536    0.8662    0.1552 O   0  0  0  0  0  0  0  0  0  0  0  0
   -7.3809   -0.0564    2.3428 O   0  0  0  0  0  0  0  0  0  0  0  0
    1.4012    0.3128    1.5380 O   0  0  0  0  0  0  0  0  0  0  0  0
    7.8724   -3.1834   -1.2441 H   0  0  0  0  0  0  0  0  0  0  0  0
    6.1575   -3.5514   -1.6395 H   0  0  0  0  0  0  0  0  0  0  0  0
    7.7539    0.6434    1.4977 H   0  0  0  0  0  0  0  0  0  0  0  0
    1.9671   -1.4388   -0.5499 H   0  0  0  0  0  0  0  0  0  0  0  0
    3.1866    1.2338    1.9721 H   0  0  0  0  0  0  0  0  0  0  0  0
    3.0938    1.8631   -0.7999 H   0  0  0  0  0  0  0  0  0  0  0  0
    2.5377    2.9175    0.5652 H   0  0  0  0  0  0  0  0  0  0  0  0
    0.9460    1.0587   -1.2285 H   0  0  0  0  0  0  0  0  0  0  0  0
   -0.4346    2.7660   -1.1535 H   0  0  0  0  0  0  0  0  0  0  0  0
    0.0103    1.8160    1.6094 H   0  0  0  0  0  0  0  0  0  0  0  0
   -1.0952   -0.4073    1.4780 H   0  0  0  0  0  0  0  0  0  0  0  0
   -0.4112   -0.6546   -0.1842 H   0  0  0  0  0  0  0  0  0  0  0  0
   -2.2935   -2.1589   -0.8672 H   0  0  0  0  0  0  0  0  0  0  0  0
   -7.5949   -0.1258   -2.3845 H   0  0  0  0  0  0  0  0  0  0  0  0
   -5.2398    1.4050    1.6259 H   0  0  0  0  0  0  0  0  0  0  0  0
   -8.9837    0.0344    0.0656 H   0  0  0  0  0  0  0  0  0  0  0  0
  1  2  1  0
  2  3  2  0
  3  4  1  0
  4  5  2  0
  5  6  1  0
  6  7  2  0
  7  8  1  0
  8  9  2  0
  9 10  1  0
 10 11  1  0
 11 12  1  0
 12 13  1  0
 13 14  1  0
 13 15  1  0
 15 16  1  0
 16 17  1  0
 17 18  1  0
 18 19  1  0
 18 20  2  0
 18 21  1  0
 21 22  1  0
 22 23  1  0
 22 24  2  0
 22 25  1  0
 25 26  1  0
 26 27  1  0
 26 28  1  0
 26 29  2  0
 15 30  1  0
  7  2  1  0
 30 11  1  0
 10  6  1  0
  1 31  1  0
  1 32  1  0
  4 33  1  0
  9 34  1  0
 11 35  1  1
 12 36  1  0
 12 37  1  0
 13 38  1  6
 14 39  1  0
 15 40  1  1
 16 41  1  0
 16 42  1  0
 19 43  1  0
 23 44  1  0
 27 45  1  0
 28 46  1  0
M  END
$$$$
