
     RDKit          3D

 66 68  0  0  0  0  0  0  0  0999 V2000
   -4.9793    2.5521    3.4838 C   0  0  0  0  0  0  0  0  0  0  0  0
   -5.4249    2.0610    2.1452 C   0  0  0  0  0  0  0  0  0  0  0  0
   -6.0923    2.8227    1.3942 O   0  0  0  0  0  0  0  0  0  0  0  0
   -5.0586    0.7443    1.7090 N   0  0  0  0  0  0  0  0  0  0  0  0
   -5.3313    0.2600    0.3503 C   0  0  2  0  0  0  0  0  0  0  0  0
   -5.5702   -1.2681    0.3538 C   0  0  1  0  0  0  0  0  0  0  0  0
   -6.9411   -1.5102    0.5549 O   0  0  0  0  0  0  0  0  0  0  0  0
   -5.0647   -1.9132   -0.9638 C   0  0  1  0  0  0  0  0  0  0  0  0
   -5.6928   -3.1412   -1.2481 O   0  0  0  0  0  0  0  0  0  0  0  0
   -5.1026   -0.9295   -2.1703 C   0  0  1  0  0  0  0  0  0  0  0  0
   -6.5264   -0.6473   -2.6912 C   0  0  0  0  0  0  0  0  0  0  0  0
   -6.4916    0.3021   -3.7234 O   0  0  0  0  0  0  0  0  0  0  0  0
   -4.4202    0.3062   -1.9496 O   0  0  0  0  0  0  0  0  0  0  0  0
   -4.1726    0.6509   -0.5891 C   0  0  2  0  0  0  0  0  0  0  0  0
   -2.9714    0.0533   -0.1396 O   0  0  0  0  0  0  0  0  0  0  0  0
   -1.6329    0.9303   -0.7357 P   0  0  2  0  0  5  0  0  0  0  0  0
   -1.6768    2.5061   -0.1150 O   0  0  0  0  0  0  0  0  0  0  0  0
   -1.6854    0.9759   -2.2475 O   0  0  0  0  0  0  0  0  0  0  0  0
   -0.2185    0.1269   -0.2324 O   0  0  0  0  0  0  0  0  0  0  0  0
    1.1188    1.0930   -0.6627 P   0  0  2  0  0  5  0  0  0  0  0  0
    1.1082    2.5291    0.2323 O   0  0  0  0  0  0  0  0  0  0  0  0
    1.0951    1.4276   -2.1389 O   0  0  0  0  0  0  0  0  0  0  0  0
    2.5587    0.2562   -0.2999 O   0  0  0  0  0  0  0  0  0  0  0  0
    2.5360   -0.9835   -0.9688 C   0  0  0  0  0  0  0  0  0  0  0  0
    3.8341   -1.7499   -0.6886 C   0  0  1  0  0  0  0  0  0  0  0  0
    4.9378   -1.0058   -1.1715 O   0  0  0  0  0  0  0  0  0  0  0  0
    5.9573   -1.1066   -0.2035 C   0  0  2  0  0  0  0  0  0  0  0  0
    5.2850   -1.2607    1.1570 C   0  0  2  0  0  0  0  0  0  0  0  0
    6.0954   -1.8879    2.1243 O   0  0  0  0  0  0  0  0  0  0  0  0
    4.0287   -2.0383    0.8172 C   0  0  2  0  0  0  0  0  0  0  0  0
    4.1631   -3.4191    1.0664 O   0  0  0  0  0  0  0  0  0  0  0  0
    6.8443    0.0757   -0.2341 N   0  0  0  0  0  0  0  0  0  0  0  0
    8.1895   -0.1150   -0.0734 C   0  0  0  0  0  0  0  0  0  0  0  0
    9.0670    0.9656   -0.0714 C   0  0  0  0  0  0  0  0  0  0  0  0
    8.5474    2.2460   -0.2233 C   0  0  0  0  0  0  0  0  0  0  0  0
    9.3181    3.2428   -0.2265 O   0  0  0  0  0  0  0  0  0  0  0  0
    7.2076    2.4188   -0.3637 N   0  0  0  0  0  0  0  0  0  0  0  0
    6.3562    1.3553   -0.3629 C   0  0  0  0  0  0  0  0  0  0  0  0
    5.1179    1.5643   -0.4769 O   0  0  0  0  0  0  0  0  0  0  0  0
   -5.5194    3.4833    3.7574 H   0  0  0  0  0  0  0  0  0  0  0  0
   -3.8893    2.7591    3.4561 H   0  0  0  0  0  0  0  0  0  0  0  0
   -5.1855    1.7800    4.2542 H   0  0  0  0  0  0  0  0  0  0  0  0
   -4.4202    0.1897    2.3238 H   0  0  0  0  0  0  0  0  0  0  0  0
   -6.2496    0.7578   -0.0330 H   0  0  0  0  0  0  0  0  0  0  0  0
   -4.9866   -1.7279    1.1878 H   0  0  0  0  0  0  0  0  0  0  0  0
   -7.0199   -2.3893    1.0100 H   0  0  0  0  0  0  0  0  0  0  0  0
   -3.9909   -2.1579   -0.8084 H   0  0  0  0  0  0  0  0  0  0  0  0
   -6.6636   -2.9815   -1.3615 H   0  0  0  0  0  0  0  0  0  0  0  0
   -4.5664   -1.4386   -3.0013 H   0  0  0  0  0  0  0  0  0  0  0  0
   -7.1982   -0.3061   -1.8735 H   0  0  0  0  0  0  0  0  0  0  0  0
   -6.9610   -1.5785   -3.1101 H   0  0  0  0  0  0  0  0  0  0  0  0
   -6.4987    1.1961   -3.2915 H   0  0  0  0  0  0  0  0  0  0  0  0
   -4.1139    1.7627   -0.5349 H   0  0  0  0  0  0  0  0  0  0  0  0
   -1.7779    2.3877    0.8632 H   0  0  0  0  0  0  0  0  0  0  0  0
    1.1280    2.2351    1.1778 H   0  0  0  0  0  0  0  0  0  0  0  0
    2.4560   -0.8373   -2.0703 H   0  0  0  0  0  0  0  0  0  0  0  0
    1.6811   -1.6070   -0.6211 H   0  0  0  0  0  0  0  0  0  0  0  0
    3.7836   -2.7043   -1.2593 H   0  0  0  0  0  0  0  0  0  0  0  0
    6.5403   -2.0261   -0.4473 H   0  0  0  0  0  0  0  0  0  0  0  0
    4.9881   -0.2603    1.5427 H   0  0  0  0  0  0  0  0  0  0  0  0
    6.5389   -2.6733    1.7118 H   0  0  0  0  0  0  0  0  0  0  0  0
    3.1807   -1.6608    1.4310 H   0  0  0  0  0  0  0  0  0  0  0  0
    4.8808   -3.7741    0.4787 H   0  0  0  0  0  0  0  0  0  0  0  0
    8.5965   -1.1110    0.0562 H   0  0  0  0  0  0  0  0  0  0  0  0
   10.1315    0.8070    0.0500 H   0  0  0  0  0  0  0  0  0  0  0  0
    6.8231    3.3858   -0.4690 H   0  0  0  0  0  0  0  0  0  0  0  0
  1  2  1  0
  2  3  2  0
  2  4  1  0
  4  5  1  0
  5  6  1  0
  6  7  1  0
  6  8  1  0
  8  9  1  0
  8 10  1  0
 10 11  1  0
 11 12  1  0
 10 13  1  0
 13 14  1  0
 14 15  1  0
 16 15  1  1
 16 17  1  0
 16 18  2  0
 16 19  1  0
 20 19  1  1
 20 21  1  0
 20 22  2  0
 20 23  1  0
 23 24  1  0
 24 25  1  0
 25 26  1  0
 26 27  1  0
 27 28  1  0
 28 29  1  0
 28 30  1  0
 30 31  1  0
 27 32  1  0
 32 33  1  0
 33 34  2  0
 34 35  1  0
 35 36  2  0
 35 37  1  0
 37 38  1  0
 38 39  2  0
 14  5  1  0
 30 25  1  0
 38 32  1  0
  1 40  1  0
  1 41  1  0
  1 42  1  0
  4 43  1  0
  5 44  1  6
  6 45  1  1
  7 46  1  0
  8 47  1  1
  9 48  1  0
 10 49  1  6
 11 50  1  0
 11 51  1  0
 12 52  1  0
 14 53  1  6
 17 54  1  0
 21 55  1  0
 24 56  1  0
 24 57  1  0
 25 58  1  6
 27 59  1  6
 28 60  1  1
 29 61  1  0
 30 62  1  1
 31 63  1  0
 33 64  1  0
 34 65  1  0
 37 66  1  0
M  END
$$$$
