
     RDKit          3D

 72 74  0  0  0  0  0  0  0  0999 V2000
   -6.9980   -3.0269   -0.5080 C   0  0  0  0  0  0  0  0  0  0  0  0
   -7.1551   -1.5051   -0.3899 C   0  0  0  0  0  0  0  0  0  0  0  0
   -7.4921   -0.8807   -1.7513 C   0  0  0  0  0  0  0  0  0  0  0  0
   -5.9343   -0.8329    0.2816 C   0  0  0  0  0  0  0  0  0  0  0  0
   -4.5943   -1.0590   -0.4474 C   0  0  0  0  0  0  0  0  0  0  0  0
   -3.4432   -0.2449    0.1914 C   0  0  0  0  0  0  0  0  0  0  0  0
   -2.9507    0.9313   -0.6986 C   0  0  1  0  0  0  0  0  0  0  0  0
   -4.0275    2.0313   -0.7527 C   0  0  0  0  0  0  0  0  0  0  0  0
   -1.5655    1.5515   -0.2840 C   0  0  1  0  0  0  0  0  0  0  0  0
   -1.2158    1.5815    1.2264 C   0  0  0  0  0  0  0  0  0  0  0  0
    0.3211    1.5091    1.3150 C   0  0  0  0  0  0  0  0  0  0  0  0
    0.7961    1.6427   -0.1337 C   0  0  1  0  0  0  0  0  0  0  0  0
    2.1715    1.1860   -0.5649 C   0  0  0  0  0  0  0  0  0  0  0  0
    2.4681    1.3821   -2.0468 C   0  0  0  0  0  0  0  0  0  0  0  0
    1.2847    1.0044   -2.9743 C   0  0  0  0  0  0  0  0  0  0  0  0
   -0.1086    1.4091   -2.4384 C   0  0  0  0  0  0  0  0  0  0  0  0
   -0.2996    0.9695   -0.9655 C   0  0  2  0  0  0  0  0  0  0  0  0
   -0.2460   -0.5849   -0.8503 C   0  0  0  0  0  0  0  0  0  0  0  0
    3.1113    0.8241    0.3314 C   0  0  0  0  0  0  0  0  0  0  0  0
    4.5209    0.5419   -0.0181 C   0  0  0  0  0  0  0  0  0  0  0  0
    5.3413   -0.2267    0.7283 C   0  0  0  0  0  0  0  0  0  0  0  0
    6.8224   -0.1932    0.4094 C   0  0  0  0  0  0  0  0  0  0  0  0
    7.6808   -0.9254    1.4611 C   0  0  1  0  0  0  0  0  0  0  0  0
    9.0346   -0.5698    1.3324 O   0  0  0  0  0  0  0  0  0  0  0  0
    7.1677   -0.6321    2.8816 C   0  0  0  0  0  0  0  0  0  0  0  0
    5.7711   -1.2362    3.0861 C   0  0  0  0  0  0  0  0  0  0  0  0
    4.8746   -1.0594    1.8802 C   0  0  0  0  0  0  0  0  0  0  0  0
    3.7421   -1.7716    1.8173 C   0  0  0  0  0  0  0  0  0  0  0  0
   -6.2187   -3.2918   -1.2535 H   0  0  0  0  0  0  0  0  0  0  0  0
   -7.9585   -3.4814   -0.8321 H   0  0  0  0  0  0  0  0  0  0  0  0
   -6.7231   -3.4631    0.4759 H   0  0  0  0  0  0  0  0  0  0  0  0
   -8.0268   -1.3180    0.2763 H   0  0  0  0  0  0  0  0  0  0  0  0
   -7.5568    0.2248   -1.6644 H   0  0  0  0  0  0  0  0  0  0  0  0
   -6.7303   -1.1402   -2.5154 H   0  0  0  0  0  0  0  0  0  0  0  0
   -8.4762   -1.2569   -2.1039 H   0  0  0  0  0  0  0  0  0  0  0  0
   -6.1350    0.2562    0.3698 H   0  0  0  0  0  0  0  0  0  0  0  0
   -5.8423   -1.2235    1.3191 H   0  0  0  0  0  0  0  0  0  0  0  0
   -4.6923   -0.8162   -1.5251 H   0  0  0  0  0  0  0  0  0  0  0  0
   -4.3363   -2.1382   -0.3840 H   0  0  0  0  0  0  0  0  0  0  0  0
   -2.6118   -0.9484    0.3796 H   0  0  0  0  0  0  0  0  0  0  0  0
   -3.7506    0.1411    1.1883 H   0  0  0  0  0  0  0  0  0  0  0  0
   -2.8410    0.5544   -1.7381 H   0  0  0  0  0  0  0  0  0  0  0  0
   -4.2099    2.4476    0.2611 H   0  0  0  0  0  0  0  0  0  0  0  0
   -4.9790    1.6337   -1.1613 H   0  0  0  0  0  0  0  0  0  0  0  0
   -3.7105    2.8546   -1.4279 H   0  0  0  0  0  0  0  0  0  0  0  0
   -1.5932    2.6235   -0.5935 H   0  0  0  0  0  0  0  0  0  0  0  0
   -1.5915    2.5203    1.6890 H   0  0  0  0  0  0  0  0  0  0  0  0
   -1.6364    0.7255    1.7890 H   0  0  0  0  0  0  0  0  0  0  0  0
    0.7281    2.3283    1.9470 H   0  0  0  0  0  0  0  0  0  0  0  0
    0.6222    0.5301    1.7470 H   0  0  0  0  0  0  0  0  0  0  0  0
    0.7847    2.7402   -0.3432 H   0  0  0  0  0  0  0  0  0  0  0  0
    2.7249    2.4512   -2.2077 H   0  0  0  0  0  0  0  0  0  0  0  0
    3.3356    0.7723   -2.3730 H   0  0  0  0  0  0  0  0  0  0  0  0
    1.4392    1.4876   -3.9632 H   0  0  0  0  0  0  0  0  0  0  0  0
    1.3028   -0.0901   -3.1626 H   0  0  0  0  0  0  0  0  0  0  0  0
   -0.2163    2.5126   -2.5290 H   0  0  0  0  0  0  0  0  0  0  0  0
   -0.8905    0.9494   -3.0799 H   0  0  0  0  0  0  0  0  0  0  0  0
    0.7339   -0.9936   -1.1676 H   0  0  0  0  0  0  0  0  0  0  0  0
   -1.0247   -1.0512   -1.4894 H   0  0  0  0  0  0  0  0  0  0  0  0
   -0.3887   -0.9255    0.1942 H   0  0  0  0  0  0  0  0  0  0  0  0
    2.8502    0.7635    1.3780 H   0  0  0  0  0  0  0  0  0  0  0  0
    4.9483    1.0763   -0.8581 H   0  0  0  0  0  0  0  0  0  0  0  0
    6.9953   -0.6547   -0.5870 H   0  0  0  0  0  0  0  0  0  0  0  0
    7.1462    0.8700    0.3536 H   0  0  0  0  0  0  0  0  0  0  0  0
    7.6032   -2.0205    1.2787 H   0  0  0  0  0  0  0  0  0  0  0  0
    9.1171    0.3934    1.5600 H   0  0  0  0  0  0  0  0  0  0  0  0
    7.1253    0.4674    3.0477 H   0  0  0  0  0  0  0  0  0  0  0  0
    7.8657   -1.0647    3.6309 H   0  0  0  0  0  0  0  0  0  0  0  0
    5.8889   -2.3229    3.2953 H   0  0  0  0  0  0  0  0  0  0  0  0
    5.2940   -0.7666    3.9731 H   0  0  0  0  0  0  0  0  0  0  0  0
    3.1184   -1.7690    0.9330 H   0  0  0  0  0  0  0  0  0  0  0  0
    3.4386   -2.4029    2.6435 H   0  0  0  0  0  0  0  0  0  0  0  0
  1  2  1  0
  2  3  1  0
  2  4  1  0
  4  5  1  0
  5  6  1  0
  6  7  1  0
  7  8  1  0
  7  9  1  0
  9 10  1  0
 10 11  1  0
 11 12  1  0
 12 13  1  0
 13 14  1  0
 14 15  1  0
 15 16  1  0
 16 17  1  0
 17 18  1  6
 13 19  2  0
 19 20  1  0
 20 21  2  0
 21 22  1  0
 22 23  1  0
 23 24  1  0
 23 25  1  0
 25 26  1  0
 26 27  1  0
 27 28  2  3
 17  9  1  0
 27 21  1  0
 17 12  1  0
  1 29  1  0
  1 30  1  0
  1 31  1  0
  2 32  1  0
  3 33  1  0
  3 34  1  0
  3 35  1  0
  4 36  1  0
  4 37  1  0
  5 38  1  0
  5 39  1  0
  6 40  1  0
  6 41  1  0
  7 42  1  6
  8 43  1  0
  8 44  1  0
  8 45  1  0
  9 46  1  6
 10 47  1  0
 10 48  1  0
 11 49  1  0
 11 50  1  0
 12 51  1  6
 14 52  1  0
 14 53  1  0
 15 54  1  0
 15 55  1  0
 16 56  1  0
 16 57  1  0
 18 58  1  0
 18 59  1  0
 18 60  1  0
 19 61  1  0
 20 62  1  0
 22 63  1  0
 22 64  1  0
 23 65  1  6
 24 66  1  0
 25 67  1  0
 25 68  1  0
 26 69  1  0
 26 70  1  0
 28 71  1  0
 28 72  1  0
M  END
$$$$
