
     RDKit          3D

 45 47  0  0  0  0  0  0  0  0999 V2000
    8.3725   -1.7172    0.2944 N   0  0  0  0  0  0  0  0  0  0  0  0
    7.0627   -1.0593   -0.6205 S   0  0  0  0  0  6  0  0  0  0  0  0
    6.6775   -2.0300   -1.7012 O   0  0  0  0  0  0  0  0  0  0  0  0
    7.4956    0.2397   -1.2404 O   0  0  0  0  0  0  0  0  0  0  0  0
    5.7306   -0.7903    0.4195 O   0  0  0  0  0  0  0  0  0  0  0  0
    4.4959   -0.2634    0.0161 C   0  0  0  0  0  0  0  0  0  0  0  0
    4.2236    0.1072   -1.3255 C   0  0  0  0  0  0  0  0  0  0  0  0
    2.9698    0.6306   -1.6806 C   0  0  0  0  0  0  0  0  0  0  0  0
    1.9982    0.7802   -0.6920 C   0  0  0  0  0  0  0  0  0  0  0  0
    0.6399    1.3034   -0.8707 C   0  0  0  0  0  0  0  0  0  0  0  0
   -0.0515    1.3218    0.2736 C   0  0  0  0  0  0  0  0  0  0  0  0
   -1.4752    1.7904    0.3885 C   0  0  0  0  0  0  0  0  0  0  0  0
   -2.4785    0.6202    0.5232 C   0  0  0  0  0  0  0  0  0  0  0  0
   -3.8912    1.1885    0.8088 C   0  0  0  0  0  0  0  0  0  0  0  0
   -4.8539    0.1281    1.3714 C   0  0  0  0  0  0  0  0  0  0  0  0
   -5.6522   -0.6345    0.3007 C   0  0  0  0  0  0  0  0  0  0  0  0
   -4.8738   -1.0243   -0.9672 C   0  0  0  0  0  0  0  0  0  0  0  0
   -3.4223   -1.4575   -0.7074 C   0  0  0  0  0  0  0  0  0  0  0  0
   -2.4449   -0.2713   -0.7420 C   0  0  0  0  0  0  0  0  0  0  0  0
    0.8821    0.7035    1.6253 S   0  0  0  0  0  6  0  0  0  0  0  0
    0.3204   -0.5678    2.1955 O   0  0  0  0  0  0  0  0  0  0  0  0
    1.1396    1.7458    2.6761 O   0  0  0  0  0  0  0  0  0  0  0  0
    2.2621    0.4202    0.6140 C   0  0  0  0  0  0  0  0  0  0  0  0
    3.4971   -0.1021    0.9920 C   0  0  0  0  0  0  0  0  0  0  0  0
    8.5757   -1.0397    1.0631 H   0  0  0  0  0  0  0  0  0  0  0  0
    8.0176   -2.5882    0.7486 H   0  0  0  0  0  0  0  0  0  0  0  0
    4.9681   -0.0038   -2.1000 H   0  0  0  0  0  0  0  0  0  0  0  0
    2.7630    0.9123   -2.7052 H   0  0  0  0  0  0  0  0  0  0  0  0
    0.2394    1.6316   -1.8215 H   0  0  0  0  0  0  0  0  0  0  0  0
   -1.7441    2.4187   -0.4896 H   0  0  0  0  0  0  0  0  0  0  0  0
   -1.5368    2.4419    1.2868 H   0  0  0  0  0  0  0  0  0  0  0  0
   -2.1622    0.0074    1.3959 H   0  0  0  0  0  0  0  0  0  0  0  0
   -4.3155    1.6713   -0.0989 H   0  0  0  0  0  0  0  0  0  0  0  0
   -3.8051    1.9848    1.5809 H   0  0  0  0  0  0  0  0  0  0  0  0
   -4.3060   -0.5939    2.0153 H   0  0  0  0  0  0  0  0  0  0  0  0
   -5.5874    0.6335    2.0376 H   0  0  0  0  0  0  0  0  0  0  0  0
   -6.5247   -0.0166   -0.0056 H   0  0  0  0  0  0  0  0  0  0  0  0
   -6.0609   -1.5568    0.7687 H   0  0  0  0  0  0  0  0  0  0  0  0
   -5.4142   -1.8683   -1.4492 H   0  0  0  0  0  0  0  0  0  0  0  0
   -4.9033   -0.1850   -1.6961 H   0  0  0  0  0  0  0  0  0  0  0  0
   -3.3318   -2.0204    0.2469 H   0  0  0  0  0  0  0  0  0  0  0  0
   -3.1267   -2.1566   -1.5203 H   0  0  0  0  0  0  0  0  0  0  0  0
   -2.6259    0.3452   -1.6501 H   0  0  0  0  0  0  0  0  0  0  0  0
   -1.4249   -0.7002   -0.8449 H   0  0  0  0  0  0  0  0  0  0  0  0
    3.6817   -0.3794    2.0219 H   0  0  0  0  0  0  0  0  0  0  0  0
  1  2  1  0
  2  3  2  0
  2  4  2  0
  2  5  1  0
  5  6  1  0
  6  7  2  0
  7  8  1  0
  8  9  2  0
  9 10  1  0
 10 11  2  0
 11 12  1  0
 12 13  1  0
 13 14  1  0
 14 15  1  0
 15 16  1  0
 16 17  1  0
 17 18  1  0
 18 19  1  0
 11 20  1  0
 20 21  2  0
 20 22  2  0
 20 23  1  0
 23 24  2  0
 24  6  1  0
 23  9  1  0
 19 13  1  0
  1 25  1  0
  1 26  1  0
  7 27  1  0
  8 28  1  0
 10 29  1  0
 12 30  1  0
 12 31  1  0
 13 32  1  0
 14 33  1  0
 14 34  1  0
 15 35  1  0
 15 36  1  0
 16 37  1  0
 16 38  1  0
 17 39  1  0
 17 40  1  0
 18 41  1  0
 18 42  1  0
 19 43  1  0
 19 44  1  0
 24 45  1  0
M  END
$$$$
