
     RDKit          3D

 65 65  0  0  0  0  0  0  0  0999 V2000
   -2.9597   -3.7853    0.0261 C   0  0  0  0  0  0  0  0  0  0  0  0
   -2.9380   -2.3960    0.6603 C   0  0  0  0  0  0  0  0  0  0  0  0
   -4.2327   -1.6058    0.4242 C   0  0  0  0  0  0  0  0  0  0  0  0
   -4.4534   -1.1261   -1.2871 S   0  0  0  0  0  6  0  0  0  0  0  0
   -4.8180   -2.3338   -2.1036 O   0  0  0  0  0  0  0  0  0  0  0  0
   -5.5757   -0.1300   -1.3795 O   0  0  0  0  0  0  0  0  0  0  0  0
   -2.9849   -0.4326   -1.9140 N   0  0  0  0  0  0  0  0  0  0  0  0
   -2.7266    0.9164   -1.3638 C   0  0  2  0  0  0  0  0  0  0  0  0
   -2.7263    1.9975   -2.4826 C   0  0  2  0  0  0  0  0  0  0  0  0
   -2.4902    3.4152   -1.9384 C   0  0  0  0  0  0  0  0  0  0  0  0
   -3.9336    1.9635   -3.2028 O   0  0  0  0  0  0  0  0  0  0  0  0
   -1.4001    0.8922   -0.6490 C   0  0  0  0  0  0  0  0  0  0  0  0
   -0.4396    0.2431   -1.1468 O   0  0  0  0  0  0  0  0  0  0  0  0
   -1.2182    1.6513    0.5612 N   0  0  0  0  0  0  0  0  0  0  0  0
   -0.0020    1.6233    1.3883 C   0  0  1  0  0  0  0  0  0  0  0  0
    0.2667    0.2025    1.9365 C   0  0  0  0  0  0  0  0  0  0  0  0
   -0.8671   -0.3112    2.8355 C   0  0  0  0  0  0  0  0  0  0  0  0
   -0.9428    0.5970    4.4236 S   0  0  0  0  0  0  0  0  0  0  0  0
    0.2606   -0.4512    5.3041 C   0  0  0  0  0  0  0  0  0  0  0  0
    1.1963    2.1626    0.6413 C   0  0  0  0  0  0  0  0  0  0  0  0
    1.0880    2.5401   -0.5576 O   0  0  0  0  0  0  0  0  0  0  0  0
    2.4602    2.2790    1.3099 N   0  0  0  0  0  0  0  0  0  0  0  0
    3.7159    2.4107    0.5763 C   0  0  0  0  0  0  0  0  0  0  0  0
    4.0060    1.1389   -0.1737 C   0  0  0  0  0  0  0  0  0  0  0  0
    3.8629    1.0827   -1.5679 C   0  0  0  0  0  0  0  0  0  0  0  0
    4.0824   -0.1161   -2.2524 C   0  0  0  0  0  0  0  0  0  0  0  0
    4.4433   -1.2816   -1.5527 C   0  0  0  0  0  0  0  0  0  0  0  0
    4.5770   -1.2223   -0.1549 C   0  0  0  0  0  0  0  0  0  0  0  0
    4.3591   -0.0227    0.5281 C   0  0  0  0  0  0  0  0  0  0  0  0
    4.6660   -2.5614   -2.2713 C   0  0  0  0  0  0  0  0  0  0  0  0
    4.2646   -3.7991   -1.6781 N   0  0  0  0  0  0  0  0  0  0  0  0
    5.2316   -2.5810   -3.4384 N   0  0  0  0  0  0  0  0  0  0  0  0
   -3.8787   -4.3353    0.3202 H   0  0  0  0  0  0  0  0  0  0  0  0
   -2.9059   -3.7117   -1.0792 H   0  0  0  0  0  0  0  0  0  0  0  0
   -2.0766   -4.3619    0.3733 H   0  0  0  0  0  0  0  0  0  0  0  0
   -2.8047   -2.5207    1.7565 H   0  0  0  0  0  0  0  0  0  0  0  0
   -2.0637   -1.8276    0.2792 H   0  0  0  0  0  0  0  0  0  0  0  0
   -5.1107   -2.2008    0.7544 H   0  0  0  0  0  0  0  0  0  0  0  0
   -4.1993   -0.6820    1.0397 H   0  0  0  0  0  0  0  0  0  0  0  0
   -3.0603   -0.4216   -2.9571 H   0  0  0  0  0  0  0  0  0  0  0  0
   -3.5026    1.1994   -0.6179 H   0  0  0  0  0  0  0  0  0  0  0  0
   -1.9032    1.7697   -3.1956 H   0  0  0  0  0  0  0  0  0  0  0  0
   -3.2295    3.6583   -1.1458 H   0  0  0  0  0  0  0  0  0  0  0  0
   -1.4656    3.5100   -1.5225 H   0  0  0  0  0  0  0  0  0  0  0  0
   -2.5940    4.1543   -2.7609 H   0  0  0  0  0  0  0  0  0  0  0  0
   -4.6652    2.1907   -2.5708 H   0  0  0  0  0  0  0  0  0  0  0  0
   -2.0115    2.2429    0.8971 H   0  0  0  0  0  0  0  0  0  0  0  0
   -0.1574    2.3038    2.2535 H   0  0  0  0  0  0  0  0  0  0  0  0
    0.4040   -0.5097    1.0965 H   0  0  0  0  0  0  0  0  0  0  0  0
    1.2137    0.1893    2.5145 H   0  0  0  0  0  0  0  0  0  0  0  0
   -0.7298   -1.3979    3.0202 H   0  0  0  0  0  0  0  0  0  0  0  0
   -1.8427   -0.1911    2.3215 H   0  0  0  0  0  0  0  0  0  0  0  0
    1.2444   -0.4295    4.7931 H   0  0  0  0  0  0  0  0  0  0  0  0
    0.3879   -0.0635    6.3355 H   0  0  0  0  0  0  0  0  0  0  0  0
   -0.1113   -1.4953    5.3602 H   0  0  0  0  0  0  0  0  0  0  0  0
    2.4981    2.1957    2.3509 H   0  0  0  0  0  0  0  0  0  0  0  0
    3.6619    3.2852   -0.1081 H   0  0  0  0  0  0  0  0  0  0  0  0
    4.5431    2.6050    1.2930 H   0  0  0  0  0  0  0  0  0  0  0  0
    3.5697    1.9635   -2.1255 H   0  0  0  0  0  0  0  0  0  0  0  0
    3.9436   -0.1356   -3.3258 H   0  0  0  0  0  0  0  0  0  0  0  0
    4.8638   -2.0999    0.4105 H   0  0  0  0  0  0  0  0  0  0  0  0
    4.4594    0.0004    1.6064 H   0  0  0  0  0  0  0  0  0  0  0  0
    3.7265   -3.8213   -0.7838 H   0  0  0  0  0  0  0  0  0  0  0  0
    4.4579   -4.7034   -2.1635 H   0  0  0  0  0  0  0  0  0  0  0  0
    5.5674   -1.7178   -3.9206 H   0  0  0  0  0  0  0  0  0  0  0  0
  1  2  1  0
  2  3  1  0
  3  4  1  0
  4  5  2  0
  4  6  2  0
  4  7  1  0
  7  8  1  0
  8  9  1  0
  9 10  1  0
  9 11  1  0
  8 12  1  0
 12 13  2  0
 12 14  1  0
 14 15  1  0
 15 16  1  0
 16 17  1  0
 17 18  1  0
 18 19  1  0
 15 20  1  0
 20 21  2  0
 20 22  1  0
 22 23  1  0
 23 24  1  0
 24 25  2  0
 25 26  1  0
 26 27  2  0
 27 28  1  0
 28 29  2  0
 27 30  1  0
 30 31  1  0
 30 32  2  3
 29 24  1  0
  1 33  1  0
  1 34  1  0
  1 35  1  0
  2 36  1  0
  2 37  1  0
  3 38  1  0
  3 39  1  0
  7 40  1  0
  8 41  1  1
  9 42  1  6
 10 43  1  0
 10 44  1  0
 10 45  1  0
 11 46  1  0
 14 47  1  0
 15 48  1  1
 16 49  1  0
 16 50  1  0
 17 51  1  0
 17 52  1  0
 19 53  1  0
 19 54  1  0
 19 55  1  0
 22 56  1  0
 23 57  1  0
 23 58  1  0
 25 59  1  0
 26 60  1  0
 28 61  1  0
 29 62  1  0
 31 63  1  0
 31 64  1  0
 32 65  1  0
M  END
$$$$
