
     RDKit          3D

 24 25  0  0  0  0  0  0  0  0999 V2000
    4.1737    1.3472   -0.6759 C   0  0  0  0  0  0  0  0  0  0  0  0
    2.8684    0.7135   -0.3358 C   0  0  0  0  0  0  0  0  0  0  0  0
    2.7282   -0.5990   -0.0525 N   0  0  0  0  0  0  0  0  0  0  0  0
    1.4274   -0.9477    0.1479 C   0  0  0  0  0  0  0  0  0  0  0  0
    1.0580   -2.3703    0.4322 C   0  0  0  0  0  0  0  0  0  0  0  0
    0.5134    0.1117    0.0263 C   0  0  0  0  0  0  0  0  0  0  0  0
    1.3829    1.4941   -0.3866 S   0  0  0  0  0  0  0  0  0  0  0  0
   -0.9570    0.0811    0.1553 C   0  0  0  0  0  0  0  0  0  0  0  0
   -1.7054    0.8790   -0.6537 N   0  0  0  0  0  0  0  0  0  0  0  0
   -3.0615    0.9075   -0.5636 C   0  0  0  0  0  0  0  0  0  0  0  0
   -3.8169    1.7474   -1.4330 N   0  0  0  0  0  0  0  0  0  0  0  0
   -3.6955    0.1365    0.3584 N   0  0  0  0  0  0  0  0  0  0  0  0
   -2.9914   -0.6627    1.2001 C   0  0  0  0  0  0  0  0  0  0  0  0
   -1.5998   -0.7031    1.1231 C   0  0  0  0  0  0  0  0  0  0  0  0
    4.1759    2.4083   -0.3500 H   0  0  0  0  0  0  0  0  0  0  0  0
    5.0003    0.8121   -0.1633 H   0  0  0  0  0  0  0  0  0  0  0  0
    4.3321    1.3004   -1.7732 H   0  0  0  0  0  0  0  0  0  0  0  0
    0.1050   -2.6350   -0.0717 H   0  0  0  0  0  0  0  0  0  0  0  0
    1.8487   -3.0498    0.0497 H   0  0  0  0  0  0  0  0  0  0  0  0
    0.9646   -2.5217    1.5272 H   0  0  0  0  0  0  0  0  0  0  0  0
   -3.3353    2.3430   -2.1426 H   0  0  0  0  0  0  0  0  0  0  0  0
   -4.8587    1.7748   -1.3682 H   0  0  0  0  0  0  0  0  0  0  0  0
   -3.5122   -1.2591    1.9373 H   0  0  0  0  0  0  0  0  0  0  0  0
   -1.0448   -1.3084    1.8253 H   0  0  0  0  0  0  0  0  0  0  0  0
  1  2  1  0
  2  3  2  0
  3  4  1  0
  4  5  1  0
  4  6  2  0
  6  7  1  0
  6  8  1  0
  8  9  2  0
  9 10  1  0
 10 11  1  0
 10 12  2  0
 12 13  1  0
 13 14  2  0
  7  2  1  0
 14  8  1  0
  1 15  1  0
  1 16  1  0
  1 17  1  0
  5 18  1  0
  5 19  1  0
  5 20  1  0
 11 21  1  0
 11 22  1  0
 13 23  1  0
 14 24  1  0
M  END
$$$$
