
     RDKit          3D

 29 29  0  0  0  0  0  0  0  0999 V2000
   -0.5319    2.9528    1.4300 O   0  0  0  0  0  0  0  0  0  0  0  0
   -1.5005    2.0505    0.9675 C   0  0  0  0  0  0  0  0  0  0  0  0
   -0.8355    0.8870    0.2168 C   0  0  1  0  0  0  0  0  0  0  0  0
    0.0815    0.2535    1.0975 O   0  0  0  0  0  0  0  0  0  0  0  0
    0.8270   -0.7642    0.4417 C   0  0  2  0  0  0  0  0  0  0  0  0
    1.5802   -0.2461   -0.6408 O   0  0  0  0  0  0  0  0  0  0  0  0
    2.9236    0.6197   -0.0380 P   0  0  0  0  0  5  0  0  0  0  0  0
    3.7954    1.2517   -1.3429 O   0  0  0  0  0  0  0  0  0  0  0  0
    3.9309   -0.4151    0.8455 O   0  0  0  0  0  0  0  0  0  0  0  0
    2.4650    1.7582    0.8464 O   0  0  0  0  0  0  0  0  0  0  0  0
   -0.1046   -1.8868   -0.0498 C   0  0  2  0  0  0  0  0  0  0  0  0
    0.6487   -2.8508   -0.7396 O   0  0  0  0  0  0  0  0  0  0  0  0
   -1.1993   -1.3077   -0.9668 C   0  0  1  0  0  0  0  0  0  0  0  0
   -2.1311   -2.2990   -1.3239 O   0  0  0  0  0  0  0  0  0  0  0  0
   -1.8980   -0.1178   -0.2811 C   0  0  2  0  0  0  0  0  0  0  0  0
   -2.7568    0.5158   -1.1950 O   0  0  0  0  0  0  0  0  0  0  0  0
   -0.2221    3.4674    0.6394 H   0  0  0  0  0  0  0  0  0  0  0  0
   -2.0607    1.6576    1.8430 H   0  0  0  0  0  0  0  0  0  0  0  0
   -2.2264    2.5795    0.3087 H   0  0  0  0  0  0  0  0  0  0  0  0
   -0.3028    1.3254   -0.6588 H   0  0  0  0  0  0  0  0  0  0  0  0
    1.4956   -1.2405    1.1955 H   0  0  0  0  0  0  0  0  0  0  0  0
    3.1314    1.7736   -1.8604 H   0  0  0  0  0  0  0  0  0  0  0  0
    4.7084    0.1439    1.0981 H   0  0  0  0  0  0  0  0  0  0  0  0
   -0.5803   -2.3497    0.8478 H   0  0  0  0  0  0  0  0  0  0  0  0
    0.1082   -3.6834   -0.7520 H   0  0  0  0  0  0  0  0  0  0  0  0
   -0.7193   -0.9425   -1.9023 H   0  0  0  0  0  0  0  0  0  0  0  0
   -2.5600   -2.6251   -0.4897 H   0  0  0  0  0  0  0  0  0  0  0  0
   -2.4771   -0.4843    0.6004 H   0  0  0  0  0  0  0  0  0  0  0  0
   -3.5896   -0.0235   -1.2286 H   0  0  0  0  0  0  0  0  0  0  0  0
  1  2  1  0
  2  3  1  0
  3  4  1  0
  4  5  1  0
  5  6  1  0
  6  7  1  0
  7  8  1  0
  7  9  1  0
  7 10  2  0
  5 11  1  0
 11 12  1  0
 11 13  1  0
 13 14  1  0
 13 15  1  0
 15 16  1  0
 15  3  1  0
  1 17  1  0
  2 18  1  0
  2 19  1  0
  3 20  1  6
  5 21  1  1
  8 22  1  0
  9 23  1  0
 11 24  1  1
 12 25  1  0
 13 26  1  6
 14 27  1  0
 15 28  1  1
 16 29  1  0
M  END
$$$$
