
     RDKit          3D

 61 68  0  0  0  0  0  0  0  0999 V2000
    3.0625   -1.1557    0.3185 C   0  0  2  0  0  0  0  0  0  0  0  0
    1.9815   -2.2399    0.4290 C   0  0  0  0  0  0  0  0  0  0  0  0
    0.8195   -1.8263    1.3660 C   0  0  1  0  0  0  0  0  0  0  0  0
    1.0838   -0.6881    2.1588 O   0  0  0  0  0  0  0  0  0  0  0  0
    1.5036    0.4849    1.4640 C   0  0  2  0  0  0  0  0  0  0  0  0
    2.3649    1.2178    2.5265 C   0  0  0  0  0  0  0  0  0  0  0  0
    0.3017    1.2770    1.0994 N   0  0  0  0  0  0  0  0  0  0  0  0
    0.1437    2.6290    0.9300 C   0  0  0  0  0  0  0  0  0  0  0  0
    1.1050    3.6513    1.0183 C   0  0  0  0  0  0  0  0  0  0  0  0
    0.7134    4.9757    0.7617 C   0  0  0  0  0  0  0  0  0  0  0  0
   -0.6091    5.2729    0.3899 C   0  0  0  0  0  0  0  0  0  0  0  0
   -1.5505    4.2458    0.2454 C   0  0  0  0  0  0  0  0  0  0  0  0
   -1.1434    2.9372    0.5150 C   0  0  0  0  0  0  0  0  0  0  0  0
   -1.7965    1.7407    0.3469 C   0  0  0  0  0  0  0  0  0  0  0  0
   -3.0526    1.4240   -0.1941 C   0  0  0  0  0  0  0  0  0  0  0  0
   -4.1446    2.3492   -0.6479 C   0  0  0  0  0  0  0  0  0  0  0  0
   -5.1854    1.4397   -1.1161 N   0  0  0  0  0  0  0  0  0  0  0  0
   -4.7303    0.1027   -0.9699 C   0  0  0  0  0  0  0  0  0  0  0  0
   -5.4399   -0.8945   -1.2507 O   0  0  0  0  0  0  0  0  0  0  0  0
   -3.3899    0.0896   -0.4111 C   0  0  0  0  0  0  0  0  0  0  0  0
   -2.4571   -0.9292   -0.1104 C   0  0  0  0  0  0  0  0  0  0  0  0
   -2.4417   -2.3084   -0.2733 C   0  0  0  0  0  0  0  0  0  0  0  0
   -3.3645   -3.2139   -0.8086 C   0  0  0  0  0  0  0  0  0  0  0  0
   -3.0319   -4.5784   -0.8202 C   0  0  0  0  0  0  0  0  0  0  0  0
   -1.7972   -5.0186   -0.3088 C   0  0  0  0  0  0  0  0  0  0  0  0
   -0.8767   -4.0984    0.2139 C   0  0  0  0  0  0  0  0  0  0  0  0
   -1.2189   -2.7403    0.2134 C   0  0  0  0  0  0  0  0  0  0  0  0
   -0.4637   -1.7073    0.6627 N   0  0  0  0  0  0  0  0  0  0  0  0
   -1.2198   -0.6010    0.4581 C   0  0  0  0  0  0  0  0  0  0  0  0
   -0.8875    0.7493    0.6951 C   0  0  0  0  0  0  0  0  0  0  0  0
    2.3631    0.2022    0.1783 C   0  0  2  0  0  0  0  0  0  0  0  0
    1.5299    0.1665   -0.9772 O   0  0  0  0  0  0  0  0  0  0  0  0
    1.8854    1.1719   -1.9002 C   0  0  0  0  0  0  0  0  0  0  0  0
    3.9389   -1.4001   -0.8449 N   0  0  0  0  0  0  0  0  0  0  0  0
    4.8201   -2.5528   -0.6321 C   0  0  0  0  0  0  0  0  0  0  0  0
    3.6688   -1.1414    1.2546 H   0  0  0  0  0  0  0  0  0  0  0  0
    1.5874   -2.4793   -0.5837 H   0  0  0  0  0  0  0  0  0  0  0  0
    2.4469   -3.1694    0.8234 H   0  0  0  0  0  0  0  0  0  0  0  0
    0.7031   -2.6566    2.0967 H   0  0  0  0  0  0  0  0  0  0  0  0
    1.7237    1.8140    3.2104 H   0  0  0  0  0  0  0  0  0  0  0  0
    3.1612    1.8581    2.1030 H   0  0  0  0  0  0  0  0  0  0  0  0
    2.9112    0.4787    3.1528 H   0  0  0  0  0  0  0  0  0  0  0  0
    2.1400    3.4694    1.2246 H   0  0  0  0  0  0  0  0  0  0  0  0
    1.4415    5.7736    0.8316 H   0  0  0  0  0  0  0  0  0  0  0  0
   -0.8944    6.2970    0.1873 H   0  0  0  0  0  0  0  0  0  0  0  0
   -2.5546    4.4780   -0.0755 H   0  0  0  0  0  0  0  0  0  0  0  0
   -3.7970    2.9870   -1.4875 H   0  0  0  0  0  0  0  0  0  0  0  0
   -4.5223    2.9588    0.1998 H   0  0  0  0  0  0  0  0  0  0  0  0
   -6.1166    1.7260   -1.4915 H   0  0  0  0  0  0  0  0  0  0  0  0
   -4.3075   -2.9091   -1.2180 H   0  0  0  0  0  0  0  0  0  0  0  0
   -3.7302   -5.2977   -1.2282 H   0  0  0  0  0  0  0  0  0  0  0  0
   -1.5539   -6.0731   -0.3238 H   0  0  0  0  0  0  0  0  0  0  0  0
    0.0739   -4.4439    0.5968 H   0  0  0  0  0  0  0  0  0  0  0  0
    3.1647    0.9773    0.0979 H   0  0  0  0  0  0  0  0  0  0  0  0
    1.7995    2.1829   -1.4462 H   0  0  0  0  0  0  0  0  0  0  0  0
    2.9142    1.0064   -2.2882 H   0  0  0  0  0  0  0  0  0  0  0  0
    1.1856    1.1271   -2.7594 H   0  0  0  0  0  0  0  0  0  0  0  0
    4.5664   -0.5702   -0.9645 H   0  0  0  0  0  0  0  0  0  0  0  0
    5.5555   -2.6119   -1.4625 H   0  0  0  0  0  0  0  0  0  0  0  0
    4.2359   -3.4961   -0.6402 H   0  0  0  0  0  0  0  0  0  0  0  0
    5.3814   -2.4604    0.3237 H   0  0  0  0  0  0  0  0  0  0  0  0
  1  2  1  0
  2  3  1  0
  3  4  1  0
  4  5  1  0
  5  6  1  1
  5  7  1  0
  7  8  1  0
  8  9  2  0
  9 10  1  0
 10 11  2  0
 11 12  1  0
 12 13  2  0
 13 14  1  0
 14 15  2  0
 15 16  1  0
 16 17  1  0
 17 18  1  0
 18 19  2  0
 18 20  1  0
 20 21  2  0
 21 22  1  0
 22 23  2  0
 23 24  1  0
 24 25  2  0
 25 26  1  0
 26 27  2  0
 27 28  1  0
 28 29  1  0
 29 30  2  0
  5 31  1  0
 31 32  1  0
 32 33  1  0
  1 34  1  0
 34 35  1  0
 31  1  1  0
 28  3  1  0
 30  7  1  0
 13  8  1  0
 30 14  1  0
 20 15  1  0
 29 21  1  0
 27 22  1  0
  1 36  1  1
  2 37  1  0
  2 38  1  0
  3 39  1  1
  6 40  1  0
  6 41  1  0
  6 42  1  0
  9 43  1  0
 10 44  1  0
 11 45  1  0
 12 46  1  0
 16 47  1  0
 16 48  1  0
 17 49  1  0
 23 50  1  0
 24 51  1  0
 25 52  1  0
 26 53  1  0
 31 54  1  6
 33 55  1  0
 33 56  1  0
 33 57  1  0
 34 58  1  0
 35 59  1  0
 35 60  1  0
 35 61  1  0
M  END
$$$$
