
     RDKit          3D

 51 54  0  0  0  0  0  0  0  0999 V2000
    4.0652    0.2096   -2.1703 C   0  0  0  0  0  0  0  0  0  0  0  0
    3.0615   -0.7960   -1.5746 C   0  0  0  0  0  0  0  0  0  0  0  0
    2.0936   -0.2617   -0.4380 C   0  0  0  0  0  0  0  0  0  0  0  0
    1.5280    1.1172   -0.9069 C   0  0  0  0  0  0  0  0  0  0  0  0
    0.1783    1.5424   -0.3291 C   0  0  0  0  0  0  0  0  0  0  0  0
   -0.8801    0.4360   -0.4647 C   0  0  0  0  0  0  0  0  0  0  0  0
   -0.3916   -0.8209    0.3002 C   0  0  0  0  0  0  0  0  0  0  0  0
   -1.4584   -1.9328    0.1714 C   0  0  0  0  0  0  0  0  0  0  0  0
   -2.7682   -1.5115    0.8212 C   0  0  0  0  0  0  0  0  0  0  0  0
   -3.2603   -0.2212    0.2272 C   0  0  0  0  0  0  0  0  0  0  0  0
   -4.5862   -0.0421    0.0874 C   0  0  0  0  0  0  0  0  0  0  0  0
   -5.1516    1.2501   -0.3197 C   0  0  0  0  0  0  0  0  0  0  0  0
   -6.3941    1.3643   -0.4913 O   0  0  0  0  0  0  0  0  0  0  0  0
   -4.2663    2.4461   -0.4560 C   0  0  0  0  0  0  0  0  0  0  0  0
   -2.8626    2.0206   -0.8883 C   0  0  0  0  0  0  0  0  0  0  0  0
   -2.2742    0.9343    0.0534 C   0  0  0  0  0  0  0  0  0  0  0  0
    0.9824   -1.3437   -0.2330 C   0  0  0  0  0  0  0  0  0  0  0  0
    1.6036   -2.3656    0.7489 C   0  0  0  0  0  0  0  0  0  0  0  0
    2.8223   -1.7124    1.3989 C   0  0  0  0  0  0  0  0  0  0  0  0
    2.8359   -0.2427    0.9478 C   0  0  0  0  0  0  0  0  0  0  0  0
    4.1571    0.2227    0.8242 O   0  0  0  0  0  0  0  0  0  0  0  0
    2.1548    0.5726    1.9813 C   0  0  0  0  0  0  0  0  0  0  0  0
    1.6315    1.2191    2.8554 C   0  0  0  0  0  0  0  0  0  0  0  0
    4.6903    0.7049   -1.4063 H   0  0  0  0  0  0  0  0  0  0  0  0
    3.5472    0.9888   -2.7657 H   0  0  0  0  0  0  0  0  0  0  0  0
    4.7472   -0.3298   -2.8611 H   0  0  0  0  0  0  0  0  0  0  0  0
    3.6318   -1.6796   -1.2192 H   0  0  0  0  0  0  0  0  0  0  0  0
    2.4574   -1.1545   -2.4368 H   0  0  0  0  0  0  0  0  0  0  0  0
    1.3794    1.0913   -2.0097 H   0  0  0  0  0  0  0  0  0  0  0  0
    2.2734    1.9152   -0.6981 H   0  0  0  0  0  0  0  0  0  0  0  0
    0.2687    1.8669    0.7228 H   0  0  0  0  0  0  0  0  0  0  0  0
   -0.1282    2.4412   -0.8995 H   0  0  0  0  0  0  0  0  0  0  0  0
   -0.9788    0.1722   -1.5430 H   0  0  0  0  0  0  0  0  0  0  0  0
   -0.2866   -0.5584    1.3770 H   0  0  0  0  0  0  0  0  0  0  0  0
   -1.1255   -2.8716    0.6593 H   0  0  0  0  0  0  0  0  0  0  0  0
   -1.6395   -2.1672   -0.9017 H   0  0  0  0  0  0  0  0  0  0  0  0
   -2.6185   -1.3732    1.9140 H   0  0  0  0  0  0  0  0  0  0  0  0
   -3.5075   -2.3308    0.6780 H   0  0  0  0  0  0  0  0  0  0  0  0
   -5.2719   -0.8582    0.2847 H   0  0  0  0  0  0  0  0  0  0  0  0
   -4.6876    3.1455   -1.2103 H   0  0  0  0  0  0  0  0  0  0  0  0
   -4.2152    2.9710    0.5223 H   0  0  0  0  0  0  0  0  0  0  0  0
   -2.2344    2.9332   -0.8831 H   0  0  0  0  0  0  0  0  0  0  0  0
   -2.9043    1.6342   -1.9311 H   0  0  0  0  0  0  0  0  0  0  0  0
   -2.1339    1.3890    1.0598 H   0  0  0  0  0  0  0  0  0  0  0  0
    0.7687   -1.8579   -1.1975 H   0  0  0  0  0  0  0  0  0  0  0  0
    0.9017   -2.6845    1.5479 H   0  0  0  0  0  0  0  0  0  0  0  0
    1.9185   -3.2771    0.1945 H   0  0  0  0  0  0  0  0  0  0  0  0
    2.7904   -1.8203    2.5072 H   0  0  0  0  0  0  0  0  0  0  0  0
    3.7438   -2.2301    1.0514 H   0  0  0  0  0  0  0  0  0  0  0  0
    4.6223    0.0695    1.6895 H   0  0  0  0  0  0  0  0  0  0  0  0
    1.1704    1.7859    3.6207 H   0  0  0  0  0  0  0  0  0  0  0  0
  1  2  1  0
  2  3  1  0
  3  4  1  0
  4  5  1  0
  5  6  1  0
  6  7  1  0
  7  8  1  0
  8  9  1  0
  9 10  1  0
 10 11  2  0
 11 12  1  0
 12 13  2  0
 12 14  1  0
 14 15  1  0
 15 16  1  0
  7 17  1  0
 17 18  1  0
 18 19  1  0
 19 20  1  0
 20 21  1  0
 20 22  1  0
 22 23  3  0
 17  3  1  0
 20  3  1  0
 16  6  1  0
 16 10  1  0
  1 24  1  0
  1 25  1  0
  1 26  1  0
  2 27  1  0
  2 28  1  0
  4 29  1  0
  4 30  1  0
  5 31  1  0
  5 32  1  0
  6 33  1  0
  7 34  1  0
  8 35  1  0
  8 36  1  0
  9 37  1  0
  9 38  1  0
 11 39  1  0
 14 40  1  0
 14 41  1  0
 15 42  1  0
 15 43  1  0
 16 44  1  0
 17 45  1  0
 18 46  1  0
 18 47  1  0
 19 48  1  0
 19 49  1  0
 21 50  1  0
 23 51  1  0
M  END
$$$$
