
     RDKit          3D

 32 33  0  0  0  0  0  0  0  0999 V2000
   -2.9614   -0.0141   -0.3209 C   0  0  1  0  0  0  0  0  0  0  0  0
   -3.9176   -0.3195    0.8417 C   0  0  0  0  0  0  0  0  0  0  0  0
   -3.0718    1.3414   -0.6710 O   0  0  0  0  0  0  0  0  0  0  0  0
   -1.4915   -0.4013    0.0195 C   0  0  1  0  0  0  0  0  0  0  0  0
   -1.4535   -1.7088    0.5414 O   0  0  0  0  0  0  0  0  0  0  0  0
   -0.5277   -0.2934   -1.2033 C   0  0  1  0  0  0  0  0  0  0  0  0
   -0.0800    1.1530   -1.5058 C   0  0  0  0  0  0  0  0  0  0  0  0
    0.8078    1.6430   -0.4513 N   0  0  0  0  0  0  0  0  0  0  0  0
    1.7961    0.7776    0.1252 C   0  0  0  0  0  0  0  0  0  0  0  0
    1.7369   -0.5986   -0.1347 C   0  0  0  0  0  0  0  0  0  0  0  0
    0.6737   -1.1029   -0.9621 N   0  0  0  0  0  0  0  0  0  0  0  0
    2.7251   -1.4266    0.4289 C   0  0  0  0  0  0  0  0  0  0  0  0
    2.7316   -2.8100    0.2489 O   0  0  0  0  0  0  0  0  0  0  0  0
    3.6993   -0.8691    1.1939 N   0  0  0  0  0  0  0  0  0  0  0  0
    3.7385    0.4660    1.4406 C   0  0  0  0  0  0  0  0  0  0  0  0
    4.6863    0.9481    2.1796 N   0  0  0  0  0  0  0  0  0  0  0  0
    2.7837    1.2838    0.9127 N   0  0  0  0  0  0  0  0  0  0  0  0
   -3.2960   -0.6181   -1.1923 H   0  0  0  0  0  0  0  0  0  0  0  0
   -3.5818    0.1942    1.7678 H   0  0  0  0  0  0  0  0  0  0  0  0
   -3.9678   -1.4126    1.0310 H   0  0  0  0  0  0  0  0  0  0  0  0
   -4.9404    0.0325    0.5892 H   0  0  0  0  0  0  0  0  0  0  0  0
   -2.7833    1.8781    0.1136 H   0  0  0  0  0  0  0  0  0  0  0  0
   -1.1282    0.2756    0.8234 H   0  0  0  0  0  0  0  0  0  0  0  0
   -1.7701   -2.3232   -0.1723 H   0  0  0  0  0  0  0  0  0  0  0  0
   -1.0464   -0.6957   -2.1018 H   0  0  0  0  0  0  0  0  0  0  0  0
   -0.9333    1.8441   -1.6384 H   0  0  0  0  0  0  0  0  0  0  0  0
    0.4828    1.1521   -2.4643 H   0  0  0  0  0  0  0  0  0  0  0  0
    0.7403    2.6396   -0.1455 H   0  0  0  0  0  0  0  0  0  0  0  0
    0.7757   -2.0046   -1.4771 H   0  0  0  0  0  0  0  0  0  0  0  0
    2.0043   -3.3103   -0.2435 H   0  0  0  0  0  0  0  0  0  0  0  0
    4.7567    1.9676    2.3969 H   0  0  0  0  0  0  0  0  0  0  0  0
    2.8122    2.3121    1.0998 H   0  0  0  0  0  0  0  0  0  0  0  0
  1  2  1  0
  1  3  1  0
  1  4  1  0
  4  5  1  0
  4  6  1  0
  6  7  1  0
  7  8  1  0
  8  9  1  0
  9 10  2  0
 10 11  1  0
 10 12  1  0
 12 13  1  0
 12 14  2  0
 14 15  1  0
 15 16  2  3
 15 17  1  0
 11  6  1  0
 17  9  1  0
  1 18  1  6
  2 19  1  0
  2 20  1  0
  2 21  1  0
  3 22  1  0
  4 23  1  1
  5 24  1  0
  6 25  1  6
  7 26  1  0
  7 27  1  0
  8 28  1  0
 11 29  1  0
 13 30  1  0
 16 31  1  0
 17 32  1  0
M  END
$$$$
