
     RDKit          3D

 62 66  0  0  0  0  0  0  0  0999 V2000
   -6.1904   -3.5802    1.0937 C   0  0  0  0  0  0  0  0  0  0  0  0
   -5.9433   -2.6074   -0.0174 C   0  0  0  0  0  0  0  0  0  0  0  0
   -6.7999   -2.4922   -0.9344 O   0  0  0  0  0  0  0  0  0  0  0  0
   -4.7401   -1.7394   -0.0248 C   0  0  0  0  0  0  0  0  0  0  0  0
   -3.4365   -2.2813   -0.0401 C   0  0  0  0  0  0  0  0  0  0  0  0
   -3.2144   -3.7733   -0.1978 C   0  0  0  0  0  0  0  0  0  0  0  0
   -2.3386   -1.4024    0.0840 C   0  0  0  0  0  0  0  0  0  0  0  0
   -1.0093   -1.8603    0.1872 C   0  0  0  0  0  0  0  0  0  0  0  0
    0.0146   -0.9780    0.2850 N   0  0  0  0  0  0  0  0  0  0  0  0
   -0.2075    0.3596    0.2792 C   0  0  0  0  0  0  0  0  0  0  0  0
    0.8783    1.2881    0.4107 N   0  0  0  0  0  0  0  0  0  0  0  0
    2.2644    0.9443    0.2624 C   0  0  0  0  0  0  0  0  0  0  0  0
    3.1932    1.6130    0.9988 N   0  0  0  0  0  0  0  0  0  0  0  0
    4.5243    1.3603    0.8886 C   0  0  0  0  0  0  0  0  0  0  0  0
    4.9882    0.3922   -0.0135 C   0  0  0  0  0  0  0  0  0  0  0  0
    4.0500   -0.2973   -0.7958 C   0  0  0  0  0  0  0  0  0  0  0  0
    2.6888   -0.0176   -0.6683 C   0  0  0  0  0  0  0  0  0  0  0  0
    6.3972    0.1157   -0.1296 N   0  0  0  0  0  0  0  0  0  0  0  0
    7.3322    1.2022   -0.4445 C   0  0  0  0  0  0  0  0  0  0  0  0
    8.6836    0.9350    0.2213 C   0  0  0  0  0  0  0  0  0  0  0  0
    9.1700   -0.4041   -0.1339 N   0  0  0  0  0  0  0  0  0  0  0  0
    8.2410   -1.4319    0.3528 C   0  0  0  0  0  0  0  0  0  0  0  0
    6.8680   -1.2633   -0.3028 C   0  0  0  0  0  0  0  0  0  0  0  0
   -1.4794    0.8244    0.2111 N   0  0  0  0  0  0  0  0  0  0  0  0
   -2.5573   -0.0050    0.1157 C   0  0  0  0  0  0  0  0  0  0  0  0
   -3.8328    0.5128    0.0556 N   0  0  0  0  0  0  0  0  0  0  0  0
   -4.0366    1.9926    0.0614 C   0  0  0  0  0  0  0  0  0  0  0  0
   -4.9028    2.4759    1.2372 C   0  0  0  0  0  0  0  0  0  0  0  0
   -6.0721    3.2408    0.6278 C   0  0  0  0  0  0  0  0  0  0  0  0
   -5.6526    3.5982   -0.7888 C   0  0  0  0  0  0  0  0  0  0  0  0
   -4.6968    2.5010   -1.2263 C   0  0  0  0  0  0  0  0  0  0  0  0
   -4.9130   -0.3424    0.0019 C   0  0  0  0  0  0  0  0  0  0  0  0
   -6.0886    0.1201   -0.0118 O   0  0  0  0  0  0  0  0  0  0  0  0
   -7.1434   -3.3251    1.6025 H   0  0  0  0  0  0  0  0  0  0  0  0
   -5.3708   -3.5463    1.8423 H   0  0  0  0  0  0  0  0  0  0  0  0
   -6.2641   -4.6084    0.6823 H   0  0  0  0  0  0  0  0  0  0  0  0
   -2.4082   -3.9690   -0.9350 H   0  0  0  0  0  0  0  0  0  0  0  0
   -4.1046   -4.2984   -0.5969 H   0  0  0  0  0  0  0  0  0  0  0  0
   -2.9409   -4.2173    0.7821 H   0  0  0  0  0  0  0  0  0  0  0  0
   -0.7700   -2.9135    0.2108 H   0  0  0  0  0  0  0  0  0  0  0  0
    0.6499    2.2596    0.7206 H   0  0  0  0  0  0  0  0  0  0  0  0
    5.2185    1.9037    1.5157 H   0  0  0  0  0  0  0  0  0  0  0  0
    4.3728   -1.0340   -1.5202 H   0  0  0  0  0  0  0  0  0  0  0  0
    1.9826   -0.5263   -1.3105 H   0  0  0  0  0  0  0  0  0  0  0  0
    6.9451    2.1829   -0.0953 H   0  0  0  0  0  0  0  0  0  0  0  0
    7.4662    1.2586   -1.5465 H   0  0  0  0  0  0  0  0  0  0  0  0
    9.4147    1.6951   -0.1294 H   0  0  0  0  0  0  0  0  0  0  0  0
    8.5874    1.0359    1.3263 H   0  0  0  0  0  0  0  0  0  0  0  0
   10.0864   -0.5486    0.3509 H   0  0  0  0  0  0  0  0  0  0  0  0
    8.1406   -1.3738    1.4606 H   0  0  0  0  0  0  0  0  0  0  0  0
    8.6407   -2.4371    0.0982 H   0  0  0  0  0  0  0  0  0  0  0  0
    6.1580   -1.9789    0.1670 H   0  0  0  0  0  0  0  0  0  0  0  0
    6.9411   -1.4944   -1.3877 H   0  0  0  0  0  0  0  0  0  0  0  0
   -3.0739    2.5416    0.1455 H   0  0  0  0  0  0  0  0  0  0  0  0
   -5.2639    1.6451    1.8805 H   0  0  0  0  0  0  0  0  0  0  0  0
   -4.3112    3.1628    1.8829 H   0  0  0  0  0  0  0  0  0  0  0  0
   -6.3108    4.1529    1.2168 H   0  0  0  0  0  0  0  0  0  0  0  0
   -6.9722    2.5888    0.5951 H   0  0  0  0  0  0  0  0  0  0  0  0
   -5.1191    4.5745   -0.7816 H   0  0  0  0  0  0  0  0  0  0  0  0
   -6.5310    3.6662   -1.4665 H   0  0  0  0  0  0  0  0  0  0  0  0
   -5.2639    1.7034   -1.7504 H   0  0  0  0  0  0  0  0  0  0  0  0
   -3.9380    2.9001   -1.9347 H   0  0  0  0  0  0  0  0  0  0  0  0
  1  2  1  0
  2  3  2  0
  2  4  1  0
  4  5  2  0
  5  6  1  0
  5  7  1  0
  7  8  2  0
  8  9  1  0
  9 10  2  0
 10 11  1  0
 11 12  1  0
 12 13  2  0
 13 14  1  0
 14 15  2  0
 15 16  1  0
 16 17  2  0
 15 18  1  0
 18 19  1  0
 19 20  1  0
 20 21  1  0
 21 22  1  0
 22 23  1  0
 10 24  1  0
 24 25  2  0
 25 26  1  0
 26 27  1  0
 27 28  1  0
 28 29  1  0
 29 30  1  0
 30 31  1  0
 26 32  1  0
 32 33  2  0
 32  4  1  0
 25  7  1  0
 31 27  1  0
 17 12  1  0
 23 18  1  0
  1 34  1  0
  1 35  1  0
  1 36  1  0
  6 37  1  0
  6 38  1  0
  6 39  1  0
  8 40  1  0
 11 41  1  0
 14 42  1  0
 16 43  1  0
 17 44  1  0
 19 45  1  0
 19 46  1  0
 20 47  1  0
 20 48  1  0
 21 49  1  0
 22 50  1  0
 22 51  1  0
 23 52  1  0
 23 53  1  0
 27 54  1  0
 28 55  1  0
 28 56  1  0
 29 57  1  0
 29 58  1  0
 30 59  1  0
 30 60  1  0
 31 61  1  0
 31 62  1  0
M  END
$$$$
