
     RDKit          3D

 52 54  0  0  0  0  0  0  0  0999 V2000
   -2.8451    3.6354   -1.5440 C   0  0  0  0  0  0  0  0  0  0  0  0
   -3.2557    2.2391   -1.3290 N   0  0  0  0  0  0  0  0  0  0  0  0
   -3.5385    1.6023   -2.6276 C   0  0  0  0  0  0  0  0  0  0  0  0
   -2.1968    1.5061   -0.6054 C   0  0  0  0  0  0  0  0  0  0  0  0
   -2.7405    0.2218   -0.0361 C   0  0  0  0  0  0  0  0  0  0  0  0
   -2.4046   -1.0980   -0.3644 C   0  0  0  0  0  0  0  0  0  0  0  0
   -3.2290   -1.9405    0.2331 O   0  0  0  0  0  0  0  0  0  0  0  0
   -4.0758   -1.2371    0.9442 C   0  0  0  0  0  0  0  0  0  0  0  0
   -5.1220   -1.7111    1.7323 C   0  0  0  0  0  0  0  0  0  0  0  0
   -5.9244   -0.7659    2.3977 C   0  0  0  0  0  0  0  0  0  0  0  0
   -5.6664    0.6162    2.2584 C   0  0  0  0  0  0  0  0  0  0  0  0
   -4.6022    1.0649    1.4549 C   0  0  0  0  0  0  0  0  0  0  0  0
   -3.8194    0.1025    0.8161 C   0  0  0  0  0  0  0  0  0  0  0  0
   -1.3168   -1.5506   -1.2440 C   0  0  0  0  0  0  0  0  0  0  0  0
   -1.5120   -2.5475   -1.9897 O   0  0  0  0  0  0  0  0  0  0  0  0
   -0.0313   -0.9143   -1.2122 N   0  0  0  0  0  0  0  0  0  0  0  0
    1.0374   -1.2515   -2.1501 C   0  0  0  0  0  0  0  0  0  0  0  0
    1.7320   -2.5527   -1.7374 C   0  0  0  0  0  0  0  0  0  0  0  0
    2.1870   -2.4854   -0.3850 O   0  0  0  0  0  0  0  0  0  0  0  0
    3.2855   -1.7395    0.0724 C   0  0  0  0  0  0  0  0  0  0  0  0
    4.1831   -1.0916   -0.7963 C   0  0  0  0  0  0  0  0  0  0  0  0
    5.2586   -0.3608   -0.2830 C   0  0  0  0  0  0  0  0  0  0  0  0
    5.4579   -0.2576    1.1049 C   0  0  0  0  0  0  0  0  0  0  0  0
    4.5681   -0.9215    1.9679 C   0  0  0  0  0  0  0  0  0  0  0  0
    3.4940   -1.6526    1.4526 C   0  0  0  0  0  0  0  0  0  0  0  0
    6.6064    0.5186    1.6331 C   0  0  0  0  0  0  0  0  0  0  0  0
    7.6087    0.7248    0.8958 O   0  0  0  0  0  0  0  0  0  0  0  0
    6.5970    1.0563    2.9612 N   0  0  0  0  0  0  0  0  0  0  0  0
    7.6972    1.6716    3.4568 O   0  0  0  0  0  0  0  0  0  0  0  0
   -1.8982    3.6926   -2.1266 H   0  0  0  0  0  0  0  0  0  0  0  0
   -2.7021    4.1458   -0.5674 H   0  0  0  0  0  0  0  0  0  0  0  0
   -3.6399    4.1912   -2.0870 H   0  0  0  0  0  0  0  0  0  0  0  0
   -4.3543    2.1463   -3.1506 H   0  0  0  0  0  0  0  0  0  0  0  0
   -3.8897    0.5592   -2.4789 H   0  0  0  0  0  0  0  0  0  0  0  0
   -2.6362    1.5908   -3.2792 H   0  0  0  0  0  0  0  0  0  0  0  0
   -1.8284    2.1079    0.2548 H   0  0  0  0  0  0  0  0  0  0  0  0
   -1.3298    1.3233   -1.2735 H   0  0  0  0  0  0  0  0  0  0  0  0
   -5.3145   -2.7719    1.8260 H   0  0  0  0  0  0  0  0  0  0  0  0
   -6.7464   -1.0999    3.0173 H   0  0  0  0  0  0  0  0  0  0  0  0
   -6.2921    1.3346    2.7717 H   0  0  0  0  0  0  0  0  0  0  0  0
   -4.3994    2.1220    1.3415 H   0  0  0  0  0  0  0  0  0  0  0  0
    0.1723   -0.2081   -0.4696 H   0  0  0  0  0  0  0  0  0  0  0  0
    0.6239   -1.3513   -3.1769 H   0  0  0  0  0  0  0  0  0  0  0  0
    1.7766   -0.4237   -2.1700 H   0  0  0  0  0  0  0  0  0  0  0  0
    1.0091   -3.3907   -1.8195 H   0  0  0  0  0  0  0  0  0  0  0  0
    2.5729   -2.7847   -2.4245 H   0  0  0  0  0  0  0  0  0  0  0  0
    4.0664   -1.1475   -1.8689 H   0  0  0  0  0  0  0  0  0  0  0  0
    5.9310    0.1325   -0.9742 H   0  0  0  0  0  0  0  0  0  0  0  0
    4.7090   -0.9012    3.0399 H   0  0  0  0  0  0  0  0  0  0  0  0
    2.8188   -2.1580    2.1316 H   0  0  0  0  0  0  0  0  0  0  0  0
    5.7269    1.0502    3.5373 H   0  0  0  0  0  0  0  0  0  0  0  0
    8.1916    0.9590    3.9368 H   0  0  0  0  0  0  0  0  0  0  0  0
  1  2  1  0
  2  3  1  0
  2  4  1  0
  4  5  1  0
  5  6  2  0
  6  7  1  0
  7  8  1  0
  8  9  2  0
  9 10  1  0
 10 11  2  0
 11 12  1  0
 12 13  2  0
  6 14  1  0
 14 15  2  0
 14 16  1  0
 16 17  1  0
 17 18  1  0
 18 19  1  0
 19 20  1  0
 20 21  2  0
 21 22  1  0
 22 23  2  0
 23 24  1  0
 24 25  2  0
 23 26  1  0
 26 27  2  0
 26 28  1  0
 28 29  1  0
 13  5  1  0
 25 20  1  0
 13  8  1  0
  1 30  1  0
  1 31  1  0
  1 32  1  0
  3 33  1  0
  3 34  1  0
  3 35  1  0
  4 36  1  0
  4 37  1  0
  9 38  1  0
 10 39  1  0
 11 40  1  0
 12 41  1  0
 16 42  1  0
 17 43  1  0
 17 44  1  0
 18 45  1  0
 18 46  1  0
 21 47  1  0
 22 48  1  0
 24 49  1  0
 25 50  1  0
 28 51  1  0
 29 52  1  0
M  END
$$$$
