
     RDKit          3D

 21 20  0  0  0  0  0  0  0  0999 V2000
    1.5974    1.0175   -1.4990 N   0  0  0  0  0  0  0  0  0  0  0  0
    1.3485    1.0924   -0.0570 C   0  0  1  0  0  0  0  0  0  0  0  0
    0.4514   -0.0601    0.4254 C   0  0  0  0  0  0  0  0  0  0  0  0
   -0.8661    0.0361   -0.1981 N   0  0  0  0  0  0  0  0  0  0  0  0
   -1.8574   -0.7840    0.0026 C   0  0  0  0  0  0  0  0  0  0  0  0
   -1.7388   -1.9016    0.8931 N   0  0  0  0  0  0  0  0  0  0  0  0
   -3.0947   -0.5651   -0.6810 N   0  0  0  0  0  0  0  0  0  0  0  0
   -3.2387    0.4715   -1.5414 O   0  0  0  0  0  0  0  0  0  0  0  0
    2.6577    1.0720    0.6778 C   0  0  0  0  0  0  0  0  0  0  0  0
    3.5498    0.0207    0.4852 O   0  0  0  0  0  0  0  0  0  0  0  0
    2.9454    1.9993    1.4813 O   0  0  0  0  0  0  0  0  0  0  0  0
    0.6996    1.1886   -2.0074 H   0  0  0  0  0  0  0  0  0  0  0  0
    1.9213    0.0548   -1.7513 H   0  0  0  0  0  0  0  0  0  0  0  0
    0.8342    2.0554    0.1641 H   0  0  0  0  0  0  0  0  0  0  0  0
    0.3370    0.0057    1.5303 H   0  0  0  0  0  0  0  0  0  0  0  0
    0.9177   -1.0369    0.1681 H   0  0  0  0  0  0  0  0  0  0  0  0
   -2.5506   -2.5425    1.0341 H   0  0  0  0  0  0  0  0  0  0  0  0
   -0.8617   -2.1082    1.4187 H   0  0  0  0  0  0  0  0  0  0  0  0
   -3.8941   -1.2219   -0.5374 H   0  0  0  0  0  0  0  0  0  0  0  0
   -3.5914    1.2142   -0.9876 H   0  0  0  0  0  0  0  0  0  0  0  0
    4.4336   -0.0078    0.9795 H   0  0  0  0  0  0  0  0  0  0  0  0
  1  2  1  0
  2  3  1  0
  3  4  1  0
  4  5  2  0
  5  6  1  0
  5  7  1  0
  7  8  1  0
  2  9  1  0
  9 10  1  0
  9 11  2  0
  1 12  1  0
  1 13  1  0
  2 14  1  6
  3 15  1  0
  3 16  1  0
  6 17  1  0
  6 18  1  0
  7 19  1  0
  8 20  1  0
 10 21  1  0
M  END
$$$$
