
     RDKit          2D

104107  0  0  0  0  0  0  0  0999 V2000
    1.0753    2.5500    0.0000 C   0  0  0  0  0  0  0  0  0  0  0  0
    0.3943    1.2135    0.0000 C   0  0  0  0  0  0  0  0  0  0  0  0
    1.2760    0.0000    0.0000 C   0  0  0  0  0  0  0  0  0  0  0  0
    2.3907   -1.0037    0.0000 C   0  0  0  0  0  0  0  0  0  0  0  0
    3.5054   -2.0074    0.0000 O   0  0  0  0  0  0  0  0  0  0  0  0
    3.1935   -3.4746    0.0000 C   0  0  0  0  0  0  0  0  0  0  0  0
    0.3943   -1.2135    0.0000 C   0  0  0  0  0  0  0  0  0  0  0  0
   -1.0323   -0.7500    0.0000 C   0  0  0  0  0  0  0  0  0  0  0  0
   -1.0323    0.7500    0.0000 C   0  0  0  0  0  0  0  0  0  0  0  0
   -2.3688    1.4310    0.0000 C   0  0  0  0  0  0  0  0  0  0  0  0
   -3.8667    1.3525    0.0000 C   0  0  0  0  0  0  0  0  0  0  0  0
   -2.8323    2.8576    0.0000 C   0  0  0  0  0  0  0  0  0  0  0  0
   -3.9470    3.8613    0.0000 O   0  0  0  0  0  0  0  0  0  0  0  0
   -2.1513    4.1941    0.0000 C   0  0  0  0  0  0  0  0  0  0  0  0
   -2.2298    5.6920    0.0000 O   0  0  0  0  0  0  0  0  0  0  0  0
   -3.5663    6.3730    0.0000 C   0  0  0  0  0  0  0  0  0  0  0  0
   -2.6636    7.5710    0.0000 O   0  0  0  0  0  0  0  0  0  0  0  0
   -3.2497    8.9517    0.0000 C   0  0  0  0  0  0  0  0  0  0  0  0
   -4.7385    9.1345    0.0000 C   0  0  0  0  0  0  0  0  0  0  0  0
   -6.2274    9.3173    0.0000 O   0  0  0  0  0  0  0  0  0  0  0  0
   -6.8135   10.6981    0.0000 C   0  0  0  0  0  0  0  0  0  0  0  0
   -8.1942   10.1120    0.0000 C   0  0  0  0  0  0  0  0  0  0  0  0
   -5.4327   11.2842    0.0000 C   0  0  0  0  0  0  0  0  0  0  0  0
   -7.3996   12.0788    0.0000 C   0  0  0  0  0  0  0  0  0  0  0  0
   -6.4968   13.2768    0.0000 C   0  0  0  0  0  0  0  0  0  0  0  0
   -4.7385    9.1345    0.0000 C   0  0  0  0  0  0  0  0  0  0  0  0
   -4.3000   10.5690    0.0000 O   0  0  0  0  0  0  0  0  0  0  0  0
   -5.6413    7.9366    0.0000 C   0  0  0  0  0  0  0  0  0  0  0  0
   -6.6643    9.0336    0.0000 O   0  0  0  0  0  0  0  0  0  0  0  0
   -8.1258    8.6962    0.0000 C   0  0  0  0  0  0  0  0  0  0  0  0
   -9.1488    9.7932    0.0000 C   0  0  0  0  0  0  0  0  0  0  0  0
   -8.5644    7.2617    0.0000 O   0  0  0  0  0  0  0  0  0  0  0  0
   -5.0552    6.5558    0.0000 C   0  0  0  0  0  0  0  0  0  0  0  0
   -6.5167    6.2184    0.0000 O   0  0  0  0  0  0  0  0  0  0  0  0
   -0.7248    4.6576    0.0000 C   0  0  0  0  0  0  0  0  0  0  0  0
   -0.4901    6.1391    0.0000 C   0  0  0  0  0  0  0  0  0  0  0  0
    0.9914    6.3738    0.0000 C   0  0  0  0  0  0  0  0  0  0  0  0
    1.6724    5.0373    0.0000 C   0  0  0  0  0  0  0  0  0  0  0  0
    2.6164    3.8716    0.0000 O   0  0  0  0  0  0  0  0  0  0  0  0
    0.6118    3.9766    0.0000 C   0  0  0  0  0  0  0  0  0  0  0  0
    2.0703    3.6265    0.0000 C   0  0  0  0  0  0  0  0  0  0  0  0
   -1.5508    7.1998    0.0000 C   0  0  0  0  0  0  0  0  0  0  0  0
   -0.4901    8.2605    0.0000 C   0  0  0  0  0  0  0  0  0  0  0  0
   -2.6114    8.2605    0.0000 C   0  0  0  0  0  0  0  0  0  0  0  0
   -3.6721    9.3211    0.0000 O   0  0  0  0  0  0  0  0  0  0  0  0
   -3.2839   10.7700    0.0000 C   0  0  0  0  0  0  0  0  0  0  0  0
   -4.3445   11.8307    0.0000 C   0  0  0  0  0  0  0  0  0  0  0  0
   -1.8350   11.1582    0.0000 O   0  0  0  0  0  0  0  0  0  0  0  0
    2.5452    2.2509    0.0000 H   0  0  0  0  0  0  0  0  0  0  0  0
    2.3907    1.0037    0.0000 H   0  0  0  0  0  0  0  0  0  0  0  0
    1.5304   -2.2324    0.0000 H   0  0  0  0  0  0  0  0  0  0  0  0
    3.3944    0.1110    0.0000 H   0  0  0  0  0  0  0  0  0  0  0  0
    4.6608   -3.7865    0.0000 H   0  0  0  0  0  0  0  0  0  0  0  0
    1.7263   -3.1627    0.0000 H   0  0  0  0  0  0  0  0  0  0  0  0
    2.8817   -4.9418    0.0000 H   0  0  0  0  0  0  0  0  0  0  0  0
    1.5922   -2.1163    0.0000 H   0  0  0  0  0  0  0  0  0  0  0  0
   -0.2158   -2.5838    0.0000 H   0  0  0  0  0  0  0  0  0  0  0  0
   -1.3442   -2.2172    0.0000 H   0  0  0  0  0  0  0  0  0  0  0  0
   -2.5177   -0.9588    0.0000 H   0  0  0  0  0  0  0  0  0  0  0  0
   -2.3112   -0.0337    0.0000 H   0  0  0  0  0  0  0  0  0  0  0  0
   -3.0264    0.0828    0.0000 H   0  0  0  0  0  0  0  0  0  0  0  0
   -4.1273    2.8297    0.0000 H   0  0  0  0  0  0  0  0  0  0  0  0
   -3.7882   -0.1455    0.0000 H   0  0  0  0  0  0  0  0  0  0  0  0
   -5.3647    1.2740    0.0000 H   0  0  0  0  0  0  0  0  0  0  0  0
   -4.2996    2.5458    0.0000 H   0  0  0  0  0  0  0  0  0  0  0  0
   -3.9995    5.3603    0.0000 H   0  0  0  0  0  0  0  0  0  0  0  0
   -3.4995    4.8517    0.0000 H   0  0  0  0  0  0  0  0  0  0  0  0
   -4.3390    5.0873    0.0000 H   0  0  0  0  0  0  0  0  0  0  0  0
   -2.9634   10.4241    0.0000 H   0  0  0  0  0  0  0  0  0  0  0  0
   -5.2762    7.7342    0.0000 H   0  0  0  0  0  0  0  0  0  0  0  0
   -4.9214   10.6233    0.0000 H   0  0  0  0  0  0  0  0  0  0  0  0
   -8.9443   11.4110    0.0000 H   0  0  0  0  0  0  0  0  0  0  0  0
   -7.9596    8.6304    0.0000 H   0  0  0  0  0  0  0  0  0  0  0  0
   -9.6758    9.8774    0.0000 H   0  0  0  0  0  0  0  0  0  0  0  0
   -5.8461   12.7261    0.0000 H   0  0  0  0  0  0  0  0  0  0  0  0
   -4.3906   10.2053    0.0000 H   0  0  0  0  0  0  0  0  0  0  0  0
   -4.2348   12.1870    0.0000 H   0  0  0  0  0  0  0  0  0  0  0  0
   -8.8550   12.4418    0.0000 H   0  0  0  0  0  0  0  0  0  0  0  0
   -7.0829   14.6576    0.0000 H   0  0  0  0  0  0  0  0  0  0  0  0
   -4.9968   13.2768    0.0000 H   0  0  0  0  0  0  0  0  0  0  0  0
   -6.2001    9.4719    0.0000 H   0  0  0  0  0  0  0  0  0  0  0  0
   -5.1816   11.7825    0.0000 H   0  0  0  0  0  0  0  0  0  0  0  0
   -6.9895    7.2791    0.0000 H   0  0  0  0  0  0  0  0  0  0  0  0
  -10.2458    8.7702    0.0000 H   0  0  0  0  0  0  0  0  0  0  0  0
   -8.3319   11.0513    0.0000 H   0  0  0  0  0  0  0  0  0  0  0  0
  -10.1718   10.8902    0.0000 H   0  0  0  0  0  0  0  0  0  0  0  0
   -4.9767    5.0579    0.0000 H   0  0  0  0  0  0  0  0  0  0  0  0
   -7.6658    7.1825    0.0000 H   0  0  0  0  0  0  0  0  0  0  0  0
    0.7827    7.8592    0.0000 H   0  0  0  0  0  0  0  0  0  0  0  0
    2.3918    6.9113    0.0000 H   0  0  0  0  0  0  0  0  0  0  0  0
    2.9304    5.8542    0.0000 H   0  0  0  0  0  0  0  0  0  0  0  0
    4.0979    4.1062    0.0000 H   0  0  0  0  0  0  0  0  0  0  0  0
    2.7630    4.9569    0.0000 H   0  0  0  0  0  0  0  0  0  0  0  0
    2.2662    2.1393    0.0000 H   0  0  0  0  0  0  0  0  0  0  0  0
    3.5289    3.2763    0.0000 H   0  0  0  0  0  0  0  0  0  0  0  0
   -2.8366    6.4273    0.0000 H   0  0  0  0  0  0  0  0  0  0  0  0
   -1.4136    9.4425    0.0000 H   0  0  0  0  0  0  0  0  0  0  0  0
    0.6919    7.3370    0.0000 H   0  0  0  0  0  0  0  0  0  0  0  0
    0.5706    9.3211    0.0000 H   0  0  0  0  0  0  0  0  0  0  0  0
   -3.6721    7.1998    0.0000 H   0  0  0  0  0  0  0  0  0  0  0  0
   -1.6880    9.4425    0.0000 H   0  0  0  0  0  0  0  0  0  0  0  0
   -3.2839   12.8913    0.0000 H   0  0  0  0  0  0  0  0  0  0  0  0
   -5.4052   10.7700    0.0000 H   0  0  0  0  0  0  0  0  0  0  0  0
   -5.1170   13.1165    0.0000 H   0  0  0  0  0  0  0  0  0  0  0  0
  1  2  2  0
  2  3  1  0
  3  4  1  0
  4  5  1  0
  5  6  1  0
  3  7  1  0
  7  8  1  0
  8  9  1  0
  9 10  1  0
 10 11  1  0
 10 12  1  0
 12 13  1  0
 12 14  1  0
 14 15  1  0
 15 16  1  0
 16 17  1  0
 17 18  1  0
 18 19  1  0
 19 20  1  0
 20 21  1  0
 21 22  1  0
 21 23  1  0
 21 24  1  0
 24 25  2  3
 18 26  1  0
 26 27  1  0
 26 28  1  0
 28 29  1  0
 29 30  1  0
 30 31  1  0
 30 32  2  0
 28 33  1  0
 33 34  1  0
 14 35  1  0
 35 36  2  0
 36 37  1  0
 37 38  1  0
 38 39  1  0
 38 40  1  0
 40 41  1  1
 36 42  1  0
 42 43  1  0
 42 44  1  0
 44 45  1  0
 45 46  1  0
 46 47  1  0
 46 48  2  0
 40  1  1  0
  9  2  1  0
 33 16  1  0
 40 35  1  0
  1 49  1  0
  3 50  1  6
  4 51  1  0
  4 52  1  0
  6 53  1  0
  6 54  1  0
  6 55  1  0
  7 56  1  0
  7 57  1  0
  8 58  1  0
  8 59  1  0
  9 60  1  6
 10 61  1  6
 11 62  1  0
 11 63  1  0
 11 64  1  0
 12 65  1  6
 13 66  1  0
 14 67  1  1
 16 68  1  1
 18 69  1  6
 19 70  1  0
 19 71  1  0
 22 72  1  0
 22 73  1  0
 22 74  1  0
 23 75  1  0
 23 76  1  0
 23 77  1  0
 24 78  1  0
 25 79  1  0
 25 80  1  0
 26 81  1  1
 27 82  1  0
 28 83  1  6
 31 84  1  0
 31 85  1  0
 31 86  1  0
 33 87  1  1
 34 88  1  0
 37 89  1  0
 37 90  1  0
 38 91  1  1
 39 92  1  0
 41 93  1  0
 41 94  1  0
 41 95  1  0
 42 96  1  6
 43 97  1  0
 43 98  1  0
 43 99  1  0
 44100  1  0
 44101  1  0
 47102  1  0
 47103  1  0
 47104  1  0
M  END
$$$$
