
     RDKit          3D

 16 15  0  0  0  0  0  0  0  0999 V2000
   -1.8082    0.7074   -0.2935 C   0  0  0  0  0  0  0  0  0  0  0  0
   -0.6179    0.0046   -0.9472 C   0  0  0  0  0  0  0  0  0  0  0  0
    0.3100   -0.6598    0.0868 C   0  0  1  0  0  0  0  0  0  0  0  0
    1.3057   -1.4862   -0.5989 N   0  0  0  0  0  0  0  0  0  0  0  0
    0.9836    0.3630    0.9664 C   0  0  0  0  0  0  0  0  0  0  0  0
    0.7425    0.3611    2.3367 O   0  0  0  0  0  0  0  0  0  0  0  0
    1.7598    1.2222    0.4674 O   0  0  0  0  0  0  0  0  0  0  0  0
   -2.4690    1.1266   -1.0813 H   0  0  0  0  0  0  0  0  0  0  0  0
   -1.4628    1.5405    0.3543 H   0  0  0  0  0  0  0  0  0  0  0  0
   -2.3956   -0.0123    0.3153 H   0  0  0  0  0  0  0  0  0  0  0  0
   -1.0104   -0.7763   -1.6346 H   0  0  0  0  0  0  0  0  0  0  0  0
   -0.0487    0.7383   -1.5593 H   0  0  0  0  0  0  0  0  0  0  0  0
   -0.3063   -1.3292    0.7279 H   0  0  0  0  0  0  0  0  0  0  0  0
    1.9384   -0.8751   -1.1660 H   0  0  0  0  0  0  0  0  0  0  0  0
    1.8952   -1.9674    0.1194 H   0  0  0  0  0  0  0  0  0  0  0  0
    1.1836    1.0424    2.9428 H   0  0  0  0  0  0  0  0  0  0  0  0
  1  2  1  0
  2  3  1  0
  3  4  1  0
  3  5  1  0
  5  6  1  0
  5  7  2  0
  1  8  1  0
  1  9  1  0
  1 10  1  0
  2 11  1  0
  2 12  1  0
  3 13  1  1
  4 14  1  0
  4 15  1  0
  6 16  1  0
M  END
$$$$
