
     RDKit          3D

 69 71  0  0  0  0  0  0  0  0999 V2000
   -1.7528   -0.5584    0.4493 C   0  0  1  0  0  0  0  0  0  0  0  0
   -1.2001   -1.3381   -0.7425 C   0  0  0  0  0  0  0  0  0  0  0  0
    0.2996   -1.2580   -0.5918 C   0  0  0  0  0  0  0  0  0  0  0  0
    0.5687    0.1718   -0.1321 C   0  0  2  0  0  0  0  0  0  0  0  0
    1.9386    0.3014    0.5412 C   0  0  0  0  0  0  0  0  0  0  0  0
    2.0895    0.8119    1.9605 C   0  0  0  0  0  0  0  0  0  0  0  0
    0.8553    1.5316    2.4864 C   0  0  0  0  0  0  0  0  0  0  0  0
   -0.4018    0.7214    2.2067 C   0  0  0  0  0  0  0  0  0  0  0  0
   -0.7034    0.6022    0.6855 C   0  0  2  0  0  0  0  0  0  0  0  0
   -1.1870    1.9697    0.1247 C   0  0  0  0  0  0  0  0  0  0  0  0
    3.0295   -0.0492   -0.1777 C   0  0  0  0  0  0  0  0  0  0  0  0
    4.4148   -0.0744    0.3594 C   0  0  0  0  0  0  0  0  0  0  0  0
    5.5053   -0.2999   -0.3998 C   0  0  0  0  0  0  0  0  0  0  0  0
    6.8763   -0.2975    0.2367 C   0  0  0  0  0  0  0  0  0  0  0  0
    7.8550    0.5454   -0.6041 C   0  0  1  0  0  0  0  0  0  0  0  0
    9.1582    0.3937   -0.1027 O   0  0  0  0  0  0  0  0  0  0  0  0
    7.8385    0.1884   -2.1161 C   0  0  0  0  0  0  0  0  0  0  0  0
    6.7917   -0.8806   -2.4957 C   0  0  2  0  0  0  0  0  0  0  0  0
    6.7022   -1.0182   -3.8917 O   0  0  0  0  0  0  0  0  0  0  0  0
    5.4117   -0.5674   -1.8876 C   0  0  0  0  0  0  0  0  0  0  0  0
   -3.2736   -0.1788    0.3043 C   0  0  2  0  0  0  0  0  0  0  0  0
   -3.8447    0.3019    1.6573 C   0  0  0  0  0  0  0  0  0  0  0  0
   -4.1182   -1.3780   -0.2069 C   0  0  0  0  0  0  0  0  0  0  0  0
   -5.5204   -1.0068   -0.4443 C   0  0  0  0  0  0  0  0  0  0  0  0
   -6.6695   -0.6959   -0.6345 C   0  0  0  0  0  0  0  0  0  0  0  0
   -8.0747   -0.3073   -0.8617 C   0  0  0  0  0  0  0  0  0  0  0  0
   -8.3443    1.0581   -0.2078 C   0  0  0  0  0  0  0  0  0  0  0  0
   -8.9908   -1.3701   -0.2453 C   0  0  0  0  0  0  0  0  0  0  0  0
   -8.3326   -0.2431   -2.2433 O   0  0  0  0  0  0  0  0  0  0  0  0
   -1.6994   -1.2784    1.2983 H   0  0  0  0  0  0  0  0  0  0  0  0
   -1.5043   -0.8543   -1.6979 H   0  0  0  0  0  0  0  0  0  0  0  0
   -1.5269   -2.4011   -0.7350 H   0  0  0  0  0  0  0  0  0  0  0  0
    0.6338   -1.9858    0.1822 H   0  0  0  0  0  0  0  0  0  0  0  0
    0.8017   -1.4888   -1.5566 H   0  0  0  0  0  0  0  0  0  0  0  0
    0.6275    0.7809   -1.0651 H   0  0  0  0  0  0  0  0  0  0  0  0
    2.3305   -0.0461    2.6253 H   0  0  0  0  0  0  0  0  0  0  0  0
    2.9258    1.5425    2.0136 H   0  0  0  0  0  0  0  0  0  0  0  0
    0.7841    2.5461    2.0426 H   0  0  0  0  0  0  0  0  0  0  0  0
    0.9625    1.6656    3.5849 H   0  0  0  0  0  0  0  0  0  0  0  0
   -0.2617   -0.2845    2.6614 H   0  0  0  0  0  0  0  0  0  0  0  0
   -1.2476    1.2002    2.7390 H   0  0  0  0  0  0  0  0  0  0  0  0
   -0.3598    2.7092    0.1120 H   0  0  0  0  0  0  0  0  0  0  0  0
   -1.5288    1.8628   -0.9269 H   0  0  0  0  0  0  0  0  0  0  0  0
   -2.0075    2.4068    0.7244 H   0  0  0  0  0  0  0  0  0  0  0  0
    2.8802   -0.3461   -1.2071 H   0  0  0  0  0  0  0  0  0  0  0  0
    4.5615    0.0830    1.4197 H   0  0  0  0  0  0  0  0  0  0  0  0
    6.8470    0.1146    1.2698 H   0  0  0  0  0  0  0  0  0  0  0  0
    7.2428   -1.3446    0.3066 H   0  0  0  0  0  0  0  0  0  0  0  0
    7.5494    1.6148   -0.5074 H   0  0  0  0  0  0  0  0  0  0  0  0
    9.2024    0.9052    0.7474 H   0  0  0  0  0  0  0  0  0  0  0  0
    8.8393   -0.1764   -2.4367 H   0  0  0  0  0  0  0  0  0  0  0  0
    7.6383    1.1164   -2.6964 H   0  0  0  0  0  0  0  0  0  0  0  0
    7.1349   -1.8577   -2.0894 H   0  0  0  0  0  0  0  0  0  0  0  0
    6.3845   -0.1529   -4.2611 H   0  0  0  0  0  0  0  0  0  0  0  0
    4.9776    0.3264   -2.3868 H   0  0  0  0  0  0  0  0  0  0  0  0
    4.7478   -1.4403   -2.0693 H   0  0  0  0  0  0  0  0  0  0  0  0
   -3.3896    0.6361   -0.4402 H   0  0  0  0  0  0  0  0  0  0  0  0
   -3.7268   -0.4847    2.4330 H   0  0  0  0  0  0  0  0  0  0  0  0
   -4.9226    0.5514    1.5707 H   0  0  0  0  0  0  0  0  0  0  0  0
   -3.3517    1.2232    2.0095 H   0  0  0  0  0  0  0  0  0  0  0  0
   -4.0823   -2.2140    0.5243 H   0  0  0  0  0  0  0  0  0  0  0  0
   -3.7318   -1.7468   -1.1779 H   0  0  0  0  0  0  0  0  0  0  0  0
   -9.3938    1.3723   -0.3935 H   0  0  0  0  0  0  0  0  0  0  0  0
   -7.6690    1.8335   -0.6303 H   0  0  0  0  0  0  0  0  0  0  0  0
   -8.1768    1.0088    0.8903 H   0  0  0  0  0  0  0  0  0  0  0  0
   -8.8063   -2.3599   -0.7168 H   0  0  0  0  0  0  0  0  0  0  0  0
   -8.8132   -1.4599    0.8488 H   0  0  0  0  0  0  0  0  0  0  0  0
  -10.0565   -1.1017   -0.4101 H   0  0  0  0  0  0  0  0  0  0  0  0
   -7.7362    0.4484   -2.6362 H   0  0  0  0  0  0  0  0  0  0  0  0
  1  2  1  0
  2  3  1  0
  3  4  1  0
  4  5  1  0
  5  6  1  0
  6  7  1  0
  7  8  1  0
  8  9  1  0
  9 10  1  6
  5 11  2  0
 11 12  1  0
 12 13  2  0
 13 14  1  0
 14 15  1  0
 15 16  1  0
 15 17  1  0
 17 18  1  0
 18 19  1  0
 18 20  1  0
  1 21  1  0
 21 22  1  0
 21 23  1  0
 23 24  1  0
 24 25  3  0
 25 26  1  0
 26 27  1  0
 26 28  1  0
 26 29  1  0
  9  1  1  0
 20 13  1  0
  9  4  1  0
  1 30  1  1
  2 31  1  0
  2 32  1  0
  3 33  1  0
  3 34  1  0
  4 35  1  6
  6 36  1  0
  6 37  1  0
  7 38  1  0
  7 39  1  0
  8 40  1  0
  8 41  1  0
 10 42  1  0
 10 43  1  0
 10 44  1  0
 11 45  1  0
 12 46  1  0
 14 47  1  0
 14 48  1  0
 15 49  1  6
 16 50  1  0
 17 51  1  0
 17 52  1  0
 18 53  1  1
 19 54  1  0
 20 55  1  0
 20 56  1  0
 21 57  1  6
 22 58  1  0
 22 59  1  0
 22 60  1  0
 23 61  1  0
 23 62  1  0
 27 63  1  0
 27 64  1  0
 27 65  1  0
 28 66  1  0
 28 67  1  0
 28 68  1  0
 29 69  1  0
M  END
$$$$
