
     RDKit          3D

 61 63  0  0  0  0  0  0  0  0999 V2000
   -2.1227   -0.6745    0.0725 C   0  0  2  0  0  0  0  0  0  0  0  0
   -2.9000    0.4244    0.8262 C   0  0  0  0  0  0  0  0  0  0  0  0
   -3.1986    1.6626   -0.0359 C   0  0  0  0  0  0  0  0  0  0  0  0
   -3.9454    2.7270    0.7760 C   0  0  0  0  0  0  0  0  0  0  0  0
   -4.2461    3.9583   -0.0737 C   0  0  0  0  0  0  0  0  0  0  0  0
   -0.8360   -0.1599   -0.4158 N   0  0  0  0  0  0  0  0  0  0  0  0
    0.3034   -0.0082    0.4387 C   0  0  0  0  0  0  0  0  0  0  0  0
    0.2628   -0.4075    1.6352 O   0  0  0  0  0  0  0  0  0  0  0  0
    1.4598    0.5890   -0.0683 O   0  0  0  0  0  0  0  0  0  0  0  0
    2.6344    0.7855    0.7171 C   0  0  0  0  0  0  0  0  0  0  0  0
    3.7476    1.4830   -0.1027 C   0  0  0  0  0  0  0  0  0  0  0  0
    5.0125    1.8152    0.7349 C   0  0  0  0  0  0  0  0  0  0  0  0
    5.6298    0.6030    1.3924 C   0  0  0  0  0  0  0  0  0  0  0  0
    6.6158   -0.1471    0.7282 C   0  0  0  0  0  0  0  0  0  0  0  0
    7.1730   -1.2761    1.3366 C   0  0  0  0  0  0  0  0  0  0  0  0
    6.7545   -1.6638    2.6124 C   0  0  0  0  0  0  0  0  0  0  0  0
    7.2960   -2.7590    3.2001 F   0  0  0  0  0  0  0  0  0  0  0  0
    5.7807   -0.9197    3.2838 C   0  0  0  0  0  0  0  0  0  0  0  0
    5.2218    0.2103    2.6794 C   0  0  0  0  0  0  0  0  0  0  0  0
    3.2380    2.7117   -0.8756 C   0  0  0  0  0  0  0  0  0  0  0  0
    3.5162    2.0001   -2.1935 C   0  0  0  0  0  0  0  0  0  0  0  0
    4.0490    0.7876   -1.4400 C   0  0  0  0  0  0  0  0  0  0  0  0
   -2.9493   -1.2646   -1.0530 C   0  0  0  0  0  0  0  0  0  0  0  0
   -2.8443   -0.7997   -2.2208 O   0  0  0  0  0  0  0  0  0  0  0  0
   -3.9326   -2.3370   -0.7905 C   0  0  0  0  0  0  0  0  0  0  0  0
   -4.0889   -2.7620    0.3859 O   0  0  0  0  0  0  0  0  0  0  0  0
   -4.6846   -2.9101   -1.8737 N   0  0  0  0  0  0  0  0  0  0  0  0
   -5.8271   -3.7636   -1.7054 C   0  0  0  0  0  0  0  0  0  0  0  0
   -6.5993   -3.9157   -0.5693 C   0  0  0  0  0  0  0  0  0  0  0  0
   -7.5922   -4.7952   -0.9578 C   0  0  0  0  0  0  0  0  0  0  0  0
   -7.4221   -5.1347   -2.2518 N   0  0  0  0  0  0  0  0  0  0  0  0
   -6.3511   -4.5003   -2.6991 N   0  0  0  0  0  0  0  0  0  0  0  0
   -1.9130   -1.4954    0.7934 H   0  0  0  0  0  0  0  0  0  0  0  0
   -2.3057    0.7350    1.7132 H   0  0  0  0  0  0  0  0  0  0  0  0
   -3.8562   -0.0007    1.2036 H   0  0  0  0  0  0  0  0  0  0  0  0
   -2.2458    2.0956   -0.4109 H   0  0  0  0  0  0  0  0  0  0  0  0
   -3.8228    1.3694   -0.9073 H   0  0  0  0  0  0  0  0  0  0  0  0
   -4.9038    2.3073    1.1525 H   0  0  0  0  0  0  0  0  0  0  0  0
   -3.3285    3.0346    1.6484 H   0  0  0  0  0  0  0  0  0  0  0  0
   -4.7860    4.7102    0.5396 H   0  0  0  0  0  0  0  0  0  0  0  0
   -3.3018    4.4126   -0.4425 H   0  0  0  0  0  0  0  0  0  0  0  0
   -4.8840    3.6827   -0.9404 H   0  0  0  0  0  0  0  0  0  0  0  0
   -0.7566    0.2174   -1.3870 H   0  0  0  0  0  0  0  0  0  0  0  0
    2.9955   -0.2046    1.0683 H   0  0  0  0  0  0  0  0  0  0  0  0
    2.3842    1.4113    1.6015 H   0  0  0  0  0  0  0  0  0  0  0  0
    5.7756    2.3107    0.0938 H   0  0  0  0  0  0  0  0  0  0  0  0
    4.7393    2.5574    1.5169 H   0  0  0  0  0  0  0  0  0  0  0  0
    6.9624    0.1454   -0.2542 H   0  0  0  0  0  0  0  0  0  0  0  0
    7.9317   -1.8486    0.8186 H   0  0  0  0  0  0  0  0  0  0  0  0
    5.4577   -1.2178    4.2729 H   0  0  0  0  0  0  0  0  0  0  0  0
    4.4669    0.7758    3.2116 H   0  0  0  0  0  0  0  0  0  0  0  0
    3.8719    3.6184   -0.7563 H   0  0  0  0  0  0  0  0  0  0  0  0
    2.1571    2.9327   -0.7360 H   0  0  0  0  0  0  0  0  0  0  0  0
    4.3005    2.5082   -2.7963 H   0  0  0  0  0  0  0  0  0  0  0  0
    2.5858    1.7738   -2.7589 H   0  0  0  0  0  0  0  0  0  0  0  0
    3.4417   -0.1253   -1.6267 H   0  0  0  0  0  0  0  0  0  0  0  0
    5.1292    0.6311   -1.6419 H   0  0  0  0  0  0  0  0  0  0  0  0
   -4.3680   -2.7271   -2.8522 H   0  0  0  0  0  0  0  0  0  0  0  0
   -6.4919   -3.4414    0.3959 H   0  0  0  0  0  0  0  0  0  0  0  0
   -8.4003   -5.1561   -0.3359 H   0  0  0  0  0  0  0  0  0  0  0  0
   -5.9903   -4.5717   -3.6762 H   0  0  0  0  0  0  0  0  0  0  0  0
  1  2  1  0
  2  3  1  0
  3  4  1  0
  4  5  1  0
  1  6  1  0
  6  7  1  0
  7  8  2  0
  7  9  1  0
  9 10  1  0
 10 11  1  0
 11 12  1  0
 12 13  1  0
 13 14  2  0
 14 15  1  0
 15 16  2  0
 16 17  1  0
 16 18  1  0
 18 19  2  0
 11 20  1  0
 20 21  1  0
 21 22  1  0
  1 23  1  0
 23 24  2  0
 23 25  1  0
 25 26  2  0
 25 27  1  0
 27 28  1  0
 28 29  2  0
 29 30  1  0
 30 31  2  0
 31 32  1  0
 22 11  1  0
 32 28  1  0
 19 13  1  0
  1 33  1  1
  2 34  1  0
  2 35  1  0
  3 36  1  0
  3 37  1  0
  4 38  1  0
  4 39  1  0
  5 40  1  0
  5 41  1  0
  5 42  1  0
  6 43  1  0
 10 44  1  0
 10 45  1  0
 12 46  1  0
 12 47  1  0
 14 48  1  0
 15 49  1  0
 18 50  1  0
 19 51  1  0
 20 52  1  0
 20 53  1  0
 21 54  1  0
 21 55  1  0
 22 56  1  0
 22 57  1  0
 27 58  1  0
 29 59  1  0
 30 60  1  0
 32 61  1  0
M  END
$$$$
