
     RDKit          3D

 42 43  0  0  0  0  0  0  0  0999 V2000
   -1.6467    0.0334   -1.0913 C   0  0  1  0  0  0  0  0  0  0  0  0
   -1.4318    1.5298   -1.3353 C   0  0  0  0  0  0  0  0  0  0  0  0
    0.0664    1.6624   -1.4842 C   0  0  2  0  0  0  0  0  0  0  0  0
    0.4307    2.4968   -2.6253 N   0  0  0  0  0  0  0  0  0  0  0  0
    0.1815    3.7028   -2.6318 N   0  0  0  0  0  4  0  0  0  0  0  0
   -0.0675    4.9072   -2.6383 N   0  0  0  0  0  2  0  0  0  0  0  0
    0.5167    0.2217   -1.6969 C   0  0  1  0  0  0  0  0  0  0  0  0
    1.9423   -0.0320   -1.1944 C   0  0  0  0  0  0  0  0  0  0  0  0
    1.9936    0.1264    0.2048 O   0  0  0  0  0  0  0  0  0  0  0  0
    3.6052   -0.0943    0.7152 P   0  0  0  0  0  5  0  0  0  0  0  0
    3.6320   -0.0406    2.4068 O   0  0  0  0  0  0  0  0  0  0  0  0
    4.4598    1.0279    0.1654 O   0  0  0  0  0  0  0  0  0  0  0  0
    4.1664   -1.6091    0.1724 O   0  0  0  0  0  0  0  0  0  0  0  0
    5.8004   -1.7523    0.6276 P   0  0  0  0  0  5  0  0  0  0  0  0
    6.7401   -0.5939   -0.1739 O   0  0  0  0  0  0  0  0  0  0  0  0
    5.9753   -1.5673    2.3014 O   0  0  0  0  0  0  0  0  0  0  0  0
    6.2894   -3.1289    0.2386 O   0  0  0  0  0  0  0  0  0  0  0  0
   -0.3935   -0.6129   -1.0230 O   0  0  0  0  0  0  0  0  0  0  0  0
   -2.4178   -0.2037    0.1472 N   0  0  0  0  0  0  0  0  0  0  0  0
   -3.7259   -0.5911    0.0492 C   0  0  0  0  0  0  0  0  0  0  0  0
   -4.5002   -0.8157    1.1950 C   0  0  0  0  0  0  0  0  0  0  0  0
   -5.9344   -1.2492    1.0681 C   0  0  0  0  0  0  0  0  0  0  0  0
   -3.8957   -0.6211    2.4478 C   0  0  0  0  0  0  0  0  0  0  0  0
   -4.5876   -0.8232    3.6428 O   0  0  0  0  0  0  0  0  0  0  0  0
   -2.6021   -0.2214    2.5073 N   0  0  0  0  0  0  0  0  0  0  0  0
   -1.8648   -0.0078    1.3883 C   0  0  0  0  0  0  0  0  0  0  0  0
   -0.6716    0.3779    1.5114 O   0  0  0  0  0  0  0  0  0  0  0  0
   -2.1856   -0.3923   -1.9697 H   0  0  0  0  0  0  0  0  0  0  0  0
   -1.7965    2.1555   -0.4909 H   0  0  0  0  0  0  0  0  0  0  0  0
   -1.9645    1.8403   -2.2622 H   0  0  0  0  0  0  0  0  0  0  0  0
    0.5011    2.0846   -0.5496 H   0  0  0  0  0  0  0  0  0  0  0  0
    0.4820   -0.0282   -2.7834 H   0  0  0  0  0  0  0  0  0  0  0  0
    2.6265    0.6821   -1.7079 H   0  0  0  0  0  0  0  0  0  0  0  0
    2.2219   -1.0720   -1.4769 H   0  0  0  0  0  0  0  0  0  0  0  0
    3.2107    0.8252    2.6388 H   0  0  0  0  0  0  0  0  0  0  0  0
    6.5340   -0.7221   -1.1342 H   0  0  0  0  0  0  0  0  0  0  0  0
    6.9538   -1.5628    2.4543 H   0  0  0  0  0  0  0  0  0  0  0  0
   -4.1790   -0.7292   -0.9261 H   0  0  0  0  0  0  0  0  0  0  0  0
   -6.0735   -2.2348    1.5598 H   0  0  0  0  0  0  0  0  0  0  0  0
   -6.5972   -0.4987    1.5478 H   0  0  0  0  0  0  0  0  0  0  0  0
   -6.2395   -1.3486    0.0046 H   0  0  0  0  0  0  0  0  0  0  0  0
   -5.5544   -1.1208    3.6760 H   0  0  0  0  0  0  0  0  0  0  0  0
  1  2  1  0
  2  3  1  0
  3  4  1  0
  4  5  2  0
  5  6  2  0
  3  7  1  0
  7  8  1  0
  8  9  1  0
  9 10  1  0
 10 11  1  0
 10 12  2  0
 10 13  1  0
 13 14  1  0
 14 15  1  0
 14 16  1  0
 14 17  2  0
  7 18  1  0
  1 19  1  0
 19 20  1  0
 20 21  2  0
 21 22  1  0
 21 23  1  0
 23 24  1  0
 23 25  2  0
 25 26  1  0
 26 27  2  0
 18  1  1  0
 26 19  1  0
  1 28  1  6
  2 29  1  0
  2 30  1  0
  3 31  1  1
  7 32  1  6
  8 33  1  0
  8 34  1  0
 11 35  1  0
 15 36  1  0
 16 37  1  0
 20 38  1  0
 22 39  1  0
 22 40  1  0
 22 41  1  0
 24 42  1  0
M  CHG  2   5   1   6  -1
M  END
$$$$
