
     RDKit          3D

 36 36  0  0  0  0  0  0  0  0999 V2000
    3.5351   -0.9662   -1.5545 C   0  0  0  0  0  0  0  0  0  0  0  0
    3.3141    0.5135   -1.2405 C   0  0  0  0  0  0  0  0  0  0  0  0
    2.3105    0.7344   -0.0983 C   0  0  0  0  0  0  0  0  0  0  0  0
    0.8680    0.4133   -0.5036 C   0  0  0  0  0  0  0  0  0  0  0  0
   -0.0423    0.7452    0.6224 N   0  0  0  0  0  0  0  0  0  0  0  0
   -0.9729    1.8626    0.3248 C   0  0  0  0  0  0  0  0  0  0  0  0
   -2.3924    1.4043   -0.1164 C   0  0  2  0  0  0  0  0  0  0  0  0
   -3.2727    1.4345    0.9792 O   0  0  0  0  0  0  0  0  0  0  0  0
   -2.3932   -0.0173   -0.7173 C   0  0  1  0  0  0  0  0  0  0  0  0
   -1.7098   -0.0227   -1.9453 O   0  0  0  0  0  0  0  0  0  0  0  0
   -1.7533   -1.0599    0.2418 C   0  0  2  0  0  0  0  0  0  0  0  0
   -2.7601   -1.7039    0.9824 O   0  0  0  0  0  0  0  0  0  0  0  0
   -0.7464   -0.4093    1.2305 C   0  0  1  0  0  0  0  0  0  0  0  0
    0.2429   -1.4301    1.8346 C   0  0  0  0  0  0  0  0  0  0  0  0
   -0.4366   -2.3829    2.6077 O   0  0  0  0  0  0  0  0  0  0  0  0
    2.6215   -1.4166   -1.9943 H   0  0  0  0  0  0  0  0  0  0  0  0
    3.8161   -1.5217   -0.6346 H   0  0  0  0  0  0  0  0  0  0  0  0
    4.3582   -1.0671   -2.2929 H   0  0  0  0  0  0  0  0  0  0  0  0
    2.9759    1.0434   -2.1574 H   0  0  0  0  0  0  0  0  0  0  0  0
    4.2893    0.9538   -0.9393 H   0  0  0  0  0  0  0  0  0  0  0  0
    2.6022    0.1225    0.7824 H   0  0  0  0  0  0  0  0  0  0  0  0
    2.3600    1.8028    0.2057 H   0  0  0  0  0  0  0  0  0  0  0  0
    0.6240    0.9893   -1.4232 H   0  0  0  0  0  0  0  0  0  0  0  0
    0.7932   -0.6536   -0.7930 H   0  0  0  0  0  0  0  0  0  0  0  0
   -0.5500    2.5495   -0.4414 H   0  0  0  0  0  0  0  0  0  0  0  0
   -1.0591    2.4887    1.2390 H   0  0  0  0  0  0  0  0  0  0  0  0
   -2.7675    2.1081   -0.8968 H   0  0  0  0  0  0  0  0  0  0  0  0
   -3.4988    2.3877    1.1421 H   0  0  0  0  0  0  0  0  0  0  0  0
   -3.4525   -0.3134   -0.9076 H   0  0  0  0  0  0  0  0  0  0  0  0
   -2.2978    0.4252   -2.6084 H   0  0  0  0  0  0  0  0  0  0  0  0
   -1.2148   -1.8226   -0.3698 H   0  0  0  0  0  0  0  0  0  0  0  0
   -3.1826   -2.3703    0.3793 H   0  0  0  0  0  0  0  0  0  0  0  0
   -1.3281   -0.0163    2.0968 H   0  0  0  0  0  0  0  0  0  0  0  0
    0.7980   -1.9660    1.0379 H   0  0  0  0  0  0  0  0  0  0  0  0
    0.9932   -0.8984    2.4632 H   0  0  0  0  0  0  0  0  0  0  0  0
   -0.6716   -1.9405    3.4649 H   0  0  0  0  0  0  0  0  0  0  0  0
  1  2  1  0
  2  3  1  0
  3  4  1  0
  4  5  1  0
  5  6  1  0
  6  7  1  0
  7  8  1  0
  7  9  1  0
  9 10  1  0
  9 11  1  0
 11 12  1  0
 11 13  1  0
 13 14  1  0
 14 15  1  0
 13  5  1  0
  1 16  1  0
  1 17  1  0
  1 18  1  0
  2 19  1  0
  2 20  1  0
  3 21  1  0
  3 22  1  0
  4 23  1  0
  4 24  1  0
  6 25  1  0
  6 26  1  0
  7 27  1  6
  8 28  1  0
  9 29  1  6
 10 30  1  0
 11 31  1  6
 12 32  1  0
 13 33  1  1
 14 34  1  0
 14 35  1  0
 15 36  1  0
M  END
$$$$
