
     RDKit          3D

 53 55  0  0  0  0  0  0  0  0999 V2000
    1.5024   -1.1041   -0.4865 N   0  0  0  0  0  0  0  0  0  0  0  0
    0.2203   -0.5235   -0.1929 C   0  0  0  0  0  0  0  0  0  0  0  0
    0.0443    0.3545    0.8897 C   0  0  0  0  0  0  0  0  0  0  0  0
   -1.2178    0.8853    1.1698 C   0  0  0  0  0  0  0  0  0  0  0  0
   -2.3276    0.5395    0.3903 C   0  0  0  0  0  0  0  0  0  0  0  0
   -3.5682    1.1111    0.7210 O   0  0  0  0  0  0  0  0  0  0  0  0
   -4.8223    0.8217    0.1000 C   0  0  0  0  0  0  0  0  0  0  0  0
   -5.4927   -0.4050    0.7466 C   0  0  2  0  0  0  0  0  0  0  0  0
   -4.6837   -1.5416    0.5857 O   0  0  0  0  0  0  0  0  0  0  0  0
   -6.8614   -0.6896    0.1034 C   0  0  0  0  0  0  0  0  0  0  0  0
   -7.7919    0.4482    0.2857 N   0  0  0  0  0  0  0  0  0  0  0  0
   -8.4937    0.3592    1.5784 C   0  0  0  0  0  0  0  0  0  0  0  0
   -8.7791    0.4827   -0.8052 C   0  0  0  0  0  0  0  0  0  0  0  0
   -2.1555   -0.3562   -0.6834 C   0  0  0  0  0  0  0  0  0  0  0  0
   -0.8931   -0.8882   -0.9624 C   0  0  0  0  0  0  0  0  0  0  0  0
    2.7524   -0.4113   -0.3357 C   0  0  0  0  0  0  0  0  0  0  0  0
    3.9561   -1.1227   -0.3878 C   0  0  0  0  0  0  0  0  0  0  0  0
    5.1612   -0.4211   -0.2743 C   0  0  0  0  0  0  0  0  0  0  0  0
    5.1342    0.9295   -0.1086 N   0  0  0  0  0  0  0  0  0  0  0  0
    3.9595    1.6091   -0.0711 C   0  0  0  0  0  0  0  0  0  0  0  0
    2.7834    0.9415   -0.1898 N   0  0  0  0  0  0  0  0  0  0  0  0
    6.4101   -1.1301   -0.2920 N   0  0  0  0  0  0  0  0  0  0  0  0
    7.6869   -0.4767   -0.3715 C   0  0  0  0  0  0  0  0  0  0  0  0
    8.7255   -0.8778    0.4858 C   0  0  0  0  0  0  0  0  0  0  0  0
    8.5159   -1.8521    1.4065 F   0  0  0  0  0  0  0  0  0  0  0  0
    9.9789   -0.2619    0.4108 C   0  0  0  0  0  0  0  0  0  0  0  0
   10.2103    0.7452   -0.5289 C   0  0  0  0  0  0  0  0  0  0  0  0
    9.1919    1.1328   -1.4029 C   0  0  0  0  0  0  0  0  0  0  0  0
    7.9352    0.5223   -1.3335 C   0  0  0  0  0  0  0  0  0  0  0  0
    6.9811    0.8730   -2.2321 F   0  0  0  0  0  0  0  0  0  0  0  0
    1.5194   -2.0594   -0.9113 H   0  0  0  0  0  0  0  0  0  0  0  0
    0.8742    0.6119    1.5343 H   0  0  0  0  0  0  0  0  0  0  0  0
   -1.3371    1.5629    2.0058 H   0  0  0  0  0  0  0  0  0  0  0  0
   -5.4771    1.7047    0.2559 H   0  0  0  0  0  0  0  0  0  0  0  0
   -4.7120    0.7014   -0.9980 H   0  0  0  0  0  0  0  0  0  0  0  0
   -5.6403   -0.1990    1.8317 H   0  0  0  0  0  0  0  0  0  0  0  0
   -4.0601   -1.5698    1.3579 H   0  0  0  0  0  0  0  0  0  0  0  0
   -6.6845   -0.8896   -0.9788 H   0  0  0  0  0  0  0  0  0  0  0  0
   -7.2866   -1.6270    0.5301 H   0  0  0  0  0  0  0  0  0  0  0  0
   -9.1167   -0.5612    1.6392 H   0  0  0  0  0  0  0  0  0  0  0  0
   -7.7698    0.3608    2.4187 H   0  0  0  0  0  0  0  0  0  0  0  0
   -9.1491    1.2458    1.7182 H   0  0  0  0  0  0  0  0  0  0  0  0
   -9.3560   -0.4680   -0.8558 H   0  0  0  0  0  0  0  0  0  0  0  0
   -8.2667    0.6498   -1.7770 H   0  0  0  0  0  0  0  0  0  0  0  0
   -9.4847    1.3296   -0.6623 H   0  0  0  0  0  0  0  0  0  0  0  0
   -2.9842   -0.6574   -1.3068 H   0  0  0  0  0  0  0  0  0  0  0  0
   -0.7792   -1.5794   -1.7882 H   0  0  0  0  0  0  0  0  0  0  0  0
    3.9551   -2.1985   -0.5135 H   0  0  0  0  0  0  0  0  0  0  0  0
    3.9607    2.6832    0.0527 H   0  0  0  0  0  0  0  0  0  0  0  0
    6.3965   -2.1611   -0.1190 H   0  0  0  0  0  0  0  0  0  0  0  0
   10.7727   -0.5661    1.0809 H   0  0  0  0  0  0  0  0  0  0  0  0
   11.1820    1.2185   -0.5866 H   0  0  0  0  0  0  0  0  0  0  0  0
    9.3807    1.8998   -2.1430 H   0  0  0  0  0  0  0  0  0  0  0  0
  1  2  1  0
  2  3  2  0
  3  4  1  0
  4  5  2  0
  5  6  1  0
  6  7  1  0
  7  8  1  0
  8  9  1  0
  8 10  1  0
 10 11  1  0
 11 12  1  0
 11 13  1  0
  5 14  1  0
 14 15  2  0
  1 16  1  0
 16 17  2  0
 17 18  1  0
 18 19  2  0
 19 20  1  0
 20 21  2  0
 18 22  1  0
 22 23  1  0
 23 24  2  0
 24 25  1  0
 24 26  1  0
 26 27  2  0
 27 28  1  0
 28 29  2  0
 29 30  1  0
 15  2  1  0
 21 16  1  0
 29 23  1  0
  1 31  1  0
  3 32  1  0
  4 33  1  0
  7 34  1  0
  7 35  1  0
  8 36  1  1
  9 37  1  0
 10 38  1  0
 10 39  1  0
 12 40  1  0
 12 41  1  0
 12 42  1  0
 13 43  1  0
 13 44  1  0
 13 45  1  0
 14 46  1  0
 15 47  1  0
 17 48  1  0
 20 49  1  0
 22 50  1  0
 26 51  1  0
 27 52  1  0
 28 53  1  0
M  END
$$$$
