
     RDKit          3D

 28 29  0  0  0  0  0  0  0  0999 V2000
   -3.4345   -0.1622   -1.0814 C   0  0  0  0  0  0  0  0  0  0  0  0
   -3.1268   -0.6211    0.3462 C   0  0  1  0  0  0  0  0  0  0  0  0
   -2.4316   -1.8417    0.2921 O   0  0  0  0  0  0  0  0  0  0  0  0
   -2.3166    0.4449    1.1265 C   0  0  1  0  0  0  0  0  0  0  0  0
   -2.2459    0.1225    2.4940 O   0  0  0  0  0  0  0  0  0  0  0  0
   -0.9297    0.6538    0.5553 C   0  0  0  0  0  0  0  0  0  0  0  0
   -0.6304    1.7892   -0.2176 C   0  0  0  0  0  0  0  0  0  0  0  0
    0.6155    1.9397   -0.7411 N   0  0  0  0  0  0  0  0  0  0  0  0
    1.5796    1.0068   -0.5332 C   0  0  0  0  0  0  0  0  0  0  0  0
    2.8194    1.1665   -1.0604 N   0  0  0  0  0  0  0  0  0  0  0  0
    3.7891    0.2335   -0.8584 C   0  0  0  0  0  0  0  0  0  0  0  0
    5.0850    0.4276   -1.4249 N   0  0  0  0  0  0  0  0  0  0  0  0
    3.5215   -0.8814   -0.1181 N   0  0  0  0  0  0  0  0  0  0  0  0
    2.2901   -1.0812    0.4291 C   0  0  0  0  0  0  0  0  0  0  0  0
    2.0632   -2.1183    1.1094 O   0  0  0  0  0  0  0  0  0  0  0  0
    1.2848   -0.1314    0.2311 C   0  0  0  0  0  0  0  0  0  0  0  0
    0.0394   -0.2830    0.7543 N   0  0  0  0  0  0  0  0  0  0  0  0
   -4.0769   -0.9151   -1.5855 H   0  0  0  0  0  0  0  0  0  0  0  0
   -3.9758    0.8078   -1.0689 H   0  0  0  0  0  0  0  0  0  0  0  0
   -2.4988   -0.0499   -1.6692 H   0  0  0  0  0  0  0  0  0  0  0  0
   -4.1074   -0.7603    0.8613 H   0  0  0  0  0  0  0  0  0  0  0  0
   -2.6914   -2.3632    1.0958 H   0  0  0  0  0  0  0  0  0  0  0  0
   -2.8779    1.4033    1.0624 H   0  0  0  0  0  0  0  0  0  0  0  0
   -1.7657   -0.7412    2.5849 H   0  0  0  0  0  0  0  0  0  0  0  0
   -1.3813    2.5453   -0.4064 H   0  0  0  0  0  0  0  0  0  0  0  0
    5.2900    1.2803   -1.9916 H   0  0  0  0  0  0  0  0  0  0  0  0
    5.8417   -0.2773   -1.2809 H   0  0  0  0  0  0  0  0  0  0  0  0
    4.2716   -1.5939    0.0323 H   0  0  0  0  0  0  0  0  0  0  0  0
  1  2  1  0
  2  3  1  0
  2  4  1  0
  4  5  1  0
  4  6  1  0
  6  7  2  0
  7  8  1  0
  8  9  2  0
  9 10  1  0
 10 11  2  0
 11 12  1  0
 11 13  1  0
 13 14  1  0
 14 15  2  0
 14 16  1  0
 16 17  2  0
 17  6  1  0
 16  9  1  0
  1 18  1  0
  1 19  1  0
  1 20  1  0
  2 21  1  1
  3 22  1  0
  4 23  1  1
  5 24  1  0
  7 25  1  0
 12 26  1  0
 12 27  1  0
 13 28  1  0
M  END
$$$$
