
     RDKit          3D

152156  0  0  0  0  0  0  0  0999 V2000
   -6.2243    5.8352    3.6191 C   0  0  0  0  0  0  0  0  0  0  0  0
   -6.7792    4.6099    4.0868 O   0  0  0  0  0  0  0  0  0  0  0  0
   -6.0470    3.4271    4.2674 C   0  0  0  0  0  0  0  0  0  0  0  0
   -4.6735    3.3371    3.9731 C   0  0  0  0  0  0  0  0  0  0  0  0
   -3.9887    2.1350    4.1696 C   0  0  0  0  0  0  0  0  0  0  0  0
   -4.6607    1.0048    4.6595 C   0  0  0  0  0  0  0  0  0  0  0  0
   -3.9263   -0.3058    4.8214 C   0  0  0  0  0  0  0  0  0  0  0  0
   -3.9882   -1.1904    3.5573 C   0  0  1  0  0  0  0  0  0  0  0  0
   -5.4193   -1.6946    3.2801 C   0  0  0  0  0  0  0  0  0  0  0  0
   -5.4242   -2.7658    2.2704 N   0  0  0  0  0  0  0  0  0  0  0  0
   -6.7882   -3.0582    1.7773 C   0  0  1  0  0  0  0  0  0  0  0  0
   -7.0323   -2.5380    0.3351 C   0  0  0  0  0  0  0  0  0  0  0  0
   -6.8037   -1.0277    0.1450 C   0  0  0  0  0  0  0  0  0  0  0  0
   -7.8913   -0.1520    0.7861 C   0  0  0  0  0  0  0  0  0  0  0  0
   -7.4101    1.2211    0.9380 N   0  0  0  0  0  0  0  0  0  0  0  0
   -7.2570    2.1047   -0.0067 C   0  0  0  0  0  0  0  0  0  0  0  0
   -6.7080    3.3793    0.3250 N   0  0  0  0  0  0  0  0  0  0  0  0
   -7.6166    1.8312   -1.3671 N   0  0  0  0  0  0  0  0  0  0  0  0
   -6.9965   -4.5441    1.8043 C   0  0  0  0  0  0  0  0  0  0  0  0
   -8.1690   -5.0700    2.3384 O   0  0  0  0  0  0  0  0  0  0  0  0
   -6.1274   -5.3170    1.3172 O   0  0  0  0  0  0  0  0  0  0  0  0
   -3.4809   -0.4526    2.3957 N   0  0  0  0  0  0  0  0  0  0  0  0
   -2.0928   -0.4243    2.0353 C   0  0  0  0  0  0  0  0  0  0  0  0
   -1.2302   -0.9273    2.8053 O   0  0  0  0  0  0  0  0  0  0  0  0
   -1.6386    0.2586    0.7677 C   0  0  2  0  0  0  0  0  0  0  0  0
   -1.5696    1.7725    0.9641 C   0  0  0  0  0  0  0  0  0  0  0  0
   -2.8552    2.3291    0.3584 C   0  0  0  0  0  0  0  0  0  0  0  0
   -3.3403    1.2724   -0.6267 C   0  0  0  0  0  0  0  0  0  0  0  0
   -2.6009    0.0592   -0.3118 N   0  0  0  0  0  0  0  0  0  0  0  0
   -2.8360   -1.1709   -1.0287 C   0  0  0  0  0  0  0  0  0  0  0  0
   -3.9807   -1.3845   -1.5116 O   0  0  0  0  0  0  0  0  0  0  0  0
   -1.7561   -2.2002   -1.2853 C   0  0  2  0  0  0  0  0  0  0  0  0
   -1.5239   -3.1237   -0.0822 C   0  0  0  0  0  0  0  0  0  0  0  0
   -2.7247   -3.7393    0.2944 O   0  0  0  0  0  0  0  0  0  0  0  0
   -0.5073   -1.5551   -1.6989 N   0  0  0  0  0  0  0  0  0  0  0  0
   -0.3160   -1.0360   -3.0233 C   0  0  0  0  0  0  0  0  0  0  0  0
   -1.2668   -1.0494   -3.8526 O   0  0  0  0  0  0  0  0  0  0  0  0
    1.0456   -0.5406   -3.4479 C   0  0  2  0  0  0  0  0  0  0  0  0
    0.9502    0.7804   -4.2372 C   0  0  0  0  0  0  0  0  0  0  0  0
    0.3307    1.8853   -3.4348 C   0  0  0  0  0  0  0  0  0  0  0  0
   -0.9414    2.4110   -3.6196 C   0  0  0  0  0  0  0  0  0  0  0  0
   -1.2304    3.4697   -2.7511 C   0  0  0  0  0  0  0  0  0  0  0  0
   -0.1941    3.7738   -1.8783 C   0  0  0  0  0  0  0  0  0  0  0  0
    1.0824    2.7247   -2.1885 S   0  0  0  0  0  0  0  0  0  0  0  0
    1.7134   -1.5622   -4.2638 N   0  0  0  0  0  0  0  0  0  0  0  0
    2.1504   -2.8205   -3.7275 C   0  0  0  0  0  0  0  0  0  0  0  0
    1.8224   -3.1664   -2.5610 O   0  0  0  0  0  0  0  0  0  0  0  0
    3.0600   -3.7067   -4.5239 C   0  0  0  0  0  0  0  0  0  0  0  0
    4.4456   -3.4645   -4.1328 N   0  0  0  0  0  0  0  0  0  0  0  0
    4.9665   -3.9171   -2.8754 C   0  0  0  0  0  0  0  0  0  0  0  0
    4.3539   -4.8048   -2.2201 O   0  0  0  0  0  0  0  0  0  0  0  0
    6.2066   -3.2863   -2.2951 C   0  0  2  0  0  0  0  0  0  0  0  0
    7.2904   -4.3285   -1.9931 C   0  0  0  0  0  0  0  0  0  0  0  0
    7.8063   -4.0009   -0.5864 C   0  0  1  0  0  0  0  0  0  0  0  0
    9.0310   -3.3097   -0.6477 O   0  0  0  0  0  0  0  0  0  0  0  0
    6.7231   -3.1437    0.0705 C   0  0  0  0  0  0  0  0  0  0  0  0
    5.8981   -2.6496   -1.0205 N   0  0  0  0  0  0  0  0  0  0  0  0
    4.9223   -1.5969   -0.8839 C   0  0  0  0  0  0  0  0  0  0  0  0
    4.4189   -1.0796   -1.9189 O   0  0  0  0  0  0  0  0  0  0  0  0
    4.4240   -1.1605    0.4760 C   0  0  2  0  0  0  0  0  0  0  0  0
    3.2790   -2.0669    0.9415 C   0  0  0  0  0  0  0  0  0  0  0  0
    2.2105   -1.1332    1.5004 C   0  0  0  0  0  0  0  0  0  0  0  0
    2.4709    0.2203    0.8572 C   0  0  0  0  0  0  0  0  0  0  0  0
    3.8594    0.1850    0.4359 N   0  0  0  0  0  0  0  0  0  0  0  0
    4.5405    1.3665   -0.0243 C   0  0  0  0  0  0  0  0  0  0  0  0
    3.9515    2.1318   -0.8336 O   0  0  0  0  0  0  0  0  0  0  0  0
    5.9187    1.7532    0.4593 C   0  0  1  0  0  0  0  0  0  0  0  0
    6.0341    1.5162    1.9024 N   0  0  0  0  0  0  0  0  0  0  0  0
    7.0248    1.0397   -0.3532 C   0  0  0  0  0  0  0  0  0  0  0  0
    8.4550    1.5132   -0.0275 C   0  0  0  0  0  0  0  0  0  0  0  0
    8.7374    2.9711   -0.4095 C   0  0  0  0  0  0  0  0  0  0  0  0
    8.4772    3.1859   -1.8309 N   0  0  0  0  0  0  0  0  0  0  0  0
    8.6224    4.3150   -2.4614 C   0  0  0  0  0  0  0  0  0  0  0  0
    8.3232    4.3723   -3.8558 N   0  0  0  0  0  0  0  0  0  0  0  0
    9.0731    5.4994   -1.7909 N   0  0  0  0  0  0  0  0  0  0  0  0
   -6.0292    1.0977    4.9569 C   0  0  0  0  0  0  0  0  0  0  0  0
   -6.7148    2.2993    4.7582 C   0  0  0  0  0  0  0  0  0  0  0  0
   -5.4327    6.1854    4.3147 H   0  0  0  0  0  0  0  0  0  0  0  0
   -7.0244    6.6022    3.5758 H   0  0  0  0  0  0  0  0  0  0  0  0
   -5.8046    5.7021    2.5999 H   0  0  0  0  0  0  0  0  0  0  0  0
   -4.1271    4.1877    3.5891 H   0  0  0  0  0  0  0  0  0  0  0  0
   -2.9335    2.0833    3.9365 H   0  0  0  0  0  0  0  0  0  0  0  0
   -2.8603   -0.1039    5.0656 H   0  0  0  0  0  0  0  0  0  0  0  0
   -4.3398   -0.8648    5.6893 H   0  0  0  0  0  0  0  0  0  0  0  0
   -3.3502   -2.0846    3.7375 H   0  0  0  0  0  0  0  0  0  0  0  0
   -6.0479   -0.8408    2.9505 H   0  0  0  0  0  0  0  0  0  0  0  0
   -5.8546   -2.0985    4.2202 H   0  0  0  0  0  0  0  0  0  0  0  0
   -4.7829   -2.5330    1.4778 H   0  0  0  0  0  0  0  0  0  0  0  0
   -7.5613   -2.6223    2.4493 H   0  0  0  0  0  0  0  0  0  0  0  0
   -8.0713   -2.7857    0.0236 H   0  0  0  0  0  0  0  0  0  0  0  0
   -6.3477   -3.0739   -0.3597 H   0  0  0  0  0  0  0  0  0  0  0  0
   -6.7790   -0.8218   -0.9454 H   0  0  0  0  0  0  0  0  0  0  0  0
   -5.8093   -0.7399    0.5336 H   0  0  0  0  0  0  0  0  0  0  0  0
   -8.1406   -0.5289    1.7970 H   0  0  0  0  0  0  0  0  0  0  0  0
   -8.8292   -0.1799    0.1914 H   0  0  0  0  0  0  0  0  0  0  0  0
   -6.4153    3.5902    1.3043 H   0  0  0  0  0  0  0  0  0  0  0  0
   -6.5717    4.1077   -0.4103 H   0  0  0  0  0  0  0  0  0  0  0  0
   -7.4262    2.5434   -2.1061 H   0  0  0  0  0  0  0  0  0  0  0  0
   -8.1137    0.9613   -1.6545 H   0  0  0  0  0  0  0  0  0  0  0  0
   -8.3304   -6.0699    2.3531 H   0  0  0  0  0  0  0  0  0  0  0  0
   -4.1412    0.1656    1.8759 H   0  0  0  0  0  0  0  0  0  0  0  0
   -0.6383   -0.1107    0.4726 H   0  0  0  0  0  0  0  0  0  0  0  0
   -1.4559    2.0718    2.0284 H   0  0  0  0  0  0  0  0  0  0  0  0
   -0.6989    2.1715    0.4012 H   0  0  0  0  0  0  0  0  0  0  0  0
   -3.6134    2.4721    1.1586 H   0  0  0  0  0  0  0  0  0  0  0  0
   -2.6775    3.3037   -0.1440 H   0  0  0  0  0  0  0  0  0  0  0  0
   -4.4325    1.1053   -0.5123 H   0  0  0  0  0  0  0  0  0  0  0  0
   -3.1200    1.5805   -1.6703 H   0  0  0  0  0  0  0  0  0  0  0  0
   -2.0933   -2.8593   -2.1176 H   0  0  0  0  0  0  0  0  0  0  0  0
   -0.7867   -3.9066   -0.3695 H   0  0  0  0  0  0  0  0  0  0  0  0
   -1.0978   -2.5605    0.7705 H   0  0  0  0  0  0  0  0  0  0  0  0
   -2.5176   -4.2792    1.1009 H   0  0  0  0  0  0  0  0  0  0  0  0
    0.3124   -1.5673   -1.0513 H   0  0  0  0  0  0  0  0  0  0  0  0
    1.6682   -0.3495   -2.5458 H   0  0  0  0  0  0  0  0  0  0  0  0
    1.9725    1.0997   -4.5345 H   0  0  0  0  0  0  0  0  0  0  0  0
    0.3684    0.6247   -5.1724 H   0  0  0  0  0  0  0  0  0  0  0  0
   -1.6378    2.0479   -4.3639 H   0  0  0  0  0  0  0  0  0  0  0  0
   -2.1743    3.9980   -2.7555 H   0  0  0  0  0  0  0  0  0  0  0  0
   -0.2112    4.5482   -1.1236 H   0  0  0  0  0  0  0  0  0  0  0  0
    1.9563   -1.3445   -5.2574 H   0  0  0  0  0  0  0  0  0  0  0  0
    2.7970   -4.7746   -4.3632 H   0  0  0  0  0  0  0  0  0  0  0  0
    2.9394   -3.4938   -5.6076 H   0  0  0  0  0  0  0  0  0  0  0  0
    5.0261   -2.8335   -4.7300 H   0  0  0  0  0  0  0  0  0  0  0  0
    6.6160   -2.5200   -2.9898 H   0  0  0  0  0  0  0  0  0  0  0  0
    6.8786   -5.3625   -1.9913 H   0  0  0  0  0  0  0  0  0  0  0  0
    8.1047   -4.2865   -2.7495 H   0  0  0  0  0  0  0  0  0  0  0  0
    7.9595   -4.9357   -0.0042 H   0  0  0  0  0  0  0  0  0  0  0  0
    8.8833   -2.4738   -1.1647 H   0  0  0  0  0  0  0  0  0  0  0  0
    6.0991   -3.7583    0.7549 H   0  0  0  0  0  0  0  0  0  0  0  0
    7.1799   -2.3048    0.6374 H   0  0  0  0  0  0  0  0  0  0  0  0
    5.2369   -1.1897    1.2259 H   0  0  0  0  0  0  0  0  0  0  0  0
    3.6251   -2.7857    1.7159 H   0  0  0  0  0  0  0  0  0  0  0  0
    2.8414   -2.6421    0.0942 H   0  0  0  0  0  0  0  0  0  0  0  0
    1.1893   -1.5058    1.2771 H   0  0  0  0  0  0  0  0  0  0  0  0
    2.3333   -1.0492    2.6027 H   0  0  0  0  0  0  0  0  0  0  0  0
    1.8163    0.3669   -0.0288 H   0  0  0  0  0  0  0  0  0  0  0  0
    2.3049    1.0393    1.5904 H   0  0  0  0  0  0  0  0  0  0  0  0
    6.0093    2.8473    0.2823 H   0  0  0  0  0  0  0  0  0  0  0  0
    6.3856    0.5502    2.0878 H   0  0  0  0  0  0  0  0  0  0  0  0
    6.7451    2.1754    2.2945 H   0  0  0  0  0  0  0  0  0  0  0  0
    6.8312    1.1720   -1.4401 H   0  0  0  0  0  0  0  0  0  0  0  0
    6.9874   -0.0473   -0.1521 H   0  0  0  0  0  0  0  0  0  0  0  0
    9.1691    0.8637   -0.5798 H   0  0  0  0  0  0  0  0  0  0  0  0
    8.6637    1.3718    1.0542 H   0  0  0  0  0  0  0  0  0  0  0  0
    9.8062    3.1886   -0.1943 H   0  0  0  0  0  0  0  0  0  0  0  0
    8.1156    3.6568    0.2031 H   0  0  0  0  0  0  0  0  0  0  0  0
    8.4309    5.2654   -4.3856 H   0  0  0  0  0  0  0  0  0  0  0  0
    7.9915    3.5215   -4.3628 H   0  0  0  0  0  0  0  0  0  0  0  0
    9.3116    5.5114   -0.7754 H   0  0  0  0  0  0  0  0  0  0  0  0
    9.1758    6.3911   -2.3239 H   0  0  0  0  0  0  0  0  0  0  0  0
   -6.5678    0.2372    5.3337 H   0  0  0  0  0  0  0  0  0  0  0  0
   -7.7717    2.3547    4.9861 H   0  0  0  0  0  0  0  0  0  0  0  0
  1  2  1  0
  2  3  1  0
  3  4  2  0
  4  5  1  0
  5  6  2  0
  6  7  1  0
  7  8  1  0
  8  9  1  0
  9 10  1  0
 10 11  1  0
 11 12  1  0
 12 13  1  0
 13 14  1  0
 14 15  1  0
 15 16  2  3
 16 17  1  0
 16 18  1  0
 11 19  1  0
 19 20  1  0
 19 21  2  0
  8 22  1  0
 22 23  1  0
 23 24  2  0
 23 25  1  0
 25 26  1  0
 26 27  1  0
 27 28  1  0
 28 29  1  0
 29 30  1  0
 30 31  2  0
 30 32  1  0
 32 33  1  0
 33 34  1  0
 32 35  1  0
 35 36  1  0
 36 37  2  0
 36 38  1  0
 38 39  1  0
 39 40  1  0
 40 41  2  0
 41 42  1  0
 42 43  2  0
 43 44  1  0
 38 45  1  0
 45 46  1  0
 46 47  2  0
 46 48  1  0
 48 49  1  0
 49 50  1  0
 50 51  2  0
 50 52  1  0
 52 53  1  0
 53 54  1  0
 54 55  1  0
 54 56  1  0
 56 57  1  0
 57 58  1  0
 58 59  2  0
 58 60  1  0
 60 61  1  0
 61 62  1  0
 62 63  1  0
 63 64  1  0
 64 65  1  0
 65 66  2  0
 65 67  1  0
 67 68  1  0
 67 69  1  0
 69 70  1  0
 70 71  1  0
 71 72  1  0
 72 73  2  3
 73 74  1  0
 73 75  1  0
  6 76  1  0
 76 77  2  0
 77  3  1  0
 29 25  1  0
 44 40  1  0
 57 52  1  0
 64 60  1  0
  1 78  1  0
  1 79  1  0
  1 80  1  0
  4 81  1  0
  5 82  1  0
  7 83  1  0
  7 84  1  0
  8 85  1  1
  9 86  1  0
  9 87  1  0
 10 88  1  0
 11 89  1  1
 12 90  1  0
 12 91  1  0
 13 92  1  0
 13 93  1  0
 14 94  1  0
 14 95  1  0
 17 96  1  0
 17 97  1  0
 18 98  1  0
 18 99  1  0
 20100  1  0
 22101  1  0
 25102  1  6
 26103  1  0
 26104  1  0
 27105  1  0
 27106  1  0
 28107  1  0
 28108  1  0
 32109  1  6
 33110  1  0
 33111  1  0
 34112  1  0
 35113  1  0
 38114  1  1
 39115  1  0
 39116  1  0
 41117  1  0
 42118  1  0
 43119  1  0
 45120  1  0
 48121  1  0
 48122  1  0
 49123  1  0
 52124  1  6
 53125  1  0
 53126  1  0
 54127  1  1
 55128  1  0
 56129  1  0
 56130  1  0
 60131  1  1
 61132  1  0
 61133  1  0
 62134  1  0
 62135  1  0
 63136  1  0
 63137  1  0
 67138  1  1
 68139  1  0
 68140  1  0
 69141  1  0
 69142  1  0
 70143  1  0
 70144  1  0
 71145  1  0
 71146  1  0
 74147  1  0
 74148  1  0
 75149  1  0
 75150  1  0
 76151  1  0
 77152  1  0
M  END
$$$$
