
     RDKit          2D

137137  0  0  0  0  0  0  0  0999 V2000
   19.2569  -11.5083    0.0000 C   0  0  0  0  0  0  0  0  0  0  0  0
   20.4060  -12.4725    0.0000 C   0  0  0  0  0  0  0  0  0  0  0  0
   21.5551  -13.4367    0.0000 C   0  0  0  0  0  0  0  0  0  0  0  0
   22.7041  -14.4008    0.0000 C   0  0  0  0  0  0  0  0  0  0  0  0
   23.8532  -15.3650    0.0000 C   0  0  0  0  0  0  0  0  0  0  0  0
   25.0023  -16.3292    0.0000 C   0  0  0  0  0  0  0  0  0  0  0  0
   26.1513  -17.2934    0.0000 C   0  0  0  0  0  0  0  0  0  0  0  0
   27.3004  -18.2576    0.0000 C   0  0  0  0  0  0  0  0  0  0  0  0
   28.4495  -19.2217    0.0000 C   0  0  0  0  0  0  0  0  0  0  0  0
   19.5174  -10.0311    0.0000 C   0  0  0  0  0  0  0  0  0  0  0  0
   18.3684   -9.0669    0.0000 C   0  0  0  0  0  0  0  0  0  0  0  0
   17.2193   -8.1027    0.0000 C   0  0  0  0  0  0  0  0  0  0  0  0
   16.0702   -7.1385    0.0000 C   0  0  0  0  0  0  0  0  0  0  0  0
   14.9212   -6.1744    0.0000 C   0  0  0  0  0  0  0  0  0  0  0  0
   13.7721   -5.2102    0.0000 C   0  0  0  0  0  0  0  0  0  0  0  0
   12.6230   -4.2460    0.0000 C   0  0  0  0  0  0  0  0  0  0  0  0
   11.4740   -3.2818    0.0000 C   0  0  0  0  0  0  0  0  0  0  0  0
   10.3249   -2.3176    0.0000 C   0  0  0  0  0  0  0  0  0  0  0  0
   10.5854   -0.8404    0.0000 O   0  0  0  0  0  0  0  0  0  0  0  0
    8.9153   -2.8307    0.0000 O   0  0  0  0  0  0  0  0  0  0  0  0
    7.7663   -1.8665    0.0000 C   0  0  0  0  0  0  0  0  0  0  0  0
    6.8021   -3.0156    0.0000 C   0  0  0  0  0  0  0  0  0  0  0  0
    5.8379   -4.1646    0.0000 O   0  0  0  0  0  0  0  0  0  0  0  0
    4.3607   -3.9041    0.0000 C   0  0  0  0  0  0  0  0  0  0  0  0
    3.8477   -2.4946    0.0000 O   0  0  0  0  0  0  0  0  0  0  0  0
    3.3965   -5.0532    0.0000 C   0  0  0  0  0  0  0  0  0  0  0  0
    2.4323   -6.2023    0.0000 C   0  0  0  0  0  0  0  0  0  0  0  0
    1.4682   -7.3513    0.0000 C   0  0  0  0  0  0  0  0  0  0  0  0
    0.5040   -8.5004    0.0000 C   0  0  0  0  0  0  0  0  0  0  0  0
   -0.4602   -9.6495    0.0000 C   0  0  0  0  0  0  0  0  0  0  0  0
   -1.4244  -10.7985    0.0000 C   0  0  0  0  0  0  0  0  0  0  0  0
   -2.3886  -11.9476    0.0000 C   0  0  0  0  0  0  0  0  0  0  0  0
   -3.3527  -13.0967    0.0000 C   0  0  0  0  0  0  0  0  0  0  0  0
   -4.3169  -14.2457    0.0000 C   0  0  0  0  0  0  0  0  0  0  0  0
   -5.2811  -15.3948    0.0000 C   0  0  0  0  0  0  0  0  0  0  0  0
   -6.2453  -16.5439    0.0000 C   0  0  0  0  0  0  0  0  0  0  0  0
   -7.2095  -17.6929    0.0000 C   0  0  0  0  0  0  0  0  0  0  0  0
   -8.1737  -18.8420    0.0000 C   0  0  0  0  0  0  0  0  0  0  0  0
   -9.1378  -19.9911    0.0000 C   0  0  0  0  0  0  0  0  0  0  0  0
  -10.1020  -21.1401    0.0000 C   0  0  0  0  0  0  0  0  0  0  0  0
    6.6172   -0.9023    0.0000 C   0  0  0  0  0  0  0  0  0  0  0  0
    5.4681    0.0619    0.0000 O   0  0  0  0  0  0  0  0  0  0  0  0
    5.7286    1.5391    0.0000 P   0  0  0  0  0  5  0  0  0  0  0  0
    4.5166    1.4543    0.0000 O   0  0  0  0  0  1  0  0  0  0  0  0
    7.2058    1.2786    0.0000 O   0  0  0  0  0  0  0  0  0  0  0  0
    5.9891    3.0163    0.0000 O   0  0  0  0  0  0  0  0  0  0  0  0
    4.8400    3.9805    0.0000 C   0  0  0  0  0  0  0  0  0  0  0  0
    5.9891    4.9447    0.0000 C   0  0  0  0  0  0  0  0  0  0  0  0
    7.3986    5.4577    0.0000 O   0  0  0  0  0  0  0  0  0  0  0  0
    5.7286    6.4219    0.0000 C   0  0  0  0  0  0  0  0  0  0  0  0
    5.9891    7.8991    0.0000 O   0  0  0  0  0  0  0  0  0  0  0  0
    4.3191    6.9349    0.0000 C   0  0  0  0  0  0  0  0  0  0  0  0
    3.1700    7.8991    0.0000 O   0  0  0  0  0  0  0  0  0  0  0  0
    3.1700    5.9707    0.0000 C   0  0  0  0  0  0  0  0  0  0  0  0
    1.7605    5.4577    0.0000 O   0  0  0  0  0  0  0  0  0  0  0  0
    3.4305    4.4935    0.0000 C   0  0  0  0  0  0  0  0  0  0  0  0
    3.1700    3.0163    0.0000 O   0  0  0  0  0  0  0  0  0  0  0  0
   17.8474  -12.0213    0.0000 H   0  0  0  0  0  0  0  0  0  0  0  0
   19.4418  -13.6215    0.0000 H   0  0  0  0  0  0  0  0  0  0  0  0
   21.3702  -11.3234    0.0000 H   0  0  0  0  0  0  0  0  0  0  0  0
   22.5193  -12.2876    0.0000 H   0  0  0  0  0  0  0  0  0  0  0  0
   20.5909  -14.5857    0.0000 H   0  0  0  0  0  0  0  0  0  0  0  0
   21.7400  -15.5499    0.0000 H   0  0  0  0  0  0  0  0  0  0  0  0
   23.6683  -13.2518    0.0000 H   0  0  0  0  0  0  0  0  0  0  0  0
   24.8174  -14.2160    0.0000 H   0  0  0  0  0  0  0  0  0  0  0  0
   22.8890  -16.5141    0.0000 H   0  0  0  0  0  0  0  0  0  0  0  0
   24.0381  -17.4783    0.0000 H   0  0  0  0  0  0  0  0  0  0  0  0
   25.9665  -15.1801    0.0000 H   0  0  0  0  0  0  0  0  0  0  0  0
   27.1155  -16.1443    0.0000 H   0  0  0  0  0  0  0  0  0  0  0  0
   25.1872  -18.4425    0.0000 H   0  0  0  0  0  0  0  0  0  0  0  0
   26.3362  -19.4066    0.0000 H   0  0  0  0  0  0  0  0  0  0  0  0
   28.2646  -17.1085    0.0000 H   0  0  0  0  0  0  0  0  0  0  0  0
   29.4137  -18.0727    0.0000 H   0  0  0  0  0  0  0  0  0  0  0  0
   27.4853  -20.3708    0.0000 H   0  0  0  0  0  0  0  0  0  0  0  0
   29.5985  -20.1859    0.0000 H   0  0  0  0  0  0  0  0  0  0  0  0
   20.9270   -9.5181    0.0000 H   0  0  0  0  0  0  0  0  0  0  0  0
   17.4042  -10.2160    0.0000 H   0  0  0  0  0  0  0  0  0  0  0  0
   19.3325   -7.9178    0.0000 H   0  0  0  0  0  0  0  0  0  0  0  0
   18.1835   -6.9537    0.0000 H   0  0  0  0  0  0  0  0  0  0  0  0
   16.2551   -9.2518    0.0000 H   0  0  0  0  0  0  0  0  0  0  0  0
   15.1060   -8.2876    0.0000 H   0  0  0  0  0  0  0  0  0  0  0  0
   17.0344   -5.9895    0.0000 H   0  0  0  0  0  0  0  0  0  0  0  0
   13.9570   -7.3234    0.0000 H   0  0  0  0  0  0  0  0  0  0  0  0
   15.8853   -5.0253    0.0000 H   0  0  0  0  0  0  0  0  0  0  0  0
   14.7363   -4.0611    0.0000 H   0  0  0  0  0  0  0  0  0  0  0  0
   12.8079   -6.3592    0.0000 H   0  0  0  0  0  0  0  0  0  0  0  0
   11.6588   -5.3951    0.0000 H   0  0  0  0  0  0  0  0  0  0  0  0
   13.5872   -3.0969    0.0000 H   0  0  0  0  0  0  0  0  0  0  0  0
   12.4381   -2.1327    0.0000 H   0  0  0  0  0  0  0  0  0  0  0  0
   10.5098   -4.4309    0.0000 H   0  0  0  0  0  0  0  0  0  0  0  0
    8.7305   -0.7174    0.0000 H   0  0  0  0  0  0  0  0  0  0  0  0
    7.9512   -3.9797    0.0000 H   0  0  0  0  0  0  0  0  0  0  0  0
    6.0592   -2.5332    0.0000 H   0  0  0  0  0  0  0  0  0  0  0  0
    2.2475   -4.0890    0.0000 H   0  0  0  0  0  0  0  0  0  0  0  0
    4.5456   -6.0174    0.0000 H   0  0  0  0  0  0  0  0  0  0  0  0
    3.5814   -7.1665    0.0000 H   0  0  0  0  0  0  0  0  0  0  0  0
    1.2833   -5.2381    0.0000 H   0  0  0  0  0  0  0  0  0  0  0  0
    0.3191   -6.3872    0.0000 H   0  0  0  0  0  0  0  0  0  0  0  0
    2.6172   -8.3155    0.0000 H   0  0  0  0  0  0  0  0  0  0  0  0
    1.6530   -9.4646    0.0000 H   0  0  0  0  0  0  0  0  0  0  0  0
   -0.6451   -7.5362    0.0000 H   0  0  0  0  0  0  0  0  0  0  0  0
   -1.6093   -8.6853    0.0000 H   0  0  0  0  0  0  0  0  0  0  0  0
    0.6889  -10.6137    0.0000 H   0  0  0  0  0  0  0  0  0  0  0  0
   -0.2753  -11.7627    0.0000 H   0  0  0  0  0  0  0  0  0  0  0  0
   -2.5735   -9.8344    0.0000 H   0  0  0  0  0  0  0  0  0  0  0  0
   -3.5376  -10.9834    0.0000 H   0  0  0  0  0  0  0  0  0  0  0  0
   -1.2395  -12.9118    0.0000 H   0  0  0  0  0  0  0  0  0  0  0  0
   -2.2037  -14.0609    0.0000 H   0  0  0  0  0  0  0  0  0  0  0  0
   -4.5018  -12.1325    0.0000 H   0  0  0  0  0  0  0  0  0  0  0  0
   -5.4660  -13.2816    0.0000 H   0  0  0  0  0  0  0  0  0  0  0  0
   -3.1679  -15.2099    0.0000 H   0  0  0  0  0  0  0  0  0  0  0  0
   -4.1320  -16.3590    0.0000 H   0  0  0  0  0  0  0  0  0  0  0  0
   -6.4302  -14.4306    0.0000 H   0  0  0  0  0  0  0  0  0  0  0  0
   -7.3944  -15.5797    0.0000 H   0  0  0  0  0  0  0  0  0  0  0  0
   -5.0962  -17.5081    0.0000 H   0  0  0  0  0  0  0  0  0  0  0  0
   -6.0604  -18.6571    0.0000 H   0  0  0  0  0  0  0  0  0  0  0  0
   -8.3585  -16.7288    0.0000 H   0  0  0  0  0  0  0  0  0  0  0  0
   -9.3227  -17.8778    0.0000 H   0  0  0  0  0  0  0  0  0  0  0  0
   -7.0246  -19.8062    0.0000 H   0  0  0  0  0  0  0  0  0  0  0  0
   -7.9888  -20.9553    0.0000 H   0  0  0  0  0  0  0  0  0  0  0  0
  -10.2869  -19.0269    0.0000 H   0  0  0  0  0  0  0  0  0  0  0  0
  -11.2511  -20.1760    0.0000 H   0  0  0  0  0  0  0  0  0  0  0  0
   -8.9530  -22.1043    0.0000 H   0  0  0  0  0  0  0  0  0  0  0  0
  -11.0662  -22.2892    0.0000 H   0  0  0  0  0  0  0  0  0  0  0  0
    5.9694   -1.5064    0.0000 H   0  0  0  0  0  0  0  0  0  0  0  0
    7.5814    0.2468    0.0000 H   0  0  0  0  0  0  0  0  0  0  0  0
    4.0900    2.6814    0.0000 H   0  0  0  0  0  0  0  0  0  0  0  0
    6.7391    3.6456    0.0000 H   0  0  0  0  0  0  0  0  0  0  0  0
    8.5477    4.4935    0.0000 H   0  0  0  0  0  0  0  0  0  0  0  0
    7.2286    6.4219    0.0000 H   0  0  0  0  0  0  0  0  0  0  0  0
    7.3986    8.4121    0.0000 H   0  0  0  0  0  0  0  0  0  0  0  0
    5.0691    8.2339    0.0000 H   0  0  0  0  0  0  0  0  0  0  0  0
    2.2111    7.6777    0.0000 H   0  0  0  0  0  0  0  0  0  0  0  0
    2.5777    6.7567    0.0000 H   0  0  0  0  0  0  0  0  0  0  0  0
    1.4727    4.5166    0.0000 H   0  0  0  0  0  0  0  0  0  0  0  0
    2.4537    4.3735    0.0000 H   0  0  0  0  0  0  0  0  0  0  0  0
    3.8841    2.0333    0.0000 H   0  0  0  0  0  0  0  0  0  0  0  0
  1  2  1  0
  2  3  1  0
  3  4  1  0
  4  5  1  0
  5  6  1  0
  6  7  1  0
  7  8  1  0
  8  9  1  0
  1 10  2  0
 10 11  1  0
 11 12  1  0
 12 13  1  0
 13 14  1  0
 14 15  1  0
 15 16  1  0
 16 17  1  0
 17 18  1  0
 18 19  2  0
 18 20  1  0
 20 21  1  0
 21 22  1  0
 22 23  1  0
 23 24  1  0
 24 25  2  0
 24 26  1  0
 26 27  1  0
 27 28  1  0
 28 29  1  0
 29 30  1  0
 30 31  1  0
 31 32  1  0
 32 33  1  0
 33 34  1  0
 34 35  1  0
 35 36  1  0
 36 37  1  0
 37 38  1  0
 38 39  1  0
 39 40  1  0
 21 41  1  0
 41 42  1  0
 42 43  1  0
 43 44  1  0
 43 45  2  0
 43 46  1  0
 46 47  1  0
 47 48  1  0
 48 49  1  0
 48 50  1  0
 50 51  1  0
 50 52  1  0
 52 53  1  0
 52 54  1  0
 54 55  1  0
 54 56  1  0
 56 57  1  0
 56 47  1  0
  1 58  1  0
  2 59  1  0
  2 60  1  0
  3 61  1  0
  3 62  1  0
  4 63  1  0
  4 64  1  0
  5 65  1  0
  5 66  1  0
  6 67  1  0
  6 68  1  0
  7 69  1  0
  7 70  1  0
  8 71  1  0
  8 72  1  0
  9 73  1  0
  9 74  1  0
  9 75  1  0
 10 76  1  0
 11 77  1  0
 11 78  1  0
 12 79  1  0
 12 80  1  0
 13 81  1  0
 13 82  1  0
 14 83  1  0
 14 84  1  0
 15 85  1  0
 15 86  1  0
 16 87  1  0
 16 88  1  0
 17 89  1  0
 17 90  1  0
 21 91  1  1
 22 92  1  0
 22 93  1  0
 26 94  1  0
 26 95  1  0
 27 96  1  0
 27 97  1  0
 28 98  1  0
 28 99  1  0
 29100  1  0
 29101  1  0
 30102  1  0
 30103  1  0
 31104  1  0
 31105  1  0
 32106  1  0
 32107  1  0
 33108  1  0
 33109  1  0
 34110  1  0
 34111  1  0
 35112  1  0
 35113  1  0
 36114  1  0
 36115  1  0
 37116  1  0
 37117  1  0
 38118  1  0
 38119  1  0
 39120  1  0
 39121  1  0
 40122  1  0
 40123  1  0
 40124  1  0
 41125  1  0
 41126  1  0
 47127  1  1
 48128  1  6
 49129  1  0
 50130  1  1
 51131  1  0
 52132  1  6
 53133  1  0
 54134  1  1
 55135  1  0
 56136  1  1
 57137  1  0
M  CHG  1  44  -1
M  END
$$$$
