
     RDKit          3D

 47 50  0  0  0  0  0  0  0  0999 V2000
   -1.3859    1.7687   -0.2402 C   0  0  1  0  0  0  0  0  0  0  0  0
   -1.6695    0.3894   -1.4130 S   0  0  0  0  0  0  0  0  0  0  0  0
   -3.4207    0.1107   -0.8529 C   0  0  0  0  0  0  0  0  0  0  0  0
   -3.4428   -1.1864   -0.0249 C   0  0  0  0  0  0  0  0  0  0  0  0
   -4.3178   -0.0811   -2.0913 C   0  0  0  0  0  0  0  0  0  0  0  0
   -3.8453    1.3100    0.0553 C   0  0  1  0  0  0  0  0  0  0  0  0
   -2.5951    1.8497    0.5207 N   0  0  0  0  0  0  0  0  0  0  0  0
   -1.7984    1.6484    1.7536 C   0  0  0  0  0  0  0  0  0  0  0  0
   -2.0641    1.5461    2.9795 O   0  0  0  0  0  0  0  0  0  0  0  0
   -0.5579    1.5439    0.9239 C   0  0  1  0  0  0  0  0  0  0  0  0
    0.0521    0.2131    0.9940 N   0  0  0  0  0  0  0  0  0  0  0  0
    1.2902   -0.0713    0.3257 C   0  0  0  0  0  0  0  0  0  0  0  0
    1.8668    0.8379   -0.3291 O   0  0  0  0  0  0  0  0  0  0  0  0
    1.9211   -1.4053    0.4268 C   0  0  0  0  0  0  0  0  0  0  0  0
    1.3134   -2.6456    0.5489 C   0  0  0  0  0  0  0  0  0  0  0  0
   -0.1462   -2.9579    0.5254 C   0  0  0  0  0  0  0  0  0  0  0  0
    2.2466   -3.5586    0.6881 O   0  0  0  0  0  0  0  0  0  0  0  0
    3.4353   -3.0303    0.6562 N   0  0  0  0  0  0  0  0  0  0  0  0
    3.2748   -1.7041    0.4820 C   0  0  0  0  0  0  0  0  0  0  0  0
    4.4024   -0.7579    0.4209 C   0  0  0  0  0  0  0  0  0  0  0  0
    4.6599   -0.0647   -0.7727 C   0  0  0  0  0  0  0  0  0  0  0  0
    5.7389    0.8190   -0.8571 C   0  0  0  0  0  0  0  0  0  0  0  0
    6.5741    1.0108    0.2454 C   0  0  0  0  0  0  0  0  0  0  0  0
    6.3338    0.3170    1.4341 C   0  0  0  0  0  0  0  0  0  0  0  0
    5.2549   -0.5710    1.5281 C   0  0  0  0  0  0  0  0  0  0  0  0
    4.9802   -1.4076    3.0525 Cl  0  0  0  0  0  0  0  0  0  0  0  0
   -4.6148    2.3916   -0.6570 C   0  0  0  0  0  0  0  0  0  0  0  0
   -5.9909    2.4885   -0.4763 O   0  0  0  0  0  0  0  0  0  0  0  0
   -4.0287    3.1855   -1.4423 O   0  0  0  0  0  0  0  0  0  0  0  0
   -1.1714    2.7316   -0.7539 H   0  0  0  0  0  0  0  0  0  0  0  0
   -2.7833   -1.0939    0.8643 H   0  0  0  0  0  0  0  0  0  0  0  0
   -4.4741   -1.4086    0.3247 H   0  0  0  0  0  0  0  0  0  0  0  0
   -3.0894   -2.0462   -0.6334 H   0  0  0  0  0  0  0  0  0  0  0  0
   -5.3808   -0.1926   -1.7875 H   0  0  0  0  0  0  0  0  0  0  0  0
   -4.2280    0.7832   -2.7824 H   0  0  0  0  0  0  0  0  0  0  0  0
   -4.0144   -0.9896   -2.6549 H   0  0  0  0  0  0  0  0  0  0  0  0
   -4.4477    0.9728    0.9279 H   0  0  0  0  0  0  0  0  0  0  0  0
    0.1591    2.3650    1.1445 H   0  0  0  0  0  0  0  0  0  0  0  0
   -0.3258   -0.4806    1.6764 H   0  0  0  0  0  0  0  0  0  0  0  0
   -0.2981   -4.0097    0.2053 H   0  0  0  0  0  0  0  0  0  0  0  0
   -0.5770   -2.8280    1.5393 H   0  0  0  0  0  0  0  0  0  0  0  0
   -0.6625   -2.2939   -0.1963 H   0  0  0  0  0  0  0  0  0  0  0  0
    4.0295   -0.2154   -1.6407 H   0  0  0  0  0  0  0  0  0  0  0  0
    5.9303    1.3522   -1.7794 H   0  0  0  0  0  0  0  0  0  0  0  0
    7.4097    1.6955    0.1782 H   0  0  0  0  0  0  0  0  0  0  0  0
    6.9869    0.4714    2.2837 H   0  0  0  0  0  0  0  0  0  0  0  0
   -6.5294    3.1981   -0.9585 H   0  0  0  0  0  0  0  0  0  0  0  0
  1  2  1  0
  2  3  1  0
  3  4  1  0
  3  5  1  0
  3  6  1  0
  6  7  1  0
  7  8  1  0
  8  9  2  0
  8 10  1  0
 10 11  1  0
 11 12  1  0
 12 13  2  0
 12 14  1  0
 14 15  2  0
 15 16  1  0
 15 17  1  0
 17 18  1  0
 18 19  2  0
 19 20  1  0
 20 21  2  0
 21 22  1  0
 22 23  2  0
 23 24  1  0
 24 25  2  0
 25 26  1  0
  6 27  1  0
 27 28  1  0
 27 29  2  0
  7  1  1  0
 19 14  1  0
 25 20  1  0
 10  1  1  0
  1 30  1  6
  4 31  1  0
  4 32  1  0
  4 33  1  0
  5 34  1  0
  5 35  1  0
  5 36  1  0
  6 37  1  1
 10 38  1  1
 11 39  1  0
 16 40  1  0
 16 41  1  0
 16 42  1  0
 21 43  1  0
 22 44  1  0
 23 45  1  0
 24 46  1  0
 28 47  1  0
M  END
$$$$
