
     RDKit          3D

 35 37  0  0  0  0  0  0  0  0999 V2000
   -0.3134    0.0633    0.5137 C   0  0  1  0  0  0  0  0  0  0  0  0
   -0.5442    1.3185    1.3838 C   0  0  0  0  0  0  0  0  0  0  0  0
   -2.1529    1.2610    2.2391 S   0  0  0  0  0  0  0  0  0  0  0  0
   -0.9635    0.1720   -0.8846 C   0  0  0  0  0  0  0  0  0  0  0  0
   -2.4696    0.1781   -0.8304 C   0  0  0  0  0  0  0  0  0  0  0  0
   -3.1714   -1.0073   -0.5532 C   0  0  0  0  0  0  0  0  0  0  0  0
   -4.5679   -0.9996   -0.4845 C   0  0  0  0  0  0  0  0  0  0  0  0
   -5.2729    0.1891   -0.6917 C   0  0  0  0  0  0  0  0  0  0  0  0
   -4.5827    1.3724   -0.9685 C   0  0  0  0  0  0  0  0  0  0  0  0
   -3.1862    1.3695   -1.0384 C   0  0  0  0  0  0  0  0  0  0  0  0
    1.1651   -0.1689    0.3441 C   0  0  0  0  0  0  0  0  0  0  0  0
    2.0114    0.7670   -0.1685 N   0  0  0  0  0  0  0  0  0  0  0  0
    3.1941    0.1279   -0.1554 C   0  0  0  0  0  0  0  0  0  0  0  0
    3.0556   -1.1299    0.3372 C   0  0  0  0  0  0  0  0  0  0  0  0
    1.7742   -1.3404    0.6587 N   0  0  0  0  0  0  0  0  0  0  0  0
    4.1347   -1.9994    0.4498 C   0  0  0  0  0  0  0  0  0  0  0  0
    5.3869   -1.5139    0.0287 C   0  0  0  0  0  0  0  0  0  0  0  0
    5.5097   -0.2391   -0.4669 N   0  0  0  0  0  4  0  0  0  0  0  0
    4.4338    0.6000   -0.5703 C   0  0  0  0  0  0  0  0  0  0  0  0
   -0.7342   -0.8214    1.0415 H   0  0  0  0  0  0  0  0  0  0  0  0
    0.2359    1.3845    2.1736 H   0  0  0  0  0  0  0  0  0  0  0  0
   -0.4840    2.2416    0.7679 H   0  0  0  0  0  0  0  0  0  0  0  0
   -1.9505    2.5161    2.8434 H   0  0  0  0  0  0  0  0  0  0  0  0
   -0.5906    1.0820   -1.4055 H   0  0  0  0  0  0  0  0  0  0  0  0
   -0.6465   -0.6964   -1.5043 H   0  0  0  0  0  0  0  0  0  0  0  0
   -2.6363   -1.9342   -0.3877 H   0  0  0  0  0  0  0  0  0  0  0  0
   -5.1035   -1.9151   -0.2692 H   0  0  0  0  0  0  0  0  0  0  0  0
   -6.3539    0.1936   -0.6369 H   0  0  0  0  0  0  0  0  0  0  0  0
   -5.1298    2.2928   -1.1263 H   0  0  0  0  0  0  0  0  0  0  0  0
   -2.6645    2.2956   -1.2454 H   0  0  0  0  0  0  0  0  0  0  0  0
    1.3448   -2.2064    1.0546 H   0  0  0  0  0  0  0  0  0  0  0  0
    4.0182   -3.0013    0.8421 H   0  0  0  0  0  0  0  0  0  0  0  0
    6.2584   -2.1526    0.0965 H   0  0  0  0  0  0  0  0  0  0  0  0
    6.4489    0.0990   -0.7738 H   0  0  0  0  0  0  0  0  0  0  0  0
    4.5469    1.6020   -0.9645 H   0  0  0  0  0  0  0  0  0  0  0  0
  1  2  1  0
  2  3  1  0
  1  4  1  0
  4  5  1  0
  5  6  2  0
  6  7  1  0
  7  8  2  0
  8  9  1  0
  9 10  2  0
  1 11  1  0
 11 12  2  0
 12 13  1  0
 13 14  2  0
 14 15  1  0
 14 16  1  0
 16 17  2  0
 17 18  1  0
 18 19  2  0
 10  5  1  0
 15 11  1  0
 19 13  1  0
  1 20  1  1
  2 21  1  0
  2 22  1  0
  3 23  1  0
  4 24  1  0
  4 25  1  0
  6 26  1  0
  7 27  1  0
  8 28  1  0
  9 29  1  0
 10 30  1  0
 15 31  1  0
 16 32  1  0
 17 33  1  0
 18 34  1  0
 19 35  1  0
M  CHG  1  18   1
M  END
$$$$
