
     RDKit          3D

 43 43  0  0  0  0  0  0  0  0999 V2000
    3.4396   -0.2781   -0.7396 C   0  0  2  0  0  0  0  0  0  0  0  0
    3.7466   -1.4920   -1.6196 C   0  0  0  0  0  0  0  0  0  0  0  0
    4.3990   -0.1860    0.3655 N   0  0  0  0  0  0  0  0  0  0  0  0
    4.5166    0.9923    1.1749 C   0  0  0  0  0  0  0  0  0  0  0  0
    5.4965    1.0271    2.3018 C   0  0  0  0  0  0  0  0  0  0  0  0
    3.7867    1.9960    0.9515 O   0  0  0  0  0  0  0  0  0  0  0  0
    2.0368   -0.3795   -0.2037 C   0  0  0  0  0  0  0  0  0  0  0  0
    1.7955   -1.1440    0.7707 O   0  0  0  0  0  0  0  0  0  0  0  0
    0.9727    0.3556   -0.8259 N   0  0  0  0  0  0  0  0  0  0  0  0
   -0.4179    0.2433   -0.3764 C   0  0  1  0  0  0  0  0  0  0  0  0
   -1.2497    1.4210   -0.9239 C   0  0  0  0  0  0  0  0  0  0  0  0
   -2.6703    1.3916   -0.4179 C   0  0  0  0  0  0  0  0  0  0  0  0
   -3.7113    0.9361   -1.2451 C   0  0  0  0  0  0  0  0  0  0  0  0
   -5.0217    0.8781   -0.7605 C   0  0  0  0  0  0  0  0  0  0  0  0
   -5.3013    1.2693    0.5516 C   0  0  0  0  0  0  0  0  0  0  0  0
   -4.2710    1.7194    1.3816 C   0  0  0  0  0  0  0  0  0  0  0  0
   -2.9594    1.7801    0.9009 C   0  0  0  0  0  0  0  0  0  0  0  0
   -0.9844   -1.0861   -0.8270 C   0  0  0  0  0  0  0  0  0  0  0  0
   -1.0919   -1.3229   -2.0218 O   0  0  0  0  0  0  0  0  0  0  0  0
   -1.3863   -2.1405    0.1710 C   0  0  0  0  0  0  0  0  0  0  0  0
   -2.9013   -2.3276    0.1870 C   0  0  0  0  0  0  0  0  0  0  0  0
   -3.3447   -3.6282    1.3201 Cl  0  0  0  0  0  0  0  0  0  0  0  0
    3.5364    0.6311   -1.3731 H   0  0  0  0  0  0  0  0  0  0  0  0
    4.7762   -1.4108   -2.0284 H   0  0  0  0  0  0  0  0  0  0  0  0
    3.0339   -1.5371   -2.4711 H   0  0  0  0  0  0  0  0  0  0  0  0
    3.6672   -2.4326   -1.0327 H   0  0  0  0  0  0  0  0  0  0  0  0
    5.0220   -0.9982    0.5799 H   0  0  0  0  0  0  0  0  0  0  0  0
    6.5076    0.7668    1.9248 H   0  0  0  0  0  0  0  0  0  0  0  0
    5.1949    0.2921    3.0768 H   0  0  0  0  0  0  0  0  0  0  0  0
    5.5332    2.0393    2.7578 H   0  0  0  0  0  0  0  0  0  0  0  0
    1.2000    0.9659   -1.6440 H   0  0  0  0  0  0  0  0  0  0  0  0
   -0.4340    0.3116    0.7341 H   0  0  0  0  0  0  0  0  0  0  0  0
   -0.7772    2.3765   -0.6062 H   0  0  0  0  0  0  0  0  0  0  0  0
   -1.2347    1.4123   -2.0365 H   0  0  0  0  0  0  0  0  0  0  0  0
   -3.5078    0.6181   -2.2600 H   0  0  0  0  0  0  0  0  0  0  0  0
   -5.8195    0.5247   -1.4007 H   0  0  0  0  0  0  0  0  0  0  0  0
   -6.3156    1.2211    0.9260 H   0  0  0  0  0  0  0  0  0  0  0  0
   -4.4882    2.0189    2.3987 H   0  0  0  0  0  0  0  0  0  0  0  0
   -2.1687    2.1244    1.5560 H   0  0  0  0  0  0  0  0  0  0  0  0
   -1.0461   -1.8620    1.1914 H   0  0  0  0  0  0  0  0  0  0  0  0
   -0.8924   -3.0985   -0.1002 H   0  0  0  0  0  0  0  0  0  0  0  0
   -3.3963   -1.3911    0.5180 H   0  0  0  0  0  0  0  0  0  0  0  0
   -3.2698   -2.5971   -0.8258 H   0  0  0  0  0  0  0  0  0  0  0  0
  1  2  1  0
  1  3  1  0
  3  4  1  0
  4  5  1  0
  4  6  2  0
  1  7  1  0
  7  8  2  0
  7  9  1  0
  9 10  1  0
 10 11  1  0
 11 12  1  0
 12 13  2  0
 13 14  1  0
 14 15  2  0
 15 16  1  0
 16 17  2  0
 10 18  1  0
 18 19  2  0
 18 20  1  0
 20 21  1  0
 21 22  1  0
 17 12  1  0
  1 23  1  6
  2 24  1  0
  2 25  1  0
  2 26  1  0
  3 27  1  0
  5 28  1  0
  5 29  1  0
  5 30  1  0
  9 31  1  0
 10 32  1  1
 11 33  1  0
 11 34  1  0
 13 35  1  0
 14 36  1  0
 15 37  1  0
 16 38  1  0
 17 39  1  0
 20 40  1  0
 20 41  1  0
 21 42  1  0
 21 43  1  0
M  END
$$$$
