
     RDKit          3D

 23 24  0  0  0  0  0  0  0  0999 V2000
   -3.0067    0.5555    1.2463 C   0  0  0  0  0  0  0  0  0  0  0  0
   -2.2921    0.0197    0.0847 N   0  0  0  0  0  0  0  0  0  0  0  0
   -3.0292   -0.5211   -1.0604 C   0  0  0  0  0  0  0  0  0  0  0  0
   -0.8520    0.0294    0.0786 C   0  0  0  0  0  0  0  0  0  0  0  0
   -0.1147    0.5174    1.1110 N   0  0  0  0  0  0  0  0  0  0  0  0
    1.1499    0.3318    0.6897 C   0  0  0  0  0  0  0  0  0  0  0  0
    2.3243    0.6564    1.3637 C   0  0  0  0  0  0  0  0  0  0  0  0
    2.2317    1.4662    3.1006 Br  0  0  0  0  0  0  0  0  0  0  0  0
    3.5542    0.3685    0.7238 C   0  0  0  0  0  0  0  0  0  0  0  0
    5.2080    0.7955    1.6083 Br  0  0  0  0  0  0  0  0  0  0  0  0
    3.5642   -0.2341   -0.5676 C   0  0  0  0  0  0  0  0  0  0  0  0
    5.2329   -0.6269   -1.4404 Br  0  0  0  0  0  0  0  0  0  0  0  0
    2.3444   -0.5470   -1.2157 C   0  0  0  0  0  0  0  0  0  0  0  0
    2.2874   -1.3587   -2.9542 Br  0  0  0  0  0  0  0  0  0  0  0  0
    1.1602   -0.2441   -0.5446 C   0  0  0  0  0  0  0  0  0  0  0  0
   -0.1023   -0.4437   -0.9491 N   0  0  0  0  0  0  0  0  0  0  0  0
   -4.1075    0.4871    1.1201 H   0  0  0  0  0  0  0  0  0  0  0  0
   -2.7250   -0.0168    2.1553 H   0  0  0  0  0  0  0  0  0  0  0  0
   -2.7393    1.6238    1.3898 H   0  0  0  0  0  0  0  0  0  0  0  0
   -2.7746    0.0544   -1.9753 H   0  0  0  0  0  0  0  0  0  0  0  0
   -4.1271   -0.4598   -0.9084 H   0  0  0  0  0  0  0  0  0  0  0  0
   -2.7603   -1.5882   -1.2088 H   0  0  0  0  0  0  0  0  0  0  0  0
   -0.4265   -0.8656   -1.8473 H   0  0  0  0  0  0  0  0  0  0  0  0
  1  2  1  0
  2  3  1  0
  2  4  1  0
  4  5  2  0
  5  6  1  0
  6  7  2  0
  7  8  1  0
  7  9  1  0
  9 10  1  0
  9 11  2  0
 11 12  1  0
 11 13  1  0
 13 14  1  0
 13 15  2  0
 15 16  1  0
 16  4  1  0
 15  6  1  0
  1 17  1  0
  1 18  1  0
  1 19  1  0
  3 20  1  0
  3 21  1  0
  3 22  1  0
 16 23  1  0
M  END
$$$$
