
     RDKit          3D

 48 50  0  0  0  0  0  0  0  0999 V2000
    5.6781   -3.4718    1.0507 O   0  0  0  0  0  0  0  0  0  0  0  0
    6.4119   -2.2933    1.1418 C   0  0  0  0  0  0  0  0  0  0  0  0
    7.6700   -2.3366    1.1963 O   0  0  0  0  0  0  0  0  0  0  0  0
    5.7039   -0.9804    1.2255 C   0  0  0  0  0  0  0  0  0  0  0  0
    5.5047   -0.6186    2.6297 N   0  0  0  0  0  0  0  0  0  0  0  0
    4.8147    0.9727    2.7351 S   0  0  0  0  0  6  0  0  0  0  0  0
    5.7675    1.9777    2.1491 O   0  0  0  0  0  0  0  0  0  0  0  0
    4.5898    1.3191    4.1801 O   0  0  0  0  0  0  0  0  0  0  0  0
    3.2728    1.0316    1.8833 C   0  0  0  0  0  0  0  0  0  0  0  0
    2.1303    0.4746    2.4710 C   0  0  0  0  0  0  0  0  0  0  0  0
    0.9076    0.4984    1.7943 C   0  0  0  0  0  0  0  0  0  0  0  0
    0.8130    1.0769    0.5185 C   0  0  0  0  0  0  0  0  0  0  0  0
    1.9638    1.6266   -0.0715 C   0  0  0  0  0  0  0  0  0  0  0  0
    3.1857    1.6031    0.6068 C   0  0  0  0  0  0  0  0  0  0  0  0
   -0.4479    1.0924   -0.1768 N   0  0  0  0  0  0  0  0  0  0  0  0
   -1.6246    1.7064    0.4523 C   0  0  0  0  0  0  0  0  0  0  0  0
   -2.8754    0.8745    0.1557 C   0  0  0  0  0  0  0  0  0  0  0  0
   -3.0215    0.6370   -1.3597 C   0  0  0  0  0  0  0  0  0  0  0  0
   -1.7582   -0.0389   -1.9266 C   0  0  0  0  0  0  0  0  0  0  0  0
   -0.5088    0.7910   -1.6131 C   0  0  0  0  0  0  0  0  0  0  0  0
   -4.2660   -0.1738   -1.6718 C   0  0  0  0  0  0  0  0  0  0  0  0
   -5.2857    0.3819   -2.4667 C   0  0  0  0  0  0  0  0  0  0  0  0
   -6.4366   -0.3557   -2.7611 C   0  0  0  0  0  0  0  0  0  0  0  0
   -6.5830   -1.6535   -2.2668 C   0  0  0  0  0  0  0  0  0  0  0  0
   -5.5788   -2.2171   -1.4768 C   0  0  0  0  0  0  0  0  0  0  0  0
   -4.4258   -1.4845   -1.1792 C   0  0  0  0  0  0  0  0  0  0  0  0
    6.1427   -4.3711    1.0100 H   0  0  0  0  0  0  0  0  0  0  0  0
    6.3192   -0.2095    0.7118 H   0  0  0  0  0  0  0  0  0  0  0  0
    4.7263   -1.0612    0.7006 H   0  0  0  0  0  0  0  0  0  0  0  0
    4.8044   -1.2789    3.0407 H   0  0  0  0  0  0  0  0  0  0  0  0
    2.1879    0.0156    3.4499 H   0  0  0  0  0  0  0  0  0  0  0  0
    0.0375    0.0500    2.2568 H   0  0  0  0  0  0  0  0  0  0  0  0
    1.9130    2.0821   -1.0522 H   0  0  0  0  0  0  0  0  0  0  0  0
    4.0621    2.0265    0.1334 H   0  0  0  0  0  0  0  0  0  0  0  0
   -1.7560    2.7357    0.0533 H   0  0  0  0  0  0  0  0  0  0  0  0
   -1.4977    1.7868    1.5533 H   0  0  0  0  0  0  0  0  0  0  0  0
   -3.7698    1.4120    0.5397 H   0  0  0  0  0  0  0  0  0  0  0  0
   -2.7939   -0.0937    0.6959 H   0  0  0  0  0  0  0  0  0  0  0  0
   -3.1102    1.6357   -1.8458 H   0  0  0  0  0  0  0  0  0  0  0  0
   -1.8542   -0.1499   -3.0288 H   0  0  0  0  0  0  0  0  0  0  0  0
   -1.6302   -1.0519   -1.4868 H   0  0  0  0  0  0  0  0  0  0  0  0
   -0.5314    1.7416   -2.1891 H   0  0  0  0  0  0  0  0  0  0  0  0
    0.3863    0.2117   -1.9297 H   0  0  0  0  0  0  0  0  0  0  0  0
   -5.1926    1.3864   -2.8603 H   0  0  0  0  0  0  0  0  0  0  0  0
   -7.2157    0.0800   -3.3733 H   0  0  0  0  0  0  0  0  0  0  0  0
   -7.4747   -2.2226   -2.4959 H   0  0  0  0  0  0  0  0  0  0  0  0
   -5.6934   -3.2231   -1.0944 H   0  0  0  0  0  0  0  0  0  0  0  0
   -3.6611   -1.9420   -0.5654 H   0  0  0  0  0  0  0  0  0  0  0  0
  1  2  1  0
  2  3  2  0
  2  4  1  0
  4  5  1  0
  5  6  1  0
  6  7  2  0
  6  8  2  0
  6  9  1  0
  9 10  2  0
 10 11  1  0
 11 12  2  0
 12 13  1  0
 13 14  2  0
 12 15  1  0
 15 16  1  0
 16 17  1  0
 17 18  1  0
 18 19  1  0
 19 20  1  0
 18 21  1  0
 21 22  2  0
 22 23  1  0
 23 24  2  0
 24 25  1  0
 25 26  2  0
 14  9  1  0
 20 15  1  0
 26 21  1  0
  1 27  1  0
  4 28  1  0
  4 29  1  0
  5 30  1  0
 10 31  1  0
 11 32  1  0
 13 33  1  0
 14 34  1  0
 16 35  1  0
 16 36  1  0
 17 37  1  0
 17 38  1  0
 18 39  1  0
 19 40  1  0
 19 41  1  0
 20 42  1  0
 20 43  1  0
 22 44  1  0
 23 45  1  0
 24 46  1  0
 25 47  1  0
 26 48  1  0
M  END
$$$$
