
     RDKit          3D

 36 36  0  0  0  0  0  0  0  0999 V2000
   -0.9589    4.5597    2.0904 C   0  0  0  0  0  0  0  0  0  0  0  0
   -0.6007    3.5047    1.0951 C   0  0  0  0  0  0  0  0  0  0  0  0
   -0.2615    3.8409   -0.0718 O   0  0  0  0  0  0  0  0  0  0  0  0
   -0.6077    2.1235    1.4836 N   0  0  0  0  0  0  0  0  0  0  0  0
   -0.1716    1.0504    0.5838 C   0  0  1  0  0  0  0  0  0  0  0  0
    1.3324    0.7914    0.7788 C   0  0  0  0  0  0  0  0  0  0  0  0
    1.8583   -0.2008   -0.2283 C   0  0  0  0  0  0  0  0  0  0  0  0
    1.9369   -1.5631    0.0938 C   0  0  0  0  0  0  0  0  0  0  0  0
    2.3605   -2.4924   -0.8600 C   0  0  0  0  0  0  0  0  0  0  0  0
    2.4397   -4.5370   -0.3274 I   0  0  0  0  0  0  0  0  0  0  0  0
    2.7126   -2.0707   -2.1511 C   0  0  0  0  0  0  0  0  0  0  0  0
    3.1331   -3.0230   -3.0808 O   0  0  0  0  0  0  0  0  0  0  0  0
    2.6313   -0.7020   -2.4809 C   0  0  0  0  0  0  0  0  0  0  0  0
    3.1244    0.0391   -4.4038 I   0  0  0  0  0  0  0  0  0  0  0  0
    2.2004    0.2207   -1.5210 C   0  0  0  0  0  0  0  0  0  0  0  0
   -0.9706   -0.2047    0.8393 C   0  0  0  0  0  0  0  0  0  0  0  0
   -1.1969   -0.5762    2.0237 O   0  0  0  0  0  0  0  0  0  0  0  0
   -1.3999   -1.0177   -0.2632 N   0  0  0  0  0  0  0  0  0  0  0  0
   -2.0659   -2.3031   -0.0742 C   0  0  0  0  0  0  0  0  0  0  0  0
   -3.4710   -2.0921    0.3899 C   0  0  0  0  0  0  0  0  0  0  0  0
   -4.4190   -1.5773   -0.4885 O   0  0  0  0  0  0  0  0  0  0  0  0
   -3.7919   -2.3581    1.5789 O   0  0  0  0  0  0  0  0  0  0  0  0
   -1.8839    4.2678    2.6302 H   0  0  0  0  0  0  0  0  0  0  0  0
   -1.1338    5.5318    1.5822 H   0  0  0  0  0  0  0  0  0  0  0  0
   -0.1307    4.6751    2.8201 H   0  0  0  0  0  0  0  0  0  0  0  0
   -0.7757    1.9026    2.4917 H   0  0  0  0  0  0  0  0  0  0  0  0
   -0.3477    1.3654   -0.4687 H   0  0  0  0  0  0  0  0  0  0  0  0
    1.8863    1.7494    0.6669 H   0  0  0  0  0  0  0  0  0  0  0  0
    1.5239    0.4306    1.8139 H   0  0  0  0  0  0  0  0  0  0  0  0
    1.6539   -1.9051    1.0817 H   0  0  0  0  0  0  0  0  0  0  0  0
    3.4013   -2.7888   -4.0272 H   0  0  0  0  0  0  0  0  0  0  0  0
    2.1237    1.2685   -1.7847 H   0  0  0  0  0  0  0  0  0  0  0  0
   -1.1718   -0.7172   -1.2378 H   0  0  0  0  0  0  0  0  0  0  0  0
   -1.4965   -2.9219    0.6534 H   0  0  0  0  0  0  0  0  0  0  0  0
   -2.0897   -2.8519   -1.0399 H   0  0  0  0  0  0  0  0  0  0  0  0
   -5.3733   -1.4186   -0.1881 H   0  0  0  0  0  0  0  0  0  0  0  0
  1  2  1  0
  2  3  2  0
  2  4  1  0
  4  5  1  0
  5  6  1  0
  6  7  1  0
  7  8  2  0
  8  9  1  0
  9 10  1  0
  9 11  2  0
 11 12  1  0
 11 13  1  0
 13 14  1  0
 13 15  2  0
  5 16  1  0
 16 17  2  0
 16 18  1  0
 18 19  1  0
 19 20  1  0
 20 21  1  0
 20 22  2  0
 15  7  1  0
  1 23  1  0
  1 24  1  0
  1 25  1  0
  4 26  1  0
  5 27  1  6
  6 28  1  0
  6 29  1  0
  8 30  1  0
 12 31  1  0
 15 32  1  0
 18 33  1  0
 19 34  1  0
 19 35  1  0
 21 36  1  0
M  END
$$$$
