
     RDKit          3D

123130  0  0  0  0  0  0  0  0999 V2000
   -8.5384    1.0305    0.6409 C   0  0  1  0  0  0  0  0  0  0  0  0
   -8.4179   -0.3580   -0.0055 C   0  0  0  0  0  0  0  0  0  0  0  0
   -8.3833   -0.1183   -1.5008 C   0  0  0  0  0  0  0  0  0  0  0  0
   -7.7595    1.2828   -1.7174 C   0  0  2  0  0  0  0  0  0  0  0  0
   -8.2392    1.8069   -2.9386 O   0  0  0  0  0  0  0  0  0  0  0  0
   -6.1651    1.3283   -1.7731 C   0  0  2  0  0  0  0  0  0  0  0  0
   -5.5580    0.0973   -2.4960 C   0  0  0  0  0  0  0  0  0  0  0  0
   -4.0363    0.1681   -2.6221 C   0  0  0  0  0  0  0  0  0  0  0  0
   -3.3486    0.3433   -1.2536 C   0  0  2  0  0  0  0  0  0  0  0  0
   -3.4576   -0.9470   -0.3971 C   0  0  0  0  0  0  0  0  0  0  0  0
   -2.7460   -0.8035    0.9511 C   0  0  2  0  0  0  0  0  0  0  0  0
   -3.3262    0.3935    1.7164 C   0  0  0  0  0  0  0  0  0  0  0  0
   -3.2018    1.6879    0.9015 C   0  0  0  0  0  0  0  0  0  0  0  0
   -3.8700    1.6202   -0.5109 C   0  0  1  0  0  0  0  0  0  0  0  0
   -3.3682    2.8773   -1.2906 C   0  0  0  0  0  0  0  0  0  0  0  0
   -5.4561    1.5818   -0.4024 C   0  0  1  0  0  0  0  0  0  0  0  0
   -6.0244    2.8264    0.3390 C   0  0  0  0  0  0  0  0  0  0  0  0
   -7.4307    3.2528   -0.0960 C   0  0  0  0  0  0  0  0  0  0  0  0
   -8.3615    2.0909   -0.5124 C   0  0  2  0  0  0  0  0  0  0  0  0
   -9.7236    2.7378   -0.9145 C   0  0  0  0  0  0  0  0  0  0  0  0
   -1.3594   -0.6131    0.7203 O   0  0  0  0  0  0  0  0  0  0  0  0
   -0.5531   -1.2017    1.7280 C   0  0  1  0  0  0  0  0  0  0  0  0
   -0.1813   -2.6474    1.3581 C   0  0  0  0  0  0  0  0  0  0  0  0
    0.7523   -2.6626    0.1445 C   0  0  2  0  0  0  0  0  0  0  0  0
    1.1429   -3.9736   -0.1847 O   0  0  0  0  0  0  0  0  0  0  0  0
    1.9741   -1.7664    0.4056 C   0  0  2  0  0  0  0  0  0  0  0  0
    2.7758   -2.3559    1.4205 O   0  0  0  0  0  0  0  0  0  0  0  0
    4.1529   -2.2627    1.1104 C   0  0  1  0  0  0  0  0  0  0  0  0
    4.9684   -2.5750    2.3807 C   0  0  0  0  0  0  0  0  0  0  0  0
    6.2963   -3.2793    2.0306 C   0  0  2  0  0  0  0  0  0  0  0  0
    7.2394   -3.1427    3.0650 O   0  0  0  0  0  0  0  0  0  0  0  0
    6.8564   -2.7824    0.6827 C   0  0  2  0  0  0  0  0  0  0  0  0
    7.2078   -1.4119    0.8071 O   0  0  0  0  0  0  0  0  0  0  0  0
    8.3016   -1.0866   -0.0296 C   0  0  1  0  0  0  0  0  0  0  0  0
    8.3567    0.4452   -0.1964 C   0  0  0  0  0  0  0  0  0  0  0  0
    9.8049    0.9507   -0.3246 C   0  0  2  0  0  0  0  0  0  0  0  0
    9.8102    2.2079   -1.0032 O   0  0  0  0  0  0  0  0  0  0  0  0
   10.9009    3.0844   -0.9973 C   0  0  0  0  0  0  0  0  0  0  0  0
   10.8225    4.3567   -1.7699 C   0  0  0  0  0  0  0  0  0  0  0  0
   11.9274    2.8353   -0.3085 O   0  0  0  0  0  0  0  0  0  0  0  0
   10.6767   -0.0848   -1.0659 C   0  0  2  0  0  0  0  0  0  0  0  0
   10.2368   -0.2167   -2.3954 O   0  0  0  0  0  0  0  0  0  0  0  0
   10.5804   -1.4729   -0.3543 C   0  0  1  0  0  0  0  0  0  0  0  0
   11.8708   -1.7857    0.4048 C   0  0  0  0  0  0  0  0  0  0  0  0
    9.5009   -1.5462    0.5682 O   0  0  0  0  0  0  0  0  0  0  0  0
    5.7666   -2.9446   -0.4311 C   0  0  1  0  0  0  0  0  0  0  0  0
    6.1281   -4.0880   -1.3794 C   0  0  0  0  0  0  0  0  0  0  0  0
    4.4710   -3.2003    0.0959 O   0  0  0  0  0  0  0  0  0  0  0  0
    1.5220   -0.3615    0.8783 C   0  0  1  0  0  0  0  0  0  0  0  0
    1.0547    0.5494   -0.2706 C   0  0  0  0  0  0  0  0  0  0  0  0
    0.5984   -0.4013    1.9639 O   0  0  0  0  0  0  0  0  0  0  0  0
   -9.7792    1.1793    1.5032 C   0  0  0  0  0  0  0  0  0  0  0  0
  -11.0083    0.7807    1.1802 C   0  0  0  0  0  0  0  0  0  0  0  0
  -11.8587    1.1234    2.2923 C   0  0  0  0  0  0  0  0  0  0  0  0
  -13.0965    0.9075    2.3589 O   0  0  0  0  0  0  0  0  0  0  0  0
  -11.1241    1.7305    3.2906 O   0  0  0  0  0  0  0  0  0  0  0  0
   -9.7657    1.8073    2.8739 C   0  0  0  0  0  0  0  0  0  0  0  0
   -7.6960    1.1040    1.3559 H   0  0  0  0  0  0  0  0  0  0  0  0
   -7.4695   -0.8485    0.3054 H   0  0  0  0  0  0  0  0  0  0  0  0
   -9.2479   -1.0475    0.2603 H   0  0  0  0  0  0  0  0  0  0  0  0
   -7.9103   -0.9514   -2.0515 H   0  0  0  0  0  0  0  0  0  0  0  0
   -9.4361   -0.1019   -1.8618 H   0  0  0  0  0  0  0  0  0  0  0  0
   -8.0052    1.1677   -3.6610 H   0  0  0  0  0  0  0  0  0  0  0  0
   -5.9249    2.2067   -2.4080 H   0  0  0  0  0  0  0  0  0  0  0  0
   -5.9863    0.0107   -3.5170 H   0  0  0  0  0  0  0  0  0  0  0  0
   -5.7965   -0.8360   -1.9538 H   0  0  0  0  0  0  0  0  0  0  0  0
   -3.6695   -0.7636   -3.1059 H   0  0  0  0  0  0  0  0  0  0  0  0
   -3.7605    1.0015   -3.3022 H   0  0  0  0  0  0  0  0  0  0  0  0
   -2.2637    0.4758   -1.4678 H   0  0  0  0  0  0  0  0  0  0  0  0
   -2.9990   -1.7962   -0.9501 H   0  0  0  0  0  0  0  0  0  0  0  0
   -4.5145   -1.2190   -0.2016 H   0  0  0  0  0  0  0  0  0  0  0  0
   -2.9592   -1.7356    1.5271 H   0  0  0  0  0  0  0  0  0  0  0  0
   -4.3875    0.2003    1.9792 H   0  0  0  0  0  0  0  0  0  0  0  0
   -2.7784    0.5196    2.6748 H   0  0  0  0  0  0  0  0  0  0  0  0
   -2.1165    1.9097    0.7876 H   0  0  0  0  0  0  0  0  0  0  0  0
   -3.6190    2.5255    1.4985 H   0  0  0  0  0  0  0  0  0  0  0  0
   -3.9218    3.0530   -2.2313 H   0  0  0  0  0  0  0  0  0  0  0  0
   -2.2945    2.7705   -1.5573 H   0  0  0  0  0  0  0  0  0  0  0  0
   -3.4290    3.8020   -0.6822 H   0  0  0  0  0  0  0  0  0  0  0  0
   -5.7155    0.7069    0.2213 H   0  0  0  0  0  0  0  0  0  0  0  0
   -5.3822    3.7167    0.2164 H   0  0  0  0  0  0  0  0  0  0  0  0
   -6.0277    2.6231    1.4321 H   0  0  0  0  0  0  0  0  0  0  0  0
   -7.3263    3.9524   -0.9561 H   0  0  0  0  0  0  0  0  0  0  0  0
   -7.8950    3.8291    0.7351 H   0  0  0  0  0  0  0  0  0  0  0  0
  -10.1817    3.2749   -0.0566 H   0  0  0  0  0  0  0  0  0  0  0  0
   -9.5864    3.4924   -1.7189 H   0  0  0  0  0  0  0  0  0  0  0  0
  -10.4408    1.9772   -1.2852 H   0  0  0  0  0  0  0  0  0  0  0  0
   -1.0895   -1.2443    2.7049 H   0  0  0  0  0  0  0  0  0  0  0  0
    0.3172   -3.1257    2.2298 H   0  0  0  0  0  0  0  0  0  0  0  0
   -1.0977   -3.2323    1.1285 H   0  0  0  0  0  0  0  0  0  0  0  0
    0.1933   -2.2627   -0.7290 H   0  0  0  0  0  0  0  0  0  0  0  0
    1.5476   -4.3884    0.6212 H   0  0  0  0  0  0  0  0  0  0  0  0
    2.5139   -1.6669   -0.5688 H   0  0  0  0  0  0  0  0  0  0  0  0
    4.4034   -1.2199    0.7881 H   0  0  0  0  0  0  0  0  0  0  0  0
    5.1600   -1.6240    2.9245 H   0  0  0  0  0  0  0  0  0  0  0  0
    4.3879   -3.2370    3.0606 H   0  0  0  0  0  0  0  0  0  0  0  0
    6.0833   -4.3664    1.9209 H   0  0  0  0  0  0  0  0  0  0  0  0
    7.4201   -2.1748    3.1893 H   0  0  0  0  0  0  0  0  0  0  0  0
    7.7495   -3.4192    0.4647 H   0  0  0  0  0  0  0  0  0  0  0  0
    8.1626   -1.5380   -1.0450 H   0  0  0  0  0  0  0  0  0  0  0  0
    7.8851    0.9475    0.6772 H   0  0  0  0  0  0  0  0  0  0  0  0
    7.7717    0.7289   -1.0991 H   0  0  0  0  0  0  0  0  0  0  0  0
   10.2126    1.0882    0.7033 H   0  0  0  0  0  0  0  0  0  0  0  0
   10.1040    4.2462   -2.6089 H   0  0  0  0  0  0  0  0  0  0  0  0
   11.8202    4.6138   -2.1842 H   0  0  0  0  0  0  0  0  0  0  0  0
   10.4804    5.1743   -1.1021 H   0  0  0  0  0  0  0  0  0  0  0  0
   11.7346    0.2701   -1.0678 H   0  0  0  0  0  0  0  0  0  0  0  0
   10.6097    0.5500   -2.9042 H   0  0  0  0  0  0  0  0  0  0  0  0
   10.4587   -2.2778   -1.1157 H   0  0  0  0  0  0  0  0  0  0  0  0
   11.7856   -2.7753    0.9022 H   0  0  0  0  0  0  0  0  0  0  0  0
   12.0593   -1.0119    1.1796 H   0  0  0  0  0  0  0  0  0  0  0  0
   12.7327   -1.8197   -0.2956 H   0  0  0  0  0  0  0  0  0  0  0  0
    5.7220   -2.0211   -1.0532 H   0  0  0  0  0  0  0  0  0  0  0  0
    7.1051   -3.8885   -1.8696 H   0  0  0  0  0  0  0  0  0  0  0  0
    6.1881   -5.0469   -0.8214 H   0  0  0  0  0  0  0  0  0  0  0  0
    5.3527   -4.1825   -2.1692 H   0  0  0  0  0  0  0  0  0  0  0  0
    2.4305    0.1392    1.2782 H   0  0  0  0  0  0  0  0  0  0  0  0
    0.3191    0.0496   -0.9312 H   0  0  0  0  0  0  0  0  0  0  0  0
    1.9254    0.8349   -0.8988 H   0  0  0  0  0  0  0  0  0  0  0  0
    0.6027    1.4769    0.1403 H   0  0  0  0  0  0  0  0  0  0  0  0
  -11.3094    0.2951    0.2612 H   0  0  0  0  0  0  0  0  0  0  0  0
   -9.1186    1.2276    3.5654 H   0  0  0  0  0  0  0  0  0  0  0  0
   -9.4406    2.8674    2.8151 H   0  0  0  0  0  0  0  0  0  0  0  0
  1  2  1  0
  2  3  1  0
  3  4  1  0
  4  5  1  6
  4  6  1  0
  6  7  1  0
  7  8  1  0
  8  9  1  0
  9 10  1  0
 10 11  1  0
 11 12  1  0
 12 13  1  0
 13 14  1  0
 14 15  1  6
 14 16  1  0
 16 17  1  0
 17 18  1  0
 18 19  1  0
 19 20  1  6
 11 21  1  0
 21 22  1  0
 22 23  1  0
 23 24  1  0
 24 25  1  0
 24 26  1  0
 26 27  1  0
 27 28  1  0
 28 29  1  0
 29 30  1  0
 30 31  1  0
 30 32  1  0
 32 33  1  0
 33 34  1  0
 34 35  1  0
 35 36  1  0
 36 37  1  0
 37 38  1  0
 38 39  1  0
 38 40  2  0
 36 41  1  0
 41 42  1  0
 41 43  1  0
 43 44  1  0
 43 45  1  0
 32 46  1  0
 46 47  1  0
 46 48  1  0
 26 49  1  0
 49 50  1  0
 49 51  1  0
  1 52  1  0
 52 53  2  0
 53 54  1  0
 54 55  2  0
 54 56  1  0
 56 57  1  0
 19  1  1  0
 51 22  1  0
 57 52  1  0
 19  4  1  0
 48 28  1  0
 16  6  1  0
 45 34  1  0
 14  9  1  0
  1 58  1  1
  2 59  1  0
  2 60  1  0
  3 61  1  0
  3 62  1  0
  5 63  1  0
  6 64  1  6
  7 65  1  0
  7 66  1  0
  8 67  1  0
  8 68  1  0
  9 69  1  6
 10 70  1  0
 10 71  1  0
 11 72  1  1
 12 73  1  0
 12 74  1  0
 13 75  1  0
 13 76  1  0
 15 77  1  0
 15 78  1  0
 15 79  1  0
 16 80  1  1
 17 81  1  0
 17 82  1  0
 18 83  1  0
 18 84  1  0
 20 85  1  0
 20 86  1  0
 20 87  1  0
 22 88  1  1
 23 89  1  0
 23 90  1  0
 24 91  1  6
 25 92  1  0
 26 93  1  6
 28 94  1  6
 29 95  1  0
 29 96  1  0
 30 97  1  6
 31 98  1  0
 32 99  1  6
 34100  1  6
 35101  1  0
 35102  1  0
 36103  1  1
 39104  1  0
 39105  1  0
 39106  1  0
 41107  1  6
 42108  1  0
 43109  1  6
 44110  1  0
 44111  1  0
 44112  1  0
 46113  1  6
 47114  1  0
 47115  1  0
 47116  1  0
 49117  1  1
 50118  1  0
 50119  1  0
 50120  1  0
 53121  1  0
 57122  1  0
 57123  1  0
M  END
$$$$
