
     RDKit          3D

 32 34  0  0  0  0  0  0  0  0999 V2000
   -3.0444    3.5017    2.4605 O   0  0  0  0  0  1  0  0  0  0  0  0
   -1.8925    2.7967    2.1957 N   0  0  0  0  0  4  0  0  0  0  0  0
   -0.8206    3.1840    2.7058 O   0  0  0  0  0  0  0  0  0  0  0  0
   -1.9249    1.6348    1.3461 C   0  0  0  0  0  0  0  0  0  0  0  0
   -0.7514    0.9117    1.0735 C   0  0  0  0  0  0  0  0  0  0  0  0
   -0.7681   -0.2221    0.2382 C   0  0  0  0  0  0  0  0  0  0  0  0
   -2.0052   -0.6583   -0.3033 C   0  0  0  0  0  0  0  0  0  0  0  0
   -2.1145   -1.8260   -1.1355 N   0  0  0  0  0  0  0  0  0  0  0  0
   -1.4333   -3.0536   -0.8550 C   0  0  0  0  0  0  0  0  0  0  0  0
   -1.6887   -4.0791   -1.5411 O   0  0  0  0  0  0  0  0  0  0  0  0
   -0.4178   -3.1280    0.2371 C   0  0  0  0  0  0  0  0  0  0  0  0
    0.6556   -2.1880   -0.0494 N   0  0  0  0  0  0  0  0  0  0  0  0
    0.5310   -0.8914   -0.0782 C   0  0  0  0  0  0  0  0  0  0  0  0
    1.7320   -0.0790   -0.4073 C   0  0  0  0  0  0  0  0  0  0  0  0
    3.0196   -0.5464   -0.0811 C   0  0  0  0  0  0  0  0  0  0  0  0
    4.1504    0.2125   -0.3982 C   0  0  0  0  0  0  0  0  0  0  0  0
    4.0110    1.4398   -1.0498 C   0  0  0  0  0  0  0  0  0  0  0  0
    2.7404    1.9094   -1.3891 C   0  0  0  0  0  0  0  0  0  0  0  0
    1.6061    1.1550   -1.0744 C   0  0  0  0  0  0  0  0  0  0  0  0
   -3.1672    0.0825   -0.0460 C   0  0  0  0  0  0  0  0  0  0  0  0
   -3.1305    1.2125    0.7701 C   0  0  0  0  0  0  0  0  0  0  0  0
    0.1860    1.2348    1.5096 H   0  0  0  0  0  0  0  0  0  0  0  0
   -2.8709   -1.8508   -1.8568 H   0  0  0  0  0  0  0  0  0  0  0  0
   -0.8872   -2.8920    1.2165 H   0  0  0  0  0  0  0  0  0  0  0  0
    0.0082   -4.1522    0.2943 H   0  0  0  0  0  0  0  0  0  0  0  0
    3.1508   -1.4922    0.4299 H   0  0  0  0  0  0  0  0  0  0  0  0
    5.1359   -0.1516   -0.1378 H   0  0  0  0  0  0  0  0  0  0  0  0
    4.8877    2.0252   -1.2949 H   0  0  0  0  0  0  0  0  0  0  0  0
    2.6340    2.8572   -1.9009 H   0  0  0  0  0  0  0  0  0  0  0  0
    0.6328    1.5306   -1.3642 H   0  0  0  0  0  0  0  0  0  0  0  0
   -4.1140   -0.2301   -0.4688 H   0  0  0  0  0  0  0  0  0  0  0  0
   -4.0501    1.7526    0.9546 H   0  0  0  0  0  0  0  0  0  0  0  0
  1  2  1  0
  2  3  2  0
  2  4  1  0
  4  5  2  0
  5  6  1  0
  6  7  2  0
  7  8  1  0
  8  9  1  0
  9 10  2  0
  9 11  1  0
 11 12  1  0
 12 13  2  0
 13 14  1  0
 14 15  2  0
 15 16  1  0
 16 17  2  0
 17 18  1  0
 18 19  2  0
  7 20  1  0
 20 21  2  0
 21  4  1  0
 13  6  1  0
 19 14  1  0
  5 22  1  0
  8 23  1  0
 11 24  1  0
 11 25  1  0
 15 26  1  0
 16 27  1  0
 17 28  1  0
 18 29  1  0
 19 30  1  0
 20 31  1  0
 21 32  1  0
M  CHG  2   1  -1   2   1
M  END
$$$$
