
     RDKit          3D

 47 50  0  0  0  0  0  0  0  0999 V2000
    0.5031    2.8503   -4.2304 N   0  0  0  0  0  0  0  0  0  0  0  0
    1.0450    2.4052   -3.3099 C   0  0  0  0  0  0  0  0  0  0  0  0
    1.7172    1.8521   -2.1663 C   0  0  0  0  0  0  0  0  0  0  0  0
    1.1920    1.5651   -0.9333 C   0  0  0  0  0  0  0  0  0  0  0  0
   -0.0692    1.7550   -0.4836 N   0  0  0  0  0  0  0  0  0  0  0  0
   -0.3458    1.4325    0.8150 C   0  0  0  0  0  0  0  0  0  0  0  0
   -1.6666    1.6083    1.3437 N   0  0  0  0  0  0  0  0  0  0  0  0
   -2.8003    2.0744    0.5412 C   0  0  0  0  0  0  0  0  0  0  0  0
   -3.6052    0.9072   -0.0701 C   0  0  0  0  0  0  0  0  0  0  0  0
   -4.2786    0.0282    1.0172 C   0  0  0  0  0  0  0  0  0  0  0  0
   -4.6070   -1.3995    0.5329 C   0  0  0  0  0  0  0  0  0  0  0  0
   -4.8677   -1.4453   -0.9758 C   0  0  0  0  0  0  0  0  0  0  0  0
   -3.6366   -0.9831   -1.7816 C   0  0  0  0  0  0  0  0  0  0  0  0
   -2.7662    0.0517   -1.0384 C   0  0  0  0  0  0  0  0  0  0  0  0
    0.6426    0.9403    1.6241 N   0  0  0  0  0  0  0  0  0  0  0  0
    1.9031    0.7445    1.1452 C   0  0  0  0  0  0  0  0  0  0  0  0
    2.9304    0.2476    2.0144 N   0  0  0  0  0  0  0  0  0  0  0  0
    3.9354   -0.6991    1.6148 C   0  0  0  0  0  0  0  0  0  0  0  0
    5.1575   -0.7397    2.3036 C   0  0  0  0  0  0  0  0  0  0  0  0
    6.1396   -1.6693    1.9472 C   0  0  0  0  0  0  0  0  0  0  0  0
    5.9031   -2.5749    0.9098 C   0  0  0  0  0  0  0  0  0  0  0  0
    4.6813   -2.5574    0.2322 C   0  0  0  0  0  0  0  0  0  0  0  0
    3.6967   -1.6297    0.5858 C   0  0  0  0  0  0  0  0  0  0  0  0
    2.1532    1.0817   -0.1456 N   0  0  0  0  0  0  0  0  0  0  0  0
    3.3063    1.0526   -0.7959 N   0  0  0  0  0  0  0  0  0  0  0  0
    3.0610    1.5163   -2.0470 C   0  0  0  0  0  0  0  0  0  0  0  0
   -1.8218    1.4209    2.3599 H   0  0  0  0  0  0  0  0  0  0  0  0
   -3.4762    2.6716    1.1913 H   0  0  0  0  0  0  0  0  0  0  0  0
   -2.4513    2.7590   -0.2621 H   0  0  0  0  0  0  0  0  0  0  0  0
   -4.4182    1.3734   -0.6725 H   0  0  0  0  0  0  0  0  0  0  0  0
   -5.2176    0.5275    1.3428 H   0  0  0  0  0  0  0  0  0  0  0  0
   -3.6315   -0.0605    1.9151 H   0  0  0  0  0  0  0  0  0  0  0  0
   -3.7563   -2.0762    0.7700 H   0  0  0  0  0  0  0  0  0  0  0  0
   -5.4987   -1.7800    1.0764 H   0  0  0  0  0  0  0  0  0  0  0  0
   -5.7347   -0.7895   -1.2117 H   0  0  0  0  0  0  0  0  0  0  0  0
   -5.1396   -2.4805   -1.2754 H   0  0  0  0  0  0  0  0  0  0  0  0
   -3.9864   -0.5479   -2.7431 H   0  0  0  0  0  0  0  0  0  0  0  0
   -3.0063   -1.8649   -2.0297 H   0  0  0  0  0  0  0  0  0  0  0  0
   -1.9785   -0.4868   -0.4673 H   0  0  0  0  0  0  0  0  0  0  0  0
   -2.2635    0.7019   -1.7871 H   0  0  0  0  0  0  0  0  0  0  0  0
    2.9013    0.5446    3.0160 H   0  0  0  0  0  0  0  0  0  0  0  0
    5.3511   -0.0442    3.1106 H   0  0  0  0  0  0  0  0  0  0  0  0
    7.0834   -1.6886    2.4768 H   0  0  0  0  0  0  0  0  0  0  0  0
    6.6636   -3.2947    0.6357 H   0  0  0  0  0  0  0  0  0  0  0  0
    4.4944   -3.2672   -0.5633 H   0  0  0  0  0  0  0  0  0  0  0  0
    2.7479   -1.6464    0.0652 H   0  0  0  0  0  0  0  0  0  0  0  0
    3.8144    1.6130   -2.8173 H   0  0  0  0  0  0  0  0  0  0  0  0
  1  2  3  0
  2  3  1  0
  3  4  2  0
  4  5  1  0
  5  6  2  0
  6  7  1  0
  7  8  1  0
  8  9  1  0
  9 10  1  0
 10 11  1  0
 11 12  1  0
 12 13  1  0
 13 14  1  0
  6 15  1  0
 15 16  2  0
 16 17  1  0
 17 18  1  0
 18 19  2  0
 19 20  1  0
 20 21  2  0
 21 22  1  0
 22 23  2  0
 16 24  1  0
 24 25  1  0
 25 26  2  0
 26  3  1  0
 24  4  1  0
 14  9  1  0
 23 18  1  0
  7 27  1  0
  8 28  1  0
  8 29  1  0
  9 30  1  0
 10 31  1  0
 10 32  1  0
 11 33  1  0
 11 34  1  0
 12 35  1  0
 12 36  1  0
 13 37  1  0
 13 38  1  0
 14 39  1  0
 14 40  1  0
 17 41  1  0
 19 42  1  0
 20 43  1  0
 21 44  1  0
 22 45  1  0
 23 46  1  0
 26 47  1  0
M  END
$$$$
