
     RDKit          3D

 49 52  0  0  0  0  0  0  0  0999 V2000
    1.0891    6.5354    2.8690 Cl  0  0  0  0  0  0  0  0  0  0  0  0
    1.4878    4.8341    3.0229 C   0  0  0  0  0  0  0  0  0  0  0  0
    1.9396    4.3299    4.2462 C   0  0  0  0  0  0  0  0  0  0  0  0
    2.2498    2.9737    4.3713 C   0  0  0  0  0  0  0  0  0  0  0  0
    2.1116    2.1179    3.2745 C   0  0  0  0  0  0  0  0  0  0  0  0
    1.6651    2.6149    2.0366 C   0  0  0  0  0  0  0  0  0  0  0  0
    1.3487    3.9805    1.9228 C   0  0  0  0  0  0  0  0  0  0  0  0
    1.5085    1.7350    0.9042 N   0  0  0  0  0  0  0  0  0  0  0  0
    0.9495    0.3911    1.0951 C   0  0  0  0  0  0  0  0  0  0  0  0
    0.2987   -0.1193   -0.1901 C   0  0  0  0  0  0  0  0  0  0  0  0
    1.2685   -0.0493   -1.3018 N   0  0  0  0  0  0  0  0  0  0  0  0
    0.7414   -0.7278   -2.5038 C   0  0  0  0  0  0  0  0  0  0  0  0
    0.8007   -2.2221   -2.3375 C   0  0  0  0  0  0  0  0  0  0  0  0
    1.9324   -2.9480   -2.0356 C   0  0  0  0  0  0  0  0  0  0  0  0
    1.6177   -4.2570   -1.9630 N   0  0  0  0  0  0  0  0  0  0  0  0
    0.2948   -4.3015   -2.2287 C   0  0  0  0  0  0  0  0  0  0  0  0
   -0.2297   -3.0823   -2.4674 N   0  0  0  0  0  0  0  0  0  0  0  0
   -1.6350   -2.7908   -2.7608 C   0  0  0  0  0  0  0  0  0  0  0  0
   -2.3153   -2.1928   -1.5575 C   0  0  0  0  0  0  0  0  0  0  0  0
   -2.3684   -2.9074   -0.3493 C   0  0  0  0  0  0  0  0  0  0  0  0
   -2.9698   -2.3425    0.7792 C   0  0  0  0  0  0  0  0  0  0  0  0
   -3.5345   -1.0634    0.7080 C   0  0  0  0  0  0  0  0  0  0  0  0
   -3.5047   -0.3551   -0.4993 C   0  0  0  0  0  0  0  0  0  0  0  0
   -2.9014   -0.9180   -1.6281 C   0  0  0  0  0  0  0  0  0  0  0  0
   -4.1442   -0.4778    1.8729 C   0  0  0  0  0  0  0  0  0  0  0  0
   -4.6340   -0.0068    2.8096 N   0  0  0  0  0  0  0  0  0  0  0  0
    1.5755    1.3602   -1.6157 C   0  0  0  0  0  0  0  0  0  0  0  0
    2.0298    2.0980   -0.3892 C   0  0  0  0  0  0  0  0  0  0  0  0
    2.8295    3.0656   -0.5102 O   0  0  0  0  0  0  0  0  0  0  0  0
    2.0483    4.9867    5.0999 H   0  0  0  0  0  0  0  0  0  0  0  0
    2.5989    2.5849    5.3192 H   0  0  0  0  0  0  0  0  0  0  0  0
    2.3647    1.0720    3.3886 H   0  0  0  0  0  0  0  0  0  0  0  0
    0.9811    4.3765    0.9845 H   0  0  0  0  0  0  0  0  0  0  0  0
    1.7638   -0.3044    1.3929 H   0  0  0  0  0  0  0  0  0  0  0  0
    0.1831    0.4056    1.9012 H   0  0  0  0  0  0  0  0  0  0  0  0
   -0.0159   -1.1698   -0.0117 H   0  0  0  0  0  0  0  0  0  0  0  0
   -0.6096    0.4847   -0.4145 H   0  0  0  0  0  0  0  0  0  0  0  0
    1.3660   -0.4812   -3.3908 H   0  0  0  0  0  0  0  0  0  0  0  0
   -0.2907   -0.3852   -2.7291 H   0  0  0  0  0  0  0  0  0  0  0  0
    2.9251   -2.5499   -1.8726 H   0  0  0  0  0  0  0  0  0  0  0  0
   -0.2785   -5.2195   -2.2434 H   0  0  0  0  0  0  0  0  0  0  0  0
   -2.1656   -3.7262   -3.0430 H   0  0  0  0  0  0  0  0  0  0  0  0
   -1.6947   -2.1123   -3.6392 H   0  0  0  0  0  0  0  0  0  0  0  0
   -1.9325   -3.8960   -0.2781 H   0  0  0  0  0  0  0  0  0  0  0  0
   -2.9915   -2.9014    1.7071 H   0  0  0  0  0  0  0  0  0  0  0  0
   -3.9414    0.6340   -0.5665 H   0  0  0  0  0  0  0  0  0  0  0  0
   -2.8804   -0.3527   -2.5514 H   0  0  0  0  0  0  0  0  0  0  0  0
    2.3875    1.4020   -2.3749 H   0  0  0  0  0  0  0  0  0  0  0  0
    0.6805    1.8777   -2.0295 H   0  0  0  0  0  0  0  0  0  0  0  0
  1  2  1  0
  2  3  2  0
  3  4  1  0
  4  5  2  0
  5  6  1  0
  6  7  2  0
  6  8  1  0
  8  9  1  0
  9 10  1  0
 10 11  1  0
 11 12  1  0
 12 13  1  0
 13 14  2  0
 14 15  1  0
 15 16  2  0
 16 17  1  0
 17 18  1  0
 18 19  1  0
 19 20  2  0
 20 21  1  0
 21 22  2  0
 22 23  1  0
 23 24  2  0
 22 25  1  0
 25 26  3  0
 11 27  1  0
 27 28  1  0
 28 29  2  0
  7  2  1  0
 28  8  1  0
 17 13  1  0
 24 19  1  0
  3 30  1  0
  4 31  1  0
  5 32  1  0
  7 33  1  0
  9 34  1  0
  9 35  1  0
 10 36  1  0
 10 37  1  0
 12 38  1  0
 12 39  1  0
 14 40  1  0
 16 41  1  0
 18 42  1  0
 18 43  1  0
 20 44  1  0
 21 45  1  0
 23 46  1  0
 24 47  1  0
 27 48  1  0
 27 49  1  0
M  END
$$$$
