
     RDKit          3D

 45 48  0  0  0  0  0  0  0  0999 V2000
    0.0481   -0.5072   -0.7228 C   0  0  2  0  0  0  0  0  0  0  0  0
   -0.7451    0.7449   -1.1380 C   0  0  0  0  0  0  0  0  0  0  0  0
   -2.0291    0.3808   -1.6436 O   0  0  0  0  0  0  0  0  0  0  0  0
   -3.1547    0.1740   -0.8385 C   0  0  0  0  0  0  0  0  0  0  0  0
   -3.1621    0.4234    0.4393 N   0  0  0  0  0  0  0  0  0  0  0  0
   -4.7082    0.0524    1.1153 S   0  0  0  0  0  6  0  0  0  0  0  0
   -5.3805    1.2764    1.6693 O   0  0  0  0  0  0  0  0  0  0  0  0
   -4.6219   -1.0633    2.1176 O   0  0  0  0  0  0  0  0  0  0  0  0
   -5.3832   -0.4550   -0.3915 C   0  0  0  0  0  0  0  0  0  0  0  0
   -4.4257   -0.3362   -1.3761 C   0  0  0  0  0  0  0  0  0  0  0  0
   -4.7158   -0.6866   -2.6966 C   0  0  0  0  0  0  0  0  0  0  0  0
   -6.0039   -1.1608   -2.9992 C   0  0  0  0  0  0  0  0  0  0  0  0
   -6.9763   -1.2781   -1.9857 C   0  0  0  0  0  0  0  0  0  0  0  0
   -6.6671   -0.9222   -0.6630 C   0  0  0  0  0  0  0  0  0  0  0  0
   -0.6127   -1.2450    0.3049 O   0  0  0  0  0  0  0  0  0  0  0  0
   -0.3741   -0.7130    1.6025 C   0  0  0  0  0  0  0  0  0  0  0  0
    1.1006   -0.8543    2.0098 C   0  0  0  0  0  0  0  0  0  0  0  0
    1.9789   -0.3198    0.9190 C   0  0  0  0  0  0  0  0  0  0  0  0
    1.4701   -0.1710   -0.3579 C   0  0  0  0  0  0  0  0  0  0  0  0
    2.6673    0.4154   -1.3771 S   0  0  0  0  0  0  0  0  0  0  0  0
    3.8659    0.4920   -0.1889 C   0  0  0  0  0  0  0  0  0  0  0  0
    5.2452    0.8100   -0.4391 N   0  0  0  0  0  0  0  0  0  0  0  0
    5.6808    1.6484   -1.5224 C   0  0  0  0  0  0  0  0  0  0  0  0
    4.8448    2.3155   -2.1891 O   0  0  0  0  0  0  0  0  0  0  0  0
    7.1093    1.7643   -1.8519 C   0  0  0  0  0  0  0  0  0  0  0  0
    7.5147    2.6013   -2.8871 O   0  0  0  0  0  0  0  0  0  0  0  0
    7.9695    1.1088   -1.2051 O   0  0  0  0  0  0  0  0  0  0  0  0
    3.3424    0.0317    1.0297 C   0  0  0  0  0  0  0  0  0  0  0  0
    4.1165   -0.0548    2.2875 C   0  0  0  0  0  0  0  0  0  0  0  0
    3.7589   -0.9715    3.2715 O   0  0  0  0  0  0  0  0  0  0  0  0
    5.1009    0.7070    2.4832 O   0  0  0  0  0  0  0  0  0  0  0  0
    0.1005   -1.1688   -1.6140 H   0  0  0  0  0  0  0  0  0  0  0  0
   -0.8385    1.4755   -0.3069 H   0  0  0  0  0  0  0  0  0  0  0  0
   -0.1964    1.2577   -1.9566 H   0  0  0  0  0  0  0  0  0  0  0  0
   -3.9666   -0.5965   -3.4725 H   0  0  0  0  0  0  0  0  0  0  0  0
   -6.2501   -1.4378   -4.0160 H   0  0  0  0  0  0  0  0  0  0  0  0
   -7.9655   -1.6445   -2.2276 H   0  0  0  0  0  0  0  0  0  0  0  0
   -7.4054   -1.0088    0.1235 H   0  0  0  0  0  0  0  0  0  0  0  0
   -0.6859    0.3516    1.6678 H   0  0  0  0  0  0  0  0  0  0  0  0
   -0.9977   -1.2725    2.3310 H   0  0  0  0  0  0  0  0  0  0  0  0
    1.3394   -1.9264    2.1762 H   0  0  0  0  0  0  0  0  0  0  0  0
    1.2687   -0.2894    2.9512 H   0  0  0  0  0  0  0  0  0  0  0  0
    5.9700    0.3942    0.1860 H   0  0  0  0  0  0  0  0  0  0  0  0
    8.4944    2.6926   -3.1285 H   0  0  0  0  0  0  0  0  0  0  0  0
    4.2795   -1.0345    4.1381 H   0  0  0  0  0  0  0  0  0  0  0  0
  1  2  1  0
  2  3  1  0
  3  4  1  0
  4  5  2  0
  5  6  1  0
  6  7  2  0
  6  8  2  0
  6  9  1  0
  9 10  2  0
 10 11  1  0
 11 12  2  0
 12 13  1  0
 13 14  2  0
  1 15  1  0
 15 16  1  0
 16 17  1  0
 17 18  1  0
 18 19  2  0
 19 20  1  0
 20 21  1  0
 21 22  1  0
 22 23  1  0
 23 24  2  0
 23 25  1  0
 25 26  1  0
 25 27  2  0
 21 28  2  0
 28 29  1  0
 29 30  1  0
 29 31  2  0
 19  1  1  0
 10  4  1  0
 28 18  1  0
 14  9  1  0
  1 32  1  6
  2 33  1  0
  2 34  1  0
 11 35  1  0
 12 36  1  0
 13 37  1  0
 14 38  1  0
 16 39  1  0
 16 40  1  0
 17 41  1  0
 17 42  1  0
 22 43  1  0
 26 44  1  0
 30 45  1  0
M  END
$$$$
