
     RDKit          3D

 32 33  0  0  0  0  0  0  0  0999 V2000
   -3.1331    3.4773    0.1339 N   0  0  0  0  0  0  0  0  0  0  0  0
   -3.7139    1.8951    0.5207 S   0  0  0  0  0  6  0  0  0  0  0  0
   -4.7207    1.4805   -0.5158 O   0  0  0  0  0  0  0  0  0  0  0  0
   -4.3957    1.9172    1.8598 O   0  0  0  0  0  0  0  0  0  0  0  0
   -2.3642    0.7497    0.5481 C   0  0  0  0  0  0  0  0  0  0  0  0
   -1.4256    0.7423    1.5965 C   0  0  0  0  0  0  0  0  0  0  0  0
   -1.5281    1.8577    2.9550 Cl  0  0  0  0  0  0  0  0  0  0  0  0
   -0.3726   -0.1755    1.5820 C   0  0  0  0  0  0  0  0  0  0  0  0
   -0.2207   -1.0889    0.5259 C   0  0  0  0  0  0  0  0  0  0  0  0
    0.8283   -2.0740    0.5781 N   0  0  0  0  0  0  0  0  0  0  0  0
    2.1882   -1.7719    1.0226 C   0  0  0  0  0  0  0  0  0  0  0  0
    2.7928   -0.7173    0.1507 C   0  0  0  0  0  0  0  0  0  0  0  0
    2.8841    0.6267    0.4517 C   0  0  0  0  0  0  0  0  0  0  0  0
    3.4691    1.2126   -0.6499 C   0  0  0  0  0  0  0  0  0  0  0  0
    3.6945    0.1925   -1.5526 C   0  0  0  0  0  0  0  0  0  0  0  0
    3.2782   -0.9459   -1.0473 O   0  0  0  0  0  0  0  0  0  0  0  0
   -1.1420   -1.0646   -0.5479 C   0  0  0  0  0  0  0  0  0  0  0  0
   -2.2104   -0.1510   -0.5149 C   0  0  0  0  0  0  0  0  0  0  0  0
   -0.9831   -1.9331   -1.7389 C   0  0  0  0  0  0  0  0  0  0  0  0
    0.2790   -2.3613   -2.1417 O   0  0  0  0  0  0  0  0  0  0  0  0
   -1.9908   -2.2581   -2.4236 O   0  0  0  0  0  0  0  0  0  0  0  0
   -2.5919    3.3943   -0.7557 H   0  0  0  0  0  0  0  0  0  0  0  0
   -2.4516    3.7493    0.8766 H   0  0  0  0  0  0  0  0  0  0  0  0
    0.3161   -0.1880    2.4156 H   0  0  0  0  0  0  0  0  0  0  0  0
    0.6337   -3.0403    0.2317 H   0  0  0  0  0  0  0  0  0  0  0  0
    2.1883   -1.4525    2.0854 H   0  0  0  0  0  0  0  0  0  0  0  0
    2.8108   -2.6894    0.9524 H   0  0  0  0  0  0  0  0  0  0  0  0
    2.5565    1.1210    1.3568 H   0  0  0  0  0  0  0  0  0  0  0  0
    3.7000    2.2610   -0.7826 H   0  0  0  0  0  0  0  0  0  0  0  0
    4.1424    0.2990   -2.5315 H   0  0  0  0  0  0  0  0  0  0  0  0
   -2.9116   -0.1213   -1.3394 H   0  0  0  0  0  0  0  0  0  0  0  0
    0.3942   -2.9428   -2.9631 H   0  0  0  0  0  0  0  0  0  0  0  0
  1  2  1  0
  2  3  2  0
  2  4  2  0
  2  5  1  0
  5  6  2  0
  6  7  1  0
  6  8  1  0
  8  9  2  0
  9 10  1  0
 10 11  1  0
 11 12  1  0
 12 13  2  0
 13 14  1  0
 14 15  2  0
 15 16  1  0
  9 17  1  0
 17 18  2  0
 17 19  1  0
 19 20  1  0
 19 21  2  0
 18  5  1  0
 16 12  1  0
  1 22  1  0
  1 23  1  0
  8 24  1  0
 10 25  1  0
 11 26  1  0
 11 27  1  0
 13 28  1  0
 14 29  1  0
 15 30  1  0
 18 31  1  0
 20 32  1  0
M  END
$$$$
