
     RDKit          3D

 53 56  0  0  0  0  0  0  0  0999 V2000
   -4.2127   -2.5091    3.5417 C   0  0  0  0  0  0  0  0  0  0  0  0
   -4.9783   -1.7553    2.6072 O   0  0  0  0  0  0  0  0  0  0  0  0
   -4.4321   -0.9129    1.6256 C   0  0  0  0  0  0  0  0  0  0  0  0
   -5.3098   -0.2306    0.7714 C   0  0  0  0  0  0  0  0  0  0  0  0
   -6.6894   -0.4291    0.9461 O   0  0  0  0  0  0  0  0  0  0  0  0
   -7.7040    0.1898    0.1615 C   0  0  0  0  0  0  0  0  0  0  0  0
   -4.7967    0.6236   -0.2257 C   0  0  0  0  0  0  0  0  0  0  0  0
   -3.4063    0.8015   -0.3753 C   0  0  0  0  0  0  0  0  0  0  0  0
   -2.8215    1.6437   -1.3537 C   0  0  0  0  0  0  0  0  0  0  0  0
   -3.5953    2.4031   -2.2919 N   0  0  0  0  0  0  0  0  0  0  0  0
   -1.4672    1.7454   -1.4157 N   0  0  0  0  0  0  0  0  0  0  0  0
   -0.6478    1.0660   -0.5710 C   0  0  0  0  0  0  0  0  0  0  0  0
   -1.1918    0.2559    0.3735 N   0  0  0  0  0  0  0  0  0  0  0  0
   -2.5352    0.1068    0.4926 C   0  0  0  0  0  0  0  0  0  0  0  0
   -3.0450   -0.7393    1.4803 C   0  0  0  0  0  0  0  0  0  0  0  0
    0.7848    1.2042   -0.6687 N   0  0  0  0  0  0  0  0  0  0  0  0
    1.6327    0.6303    0.3893 C   0  0  0  0  0  0  0  0  0  0  0  0
    3.1031    1.0094    0.2014 C   0  0  0  0  0  0  0  0  0  0  0  0
    3.4970    0.7805   -1.1948 N   0  0  0  0  0  0  0  0  0  0  0  0
    2.6590    1.3200   -2.2765 C   0  0  0  0  0  0  0  0  0  0  0  0
    1.3953    2.0078   -1.7405 C   0  0  0  0  0  0  0  0  0  0  0  0
    4.7348    0.1268   -1.5459 C   0  0  0  0  0  0  0  0  0  0  0  0
    5.3915    0.5416   -2.5394 O   0  0  0  0  0  0  0  0  0  0  0  0
    5.2658   -1.0652   -0.7892 C   0  0  0  0  0  0  0  0  0  0  0  0
    6.2728   -0.6653    0.2734 C   0  0  0  0  0  0  0  0  0  0  0  0
    6.1029   -1.7377    1.3066 C   0  0  0  0  0  0  0  0  0  0  0  0
    4.7047   -2.2770    1.0484 C   0  0  0  0  0  0  0  0  0  0  0  0
    4.2216   -1.7911   -0.1848 O   0  0  0  0  0  0  0  0  0  0  0  0
   -3.6055   -1.8286    4.1753 H   0  0  0  0  0  0  0  0  0  0  0  0
   -4.9013   -3.0824    4.1956 H   0  0  0  0  0  0  0  0  0  0  0  0
   -3.5533   -3.2245    3.0064 H   0  0  0  0  0  0  0  0  0  0  0  0
   -7.5944   -0.1024   -0.9042 H   0  0  0  0  0  0  0  0  0  0  0  0
   -7.6469    1.2940    0.2650 H   0  0  0  0  0  0  0  0  0  0  0  0
   -8.6970   -0.1489    0.5214 H   0  0  0  0  0  0  0  0  0  0  0  0
   -5.4902    1.1355   -0.8690 H   0  0  0  0  0  0  0  0  0  0  0  0
   -3.1036    3.0038   -2.9904 H   0  0  0  0  0  0  0  0  0  0  0  0
   -4.6354    2.4007   -2.3263 H   0  0  0  0  0  0  0  0  0  0  0  0
   -2.3526   -1.2579    2.1304 H   0  0  0  0  0  0  0  0  0  0  0  0
    1.2932    0.9952    1.3831 H   0  0  0  0  0  0  0  0  0  0  0  0
    1.5406   -0.4775    0.3687 H   0  0  0  0  0  0  0  0  0  0  0  0
    3.2427    2.0849    0.4446 H   0  0  0  0  0  0  0  0  0  0  0  0
    3.7203    0.4323    0.9148 H   0  0  0  0  0  0  0  0  0  0  0  0
    2.3543    0.4845   -2.9438 H   0  0  0  0  0  0  0  0  0  0  0  0
    3.2404    2.0533   -2.8763 H   0  0  0  0  0  0  0  0  0  0  0  0
    1.6578    3.0096   -1.3371 H   0  0  0  0  0  0  0  0  0  0  0  0
    0.6946    2.1548   -2.5899 H   0  0  0  0  0  0  0  0  0  0  0  0
    5.7691   -1.7428   -1.5162 H   0  0  0  0  0  0  0  0  0  0  0  0
    6.0347    0.3274    0.7153 H   0  0  0  0  0  0  0  0  0  0  0  0
    7.3084   -0.6477   -0.1314 H   0  0  0  0  0  0  0  0  0  0  0  0
    6.2029   -1.3306    2.3365 H   0  0  0  0  0  0  0  0  0  0  0  0
    6.8560   -2.5414    1.1483 H   0  0  0  0  0  0  0  0  0  0  0  0
    4.7152   -3.3879    1.0302 H   0  0  0  0  0  0  0  0  0  0  0  0
    4.0170   -1.9473    1.8566 H   0  0  0  0  0  0  0  0  0  0  0  0
  1  2  1  0
  2  3  1  0
  3  4  2  0
  4  5  1  0
  5  6  1  0
  4  7  1  0
  7  8  2  0
  8  9  1  0
  9 10  1  0
  9 11  2  0
 11 12  1  0
 12 13  2  0
 13 14  1  0
 14 15  2  0
 12 16  1  0
 16 17  1  0
 17 18  1  0
 18 19  1  0
 19 20  1  0
 20 21  1  0
 19 22  1  0
 22 23  2  0
 22 24  1  0
 24 25  1  0
 25 26  1  0
 26 27  1  0
 27 28  1  0
 15  3  1  0
 21 16  1  0
 28 24  1  0
 14  8  1  0
  1 29  1  0
  1 30  1  0
  1 31  1  0
  6 32  1  0
  6 33  1  0
  6 34  1  0
  7 35  1  0
 10 36  1  0
 10 37  1  0
 15 38  1  0
 17 39  1  0
 17 40  1  0
 18 41  1  0
 18 42  1  0
 20 43  1  0
 20 44  1  0
 21 45  1  0
 21 46  1  0
 24 47  1  0
 25 48  1  0
 25 49  1  0
 26 50  1  0
 26 51  1  0
 27 52  1  0
 27 53  1  0
M  END
$$$$
