
     RDKit          3D

 58 62  0  0  0  0  0  0  0  0999 V2000
    3.6392   -1.7450   -3.8709 F   0  0  0  0  0  0  0  0  0  0  0  0
    3.6643   -0.9923   -2.7433 C   0  0  0  0  0  0  0  0  0  0  0  0
    4.8426   -0.3464   -2.3648 C   0  0  0  0  0  0  0  0  0  0  0  0
    4.8732    0.4544   -1.2119 C   0  0  0  0  0  0  0  0  0  0  0  0
    3.7090    0.5844   -0.4367 C   0  0  0  0  0  0  0  0  0  0  0  0
    2.5212   -0.0749   -0.8017 C   0  0  0  0  0  0  0  0  0  0  0  0
    2.5079   -0.8557   -1.9714 C   0  0  0  0  0  0  0  0  0  0  0  0
    1.3071    0.0843    0.0348 C   0  0  0  0  0  0  0  0  0  0  0  0
    1.1439    1.1607    0.6720 O   0  0  0  0  0  0  0  0  0  0  0  0
    0.3179   -0.9590    0.1215 N   0  0  0  0  0  0  0  0  0  0  0  0
   -0.8309   -0.9018    0.9835 C   0  0  0  0  0  0  0  0  0  0  0  0
   -0.7407   -0.3725    2.2988 C   0  0  0  0  0  0  0  0  0  0  0  0
   -1.8671   -0.3430    3.1394 C   0  0  0  0  0  0  0  0  0  0  0  0
   -3.0607   -0.8622    2.6480 C   0  0  0  0  0  0  0  0  0  0  0  0
   -4.3042   -0.9513    3.2363 C   0  0  0  0  0  0  0  0  0  0  0  0
   -5.1191   -1.5485    2.2815 C   0  0  0  0  0  0  0  0  0  0  0  0
   -4.4133   -1.8245    1.1582 N   0  0  0  0  0  0  0  0  0  0  0  0
   -4.9568   -2.3853   -0.0811 C   0  0  0  0  0  0  0  0  0  0  0  0
   -5.2120   -1.2864   -1.1202 C   0  0  0  0  0  0  0  0  0  0  0  0
   -6.2007   -0.2673   -0.6168 C   0  0  0  0  0  0  0  0  0  0  0  0
   -5.7544    0.9267   -0.0302 C   0  0  0  0  0  0  0  0  0  0  0  0
   -6.6874    1.8375    0.4704 C   0  0  0  0  0  0  0  0  0  0  0  0
   -8.0169    1.5641    0.3934 N   0  0  0  0  0  0  0  0  0  0  0  0
   -8.4766    0.4120   -0.1633 C   0  0  0  0  0  0  0  0  0  0  0  0
   -7.5775   -0.5270   -0.6746 C   0  0  0  0  0  0  0  0  0  0  0  0
   -3.1559   -1.3965    1.3902 C   0  0  0  0  0  0  0  0  0  0  0  0
   -2.0550   -1.4389    0.5311 C   0  0  0  0  0  0  0  0  0  0  0  0
    6.0845    1.1262   -0.8161 N   0  0  0  0  0  0  0  0  0  0  0  0
    6.0895    2.5816   -0.6370 C   0  0  0  0  0  0  0  0  0  0  0  0
    7.1599    2.9700    0.3873 C   0  0  0  0  0  0  0  0  0  0  0  0
    8.4153    2.4185    0.0360 O   0  0  0  0  0  0  0  0  0  0  0  0
    8.3534    1.0060    0.1015 C   0  0  0  0  0  0  0  0  0  0  0  0
    7.3808    0.4540   -0.9453 C   0  0  0  0  0  0  0  0  0  0  0  0
    5.7256   -0.4552   -2.9812 H   0  0  0  0  0  0  0  0  0  0  0  0
    3.7389    1.1766    0.4698 H   0  0  0  0  0  0  0  0  0  0  0  0
    1.6027   -1.3396   -2.3111 H   0  0  0  0  0  0  0  0  0  0  0  0
    0.3937   -1.7881   -0.5075 H   0  0  0  0  0  0  0  0  0  0  0  0
    0.2023   -0.0077    2.6829 H   0  0  0  0  0  0  0  0  0  0  0  0
   -1.8041    0.0639    4.1405 H   0  0  0  0  0  0  0  0  0  0  0  0
   -4.5906   -0.6158    4.2242 H   0  0  0  0  0  0  0  0  0  0  0  0
   -6.1758   -1.7508    2.4010 H   0  0  0  0  0  0  0  0  0  0  0  0
   -4.2429   -3.1275   -0.4982 H   0  0  0  0  0  0  0  0  0  0  0  0
   -5.9048   -2.9270    0.1312 H   0  0  0  0  0  0  0  0  0  0  0  0
   -5.6032   -1.7537   -2.0499 H   0  0  0  0  0  0  0  0  0  0  0  0
   -4.2526   -0.7932   -1.3878 H   0  0  0  0  0  0  0  0  0  0  0  0
   -4.6964    1.1450    0.0469 H   0  0  0  0  0  0  0  0  0  0  0  0
   -6.3537    2.7609    0.9245 H   0  0  0  0  0  0  0  0  0  0  0  0
   -9.5408    0.2225   -0.2052 H   0  0  0  0  0  0  0  0  0  0  0  0
   -7.9491   -1.4480   -1.1066 H   0  0  0  0  0  0  0  0  0  0  0  0
   -2.1375   -1.8632   -0.4610 H   0  0  0  0  0  0  0  0  0  0  0  0
    6.3158    3.0666   -1.6111 H   0  0  0  0  0  0  0  0  0  0  0  0
    5.1019    2.9494   -0.2869 H   0  0  0  0  0  0  0  0  0  0  0  0
    6.8529    2.6521    1.4100 H   0  0  0  0  0  0  0  0  0  0  0  0
    7.2521    4.0764    0.4038 H   0  0  0  0  0  0  0  0  0  0  0  0
    8.0629    0.6636    1.1212 H   0  0  0  0  0  0  0  0  0  0  0  0
    9.3656    0.5979   -0.1029 H   0  0  0  0  0  0  0  0  0  0  0  0
    7.7897    0.6342   -1.9631 H   0  0  0  0  0  0  0  0  0  0  0  0
    7.2671   -0.6414   -0.7913 H   0  0  0  0  0  0  0  0  0  0  0  0
  1  2  1  0
  2  3  2  0
  3  4  1  0
  4  5  2  0
  5  6  1  0
  6  7  2  0
  6  8  1  0
  8  9  2  0
  8 10  1  0
 10 11  1  0
 11 12  2  0
 12 13  1  0
 13 14  2  0
 14 15  1  0
 15 16  2  0
 16 17  1  0
 17 18  1  0
 18 19  1  0
 19 20  1  0
 20 21  2  0
 21 22  1  0
 22 23  2  0
 23 24  1  0
 24 25  2  0
 17 26  1  0
 26 27  2  0
  4 28  1  0
 28 29  1  0
 29 30  1  0
 30 31  1  0
 31 32  1  0
 32 33  1  0
  7  2  1  0
 27 11  1  0
 33 28  1  0
 26 14  1  0
 25 20  1  0
  3 34  1  0
  5 35  1  0
  7 36  1  0
 10 37  1  0
 12 38  1  0
 13 39  1  0
 15 40  1  0
 16 41  1  0
 18 42  1  0
 18 43  1  0
 19 44  1  0
 19 45  1  0
 21 46  1  0
 22 47  1  0
 24 48  1  0
 25 49  1  0
 27 50  1  0
 29 51  1  0
 29 52  1  0
 30 53  1  0
 30 54  1  0
 32 55  1  0
 32 56  1  0
 33 57  1  0
 33 58  1  0
M  END
$$$$
