
     RDKit          3D

 48 48  0  0  0  0  0  0  0  0999 V2000
   -2.3832    0.2864   -1.0651 C   0  0  2  0  0  0  0  0  0  0  0  0
   -3.0894    0.9448   -2.0875 O   0  0  0  0  0  0  0  0  0  0  0  0
   -2.9866   -0.9646   -0.7708 O   0  0  0  0  0  0  0  0  0  0  0  0
   -4.3340   -0.8669   -0.3096 C   0  0  2  0  0  0  0  0  0  0  0  0
   -5.3173   -1.0730   -1.4756 C   0  0  0  0  0  0  0  0  0  0  0  0
   -6.6089   -1.3336   -0.9937 O   0  0  0  0  0  0  0  0  0  0  0  0
   -4.6377    0.4228    0.5075 C   0  0  1  0  0  0  0  0  0  0  0  0
   -5.6874    0.2102    1.4208 O   0  0  0  0  0  0  0  0  0  0  0  0
   -3.3637    0.8809    1.2277 C   0  0  2  0  0  0  0  0  0  0  0  0
   -3.6417    2.0226    1.9969 O   0  0  0  0  0  0  0  0  0  0  0  0
   -2.2560    1.1876    0.1977 C   0  0  1  0  0  0  0  0  0  0  0  0
   -1.0001    0.9657    0.8189 O   0  0  0  0  0  0  0  0  0  0  0  0
   -0.0460    1.9121    0.3792 C   0  0  0  0  0  0  0  0  0  0  0  0
    1.3461    1.4953    0.8536 C   0  0  0  0  0  0  0  0  0  0  0  0
    1.7927    0.1782    0.2044 C   0  0  0  0  0  0  0  0  0  0  0  0
    3.1990   -0.2158    0.6706 C   0  0  0  0  0  0  0  0  0  0  0  0
    3.6408   -1.5410    0.0313 C   0  0  0  0  0  0  0  0  0  0  0  0
    5.0723   -1.9412    0.4464 C   0  0  0  0  0  0  0  0  0  0  0  0
    6.1304   -1.6465   -0.6300 C   0  0  0  0  0  0  0  0  0  0  0  0
    6.3347   -0.1532   -0.8756 C   0  0  0  0  0  0  0  0  0  0  0  0
   -1.3599    0.0608   -1.4445 H   0  0  0  0  0  0  0  0  0  0  0  0
   -2.4822    1.6375   -2.4584 H   0  0  0  0  0  0  0  0  0  0  0  0
   -4.4734   -1.7334    0.3739 H   0  0  0  0  0  0  0  0  0  0  0  0
   -5.3241   -0.1960   -2.1609 H   0  0  0  0  0  0  0  0  0  0  0  0
   -4.9882   -1.9517   -2.0700 H   0  0  0  0  0  0  0  0  0  0  0  0
   -7.0518   -0.4543   -0.8675 H   0  0  0  0  0  0  0  0  0  0  0  0
   -4.9544    1.2360   -0.1833 H   0  0  0  0  0  0  0  0  0  0  0  0
   -5.3818   -0.4606    2.0862 H   0  0  0  0  0  0  0  0  0  0  0  0
   -3.0301    0.0528    1.8987 H   0  0  0  0  0  0  0  0  0  0  0  0
   -2.8744    2.1427    2.6155 H   0  0  0  0  0  0  0  0  0  0  0  0
   -2.3903    2.2539   -0.1147 H   0  0  0  0  0  0  0  0  0  0  0  0
   -0.2804    2.9082    0.8169 H   0  0  0  0  0  0  0  0  0  0  0  0
   -0.0343    2.0026   -0.7321 H   0  0  0  0  0  0  0  0  0  0  0  0
    2.0671    2.2999    0.5897 H   0  0  0  0  0  0  0  0  0  0  0  0
    1.3369    1.3865    1.9604 H   0  0  0  0  0  0  0  0  0  0  0  0
    1.0776   -0.6297    0.4743 H   0  0  0  0  0  0  0  0  0  0  0  0
    1.7918    0.2948   -0.9019 H   0  0  0  0  0  0  0  0  0  0  0  0
    3.1997   -0.3276    1.7774 H   0  0  0  0  0  0  0  0  0  0  0  0
    3.9114    0.5923    0.4032 H   0  0  0  0  0  0  0  0  0  0  0  0
    3.5564   -1.4782   -1.0760 H   0  0  0  0  0  0  0  0  0  0  0  0
    2.9400   -2.3374    0.3666 H   0  0  0  0  0  0  0  0  0  0  0  0
    5.0855   -3.0383    0.6283 H   0  0  0  0  0  0  0  0  0  0  0  0
    5.3641   -1.4610    1.4064 H   0  0  0  0  0  0  0  0  0  0  0  0
    5.8515   -2.1446   -1.5841 H   0  0  0  0  0  0  0  0  0  0  0  0
    7.0979   -2.0810   -0.2970 H   0  0  0  0  0  0  0  0  0  0  0  0
    6.5270    0.3766    0.0815 H   0  0  0  0  0  0  0  0  0  0  0  0
    7.2095   -0.0055   -1.5434 H   0  0  0  0  0  0  0  0  0  0  0  0
    5.4448    0.2836   -1.3743 H   0  0  0  0  0  0  0  0  0  0  0  0
  1  2  1  0
  1  3  1  0
  3  4  1  0
  4  5  1  0
  5  6  1  0
  4  7  1  0
  7  8  1  0
  7  9  1  0
  9 10  1  0
  9 11  1  0
 11 12  1  0
 12 13  1  0
 13 14  1  0
 14 15  1  0
 15 16  1  0
 16 17  1  0
 17 18  1  0
 18 19  1  0
 19 20  1  0
 11  1  1  0
  1 21  1  6
  2 22  1  0
  4 23  1  1
  5 24  1  0
  5 25  1  0
  6 26  1  0
  7 27  1  6
  8 28  1  0
  9 29  1  1
 10 30  1  0
 11 31  1  6
 13 32  1  0
 13 33  1  0
 14 34  1  0
 14 35  1  0
 15 36  1  0
 15 37  1  0
 16 38  1  0
 16 39  1  0
 17 40  1  0
 17 41  1  0
 18 42  1  0
 18 43  1  0
 19 44  1  0
 19 45  1  0
 20 46  1  0
 20 47  1  0
 20 48  1  0
M  END
$$$$
