
     RDKit          3D

 37 38  0  0  0  0  0  0  0  0999 V2000
   -4.6915    2.4255    0.2544 O   0  0  0  0  0  0  0  0  0  0  0  0
   -4.0441    1.1557    0.5735 B   0  0  0  0  0  0  0  0  0  0  0  0
   -4.2107    0.5689    1.9015 O   0  0  0  0  0  0  0  0  0  0  0  0
   -3.1366    0.4198   -0.5270 C   0  0  2  0  0  0  0  0  0  0  0  0
   -3.6768   -0.9690   -0.8752 C   0  0  0  0  0  0  0  0  0  0  0  0
   -2.8317   -1.9533   -0.0712 C   0  0  0  0  0  0  0  0  0  0  0  0
   -1.5277   -1.2258    0.2311 C   0  0  0  0  0  0  0  0  0  0  0  0
   -1.7993    0.1858    0.0009 N   0  0  0  0  0  0  0  0  0  0  0  0
   -0.8161    1.2282    0.1565 C   0  0  0  0  0  0  0  0  0  0  0  0
   -1.1017    2.4125   -0.1688 O   0  0  0  0  0  0  0  0  0  0  0  0
    0.5631    0.9301    0.6683 C   0  0  0  0  0  0  0  0  0  0  0  0
    1.3429    0.2593   -0.3781 N   0  0  0  0  0  0  0  0  0  0  0  0
    2.6201   -0.2561    0.1466 C   0  0  2  0  0  0  0  0  0  0  0  0
    3.6280    0.8345    0.4595 C   0  0  0  0  0  0  0  0  0  0  0  0
    4.9707    0.1606    0.2408 C   0  0  0  0  0  0  0  0  0  0  0  0
    4.7751   -0.9679   -0.6738 N   0  0  0  0  0  0  0  0  0  0  0  0
    3.3329   -1.1141   -0.8885 C   0  0  0  0  0  0  0  0  0  0  0  0
   -4.0297    3.1156    0.5127 H   0  0  0  0  0  0  0  0  0  0  0  0
   -5.0125   -0.0072    1.8232 H   0  0  0  0  0  0  0  0  0  0  0  0
   -3.0855    1.0433   -1.4466 H   0  0  0  0  0  0  0  0  0  0  0  0
   -3.5146   -1.1596   -1.9592 H   0  0  0  0  0  0  0  0  0  0  0  0
   -4.7618   -1.0942   -0.6606 H   0  0  0  0  0  0  0  0  0  0  0  0
   -2.6520   -2.8917   -0.6394 H   0  0  0  0  0  0  0  0  0  0  0  0
   -3.3535   -2.1961    0.8806 H   0  0  0  0  0  0  0  0  0  0  0  0
   -1.2240   -1.3979    1.2860 H   0  0  0  0  0  0  0  0  0  0  0  0
   -0.7276   -1.5721   -0.4580 H   0  0  0  0  0  0  0  0  0  0  0  0
    1.0612    1.8783    0.9713 H   0  0  0  0  0  0  0  0  0  0  0  0
    0.4777    0.2871    1.5708 H   0  0  0  0  0  0  0  0  0  0  0  0
    1.5250    0.9429   -1.1513 H   0  0  0  0  0  0  0  0  0  0  0  0
    2.4478   -0.8775    1.0560 H   0  0  0  0  0  0  0  0  0  0  0  0
    3.5265    1.6885   -0.2463 H   0  0  0  0  0  0  0  0  0  0  0  0
    3.5219    1.2004    1.5039 H   0  0  0  0  0  0  0  0  0  0  0  0
    5.7129    0.8853   -0.1635 H   0  0  0  0  0  0  0  0  0  0  0  0
    5.3533   -0.2297    1.2086 H   0  0  0  0  0  0  0  0  0  0  0  0
    5.2298   -0.7417   -1.5900 H   0  0  0  0  0  0  0  0  0  0  0  0
    3.0437   -2.1806   -0.7735 H   0  0  0  0  0  0  0  0  0  0  0  0
    3.0648   -0.7877   -1.9202 H   0  0  0  0  0  0  0  0  0  0  0  0
  1  2  1  0
  2  3  1  0
  2  4  1  0
  4  5  1  0
  5  6  1  0
  6  7  1  0
  7  8  1  0
  8  9  1  0
  9 10  2  0
  9 11  1  0
 11 12  1  0
 12 13  1  0
 13 14  1  0
 14 15  1  0
 15 16  1  0
 16 17  1  0
  8  4  1  0
 17 13  1  0
  1 18  1  0
  3 19  1  0
  4 20  1  6
  5 21  1  0
  5 22  1  0
  6 23  1  0
  6 24  1  0
  7 25  1  0
  7 26  1  0
 11 27  1  0
 11 28  1  0
 12 29  1  0
 13 30  1  1
 14 31  1  0
 14 32  1  0
 15 33  1  0
 15 34  1  0
 16 35  1  0
 17 36  1  0
 17 37  1  0
M  END
$$$$
