
     RDKit          3D

 23 23  0  0  0  0  0  0  0  0999 V2000
   -0.9485    1.0831   -1.6150 O   0  0  0  0  0  0  0  0  0  0  0  0
   -1.9188    0.0853   -1.4432 C   0  0  0  0  0  0  0  0  0  0  0  0
   -1.9431   -0.4280    0.0075 C   0  0  1  0  0  0  0  0  0  0  0  0
   -3.0970   -1.2096    0.1787 O   0  0  0  0  0  0  0  0  0  0  0  0
   -0.7018   -1.2801    0.3491 C   0  0  0  0  0  0  0  0  0  0  0  0
    0.5667   -0.4659    0.3914 C   0  0  0  0  0  0  0  0  0  0  0  0
    1.5039   -0.5503   -0.6527 C   0  0  0  0  0  0  0  0  0  0  0  0
    2.6705    0.2198   -0.6159 C   0  0  0  0  0  0  0  0  0  0  0  0
    2.9099    1.0780    0.4607 C   0  0  0  0  0  0  0  0  0  0  0  0
    1.9828    1.1683    1.5025 C   0  0  0  0  0  0  0  0  0  0  0  0
    0.8147    0.4004    1.4696 C   0  0  0  0  0  0  0  0  0  0  0  0
   -1.3009    1.9020   -1.1782 H   0  0  0  0  0  0  0  0  0  0  0  0
   -2.9209    0.4891   -1.7153 H   0  0  0  0  0  0  0  0  0  0  0  0
   -1.7013   -0.7529   -2.1392 H   0  0  0  0  0  0  0  0  0  0  0  0
   -1.9940    0.4517    0.6918 H   0  0  0  0  0  0  0  0  0  0  0  0
   -3.2683   -1.2628    1.1555 H   0  0  0  0  0  0  0  0  0  0  0  0
   -0.8474   -1.7480    1.3473 H   0  0  0  0  0  0  0  0  0  0  0  0
   -0.6083   -2.1160   -0.3789 H   0  0  0  0  0  0  0  0  0  0  0  0
    1.3285   -1.2057   -1.4968 H   0  0  0  0  0  0  0  0  0  0  0  0
    3.3883    0.1525   -1.4232 H   0  0  0  0  0  0  0  0  0  0  0  0
    3.8132    1.6738    0.4872 H   0  0  0  0  0  0  0  0  0  0  0  0
    2.1687    1.8342    2.3352 H   0  0  0  0  0  0  0  0  0  0  0  0
    0.1029    0.4810    2.2819 H   0  0  0  0  0  0  0  0  0  0  0  0
  1  2  1  0
  2  3  1  0
  3  4  1  0
  3  5  1  0
  5  6  1  0
  6  7  2  0
  7  8  1  0
  8  9  2  0
  9 10  1  0
 10 11  2  0
 11  6  1  0
  1 12  1  0
  2 13  1  0
  2 14  1  0
  3 15  1  1
  4 16  1  0
  5 17  1  0
  5 18  1  0
  7 19  1  0
  8 20  1  0
  9 21  1  0
 10 22  1  0
 11 23  1  0
M  END
$$$$
