
     RDKit          3D

 31 30  0  0  0  0  0  0  0  0999 V2000
   -2.7908    2.3011   -2.9169 O   0  0  0  0  0  0  0  0  0  0  0  0
   -2.7558    1.2050   -2.0609 C   0  0  0  0  0  0  0  0  0  0  0  0
   -2.9912    0.0498   -2.5061 O   0  0  0  0  0  0  0  0  0  0  0  0
   -2.3909    1.3942   -0.6226 C   0  0  0  0  0  0  0  0  0  0  0  0
   -0.8757    1.2531   -0.4332 C   0  0  0  0  0  0  0  0  0  0  0  0
   -0.4177    1.5955    0.9959 C   0  0  0  0  0  0  0  0  0  0  0  0
   -0.9912    0.6848    2.0997 C   0  0  0  0  0  0  0  0  0  0  0  0
   -0.6865   -0.8118    1.9189 C   0  0  0  0  0  0  0  0  0  0  0  0
    0.7938   -1.1009    1.8790 C   0  0  0  0  0  0  0  0  0  0  0  0
    1.4889   -0.8013    2.8388 O   0  0  0  0  0  0  0  0  0  0  0  0
    1.4225   -1.8006    0.7011 C   0  0  0  0  0  0  0  0  0  0  0  0
    2.4657   -0.9100    0.0206 C   0  0  0  0  0  0  0  0  0  0  0  0
    3.0898   -1.6260   -1.1347 C   0  0  0  0  0  0  0  0  0  0  0  0
    4.2077   -2.4287   -0.9305 O   0  0  0  0  0  0  0  0  0  0  0  0
    2.5807   -1.5348   -2.2839 O   0  0  0  0  0  0  0  0  0  0  0  0
   -3.0197    2.1875   -3.8972 H   0  0  0  0  0  0  0  0  0  0  0  0
   -2.9267    0.6351   -0.0141 H   0  0  0  0  0  0  0  0  0  0  0  0
   -2.7215    2.4033   -0.2945 H   0  0  0  0  0  0  0  0  0  0  0  0
   -0.3604    1.9522   -1.1283 H   0  0  0  0  0  0  0  0  0  0  0  0
   -0.5525    0.2270   -0.7080 H   0  0  0  0  0  0  0  0  0  0  0  0
   -0.7058    2.6452    1.2223 H   0  0  0  0  0  0  0  0  0  0  0  0
    0.6915    1.5589    1.0350 H   0  0  0  0  0  0  0  0  0  0  0  0
   -0.5778    1.0186    3.0765 H   0  0  0  0  0  0  0  0  0  0  0  0
   -2.0911    0.8237    2.1633 H   0  0  0  0  0  0  0  0  0  0  0  0
   -1.1963   -1.1934    1.0098 H   0  0  0  0  0  0  0  0  0  0  0  0
   -1.1230   -1.3642    2.7785 H   0  0  0  0  0  0  0  0  0  0  0  0
    1.9062   -2.7348    1.0614 H   0  0  0  0  0  0  0  0  0  0  0  0
    0.6453   -2.0863   -0.0406 H   0  0  0  0  0  0  0  0  0  0  0  0
    1.9889    0.0248   -0.3438 H   0  0  0  0  0  0  0  0  0  0  0  0
    3.2611   -0.6338    0.7463 H   0  0  0  0  0  0  0  0  0  0  0  0
    4.6324   -2.9330   -1.6995 H   0  0  0  0  0  0  0  0  0  0  0  0
  1  2  1  0
  2  3  2  0
  2  4  1  0
  4  5  1  0
  5  6  1  0
  6  7  1  0
  7  8  1  0
  8  9  1  0
  9 10  2  0
  9 11  1  0
 11 12  1  0
 12 13  1  0
 13 14  1  0
 13 15  2  0
  1 16  1  0
  4 17  1  0
  4 18  1  0
  5 19  1  0
  5 20  1  0
  6 21  1  0
  6 22  1  0
  7 23  1  0
  7 24  1  0
  8 25  1  0
  8 26  1  0
 11 27  1  0
 11 28  1  0
 12 29  1  0
 12 30  1  0
 14 31  1  0
M  END
$$$$
