
     RDKit          3D

 62 64  0  0  0  0  0  0  0  0999 V2000
    6.5913    1.1509    1.8037 C   0  0  0  0  0  0  0  0  0  0  0  0
    6.0926    1.2711    0.3653 C   0  0  0  0  0  0  0  0  0  0  0  0
    6.4640    2.6371   -0.2184 C   0  0  0  0  0  0  0  0  0  0  0  0
    4.6757    1.0994    0.3524 O   0  0  0  0  0  0  0  0  0  0  0  0
    3.9411    0.8123   -0.8046 C   0  0  0  0  0  0  0  0  0  0  0  0
    4.5242    0.6283   -1.9082 O   0  0  0  0  0  0  0  0  0  0  0  0
    2.4454    0.7225   -0.7270 C   0  0  2  0  0  0  0  0  0  0  0  0
    1.8673    2.0990   -0.3621 C   0  0  0  0  0  0  0  0  0  0  0  0
    2.0853   -0.3141    0.2549 N   0  0  0  0  0  0  0  0  0  0  0  0
    0.3859   -0.7871    0.1549 P   0  0  2  0  0  5  0  0  0  0  0  0
   -0.2080   -0.4360   -1.1920 O   0  0  0  0  0  0  0  0  0  0  0  0
   -0.5587    0.0421    1.4650 C   0  0  0  0  0  0  0  0  0  0  0  0
   -1.9235   -0.2829    1.3155 O   0  0  0  0  0  0  0  0  0  0  0  0
   -2.7152    0.4095    2.2663 C   0  0  2  0  0  0  0  0  0  0  0  0
   -3.9130   -0.4711    2.6265 C   0  0  0  0  0  0  0  0  0  0  0  0
   -3.1769    1.7721    1.7065 C   0  0  0  0  0  0  0  0  0  0  0  0
   -3.7599    1.6396    0.3711 N   0  0  0  0  0  0  0  0  0  0  0  0
   -3.1055    1.6034   -0.8184 C   0  0  0  0  0  0  0  0  0  0  0  0
   -3.9350    1.4374   -1.8858 N   0  0  0  0  0  0  0  0  0  0  0  0
   -5.1502    1.3697   -1.3091 C   0  0  0  0  0  0  0  0  0  0  0  0
   -6.3993    1.1991   -1.8950 C   0  0  0  0  0  0  0  0  0  0  0  0
   -6.5561    1.0661   -3.3077 N   0  0  0  0  0  0  0  0  0  0  0  0
   -7.4866    1.1611   -1.0676 N   0  0  0  0  0  0  0  0  0  0  0  0
   -7.3550    1.2864    0.2926 C   0  0  0  0  0  0  0  0  0  0  0  0
   -6.1214    1.4535    0.8579 N   0  0  0  0  0  0  0  0  0  0  0  0
   -5.0462    1.4899    0.0339 C   0  0  0  0  0  0  0  0  0  0  0  0
    0.2603   -2.4863    0.4035 O   0  0  0  0  0  0  0  0  0  0  0  0
    0.8758   -3.4603   -0.3967 C   0  0  0  0  0  0  0  0  0  0  0  0
    1.6578   -3.1440   -1.5270 C   0  0  0  0  0  0  0  0  0  0  0  0
    2.2477   -4.1625   -2.2825 C   0  0  0  0  0  0  0  0  0  0  0  0
    2.0643   -5.4996   -1.9223 C   0  0  0  0  0  0  0  0  0  0  0  0
    1.2897   -5.8211   -0.8055 C   0  0  0  0  0  0  0  0  0  0  0  0
    0.6987   -4.8058   -0.0475 C   0  0  0  0  0  0  0  0  0  0  0  0
    6.3202    0.1540    2.2116 H   0  0  0  0  0  0  0  0  0  0  0  0
    7.6967    1.2567    1.8394 H   0  0  0  0  0  0  0  0  0  0  0  0
    6.1290    1.9342    2.4421 H   0  0  0  0  0  0  0  0  0  0  0  0
    6.5751    0.4689   -0.2365 H   0  0  0  0  0  0  0  0  0  0  0  0
    7.5649    2.7826   -0.1871 H   0  0  0  0  0  0  0  0  0  0  0  0
    6.1358    2.7041   -1.2765 H   0  0  0  0  0  0  0  0  0  0  0  0
    5.9729    3.4502    0.3579 H   0  0  0  0  0  0  0  0  0  0  0  0
    2.0723    0.4369   -1.7356 H   0  0  0  0  0  0  0  0  0  0  0  0
    2.1370    2.3795    0.6786 H   0  0  0  0  0  0  0  0  0  0  0  0
    2.2615    2.8744   -1.0538 H   0  0  0  0  0  0  0  0  0  0  0  0
    0.7630    2.0957   -0.4634 H   0  0  0  0  0  0  0  0  0  0  0  0
    2.2690    0.0293    1.2261 H   0  0  0  0  0  0  0  0  0  0  0  0
   -0.1746   -0.3197    2.4440 H   0  0  0  0  0  0  0  0  0  0  0  0
   -0.3927    1.1363    1.3797 H   0  0  0  0  0  0  0  0  0  0  0  0
   -2.1685    0.5949    3.2227 H   0  0  0  0  0  0  0  0  0  0  0  0
   -3.5557   -1.4034    3.1130 H   0  0  0  0  0  0  0  0  0  0  0  0
   -4.5874    0.0565    3.3343 H   0  0  0  0  0  0  0  0  0  0  0  0
   -4.4833   -0.7513    1.7160 H   0  0  0  0  0  0  0  0  0  0  0  0
   -3.9137    2.2383    2.3967 H   0  0  0  0  0  0  0  0  0  0  0  0
   -2.3107    2.4658    1.6569 H   0  0  0  0  0  0  0  0  0  0  0  0
   -2.0314    1.6962   -0.9129 H   0  0  0  0  0  0  0  0  0  0  0  0
   -5.7296    1.0937   -3.9456 H   0  0  0  0  0  0  0  0  0  0  0  0
   -7.5067    0.9386   -3.7202 H   0  0  0  0  0  0  0  0  0  0  0  0
   -8.2334    1.2525    0.9222 H   0  0  0  0  0  0  0  0  0  0  0  0
    1.8171   -2.1217   -1.8349 H   0  0  0  0  0  0  0  0  0  0  0  0
    2.8473   -3.9145   -3.1488 H   0  0  0  0  0  0  0  0  0  0  0  0
    2.5216   -6.2860   -2.5087 H   0  0  0  0  0  0  0  0  0  0  0  0
    1.1470   -6.8571   -0.5266 H   0  0  0  0  0  0  0  0  0  0  0  0
    0.1005   -5.0648    0.8170 H   0  0  0  0  0  0  0  0  0  0  0  0
  1  2  1  0
  2  3  1  0
  2  4  1  0
  4  5  1  0
  5  6  2  0
  5  7  1  0
  7  8  1  0
  7  9  1  0
  9 10  1  0
 10 11  2  0
 10 12  1  0
 12 13  1  0
 13 14  1  0
 14 15  1  0
 14 16  1  0
 16 17  1  0
 17 18  1  0
 18 19  2  0
 19 20  1  0
 20 21  2  0
 21 22  1  0
 21 23  1  0
 23 24  2  0
 24 25  1  0
 25 26  2  0
 10 27  1  1
 27 28  1  0
 28 29  2  0
 29 30  1  0
 30 31  2  0
 31 32  1  0
 32 33  2  0
 26 17  1  0
 33 28  1  0
 26 20  1  0
  1 34  1  0
  1 35  1  0
  1 36  1  0
  2 37  1  0
  3 38  1  0
  3 39  1  0
  3 40  1  0
  7 41  1  6
  8 42  1  0
  8 43  1  0
  8 44  1  0
  9 45  1  0
 12 46  1  0
 12 47  1  0
 14 48  1  1
 15 49  1  0
 15 50  1  0
 15 51  1  0
 16 52  1  0
 16 53  1  0
 18 54  1  0
 22 55  1  0
 22 56  1  0
 24 57  1  0
 29 58  1  0
 30 59  1  0
 31 60  1  0
 32 61  1  0
 33 62  1  0
M  END
$$$$
