
     RDKit          3D

 84 88  0  0  0  0  0  0  0  0999 V2000
   -8.3207   -1.6485    1.5834 C   0  0  0  0  0  0  0  0  0  0  0  0
   -7.8193   -1.5818    0.1437 C   0  0  0  0  0  0  0  0  0  0  0  0
   -6.3993   -2.0720    0.0441 C   0  0  0  0  0  0  0  0  0  0  0  0
   -5.2792   -1.2647    0.3428 C   0  0  0  0  0  0  0  0  0  0  0  0
   -5.4130    0.1058    0.7821 N   0  0  0  0  0  0  0  0  0  0  0  0
   -4.2859    1.0119    1.0549 C   0  0  0  0  0  0  0  0  0  0  0  0
   -3.4521    1.2763   -0.2102 C   0  0  0  0  0  0  0  0  0  0  0  0
   -2.2344    2.1802    0.1021 C   0  0  0  0  0  0  0  0  0  0  0  0
   -1.9212    2.2680    1.4844 O   0  0  0  0  0  0  0  0  0  0  0  0
   -1.9586    0.9880    2.0815 C   0  0  0  0  0  0  0  0  0  0  0  0
   -3.4125    0.5160    2.2315 C   0  0  0  0  0  0  0  0  0  0  0  0
   -4.0446   -1.8213    0.2436 N   0  0  0  0  0  0  0  0  0  0  0  0
   -3.8368   -3.1122   -0.1247 C   0  0  0  0  0  0  0  0  0  0  0  0
   -2.4994   -3.6358   -0.0942 N   0  0  0  0  0  0  0  0  0  0  0  0
   -1.3613   -2.7694   -0.2019 C   0  0  0  0  0  0  0  0  0  0  0  0
   -0.3174   -2.8709    0.7231 C   0  0  0  0  0  0  0  0  0  0  0  0
    0.7536   -1.9777    0.6733 C   0  0  0  0  0  0  0  0  0  0  0  0
    0.8091   -0.9879   -0.3187 C   0  0  0  0  0  0  0  0  0  0  0  0
    1.8981   -0.0509   -0.3240 N   0  0  0  0  0  0  0  0  0  0  0  0
    2.0378    0.8813    0.7991 C   0  0  0  0  0  0  0  0  0  0  0  0
    3.2164    1.8411    0.5929 C   0  0  0  0  0  0  0  0  0  0  0  0
    4.4952    1.0603    0.1838 C   0  0  0  0  0  0  0  0  0  0  0  0
    4.2271    0.2106   -1.1004 C   0  0  0  0  0  0  0  0  0  0  0  0
    2.7505    0.0888   -1.5063 C   0  0  0  0  0  0  0  0  0  0  0  0
    5.6777    1.9482   -0.0327 N   0  0  0  0  0  0  0  0  0  0  0  0
    5.8419    2.9740    1.0297 C   0  0  0  0  0  0  0  0  0  0  0  0
    7.2248    3.6562    0.9808 C   0  0  0  0  0  0  0  0  0  0  0  0
    7.8279    3.4743   -0.3491 N   0  0  0  0  0  0  0  0  0  0  0  0
    9.0696    4.2538   -0.4632 C   0  0  0  0  0  0  0  0  0  0  0  0
    8.0936    2.0427   -0.6011 C   0  0  0  0  0  0  0  0  0  0  0  0
    6.9239    1.1534   -0.1345 C   0  0  0  0  0  0  0  0  0  0  0  0
   -0.2152   -0.9027   -1.2813 C   0  0  0  0  0  0  0  0  0  0  0  0
   -0.1357    0.0915   -2.2696 O   0  0  0  0  0  0  0  0  0  0  0  0
   -1.0799    0.2666   -3.3207 C   0  0  0  0  0  0  0  0  0  0  0  0
   -1.2977   -1.8006   -1.2148 C   0  0  0  0  0  0  0  0  0  0  0  0
   -4.9543   -3.9179   -0.4243 C   0  0  0  0  0  0  0  0  0  0  0  0
   -6.1932   -3.3660   -0.3222 N   0  0  0  0  0  0  0  0  0  0  0  0
   -4.8415   -5.3200   -0.8882 C   0  0  0  0  0  0  0  0  0  0  0  0
   -5.9594   -6.2049   -0.7907 N   0  0  0  0  0  0  0  0  0  0  0  0
   -3.7746   -5.7393   -1.4111 O   0  0  0  0  0  0  0  0  0  0  0  0
   -7.6977   -1.0140    2.2481 H   0  0  0  0  0  0  0  0  0  0  0  0
   -9.3693   -1.2864    1.6284 H   0  0  0  0  0  0  0  0  0  0  0  0
   -8.2908   -2.6966    1.9509 H   0  0  0  0  0  0  0  0  0  0  0  0
   -7.9143   -0.5504   -0.2549 H   0  0  0  0  0  0  0  0  0  0  0  0
   -8.4737   -2.2225   -0.4867 H   0  0  0  0  0  0  0  0  0  0  0  0
   -6.3630    0.5103    0.9277 H   0  0  0  0  0  0  0  0  0  0  0  0
   -4.7079    1.9977    1.3587 H   0  0  0  0  0  0  0  0  0  0  0  0
   -4.0880    1.7522   -0.9882 H   0  0  0  0  0  0  0  0  0  0  0  0
   -3.0789    0.3218   -0.6271 H   0  0  0  0  0  0  0  0  0  0  0  0
   -1.3423    1.8302   -0.4615 H   0  0  0  0  0  0  0  0  0  0  0  0
   -2.4565    3.2067   -0.2589 H   0  0  0  0  0  0  0  0  0  0  0  0
   -1.3670    0.2497    1.4914 H   0  0  0  0  0  0  0  0  0  0  0  0
   -1.4884    1.0467    3.0857 H   0  0  0  0  0  0  0  0  0  0  0  0
   -3.4186   -0.5883    2.3268 H   0  0  0  0  0  0  0  0  0  0  0  0
   -3.8316    0.9196    3.1792 H   0  0  0  0  0  0  0  0  0  0  0  0
   -2.3488   -4.6046    0.2665 H   0  0  0  0  0  0  0  0  0  0  0  0
   -0.3524   -3.6197    1.5044 H   0  0  0  0  0  0  0  0  0  0  0  0
    1.5435   -2.0554    1.4096 H   0  0  0  0  0  0  0  0  0  0  0  0
    2.2027    0.3068    1.7362 H   0  0  0  0  0  0  0  0  0  0  0  0
    1.1018    1.4703    0.9121 H   0  0  0  0  0  0  0  0  0  0  0  0
    3.3609    2.3781    1.5534 H   0  0  0  0  0  0  0  0  0  0  0  0
    2.9631    2.5900   -0.1894 H   0  0  0  0  0  0  0  0  0  0  0  0
    4.7169    0.3586    1.0224 H   0  0  0  0  0  0  0  0  0  0  0  0
    4.6322   -0.8128   -0.9398 H   0  0  0  0  0  0  0  0  0  0  0  0
    4.7679    0.6432   -1.9709 H   0  0  0  0  0  0  0  0  0  0  0  0
    2.6303   -0.7860   -2.1831 H   0  0  0  0  0  0  0  0  0  0  0  0
    2.4443    0.9981   -2.0679 H   0  0  0  0  0  0  0  0  0  0  0  0
    5.0778    3.7675    0.8813 H   0  0  0  0  0  0  0  0  0  0  0  0
    5.6985    2.5258    2.0392 H   0  0  0  0  0  0  0  0  0  0  0  0
    7.1004    4.7395    1.2053 H   0  0  0  0  0  0  0  0  0  0  0  0
    7.8841    3.2217    1.7677 H   0  0  0  0  0  0  0  0  0  0  0  0
    8.8470    5.3382   -0.3676 H   0  0  0  0  0  0  0  0  0  0  0  0
    9.5285    4.0970   -1.4633 H   0  0  0  0  0  0  0  0  0  0  0  0
    9.8030    3.9641    0.3223 H   0  0  0  0  0  0  0  0  0  0  0  0
    8.2394    1.8992   -1.6943 H   0  0  0  0  0  0  0  0  0  0  0  0
    9.0236    1.7070   -0.0870 H   0  0  0  0  0  0  0  0  0  0  0  0
    7.1710    0.7019    0.8542 H   0  0  0  0  0  0  0  0  0  0  0  0
    6.8220    0.3169   -0.8573 H   0  0  0  0  0  0  0  0  0  0  0  0
   -0.7538    1.1103   -3.9624 H   0  0  0  0  0  0  0  0  0  0  0  0
   -1.1345   -0.6524   -3.9416 H   0  0  0  0  0  0  0  0  0  0  0  0
   -2.0796    0.5063   -2.9032 H   0  0  0  0  0  0  0  0  0  0  0  0
   -2.1017   -1.7465   -1.9361 H   0  0  0  0  0  0  0  0  0  0  0  0
   -5.8850   -7.1844   -1.1450 H   0  0  0  0  0  0  0  0  0  0  0  0
   -6.8553   -5.9000   -0.3498 H   0  0  0  0  0  0  0  0  0  0  0  0
  1  2  1  0
  2  3  1  0
  3  4  2  0
  4  5  1  0
  5  6  1  0
  6  7  1  0
  7  8  1  0
  8  9  1  0
  9 10  1  0
 10 11  1  0
  4 12  1  0
 12 13  2  0
 13 14  1  0
 14 15  1  0
 15 16  2  0
 16 17  1  0
 17 18  2  0
 18 19  1  0
 19 20  1  0
 20 21  1  0
 21 22  1  0
 22 23  1  0
 23 24  1  0
 22 25  1  0
 25 26  1  0
 26 27  1  0
 27 28  1  0
 28 29  1  0
 28 30  1  0
 30 31  1  0
 18 32  1  0
 32 33  1  0
 33 34  1  0
 32 35  2  0
 13 36  1  0
 36 37  2  0
 36 38  1  0
 38 39  1  0
 38 40  2  0
 37  3  1  0
 11  6  1  0
 35 15  1  0
 24 19  1  0
 31 25  1  0
  1 41  1  0
  1 42  1  0
  1 43  1  0
  2 44  1  0
  2 45  1  0
  5 46  1  0
  6 47  1  0
  7 48  1  0
  7 49  1  0
  8 50  1  0
  8 51  1  0
 10 52  1  0
 10 53  1  0
 11 54  1  0
 11 55  1  0
 14 56  1  0
 16 57  1  0
 17 58  1  0
 20 59  1  0
 20 60  1  0
 21 61  1  0
 21 62  1  0
 22 63  1  0
 23 64  1  0
 23 65  1  0
 24 66  1  0
 24 67  1  0
 26 68  1  0
 26 69  1  0
 27 70  1  0
 27 71  1  0
 29 72  1  0
 29 73  1  0
 29 74  1  0
 30 75  1  0
 30 76  1  0
 31 77  1  0
 31 78  1  0
 34 79  1  0
 34 80  1  0
 34 81  1  0
 35 82  1  0
 39 83  1  0
 39 84  1  0
M  END
$$$$
