
     RDKit          3D

 24 24  0  0  0  0  0  0  0  0999 V2000
   -1.6996   -0.0138    0.2525 C   0  0  2  0  0  0  0  0  0  0  0  0
   -3.1188   -0.3641   -0.2230 C   0  0  0  0  0  0  0  0  0  0  0  0
   -1.5433    1.4392    0.3701 N   0  0  0  0  0  0  0  0  0  0  0  0
   -0.6284   -0.5877   -0.7113 C   0  0  2  0  0  0  0  0  0  0  0  0
   -0.7433   -1.9838   -0.8466 O   0  0  0  0  0  0  0  0  0  0  0  0
    0.7794   -0.2177   -0.2794 C   0  0  0  0  0  0  0  0  0  0  0  0
    1.5734    0.6100   -1.0946 C   0  0  0  0  0  0  0  0  0  0  0  0
    2.8679    0.9612   -0.6997 C   0  0  0  0  0  0  0  0  0  0  0  0
    3.3828    0.4925    0.5111 C   0  0  0  0  0  0  0  0  0  0  0  0
    2.6036   -0.3275    1.3303 C   0  0  0  0  0  0  0  0  0  0  0  0
    1.3085   -0.6819    0.9404 C   0  0  0  0  0  0  0  0  0  0  0  0
   -1.5596   -0.4632    1.2607 H   0  0  0  0  0  0  0  0  0  0  0  0
   -3.8703    0.0647    0.4734 H   0  0  0  0  0  0  0  0  0  0  0  0
   -3.2596   -1.4654   -0.2434 H   0  0  0  0  0  0  0  0  0  0  0  0
   -3.3028    0.0414   -1.2409 H   0  0  0  0  0  0  0  0  0  0  0  0
   -1.7887    1.8902   -0.5417 H   0  0  0  0  0  0  0  0  0  0  0  0
   -2.2166    1.7941    1.0877 H   0  0  0  0  0  0  0  0  0  0  0  0
   -0.8219   -0.1528   -1.7171 H   0  0  0  0  0  0  0  0  0  0  0  0
   -0.7355   -2.3837    0.0616 H   0  0  0  0  0  0  0  0  0  0  0  0
    1.1919    0.9865   -2.0355 H   0  0  0  0  0  0  0  0  0  0  0  0
    3.4720    1.5981   -1.3328 H   0  0  0  0  0  0  0  0  0  0  0  0
    4.3849    0.7660    0.8151 H   0  0  0  0  0  0  0  0  0  0  0  0
    3.0030   -0.6882    2.2695 H   0  0  0  0  0  0  0  0  0  0  0  0
    0.7211   -1.3141    1.5933 H   0  0  0  0  0  0  0  0  0  0  0  0
  1  2  1  0
  1  3  1  0
  1  4  1  0
  4  5  1  0
  4  6  1  0
  6  7  2  0
  7  8  1  0
  8  9  2  0
  9 10  1  0
 10 11  2  0
 11  6  1  0
  1 12  1  1
  2 13  1  0
  2 14  1  0
  2 15  1  0
  3 16  1  0
  3 17  1  0
  4 18  1  6
  5 19  1  0
  7 20  1  0
  8 21  1  0
  9 22  1  0
 10 23  1  0
 11 24  1  0
M  END
$$$$
