
     RDKit          3D

 48 50  0  0  0  0  0  0  0  0999 V2000
   -0.1516   -0.1674    0.3042 C   0  0  2  0  0  0  0  0  0  0  0  0
    0.0102    0.7645    1.5212 C   0  0  0  0  0  0  0  0  0  0  0  0
    0.6326    2.0841    1.1624 C   0  0  0  0  0  0  0  0  0  0  0  0
   -0.0319    3.2458    0.8393 C   0  0  0  0  0  0  0  0  0  0  0  0
    0.8701    4.1975    0.5270 N   0  0  0  0  0  0  0  0  0  0  0  0
    2.0655    3.5845    0.6660 C   0  0  0  0  0  0  0  0  0  0  0  0
    1.9524    2.2990    1.0480 N   0  0  0  0  0  0  0  0  0  0  0  0
    1.1315   -0.3567   -0.3869 N   0  0  0  0  0  0  0  0  0  0  0  0
    2.1802   -1.1705    0.1590 C   0  0  0  0  0  0  0  0  0  0  0  0
    1.9717   -1.8699    1.1884 O   0  0  0  0  0  0  0  0  0  0  0  0
    3.5223   -1.2262   -0.5192 C   0  0  2  0  0  0  0  0  0  0  0  0
    3.7163   -2.5544   -1.2928 C   0  0  0  0  0  0  0  0  0  0  0  0
    4.8493   -3.3264   -0.5967 C   0  0  0  0  0  0  0  0  0  0  0  0
    5.3333   -2.3745    0.4217 C   0  0  0  0  0  0  0  0  0  0  0  0
    6.3081   -2.5975    1.1866 O   0  0  0  0  0  0  0  0  0  0  0  0
    4.5841   -1.1818    0.4689 N   0  0  0  0  0  0  0  0  0  0  0  0
   -1.2135    0.3617   -0.6409 C   0  0  0  0  0  0  0  0  0  0  0  0
   -0.8998    1.2385   -1.4924 O   0  0  0  0  0  0  0  0  0  0  0  0
   -2.5923   -0.0463   -0.5271 N   0  0  0  0  0  0  0  0  0  0  0  0
   -3.0301   -1.2581    0.1467 C   0  0  0  0  0  0  0  0  0  0  0  0
   -4.4845   -1.4594   -0.2575 C   0  0  0  0  0  0  0  0  0  0  0  0
   -4.9560   -0.1246   -0.8266 C   0  0  0  0  0  0  0  0  0  0  0  0
   -3.6854    0.6442   -1.1999 C   0  0  1  0  0  0  0  0  0  0  0  0
   -3.7672    2.0849   -0.7648 C   0  0  0  0  0  0  0  0  0  0  0  0
   -3.7429    2.4317    0.6209 N   0  0  0  0  0  0  0  0  0  0  0  0
   -3.8805    2.9924   -1.6312 O   0  0  0  0  0  0  0  0  0  0  0  0
   -0.4788   -1.1565    0.6839 H   0  0  0  0  0  0  0  0  0  0  0  0
    0.6483    0.2679    2.2830 H   0  0  0  0  0  0  0  0  0  0  0  0
   -0.9815    0.9373    1.9941 H   0  0  0  0  0  0  0  0  0  0  0  0
   -1.1028    3.3917    0.8227 H   0  0  0  0  0  0  0  0  0  0  0  0
    3.0129    4.0744    0.4844 H   0  0  0  0  0  0  0  0  0  0  0  0
    2.7270    1.6184    1.2121 H   0  0  0  0  0  0  0  0  0  0  0  0
    1.3222    0.1534   -1.2789 H   0  0  0  0  0  0  0  0  0  0  0  0
    3.6386   -0.3625   -1.2098 H   0  0  0  0  0  0  0  0  0  0  0  0
    2.7890   -3.1692   -1.3194 H   0  0  0  0  0  0  0  0  0  0  0  0
    4.0094   -2.3325   -2.3425 H   0  0  0  0  0  0  0  0  0  0  0  0
    4.4604   -4.2429   -0.1035 H   0  0  0  0  0  0  0  0  0  0  0  0
    5.6619   -3.5818   -1.3102 H   0  0  0  0  0  0  0  0  0  0  0  0
    4.7609   -0.3894    1.1263 H   0  0  0  0  0  0  0  0  0  0  0  0
   -2.4233   -2.1295   -0.1828 H   0  0  0  0  0  0  0  0  0  0  0  0
   -2.9443   -1.1244    1.2468 H   0  0  0  0  0  0  0  0  0  0  0  0
   -4.5477   -2.2407   -1.0470 H   0  0  0  0  0  0  0  0  0  0  0  0
   -5.1045   -1.7711    0.6110 H   0  0  0  0  0  0  0  0  0  0  0  0
   -5.6051   -0.2784   -1.7161 H   0  0  0  0  0  0  0  0  0  0  0  0
   -5.5458    0.4092   -0.0478 H   0  0  0  0  0  0  0  0  0  0  0  0
   -3.5251    0.5858   -2.3000 H   0  0  0  0  0  0  0  0  0  0  0  0
   -3.6537    1.6946    1.3551 H   0  0  0  0  0  0  0  0  0  0  0  0
   -3.8102    3.4312    0.9146 H   0  0  0  0  0  0  0  0  0  0  0  0
  1  2  1  0
  2  3  1  0
  3  4  2  0
  4  5  1  0
  5  6  2  0
  6  7  1  0
  1  8  1  0
  8  9  1  0
  9 10  2  0
  9 11  1  0
 11 12  1  0
 12 13  1  0
 13 14  1  0
 14 15  2  0
 14 16  1  0
  1 17  1  0
 17 18  2  0
 17 19  1  0
 19 20  1  0
 20 21  1  0
 21 22  1  0
 22 23  1  0
 23 24  1  0
 24 25  1  0
 24 26  2  0
  7  3  1  0
 16 11  1  0
 23 19  1  0
  1 27  1  1
  2 28  1  0
  2 29  1  0
  4 30  1  0
  6 31  1  0
  7 32  1  0
  8 33  1  0
 11 34  1  6
 12 35  1  0
 12 36  1  0
 13 37  1  0
 13 38  1  0
 16 39  1  0
 20 40  1  0
 20 41  1  0
 21 42  1  0
 21 43  1  0
 22 44  1  0
 22 45  1  0
 23 46  1  6
 25 47  1  0
 25 48  1  0
M  END
$$$$
