
     RDKit          3D

 28 31  0  0  0  0  0  0  0  0999 V2000
   -2.5250   -1.1428    2.0846 N   0  0  0  0  0  0  0  0  0  0  0  0
   -1.2060   -1.1577    1.9563 N   0  0  0  0  0  0  0  0  0  0  0  0
   -0.8637   -0.4705    0.8380 C   0  0  0  0  0  0  0  0  0  0  0  0
    0.5539   -0.3195    0.4378 C   0  0  0  0  0  0  0  0  0  0  0  0
    1.5544   -0.8666    1.1816 N   0  0  0  0  0  0  0  0  0  0  0  0
    2.6637   -0.5192    0.5084 C   0  0  0  0  0  0  0  0  0  0  0  0
    3.9860   -0.8194    0.8276 C   0  0  0  0  0  0  0  0  0  0  0  0
    4.9907   -0.3427   -0.0364 C   0  0  0  0  0  0  0  0  0  0  0  0
    4.6497    0.4125   -1.1827 C   0  0  0  0  0  0  0  0  0  0  0  0
    3.3017    0.6964   -1.4732 C   0  0  0  0  0  0  0  0  0  0  0  0
    2.3372    0.2073   -0.5944 C   0  0  0  0  0  0  0  0  0  0  0  0
    1.0072    0.3455   -0.6583 N   0  0  0  0  0  0  0  0  0  0  0  0
   -2.0369   -0.0035    0.2399 C   0  0  0  0  0  0  0  0  0  0  0  0
   -3.0425   -0.4524    1.0604 C   0  0  0  0  0  0  0  0  0  0  0  0
   -4.3875   -0.1930    0.8078 C   0  0  0  0  0  0  0  0  0  0  0  0
   -4.7046    0.5584   -0.3352 C   0  0  0  0  0  0  0  0  0  0  0  0
   -3.6818    1.0258   -1.1867 C   0  0  0  0  0  0  0  0  0  0  0  0
   -2.3308    0.7476   -0.9055 C   0  0  0  0  0  0  0  0  0  0  0  0
   -3.0502   -1.5999    2.8627 H   0  0  0  0  0  0  0  0  0  0  0  0
    4.2333   -1.3983    1.7079 H   0  0  0  0  0  0  0  0  0  0  0  0
    6.0298   -0.5556    0.1782 H   0  0  0  0  0  0  0  0  0  0  0  0
    5.4292    0.7744   -1.8404 H   0  0  0  0  0  0  0  0  0  0  0  0
    3.0261    1.2730   -2.3466 H   0  0  0  0  0  0  0  0  0  0  0  0
    0.4856    0.8546   -1.3974 H   0  0  0  0  0  0  0  0  0  0  0  0
   -5.1630   -0.5573    1.4691 H   0  0  0  0  0  0  0  0  0  0  0  0
   -5.7390    0.7798   -0.5637 H   0  0  0  0  0  0  0  0  0  0  0  0
   -3.9388    1.6040   -2.0649 H   0  0  0  0  0  0  0  0  0  0  0  0
   -1.5787    1.1190   -1.5751 H   0  0  0  0  0  0  0  0  0  0  0  0
  1  2  1  0
  2  3  2  0
  3  4  1  0
  4  5  2  0
  5  6  1  0
  6  7  2  0
  7  8  1  0
  8  9  2  0
  9 10  1  0
 10 11  2  0
 11 12  1  0
  3 13  1  0
 13 14  2  0
 14 15  1  0
 15 16  2  0
 16 17  1  0
 17 18  2  0
 14  1  1  0
 12  4  1  0
 18 13  1  0
 11  6  1  0
  1 19  1  0
  7 20  1  0
  8 21  1  0
  9 22  1  0
 10 23  1  0
 12 24  1  0
 15 25  1  0
 16 26  1  0
 17 27  1  0
 18 28  1  0
M  END
$$$$
