
     RDKit          3D

 56 59  0  0  0  0  0  0  0  0999 V2000
   -0.7707   -0.1104   -0.6895 C   0  0  2  0  0  0  0  0  0  0  0  0
   -1.7659    0.4717   -1.6798 C   0  0  0  0  0  0  0  0  0  0  0  0
   -3.1375   -0.0694   -1.1999 C   0  0  1  0  0  0  0  0  0  0  0  0
   -3.7528   -1.0120   -2.2515 C   0  0  0  0  0  0  0  0  0  0  0  0
   -2.8966   -0.7510    0.2032 C   0  0  2  0  0  0  0  0  0  0  0  0
   -2.7428   -2.1446    0.0086 O   0  0  0  0  0  0  0  0  0  0  0  0
   -4.0309   -0.5144    1.2212 C   0  0  0  0  0  0  0  0  0  0  0  0
   -3.8026   -0.7134    2.4057 O   0  0  0  0  0  0  0  0  0  0  0  0
   -5.4326   -0.1088    0.8461 C   0  0  0  0  0  0  0  0  0  0  0  0
   -5.7112    1.5888    1.3034 Cl  0  0  0  0  0  0  0  0  0  0  0  0
   -1.5281   -0.1099    0.6476 C   0  0  2  0  0  0  0  0  0  0  0  0
   -1.8014    1.3371    1.2003 C   0  0  0  0  0  0  0  0  0  0  0  0
   -0.6941   -0.9373    1.6727 C   0  0  0  0  0  0  0  0  0  0  0  0
    0.7908   -0.4821    1.8016 C   0  0  2  0  0  0  0  0  0  0  0  0
    0.8875    0.6378    2.6424 O   0  0  0  0  0  0  0  0  0  0  0  0
    1.5364   -0.3326    0.4127 C   0  0  1  0  0  0  0  0  0  0  0  0
    1.7053   -2.0355   -0.2113 Cl  0  0  0  0  0  0  0  0  0  0  0  0
    0.6608    0.4899   -0.6151 C   0  0  1  0  0  0  0  0  0  0  0  0
    1.3159    0.5239   -2.0169 C   0  0  0  0  0  0  0  0  0  0  0  0
    2.7449    1.0681   -1.9684 C   0  0  0  0  0  0  0  0  0  0  0  0
    3.5620    0.3251   -0.9391 C   0  0  0  0  0  0  0  0  0  0  0  0
    4.7469   -0.2011   -1.2894 C   0  0  0  0  0  0  0  0  0  0  0  0
    5.5509   -0.9514   -0.3246 C   0  0  0  0  0  0  0  0  0  0  0  0
    6.6680   -1.4237   -0.6626 O   0  0  0  0  0  0  0  0  0  0  0  0
    5.0430   -1.1641    1.0287 C   0  0  0  0  0  0  0  0  0  0  0  0
    3.8736   -0.6441    1.4032 C   0  0  0  0  0  0  0  0  0  0  0  0
    3.0184    0.2480    0.4990 C   0  0  2  0  0  0  0  0  0  0  0  0
    3.1322    1.6772    1.0903 C   0  0  0  0  0  0  0  0  0  0  0  0
   -0.6441   -1.1676   -1.0181 H   0  0  0  0  0  0  0  0  0  0  0  0
   -1.5194    0.1613   -2.7195 H   0  0  0  0  0  0  0  0  0  0  0  0
   -1.7471    1.5831   -1.6325 H   0  0  0  0  0  0  0  0  0  0  0  0
   -3.8106    0.8092   -1.0979 H   0  0  0  0  0  0  0  0  0  0  0  0
   -3.0351   -1.8127   -2.5321 H   0  0  0  0  0  0  0  0  0  0  0  0
   -4.6765   -1.4894   -1.8665 H   0  0  0  0  0  0  0  0  0  0  0  0
   -4.0112   -0.4367   -3.1659 H   0  0  0  0  0  0  0  0  0  0  0  0
   -2.8017   -2.6054    0.8862 H   0  0  0  0  0  0  0  0  0  0  0  0
   -5.6415   -0.2289   -0.2317 H   0  0  0  0  0  0  0  0  0  0  0  0
   -6.1581   -0.7494    1.3905 H   0  0  0  0  0  0  0  0  0  0  0  0
   -1.9765    1.3150    2.2966 H   0  0  0  0  0  0  0  0  0  0  0  0
   -2.7011    1.7960    0.7427 H   0  0  0  0  0  0  0  0  0  0  0  0
   -1.0027    2.0653    0.9958 H   0  0  0  0  0  0  0  0  0  0  0  0
   -1.1760   -0.9091    2.6734 H   0  0  0  0  0  0  0  0  0  0  0  0
   -0.6760   -2.0049    1.3708 H   0  0  0  0  0  0  0  0  0  0  0  0
    1.2951   -1.3027    2.3560 H   0  0  0  0  0  0  0  0  0  0  0  0
    0.6972    1.4450    2.1113 H   0  0  0  0  0  0  0  0  0  0  0  0
    0.5915    1.5424   -0.2923 H   0  0  0  0  0  0  0  0  0  0  0  0
    0.7244    1.1825   -2.6888 H   0  0  0  0  0  0  0  0  0  0  0  0
    1.3229   -0.4898   -2.4727 H   0  0  0  0  0  0  0  0  0  0  0  0
    2.7246    2.1487   -1.7127 H   0  0  0  0  0  0  0  0  0  0  0  0
    3.1882    0.9819   -2.9849 H   0  0  0  0  0  0  0  0  0  0  0  0
    5.1183   -0.0984   -2.3022 H   0  0  0  0  0  0  0  0  0  0  0  0
    5.6205   -1.7505    1.7327 H   0  0  0  0  0  0  0  0  0  0  0  0
    3.5578   -0.8057    2.4261 H   0  0  0  0  0  0  0  0  0  0  0  0
    3.0218    1.6857    2.1940 H   0  0  0  0  0  0  0  0  0  0  0  0
    4.1454    2.0905    0.8897 H   0  0  0  0  0  0  0  0  0  0  0  0
    2.4006    2.3824    0.6518 H   0  0  0  0  0  0  0  0  0  0  0  0
  1  2  1  0
  2  3  1  0
  3  4  1  0
  3  5  1  0
  5  6  1  6
  5  7  1  0
  7  8  2  0
  7  9  1  0
  9 10  1  0
  5 11  1  0
 11 12  1  1
 11 13  1  0
 13 14  1  0
 14 15  1  0
 14 16  1  0
 16 17  1  6
 16 18  1  0
 18 19  1  0
 19 20  1  0
 20 21  1  0
 21 22  2  0
 22 23  1  0
 23 24  2  0
 23 25  1  0
 25 26  2  0
 26 27  1  0
 27 28  1  1
 11  1  1  0
 27 16  1  0
 18  1  1  0
 27 21  1  0
  1 29  1  6
  2 30  1  0
  2 31  1  0
  3 32  1  1
  4 33  1  0
  4 34  1  0
  4 35  1  0
  6 36  1  0
  9 37  1  0
  9 38  1  0
 12 39  1  0
 12 40  1  0
 12 41  1  0
 13 42  1  0
 13 43  1  0
 14 44  1  1
 15 45  1  0
 18 46  1  1
 19 47  1  0
 19 48  1  0
 20 49  1  0
 20 50  1  0
 22 51  1  0
 25 52  1  0
 26 53  1  0
 28 54  1  0
 28 55  1  0
 28 56  1  0
M  END
$$$$
