
     RDKit          3D

 51 54  0  0  0  0  0  0  0  0999 V2000
   -4.4743   -0.0088   -1.0217 C   0  0  1  0  0  0  0  0  0  0  0  0
   -4.5171    0.9925   -2.1965 C   0  0  0  0  0  0  0  0  0  0  0  0
   -3.7034    2.2310   -1.9551 C   0  0  0  0  0  0  0  0  0  0  0  0
   -2.3576    2.2605   -2.3068 O   0  0  0  0  0  0  0  0  0  0  0  0
   -4.2346    3.2403   -1.4191 O   0  0  0  0  0  0  0  0  0  0  0  0
   -3.1253   -0.5587   -0.8290 N   0  0  0  0  0  0  0  0  0  0  0  0
   -2.8768   -1.6652    0.0537 C   0  0  0  0  0  0  0  0  0  0  0  0
   -3.8458   -2.2906    0.5638 O   0  0  0  0  0  0  0  0  0  0  0  0
   -1.5026   -2.0892    0.3771 C   0  0  0  0  0  0  0  0  0  0  0  0
   -0.3234   -1.4195    0.0623 C   0  0  0  0  0  0  0  0  0  0  0  0
    0.8347   -2.0673    0.5341 C   0  0  0  0  0  0  0  0  0  0  0  0
    0.5562   -3.2463    1.2272 C   0  0  0  0  0  0  0  0  0  0  0  0
   -1.1078   -3.4725    1.2464 S   0  0  0  0  0  0  0  0  0  0  0  0
    2.2098   -1.5464    0.3239 C   0  0  0  0  0  0  0  0  0  0  0  0
    3.2274   -1.8138    1.2566 C   0  0  0  0  0  0  0  0  0  0  0  0
    4.5210   -1.3230    1.0592 C   0  0  0  0  0  0  0  0  0  0  0  0
    4.8285   -0.5534   -0.0758 C   0  0  0  0  0  0  0  0  0  0  0  0
    3.8124   -0.2867   -1.0092 C   0  0  0  0  0  0  0  0  0  0  0  0
    2.5187   -0.7774   -0.8120 C   0  0  0  0  0  0  0  0  0  0  0  0
    6.2035   -0.0314   -0.2854 C   0  0  0  0  0  0  0  0  0  0  0  0
    6.4093    1.2640   -0.7911 C   0  0  0  0  0  0  0  0  0  0  0  0
    7.7108    1.7351   -0.9799 C   0  0  0  0  0  0  0  0  0  0  0  0
    8.7736    0.9444   -0.6773 N   0  0  0  0  0  0  0  0  0  0  0  0
    8.6089   -0.3123   -0.1875 C   0  0  0  0  0  0  0  0  0  0  0  0
    7.3250   -0.8229    0.0179 C   0  0  0  0  0  0  0  0  0  0  0  0
   -5.0061    0.6122    0.2580 C   0  0  0  0  0  0  0  0  0  0  0  0
   -6.3803    0.5430    0.5473 C   0  0  0  0  0  0  0  0  0  0  0  0
   -6.8902    1.1335    1.7075 C   0  0  0  0  0  0  0  0  0  0  0  0
   -6.0366    1.8069    2.5845 C   0  0  0  0  0  0  0  0  0  0  0  0
   -4.6718    1.8954    2.3006 C   0  0  0  0  0  0  0  0  0  0  0  0
   -4.1569    1.3068    1.1420 C   0  0  0  0  0  0  0  0  0  0  0  0
   -5.1389   -0.8550   -1.3078 H   0  0  0  0  0  0  0  0  0  0  0  0
   -5.5728    1.2834   -2.3909 H   0  0  0  0  0  0  0  0  0  0  0  0
   -4.1450    0.4915   -3.1162 H   0  0  0  0  0  0  0  0  0  0  0  0
   -1.7948    3.0858   -2.1390 H   0  0  0  0  0  0  0  0  0  0  0  0
   -2.3340   -0.1774   -1.3916 H   0  0  0  0  0  0  0  0  0  0  0  0
   -0.2978   -0.4742   -0.4609 H   0  0  0  0  0  0  0  0  0  0  0  0
    1.2800   -3.9186    1.6676 H   0  0  0  0  0  0  0  0  0  0  0  0
    3.0214   -2.3841    2.1531 H   0  0  0  0  0  0  0  0  0  0  0  0
    5.2763   -1.5281    1.8074 H   0  0  0  0  0  0  0  0  0  0  0  0
    4.0226    0.2840   -1.9050 H   0  0  0  0  0  0  0  0  0  0  0  0
    1.7677   -0.5722   -1.5638 H   0  0  0  0  0  0  0  0  0  0  0  0
    5.5736    1.9128   -1.0212 H   0  0  0  0  0  0  0  0  0  0  0  0
    7.8756    2.7326   -1.3647 H   0  0  0  0  0  0  0  0  0  0  0  0
    9.4759   -0.9180    0.0400 H   0  0  0  0  0  0  0  0  0  0  0  0
    7.2111   -1.8322    0.3928 H   0  0  0  0  0  0  0  0  0  0  0  0
   -7.0573    0.0322   -0.1263 H   0  0  0  0  0  0  0  0  0  0  0  0
   -7.9487    1.0716    1.9250 H   0  0  0  0  0  0  0  0  0  0  0  0
   -6.4335    2.2645    3.4814 H   0  0  0  0  0  0  0  0  0  0  0  0
   -4.0126    2.4241    2.9769 H   0  0  0  0  0  0  0  0  0  0  0  0
   -3.0983    1.3972    0.9335 H   0  0  0  0  0  0  0  0  0  0  0  0
  1  2  1  0
  2  3  1  0
  3  4  1  0
  3  5  2  0
  1  6  1  0
  6  7  1  0
  7  8  2  0
  7  9  1  0
  9 10  2  0
 10 11  1  0
 11 12  2  0
 12 13  1  0
 11 14  1  0
 14 15  2  0
 15 16  1  0
 16 17  2  0
 17 18  1  0
 18 19  2  0
 17 20  1  0
 20 21  2  0
 21 22  1  0
 22 23  2  0
 23 24  1  0
 24 25  2  0
  1 26  1  0
 26 27  2  0
 27 28  1  0
 28 29  2  0
 29 30  1  0
 30 31  2  0
 13  9  1  0
 19 14  1  0
 25 20  1  0
 31 26  1  0
  1 32  1  6
  2 33  1  0
  2 34  1  0
  4 35  1  0
  6 36  1  0
 10 37  1  0
 12 38  1  0
 15 39  1  0
 16 40  1  0
 18 41  1  0
 19 42  1  0
 21 43  1  0
 22 44  1  0
 24 45  1  0
 25 46  1  0
 27 47  1  0
 28 48  1  0
 29 49  1  0
 30 50  1  0
 31 51  1  0
M  END
$$$$
