
     RDKit          3D

 39 40  0  0  0  0  0  0  0  0999 V2000
    4.6593   -2.6333   -0.7536 O   0  0  0  0  0  0  0  0  0  0  0  0
    3.8330   -1.5185   -0.6136 C   0  0  0  0  0  0  0  0  0  0  0  0
    4.3714   -0.2984   -0.2056 C   0  0  0  0  0  0  0  0  0  0  0  0
    3.5546    0.8242   -0.0517 C   0  0  0  0  0  0  0  0  0  0  0  0
    4.1177    2.0265    0.3801 O   0  0  0  0  0  0  0  0  0  0  0  0
    2.1710    0.7399   -0.3137 C   0  0  0  0  0  0  0  0  0  0  0  0
    1.6151   -0.4984   -0.7494 C   0  0  0  0  0  0  0  0  0  0  0  0
    0.1380   -0.6443   -1.0792 C   0  0  0  0  0  0  0  0  0  0  0  0
   -0.6023   -1.3683    0.0200 C   0  0  0  0  0  0  0  0  0  0  0  0
   -0.3277   -1.1445    1.1906 O   0  0  0  0  0  0  0  0  0  0  0  0
   -1.6731   -2.3774   -0.3151 C   0  0  0  0  0  0  0  0  0  0  0  0
   -2.9772   -2.1713    0.4754 C   0  0  0  0  0  0  0  0  0  0  0  0
   -3.6782   -0.8353    0.1759 C   0  0  0  0  0  0  0  0  0  0  0  0
   -3.0800    0.2904    0.9770 C   0  0  0  0  0  0  0  0  0  0  0  0
   -2.7340    1.4558    0.4125 C   0  0  0  0  0  0  0  0  0  0  0  0
   -2.1044    2.5630    1.2157 C   0  0  0  0  0  0  0  0  0  0  0  0
   -0.7813    2.9956    0.5903 C   0  0  0  0  0  0  0  0  0  0  0  0
    0.1112    1.8867    0.5159 O   0  0  0  0  0  0  0  0  0  0  0  0
    1.3435    1.9578   -0.1404 C   0  0  0  0  0  0  0  0  0  0  0  0
    1.7628    3.0651   -0.5774 O   0  0  0  0  0  0  0  0  0  0  0  0
    2.4635   -1.6256   -0.8834 C   0  0  0  0  0  0  0  0  0  0  0  0
    1.8363   -3.1956   -1.3962 Cl  0  0  0  0  0  0  0  0  0  0  0  0
    5.6540   -2.5852   -0.5655 H   0  0  0  0  0  0  0  0  0  0  0  0
    5.4317   -0.2234    0.0015 H   0  0  0  0  0  0  0  0  0  0  0  0
    5.1077    2.1106    0.5797 H   0  0  0  0  0  0  0  0  0  0  0  0
   -0.3516    0.3289   -1.2727 H   0  0  0  0  0  0  0  0  0  0  0  0
    0.0344   -1.1963   -2.0375 H   0  0  0  0  0  0  0  0  0  0  0  0
   -1.8998   -2.3588   -1.4030 H   0  0  0  0  0  0  0  0  0  0  0  0
   -1.2772   -3.3883   -0.0791 H   0  0  0  0  0  0  0  0  0  0  0  0
   -3.6711   -2.9925    0.1922 H   0  0  0  0  0  0  0  0  0  0  0  0
   -2.7865   -2.2799    1.5661 H   0  0  0  0  0  0  0  0  0  0  0  0
   -3.6473   -0.6253   -0.9163 H   0  0  0  0  0  0  0  0  0  0  0  0
   -4.7467   -0.9221    0.4672 H   0  0  0  0  0  0  0  0  0  0  0  0
   -2.9507    0.1490    2.0468 H   0  0  0  0  0  0  0  0  0  0  0  0
   -2.8997    1.6156   -0.6497 H   0  0  0  0  0  0  0  0  0  0  0  0
   -1.9221    2.2490    2.2672 H   0  0  0  0  0  0  0  0  0  0  0  0
   -2.7990    3.4295    1.2330 H   0  0  0  0  0  0  0  0  0  0  0  0
   -0.9695    3.3969   -0.4303 H   0  0  0  0  0  0  0  0  0  0  0  0
   -0.3258    3.7982    1.2097 H   0  0  0  0  0  0  0  0  0  0  0  0
  1  2  1  0
  2  3  2  0
  3  4  1  0
  4  5  1  0
  4  6  2  0
  6  7  1  0
  7  8  1  0
  8  9  1  0
  9 10  2  0
  9 11  1  0
 11 12  1  0
 12 13  1  0
 13 14  1  0
 14 15  2  0
 15 16  1  0
 16 17  1  0
 17 18  1  0
 18 19  1  0
 19 20  2  0
  7 21  2  0
 21 22  1  0
 21  2  1  0
 19  6  1  0
  1 23  1  0
  3 24  1  0
  5 25  1  0
  8 26  1  0
  8 27  1  0
 11 28  1  0
 11 29  1  0
 12 30  1  0
 12 31  1  0
 13 32  1  0
 13 33  1  0
 14 34  1  0
 15 35  1  0
 16 36  1  0
 16 37  1  0
 17 38  1  0
 17 39  1  0
M  END
$$$$
