
     RDKit          3D

 70 73  0  0  0  0  0  0  0  0999 V2000
   -7.3302   -1.4246   -0.2104 C   0  0  0  0  0  0  0  0  0  0  0  0
   -6.2711   -0.8906    0.5773 O   0  0  0  0  0  0  0  0  0  0  0  0
   -6.0517    0.4799    0.7978 C   0  0  0  0  0  0  0  0  0  0  0  0
   -4.9585    0.8790    1.5904 C   0  0  0  0  0  0  0  0  0  0  0  0
   -4.0144   -0.1532    2.1656 C   0  0  0  0  0  0  0  0  0  0  0  0
   -2.9384   -0.4442    1.2202 N   0  0  0  0  0  0  0  0  0  0  0  0
   -1.8732   -1.3438    1.5523 C   0  0  0  0  0  0  0  0  0  0  0  0
   -1.9413   -2.0402    2.6010 O   0  0  0  0  0  0  0  0  0  0  0  0
   -0.7037   -1.4843    0.6617 C   0  0  0  0  0  0  0  0  0  0  0  0
   -0.0218   -0.4778   -0.0234 C   0  0  0  0  0  0  0  0  0  0  0  0
   -0.3661    0.9880    0.0516 C   0  0  0  0  0  0  0  0  0  0  0  0
    0.9846   -1.0018   -0.7877 N   0  0  0  0  0  0  0  0  0  0  0  0
    1.9047   -0.1917   -1.6261 C   0  0  2  0  0  0  0  0  0  0  0  0
    2.2863   -0.8627   -2.9592 C   0  0  0  0  0  0  0  0  0  0  0  0
    3.1102    0.3505   -0.7955 C   0  0  0  0  0  0  0  0  0  0  0  0
    4.1480   -0.7184   -0.3585 C   0  0  0  0  0  0  0  0  0  0  0  0
    5.4944   -0.5556   -1.0818 C   0  0  0  0  0  0  0  0  0  0  0  0
    6.0998    0.7842   -0.8646 N   0  0  0  0  0  0  0  0  0  0  0  0
    7.0116    0.7889    0.3033 C   0  0  0  0  0  0  0  0  0  0  0  0
    7.9772    1.9806    0.2694 C   0  0  0  0  0  0  0  0  0  0  0  0
    8.9780    1.7858    1.2041 F   0  0  0  0  0  0  0  0  0  0  0  0
    8.5522    2.0906   -0.9841 F   0  0  0  0  0  0  0  0  0  0  0  0
    7.3162    3.1563    0.5751 F   0  0  0  0  0  0  0  0  0  0  0  0
    5.1085    1.8925   -0.8012 C   0  0  0  0  0  0  0  0  0  0  0  0
    3.7873    1.5479   -1.4991 C   0  0  0  0  0  0  0  0  0  0  0  0
    0.9515   -2.3453   -0.5505 C   0  0  0  0  0  0  0  0  0  0  0  0
    1.7527   -3.3688   -1.0876 C   0  0  0  0  0  0  0  0  0  0  0  0
    1.5017   -4.6962   -0.7017 C   0  0  0  0  0  0  0  0  0  0  0  0
    0.4611   -4.9963    0.1951 C   0  0  0  0  0  0  0  0  0  0  0  0
   -0.3389   -3.9710    0.7171 C   0  0  0  0  0  0  0  0  0  0  0  0
   -0.0626   -2.6571    0.3304 C   0  0  0  0  0  0  0  0  0  0  0  0
   -4.7163    2.2547    1.7754 C   0  0  0  0  0  0  0  0  0  0  0  0
   -3.7243    2.6424    2.4512 O   0  0  0  0  0  0  0  0  0  0  0  0
   -5.5507    3.1790    1.2244 N   0  0  0  0  0  0  0  0  0  0  0  0
   -6.6191    2.8165    0.4604 C   0  0  0  0  0  0  0  0  0  0  0  0
   -7.5355    3.8642   -0.0999 C   0  0  0  0  0  0  0  0  0  0  0  0
   -6.8925    1.4611    0.2455 C   0  0  0  0  0  0  0  0  0  0  0  0
   -8.3112   -1.1366    0.2230 H   0  0  0  0  0  0  0  0  0  0  0  0
   -7.2504   -1.0591   -1.2559 H   0  0  0  0  0  0  0  0  0  0  0  0
   -7.2556   -2.5313   -0.2147 H   0  0  0  0  0  0  0  0  0  0  0  0
   -4.5605   -1.0904    2.4065 H   0  0  0  0  0  0  0  0  0  0  0  0
   -3.5779    0.2158    3.1189 H   0  0  0  0  0  0  0  0  0  0  0  0
   -2.9561   -0.0138    0.2676 H   0  0  0  0  0  0  0  0  0  0  0  0
   -1.0222    1.2584   -0.8013 H   0  0  0  0  0  0  0  0  0  0  0  0
    0.5435    1.6185    0.0237 H   0  0  0  0  0  0  0  0  0  0  0  0
   -0.8845    1.2238    1.0036 H   0  0  0  0  0  0  0  0  0  0  0  0
    1.3291    0.7025   -1.9536 H   0  0  0  0  0  0  0  0  0  0  0  0
    1.4572   -1.5061   -3.3225 H   0  0  0  0  0  0  0  0  0  0  0  0
    3.2177   -1.4535   -2.8837 H   0  0  0  0  0  0  0  0  0  0  0  0
    2.4649   -0.0888   -3.7360 H   0  0  0  0  0  0  0  0  0  0  0  0
    2.6827    0.7575    0.1475 H   0  0  0  0  0  0  0  0  0  0  0  0
    3.7755   -1.7438   -0.5165 H   0  0  0  0  0  0  0  0  0  0  0  0
    4.3326   -0.6243    0.7344 H   0  0  0  0  0  0  0  0  0  0  0  0
    6.1769   -1.3761   -0.7690 H   0  0  0  0  0  0  0  0  0  0  0  0
    5.3448   -0.7006   -2.1723 H   0  0  0  0  0  0  0  0  0  0  0  0
    6.4395    0.7848    1.2579 H   0  0  0  0  0  0  0  0  0  0  0  0
    7.6457   -0.1253    0.2964 H   0  0  0  0  0  0  0  0  0  0  0  0
    5.5412    2.7853   -1.3008 H   0  0  0  0  0  0  0  0  0  0  0  0
    4.8760    2.1734    0.2514 H   0  0  0  0  0  0  0  0  0  0  0  0
    3.1121    2.4310   -1.4671 H   0  0  0  0  0  0  0  0  0  0  0  0
    3.9967    1.3204   -2.5661 H   0  0  0  0  0  0  0  0  0  0  0  0
    2.5510   -3.1895   -1.7820 H   0  0  0  0  0  0  0  0  0  0  0  0
    2.1105   -5.4962   -1.1029 H   0  0  0  0  0  0  0  0  0  0  0  0
    0.2727   -6.0237    0.4782 H   0  0  0  0  0  0  0  0  0  0  0  0
   -1.1503   -4.2039    1.3933 H   0  0  0  0  0  0  0  0  0  0  0  0
   -5.3588    4.1935    1.3908 H   0  0  0  0  0  0  0  0  0  0  0  0
   -8.3742    4.0363    0.6063 H   0  0  0  0  0  0  0  0  0  0  0  0
   -6.9889    4.8186   -0.2526 H   0  0  0  0  0  0  0  0  0  0  0  0
   -7.9452    3.5418   -1.0808 H   0  0  0  0  0  0  0  0  0  0  0  0
   -7.7501    1.1831   -0.3526 H   0  0  0  0  0  0  0  0  0  0  0  0
  1  2  1  0
  2  3  1  0
  3  4  2  0
  4  5  1  0
  5  6  1  0
  6  7  1  0
  7  8  2  0
  7  9  1  0
  9 10  2  0
 10 11  1  0
 10 12  1  0
 12 13  1  0
 13 14  1  0
 13 15  1  0
 15 16  1  0
 16 17  1  0
 17 18  1  0
 18 19  1  0
 19 20  1  0
 20 21  1  0
 20 22  1  0
 20 23  1  0
 18 24  1  0
 24 25  1  0
 12 26  1  0
 26 27  2  0
 27 28  1  0
 28 29  2  0
 29 30  1  0
 30 31  2  0
  4 32  1  0
 32 33  2  0
 32 34  1  0
 34 35  1  0
 35 36  1  0
 35 37  2  0
 37  3  1  0
 31  9  1  0
 25 15  1  0
 31 26  1  0
  1 38  1  0
  1 39  1  0
  1 40  1  0
  5 41  1  0
  5 42  1  0
  6 43  1  0
 11 44  1  0
 11 45  1  0
 11 46  1  0
 13 47  1  6
 14 48  1  0
 14 49  1  0
 14 50  1  0
 15 51  1  0
 16 52  1  0
 16 53  1  0
 17 54  1  0
 17 55  1  0
 19 56  1  0
 19 57  1  0
 24 58  1  0
 24 59  1  0
 25 60  1  0
 25 61  1  0
 27 62  1  0
 28 63  1  0
 29 64  1  0
 30 65  1  0
 34 66  1  0
 36 67  1  0
 36 68  1  0
 36 69  1  0
 37 70  1  0
M  END
$$$$
