
     RDKit          3D

 44 46  0  0  0  0  0  0  0  0999 V2000
    5.7966   -0.5189    1.8906 C   0  0  0  0  0  0  0  0  0  0  0  0
    5.9306    0.6197    0.8708 C   0  0  0  0  0  0  0  0  0  0  0  0
    7.3951    0.7867    0.4493 C   0  0  0  0  0  0  0  0  0  0  0  0
    5.0442    0.3676   -0.3580 C   0  0  0  0  0  0  0  0  0  0  0  0
    3.6719    0.3406    0.0297 O   0  0  0  0  0  0  0  0  0  0  0  0
    2.5995    0.1244   -0.8495 C   0  0  0  0  0  0  0  0  0  0  0  0
    1.2975    0.1149   -0.3252 C   0  0  0  0  0  0  0  0  0  0  0  0
    1.1200    0.3600    1.0326 O   0  0  0  0  0  1  0  0  0  0  0  0
    0.1876   -0.1095   -1.1688 C   0  0  0  0  0  0  0  0  0  0  0  0
    0.4023   -0.2857   -2.5457 C   0  0  0  0  0  0  0  0  0  0  0  0
    1.6955   -0.2723   -3.0691 C   0  0  0  0  0  0  0  0  0  0  0  0
    2.7913   -0.0748   -2.2290 C   0  0  0  0  0  0  0  0  0  0  0  0
   -1.1986   -0.1436   -0.6469 C   0  0  0  0  0  0  0  0  0  0  0  0
   -2.2704    0.2463   -1.3900 N   0  0  0  0  0  0  0  0  0  0  0  0
   -3.3077    0.0243   -0.5640 C   0  0  0  0  0  0  0  0  0  0  0  0
   -4.6587    0.2464   -0.8156 C   0  0  0  0  0  0  0  0  0  0  0  0
   -5.5884   -0.0750    0.2041 C   0  0  0  0  0  0  0  0  0  0  0  0
   -5.1169   -0.6075    1.4353 C   0  0  0  0  0  0  0  0  0  0  0  0
   -3.7425   -0.8203    1.6491 C   0  0  0  0  0  0  0  0  0  0  0  0
   -2.8705   -0.4849    0.6188 C   0  0  0  0  0  0  0  0  0  0  0  0
   -1.5379   -0.6033    0.5861 N   0  0  0  0  0  0  0  0  0  0  0  0
   -7.0416    0.1462   -0.0023 C   0  0  0  0  0  0  0  0  0  0  0  0
   -7.8559    0.5975    1.0867 N   0  0  0  0  0  0  0  0  0  0  0  0
   -7.5880   -0.0718   -1.1619 N   0  0  0  0  0  4  0  0  0  0  0  0
    6.1067   -1.4869    1.4412 H   0  0  0  0  0  0  0  0  0  0  0  0
    6.4338   -0.3153    2.7775 H   0  0  0  0  0  0  0  0  0  0  0  0
    4.7452   -0.6051    2.2383 H   0  0  0  0  0  0  0  0  0  0  0  0
    5.6007    1.5653    1.3556 H   0  0  0  0  0  0  0  0  0  0  0  0
    7.7687   -0.1359   -0.0453 H   0  0  0  0  0  0  0  0  0  0  0  0
    7.4963    1.6384   -0.2568 H   0  0  0  0  0  0  0  0  0  0  0  0
    8.0279    0.9994    1.3373 H   0  0  0  0  0  0  0  0  0  0  0  0
    5.1958    1.1861   -1.0955 H   0  0  0  0  0  0  0  0  0  0  0  0
    5.3201   -0.6013   -0.8303 H   0  0  0  0  0  0  0  0  0  0  0  0
   -0.4316   -0.4513   -3.2169 H   0  0  0  0  0  0  0  0  0  0  0  0
    1.8491   -0.4191   -4.1306 H   0  0  0  0  0  0  0  0  0  0  0  0
    3.7817   -0.0714   -2.6630 H   0  0  0  0  0  0  0  0  0  0  0  0
   -4.9723    0.6698   -1.7613 H   0  0  0  0  0  0  0  0  0  0  0  0
   -5.8121   -0.8760    2.2204 H   0  0  0  0  0  0  0  0  0  0  0  0
   -3.3781   -1.2323    2.5812 H   0  0  0  0  0  0  0  0  0  0  0  0
   -0.9228   -1.0051    1.3277 H   0  0  0  0  0  0  0  0  0  0  0  0
   -7.4312    0.8678    2.0012 H   0  0  0  0  0  0  0  0  0  0  0  0
   -8.8871    0.7140    0.9700 H   0  0  0  0  0  0  0  0  0  0  0  0
   -7.0361   -0.4352   -1.9706 H   0  0  0  0  0  0  0  0  0  0  0  0
   -8.6099    0.0871   -1.3086 H   0  0  0  0  0  0  0  0  0  0  0  0
  1  2  1  0
  2  3  1  0
  2  4  1  0
  4  5  1  0
  5  6  1  0
  6  7  2  0
  7  8  1  0
  7  9  1  0
  9 10  2  0
 10 11  1  0
 11 12  2  0
  9 13  1  0
 13 14  2  0
 14 15  1  0
 15 16  2  0
 16 17  1  0
 17 18  2  0
 18 19  1  0
 19 20  2  0
 20 21  1  0
 17 22  1  0
 22 23  1  0
 22 24  2  3
 12  6  1  0
 21 13  1  0
 20 15  1  0
  1 25  1  0
  1 26  1  0
  1 27  1  0
  2 28  1  0
  3 29  1  0
  3 30  1  0
  3 31  1  0
  4 32  1  0
  4 33  1  0
 10 34  1  0
 11 35  1  0
 12 36  1  0
 16 37  1  0
 18 38  1  0
 19 39  1  0
 21 40  1  0
 23 41  1  0
 23 42  1  0
 24 43  1  0
 24 44  1  0
M  CHG  2   8  -1  24   1
M  END
$$$$
