
     RDKit          3D

 22 23  0  0  0  0  0  0  0  0999 V2000
   -4.4358    0.5111    0.5850 C   0  0  0  0  0  0  0  0  0  0  0  0
   -4.0205   -1.1711    0.0316 S   0  0  0  0  0  0  0  0  0  0  0  0
   -2.3972   -0.6962   -0.5547 C   0  0  0  0  0  0  0  0  0  0  0  0
   -2.1439   -0.2851   -1.8095 N   0  0  0  0  0  0  0  0  0  0  0  0
   -0.8468   -0.0240   -1.8665 N   0  0  0  0  0  0  0  0  0  0  0  0
   -0.3338   -0.2816   -0.6450 C   0  0  0  0  0  0  0  0  0  0  0  0
   -1.2899   -0.7090    0.2045 N   0  0  0  0  0  0  0  0  0  0  0  0
    1.0997   -0.1086   -0.3035 C   0  0  0  0  0  0  0  0  0  0  0  0
    2.0036    0.3436   -1.2833 C   0  0  0  0  0  0  0  0  0  0  0  0
    3.3574    0.5121   -0.9778 C   0  0  0  0  0  0  0  0  0  0  0  0
    3.8265    0.2320    0.3081 C   0  0  0  0  0  0  0  0  0  0  0  0
    5.5255    0.4442    0.6894 Cl  0  0  0  0  0  0  0  0  0  0  0  0
    2.9395   -0.2174    1.2898 C   0  0  0  0  0  0  0  0  0  0  0  0
    1.5844   -0.3875    0.9890 C   0  0  0  0  0  0  0  0  0  0  0  0
   -3.7148    0.8459    1.3600 H   0  0  0  0  0  0  0  0  0  0  0  0
   -4.4134    1.2119   -0.2757 H   0  0  0  0  0  0  0  0  0  0  0  0
   -5.4561    0.5082    1.0202 H   0  0  0  0  0  0  0  0  0  0  0  0
   -1.2164   -0.9850    1.2077 H   0  0  0  0  0  0  0  0  0  0  0  0
    1.6654    0.5676   -2.2872 H   0  0  0  0  0  0  0  0  0  0  0  0
    4.0405    0.8606   -1.7420 H   0  0  0  0  0  0  0  0  0  0  0  0
    3.2987   -0.4355    2.2876 H   0  0  0  0  0  0  0  0  0  0  0  0
    0.9274   -0.7362    1.7725 H   0  0  0  0  0  0  0  0  0  0  0  0
  1  2  1  0
  2  3  1  0
  3  4  2  0
  4  5  1  0
  5  6  2  0
  6  7  1  0
  6  8  1  0
  8  9  2  0
  9 10  1  0
 10 11  2  0
 11 12  1  0
 11 13  1  0
 13 14  2  0
  7  3  1  0
 14  8  1  0
  1 15  1  0
  1 16  1  0
  1 17  1  0
  7 18  1  0
  9 19  1  0
 10 20  1  0
 13 21  1  0
 14 22  1  0
M  END
$$$$
