
     RDKit          3D

 38 39  0  0  0  0  0  0  0  0999 V2000
   -3.6891   -1.1725   -1.6591 C   0  0  0  0  0  0  0  0  0  0  0  0
   -3.6894   -1.1287   -0.1189 C   0  0  0  0  0  0  0  0  0  0  0  0
   -4.0715   -2.5172    0.4163 C   0  0  0  0  0  0  0  0  0  0  0  0
   -4.7134   -0.0985    0.3951 C   0  0  0  0  0  0  0  0  0  0  0  0
   -2.3766   -0.8287    0.3787 O   0  0  0  0  0  0  0  0  0  0  0  0
   -1.6452    0.3442    0.1388 C   0  0  0  0  0  0  0  0  0  0  0  0
   -2.1115    1.2628   -0.5883 O   0  0  0  0  0  0  0  0  0  0  0  0
   -0.3385    0.4726    0.7119 N   0  0  0  0  0  0  0  0  0  0  0  0
    0.4357    1.6826    0.6520 C   0  0  0  0  0  0  0  0  0  0  0  0
    1.8258    1.6563    0.3774 C   0  0  0  0  0  0  0  0  0  0  0  0
    2.5345    2.8193    0.4308 N   0  0  0  0  0  0  0  0  0  0  0  0
    1.9602    4.0119    0.7340 C   0  0  0  0  0  0  0  0  0  0  0  0
    0.5958    4.0795    1.0032 C   0  0  0  0  0  0  0  0  0  0  0  0
   -0.1647    2.9124    0.9677 C   0  0  0  0  0  0  0  0  0  0  0  0
    2.5404    0.4178   -0.0140 C   0  0  0  0  0  0  0  0  0  0  0  0
    1.9046   -0.5390   -0.5338 O   0  0  0  0  0  0  0  0  0  0  0  0
    3.9646    0.3240    0.1631 N   0  0  0  0  0  0  0  0  0  0  0  0
    4.7482   -0.8049   -0.2466 C   0  0  0  0  0  0  0  0  0  0  0  0
    4.2458   -1.8960   -0.8651 N   0  0  0  0  0  0  0  0  0  0  0  0
    5.2165   -2.8076   -1.1399 C   0  0  0  0  0  0  0  0  0  0  0  0
    6.4981   -2.4442   -0.7411 C   0  0  0  0  0  0  0  0  0  0  0  0
    6.4087   -0.9270   -0.0191 S   0  0  0  0  0  0  0  0  0  0  0  0
   -4.6699   -1.5311   -2.0398 H   0  0  0  0  0  0  0  0  0  0  0  0
   -2.8951   -1.8594   -2.0227 H   0  0  0  0  0  0  0  0  0  0  0  0
   -3.5074   -0.1684   -2.0932 H   0  0  0  0  0  0  0  0  0  0  0  0
   -5.0841   -2.8150    0.0673 H   0  0  0  0  0  0  0  0  0  0  0  0
   -3.3399   -3.2785    0.0695 H   0  0  0  0  0  0  0  0  0  0  0  0
   -4.0666   -2.5164    1.5277 H   0  0  0  0  0  0  0  0  0  0  0  0
   -5.7459   -0.4015    0.1166 H   0  0  0  0  0  0  0  0  0  0  0  0
   -4.6537   -0.0184    1.5017 H   0  0  0  0  0  0  0  0  0  0  0  0
   -4.5297    0.9059   -0.0375 H   0  0  0  0  0  0  0  0  0  0  0  0
    0.0705   -0.3645    1.1843 H   0  0  0  0  0  0  0  0  0  0  0  0
    2.5651    4.9082    0.7646 H   0  0  0  0  0  0  0  0  0  0  0  0
    0.1340    5.0263    1.2519 H   0  0  0  0  0  0  0  0  0  0  0  0
   -1.2167    2.9629    1.2176 H   0  0  0  0  0  0  0  0  0  0  0  0
    4.4680    1.1109    0.6304 H   0  0  0  0  0  0  0  0  0  0  0  0
    4.9987   -3.7448   -1.6337 H   0  0  0  0  0  0  0  0  0  0  0  0
    7.3940   -3.0353   -0.8735 H   0  0  0  0  0  0  0  0  0  0  0  0
  1  2  1  0
  2  3  1  0
  2  4  1  0
  2  5  1  0
  5  6  1  0
  6  7  2  0
  6  8  1  0
  8  9  1  0
  9 10  2  0
 10 11  1  0
 11 12  2  0
 12 13  1  0
 13 14  2  0
 10 15  1  0
 15 16  2  0
 15 17  1  0
 17 18  1  0
 18 19  2  0
 19 20  1  0
 20 21  2  0
 21 22  1  0
 14  9  1  0
 22 18  1  0
  1 23  1  0
  1 24  1  0
  1 25  1  0
  3 26  1  0
  3 27  1  0
  3 28  1  0
  4 29  1  0
  4 30  1  0
  4 31  1  0
  8 32  1  0
 12 33  1  0
 13 34  1  0
 14 35  1  0
 17 36  1  0
 20 37  1  0
 21 38  1  0
M  END
$$$$
