
     RDKit          3D

 49 50  0  0  0  0  0  0  0  0999 V2000
    4.8373    4.9464   -0.7237 C   0  0  0  0  0  0  0  0  0  0  0  0
    4.3338    3.6120   -0.2791 C   0  0  0  0  0  0  0  0  0  0  0  0
    4.6164    3.1999    0.8782 O   0  0  0  0  0  0  0  0  0  0  0  0
    3.6180    2.7754   -1.2009 N   0  0  0  0  0  0  0  0  0  0  0  0
    2.9328    1.5666   -0.8299 C   0  0  0  0  0  0  0  0  0  0  0  0
    2.2968    1.4354    0.4171 C   0  0  0  0  0  0  0  0  0  0  0  0
    1.6166    0.2586    0.7416 C   0  0  0  0  0  0  0  0  0  0  0  0
    1.5400   -0.7952   -0.1752 C   0  0  0  0  0  0  0  0  0  0  0  0
    0.8290   -1.9450    0.1932 O   0  0  0  0  0  0  0  0  0  0  0  0
    0.5231   -3.0284   -0.6852 C   0  0  0  0  0  0  0  0  0  0  0  0
   -0.4898   -3.9854   -0.0163 C   0  0  2  0  0  0  0  0  0  0  0  0
    0.1766   -4.7168    1.1693 C   0  0  0  0  0  0  0  0  0  0  0  0
   -0.9392   -4.9348   -0.9531 O   0  0  0  0  0  0  0  0  0  0  0  0
   -1.6882   -3.1767    0.4407 C   0  0  0  0  0  0  0  0  0  0  0  0
   -2.0031   -3.1198    1.6619 O   0  0  0  0  0  0  0  0  0  0  0  0
   -2.4528   -2.4366   -0.5213 N   0  0  0  0  0  0  0  0  0  0  0  0
   -2.9333   -1.1013   -0.2884 C   0  0  0  0  0  0  0  0  0  0  0  0
   -2.3100   -0.2516    0.6416 C   0  0  0  0  0  0  0  0  0  0  0  0
   -2.7511    1.0731    0.8303 C   0  0  0  0  0  0  0  0  0  0  0  0
   -3.8069    1.5664    0.0177 C   0  0  0  0  0  0  0  0  0  0  0  0
   -4.4293    0.7038   -0.9001 C   0  0  0  0  0  0  0  0  0  0  0  0
   -3.9927   -0.6108   -1.0559 C   0  0  0  0  0  0  0  0  0  0  0  0
   -4.2470    2.9332    0.0918 N   0  0  0  0  0  4  0  0  0  0  0  0
   -3.3302    3.9584    0.1112 O   0  0  0  0  0  1  0  0  0  0  0  0
   -5.4543    3.2099   -0.0649 O   0  0  0  0  0  0  0  0  0  0  0  0
   -2.0605    1.9389    1.8659 C   0  0  0  0  0  0  0  0  0  0  0  0
   -2.9818    2.7233    2.5370 F   0  0  0  0  0  0  0  0  0  0  0  0
   -1.4057    1.1665    2.8105 F   0  0  0  0  0  0  0  0  0  0  0  0
   -1.1300    2.7497    1.2425 F   0  0  0  0  0  0  0  0  0  0  0  0
    2.1620   -0.6611   -1.4296 C   0  0  0  0  0  0  0  0  0  0  0  0
    2.8448    0.5150   -1.7539 C   0  0  0  0  0  0  0  0  0  0  0  0
    5.0251    5.6006    0.1540 H   0  0  0  0  0  0  0  0  0  0  0  0
    4.0851    5.4359   -1.3772 H   0  0  0  0  0  0  0  0  0  0  0  0
    5.7829    4.8148   -1.2895 H   0  0  0  0  0  0  0  0  0  0  0  0
    3.6669    3.0208   -2.2159 H   0  0  0  0  0  0  0  0  0  0  0  0
    2.2996    2.2484    1.1304 H   0  0  0  0  0  0  0  0  0  0  0  0
    1.1291    0.1719    1.7045 H   0  0  0  0  0  0  0  0  0  0  0  0
    1.4579   -3.5712   -0.9462 H   0  0  0  0  0  0  0  0  0  0  0  0
    0.0783   -2.6300   -1.6241 H   0  0  0  0  0  0  0  0  0  0  0  0
   -0.5412   -5.4252    1.6359 H   0  0  0  0  0  0  0  0  0  0  0  0
    1.0585   -5.2973    0.8231 H   0  0  0  0  0  0  0  0  0  0  0  0
    0.5177   -3.9930    1.9408 H   0  0  0  0  0  0  0  0  0  0  0  0
   -0.1473   -5.4298   -1.2921 H   0  0  0  0  0  0  0  0  0  0  0  0
   -2.5976   -2.8598   -1.4658 H   0  0  0  0  0  0  0  0  0  0  0  0
   -1.4624   -0.6168    1.2049 H   0  0  0  0  0  0  0  0  0  0  0  0
   -5.2382    1.0629   -1.5241 H   0  0  0  0  0  0  0  0  0  0  0  0
   -4.4750   -1.2473   -1.7873 H   0  0  0  0  0  0  0  0  0  0  0  0
    2.1243   -1.4583   -2.1593 H   0  0  0  0  0  0  0  0  0  0  0  0
    3.3152    0.6044   -2.7252 H   0  0  0  0  0  0  0  0  0  0  0  0
  1  2  1  0
  2  3  2  0
  2  4  1  0
  4  5  1  0
  5  6  2  0
  6  7  1  0
  7  8  2  0
  8  9  1  0
  9 10  1  0
 10 11  1  0
 11 12  1  0
 11 13  1  6
 11 14  1  0
 14 15  2  0
 14 16  1  0
 16 17  1  0
 17 18  2  0
 18 19  1  0
 19 20  2  0
 20 21  1  0
 21 22  2  0
 20 23  1  0
 23 24  1  0
 23 25  2  0
 19 26  1  0
 26 27  1  0
 26 28  1  0
 26 29  1  0
  8 30  1  0
 30 31  2  0
 31  5  1  0
 22 17  1  0
  1 32  1  0
  1 33  1  0
  1 34  1  0
  4 35  1  0
  6 36  1  0
  7 37  1  0
 10 38  1  0
 10 39  1  0
 12 40  1  0
 12 41  1  0
 12 42  1  0
 13 43  1  0
 16 44  1  0
 18 45  1  0
 21 46  1  0
 22 47  1  0
 30 48  1  0
 31 49  1  0
M  CHG  2  23   1  24  -1
M  END
$$$$
