
     RDKit          3D

 59 61  0  0  0  0  0  0  0  0999 V2000
    1.0283   -0.3889   -0.1928 C   0  0  1  0  0  0  0  0  0  0  0  0
    1.9557    0.2396   -1.2553 C   0  0  0  0  0  0  0  0  0  0  0  0
    2.9038   -0.8035   -1.8663 C   0  0  0  0  0  0  0  0  0  0  0  0
    4.1796   -1.0505   -1.0760 C   0  0  0  0  0  0  0  0  0  0  0  0
    5.3158   -1.4347   -1.8147 C   0  0  0  0  0  0  0  0  0  0  0  0
    6.5251   -1.7165   -1.1818 C   0  0  0  0  0  0  0  0  0  0  0  0
    6.6212   -1.6376    0.2031 C   0  0  0  0  0  0  0  0  0  0  0  0
    5.5078   -1.2799    0.9612 C   0  0  0  0  0  0  0  0  0  0  0  0
    4.2736   -0.9848    0.3483 C   0  0  0  0  0  0  0  0  0  0  0  0
    3.1482   -0.6260    1.1829 N   0  0  0  0  0  0  0  0  0  0  0  0
    3.3042    0.2678    2.3385 C   0  0  0  0  0  0  0  0  0  0  0  0
    3.1244   -0.4847    3.6201 C   0  0  0  0  0  0  0  0  0  0  0  0
    1.8570   -0.5991    4.1825 O   0  0  0  0  0  0  0  0  0  0  0  0
    4.1108   -1.0373    4.1755 O   0  0  0  0  0  0  0  0  0  0  0  0
    1.8335   -1.0881    0.8573 C   0  0  0  0  0  0  0  0  0  0  0  0
    1.3291   -2.0471    1.5003 O   0  0  0  0  0  0  0  0  0  0  0  0
    0.1799    0.6274    0.4616 N   0  0  0  0  0  0  0  0  0  0  0  0
   -1.0750    0.8895   -0.2740 C   0  0  1  0  0  0  0  0  0  0  0  0
   -2.1586   -0.1147    0.1720 C   0  0  0  0  0  0  0  0  0  0  0  0
   -3.4220   -0.0314   -0.6975 C   0  0  0  0  0  0  0  0  0  0  0  0
   -4.4341   -1.0544   -0.2567 C   0  0  0  0  0  0  0  0  0  0  0  0
   -5.3649   -0.7428    0.7485 C   0  0  0  0  0  0  0  0  0  0  0  0
   -6.2825   -1.7052    1.1812 C   0  0  0  0  0  0  0  0  0  0  0  0
   -6.2708   -2.9859    0.6217 C   0  0  0  0  0  0  0  0  0  0  0  0
   -5.3386   -3.3077   -0.3687 C   0  0  0  0  0  0  0  0  0  0  0  0
   -4.4192   -2.3482   -0.8044 C   0  0  0  0  0  0  0  0  0  0  0  0
   -1.5445    2.2995   -0.0197 C   0  0  0  0  0  0  0  0  0  0  0  0
   -1.6701    2.7201    1.1637 O   0  0  0  0  0  0  0  0  0  0  0  0
   -1.8624    3.1222   -1.1039 O   0  0  0  0  0  0  0  0  0  0  0  0
   -2.3403    4.4532   -0.9426 C   0  0  0  0  0  0  0  0  0  0  0  0
   -2.5983    5.0701   -2.3077 C   0  0  0  0  0  0  0  0  0  0  0  0
    0.4008   -1.1596   -0.6950 H   0  0  0  0  0  0  0  0  0  0  0  0
    1.3264    0.6598   -2.0689 H   0  0  0  0  0  0  0  0  0  0  0  0
    2.5439    1.0838   -0.8316 H   0  0  0  0  0  0  0  0  0  0  0  0
    3.1745   -0.4360   -2.8812 H   0  0  0  0  0  0  0  0  0  0  0  0
    2.3756   -1.7706   -2.0131 H   0  0  0  0  0  0  0  0  0  0  0  0
    5.2669   -1.5181   -2.8938 H   0  0  0  0  0  0  0  0  0  0  0  0
    7.3885   -2.0041   -1.7678 H   0  0  0  0  0  0  0  0  0  0  0  0
    7.5595   -1.8637    0.6932 H   0  0  0  0  0  0  0  0  0  0  0  0
    5.6094   -1.2516    2.0367 H   0  0  0  0  0  0  0  0  0  0  0  0
    2.5471    1.0792    2.2850 H   0  0  0  0  0  0  0  0  0  0  0  0
    4.2984    0.7649    2.3271 H   0  0  0  0  0  0  0  0  0  0  0  0
    1.7147   -1.1160    5.0420 H   0  0  0  0  0  0  0  0  0  0  0  0
    0.7319    1.5104    0.5823 H   0  0  0  0  0  0  0  0  0  0  0  0
   -0.9114    0.7811   -1.3701 H   0  0  0  0  0  0  0  0  0  0  0  0
   -2.4233    0.0676    1.2375 H   0  0  0  0  0  0  0  0  0  0  0  0
   -1.7565   -1.1484    0.1055 H   0  0  0  0  0  0  0  0  0  0  0  0
   -3.8681    0.9846   -0.6278 H   0  0  0  0  0  0  0  0  0  0  0  0
   -3.1551   -0.2023   -1.7636 H   0  0  0  0  0  0  0  0  0  0  0  0
   -5.3779    0.2430    1.1969 H   0  0  0  0  0  0  0  0  0  0  0  0
   -7.0004   -1.4592    1.9530 H   0  0  0  0  0  0  0  0  0  0  0  0
   -6.9808   -3.7301    0.9587 H   0  0  0  0  0  0  0  0  0  0  0  0
   -5.3259   -4.3019   -0.7964 H   0  0  0  0  0  0  0  0  0  0  0  0
   -3.6956   -2.6131   -1.5654 H   0  0  0  0  0  0  0  0  0  0  0  0
   -3.2867    4.4439   -0.3593 H   0  0  0  0  0  0  0  0  0  0  0  0
   -1.5831    5.0610   -0.4014 H   0  0  0  0  0  0  0  0  0  0  0  0
   -1.6578    5.0917   -2.8980 H   0  0  0  0  0  0  0  0  0  0  0  0
   -3.3593    4.4745   -2.8552 H   0  0  0  0  0  0  0  0  0  0  0  0
   -2.9719    6.1086   -2.1855 H   0  0  0  0  0  0  0  0  0  0  0  0
  1  2  1  0
  2  3  1  0
  3  4  1  0
  4  5  2  0
  5  6  1  0
  6  7  2  0
  7  8  1  0
  8  9  2  0
  9 10  1  0
 10 11  1  0
 11 12  1  0
 12 13  1  0
 12 14  2  0
 10 15  1  0
 15 16  2  0
  1 17  1  0
 17 18  1  0
 18 19  1  0
 19 20  1  0
 20 21  1  0
 21 22  2  0
 22 23  1  0
 23 24  2  0
 24 25  1  0
 25 26  2  0
 18 27  1  0
 27 28  2  0
 27 29  1  0
 29 30  1  0
 30 31  1  0
 15  1  1  0
 26 21  1  0
  9  4  1  0
  1 32  1  6
  2 33  1  0
  2 34  1  0
  3 35  1  0
  3 36  1  0
  5 37  1  0
  6 38  1  0
  7 39  1  0
  8 40  1  0
 11 41  1  0
 11 42  1  0
 13 43  1  0
 17 44  1  0
 18 45  1  6
 19 46  1  0
 19 47  1  0
 20 48  1  0
 20 49  1  0
 22 50  1  0
 23 51  1  0
 24 52  1  0
 25 53  1  0
 26 54  1  0
 30 55  1  0
 30 56  1  0
 31 57  1  0
 31 58  1  0
 31 59  1  0
M  END
$$$$
