
     RDKit          3D

 24 25  0  0  0  0  0  0  0  0999 V2000
   -2.9252   -1.1797   -0.6082 C   0  0  2  0  0  0  0  0  0  0  0  0
   -3.8622   -2.0257    0.0025 O   0  0  0  0  0  0  0  0  0  0  0  0
   -1.5989   -1.6177   -0.2918 O   0  0  0  0  0  0  0  0  0  0  0  0
   -0.5002   -0.7531   -0.2445 C   0  0  0  0  0  0  0  0  0  0  0  0
   -0.6988    0.6333   -0.1508 C   0  0  0  0  0  0  0  0  0  0  0  0
    0.4131    1.4882   -0.0993 C   0  0  0  0  0  0  0  0  0  0  0  0
    1.7082    0.9626   -0.1366 C   0  0  0  0  0  0  0  0  0  0  0  0
    1.9083   -0.4290   -0.2177 C   0  0  0  0  0  0  0  0  0  0  0  0
    3.1872   -1.0046   -0.2511 O   0  0  0  0  0  0  0  0  0  0  0  0
    4.4030   -0.2647   -0.2080 C   0  0  0  0  0  0  0  0  0  0  0  0
    0.7960   -1.2774   -0.2670 C   0  0  0  0  0  0  0  0  0  0  0  0
   -2.0385    1.1460   -0.0657 N   0  0  0  0  0  0  0  0  0  0  0  0
   -2.2607    2.4690    0.1374 O   0  0  0  0  0  0  0  0  0  0  0  0
   -3.1530    0.2539   -0.2008 C   0  0  0  0  0  0  0  0  0  0  0  0
   -4.3279    0.6869   -0.0547 O   0  0  0  0  0  0  0  0  0  0  0  0
   -3.0592   -1.2433   -1.7085 H   0  0  0  0  0  0  0  0  0  0  0  0
   -3.6479   -2.0398    0.9722 H   0  0  0  0  0  0  0  0  0  0  0  0
    0.2819    2.5601   -0.0255 H   0  0  0  0  0  0  0  0  0  0  0  0
    2.5458    1.6454   -0.0957 H   0  0  0  0  0  0  0  0  0  0  0  0
    4.4644    0.3140    0.7378 H   0  0  0  0  0  0  0  0  0  0  0  0
    5.2582   -0.9699   -0.2492 H   0  0  0  0  0  0  0  0  0  0  0  0
    4.4643    0.4200   -1.0801 H   0  0  0  0  0  0  0  0  0  0  0  0
    0.9394   -2.3489   -0.3292 H   0  0  0  0  0  0  0  0  0  0  0  0
   -2.2974    2.5743    1.1228 H   0  0  0  0  0  0  0  0  0  0  0  0
  1  2  1  0
  1  3  1  0
  3  4  1  0
  4  5  2  0
  5  6  1  0
  6  7  2  0
  7  8  1  0
  8  9  1  0
  9 10  1  0
  8 11  2  0
  5 12  1  0
 12 13  1  0
 12 14  1  0
 14 15  2  0
 14  1  1  0
 11  4  1  0
  1 16  1  6
  2 17  1  0
  6 18  1  0
  7 19  1  0
 10 20  1  0
 10 21  1  0
 10 22  1  0
 11 23  1  0
 13 24  1  0
M  END
$$$$
