
     RDKit          3D

 39 41  0  0  0  0  0  0  0  0999 V2000
   -1.9152   -1.7546    0.2951 C   0  0  0  0  0  0  0  0  0  0  0  0
   -2.2376   -0.3021    0.0322 C   0  0  0  0  0  0  0  0  0  0  0  0
   -3.5738    0.0968   -0.1950 C   0  0  0  0  0  0  0  0  0  0  0  0
   -4.5862   -0.8813   -0.1887 O   0  0  0  0  0  0  0  0  0  0  0  0
   -5.9944   -0.6439   -0.2374 C   0  0  0  0  0  0  0  0  0  0  0  0
   -6.5365   -0.2672    1.1411 C   0  0  0  0  0  0  0  0  0  0  0  0
   -6.2198   -1.2570    2.0540 F   0  0  0  0  0  0  0  0  0  0  0  0
   -5.9967    0.9313    1.5681 F   0  0  0  0  0  0  0  0  0  0  0  0
   -7.9118   -0.1398    1.0750 F   0  0  0  0  0  0  0  0  0  0  0  0
   -3.8522    1.4543   -0.4336 C   0  0  0  0  0  0  0  0  0  0  0  0
   -2.8147    2.3809   -0.4450 C   0  0  0  0  0  0  0  0  0  0  0  0
   -1.5368    1.9747   -0.2493 N   0  0  0  0  0  0  0  0  0  0  0  0
   -1.2083    0.6706   -0.0367 C   0  0  0  0  0  0  0  0  0  0  0  0
    0.2404    0.3014    0.1879 C   0  0  0  0  0  0  0  0  0  0  0  0
    1.3866    1.5658   -0.4194 S   0  0  0  0  0  4  0  0  0  0  0  0
    1.3447    2.6671    0.6318 O   0  0  0  0  0  0  0  0  0  0  0  0
    2.9908    0.8405   -0.2033 C   0  0  0  0  0  0  0  0  0  0  0  0
    3.4436    0.3876    0.9957 N   0  0  0  0  0  0  0  0  0  0  0  0
    4.6699   -0.0726    0.6894 C   0  0  0  0  0  0  0  0  0  0  0  0
    5.5996   -0.6575    1.5461 C   0  0  0  0  0  0  0  0  0  0  0  0
    6.8289   -1.0678    0.9949 C   0  0  0  0  0  0  0  0  0  0  0  0
    7.0931   -0.8849   -0.3826 C   0  0  0  0  0  0  0  0  0  0  0  0
    6.1302   -0.2901   -1.2200 C   0  0  0  0  0  0  0  0  0  0  0  0
    4.9271    0.1028   -0.6381 C   0  0  0  0  0  0  0  0  0  0  0  0
    3.8707    0.6816   -1.2206 N   0  0  0  0  0  0  0  0  0  0  0  0
   -1.5197   -2.2199   -0.6318 H   0  0  0  0  0  0  0  0  0  0  0  0
   -1.1600   -1.8463    1.1034 H   0  0  0  0  0  0  0  0  0  0  0  0
   -2.8055   -2.3268    0.6280 H   0  0  0  0  0  0  0  0  0  0  0  0
   -6.4877   -1.5868   -0.5551 H   0  0  0  0  0  0  0  0  0  0  0  0
   -6.2514    0.1221   -0.9981 H   0  0  0  0  0  0  0  0  0  0  0  0
   -4.8566    1.8086   -0.6111 H   0  0  0  0  0  0  0  0  0  0  0  0
   -3.0242    3.4281   -0.6182 H   0  0  0  0  0  0  0  0  0  0  0  0
    0.4769   -0.6406   -0.3498 H   0  0  0  0  0  0  0  0  0  0  0  0
    0.4145    0.1456    1.2735 H   0  0  0  0  0  0  0  0  0  0  0  0
    5.3855   -0.7926    2.5984 H   0  0  0  0  0  0  0  0  0  0  0  0
    7.5760   -1.5263    1.6295 H   0  0  0  0  0  0  0  0  0  0  0  0
    8.0410   -1.2041   -0.7957 H   0  0  0  0  0  0  0  0  0  0  0  0
    6.3186   -0.1442   -2.2757 H   0  0  0  0  0  0  0  0  0  0  0  0
    3.7509    0.9465   -2.2235 H   0  0  0  0  0  0  0  0  0  0  0  0
  1  2  1  0
  2  3  2  0
  3  4  1  0
  4  5  1  0
  5  6  1  0
  6  7  1  0
  6  8  1  0
  6  9  1  0
  3 10  1  0
 10 11  2  0
 11 12  1  0
 12 13  2  0
 13 14  1  0
 15 14  1  1
 15 16  2  0
 15 17  1  0
 17 18  2  0
 18 19  1  0
 19 20  2  0
 20 21  1  0
 21 22  2  0
 22 23  1  0
 23 24  2  0
 24 25  1  0
 13  2  1  0
 25 17  1  0
 24 19  1  0
  1 26  1  0
  1 27  1  0
  1 28  1  0
  5 29  1  0
  5 30  1  0
 10 31  1  0
 11 32  1  0
 14 33  1  0
 14 34  1  0
 20 35  1  0
 21 36  1  0
 22 37  1  0
 23 38  1  0
 25 39  1  0
M  END
$$$$
