
     RDKit          2D

244255  0  0  0  0  0  0  0  0999 V2000
   -1.0323    0.7500    0.0000 C   0  0  0  0  0  0  0  0  0  0  0  0
    0.3943    1.2135    0.0000 N   0  0  0  0  0  0  0  0  0  0  0  0
   -0.3694    0.1624    0.0000 C   0  0  0  0  0  0  0  0  0  0  0  0
   -0.2686    0.3011    0.0000 C   0  0  0  0  0  0  0  0  0  0  0  0
   -1.0323   -0.7500    0.0000 C   0  0  0  0  0  0  0  0  0  0  0  0
    0.0824   -1.7537    0.0000 C   0  0  0  0  0  0  0  0  0  0  0  0
    1.5742   -1.5969    0.0000 C   0  0  0  0  0  0  0  0  0  0  0  0
    2.4559   -2.8104    0.0000 C   0  0  0  0  0  0  0  0  0  0  0  0
    1.8458   -4.1807    0.0000 C   0  0  0  0  0  0  0  0  0  0  0  0
    2.7275   -5.3943    0.0000 O   0  0  0  0  0  0  0  0  0  0  0  0
    2.1174   -6.7646    0.0000 C   0  0  0  0  0  0  0  0  0  0  0  0
    0.3540   -4.3375    0.0000 C   0  0  0  0  0  0  0  0  0  0  0  0
   -0.5277   -3.1240    0.0000 C   0  0  0  0  0  0  0  0  0  0  0  0
   -2.0195   -2.9672    0.0000 N   0  0  0  0  0  0  0  0  0  0  0  0
   -3.0232   -4.0819    0.0000 C   0  0  0  0  0  0  0  0  0  0  0  0
   -2.3313   -1.5000    0.0000 C   0  0  0  0  0  0  0  0  0  0  0  0
   -3.6304   -0.7500    0.0000 C   0  0  0  0  0  0  0  0  0  0  0  0
   -4.1434   -2.1595    0.0000 O   0  0  0  0  0  0  0  0  0  0  0  0
   -3.6304    0.7500    0.0000 C   0  0  0  0  0  0  0  0  0  0  0  0
   -4.1434    2.1595    0.0000 O   0  0  0  0  0  0  0  0  0  0  0  0
   -2.3313    1.5000    0.0000 C   0  0  0  0  0  0  0  0  0  0  0  0
   -2.3313    3.0000    0.0000 C   0  0  0  0  0  0  0  0  0  0  0  0
   -2.3313    4.5000    0.0000 C   0  0  0  0  0  0  0  0  0  0  0  0
   -2.0328    2.9769    0.0000 C   0  0  0  0  0  0  0  0  0  0  0  0
   -0.6624    3.5870    0.0000 C   0  0  0  0  0  0  0  0  0  0  0  0
    0.5511    2.7053    0.0000 C   0  0  0  0  0  0  0  0  0  0  0  0
   -5.1076   -0.4895    0.0000 C   0  0  0  0  0  0  0  0  0  0  0  0
   -6.2046   -1.5125    0.0000 O   0  0  0  0  0  0  0  0  0  0  0  0
   -5.6206    0.9200    0.0000 N   0  0  0  0  0  0  0  0  0  0  0  0
   -7.0978    1.1805    0.0000 N   0  0  0  0  0  0  0  0  0  0  0  0
   -7.6108    2.5900    0.0000 C   0  0  0  0  0  0  0  0  0  0  0  0
   -9.0881    2.8505    0.0000 O   0  0  0  0  0  0  0  0  0  0  0  0
   -6.6467    3.7391    0.0000 O   0  0  0  0  0  0  0  0  0  0  0  0
   -7.1597    5.1486    0.0000 C   0  0  0  0  0  0  0  0  0  0  0  0
   -7.6727    6.5582    0.0000 C   0  0  0  0  0  0  0  0  0  0  0  0
   -8.1858    7.9677    0.0000 S   0  0  0  0  0  0  0  0  0  0  0  0
   -7.2216    9.1168    0.0000 S   0  0  0  0  0  0  0  0  0  0  0  0
   -7.7346   10.5263    0.0000 C   0  0  0  0  0  0  0  0  0  0  0  0
   -8.2476   11.9359    0.0000 C   0  0  0  0  0  0  0  0  0  0  0  0
   -6.8381   12.4489    0.0000 N   0  0  0  0  0  0  0  0  0  0  0  0
   -6.5776   13.9261    0.0000 C   0  0  0  0  0  0  0  0  0  0  0  0
   -7.6006   15.0232    0.0000 O   0  0  0  0  0  0  0  0  0  0  0  0
   -5.1681   14.4391    0.0000 C   0  0  0  0  0  0  0  0  0  0  0  0
   -3.7585   14.9522    0.0000 C   0  0  0  0  0  0  0  0  0  0  0  0
   -2.3490   15.4652    0.0000 C   0  0  0  0  0  0  0  0  0  0  0  0
   -2.0885   16.9424    0.0000 O   0  0  0  0  0  0  0  0  0  0  0  0
   -1.1999   14.5010    0.0000 O   0  0  0  0  0  0  0  0  0  0  0  0
   -5.6811   15.8487    0.0000 N   0  0  0  0  0  0  0  0  0  0  0  0
   -4.7169   16.9977    0.0000 C   0  0  0  0  0  0  0  0  0  0  0  0
   -3.2397   16.7373    0.0000 O   0  0  0  0  0  0  0  0  0  0  0  0
   -5.2300   18.4073    0.0000 C   0  0  0  0  0  0  0  0  0  0  0  0
   -5.7430   19.8168    0.0000 C   0  0  0  0  0  0  0  0  0  0  0  0
   -6.2560   21.2263    0.0000 C   0  0  0  0  0  0  0  0  0  0  0  0
   -7.7332   21.4868    0.0000 O   0  0  0  0  0  0  0  0  0  0  0  0
   -5.2918   22.3754    0.0000 O   0  0  0  0  0  0  0  0  0  0  0  0
   -3.8204   18.9203    0.0000 N   0  0  0  0  0  0  0  0  0  0  0  0
   -3.5600   20.3975    0.0000 C   0  0  0  0  0  0  0  0  0  0  0  0
   -4.7090   21.3617    0.0000 O   0  0  0  0  0  0  0  0  0  0  0  0
   -2.1504   20.9105    0.0000 C   0  0  0  0  0  0  0  0  0  0  0  0
   -0.7409   21.4236    0.0000 C   0  0  0  0  0  0  0  0  0  0  0  0
    0.6687   21.9366    0.0000 C   0  0  0  0  0  0  0  0  0  0  0  0
    2.0782   22.4496    0.0000 C   0  0  0  0  0  0  0  0  0  0  0  0
    3.4877   22.9627    0.0000 N   0  0  0  0  0  0  0  0  0  0  0  0
    3.7482   24.4399    0.0000 C   0  0  0  0  0  0  0  0  0  0  0  0
    2.5991   25.4041    0.0000 N   0  0  0  0  0  0  0  0  0  0  0  0
    5.1578   24.9529    0.0000 N   0  0  0  0  0  0  0  0  0  0  0  0
   -2.6634   22.3201    0.0000 N   0  0  0  0  0  0  0  0  0  0  0  0
   -1.6993   23.4691    0.0000 C   0  0  0  0  0  0  0  0  0  0  0  0
   -0.2013   23.3907    0.0000 O   0  0  0  0  0  0  0  0  0  0  0  0
   -2.2123   24.8787    0.0000 C   0  0  0  0  0  0  0  0  0  0  0  0
   -2.7253   26.2882    0.0000 C   0  0  0  0  0  0  0  0  0  0  0  0
   -3.2384   27.6978    0.0000 C   0  0  0  0  0  0  0  0  0  0  0  0
   -4.7156   27.9582    0.0000 O   0  0  0  0  0  0  0  0  0  0  0  0
   -2.2742   28.8468    0.0000 O   0  0  0  0  0  0  0  0  0  0  0  0
   -0.8028   25.3917    0.0000 N   0  0  0  0  0  0  0  0  0  0  0  0
   -0.5423   26.8689    0.0000 C   0  0  0  0  0  0  0  0  0  0  0  0
   -1.6913   27.8331    0.0000 O   0  0  0  0  0  0  0  0  0  0  0  0
    0.8673   27.3820    0.0000 C   0  0  0  0  0  0  0  0  0  0  0  0
    2.2768   27.8950    0.0000 C   0  0  0  0  0  0  0  0  0  0  0  0
    3.6863   28.4080    0.0000 C   0  0  0  0  0  0  0  0  0  0  0  0
    4.1994   26.9985    0.0000 N   0  0  0  0  0  0  0  0  0  0  0  0
    5.6766   26.7380    0.0000 C   0  0  0  0  0  0  0  0  0  0  0  0
    6.7736   27.7610    0.0000 O   0  0  0  0  0  0  0  0  0  0  0  0
    6.1896   25.3285    0.0000 C   0  0  0  0  0  0  0  0  0  0  0  0
    5.2254   24.1794    0.0000 C   0  0  0  0  0  0  0  0  0  0  0  0
    5.7385   22.7699    0.0000 C   0  0  0  0  0  0  0  0  0  0  0  0
    7.2157   22.5094    0.0000 C   0  0  0  0  0  0  0  0  0  0  0  0
    7.7287   21.0998    0.0000 N   0  0  0  0  0  0  0  0  0  0  0  0
    9.2059   20.8394    0.0000 C   0  0  0  0  0  0  0  0  0  0  0  0
   10.6831   20.5789    0.0000 C   0  0  0  0  0  0  0  0  0  0  0  0
   11.1962   19.1694    0.0000 C   0  0  0  0  0  0  0  0  0  0  0  0
   12.6734   18.9089    0.0000 N   0  0  0  0  0  0  0  0  0  0  0  0
   13.6375   20.0580    0.0000 C   0  0  0  0  0  0  0  0  0  0  0  0
   15.1148   19.7975    0.0000 N   0  0  0  0  0  0  0  0  0  0  0  0
   16.0789   20.9466    0.0000 C   0  0  0  0  0  0  0  0  0  0  0  0
   17.5561   20.6861    0.0000 N   0  0  0  0  0  0  0  0  0  0  0  0
   15.5659   22.3561    0.0000 N   0  0  0  0  0  0  0  0  0  0  0  0
   14.0887   22.6166    0.0000 C   0  0  0  0  0  0  0  0  0  0  0  0
   13.5757   24.0261    0.0000 O   0  0  0  0  0  0  0  0  0  0  0  0
   13.1245   21.4675    0.0000 C   0  0  0  0  0  0  0  0  0  0  0  0
   11.6473   21.7280    0.0000 N   0  0  0  0  0  0  0  0  0  0  0  0
    8.1798   23.6585    0.0000 C   0  0  0  0  0  0  0  0  0  0  0  0
    7.6668   25.0680    0.0000 C   0  0  0  0  0  0  0  0  0  0  0  0
    5.0959   28.9210    0.0000 C   0  0  0  0  0  0  0  0  0  0  0  0
    5.3563   30.3983    0.0000 O   0  0  0  0  0  0  0  0  0  0  0  0
    6.3539   28.1041    0.0000 O   0  0  0  0  0  0  0  0  0  0  0  0
   -8.7607   13.3454    0.0000 C   0  0  0  0  0  0  0  0  0  0  0  0
  -10.2379   13.6059    0.0000 O   0  0  0  0  0  0  0  0  0  0  0  0
   -7.9437   14.6034    0.0000 O   0  0  0  0  0  0  0  0  0  0  0  0
    3.9477   -2.6536    0.0000 C   0  0  0  0  0  0  0  0  0  0  0  0
    5.1079   -1.7029    0.0000 C   0  0  0  0  0  0  0  0  0  0  0  0
    6.6078   -1.7203    0.0000 C   0  0  0  0  0  0  0  0  0  0  0  0
    7.7456   -2.6978    0.0000 C   0  0  0  0  0  0  0  0  0  0  0  0
    7.9888   -4.1780    0.0000 N   0  0  0  0  0  0  0  0  0  0  0  0
    9.1882   -3.2505    0.0000 C   0  0  0  0  0  0  0  0  0  0  0  0
    9.2057   -1.7506    0.0000 C   0  0  0  0  0  0  0  0  0  0  0  0
   10.6798   -2.0282    0.0000 O   0  0  0  0  0  0  0  0  0  0  0  0
    9.7351   -0.3471    0.0000 C   0  0  0  0  0  0  0  0  0  0  0  0
   10.2645    1.0564    0.0000 C   0  0  0  0  0  0  0  0  0  0  0  0
    7.9155   -0.9855    0.0000 C   0  0  0  0  0  0  0  0  0  0  0  0
    7.2238   -5.4682    0.0000 C   0  0  0  0  0  0  0  0  0  0  0  0
    5.8083   -5.9648    0.0000 C   0  0  0  0  0  0  0  0  0  0  0  0
    4.4049   -5.4354    0.0000 C   0  0  0  0  0  0  0  0  0  0  0  0
    3.6700   -4.1277    0.0000 C   0  0  0  0  0  0  0  0  0  0  0  0
    2.1993   -4.4225    0.0000 N   0  0  0  0  0  0  0  0  0  0  0  0
    2.0251   -5.9123    0.0000 C   0  0  0  0  0  0  0  0  0  0  0  0
    0.8014   -6.7798    0.0000 C   0  0  0  0  0  0  0  0  0  0  0  0
    0.9409   -8.2734    0.0000 C   0  0  0  0  0  0  0  0  0  0  0  0
    2.3040   -8.8994    0.0000 C   0  0  0  0  0  0  0  0  0  0  0  0
    3.5277   -8.0319    0.0000 C   0  0  0  0  0  0  0  0  0  0  0  0
    3.3883   -6.5384    0.0000 C   0  0  0  0  0  0  0  0  0  0  0  0
    3.3696   -1.2695    0.0000 C   0  0  0  0  0  0  0  0  0  0  0  0
    4.1271    0.0252    0.0000 O   0  0  0  0  0  0  0  0  0  0  0  0
    1.8819   -1.0780    0.0000 O   0  0  0  0  0  0  0  0  0  0  0  0
    1.3038    0.3061    0.0000 C   0  0  0  0  0  0  0  0  0  0  0  0
   -0.6948    2.2115    0.0000 H   0  0  0  0  0  0  0  0  0  0  0  0
    2.5047    0.8603    0.0000 H   0  0  0  0  0  0  0  0  0  0  0  0
    2.2600   -1.1321    0.0000 H   0  0  0  0  0  0  0  0  0  0  0  0
    1.6933   -1.9635    0.0000 H   0  0  0  0  0  0  0  0  0  0  0  0
    0.1339   -2.6908    0.0000 H   0  0  0  0  0  0  0  0  0  0  0  0
    2.0127   -0.1624    0.0000 H   0  0  0  0  0  0  0  0  0  0  0  0
    1.8570   -8.2418    0.0000 H   0  0  0  0  0  0  0  0  0  0  0  0
    3.2993   -7.6881    0.0000 H   0  0  0  0  0  0  0  0  0  0  0  0
    0.6401   -6.5042    0.0000 H   0  0  0  0  0  0  0  0  0  0  0  0
   -0.4186   -5.6233    0.0000 H   0  0  0  0  0  0  0  0  0  0  0  0
   -4.0268   -5.1967    0.0000 H   0  0  0  0  0  0  0  0  0  0  0  0
   -1.9084   -5.0856    0.0000 H   0  0  0  0  0  0  0  0  0  0  0  0
   -4.1379   -3.0782    0.0000 H   0  0  0  0  0  0  0  0  0  0  0  0
   -3.2954   -2.6491    0.0000 H   0  0  0  0  0  0  0  0  0  0  0  0
   -5.5778   -2.5981    0.0000 H   0  0  0  0  0  0  0  0  0  0  0  0
   -5.1267    0.8547    0.0000 H   0  0  0  0  0  0  0  0  0  0  0  0
   -5.6206    2.4200    0.0000 H   0  0  0  0  0  0  0  0  0  0  0  0
   -3.7867    3.3630    0.0000 H   0  0  0  0  0  0  0  0  0  0  0  0
   -0.9310    3.5377    0.0000 H   0  0  0  0  0  0  0  0  0  0  0  0
   -2.3313    6.0000    0.0000 H   0  0  0  0  0  0  0  0  0  0  0  0
   -3.8201    4.6828    0.0000 H   0  0  0  0  0  0  0  0  0  0  0  0
   -0.8425    4.6828    0.0000 H   0  0  0  0  0  0  0  0  0  0  0  0
   -3.3447    3.7041    0.0000 H   0  0  0  0  0  0  0  0  0  0  0  0
   -0.3250    5.0485    0.0000 H   0  0  0  0  0  0  0  0  0  0  0  0
    1.9930    2.2919    0.0000 H   0  0  0  0  0  0  0  0  0  0  0  0
    1.2086    4.0535    0.0000 H   0  0  0  0  0  0  0  0  0  0  0  0
   -4.9631    2.2682    0.0000 H   0  0  0  0  0  0  0  0  0  0  0  0
   -8.0620    0.0314    0.0000 H   0  0  0  0  0  0  0  0  0  0  0  0
   -8.5692    4.6356    0.0000 H   0  0  0  0  0  0  0  0  0  0  0  0
   -5.7502    5.6617    0.0000 H   0  0  0  0  0  0  0  0  0  0  0  0
   -9.0823    6.0451    0.0000 H   0  0  0  0  0  0  0  0  0  0  0  0
   -6.2632    7.0712    0.0000 H   0  0  0  0  0  0  0  0  0  0  0  0
   -9.1441   10.0133    0.0000 H   0  0  0  0  0  0  0  0  0  0  0  0
   -6.2730   10.8637    0.0000 H   0  0  0  0  0  0  0  0  0  0  0  0
   -9.6572   11.4228    0.0000 H   0  0  0  0  0  0  0  0  0  0  0  0
   -5.5801   11.6320    0.0000 H   0  0  0  0  0  0  0  0  0  0  0  0
   -4.6551   13.0296    0.0000 H   0  0  0  0  0  0  0  0  0  0  0  0
   -3.9153   16.4439    0.0000 H   0  0  0  0  0  0  0  0  0  0  0  0
   -3.2455   13.5426    0.0000 H   0  0  0  0  0  0  0  0  0  0  0  0
   -0.6790   17.4554    0.0000 H   0  0  0  0  0  0  0  0  0  0  0  0
   -7.1583   16.1091    0.0000 H   0  0  0  0  0  0  0  0  0  0  0  0
   -6.6395   17.8942    0.0000 H   0  0  0  0  0  0  0  0  0  0  0  0
   -4.4995   20.6557    0.0000 H   0  0  0  0  0  0  0  0  0  0  0  0
   -7.1525   19.3038    0.0000 H   0  0  0  0  0  0  0  0  0  0  0  0
   -8.2463   22.8964    0.0000 H   0  0  0  0  0  0  0  0  0  0  0  0
   -2.6714   17.9561    0.0000 H   0  0  0  0  0  0  0  0  0  0  0  0
   -1.6374   19.5010    0.0000 H   0  0  0  0  0  0  0  0  0  0  0  0
   -0.2278   20.0140    0.0000 H   0  0  0  0  0  0  0  0  0  0  0  0
   -0.8976   22.9154    0.0000 H   0  0  0  0  0  0  0  0  0  0  0  0
    1.1817   20.5271    0.0000 H   0  0  0  0  0  0  0  0  0  0  0  0
    0.3313   23.3982    0.0000 H   0  0  0  0  0  0  0  0  0  0  0  0
    2.5912   21.0401    0.0000 H   0  0  0  0  0  0  0  0  0  0  0  0
    1.5652   23.8592    0.0000 H   0  0  0  0  0  0  0  0  0  0  0  0
    4.5107   21.8656    0.0000 H   0  0  0  0  0  0  0  0  0  0  0  0
    3.0377   26.8385    0.0000 H   0  0  0  0  0  0  0  0  0  0  0  0
    1.1896   24.8910    0.0000 H   0  0  0  0  0  0  0  0  0  0  0  0
    5.7679   26.3232    0.0000 H   0  0  0  0  0  0  0  0  0  0  0  0
   -4.1407   22.5806    0.0000 H   0  0  0  0  0  0  0  0  0  0  0  0
   -3.6218   24.3657    0.0000 H   0  0  0  0  0  0  0  0  0  0  0  0
   -1.4818   27.1271    0.0000 H   0  0  0  0  0  0  0  0  0  0  0  0
   -4.1349   25.7752    0.0000 H   0  0  0  0  0  0  0  0  0  0  0  0
   -5.2286   29.3678    0.0000 H   0  0  0  0  0  0  0  0  0  0  0  0
    0.3463   24.4275    0.0000 H   0  0  0  0  0  0  0  0  0  0  0  0
    0.3542   28.7915    0.0000 H   0  0  0  0  0  0  0  0  0  0  0  0
    1.3803   25.9724    0.0000 H   0  0  0  0  0  0  0  0  0  0  0  0
    1.7638   29.3045    0.0000 H   0  0  0  0  0  0  0  0  0  0  0  0
    2.7898   26.4854    0.0000 H   0  0  0  0  0  0  0  0  0  0  0  0
    3.1733   29.8176    0.0000 H   0  0  0  0  0  0  0  0  0  0  0  0
    3.1023   25.9755    0.0000 H   0  0  0  0  0  0  0  0  0  0  0  0
    3.8551   24.7896    0.0000 H   0  0  0  0  0  0  0  0  0  0  0  0
    4.9215   21.5118    0.0000 H   0  0  0  0  0  0  0  0  0  0  0  0
    6.7645   19.9508    0.0000 H   0  0  0  0  0  0  0  0  0  0  0  0
    9.4664   22.3166    0.0000 H   0  0  0  0  0  0  0  0  0  0  0  0
    8.9454   19.3622    0.0000 H   0  0  0  0  0  0  0  0  0  0  0  0
   10.2320   18.0203    0.0000 H   0  0  0  0  0  0  0  0  0  0  0  0
   13.1864   17.4994    0.0000 H   0  0  0  0  0  0  0  0  0  0  0  0
   18.0692   19.2765    0.0000 H   0  0  0  0  0  0  0  0  0  0  0  0
   18.5203   21.8351    0.0000 H   0  0  0  0  0  0  0  0  0  0  0  0
    9.6571   23.3980    0.0000 H   0  0  0  0  0  0  0  0  0  0  0  0
    8.6310   26.2171    0.0000 H   0  0  0  0  0  0  0  0  0  0  0  0
    6.7659   30.9113    0.0000 H   0  0  0  0  0  0  0  0  0  0  0  0
  -10.7509   15.0154    0.0000 H   0  0  0  0  0  0  0  0  0  0  0  0
    4.2476   -0.4741    0.0000 H   0  0  0  0  0  0  0  0  0  0  0  0
    5.5548   -0.2710    0.0000 H   0  0  0  0  0  0  0  0  0  0  0  0
    6.9622   -0.2628    0.0000 H   0  0  0  0  0  0  0  0  0  0  0  0
    8.6691   -1.5159    0.0000 H   0  0  0  0  0  0  0  0  0  0  0  0
    9.2354   -2.5236    0.0000 H   0  0  0  0  0  0  0  0  0  0  0  0
   10.6684   -3.0072    0.0000 H   0  0  0  0  0  0  0  0  0  0  0  0
    9.6848   -4.6659    0.0000 H   0  0  0  0  0  0  0  0  0  0  0  0
   11.7886   -1.0181    0.0000 H   0  0  0  0  0  0  0  0  0  0  0  0
   11.1926   -0.7015    0.0000 H   0  0  0  0  0  0  0  0  0  0  0  0
    8.4066    0.3494    0.0000 H   0  0  0  0  0  0  0  0  0  0  0  0
   10.7939    2.4599    0.0000 H   0  0  0  0  0  0  0  0  0  0  0  0
   11.6679    0.5270    0.0000 H   0  0  0  0  0  0  0  0  0  0  0  0
    8.8610    1.5858    0.0000 H   0  0  0  0  0  0  0  0  0  0  0  0
    7.1132    0.2819    0.0000 H   0  0  0  0  0  0  0  0  0  0  0  0
    8.7470    0.2629    0.0000 H   0  0  0  0  0  0  0  0  0  0  0  0
    8.6792   -5.8311    0.0000 H   0  0  0  0  0  0  0  0  0  0  0  0
    7.4757   -6.9469    0.0000 H   0  0  0  0  0  0  0  0  0  0  0  0
    6.5355   -7.2767    0.0000 H   0  0  0  0  0  0  0  0  0  0  0  0
    4.8987   -7.1575    0.0000 H   0  0  0  0  0  0  0  0  0  0  0  0
    1.0963   -3.4059    0.0000 H   0  0  0  0  0  0  0  0  0  0  0  0
   -0.6278   -6.3247    0.0000 H   0  0  0  0  0  0  0  0  0  0  0  0
   -0.2828   -9.1409    0.0000 H   0  0  0  0  0  0  0  0  0  0  0  0
    2.4434  -10.3929    0.0000 H   0  0  0  0  0  0  0  0  0  0  0  0
    4.8908   -8.6579    0.0000 H   0  0  0  0  0  0  0  0  0  0  0  0
    1.0779    1.7890    0.0000 H   0  0  0  0  0  0  0  0  0  0  0  0
   -0.0803   -0.2719    0.0000 H   0  0  0  0  0  0  0  0  0  0  0  0
    2.6072    1.0486    0.0000 H   0  0  0  0  0  0  0  0  0  0  0  0
  1  2  1  0
  2  3  1  0
  3  4  1  0
  5  4  1  6
  5  6  1  0
  6  7  2  0
  7  8  1  0
  8  9  2  0
  9 10  1  0
 10 11  1  0
  9 12  1  0
 12 13  2  0
 13 14  1  0
 14 15  1  0
 14 16  1  0
 16 17  1  0
 17 18  1  6
 17 19  1  0
 19 20  1  0
 19 21  1  0
 21 22  1  1
 22 23  1  0
 21 24  1  0
 24 25  2  0
 25 26  1  0
 17 27  1  0
 27 28  2  0
 27 29  1  0
 29 30  1  0
 30 31  1  0
 31 32  2  0
 31 33  1  0
 33 34  1  0
 34 35  1  0
 35 36  1  0
 36 37  1  0
 37 38  1  0
 38 39  1  0
 39 40  1  0
 40 41  1  0
 41 42  2  0
 41 43  1  0
 43 44  1  0
 44 45  1  0
 45 46  1  0
 45 47  2  0
 43 48  1  0
 48 49  1  0
 49 50  2  0
 49 51  1  0
 51 52  1  0
 52 53  1  0
 53 54  1  0
 53 55  2  0
 51 56  1  0
 56 57  1  0
 57 58  2  0
 57 59  1  0
 59 60  1  0
 60 61  1  0
 61 62  1  0
 62 63  1  0
 63 64  1  0
 64 65  1  0
 64 66  2  3
 59 67  1  0
 67 68  1  0
 68 69  2  0
 68 70  1  0
 70 71  1  0
 71 72  1  0
 72 73  1  0
 72 74  2  0
 70 75  1  0
 75 76  1  0
 76 77  2  0
 76 78  1  0
 78 79  1  0
 79 80  1  0
 80 81  1  0
 81 82  1  0
 82 83  2  0
 82 84  1  0
 84 85  2  0
 85 86  1  0
 86 87  2  0
 87 88  1  0
 88 89  1  0
 89 90  1  0
 90 91  2  0
 91 92  1  0
 92 93  1  0
 93 94  2  0
 94 95  1  0
 95 96  1  0
 95 97  2  0
 97 98  1  0
 98 99  2  0
 98100  1  0
100101  2  0
 87102  1  0
102103  2  0
 80104  1  0
104105  1  0
104106  2  0
 39107  1  0
107108  1  0
107109  2  0
  8110  1  0
110111  1  0
111112  1  0
112113  1  0
113114  1  0
114115  1  6
115116  1  0
116117  1  6
116118  1  0
118119  1  0
116120  1  0
114121  1  0
121122  1  0
122123  1  0
123124  2  0
124125  1  0
125126  1  0
126127  2  0
127128  1  0
128129  2  0
129130  1  0
130131  2  0
110132  1  6
132133  2  0
132134  1  0
134135  1  0
  5  1  1  0
 16  5  1  0
103 84  1  0
124110  1  0
131126  1  0
 21  1  1  0
101 90  1  0
120112  1  0
131123  1  0
 26  2  1  0
100 93  1  0
 13  6  1  0
  1136  1  1
  3137  1  0
  3138  1  0
  4139  1  0
  4140  1  0
  7141  1  0
 11142  1  0
 11143  1  0
 11144  1  0
 12145  1  0
 15146  1  0
 15147  1  0
 15148  1  0
 16149  1  6
 18150  1  0
 19151  1  1
 20152  1  0
 22153  1  0
 22154  1  0
 23155  1  0
 23156  1  0
 23157  1  0
 24158  1  0
 25159  1  0
 26160  1  0
 26161  1  0
 29162  1  0
 30163  1  0
 34164  1  0
 34165  1  0
 35166  1  0
 35167  1  0
 38168  1  0
 38169  1  0
 39170  1  6
 40171  1  0
 43172  1  6
 44173  1  0
 44174  1  0
 46175  1  0
 48176  1  0
 51177  1  1
 52178  1  0
 52179  1  0
 54180  1  0
 56181  1  0
 59182  1  6
 60183  1  0
 60184  1  0
 61185  1  0
 61186  1  0
 62187  1  0
 62188  1  0
 63189  1  0
 65190  1  0
 65191  1  0
 66192  1  0
 67193  1  0
 70194  1  1
 71195  1  0
 71196  1  0
 73197  1  0
 75198  1  0
 78199  1  0
 78200  1  0
 79201  1  0
 79202  1  0
 80203  1  6
 81204  1  0
 85205  1  0
 86206  1  0
 88207  1  0
 89208  1  0
 89209  1  0
 91210  1  0
 92211  1  0
 96212  1  0
 96213  1  0
102214  1  0
103215  1  0
105216  1  0
108217  1  0
111218  1  0
111219  1  0
112220  1  1
113221  1  0
113222  1  0
115223  1  0
115224  1  0
117225  1  0
118226  1  0
118227  1  0
119228  1  0
119229  1  0
119230  1  0
120231  1  0
120232  1  0
121233  1  0
121234  1  0
122235  1  0
122236  1  0
125237  1  0
127238  1  0
128239  1  0
129240  1  0
130241  1  0
135242  1  0
135243  1  0
135244  1  0
M  END
$$$$
