
     RDKit          3D

 52 55  0  0  0  0  0  0  0  0999 V2000
    8.3261    2.0569   -0.0707 N   0  0  0  0  0  0  0  0  0  0  0  0
    7.9905    0.6392   -0.1461 C   0  0  0  0  0  0  0  0  0  0  0  0
    6.5342    0.4397    0.1711 C   0  0  0  0  0  0  0  0  0  0  0  0
    5.5668    0.5712   -0.8363 C   0  0  0  0  0  0  0  0  0  0  0  0
    4.2098    0.4183   -0.5368 C   0  0  0  0  0  0  0  0  0  0  0  0
    3.7980    0.1541    0.7819 C   0  0  0  0  0  0  0  0  0  0  0  0
    2.4101   -0.0299    1.1116 N   0  0  0  0  0  0  0  0  0  0  0  0
    1.3324    0.6333    0.4293 C   0  0  0  0  0  0  0  0  0  0  0  0
    1.5563    1.7042   -0.1993 O   0  0  0  0  0  0  0  0  0  0  0  0
   -0.0513    0.1023    0.4967 C   0  0  0  0  0  0  0  0  0  0  0  0
   -1.1418    0.9425    0.2233 C   0  0  0  0  0  0  0  0  0  0  0  0
   -2.4608    0.4632    0.2719 C   0  0  0  0  0  0  0  0  0  0  0  0
   -3.5500    1.3731    0.0392 N   0  0  0  0  0  0  0  0  0  0  0  0
   -3.6049    2.2574   -1.0882 C   0  0  0  0  0  0  0  0  0  0  0  0
   -2.7022    2.1485   -2.1022 N   0  0  0  0  0  0  0  0  0  0  0  0
   -2.7580    2.9713   -3.1814 C   0  0  0  0  0  0  0  0  0  0  0  0
   -3.7554    3.9414   -3.2646 C   0  0  0  0  0  0  0  0  0  0  0  0
   -4.6778    4.0357   -2.2236 C   0  0  0  0  0  0  0  0  0  0  0  0
   -4.5883    3.1946   -1.1606 N   0  0  0  0  0  0  0  0  0  0  0  0
   -2.6985   -0.8911    0.6057 C   0  0  0  0  0  0  0  0  0  0  0  0
   -4.0023   -1.4270    0.6447 C   0  0  0  0  0  0  0  0  0  0  0  0
   -4.2218   -2.7768    0.9777 C   0  0  0  0  0  0  0  0  0  0  0  0
   -3.1173   -3.5995    1.2505 C   0  0  0  0  0  0  0  0  0  0  0  0
   -1.8207   -3.0879    1.2003 C   0  0  0  0  0  0  0  0  0  0  0  0
   -1.5993   -1.7415    0.8796 C   0  0  0  0  0  0  0  0  0  0  0  0
   -0.2906   -1.2422    0.8184 C   0  0  0  0  0  0  0  0  0  0  0  0
   -5.6017   -3.3250    1.0143 C   0  0  0  0  0  0  0  0  0  0  0  0
   -5.9267   -4.4443    1.8484 N   0  0  0  0  0  0  0  0  0  0  0  0
   -6.5286   -2.7767    0.2924 N   0  0  0  0  0  0  0  0  0  0  0  0
    4.7688    0.0170    1.7853 C   0  0  0  0  0  0  0  0  0  0  0  0
    6.1255    0.1708    1.4860 C   0  0  0  0  0  0  0  0  0  0  0  0
    9.3233    2.1638   -0.3668 H   0  0  0  0  0  0  0  0  0  0  0  0
    8.2813    2.3502    0.9326 H   0  0  0  0  0  0  0  0  0  0  0  0
    8.2055    0.2631   -1.1706 H   0  0  0  0  0  0  0  0  0  0  0  0
    8.6267    0.0595    0.5602 H   0  0  0  0  0  0  0  0  0  0  0  0
    5.8640    0.7848   -1.8557 H   0  0  0  0  0  0  0  0  0  0  0  0
    3.4877    0.4874   -1.3395 H   0  0  0  0  0  0  0  0  0  0  0  0
    2.1808   -0.5881    1.9648 H   0  0  0  0  0  0  0  0  0  0  0  0
   -0.9702    1.9885   -0.0001 H   0  0  0  0  0  0  0  0  0  0  0  0
   -4.3453    1.3900    0.7165 H   0  0  0  0  0  0  0  0  0  0  0  0
   -2.0293    2.8702   -3.9745 H   0  0  0  0  0  0  0  0  0  0  0  0
   -3.8138    4.6040   -4.1183 H   0  0  0  0  0  0  0  0  0  0  0  0
   -5.4659    4.7758   -2.2606 H   0  0  0  0  0  0  0  0  0  0  0  0
   -4.8555   -0.8026    0.4161 H   0  0  0  0  0  0  0  0  0  0  0  0
   -3.2474   -4.6500    1.4741 H   0  0  0  0  0  0  0  0  0  0  0  0
   -0.9877   -3.7502    1.4056 H   0  0  0  0  0  0  0  0  0  0  0  0
    0.5409   -1.9117    1.0032 H   0  0  0  0  0  0  0  0  0  0  0  0
   -6.8818   -4.8659    1.8225 H   0  0  0  0  0  0  0  0  0  0  0  0
   -5.2512   -4.8129    2.5530 H   0  0  0  0  0  0  0  0  0  0  0  0
   -7.5114   -3.1303    0.2958 H   0  0  0  0  0  0  0  0  0  0  0  0
    4.4718   -0.1972    2.8043 H   0  0  0  0  0  0  0  0  0  0  0  0
    6.8571    0.0789    2.2793 H   0  0  0  0  0  0  0  0  0  0  0  0
  1  2  1  0
  2  3  1  0
  3  4  2  0
  4  5  1  0
  5  6  2  0
  6  7  1  0
  7  8  1  0
  8  9  2  0
  8 10  1  0
 10 11  2  0
 11 12  1  0
 12 13  1  0
 13 14  1  0
 14 15  2  0
 15 16  1  0
 16 17  2  0
 17 18  1  0
 18 19  2  0
 12 20  2  0
 20 21  1  0
 21 22  2  0
 22 23  1  0
 23 24  2  0
 24 25  1  0
 25 26  2  0
 22 27  1  0
 27 28  1  0
 27 29  2  3
  6 30  1  0
 30 31  2  0
 31  3  1  0
 26 10  1  0
 19 14  1  0
 25 20  1  0
  1 32  1  0
  1 33  1  0
  2 34  1  0
  2 35  1  0
  4 36  1  0
  5 37  1  0
  7 38  1  0
 11 39  1  0
 13 40  1  0
 16 41  1  0
 17 42  1  0
 18 43  1  0
 21 44  1  0
 23 45  1  0
 24 46  1  0
 26 47  1  0
 28 48  1  0
 28 49  1  0
 29 50  1  0
 30 51  1  0
 31 52  1  0
M  END
$$$$
