
     RDKit          3D

 33 33  0  0  0  0  0  0  0  0999 V2000
   -2.0927   -0.2207    0.0281 C   0  0  1  0  0  0  0  0  0  0  0  0
   -3.4728   -0.4866    0.6444 C   0  0  0  0  0  0  0  0  0  0  0  0
   -4.3825   -0.8863   -0.3434 O   0  0  0  0  0  0  0  0  0  0  0  0
   -1.2849    0.3957    1.0171 O   0  0  0  0  0  0  0  0  0  0  0  0
   -0.0443    0.8130    0.4684 C   0  0  1  0  0  0  0  0  0  0  0  0
    0.6810    1.5206    1.4561 O   0  0  0  0  0  0  0  0  0  0  0  0
    0.1568    2.8222    1.6036 C   0  0  0  0  0  0  0  0  0  0  0  0
    0.7800   -0.4199    0.0521 C   0  0  2  0  0  0  0  0  0  0  0  0
    2.0639    0.0041   -0.5166 N   0  0  0  0  0  0  0  0  0  0  0  0
    3.2887   -0.0085    0.2302 C   0  0  0  0  0  0  0  0  0  0  0  0
    4.5390    0.5317   -0.3832 C   0  0  0  0  0  0  0  0  0  0  0  0
    3.3147   -0.4435    1.4133 O   0  0  0  0  0  0  0  0  0  0  0  0
   -0.0029   -1.2478   -0.9807 C   0  0  1  0  0  0  0  0  0  0  0  0
    0.6764   -2.4540   -1.2179 O   0  0  0  0  0  0  0  0  0  0  0  0
   -1.4255   -1.5355   -0.4576 C   0  0  2  0  0  0  0  0  0  0  0  0
   -2.1952   -2.1682   -1.4506 O   0  0  0  0  0  0  0  0  0  0  0  0
   -2.2414    0.4731   -0.8332 H   0  0  0  0  0  0  0  0  0  0  0  0
   -3.8416    0.4502    1.1197 H   0  0  0  0  0  0  0  0  0  0  0  0
   -3.3938   -1.2703    1.4315 H   0  0  0  0  0  0  0  0  0  0  0  0
   -5.2416   -1.0530    0.1245 H   0  0  0  0  0  0  0  0  0  0  0  0
   -0.1989    1.4522   -0.4381 H   0  0  0  0  0  0  0  0  0  0  0  0
    0.3231    3.4242    0.6832 H   0  0  0  0  0  0  0  0  0  0  0  0
   -0.9247    2.8016    1.8644 H   0  0  0  0  0  0  0  0  0  0  0  0
    0.6920    3.3262    2.4342 H   0  0  0  0  0  0  0  0  0  0  0  0
    0.9471   -1.0556    0.9512 H   0  0  0  0  0  0  0  0  0  0  0  0
    2.0667    0.4550   -1.4602 H   0  0  0  0  0  0  0  0  0  0  0  0
    4.4712    1.6376   -0.4459 H   0  0  0  0  0  0  0  0  0  0  0  0
    4.6662    0.1146   -1.4041 H   0  0  0  0  0  0  0  0  0  0  0  0
    5.4245    0.2560    0.2282 H   0  0  0  0  0  0  0  0  0  0  0  0
   -0.0721   -0.6584   -1.9268 H   0  0  0  0  0  0  0  0  0  0  0  0
    0.3483   -2.8027   -2.0876 H   0  0  0  0  0  0  0  0  0  0  0  0
   -1.3438   -2.2302    0.4081 H   0  0  0  0  0  0  0  0  0  0  0  0
   -2.2809   -1.5368   -2.2123 H   0  0  0  0  0  0  0  0  0  0  0  0
  1  2  1  0
  2  3  1  0
  1  4  1  0
  4  5  1  0
  5  6  1  0
  6  7  1  0
  5  8  1  0
  8  9  1  0
  9 10  1  0
 10 11  1  0
 10 12  2  0
  8 13  1  0
 13 14  1  0
 13 15  1  0
 15 16  1  0
 15  1  1  0
  1 17  1  6
  2 18  1  0
  2 19  1  0
  3 20  1  0
  5 21  1  6
  7 22  1  0
  7 23  1  0
  7 24  1  0
  8 25  1  1
  9 26  1  0
 11 27  1  0
 11 28  1  0
 11 29  1  0
 13 30  1  6
 14 31  1  0
 15 32  1  1
 16 33  1  0
M  END
$$$$
