
     RDKit          3D

 52 57  0  0  0  0  0  0  0  0999 V2000
   -1.5176   -1.7491   -0.9852 C   0  0  2  0  0  0  0  0  0  0  0  0
   -1.3654   -2.0311   -2.4921 C   0  0  0  0  0  0  0  0  0  0  0  0
   -1.8949   -0.8119   -3.2920 C   0  0  0  0  0  0  0  0  0  0  0  0
   -2.4415    0.2312   -2.3880 N   0  0  0  0  0  0  0  0  0  0  0  0
   -3.5336   -0.3486   -1.5697 C   0  0  0  0  0  0  0  0  0  0  0  0
   -3.0201   -1.5273   -0.7056 C   0  0  0  0  0  0  0  0  0  0  0  0
   -1.3698    0.7212   -1.4872 C   0  0  0  0  0  0  0  0  0  0  0  0
   -0.7360   -0.4482   -0.6748 C   0  0  1  0  0  0  0  0  0  0  0  0
   -0.7148   -0.1647    0.7681 N   0  0  0  0  0  0  0  0  0  0  0  0
   -0.0397    0.9820    1.3122 C   0  0  0  0  0  0  0  0  0  0  0  0
    1.3699    1.0739    1.2716 C   0  0  0  0  0  0  0  0  0  0  0  0
    2.1902   -0.0593    0.7815 C   0  0  0  0  0  0  0  0  0  0  0  0
    1.9054   -1.3580    1.0735 N   0  0  0  0  0  0  0  0  0  0  0  0
    2.8588   -2.0308    0.4064 C   0  0  0  0  0  0  0  0  0  0  0  0
    3.0378   -3.4101    0.3360 C   0  0  0  0  0  0  0  0  0  0  0  0
    4.1040   -3.8914   -0.4482 C   0  0  0  0  0  0  0  0  0  0  0  0
    4.9507   -2.9908   -1.1358 C   0  0  0  0  0  0  0  0  0  0  0  0
    4.7380   -1.6021   -1.0443 C   0  0  0  0  0  0  0  0  0  0  0  0
    3.6761   -1.1650   -0.2559 C   0  0  0  0  0  0  0  0  0  0  0  0
    3.2696    0.0895   -0.0288 N   0  0  0  0  0  0  0  0  0  0  0  0
    1.9905    2.2399    1.7622 C   0  0  0  0  0  0  0  0  0  0  0  0
    3.2474    2.3461    1.7547 O   0  0  0  0  0  0  0  0  0  0  0  0
    1.2434    3.2548    2.2747 N   0  0  0  0  0  0  0  0  0  0  0  0
   -0.1141    3.1798    2.3565 C   0  0  0  0  0  0  0  0  0  0  0  0
   -0.7900    2.0320    1.8817 C   0  0  0  0  0  0  0  0  0  0  0  0
   -2.1961    1.9767    1.9704 C   0  0  0  0  0  0  0  0  0  0  0  0
   -2.9129    3.0425    2.5221 C   0  0  0  0  0  0  0  0  0  0  0  0
   -4.6626    2.9627    2.6210 Cl  0  0  0  0  0  0  0  0  0  0  0  0
   -2.2390    4.1721    2.9911 C   0  0  0  0  0  0  0  0  0  0  0  0
   -0.8472    4.2422    2.9094 C   0  0  0  0  0  0  0  0  0  0  0  0
   -1.1248   -2.6021   -0.3896 H   0  0  0  0  0  0  0  0  0  0  0  0
   -1.9358   -2.9456   -2.7665 H   0  0  0  0  0  0  0  0  0  0  0  0
   -0.2971   -2.2171   -2.7396 H   0  0  0  0  0  0  0  0  0  0  0  0
   -1.0748   -0.3804   -3.9075 H   0  0  0  0  0  0  0  0  0  0  0  0
   -2.6845   -1.1415   -4.0028 H   0  0  0  0  0  0  0  0  0  0  0  0
   -3.9701    0.4378   -0.9146 H   0  0  0  0  0  0  0  0  0  0  0  0
   -4.3546   -0.6971   -2.2345 H   0  0  0  0  0  0  0  0  0  0  0  0
   -3.1945   -1.3145    0.3701 H   0  0  0  0  0  0  0  0  0  0  0  0
   -3.5875   -2.4518   -0.9510 H   0  0  0  0  0  0  0  0  0  0  0  0
   -0.5823    1.2269   -2.0885 H   0  0  0  0  0  0  0  0  0  0  0  0
   -1.7872    1.5015   -0.8160 H   0  0  0  0  0  0  0  0  0  0  0  0
    0.3094   -0.5883   -1.0233 H   0  0  0  0  0  0  0  0  0  0  0  0
   -1.2240   -0.7854    1.4365 H   0  0  0  0  0  0  0  0  0  0  0  0
    2.3791   -4.0889    0.8621 H   0  0  0  0  0  0  0  0  0  0  0  0
    4.2746   -4.9571   -0.5272 H   0  0  0  0  0  0  0  0  0  0  0  0
    5.7656   -3.3713   -1.7377 H   0  0  0  0  0  0  0  0  0  0  0  0
    5.3750   -0.9016   -1.5684 H   0  0  0  0  0  0  0  0  0  0  0  0
    3.6705    0.9704   -0.4212 H   0  0  0  0  0  0  0  0  0  0  0  0
    1.7357    4.1070    2.6302 H   0  0  0  0  0  0  0  0  0  0  0  0
   -2.7453    1.1162    1.6100 H   0  0  0  0  0  0  0  0  0  0  0  0
   -2.7933    4.9981    3.4181 H   0  0  0  0  0  0  0  0  0  0  0  0
   -0.3405    5.1263    3.2763 H   0  0  0  0  0  0  0  0  0  0  0  0
  1  2  1  0
  2  3  1  0
  4  3  1  6
  4  5  1  0
  5  6  1  0
  4  7  1  0
  7  8  1  0
  8  9  1  0
  9 10  1  0
 10 11  2  0
 11 12  1  0
 12 13  2  0
 13 14  1  0
 14 15  2  0
 15 16  1  0
 16 17  2  0
 17 18  1  0
 18 19  2  0
 19 20  1  0
 11 21  1  0
 21 22  2  0
 21 23  1  0
 23 24  1  0
 24 25  2  0
 25 26  1  0
 26 27  2  0
 27 28  1  0
 27 29  1  0
 29 30  2  0
  6  1  1  0
 25 10  1  0
  8  1  1  0
 20 12  1  0
 30 24  1  0
 19 14  1  0
  1 31  1  1
  2 32  1  0
  2 33  1  0
  3 34  1  0
  3 35  1  0
  5 36  1  0
  5 37  1  0
  6 38  1  0
  6 39  1  0
  7 40  1  0
  7 41  1  0
  8 42  1  6
  9 43  1  0
 15 44  1  0
 16 45  1  0
 17 46  1  0
 18 47  1  0
 20 48  1  0
 23 49  1  0
 26 50  1  0
 29 51  1  0
 30 52  1  0
M  END
$$$$
