
     RDKit          3D

125128  0  0  0  0  0  0  0  0999 V2000
    6.7685   -0.7441    2.0751 C   0  0  0  0  0  0  0  0  0  0  0  0
    7.7169   -1.5554    1.2349 C   0  0  0  0  0  0  0  0  0  0  0  0
    8.0890   -0.8707   -0.1028 C   0  0  1  0  0  0  0  0  0  0  0  0
    8.8790   -1.7661   -0.8722 O   0  0  0  0  0  0  0  0  0  0  0  0
   10.2511   -1.4635   -0.7460 C   0  0  0  0  0  0  0  0  0  0  0  0
    6.8442   -0.4480   -0.9307 C   0  0  1  0  0  0  0  0  0  0  0  0
    7.2683    0.3041   -2.2007 C   0  0  0  0  0  0  0  0  0  0  0  0
    5.9545   -1.6338   -1.2660 C   0  0  0  0  0  0  0  0  0  0  0  0
    6.3439   -2.4812   -2.0570 O   0  0  0  0  0  0  0  0  0  0  0  0
    4.6419   -1.8371   -0.5481 C   0  0  0  0  0  0  0  0  0  0  0  0
    3.4753   -2.2754   -1.4533 C   0  0  0  0  0  0  0  0  0  0  0  0
    2.9431   -1.2480   -2.4885 C   0  0  2  0  0  0  0  0  0  0  0  0
    3.8348   -1.1664   -3.7398 C   0  0  0  0  0  0  0  0  0  0  0  0
    2.6037    0.1462   -1.8743 C   0  0  2  0  0  0  0  0  0  0  0  0
    1.5802    0.9377   -2.7422 C   0  0  0  0  0  0  0  0  0  0  0  0
    0.1487    0.3240   -2.8837 C   0  0  2  0  0  0  0  0  0  0  0  0
   -0.1018   -0.6495   -1.8632 O   0  0  0  0  0  0  0  0  0  0  0  0
   -0.4435   -0.3805   -0.5279 C   0  0  0  0  0  0  0  0  0  0  0  0
   -0.5301   -1.3501    0.2707 O   0  0  0  0  0  0  0  0  0  0  0  0
   -0.7279    1.0093   -0.0123 C   0  0  0  0  0  0  0  0  0  0  0  0
   -2.2347    1.3448    0.0268 C   0  0  1  0  0  0  0  0  0  0  0  0
   -2.8092    1.2107   -1.2497 O   0  0  0  0  0  0  0  0  0  0  0  0
   -2.9873    0.5127    1.0982 C   0  0  0  0  0  0  0  0  0  0  0  0
   -4.4520    0.9333    1.3573 C   0  0  2  0  0  0  0  0  0  0  0  0
   -5.2713    0.5818    0.2689 O   0  0  0  0  0  0  0  0  0  0  0  0
   -4.6079    2.4230    1.7490 C   0  0  0  0  0  0  0  0  0  0  0  0
   -5.9056    2.6905    2.4756 C   0  0  0  0  0  0  0  0  0  0  0  0
   -5.8888    2.8054    3.6928 O   0  0  0  0  0  0  0  0  0  0  0  0
   -7.2110    2.8592    1.7148 C   0  0  2  0  0  0  0  0  0  0  0  0
   -7.4280    4.3421    1.3908 C   0  0  0  0  0  0  0  0  0  0  0  0
   -8.4433    2.2661    2.4586 C   0  0  2  0  0  0  0  0  0  0  0  0
   -8.6787    3.0024    3.6517 O   0  0  0  0  0  0  0  0  0  0  0  0
  -10.0054    3.4798    3.6972 C   0  0  0  0  0  0  0  0  0  0  0  0
   -8.2450    0.8104    2.8060 C   0  0  0  0  0  0  0  0  0  0  0  0
   -8.8463    0.1230    3.8410 C   0  0  0  0  0  0  0  0  0  0  0  0
   -8.4164   -1.1142    3.7968 O   0  0  0  0  0  0  0  0  0  0  0  0
   -7.5943   -1.1995    2.7752 C   0  0  0  0  0  0  0  0  0  0  0  0
   -7.4673   -0.0364    2.1071 N   0  0  0  0  0  0  0  0  0  0  0  0
   -6.8518   -2.4093    2.4154 C   0  0  0  0  0  0  0  0  0  0  0  0
   -6.9177   -3.6297    3.0489 C   0  0  0  0  0  0  0  0  0  0  0  0
   -6.0500   -4.4191    2.4646 O   0  0  0  0  0  0  0  0  0  0  0  0
   -5.4687   -3.7194    1.5144 C   0  0  0  0  0  0  0  0  0  0  0  0
   -5.9305   -2.4547    1.4359 N   0  0  0  0  0  0  0  0  0  0  0  0
   -4.4172   -4.2412    0.6384 C   0  0  0  0  0  0  0  0  0  0  0  0
   -3.8684   -5.5026    0.6818 C   0  0  0  0  0  0  0  0  0  0  0  0
   -2.9565   -5.5632   -0.2572 O   0  0  0  0  0  0  0  0  0  0  0  0
   -2.9379   -4.3936   -0.8581 C   0  0  0  0  0  0  0  0  0  0  0  0
   -3.8313   -3.5242   -0.3378 N   0  0  0  0  0  0  0  0  0  0  0  0
   -2.0396   -4.0786   -1.9790 C   0  0  0  0  0  0  0  0  0  0  0  0
   -2.0700   -2.8945   -2.5961 C   0  0  0  0  0  0  0  0  0  0  0  0
   -1.1464   -2.6032   -3.7475 C   0  0  0  0  0  0  0  0  0  0  0  0
   -1.3635   -1.1885   -4.3399 C   0  0  0  0  0  0  0  0  0  0  0  0
   -0.0965   -0.2914   -4.2993 C   0  0  1  0  0  0  0  0  0  0  0  0
   -0.2531    0.8228   -5.3553 C   0  0  0  0  0  0  0  0  0  0  0  0
    3.7997    0.9053   -1.7563 O   0  0  0  0  0  0  0  0  0  0  0  0
    3.7491    1.7872   -0.6514 C   0  0  0  0  0  0  0  0  0  0  0  0
    7.1179    0.4455    2.5823 C   0  0  0  0  0  0  0  0  0  0  0  0
    6.2136    1.2706    3.3466 N   0  0  0  0  0  0  0  0  0  0  0  0
    4.8468    0.8383    3.6629 C   0  0  0  0  0  0  0  0  0  0  0  0
    6.6948    2.5806    3.7995 C   0  0  0  0  0  0  0  0  0  0  0  0
    6.9396    3.4098    2.6972 O   0  0  0  0  0  0  0  0  0  0  0  0
    5.7849   -1.1561    2.2532 H   0  0  0  0  0  0  0  0  0  0  0  0
    8.6402   -1.7461    1.8229 H   0  0  0  0  0  0  0  0  0  0  0  0
    7.2559   -2.5450    1.0279 H   0  0  0  0  0  0  0  0  0  0  0  0
    8.6328    0.0744    0.1469 H   0  0  0  0  0  0  0  0  0  0  0  0
   10.8353   -2.2326   -1.2913 H   0  0  0  0  0  0  0  0  0  0  0  0
   10.5753   -1.4823    0.3180 H   0  0  0  0  0  0  0  0  0  0  0  0
   10.4792   -0.4762   -1.2047 H   0  0  0  0  0  0  0  0  0  0  0  0
    6.2656    0.2807   -0.3244 H   0  0  0  0  0  0  0  0  0  0  0  0
    6.3849    0.7545   -2.6962 H   0  0  0  0  0  0  0  0  0  0  0  0
    7.7808   -0.3743   -2.9157 H   0  0  0  0  0  0  0  0  0  0  0  0
    7.9603    1.1339   -1.9422 H   0  0  0  0  0  0  0  0  0  0  0  0
    4.3575   -0.9431    0.0374 H   0  0  0  0  0  0  0  0  0  0  0  0
    4.8027   -2.6453    0.1970 H   0  0  0  0  0  0  0  0  0  0  0  0
    3.7489   -3.2210   -1.9710 H   0  0  0  0  0  0  0  0  0  0  0  0
    2.6283   -2.5381   -0.7810 H   0  0  0  0  0  0  0  0  0  0  0  0
    1.9969   -1.7025   -2.8395 H   0  0  0  0  0  0  0  0  0  0  0  0
    3.3236   -0.6041   -4.5475 H   0  0  0  0  0  0  0  0  0  0  0  0
    4.0460   -2.1849   -4.1292 H   0  0  0  0  0  0  0  0  0  0  0  0
    4.7956   -0.6672   -3.5254 H   0  0  0  0  0  0  0  0  0  0  0  0
    2.1475   -0.0409   -0.8760 H   0  0  0  0  0  0  0  0  0  0  0  0
    2.0393    1.1294   -3.7310 H   0  0  0  0  0  0  0  0  0  0  0  0
    1.4526    1.9456   -2.2995 H   0  0  0  0  0  0  0  0  0  0  0  0
   -0.5978    1.1412   -2.7749 H   0  0  0  0  0  0  0  0  0  0  0  0
   -0.2009    1.7703   -0.6193 H   0  0  0  0  0  0  0  0  0  0  0  0
   -0.3042    1.1032    1.0114 H   0  0  0  0  0  0  0  0  0  0  0  0
   -2.3016    2.4155    0.3121 H   0  0  0  0  0  0  0  0  0  0  0  0
   -2.8865    0.2420   -1.4488 H   0  0  0  0  0  0  0  0  0  0  0  0
   -2.4354    0.5907    2.0609 H   0  0  0  0  0  0  0  0  0  0  0  0
   -2.9812   -0.5614    0.8118 H   0  0  0  0  0  0  0  0  0  0  0  0
   -4.7840    0.3247    2.2271 H   0  0  0  0  0  0  0  0  0  0  0  0
   -5.1544    1.2629   -0.4417 H   0  0  0  0  0  0  0  0  0  0  0  0
   -3.7657    2.7172    2.4137 H   0  0  0  0  0  0  0  0  0  0  0  0
   -4.5513    3.0737    0.8503 H   0  0  0  0  0  0  0  0  0  0  0  0
   -7.1234    2.3336    0.7396 H   0  0  0  0  0  0  0  0  0  0  0  0
   -6.5894    4.7245    0.7703 H   0  0  0  0  0  0  0  0  0  0  0  0
   -8.3697    4.4759    0.8170 H   0  0  0  0  0  0  0  0  0  0  0  0
   -7.4844    4.9473    2.3210 H   0  0  0  0  0  0  0  0  0  0  0  0
   -9.2982    2.2997    1.7383 H   0  0  0  0  0  0  0  0  0  0  0  0
  -10.7352    2.6412    3.6520 H   0  0  0  0  0  0  0  0  0  0  0  0
  -10.1584    4.0115    4.6585 H   0  0  0  0  0  0  0  0  0  0  0  0
  -10.1934    4.2038    2.8740 H   0  0  0  0  0  0  0  0  0  0  0  0
   -9.5424    0.5123    4.5719 H   0  0  0  0  0  0  0  0  0  0  0  0
   -7.5528   -3.9060    3.8802 H   0  0  0  0  0  0  0  0  0  0  0  0
   -4.1248   -6.3087    1.3566 H   0  0  0  0  0  0  0  0  0  0  0  0
   -1.3443   -4.8409   -2.3098 H   0  0  0  0  0  0  0  0  0  0  0  0
   -2.7687   -2.1374   -2.2615 H   0  0  0  0  0  0  0  0  0  0  0  0
   -1.3303   -3.3598   -4.5420 H   0  0  0  0  0  0  0  0  0  0  0  0
   -0.0978   -2.7452   -3.4110 H   0  0  0  0  0  0  0  0  0  0  0  0
   -2.2047   -0.6498   -3.8510 H   0  0  0  0  0  0  0  0  0  0  0  0
   -1.6786   -1.3285   -5.3981 H   0  0  0  0  0  0  0  0  0  0  0  0
    0.7785   -0.9038   -4.6040 H   0  0  0  0  0  0  0  0  0  0  0  0
   -1.1488    1.4438   -5.1382 H   0  0  0  0  0  0  0  0  0  0  0  0
   -0.3681    0.3787   -6.3673 H   0  0  0  0  0  0  0  0  0  0  0  0
    0.6333    1.4860   -5.3922 H   0  0  0  0  0  0  0  0  0  0  0  0
    2.9571    2.5543   -0.7732 H   0  0  0  0  0  0  0  0  0  0  0  0
    4.7185    2.3219   -0.5844 H   0  0  0  0  0  0  0  0  0  0  0  0
    3.6057    1.2418    0.3058 H   0  0  0  0  0  0  0  0  0  0  0  0
    8.1195    0.8152    2.3934 H   0  0  0  0  0  0  0  0  0  0  0  0
    4.8773   -0.0953    4.2630 H   0  0  0  0  0  0  0  0  0  0  0  0
    4.2817    0.6606    2.7239 H   0  0  0  0  0  0  0  0  0  0  0  0
    4.2984    1.6059    4.2480 H   0  0  0  0  0  0  0  0  0  0  0  0
    5.9692    3.0724    4.4852 H   0  0  0  0  0  0  0  0  0  0  0  0
    7.6396    2.4489    4.3686 H   0  0  0  0  0  0  0  0  0  0  0  0
    6.0537    3.6062    2.2945 H   0  0  0  0  0  0  0  0  0  0  0  0
  1  2  1  0
  2  3  1  0
  3  4  1  0
  4  5  1  0
  3  6  1  0
  6  7  1  0
  6  8  1  0
  8  9  2  0
  8 10  1  0
 10 11  1  0
 11 12  1  0
 12 13  1  0
 12 14  1  0
 14 15  1  0
 15 16  1  0
 16 17  1  0
 17 18  1  0
 18 19  2  0
 18 20  1  0
 20 21  1  0
 21 22  1  0
 21 23  1  0
 23 24  1  0
 24 25  1  0
 24 26  1  0
 26 27  1  0
 27 28  2  0
 27 29  1  0
 29 30  1  0
 29 31  1  0
 31 32  1  0
 32 33  1  0
 31 34  1  0
 34 35  2  0
 35 36  1  0
 36 37  1  0
 37 38  2  0
 37 39  1  0
 39 40  2  0
 40 41  1  0
 41 42  1  0
 42 43  2  0
 42 44  1  0
 44 45  2  0
 45 46  1  0
 46 47  1  0
 47 48  2  0
 47 49  1  0
 49 50  2  0
 50 51  1  0
 51 52  1  0
 52 53  1  0
 53 54  1  0
 14 55  1  0
 55 56  1  0
  1 57  2  0
 57 58  1  0
 58 59  1  0
 58 60  1  0
 60 61  1  0
 53 16  1  0
 38 34  1  0
 43 39  1  0
 48 44  1  0
  1 62  1  0
  2 63  1  0
  2 64  1  0
  3 65  1  1
  5 66  1  0
  5 67  1  0
  5 68  1  0
  6 69  1  1
  7 70  1  0
  7 71  1  0
  7 72  1  0
 10 73  1  0
 10 74  1  0
 11 75  1  0
 11 76  1  0
 12 77  1  6
 13 78  1  0
 13 79  1  0
 13 80  1  0
 14 81  1  1
 15 82  1  0
 15 83  1  0
 16 84  1  1
 20 85  1  0
 20 86  1  0
 21 87  1  1
 22 88  1  0
 23 89  1  0
 23 90  1  0
 24 91  1  1
 25 92  1  0
 26 93  1  0
 26 94  1  0
 29 95  1  6
 30 96  1  0
 30 97  1  0
 30 98  1  0
 31 99  1  6
 33100  1  0
 33101  1  0
 33102  1  0
 35103  1  0
 40104  1  0
 45105  1  0
 49106  1  0
 50107  1  0
 51108  1  0
 51109  1  0
 52110  1  0
 52111  1  0
 53112  1  6
 54113  1  0
 54114  1  0
 54115  1  0
 56116  1  0
 56117  1  0
 56118  1  0
 57119  1  0
 59120  1  0
 59121  1  0
 59122  1  0
 60123  1  0
 60124  1  0
 61125  1  0
M  END
$$$$
