
     RDKit          2D

134133  0  0  0  0  0  0  0  0999 V2000
   -3.7500   -6.4952    0.0000 C   0  0  0  0  0  0  0  0  0  0  0  0
   -3.0000   -5.1962    0.0000 C   0  0  0  0  0  0  0  0  0  0  0  0
   -2.2500   -3.8971    0.0000 C   0  0  0  0  0  0  0  0  0  0  0  0
   -1.5000   -2.5981    0.0000 C   0  0  0  0  0  0  0  0  0  0  0  0
   -0.7500   -1.2990    0.0000 C   0  0  0  0  0  0  0  0  0  0  0  0
    0.0000   -0.0000    0.0000 C   0  0  0  0  0  0  0  0  0  0  0  0
    1.5000   -0.0000    0.0000 C   0  0  0  0  0  0  0  0  0  0  0  0
    2.2500   -1.2990    0.0000 C   0  0  0  0  0  0  0  0  0  0  0  0
    3.0000   -2.5981    0.0000 C   0  0  0  0  0  0  0  0  0  0  0  0
    4.5000   -2.5981    0.0000 C   0  0  0  0  0  0  0  0  0  0  0  0
    5.2500   -1.2990    0.0000 C   0  0  0  0  0  0  0  0  0  0  0  0
    6.0000    0.0000    0.0000 C   0  0  0  0  0  0  0  0  0  0  0  0
    6.7500    1.2990    0.0000 C   0  0  0  0  0  0  0  0  0  0  0  0
    7.5000    2.5981    0.0000 C   0  0  0  0  0  0  0  0  0  0  0  0
    8.2500    3.8971    0.0000 C   0  0  0  0  0  0  0  0  0  0  0  0
    9.0000    5.1962    0.0000 C   0  0  0  0  0  0  0  0  0  0  0  0
    9.7500    6.4952    0.0000 C   0  0  0  0  0  0  0  0  0  0  0  0
   10.5000    7.7942    0.0000 C   0  0  0  0  0  0  0  0  0  0  0  0
    9.7500    9.0933    0.0000 O   0  0  0  0  0  0  0  0  0  0  0  0
   12.0000    7.7942    0.0000 O   0  0  0  0  0  0  0  0  0  0  0  0
   12.7500    9.0933    0.0000 C   0  0  0  0  0  0  0  0  0  0  0  0
   13.5000   10.3923    0.0000 C   0  0  0  0  0  0  0  0  0  0  0  0
   14.7990    9.6423    0.0000 C   0  0  0  0  0  0  0  0  0  0  0  0
   16.0981    8.8923    0.0000 O   0  0  0  0  0  0  0  0  0  0  0  0
   16.0981    7.3923    0.0000 P   0  0  0  0  0  5  0  0  0  0  0  0
   14.5981    7.3923    0.0000 O   0  0  0  0  0  1  0  0  0  0  0  0
   17.5981    7.3923    0.0000 O   0  0  0  0  0  0  0  0  0  0  0  0
   16.0981    5.8923    0.0000 O   0  0  0  0  0  0  0  0  0  0  0  0
   14.7990    5.1423    0.0000 C   0  0  0  0  0  0  0  0  0  0  0  0
   13.5000    4.3923    0.0000 C   0  0  0  0  0  0  0  0  0  0  0  0
   12.2010    3.6423    0.0000 N   0  0  0  0  0  4  0  0  0  0  0  0
   12.9510    2.3433    0.0000 C   0  0  0  0  0  0  0  0  0  0  0  0
   11.4510    4.9413    0.0000 C   0  0  0  0  0  0  0  0  0  0  0  0
   10.9019    2.8923    0.0000 C   0  0  0  0  0  0  0  0  0  0  0  0
   12.2010   11.1423    0.0000 O   0  0  0  0  0  0  0  0  0  0  0  0
   12.2010   12.6423    0.0000 C   0  0  0  0  0  0  0  0  0  0  0  0
   13.5000   13.3923    0.0000 O   0  0  0  0  0  0  0  0  0  0  0  0
   10.9019   13.3923    0.0000 C   0  0  0  0  0  0  0  0  0  0  0  0
    9.6029   14.1423    0.0000 C   0  0  0  0  0  0  0  0  0  0  0  0
    8.3038   14.8923    0.0000 C   0  0  0  0  0  0  0  0  0  0  0  0
    7.0048   15.6423    0.0000 C   0  0  0  0  0  0  0  0  0  0  0  0
    5.7058   16.3923    0.0000 C   0  0  0  0  0  0  0  0  0  0  0  0
    4.4067   17.1423    0.0000 C   0  0  0  0  0  0  0  0  0  0  0  0
    3.1077   17.8923    0.0000 C   0  0  0  0  0  0  0  0  0  0  0  0
    1.8087   18.6423    0.0000 C   0  0  0  0  0  0  0  0  0  0  0  0
    1.8087   20.1423    0.0000 C   0  0  0  0  0  0  0  0  0  0  0  0
    3.1077   20.8923    0.0000 C   0  0  0  0  0  0  0  0  0  0  0  0
    4.4067   21.6423    0.0000 C   0  0  0  0  0  0  0  0  0  0  0  0
    4.4067   23.1423    0.0000 C   0  0  0  0  0  0  0  0  0  0  0  0
    3.1077   23.8923    0.0000 C   0  0  0  0  0  0  0  0  0  0  0  0
    1.8087   24.6423    0.0000 C   0  0  0  0  0  0  0  0  0  0  0  0
    0.5096   25.3923    0.0000 C   0  0  0  0  0  0  0  0  0  0  0  0
   -0.7894   26.1423    0.0000 C   0  0  0  0  0  0  0  0  0  0  0  0
   -2.0885   26.8923    0.0000 C   0  0  0  0  0  0  0  0  0  0  0  0
   -5.0490   -5.7452    0.0000 H   0  0  0  0  0  0  0  0  0  0  0  0
   -2.4510   -7.2452    0.0000 H   0  0  0  0  0  0  0  0  0  0  0  0
   -4.5000   -7.7942    0.0000 H   0  0  0  0  0  0  0  0  0  0  0  0
   -1.7010   -5.9462    0.0000 H   0  0  0  0  0  0  0  0  0  0  0  0
   -4.2990   -4.4462    0.0000 H   0  0  0  0  0  0  0  0  0  0  0  0
   -3.5490   -3.1471    0.0000 H   0  0  0  0  0  0  0  0  0  0  0  0
   -0.9510   -4.6471    0.0000 H   0  0  0  0  0  0  0  0  0  0  0  0
   -0.2010   -3.3481    0.0000 H   0  0  0  0  0  0  0  0  0  0  0  0
   -2.7990   -1.8481    0.0000 H   0  0  0  0  0  0  0  0  0  0  0  0
   -2.0490   -0.5490    0.0000 H   0  0  0  0  0  0  0  0  0  0  0  0
    0.2203   -2.0303    0.0000 H   0  0  0  0  0  0  0  0  0  0  0  0
   -0.7500    1.2990    0.0000 H   0  0  0  0  0  0  0  0  0  0  0  0
    2.2500    1.2990    0.0000 H   0  0  0  0  0  0  0  0  0  0  0  0
    1.2797   -2.0303    0.0000 H   0  0  0  0  0  0  0  0  0  0  0  0
    3.2203   -0.5678    0.0000 H   0  0  0  0  0  0  0  0  0  0  0  0
    2.2500   -3.8971    0.0000 H   0  0  0  0  0  0  0  0  0  0  0  0
    5.2500   -3.8971    0.0000 H   0  0  0  0  0  0  0  0  0  0  0  0
    6.5490   -2.0490    0.0000 H   0  0  0  0  0  0  0  0  0  0  0  0
    4.2797   -0.5678    0.0000 H   0  0  0  0  0  0  0  0  0  0  0  0
    7.2990   -0.7500    0.0000 H   0  0  0  0  0  0  0  0  0  0  0  0
    4.7010    0.7500    0.0000 H   0  0  0  0  0  0  0  0  0  0  0  0
    5.4510    2.0490    0.0000 H   0  0  0  0  0  0  0  0  0  0  0  0
    8.0490    0.5490    0.0000 H   0  0  0  0  0  0  0  0  0  0  0  0
    6.2010    3.3481    0.0000 H   0  0  0  0  0  0  0  0  0  0  0  0
    8.6979    1.6953    0.0000 H   0  0  0  0  0  0  0  0  0  0  0  0
    9.5490    3.1471    0.0000 H   0  0  0  0  0  0  0  0  0  0  0  0
    6.9510    4.6471    0.0000 H   0  0  0  0  0  0  0  0  0  0  0  0
    7.7010    5.9462    0.0000 H   0  0  0  0  0  0  0  0  0  0  0  0
   10.2990    4.4462    0.0000 H   0  0  0  0  0  0  0  0  0  0  0  0
   11.1308    5.9091    0.0000 H   0  0  0  0  0  0  0  0  0  0  0  0
    8.4510    7.2452    0.0000 H   0  0  0  0  0  0  0  0  0  0  0  0
   13.4574    8.5602    0.0000 H   0  0  0  0  0  0  0  0  0  0  0  0
   11.4510    9.8433    0.0000 H   0  0  0  0  0  0  0  0  0  0  0  0
   14.2500   11.6913    0.0000 H   0  0  0  0  0  0  0  0  0  0  0  0
   14.4530    8.8270    0.0000 H   0  0  0  0  0  0  0  0  0  0  0  0
   15.5490   10.9413    0.0000 H   0  0  0  0  0  0  0  0  0  0  0  0
   15.5490    3.8433    0.0000 H   0  0  0  0  0  0  0  0  0  0  0  0
   14.0490    6.4413    0.0000 H   0  0  0  0  0  0  0  0  0  0  0  0
   12.9725    5.6350    0.0000 H   0  0  0  0  0  0  0  0  0  0  0  0
   14.0331    3.6849    0.0000 H   0  0  0  0  0  0  0  0  0  0  0  0
   11.7530    1.4405    0.0000 H   0  0  0  0  0  0  0  0  0  0  0  0
   13.7663    2.6893    0.0000 H   0  0  0  0  0  0  0  0  0  0  0  0
   13.7010    1.0442    0.0000 H   0  0  0  0  0  0  0  0  0  0  0  0
   12.5291    5.7538    0.0000 H   0  0  0  0  0  0  0  0  0  0  0  0
   10.1519    4.1913    0.0000 H   0  0  0  0  0  0  0  0  0  0  0  0
   10.8649    6.3221    0.0000 H   0  0  0  0  0  0  0  0  0  0  0  0
   11.4880    1.5115    0.0000 H   0  0  0  0  0  0  0  0  0  0  0  0
   10.1519    4.1913    0.0000 H   0  0  0  0  0  0  0  0  0  0  0  0
    9.7040    1.9896    0.0000 H   0  0  0  0  0  0  0  0  0  0  0  0
   11.6519   14.6913    0.0000 H   0  0  0  0  0  0  0  0  0  0  0  0
   10.1519   12.0933    0.0000 H   0  0  0  0  0  0  0  0  0  0  0  0
    8.8529   12.8433    0.0000 H   0  0  0  0  0  0  0  0  0  0  0  0
   10.3529   15.4413    0.0000 H   0  0  0  0  0  0  0  0  0  0  0  0
    9.0538   16.1913    0.0000 H   0  0  0  0  0  0  0  0  0  0  0  0
    7.5538   13.5933    0.0000 H   0  0  0  0  0  0  0  0  0  0  0  0
    6.2548   14.3433    0.0000 H   0  0  0  0  0  0  0  0  0  0  0  0
    7.7548   16.9413    0.0000 H   0  0  0  0  0  0  0  0  0  0  0  0
    4.9558   15.0933    0.0000 H   0  0  0  0  0  0  0  0  0  0  0  0
    6.4558   17.6913    0.0000 H   0  0  0  0  0  0  0  0  0  0  0  0
    5.1567   18.4413    0.0000 H   0  0  0  0  0  0  0  0  0  0  0  0
    3.6567   15.8433    0.0000 H   0  0  0  0  0  0  0  0  0  0  0  0
    2.3577   16.5933    0.0000 H   0  0  0  0  0  0  0  0  0  0  0  0
    4.0104   19.0902    0.0000 H   0  0  0  0  0  0  0  0  0  0  0  0
    0.5096   17.8923    0.0000 H   0  0  0  0  0  0  0  0  0  0  0  0
    0.5096   20.8923    0.0000 H   0  0  0  0  0  0  0  0  0  0  0  0
    2.2049   22.0902    0.0000 H   0  0  0  0  0  0  0  0  0  0  0  0
    4.0104   19.6944    0.0000 H   0  0  0  0  0  0  0  0  0  0  0  0
    5.7058   20.8923    0.0000 H   0  0  0  0  0  0  0  0  0  0  0  0
    5.7058   23.8923    0.0000 H   0  0  0  0  0  0  0  0  0  0  0  0
    3.8577   25.1913    0.0000 H   0  0  0  0  0  0  0  0  0  0  0  0
    2.2049   22.6944    0.0000 H   0  0  0  0  0  0  0  0  0  0  0  0
    2.5587   25.9413    0.0000 H   0  0  0  0  0  0  0  0  0  0  0  0
    1.0587   23.3433    0.0000 H   0  0  0  0  0  0  0  0  0  0  0  0
   -0.2404   24.0933    0.0000 H   0  0  0  0  0  0  0  0  0  0  0  0
    1.2596   26.6913    0.0000 H   0  0  0  0  0  0  0  0  0  0  0  0
   -0.0394   27.4413    0.0000 H   0  0  0  0  0  0  0  0  0  0  0  0
   -1.5394   24.8433    0.0000 H   0  0  0  0  0  0  0  0  0  0  0  0
   -2.8385   25.5933    0.0000 H   0  0  0  0  0  0  0  0  0  0  0  0
   -1.3385   28.1913    0.0000 H   0  0  0  0  0  0  0  0  0  0  0  0
   -3.3875   27.6423    0.0000 H   0  0  0  0  0  0  0  0  0  0  0  0
  1  2  1  0
  2  3  1  0
  3  4  1  0
  4  5  1  0
  5  6  1  0
  6  7  2  0
  7  8  1  0
  8  9  1  0
  9 10  2  0
 10 11  1  0
 11 12  1  0
 12 13  1  0
 13 14  1  0
 14 15  1  0
 15 16  1  0
 16 17  1  0
 17 18  1  0
 18 19  2  0
 18 20  1  0
 20 21  1  0
 21 22  1  0
 22 23  1  0
 23 24  1  0
 24 25  1  0
 25 26  1  0
 25 27  2  0
 25 28  1  0
 28 29  1  0
 29 30  1  0
 30 31  1  0
 31 32  1  0
 31 33  1  0
 31 34  1  0
 22 35  1  0
 35 36  1  0
 36 37  2  0
 36 38  1  0
 38 39  1  0
 39 40  1  0
 40 41  1  0
 41 42  1  0
 42 43  1  0
 43 44  1  0
 44 45  1  0
 45 46  2  0
 46 47  1  0
 47 48  1  0
 48 49  2  0
 49 50  1  0
 50 51  1  0
 51 52  1  0
 52 53  1  0
 53 54  1  0
  1 55  1  0
  1 56  1  0
  1 57  1  0
  2 58  1  0
  2 59  1  0
  3 60  1  0
  3 61  1  0
  4 62  1  0
  4 63  1  0
  5 64  1  0
  5 65  1  0
  6 66  1  0
  7 67  1  0
  8 68  1  0
  8 69  1  0
  9 70  1  0
 10 71  1  0
 11 72  1  0
 11 73  1  0
 12 74  1  0
 12 75  1  0
 13 76  1  0
 13 77  1  0
 14 78  1  0
 14 79  1  0
 15 80  1  0
 15 81  1  0
 16 82  1  0
 16 83  1  0
 17 84  1  0
 17 85  1  0
 21 86  1  0
 21 87  1  0
 22 88  1  6
 23 89  1  0
 23 90  1  0
 29 91  1  0
 29 92  1  0
 30 93  1  0
 30 94  1  0
 32 95  1  0
 32 96  1  0
 32 97  1  0
 33 98  1  0
 33 99  1  0
 33100  1  0
 34101  1  0
 34102  1  0
 34103  1  0
 38104  1  0
 38105  1  0
 39106  1  0
 39107  1  0
 40108  1  0
 40109  1  0
 41110  1  0
 41111  1  0
 42112  1  0
 42113  1  0
 43114  1  0
 43115  1  0
 44116  1  0
 44117  1  0
 45118  1  0
 46119  1  0
 47120  1  0
 47121  1  0
 48122  1  0
 49123  1  0
 50124  1  0
 50125  1  0
 51126  1  0
 51127  1  0
 52128  1  0
 52129  1  0
 53130  1  0
 53131  1  0
 54132  1  0
 54133  1  0
 54134  1  0
M  CHG  2  26  -1  31   1
M  END
$$$$
