
     RDKit          3D

 59 59  0  0  0  0  0  0  0  0999 V2000
    3.1336   -0.1063    1.4933 N   0  0  0  0  0  0  0  0  0  0  0  0
    4.5465   -0.5036    1.4896 C   0  0  1  0  0  0  0  0  0  0  0  0
    5.0787   -0.7650    0.0650 C   0  0  0  0  0  0  0  0  0  0  0  0
    4.7638    0.3375   -0.9572 C   0  0  0  0  0  0  0  0  0  0  0  0
    5.5746    1.6263   -0.7400 C   0  0  1  0  0  0  0  0  0  0  0  0
    5.3989    2.4684   -1.8505 O   0  0  0  0  0  0  0  0  0  0  0  0
    5.1161    2.3791    0.5149 C   0  0  0  0  0  0  0  0  0  0  0  0
    5.6954    1.8031    1.7265 N   0  0  0  0  0  0  0  0  0  0  0  0
    5.3955    0.4961    2.2386 C   0  0  0  0  0  0  0  0  0  0  0  0
    5.8573    0.1688    3.3650 O   0  0  0  0  0  0  0  0  0  0  0  0
    2.0788   -1.0164    1.1457 C   0  0  0  0  0  0  0  0  0  0  0  0
    2.3373   -2.2279    0.9070 O   0  0  0  0  0  0  0  0  0  0  0  0
    0.6493   -0.5368    1.0865 C   0  0  2  0  0  0  0  0  0  0  0  0
   -0.1266   -1.2815    2.0111 O   0  0  0  0  0  0  0  0  0  0  0  0
   -0.1217   -0.6567    3.2765 C   0  0  0  0  0  0  0  0  0  0  0  0
    0.0739   -0.7345   -0.3357 C   0  0  2  0  0  0  0  0  0  0  0  0
    0.8777   -0.0550   -1.2702 O   0  0  0  0  0  0  0  0  0  0  0  0
   -1.3792   -0.2105   -0.4330 C   0  0  1  0  0  0  0  0  0  0  0  0
   -1.3902    1.1874   -0.2738 O   0  0  0  0  0  0  0  0  0  0  0  0
   -2.0436   -0.6119   -1.7781 C   0  0  2  0  0  0  0  0  0  0  0  0
   -1.3712   -0.0434   -2.8755 O   0  0  0  0  0  0  0  0  0  0  0  0
   -3.5085   -0.2353   -1.8115 C   0  0  0  0  0  0  0  0  0  0  0  0
   -4.4142   -0.8682   -1.0440 C   0  0  0  0  0  0  0  0  0  0  0  0
   -5.8935   -0.5078   -1.0430 C   0  0  0  0  0  0  0  0  0  0  0  0
   -6.6319   -1.4224   -0.0455 C   0  0  0  0  0  0  0  0  0  0  0  0
   -6.0814    0.9586   -0.6047 C   0  0  0  0  0  0  0  0  0  0  0  0
   -6.4938   -0.7176   -2.4475 C   0  0  0  0  0  0  0  0  0  0  0  0
    2.8690    0.8478    1.8267 H   0  0  0  0  0  0  0  0  0  0  0  0
    4.6281   -1.4683    2.0402 H   0  0  0  0  0  0  0  0  0  0  0  0
    4.6247   -1.7081   -0.3086 H   0  0  0  0  0  0  0  0  0  0  0  0
    6.1762   -0.9429    0.1001 H   0  0  0  0  0  0  0  0  0  0  0  0
    5.0164   -0.0641   -1.9630 H   0  0  0  0  0  0  0  0  0  0  0  0
    3.6761    0.5625   -0.9725 H   0  0  0  0  0  0  0  0  0  0  0  0
    6.6580    1.3792   -0.6351 H   0  0  0  0  0  0  0  0  0  0  0  0
    5.9810    2.1181   -2.5749 H   0  0  0  0  0  0  0  0  0  0  0  0
    4.0093    2.4093    0.5872 H   0  0  0  0  0  0  0  0  0  0  0  0
    5.4559    3.4356    0.4372 H   0  0  0  0  0  0  0  0  0  0  0  0
    6.3343    2.4088    2.2902 H   0  0  0  0  0  0  0  0  0  0  0  0
    0.6208    0.5602    1.2962 H   0  0  0  0  0  0  0  0  0  0  0  0
   -0.6639    0.3137    3.2383 H   0  0  0  0  0  0  0  0  0  0  0  0
    0.9145   -0.5086    3.6547 H   0  0  0  0  0  0  0  0  0  0  0  0
   -0.6531   -1.3117    3.9968 H   0  0  0  0  0  0  0  0  0  0  0  0
    0.0581   -1.8294   -0.5592 H   0  0  0  0  0  0  0  0  0  0  0  0
    1.5485   -0.7042   -1.6084 H   0  0  0  0  0  0  0  0  0  0  0  0
   -1.9632   -0.6853    0.3902 H   0  0  0  0  0  0  0  0  0  0  0  0
   -2.2901    1.4352    0.0647 H   0  0  0  0  0  0  0  0  0  0  0  0
   -1.9799   -1.7169   -1.8880 H   0  0  0  0  0  0  0  0  0  0  0  0
   -1.4434    0.9441   -2.8001 H   0  0  0  0  0  0  0  0  0  0  0  0
   -3.8270    0.5536   -2.4861 H   0  0  0  0  0  0  0  0  0  0  0  0
   -4.0708   -1.6696   -0.3934 H   0  0  0  0  0  0  0  0  0  0  0  0
   -7.7173   -1.1836   -0.0197 H   0  0  0  0  0  0  0  0  0  0  0  0
   -6.2234   -1.2933    0.9805 H   0  0  0  0  0  0  0  0  0  0  0  0
   -6.5179   -2.4899   -0.3348 H   0  0  0  0  0  0  0  0  0  0  0  0
   -7.1617    1.2117   -0.5395 H   0  0  0  0  0  0  0  0  0  0  0  0
   -5.6206    1.1286    0.3927 H   0  0  0  0  0  0  0  0  0  0  0  0
   -5.6118    1.6571   -1.3294 H   0  0  0  0  0  0  0  0  0  0  0  0
   -7.5870   -0.5169   -2.4391 H   0  0  0  0  0  0  0  0  0  0  0  0
   -6.3323   -1.7636   -2.7874 H   0  0  0  0  0  0  0  0  0  0  0  0
   -6.0291   -0.0336   -3.1889 H   0  0  0  0  0  0  0  0  0  0  0  0
  1  2  1  0
  2  3  1  0
  3  4  1  0
  4  5  1  0
  5  6  1  0
  5  7  1  0
  7  8  1  0
  8  9  1  0
  9 10  2  0
  1 11  1  0
 11 12  2  0
 11 13  1  0
 13 14  1  0
 14 15  1  0
 13 16  1  0
 16 17  1  0
 16 18  1  0
 18 19  1  0
 18 20  1  0
 20 21  1  0
 20 22  1  0
 22 23  2  0
 23 24  1  0
 24 25  1  0
 24 26  1  0
 24 27  1  0
  9  2  1  0
  1 28  1  0
  2 29  1  1
  3 30  1  0
  3 31  1  0
  4 32  1  0
  4 33  1  0
  5 34  1  1
  6 35  1  0
  7 36  1  0
  7 37  1  0
  8 38  1  0
 13 39  1  1
 15 40  1  0
 15 41  1  0
 15 42  1  0
 16 43  1  6
 17 44  1  0
 18 45  1  1
 19 46  1  0
 20 47  1  6
 21 48  1  0
 22 49  1  0
 23 50  1  0
 25 51  1  0
 25 52  1  0
 25 53  1  0
 26 54  1  0
 26 55  1  0
 26 56  1  0
 27 57  1  0
 27 58  1  0
 27 59  1  0
M  END
$$$$
