
     RDKit          3D

 40 41  0  0  0  0  0  0  0  0999 V2000
    4.6398   -0.9419   -0.3098 C   0  0  2  0  0  0  0  0  0  0  0  0
    5.0672   -1.8025    0.7142 O   0  0  0  0  0  0  0  0  0  0  0  0
    5.8049   -0.0299   -0.7199 C   0  0  0  0  0  0  0  0  0  0  0  0
    6.8637   -0.7918   -1.2349 O   0  0  0  0  0  0  0  0  0  0  0  0
    3.4391   -0.1197    0.1785 C   0  0  0  0  0  0  0  0  0  0  0  0
    2.9319    0.6610   -0.8787 O   0  0  0  0  0  0  0  0  0  0  0  0
    1.8842    1.3661   -0.3747 N   0  0  0  0  0  0  0  0  0  0  0  0
    0.5416    0.8872   -0.5266 C   0  0  0  0  0  0  0  0  0  0  0  0
    0.3435   -0.2343   -1.0676 O   0  0  0  0  0  0  0  0  0  0  0  0
   -0.6108    1.6957   -0.0622 C   0  0  0  0  0  0  0  0  0  0  0  0
   -1.7622    1.0874    0.4950 C   0  0  0  0  0  0  0  0  0  0  0  0
   -1.7970   -0.3303    0.7327 N   0  0  0  0  0  0  0  0  0  0  0  0
   -2.8814   -1.1838    0.3227 C   0  0  0  0  0  0  0  0  0  0  0  0
   -3.7565   -0.8036   -0.7130 C   0  0  0  0  0  0  0  0  0  0  0  0
   -4.7921   -1.6537   -1.1111 C   0  0  0  0  0  0  0  0  0  0  0  0
   -4.9603   -2.8936   -0.4891 C   0  0  0  0  0  0  0  0  0  0  0  0
   -6.5232   -4.1744   -1.0932 I   0  0  0  0  0  0  0  0  0  0  0  0
   -4.0877   -3.2864    0.5296 C   0  0  0  0  0  0  0  0  0  0  0  0
   -3.0494   -2.4399    0.9319 C   0  0  0  0  0  0  0  0  0  0  0  0
   -2.2154   -2.8395    1.9249 F   0  0  0  0  0  0  0  0  0  0  0  0
   -2.8445    1.8913    0.9012 C   0  0  0  0  0  0  0  0  0  0  0  0
   -3.9310    1.3332    1.4930 F   0  0  0  0  0  0  0  0  0  0  0  0
   -2.7970    3.2772    0.7333 C   0  0  0  0  0  0  0  0  0  0  0  0
   -3.8433    4.0455    1.1257 F   0  0  0  0  0  0  0  0  0  0  0  0
   -1.6694    3.8753    0.1720 C   0  0  0  0  0  0  0  0  0  0  0  0
   -0.5827    3.0928   -0.2214 C   0  0  0  0  0  0  0  0  0  0  0  0
    4.3313   -1.5379   -1.2012 H   0  0  0  0  0  0  0  0  0  0  0  0
    4.4301   -2.5639    0.7350 H   0  0  0  0  0  0  0  0  0  0  0  0
    5.4693    0.6724   -1.5123 H   0  0  0  0  0  0  0  0  0  0  0  0
    6.1479    0.5788    0.1488 H   0  0  0  0  0  0  0  0  0  0  0  0
    7.3724   -1.1390   -0.4562 H   0  0  0  0  0  0  0  0  0  0  0  0
    2.6546   -0.8225    0.5419 H   0  0  0  0  0  0  0  0  0  0  0  0
    3.7585    0.5290    1.0269 H   0  0  0  0  0  0  0  0  0  0  0  0
    2.0697    2.2829    0.0910 H   0  0  0  0  0  0  0  0  0  0  0  0
   -0.9727   -0.7620    1.2088 H   0  0  0  0  0  0  0  0  0  0  0  0
   -3.6329    0.1428   -1.2229 H   0  0  0  0  0  0  0  0  0  0  0  0
   -5.4601   -1.3502   -1.9068 H   0  0  0  0  0  0  0  0  0  0  0  0
   -4.2138   -4.2484    1.0094 H   0  0  0  0  0  0  0  0  0  0  0  0
   -1.6364    4.9492    0.0395 H   0  0  0  0  0  0  0  0  0  0  0  0
    0.2703    3.5813   -0.6751 H   0  0  0  0  0  0  0  0  0  0  0  0
  1  2  1  0
  1  3  1  0
  3  4  1  0
  1  5  1  0
  5  6  1  0
  6  7  1  0
  7  8  1  0
  8  9  2  0
  8 10  1  0
 10 11  2  0
 11 12  1  0
 12 13  1  0
 13 14  2  0
 14 15  1  0
 15 16  2  0
 16 17  1  0
 16 18  1  0
 18 19  2  0
 19 20  1  0
 11 21  1  0
 21 22  1  0
 21 23  2  0
 23 24  1  0
 23 25  1  0
 25 26  2  0
 26 10  1  0
 19 13  1  0
  1 27  1  6
  2 28  1  0
  3 29  1  0
  3 30  1  0
  4 31  1  0
  5 32  1  0
  5 33  1  0
  7 34  1  0
 12 35  1  0
 14 36  1  0
 15 37  1  0
 18 38  1  0
 25 39  1  0
 26 40  1  0
M  END
$$$$
