
     RDKit          3D

 37 40  0  0  0  0  0  0  0  0999 V2000
    4.4576   -1.4658   -0.0738 C   0  0  0  0  0  0  0  0  0  0  0  0
    3.5694   -1.2036    1.0054 O   0  0  0  0  0  0  0  0  0  0  0  0
    2.6904   -0.1171    0.9738 C   0  0  0  0  0  0  0  0  0  0  0  0
    3.1298    1.1390    1.4176 C   0  0  0  0  0  0  0  0  0  0  0  0
    4.4207    1.3238    1.9130 O   0  0  0  0  0  0  0  0  0  0  0  0
    2.2624    2.2255    1.3828 C   0  0  0  0  0  0  0  0  0  0  0  0
    0.9605    2.0813    0.9065 C   0  0  0  0  0  0  0  0  0  0  0  0
    0.4879    0.8348    0.4323 C   0  0  0  0  0  0  0  0  0  0  0  0
    1.3637   -0.2808    0.5114 C   0  0  0  0  0  0  0  0  0  0  0  0
    0.9184   -1.5435    0.1065 C   0  0  0  0  0  0  0  0  0  0  0  0
   -0.3898   -1.7545   -0.3346 C   0  0  0  0  0  0  0  0  0  0  0  0
   -1.3211   -0.6818   -0.3290 C   0  0  0  0  0  0  0  0  0  0  0  0
   -0.8358    0.6464   -0.0701 C   0  0  0  0  0  0  0  0  0  0  0  0
   -1.7202    1.7089   -0.3639 C   0  0  0  0  0  0  0  0  0  0  0  0
   -3.0019    1.4985   -0.7581 C   0  0  0  0  0  0  0  0  0  0  0  0
   -3.6339    2.7035   -0.9970 O   0  0  0  0  0  0  0  0  0  0  0  0
   -2.6917    3.7503   -0.7573 C   0  0  0  0  0  0  0  0  0  0  0  0
   -1.4924    3.0754   -0.3663 O   0  0  0  0  0  0  0  0  0  0  0  0
   -3.5437    0.2337   -0.8674 C   0  0  0  0  0  0  0  0  0  0  0  0
   -2.7210   -0.8775   -0.6072 C   0  0  0  0  0  0  0  0  0  0  0  0
   -3.3946   -2.1892   -0.4774 C   0  0  0  0  0  0  0  0  0  0  0  0
   -3.0292   -3.0662    0.5403 O   0  0  0  0  0  0  0  0  0  0  0  0
   -4.3409   -2.4958   -1.2523 O   0  0  0  0  0  0  0  0  0  0  0  0
   -0.6938   -3.0191   -0.9453 N   0  0  0  0  0  4  0  0  0  0  0  0
   -1.2401   -3.0523   -2.2079 O   0  0  0  0  0  1  0  0  0  0  0  0
   -0.2546   -4.0773   -0.4491 O   0  0  0  0  0  0  0  0  0  0  0  0
    5.1365   -0.6015   -0.2312 H   0  0  0  0  0  0  0  0  0  0  0  0
    5.0646   -2.3633    0.1633 H   0  0  0  0  0  0  0  0  0  0  0  0
    3.8804   -1.6558   -1.0033 H   0  0  0  0  0  0  0  0  0  0  0  0
    5.0834    0.5627    1.9964 H   0  0  0  0  0  0  0  0  0  0  0  0
    2.5948    3.1902    1.7457 H   0  0  0  0  0  0  0  0  0  0  0  0
    0.3361    2.9528    0.9758 H   0  0  0  0  0  0  0  0  0  0  0  0
    1.6041   -2.3820    0.0991 H   0  0  0  0  0  0  0  0  0  0  0  0
   -3.0478    4.4069    0.0640 H   0  0  0  0  0  0  0  0  0  0  0  0
   -2.5191    4.3323   -1.6867 H   0  0  0  0  0  0  0  0  0  0  0  0
   -4.5944    0.1203   -1.1054 H   0  0  0  0  0  0  0  0  0  0  0  0
   -3.4947   -3.9593    0.6492 H   0  0  0  0  0  0  0  0  0  0  0  0
  1  2  1  0
  2  3  1  0
  3  4  2  0
  4  5  1  0
  4  6  1  0
  6  7  2  0
  7  8  1  0
  8  9  2  0
  9 10  1  0
 10 11  2  0
 11 12  1  0
 12 13  2  0
 13 14  1  0
 14 15  2  0
 15 16  1  0
 16 17  1  0
 17 18  1  0
 15 19  1  0
 19 20  2  0
 20 21  1  0
 21 22  1  0
 21 23  2  0
 11 24  1  0
 24 25  1  0
 24 26  2  0
  9  3  1  0
 20 12  1  0
 13  8  1  0
 18 14  1  0
  1 27  1  0
  1 28  1  0
  1 29  1  0
  5 30  1  0
  6 31  1  0
  7 32  1  0
 10 33  1  0
 17 34  1  0
 17 35  1  0
 19 36  1  0
 22 37  1  0
M  CHG  2  24   1  25  -1
M  END
$$$$
