
     RDKit          3D

 54 59  0  0  0  0  0  0  0  0999 V2000
   -0.7954   -1.3694    2.0559 C   0  0  2  0  0  0  0  0  0  0  0  0
   -0.3090   -2.5762    2.8565 C   0  0  0  0  0  0  0  0  0  0  0  0
    0.7064   -3.2805    1.9270 C   0  0  0  0  0  0  0  0  0  0  0  0
    1.1249   -2.2757    0.9510 N   0  0  0  0  0  0  0  0  0  0  0  0
    0.3906   -1.0939    1.2126 C   0  0  0  0  0  0  0  0  0  0  0  0
    0.7379    0.0474    0.8018 O   0  0  0  0  0  0  0  0  0  0  0  0
    1.9234   -2.5674   -0.2223 C   0  0  0  0  0  0  0  0  0  0  0  0
    1.6246   -2.0591   -1.5266 C   0  0  0  0  0  0  0  0  0  0  0  0
    0.4857   -1.2745   -1.8049 C   0  0  0  0  0  0  0  0  0  0  0  0
    0.3377   -0.6260   -3.0332 C   0  0  0  0  0  0  0  0  0  0  0  0
   -0.6221    0.3825   -3.1757 O   0  0  0  0  0  0  0  0  0  0  0  0
   -0.6497    1.4766   -2.2946 C   0  0  0  0  0  0  0  0  0  0  0  0
    0.4472    2.3600   -2.1988 C   0  0  0  0  0  0  0  0  0  0  0  0
    0.4095    3.4248   -1.2920 C   0  0  0  0  0  0  0  0  0  0  0  0
   -0.7039    3.6151   -0.4742 C   0  0  0  0  0  0  0  0  0  0  0  0
   -1.7981    2.7414   -0.5492 C   0  0  0  0  0  0  0  0  0  0  0  0
   -2.9928    2.9588    0.3473 C   0  0  0  0  0  0  0  0  0  0  0  0
   -2.5887    3.0249    1.7575 N   0  0  0  0  0  0  0  0  0  0  0  0
   -2.5254    4.1354    2.5195 C   0  0  0  0  0  0  0  0  0  0  0  0
   -2.1610    3.8725    3.7928 N   0  0  0  0  0  0  0  0  0  0  0  0
   -1.9840    2.5358    3.8253 C   0  0  0  0  0  0  0  0  0  0  0  0
   -2.2264    2.0132    2.5725 C   0  0  0  0  0  0  0  0  0  0  0  0
   -2.2394    0.5584    2.1946 C   0  0  0  0  0  0  0  0  0  0  0  0
   -1.2046   -0.2284    2.8967 N   0  0  0  0  0  0  0  0  0  0  0  0
   -1.7760    1.6880   -1.4846 C   0  0  0  0  0  0  0  0  0  0  0  0
    1.6045    2.2103   -3.0452 C   0  0  0  0  0  0  0  0  0  0  0  0
    2.5350    2.0932   -3.7232 N   0  0  0  0  0  0  0  0  0  0  0  0
    1.1878   -0.9456   -4.0912 C   0  0  0  0  0  0  0  0  0  0  0  0
    2.2600   -1.8152   -3.8838 C   0  0  0  0  0  0  0  0  0  0  0  0
    2.5058   -2.3492   -2.6062 C   0  0  0  0  0  0  0  0  0  0  0  0
    3.6216   -3.1696   -2.3999 C   0  0  0  0  0  0  0  0  0  0  0  0
    3.8855   -3.6912   -1.1373 C   0  0  0  0  0  0  0  0  0  0  0  0
    3.0509   -3.3917   -0.0623 C   0  0  0  0  0  0  0  0  0  0  0  0
   -1.6277   -1.7220    1.4012 H   0  0  0  0  0  0  0  0  0  0  0  0
   -1.1502   -3.2511    3.1257 H   0  0  0  0  0  0  0  0  0  0  0  0
    0.2058   -2.2391    3.7838 H   0  0  0  0  0  0  0  0  0  0  0  0
    1.5757   -3.6480    2.5123 H   0  0  0  0  0  0  0  0  0  0  0  0
    0.2169   -4.1290    1.4011 H   0  0  0  0  0  0  0  0  0  0  0  0
   -0.3102   -1.1352   -1.0976 H   0  0  0  0  0  0  0  0  0  0  0  0
    1.2438    4.1124   -1.2181 H   0  0  0  0  0  0  0  0  0  0  0  0
   -0.7115    4.4458    0.2203 H   0  0  0  0  0  0  0  0  0  0  0  0
   -3.7419    2.1476    0.2191 H   0  0  0  0  0  0  0  0  0  0  0  0
   -3.4912    3.9074    0.0513 H   0  0  0  0  0  0  0  0  0  0  0  0
   -2.7544    5.1299    2.1587 H   0  0  0  0  0  0  0  0  0  0  0  0
   -1.7073    1.9805    4.7117 H   0  0  0  0  0  0  0  0  0  0  0  0
   -3.2379    0.1396    2.4405 H   0  0  0  0  0  0  0  0  0  0  0  0
   -2.1087    0.4938    1.0931 H   0  0  0  0  0  0  0  0  0  0  0  0
   -0.3698    0.3667    3.1140 H   0  0  0  0  0  0  0  0  0  0  0  0
   -2.6163    1.0091   -1.5612 H   0  0  0  0  0  0  0  0  0  0  0  0
    1.0515   -0.4778   -5.0579 H   0  0  0  0  0  0  0  0  0  0  0  0
    2.9237   -2.0359   -4.7116 H   0  0  0  0  0  0  0  0  0  0  0  0
    4.2937   -3.4050   -3.2168 H   0  0  0  0  0  0  0  0  0  0  0  0
    4.7518   -4.3226   -0.9864 H   0  0  0  0  0  0  0  0  0  0  0  0
    3.3019   -3.7915    0.9110 H   0  0  0  0  0  0  0  0  0  0  0  0
  1  2  1  0
  2  3  1  0
  3  4  1  0
  4  5  1  0
  5  6  2  0
  4  7  1  0
  7  8  2  0
  8  9  1  0
  9 10  2  0
 10 11  1  0
 11 12  1  0
 12 13  2  0
 13 14  1  0
 14 15  2  0
 15 16  1  0
 16 17  1  0
 17 18  1  0
 18 19  1  0
 19 20  2  0
 20 21  1  0
 21 22  2  0
 22 23  1  0
 23 24  1  0
 16 25  2  0
 13 26  1  0
 26 27  3  0
 10 28  1  0
 28 29  2  0
 29 30  1  0
 30 31  2  0
 31 32  1  0
 32 33  2  0
  5  1  1  0
 33  7  1  0
 24  1  1  0
 30  8  1  0
 25 12  1  0
 22 18  1  0
  1 34  1  6
  2 35  1  0
  2 36  1  0
  3 37  1  0
  3 38  1  0
  9 39  1  0
 14 40  1  0
 15 41  1  0
 17 42  1  0
 17 43  1  0
 19 44  1  0
 21 45  1  0
 23 46  1  0
 23 47  1  0
 24 48  1  0
 25 49  1  0
 28 50  1  0
 29 51  1  0
 31 52  1  0
 32 53  1  0
 33 54  1  0
M  END
$$$$
