
     RDKit          3D

 15 15  0  0  0  0  0  0  0  0999 V2000
   -2.7092   -0.3585    0.6818 N   0  0  0  0  0  0  0  0  0  0  0  0
   -1.5211   -0.9715    0.1736 C   0  0  0  0  0  0  0  0  0  0  0  0
   -1.5715   -2.1728   -0.2055 O   0  0  0  0  0  0  0  0  0  0  0  0
   -0.2446   -0.2229    0.0694 C   0  0  0  0  0  0  0  0  0  0  0  0
    0.0062    0.9182    0.8529 C   0  0  0  0  0  0  0  0  0  0  0  0
    1.1884    1.5811    0.7418 N   0  0  0  0  0  0  0  0  0  0  0  0
    2.1610    1.1748   -0.1151 C   0  0  0  0  0  0  0  0  0  0  0  0
    1.9653    0.0423   -0.9064 C   0  0  0  0  0  0  0  0  0  0  0  0
    3.3295   -0.5416   -2.1089 Br  0  0  0  0  0  0  0  0  0  0  0  0
    0.7614   -0.6592   -0.8098 C   0  0  0  0  0  0  0  0  0  0  0  0
   -3.5777   -0.9262    0.7986 H   0  0  0  0  0  0  0  0  0  0  0  0
   -2.7662    0.6675    0.8611 H   0  0  0  0  0  0  0  0  0  0  0  0
   -0.7190    1.2742    1.5706 H   0  0  0  0  0  0  0  0  0  0  0  0
    3.0874    1.7302   -0.1760 H   0  0  0  0  0  0  0  0  0  0  0  0
    0.6101   -1.5356   -1.4280 H   0  0  0  0  0  0  0  0  0  0  0  0
  1  2  1  0
  2  3  2  0
  2  4  1  0
  4  5  2  0
  5  6  1  0
  6  7  2  0
  7  8  1  0
  8  9  1  0
  8 10  2  0
 10  4  1  0
  1 11  1  0
  1 12  1  0
  5 13  1  0
  7 14  1  0
 10 15  1  0
M  END
$$$$
