
     RDKit          3D

 23 23  0  0  0  0  0  0  0  0999 V2000
    4.3444    0.3425    0.7686 N   0  0  0  0  0  0  0  0  0  0  0  0
    3.0551   -0.1359    0.3774 C   0  0  0  0  0  0  0  0  0  0  0  0
    2.8853   -1.3933    0.1131 N   0  0  0  0  0  0  0  0  0  0  0  0
    1.9735    0.7963    0.2181 N   0  0  0  0  0  0  0  0  0  0  0  0
    0.5930    0.4228    0.0634 C   0  0  0  0  0  0  0  0  0  0  0  0
   -0.2468    1.2099   -0.7382 C   0  0  0  0  0  0  0  0  0  0  0  0
   -1.5979    0.8829   -0.8856 C   0  0  0  0  0  0  0  0  0  0  0  0
   -2.1308   -0.2357   -0.2279 C   0  0  0  0  0  0  0  0  0  0  0  0
   -3.5922   -0.5664   -0.3554 C   0  0  0  0  0  0  0  0  0  0  0  0
   -4.3121    0.0229    0.6923 O   0  0  0  0  0  0  0  0  0  0  0  0
   -1.3033   -1.0016    0.6067 C   0  0  0  0  0  0  0  0  0  0  0  0
    0.0482   -0.6750    0.7532 C   0  0  0  0  0  0  0  0  0  0  0  0
    4.4930    1.3564    0.9682 H   0  0  0  0  0  0  0  0  0  0  0  0
    5.1527   -0.3114    0.8677 H   0  0  0  0  0  0  0  0  0  0  0  0
    3.6639   -2.0839    0.2005 H   0  0  0  0  0  0  0  0  0  0  0  0
    2.2189    1.8086    0.1322 H   0  0  0  0  0  0  0  0  0  0  0  0
    0.1494    2.0749   -1.2553 H   0  0  0  0  0  0  0  0  0  0  0  0
   -2.2286    1.5032   -1.5104 H   0  0  0  0  0  0  0  0  0  0  0  0
   -3.9905   -0.2285   -1.3395 H   0  0  0  0  0  0  0  0  0  0  0  0
   -3.7338   -1.6674   -0.3109 H   0  0  0  0  0  0  0  0  0  0  0  0
   -4.3916    0.9884    0.4738 H   0  0  0  0  0  0  0  0  0  0  0  0
   -1.7069   -1.8466    1.1510 H   0  0  0  0  0  0  0  0  0  0  0  0
    0.6572   -1.2632    1.4266 H   0  0  0  0  0  0  0  0  0  0  0  0
  1  2  1  0
  2  3  2  3
  2  4  1  0
  4  5  1  0
  5  6  2  0
  6  7  1  0
  7  8  2  0
  8  9  1  0
  9 10  1  0
  8 11  1  0
 11 12  2  0
 12  5  1  0
  1 13  1  0
  1 14  1  0
  3 15  1  0
  4 16  1  0
  6 17  1  0
  7 18  1  0
  9 19  1  0
  9 20  1  0
 10 21  1  0
 11 22  1  0
 12 23  1  0
M  END
$$$$
