
     RDKit          3D

 61 62  0  0  0  0  0  0  0  0999 V2000
   -4.9142   -2.4033    0.5790 C   0  0  0  0  0  0  0  0  0  0  0  0
   -4.2418   -1.5642    1.6787 C   0  0  0  0  0  0  0  0  0  0  0  0
   -4.1594   -0.1147    1.3761 N   0  0  0  0  0  0  0  0  0  0  0  0
   -5.4700    0.4827    1.0435 C   0  0  0  0  0  0  0  0  0  0  0  0
   -5.5183    1.9464    1.4752 C   0  0  0  0  0  0  0  0  0  0  0  0
   -3.1007    0.2120    0.3911 C   0  0  0  0  0  0  0  0  0  0  0  0
   -1.7677    0.4996    1.1059 C   0  0  0  0  0  0  0  0  0  0  0  0
   -1.8715    1.7423    1.9906 C   0  0  0  0  0  0  0  0  0  0  0  0
   -0.7378    0.7155    0.1422 O   0  0  0  0  0  0  0  0  0  0  0  0
   -0.1121   -0.3167   -0.5671 C   0  0  0  0  0  0  0  0  0  0  0  0
   -0.4318   -1.5192   -0.3584 O   0  0  0  0  0  0  0  0  0  0  0  0
    0.9448    0.0061   -1.5962 C   0  0  1  0  0  0  0  0  0  0  0  0
    0.3374    0.9056   -2.7034 C   0  0  0  0  0  0  0  0  0  0  0  0
    1.3957    1.6539   -3.5366 C   0  0  0  0  0  0  0  0  0  0  0  0
    2.7398    0.9259   -3.5391 C   0  0  0  0  0  0  0  0  0  0  0  0
    3.3219    0.8000   -2.1173 C   0  0  0  0  0  0  0  0  0  0  0  0
    2.2473    0.6348   -0.9873 C   0  0  1  0  0  0  0  0  0  0  0  0
    1.9484    1.9369   -0.5236 O   0  0  0  0  0  0  0  0  0  0  0  0
    2.8210   -0.2281    0.2050 C   0  0  0  0  0  0  0  0  0  0  0  0
    3.0333   -1.7349   -0.1422 C   0  0  0  0  0  0  0  0  0  0  0  0
    4.1481   -2.4058    0.6823 C   0  0  0  0  0  0  0  0  0  0  0  0
    4.2088   -1.8389    2.1031 C   0  0  0  0  0  0  0  0  0  0  0  0
    4.5277   -0.3304    2.1056 C   0  0  0  0  0  0  0  0  0  0  0  0
    4.1041    0.3902    0.8101 C   0  0  0  0  0  0  0  0  0  0  0  0
   -4.3982   -2.2954   -0.3953 H   0  0  0  0  0  0  0  0  0  0  0  0
   -4.8767   -3.4747    0.8677 H   0  0  0  0  0  0  0  0  0  0  0  0
   -5.9811   -2.1245    0.4586 H   0  0  0  0  0  0  0  0  0  0  0  0
   -4.8093   -1.7019    2.6245 H   0  0  0  0  0  0  0  0  0  0  0  0
   -3.2252   -1.9722    1.8664 H   0  0  0  0  0  0  0  0  0  0  0  0
   -6.2873   -0.0383    1.5907 H   0  0  0  0  0  0  0  0  0  0  0  0
   -5.6821    0.3999   -0.0461 H   0  0  0  0  0  0  0  0  0  0  0  0
   -6.5342    2.3550    1.2908 H   0  0  0  0  0  0  0  0  0  0  0  0
   -4.7886    2.5551    0.9030 H   0  0  0  0  0  0  0  0  0  0  0  0
   -5.2916    2.0305    2.5592 H   0  0  0  0  0  0  0  0  0  0  0  0
   -2.9555   -0.6124   -0.3360 H   0  0  0  0  0  0  0  0  0  0  0  0
   -3.3664    1.1042   -0.2182 H   0  0  0  0  0  0  0  0  0  0  0  0
   -1.4888   -0.3591    1.7554 H   0  0  0  0  0  0  0  0  0  0  0  0
   -2.1568    2.6289    1.3849 H   0  0  0  0  0  0  0  0  0  0  0  0
   -2.6242    1.5888    2.7924 H   0  0  0  0  0  0  0  0  0  0  0  0
   -0.8894    1.9421    2.4695 H   0  0  0  0  0  0  0  0  0  0  0  0
    1.2297   -0.9517   -2.0872 H   0  0  0  0  0  0  0  0  0  0  0  0
   -0.2755    0.2692   -3.3794 H   0  0  0  0  0  0  0  0  0  0  0  0
   -0.3473    1.6636   -2.2625 H   0  0  0  0  0  0  0  0  0  0  0  0
    1.0335    1.7658   -4.5814 H   0  0  0  0  0  0  0  0  0  0  0  0
    1.5416    2.6769   -3.1249 H   0  0  0  0  0  0  0  0  0  0  0  0
    2.6037   -0.0869   -3.9786 H   0  0  0  0  0  0  0  0  0  0  0  0
    3.4579    1.4753   -4.1857 H   0  0  0  0  0  0  0  0  0  0  0  0
    4.0431   -0.0417   -2.1334 H   0  0  0  0  0  0  0  0  0  0  0  0
    3.9322    1.7066   -1.9067 H   0  0  0  0  0  0  0  0  0  0  0  0
    1.4388    1.8713    0.3240 H   0  0  0  0  0  0  0  0  0  0  0  0
    2.0646   -0.2045    1.0226 H   0  0  0  0  0  0  0  0  0  0  0  0
    2.0844   -2.2797    0.0504 H   0  0  0  0  0  0  0  0  0  0  0  0
    3.2658   -1.8867   -1.2153 H   0  0  0  0  0  0  0  0  0  0  0  0
    5.1294   -2.2458    0.1834 H   0  0  0  0  0  0  0  0  0  0  0  0
    3.9685   -3.5018    0.7261 H   0  0  0  0  0  0  0  0  0  0  0  0
    4.9821   -2.3830    2.6874 H   0  0  0  0  0  0  0  0  0  0  0  0
    3.2292   -2.0124    2.6012 H   0  0  0  0  0  0  0  0  0  0  0  0
    4.0146    0.1402    2.9726 H   0  0  0  0  0  0  0  0  0  0  0  0
    5.6204   -0.1844    2.2510 H   0  0  0  0  0  0  0  0  0  0  0  0
    4.9363    0.3215    0.0766 H   0  0  0  0  0  0  0  0  0  0  0  0
    3.9488    1.4667    1.0377 H   0  0  0  0  0  0  0  0  0  0  0  0
  1  2  1  0
  2  3  1  0
  3  4  1  0
  4  5  1  0
  3  6  1  0
  6  7  1  0
  7  8  1  0
  7  9  1  0
  9 10  1  0
 10 11  2  0
 10 12  1  0
 12 13  1  0
 13 14  1  0
 14 15  1  0
 15 16  1  0
 16 17  1  0
 17 18  1  1
 17 19  1  0
 19 20  1  0
 20 21  1  0
 21 22  1  0
 22 23  1  0
 23 24  1  0
 17 12  1  0
 24 19  1  0
  1 25  1  0
  1 26  1  0
  1 27  1  0
  2 28  1  0
  2 29  1  0
  4 30  1  0
  4 31  1  0
  5 32  1  0
  5 33  1  0
  5 34  1  0
  6 35  1  0
  6 36  1  0
  7 37  1  0
  8 38  1  0
  8 39  1  0
  8 40  1  0
 12 41  1  6
 13 42  1  0
 13 43  1  0
 14 44  1  0
 14 45  1  0
 15 46  1  0
 15 47  1  0
 16 48  1  0
 16 49  1  0
 18 50  1  0
 19 51  1  0
 20 52  1  0
 20 53  1  0
 21 54  1  0
 21 55  1  0
 22 56  1  0
 22 57  1  0
 23 58  1  0
 23 59  1  0
 24 60  1  0
 24 61  1  0
M  END
$$$$
