
     RDKit          3D

 41 42  0  0  0  0  0  0  0  0999 V2000
   -0.2027   -0.0476    3.4334 C   0  0  0  0  0  0  0  0  0  0  0  0
   -1.3908   -0.1075    2.4791 C   0  0  0  0  0  0  0  0  0  0  0  0
   -0.9283   -0.1090    1.0824 N   0  0  0  0  0  0  0  0  0  0  0  0
   -1.0136   -1.3540    0.2998 C   0  0  0  0  0  0  0  0  0  0  0  0
   -2.0925   -1.2604   -0.7483 C   0  0  0  0  0  0  0  0  0  0  0  0
   -1.8113   -1.5648   -2.0890 C   0  0  0  0  0  0  0  0  0  0  0  0
   -2.8306   -1.4890   -3.0411 C   0  0  0  0  0  0  0  0  0  0  0  0
   -4.0888   -1.1355   -2.6671 N   0  0  0  0  0  0  0  0  0  0  0  0
   -4.3935   -0.8501   -1.3734 C   0  0  0  0  0  0  0  0  0  0  0  0
   -3.4039   -0.9130   -0.3897 C   0  0  0  0  0  0  0  0  0  0  0  0
   -0.4227    1.1185    0.5029 C   0  0  0  0  0  0  0  0  0  0  0  0
   -0.6874    2.2181    1.0641 O   0  0  0  0  0  0  0  0  0  0  0  0
    0.4703    1.1088   -0.7274 C   0  0  0  0  0  0  0  0  0  0  0  0
    0.6686    2.5063   -1.3455 C   0  0  0  0  0  0  0  0  0  0  0  0
    1.3686    3.3497   -0.4710 O   0  0  0  0  0  0  0  0  0  0  0  0
    1.8096    0.4575   -0.4351 C   0  0  0  0  0  0  0  0  0  0  0  0
    2.5383    0.7732    0.7288 C   0  0  0  0  0  0  0  0  0  0  0  0
    3.7773    0.1735    0.9723 C   0  0  0  0  0  0  0  0  0  0  0  0
    4.3081   -0.7357    0.0545 C   0  0  0  0  0  0  0  0  0  0  0  0
    3.6031   -1.0433   -1.1114 C   0  0  0  0  0  0  0  0  0  0  0  0
    2.3634   -0.4469   -1.3596 C   0  0  0  0  0  0  0  0  0  0  0  0
    0.4791   -0.9041    3.2451 H   0  0  0  0  0  0  0  0  0  0  0  0
    0.3576    0.9008    3.2962 H   0  0  0  0  0  0  0  0  0  0  0  0
   -0.5631   -0.0985    4.4823 H   0  0  0  0  0  0  0  0  0  0  0  0
   -2.0651    0.7576    2.6583 H   0  0  0  0  0  0  0  0  0  0  0  0
   -1.9807   -1.0220    2.7053 H   0  0  0  0  0  0  0  0  0  0  0  0
   -1.2468   -2.2198    0.9560 H   0  0  0  0  0  0  0  0  0  0  0  0
   -0.0267   -1.5836   -0.1517 H   0  0  0  0  0  0  0  0  0  0  0  0
   -0.8135   -1.8526   -2.3963 H   0  0  0  0  0  0  0  0  0  0  0  0
   -2.6214   -1.7140   -4.0783 H   0  0  0  0  0  0  0  0  0  0  0  0
   -5.4058   -0.5768   -1.1074 H   0  0  0  0  0  0  0  0  0  0  0  0
   -3.6579   -0.6921    0.6392 H   0  0  0  0  0  0  0  0  0  0  0  0
   -0.0570    0.5168   -1.5030 H   0  0  0  0  0  0  0  0  0  0  0  0
    1.2357    2.4065   -2.2987 H   0  0  0  0  0  0  0  0  0  0  0  0
   -0.3249    2.9499   -1.5822 H   0  0  0  0  0  0  0  0  0  0  0  0
    1.4537    4.2211   -0.9380 H   0  0  0  0  0  0  0  0  0  0  0  0
    2.1484    1.4815    1.4484 H   0  0  0  0  0  0  0  0  0  0  0  0
    4.3275    0.4163    1.8721 H   0  0  0  0  0  0  0  0  0  0  0  0
    5.2680   -1.1983    0.2444 H   0  0  0  0  0  0  0  0  0  0  0  0
    4.0184   -1.7434   -1.8248 H   0  0  0  0  0  0  0  0  0  0  0  0
    1.8333   -0.6944   -2.2710 H   0  0  0  0  0  0  0  0  0  0  0  0
  1  2  1  0
  2  3  1  0
  3  4  1  0
  4  5  1  0
  5  6  2  0
  6  7  1  0
  7  8  2  0
  8  9  1  0
  9 10  2  0
  3 11  1  0
 11 12  2  0
 11 13  1  0
 13 14  1  0
 14 15  1  0
 13 16  1  0
 16 17  2  0
 17 18  1  0
 18 19  2  0
 19 20  1  0
 20 21  2  0
 10  5  1  0
 21 16  1  0
  1 22  1  0
  1 23  1  0
  1 24  1  0
  2 25  1  0
  2 26  1  0
  4 27  1  0
  4 28  1  0
  6 29  1  0
  7 30  1  0
  9 31  1  0
 10 32  1  0
 13 33  1  0
 14 34  1  0
 14 35  1  0
 15 36  1  0
 17 37  1  0
 18 38  1  0
 19 39  1  0
 20 40  1  0
 21 41  1  0
M  END
$$$$
