
     RDKit          3D

 53 55  0  0  0  0  0  0  0  0999 V2000
    1.5370   -0.6619   -0.5884 N   0  0  0  0  0  0  0  0  0  0  0  0
    0.1715   -0.5318   -1.0187 C   0  0  0  0  0  0  0  0  0  0  0  0
   -0.3052    0.6578   -1.5953 C   0  0  0  0  0  0  0  0  0  0  0  0
   -1.6441    0.7678   -1.9807 C   0  0  0  0  0  0  0  0  0  0  0  0
   -2.5334   -0.2939   -1.7813 C   0  0  0  0  0  0  0  0  0  0  0  0
   -3.8677   -0.1241   -2.1853 O   0  0  0  0  0  0  0  0  0  0  0  0
   -4.9445   -1.0180   -1.8957 C   0  0  0  0  0  0  0  0  0  0  0  0
   -5.3502   -0.9438   -0.4120 C   0  0  2  0  0  0  0  0  0  0  0  0
   -6.3539   -1.8953   -0.1680 O   0  0  0  0  0  0  0  0  0  0  0  0
   -5.8826    0.4693   -0.0575 C   0  0  0  0  0  0  0  0  0  0  0  0
   -5.8875    0.7859    1.3898 N   0  0  0  0  0  0  0  0  0  0  0  0
   -6.7045   -0.1388    2.1892 C   0  0  0  0  0  0  0  0  0  0  0  0
   -4.5355    0.9319    1.9538 C   0  0  0  0  0  0  0  0  0  0  0  0
   -2.0604   -1.4808   -1.1897 C   0  0  0  0  0  0  0  0  0  0  0  0
   -0.7214   -1.5906   -0.8033 C   0  0  0  0  0  0  0  0  0  0  0  0
    2.6580   -0.0872   -1.2749 C   0  0  0  0  0  0  0  0  0  0  0  0
    2.5308    0.3907   -2.5416 N   0  0  0  0  0  0  0  0  0  0  0  0
    3.5954    0.9068   -3.2059 C   0  0  0  0  0  0  0  0  0  0  0  0
    4.8501    0.9465   -2.5961 C   0  0  0  0  0  0  0  0  0  0  0  0
    6.3265    1.7066   -3.5525 Br  0  0  0  0  0  0  0  0  0  0  0  0
    4.9735    0.4451   -1.2890 C   0  0  0  0  0  0  0  0  0  0  0  0
    3.8750   -0.0695   -0.6709 N   0  0  0  0  0  0  0  0  0  0  0  0
    6.2477    0.4227   -0.6227 N   0  0  0  0  0  0  0  0  0  0  0  0
    6.3992    0.3183    0.8037 C   0  0  0  0  0  0  0  0  0  0  0  0
    5.4743    0.9105    1.6844 C   0  0  0  0  0  0  0  0  0  0  0  0
    5.6564    0.8140    3.0675 C   0  0  0  0  0  0  0  0  0  0  0  0
    6.7663    0.1400    3.5831 C   0  0  0  0  0  0  0  0  0  0  0  0
    7.7008   -0.4317    2.7161 C   0  0  0  0  0  0  0  0  0  0  0  0
    7.5227   -0.3370    1.3324 C   0  0  0  0  0  0  0  0  0  0  0  0
    1.7381   -1.2762    0.2331 H   0  0  0  0  0  0  0  0  0  0  0  0
    0.3473    1.5109   -1.7246 H   0  0  0  0  0  0  0  0  0  0  0  0
   -1.9973    1.6903   -2.4241 H   0  0  0  0  0  0  0  0  0  0  0  0
   -4.6683   -2.0556   -2.1806 H   0  0  0  0  0  0  0  0  0  0  0  0
   -5.8152   -0.7326   -2.5240 H   0  0  0  0  0  0  0  0  0  0  0  0
   -4.4586   -1.1743    0.2077 H   0  0  0  0  0  0  0  0  0  0  0  0
   -5.9051   -2.7790   -0.1049 H   0  0  0  0  0  0  0  0  0  0  0  0
   -6.9153    0.5786   -0.4562 H   0  0  0  0  0  0  0  0  0  0  0  0
   -5.2838    1.2453   -0.5828 H   0  0  0  0  0  0  0  0  0  0  0  0
   -6.2111   -1.1293    2.2955 H   0  0  0  0  0  0  0  0  0  0  0  0
   -7.7054   -0.2723    1.7255 H   0  0  0  0  0  0  0  0  0  0  0  0
   -6.8621    0.2855    3.2036 H   0  0  0  0  0  0  0  0  0  0  0  0
   -4.5992    1.4424    2.9381 H   0  0  0  0  0  0  0  0  0  0  0  0
   -3.8996    1.5620    1.2953 H   0  0  0  0  0  0  0  0  0  0  0  0
   -4.0419   -0.0518    2.1046 H   0  0  0  0  0  0  0  0  0  0  0  0
   -2.7137   -2.3254   -1.0236 H   0  0  0  0  0  0  0  0  0  0  0  0
   -0.3748   -2.5085   -0.3451 H   0  0  0  0  0  0  0  0  0  0  0  0
    3.4645    1.2863   -4.2106 H   0  0  0  0  0  0  0  0  0  0  0  0
    7.1141    0.3799   -1.2047 H   0  0  0  0  0  0  0  0  0  0  0  0
    4.6260    1.4653    1.3060 H   0  0  0  0  0  0  0  0  0  0  0  0
    4.9409    1.2696    3.7399 H   0  0  0  0  0  0  0  0  0  0  0  0
    6.9063    0.0677    4.6540 H   0  0  0  0  0  0  0  0  0  0  0  0
    8.5648   -0.9467    3.1161 H   0  0  0  0  0  0  0  0  0  0  0  0
    8.2550   -0.7828    0.6709 H   0  0  0  0  0  0  0  0  0  0  0  0
  1  2  1  0
  2  3  2  0
  3  4  1  0
  4  5  2  0
  5  6  1  0
  6  7  1  0
  7  8  1  0
  8  9  1  0
  8 10  1  0
 10 11  1  0
 11 12  1  0
 11 13  1  0
  5 14  1  0
 14 15  2  0
  1 16  1  0
 16 17  2  0
 17 18  1  0
 18 19  2  0
 19 20  1  0
 19 21  1  0
 21 22  2  0
 21 23  1  0
 23 24  1  0
 24 25  2  0
 25 26  1  0
 26 27  2  0
 27 28  1  0
 28 29  2  0
 15  2  1  0
 22 16  1  0
 29 24  1  0
  1 30  1  0
  3 31  1  0
  4 32  1  0
  7 33  1  0
  7 34  1  0
  8 35  1  1
  9 36  1  0
 10 37  1  0
 10 38  1  0
 12 39  1  0
 12 40  1  0
 12 41  1  0
 13 42  1  0
 13 43  1  0
 13 44  1  0
 14 45  1  0
 15 46  1  0
 18 47  1  0
 23 48  1  0
 25 49  1  0
 26 50  1  0
 27 51  1  0
 28 52  1  0
 29 53  1  0
M  END
$$$$
