
     RDKit          3D

 23 23  0  0  0  0  0  0  0  0999 V2000
    4.7317   -0.5931    0.8465 N   0  0  0  0  0  0  0  0  0  0  0  0
    3.3761   -0.3934    1.0218 O   0  0  0  0  0  0  0  0  0  0  0  0
    2.6451    0.4889    0.2197 C   0  0  0  0  0  0  0  0  0  0  0  0
    3.2084    1.1247   -0.7122 O   0  0  0  0  0  0  0  0  0  0  0  0
    1.1740    0.6410    0.4414 C   0  0  0  0  0  0  0  0  0  0  0  0
    0.3986   -0.4038   -0.3643 C   0  0  0  0  0  0  0  0  0  0  0  0
   -1.0475   -0.2549   -0.1345 N   0  0  0  0  0  0  0  0  0  0  0  0
   -1.6361   -0.9594    0.8779 C   0  0  0  0  0  0  0  0  0  0  0  0
   -2.9971   -0.8219    1.1377 C   0  0  0  0  0  0  0  0  0  0  0  0
   -3.7404    0.0544    0.3528 C   0  0  0  0  0  0  0  0  0  0  0  0
   -4.9740    0.1984    0.5649 O   0  0  0  0  0  0  0  0  0  0  0  0
   -3.1319    0.7559   -0.6395 N   0  0  0  0  0  0  0  0  0  0  0  0
   -1.7995    0.6145   -0.8847 C   0  0  0  0  0  0  0  0  0  0  0  0
   -1.2669    1.2928   -1.8061 O   0  0  0  0  0  0  0  0  0  0  0  0
    5.2105    0.3308    0.9507 H   0  0  0  0  0  0  0  0  0  0  0  0
    4.8847   -0.9293   -0.1318 H   0  0  0  0  0  0  0  0  0  0  0  0
    0.8558    1.6624    0.1392 H   0  0  0  0  0  0  0  0  0  0  0  0
    0.9539    0.5162    1.5235 H   0  0  0  0  0  0  0  0  0  0  0  0
    0.7321   -1.4246   -0.0695 H   0  0  0  0  0  0  0  0  0  0  0  0
    0.6322   -0.2983   -1.4472 H   0  0  0  0  0  0  0  0  0  0  0  0
   -1.0522   -1.6336    1.4936 H   0  0  0  0  0  0  0  0  0  0  0  0
   -3.4621   -1.3852    1.9376 H   0  0  0  0  0  0  0  0  0  0  0  0
   -3.6955    1.4176   -1.2213 H   0  0  0  0  0  0  0  0  0  0  0  0
  1  2  1  0
  2  3  1  0
  3  4  2  0
  3  5  1  0
  5  6  1  0
  6  7  1  0
  7  8  1  0
  8  9  2  0
  9 10  1  0
 10 11  2  0
 10 12  1  0
 12 13  1  0
 13 14  2  0
 13  7  1  0
  1 15  1  0
  1 16  1  0
  5 17  1  0
  5 18  1  0
  6 19  1  0
  6 20  1  0
  8 21  1  0
  9 22  1  0
 12 23  1  0
M  END
$$$$
