
     RDKit          3D

 60 63  0  0  0  0  0  0  0  0999 V2000
   -3.5291   -1.1483    3.4838 C   0  0  0  0  0  0  0  0  0  0  0  0
   -3.0778   -0.6198    2.1873 N   0  0  0  0  0  0  0  0  0  0  0  0
   -4.1368   -0.7889    1.1676 C   0  0  0  0  0  0  0  0  0  0  0  0
   -3.8917    0.1304   -0.0350 C   0  0  0  0  0  0  0  0  0  0  0  0
   -3.9279    1.5688    0.3411 N   0  0  0  0  0  0  0  0  0  0  0  0
   -3.0613    2.3847   -0.5389 C   0  0  0  0  0  0  0  0  0  0  0  0
   -3.5818    2.4098   -1.9883 C   0  0  0  0  0  0  0  0  0  0  0  0
   -2.7154    3.2989   -2.9043 C   0  0  0  0  0  0  0  0  0  0  0  0
   -1.6723    2.5149   -3.7187 C   0  0  0  0  0  0  0  0  0  0  0  0
   -0.7003    1.8382   -2.8609 N   0  0  0  0  0  0  0  0  0  0  0  0
   -0.7213    0.4795   -2.4442 C   0  0  0  0  0  0  0  0  0  0  0  0
   -1.4846   -0.3886   -2.9443 O   0  0  0  0  0  0  0  0  0  0  0  0
    0.2479    0.2123   -1.3369 C   0  0  0  0  0  0  0  0  0  0  0  0
    0.8863    1.5182   -1.1283 N   0  0  0  0  0  0  0  0  0  0  0  0
    1.3741    1.9310    0.1236 N   0  0  0  0  0  0  0  0  0  0  0  0
    2.3137    1.3210    0.7849 C   0  0  0  0  0  0  0  0  0  0  0  0
    3.1327    0.2272    0.2343 C   0  0  0  0  0  0  0  0  0  0  0  0
    3.5419    0.0724   -1.0773 C   0  0  0  0  0  0  0  0  0  0  0  0
    4.3207   -1.0643   -1.0967 C   0  0  0  0  0  0  0  0  0  0  0  0
    4.3502   -1.5290    0.2094 C   0  0  0  0  0  0  0  0  0  0  0  0
    3.6383   -0.7310    0.9746 O   0  0  0  0  0  0  0  0  0  0  0  0
    5.0604   -2.7265    0.7159 C   0  0  0  0  0  0  0  0  0  0  0  0
    5.8083   -3.5570   -0.1408 C   0  0  0  0  0  0  0  0  0  0  0  0
    6.4686   -4.6821    0.3631 C   0  0  0  0  0  0  0  0  0  0  0  0
    6.3909   -4.9917    1.7237 C   0  0  0  0  0  0  0  0  0  0  0  0
    7.2202   -6.4038    2.3523 Cl  0  0  0  0  0  0  0  0  0  0  0  0
    5.6510   -4.1744    2.5825 C   0  0  0  0  0  0  0  0  0  0  0  0
    4.9893   -3.0486    2.0831 C   0  0  0  0  0  0  0  0  0  0  0  0
    0.2675    2.4402   -2.0194 C   0  0  0  0  0  0  0  0  0  0  0  0
    0.5207    3.6743   -2.0232 O   0  0  0  0  0  0  0  0  0  0  0  0
   -3.6047    1.8020    1.7721 C   0  0  0  0  0  0  0  0  0  0  0  0
   -2.5912    0.7774    2.3104 C   0  0  0  0  0  0  0  0  0  0  0  0
   -3.8884   -2.1942    3.3699 H   0  0  0  0  0  0  0  0  0  0  0  0
   -4.3489   -0.5247    3.9048 H   0  0  0  0  0  0  0  0  0  0  0  0
   -2.6809   -1.1678    4.2012 H   0  0  0  0  0  0  0  0  0  0  0  0
   -5.1450   -0.5654    1.5869 H   0  0  0  0  0  0  0  0  0  0  0  0
   -4.1382   -1.8441    0.8184 H   0  0  0  0  0  0  0  0  0  0  0  0
   -4.6827   -0.0636   -0.7905 H   0  0  0  0  0  0  0  0  0  0  0  0
   -2.9128   -0.1509   -0.4837 H   0  0  0  0  0  0  0  0  0  0  0  0
   -2.0168    2.0164   -0.4968 H   0  0  0  0  0  0  0  0  0  0  0  0
   -3.0539    3.4389   -0.1824 H   0  0  0  0  0  0  0  0  0  0  0  0
   -4.6159    2.8183   -1.9711 H   0  0  0  0  0  0  0  0  0  0  0  0
   -3.6443    1.3840   -2.4080 H   0  0  0  0  0  0  0  0  0  0  0  0
   -3.3870    3.8056   -3.6314 H   0  0  0  0  0  0  0  0  0  0  0  0
   -2.2152    4.1051   -2.3249 H   0  0  0  0  0  0  0  0  0  0  0  0
   -2.1821    1.7745   -4.3724 H   0  0  0  0  0  0  0  0  0  0  0  0
   -1.1318    3.2230   -4.3828 H   0  0  0  0  0  0  0  0  0  0  0  0
   -0.2940   -0.1078   -0.4215 H   0  0  0  0  0  0  0  0  0  0  0  0
    0.9882   -0.5502   -1.6507 H   0  0  0  0  0  0  0  0  0  0  0  0
    2.5337    1.6537    1.7902 H   0  0  0  0  0  0  0  0  0  0  0  0
    3.3233    0.7175   -1.9179 H   0  0  0  0  0  0  0  0  0  0  0  0
    4.8111   -1.4825   -1.9644 H   0  0  0  0  0  0  0  0  0  0  0  0
    5.8872   -3.3451   -1.1978 H   0  0  0  0  0  0  0  0  0  0  0  0
    7.0403   -5.3126   -0.3060 H   0  0  0  0  0  0  0  0  0  0  0  0
    5.5875   -4.4100    3.6372 H   0  0  0  0  0  0  0  0  0  0  0  0
    4.4218   -2.4299    2.7672 H   0  0  0  0  0  0  0  0  0  0  0  0
   -3.2173    2.8292    1.9523 H   0  0  0  0  0  0  0  0  0  0  0  0
   -4.5411    1.7250    2.3654 H   0  0  0  0  0  0  0  0  0  0  0  0
   -2.3353    1.0387    3.3623 H   0  0  0  0  0  0  0  0  0  0  0  0
   -1.6481    0.8720    1.7307 H   0  0  0  0  0  0  0  0  0  0  0  0
  1  2  1  0
  2  3  1  0
  3  4  1  0
  4  5  1  0
  5  6  1  0
  6  7  1  0
  7  8  1  0
  8  9  1  0
  9 10  1  0
 10 11  1  0
 11 12  2  0
 11 13  1  0
 13 14  1  0
 14 15  1  0
 15 16  2  3
 16 17  1  0
 17 18  2  0
 18 19  1  0
 19 20  2  0
 20 21  1  0
 20 22  1  0
 22 23  2  0
 23 24  1  0
 24 25  2  0
 25 26  1  0
 25 27  1  0
 27 28  2  0
 14 29  1  0
 29 30  2  0
  5 31  1  0
 31 32  1  0
 32  2  1  0
 29 10  1  0
 21 17  1  0
 28 22  1  0
  1 33  1  0
  1 34  1  0
  1 35  1  0
  3 36  1  0
  3 37  1  0
  4 38  1  0
  4 39  1  0
  6 40  1  0
  6 41  1  0
  7 42  1  0
  7 43  1  0
  8 44  1  0
  8 45  1  0
  9 46  1  0
  9 47  1  0
 13 48  1  0
 13 49  1  0
 16 50  1  0
 18 51  1  0
 19 52  1  0
 23 53  1  0
 24 54  1  0
 27 55  1  0
 28 56  1  0
 31 57  1  0
 31 58  1  0
 32 59  1  0
 32 60  1  0
M  END
$$$$
