
     RDKit          3D

 30 31  0  0  0  0  0  0  0  0999 V2000
   -4.7946    1.4282   -0.1267 C   0  0  0  0  0  0  0  0  0  0  0  0
   -4.2099    0.2874   -0.9579 C   0  0  0  0  0  0  0  0  0  0  0  0
   -2.6771    0.2400   -0.9067 C   0  0  0  0  0  0  0  0  0  0  0  0
   -2.0500   -0.2576    0.6953 S   0  0  0  0  0  6  0  0  0  0  0  0
   -2.8477   -1.4212    1.2149 O   0  0  0  0  0  0  0  0  0  0  0  0
   -2.1491    0.8788    1.6742 O   0  0  0  0  0  0  0  0  0  0  0  0
   -0.3926   -0.7314    0.5350 N   0  0  0  0  0  0  0  0  0  0  0  0
   -0.0340   -2.0871    0.7272 N   0  0  0  0  0  0  0  0  0  0  0  0
    1.1897   -2.5329    0.6117 C   0  0  0  0  0  0  0  0  0  0  0  0
    2.2916   -1.6168    0.2615 C   0  0  0  0  0  0  0  0  0  0  0  0
    2.1137   -0.2649    0.0394 C   0  0  0  0  0  0  0  0  0  0  0  0
    3.2900    0.4242   -0.2691 C   0  0  0  0  0  0  0  0  0  0  0  0
    4.3988   -0.4185   -0.3014 C   0  0  0  0  0  0  0  0  0  0  0  0
    5.8085    0.0150   -0.5245 C   0  0  0  0  0  0  0  0  0  0  0  0
    3.9193   -1.9934    0.0831 S   0  0  0  0  0  0  0  0  0  0  0  0
    0.6784    0.3029    0.1705 B   0  0  0  0  0  0  0  0  0  0  0  0
    0.3635    1.7128   -0.0505 O   0  0  0  0  0  0  0  0  0  0  0  0
   -5.8879    1.4942   -0.3087 H   0  0  0  0  0  0  0  0  0  0  0  0
   -4.6367    1.2449    0.9559 H   0  0  0  0  0  0  0  0  0  0  0  0
   -4.3299    2.3961   -0.4115 H   0  0  0  0  0  0  0  0  0  0  0  0
   -4.5186    0.4346   -2.0155 H   0  0  0  0  0  0  0  0  0  0  0  0
   -4.6363   -0.6805   -0.6177 H   0  0  0  0  0  0  0  0  0  0  0  0
   -2.3209   -0.4975   -1.6567 H   0  0  0  0  0  0  0  0  0  0  0  0
   -2.2525    1.2299   -1.1777 H   0  0  0  0  0  0  0  0  0  0  0  0
    1.3942   -3.5825    0.7738 H   0  0  0  0  0  0  0  0  0  0  0  0
    3.3358    1.4900   -0.4539 H   0  0  0  0  0  0  0  0  0  0  0  0
    5.8385    0.8595   -1.2446 H   0  0  0  0  0  0  0  0  0  0  0  0
    6.2521    0.3393    0.4396 H   0  0  0  0  0  0  0  0  0  0  0  0
    6.4035   -0.8271   -0.9356 H   0  0  0  0  0  0  0  0  0  0  0  0
    0.4602    2.1336    0.8409 H   0  0  0  0  0  0  0  0  0  0  0  0
  1  2  1  0
  2  3  1  0
  3  4  1  0
  4  5  2  0
  4  6  2  0
  4  7  1  0
  7  8  1  0
  8  9  2  0
  9 10  1  0
 10 11  2  0
 11 12  1  0
 12 13  2  0
 13 14  1  0
 13 15  1  0
 11 16  1  0
 16 17  1  0
 16  7  1  0
 15 10  1  0
  1 18  1  0
  1 19  1  0
  1 20  1  0
  2 21  1  0
  2 22  1  0
  3 23  1  0
  3 24  1  0
  9 25  1  0
 12 26  1  0
 14 27  1  0
 14 28  1  0
 14 29  1  0
 17 30  1  0
M  END
$$$$
