
     RDKit          3D

 29 31  0  0  0  0  0  0  0  0999 V2000
   -1.4409    2.5583    1.0221 C   0  0  0  0  0  0  0  0  0  0  0  0
   -0.9262    1.3332    0.5123 O   0  0  0  0  0  0  0  0  0  0  0  0
   -1.6047    0.1080    0.5587 C   0  0  0  0  0  0  0  0  0  0  0  0
   -1.0144   -1.0536    0.0412 C   0  0  0  0  0  0  0  0  0  0  0  0
   -1.7050   -2.2389    0.0259 C   0  0  0  0  0  0  0  0  0  0  0  0
   -1.0010   -3.2223   -0.5528 N   0  0  0  0  0  0  0  0  0  0  0  0
    0.1729   -2.6647   -0.9197 C   0  0  0  0  0  0  0  0  0  0  0  0
    0.2121   -1.3151   -0.5639 C   0  0  0  0  0  0  0  0  0  0  0  0
    1.3658   -0.4104   -0.7562 C   0  0  0  0  0  0  0  0  0  0  0  0
    1.6153    0.5774    0.1440 N   0  0  0  0  0  0  0  0  0  0  0  0
    2.6806    1.4102    0.0074 C   0  0  0  0  0  0  0  0  0  0  0  0
    2.9041    2.4443    0.9627 N   0  0  0  0  0  0  0  0  0  0  0  0
    3.5308    1.2560   -1.0413 N   0  0  0  0  0  0  0  0  0  0  0  0
    3.3317    0.2765   -1.9602 C   0  0  0  0  0  0  0  0  0  0  0  0
    2.2422   -0.5852   -1.8361 C   0  0  0  0  0  0  0  0  0  0  0  0
   -2.9561   -2.3596    0.5328 N   0  0  0  0  0  0  0  0  0  0  0  0
   -3.5633   -1.2657    1.0765 C   0  0  0  0  0  0  0  0  0  0  0  0
   -2.9069   -0.0177    1.0983 C   0  0  0  0  0  0  0  0  0  0  0  0
   -1.6351    2.4666    2.1115 H   0  0  0  0  0  0  0  0  0  0  0  0
   -0.6913    3.3600    0.8610 H   0  0  0  0  0  0  0  0  0  0  0  0
   -2.3753    2.8315    0.4880 H   0  0  0  0  0  0  0  0  0  0  0  0
   -1.2956   -4.2146   -0.6896 H   0  0  0  0  0  0  0  0  0  0  0  0
    0.9715   -3.2163   -1.3984 H   0  0  0  0  0  0  0  0  0  0  0  0
    3.7210    3.0871    0.8649 H   0  0  0  0  0  0  0  0  0  0  0  0
    2.2495    2.5710    1.7664 H   0  0  0  0  0  0  0  0  0  0  0  0
    4.0191    0.1674   -2.7884 H   0  0  0  0  0  0  0  0  0  0  0  0
    2.0821   -1.3609   -2.5740 H   0  0  0  0  0  0  0  0  0  0  0  0
   -4.5610   -1.3561    1.4848 H   0  0  0  0  0  0  0  0  0  0  0  0
   -3.4217    0.8337    1.5219 H   0  0  0  0  0  0  0  0  0  0  0  0
  1  2  1  0
  2  3  1  0
  3  4  2  0
  4  5  1  0
  5  6  1  0
  6  7  1  0
  7  8  2  0
  8  9  1  0
  9 10  2  0
 10 11  1  0
 11 12  1  0
 11 13  2  0
 13 14  1  0
 14 15  2  0
  5 16  2  0
 16 17  1  0
 17 18  2  0
 18  3  1  0
  8  4  1  0
 15  9  1  0
  1 19  1  0
  1 20  1  0
  1 21  1  0
  6 22  1  0
  7 23  1  0
 12 24  1  0
 12 25  1  0
 14 26  1  0
 15 27  1  0
 17 28  1  0
 18 29  1  0
M  END
$$$$
