
     RDKit          3D

141144  0  0  0  0  0  0  0  0999 V2000
    4.8925    2.6431   -4.2390 C   0  0  0  0  0  0  0  0  0  0  0  0
    4.2450    3.2848   -3.0100 C   0  0  0  0  0  0  0  0  0  0  0  0
    3.5167    2.2805   -2.0916 C   0  0  1  0  0  0  0  0  0  0  0  0
    2.4673    1.6401   -2.8217 O   0  0  0  0  0  0  0  0  0  0  0  0
    1.1215    1.9666   -2.6466 C   0  0  0  0  0  0  0  0  0  0  0  0
    0.7607    3.1723   -2.5680 O   0  0  0  0  0  0  0  0  0  0  0  0
    0.1535    0.8612   -2.3646 C   0  0  0  0  0  0  0  0  0  0  0  0
   -1.2373    1.0623   -3.0135 C   0  0  1  0  0  0  0  0  0  0  0  0
   -1.0795    1.3540   -4.3820 O   0  0  0  0  0  0  0  0  0  0  0  0
   -2.1712   -0.1807   -2.8115 C   0  0  2  0  0  0  0  0  0  0  0  0
   -3.3956   -0.0827   -3.7466 C   0  0  0  0  0  0  0  0  0  0  0  0
   -2.5969   -0.3852   -1.3054 C   0  0  1  0  0  0  0  0  0  0  0  0
   -3.9501    0.0141   -1.1093 O   0  0  0  0  0  0  0  0  0  0  0  0
   -4.1452    0.7582    0.0864 C   0  0  2  0  0  0  0  0  0  0  0  0
   -5.4798    0.5644    0.5411 O   0  0  0  0  0  0  0  0  0  0  0  0
   -6.4404    1.4178   -0.0681 C   0  0  2  0  0  0  0  0  0  0  0  0
   -6.6233    1.1290   -1.5690 C   0  0  0  0  0  0  0  0  0  0  0  0
   -6.1773    2.9247    0.2294 C   0  0  1  0  0  0  0  0  0  0  0  0
   -7.0545    3.3675    1.2339 O   0  0  0  0  0  0  0  0  0  0  0  0
   -4.7163    3.1518    0.6990 C   0  0  1  0  0  0  0  0  0  0  0  0
   -3.7644    2.2547   -0.1112 C   0  0  1  0  0  0  0  0  0  0  0  0
   -2.4405    2.4632    0.3152 O   0  0  0  0  0  0  0  0  0  0  0  0
   -4.2623    4.5723    0.6734 N   0  0  0  0  0  0  0  0  0  0  0  0
   -4.5123    5.2990   -0.5848 C   0  0  0  0  0  0  0  0  0  0  0  0
   -4.7546    5.3476    1.8236 C   0  0  0  0  0  0  0  0  0  0  0  0
   -2.3766   -1.8452   -0.7697 C   0  0  1  0  0  0  0  0  0  0  0  0
   -3.2157   -2.9263   -1.5083 C   0  0  0  0  0  0  0  0  0  0  0  0
   -4.7211   -2.9366   -1.1702 C   0  0  0  0  0  0  0  0  0  0  0  0
   -4.9866   -2.8585    0.2841 N   0  0  0  0  0  0  0  0  0  0  0  0
   -6.4199   -2.5840    0.5178 C   0  0  0  0  0  0  0  0  0  0  0  0
   -6.6776   -2.3490    2.0159 C   0  0  1  0  0  0  0  0  0  0  0  0
   -8.1532   -2.0247    2.2703 C   0  0  0  0  0  0  0  0  0  0  0  0
   -6.2426   -3.5844    2.8208 C   0  0  0  0  0  0  0  0  0  0  0  0
   -4.7846   -3.9516    2.4972 C   0  0  1  0  0  0  0  0  0  0  0  0
   -4.3723   -5.2325    3.2303 C   0  0  0  0  0  0  0  0  0  0  0  0
   -4.6013   -4.1086    0.9767 C   0  0  0  0  0  0  0  0  0  0  0  0
   -0.8640   -2.2227   -0.7894 C   0  0  0  0  0  0  0  0  0  0  0  0
   -0.4092   -3.2218    0.3208 C   0  0  1  0  0  0  0  0  0  0  0  0
   -0.0680   -4.6136   -0.2328 C   0  0  0  0  0  0  0  0  0  0  0  0
    0.7567   -2.6923    1.1499 C   0  0  0  0  0  0  0  0  0  0  0  0
    0.7234   -2.8766    2.3963 O   0  0  0  0  0  0  0  0  0  0  0  0
    1.9213   -1.9475    0.6009 C   0  0  0  0  0  0  0  0  0  0  0  0
    2.2817   -1.9649   -0.6911 C   0  0  0  0  0  0  0  0  0  0  0  0
    3.3394   -1.0995   -1.2714 C   0  0  0  0  0  0  0  0  0  0  0  0
    4.0149   -1.5907   -2.5252 C   0  0  0  0  0  0  0  0  0  0  0  0
    3.5649    0.1427   -0.7864 C   0  0  0  0  0  0  0  0  0  0  0  0
    4.4338    1.1931   -1.4623 C   0  0  2  0  0  0  0  0  0  0  0  0
    5.4037    1.7822   -0.4247 C   0  0  0  0  0  0  0  0  0  0  0  0
    6.1733    0.7345    0.1325 O   0  0  0  0  0  0  0  0  0  0  0  0
    6.9862    1.2156    1.1846 C   0  0  2  0  0  0  0  0  0  0  0  0
    8.0746    1.9417    0.6406 O   0  0  0  0  0  0  0  0  0  0  0  0
    8.7570    2.6587    1.6605 C   0  0  2  0  0  0  0  0  0  0  0  0
   10.0261    3.2552    1.0496 C   0  0  0  0  0  0  0  0  0  0  0  0
    9.1004    1.7680    2.8968 C   0  0  1  0  0  0  0  0  0  0  0  0
    8.2427    2.1050    3.9600 O   0  0  0  0  0  0  0  0  0  0  0  0
    8.9393    0.2776    2.5378 C   0  0  1  0  0  0  0  0  0  0  0  0
    9.2093   -0.5115    3.6865 O   0  0  0  0  0  0  0  0  0  0  0  0
    9.7113   -1.7770    3.3151 C   0  0  0  0  0  0  0  0  0  0  0  0
    7.5133   -0.0001    1.9908 C   0  0  1  0  0  0  0  0  0  0  0  0
    6.6375   -0.2696    3.0762 O   0  0  0  0  0  0  0  0  0  0  0  0
    5.6617   -1.2204    2.7082 C   0  0  0  0  0  0  0  0  0  0  0  0
    5.7866    2.0531   -3.9508 H   0  0  0  0  0  0  0  0  0  0  0  0
    5.2243    3.4404   -4.9369 H   0  0  0  0  0  0  0  0  0  0  0  0
    4.1699    1.9899   -4.7721 H   0  0  0  0  0  0  0  0  0  0  0  0
    3.5006    4.0314   -3.3627 H   0  0  0  0  0  0  0  0  0  0  0  0
    5.0132    3.8477   -2.4404 H   0  0  0  0  0  0  0  0  0  0  0  0
    3.0719    2.8651   -1.2527 H   0  0  0  0  0  0  0  0  0  0  0  0
    0.0709    0.8205   -1.2628 H   0  0  0  0  0  0  0  0  0  0  0  0
    0.5938   -0.0972   -2.7165 H   0  0  0  0  0  0  0  0  0  0  0  0
   -1.7216    1.9429   -2.5384 H   0  0  0  0  0  0  0  0  0  0  0  0
   -0.6353    0.5718   -4.8035 H   0  0  0  0  0  0  0  0  0  0  0  0
   -1.5998   -1.0663   -3.1589 H   0  0  0  0  0  0  0  0  0  0  0  0
   -3.9169    0.8874   -3.6049 H   0  0  0  0  0  0  0  0  0  0  0  0
   -4.1125   -0.9062   -3.5550 H   0  0  0  0  0  0  0  0  0  0  0  0
   -3.0828   -0.1627   -4.8091 H   0  0  0  0  0  0  0  0  0  0  0  0
   -1.9263    0.2472   -0.6908 H   0  0  0  0  0  0  0  0  0  0  0  0
   -3.5117    0.3488    0.9078 H   0  0  0  0  0  0  0  0  0  0  0  0
   -7.4168    1.1471    0.3913 H   0  0  0  0  0  0  0  0  0  0  0  0
   -6.7073    0.0369   -1.7450 H   0  0  0  0  0  0  0  0  0  0  0  0
   -7.5555    1.6117   -1.9322 H   0  0  0  0  0  0  0  0  0  0  0  0
   -5.7796    1.5289   -2.1650 H   0  0  0  0  0  0  0  0  0  0  0  0
   -6.3681    3.5028   -0.7014 H   0  0  0  0  0  0  0  0  0  0  0  0
   -7.9380    3.5106    0.8037 H   0  0  0  0  0  0  0  0  0  0  0  0
   -4.6462    2.7815    1.7493 H   0  0  0  0  0  0  0  0  0  0  0  0
   -3.8552    2.4938   -1.1954 H   0  0  0  0  0  0  0  0  0  0  0  0
   -2.0789    3.2223   -0.2127 H   0  0  0  0  0  0  0  0  0  0  0  0
   -3.8743    6.2075   -0.6173 H   0  0  0  0  0  0  0  0  0  0  0  0
   -5.5734    5.6206   -0.6676 H   0  0  0  0  0  0  0  0  0  0  0  0
   -4.2443    4.6856   -1.4680 H   0  0  0  0  0  0  0  0  0  0  0  0
   -4.5191    4.8276    2.7766 H   0  0  0  0  0  0  0  0  0  0  0  0
   -5.8498    5.5193    1.7581 H   0  0  0  0  0  0  0  0  0  0  0  0
   -4.2450    6.3345    1.8584 H   0  0  0  0  0  0  0  0  0  0  0  0
   -2.6867   -1.8251    0.2961 H   0  0  0  0  0  0  0  0  0  0  0  0
   -3.0945   -2.8239   -2.6058 H   0  0  0  0  0  0  0  0  0  0  0  0
   -2.8172   -3.9312   -1.2755 H   0  0  0  0  0  0  0  0  0  0  0  0
   -5.1913   -2.0775   -1.6932 H   0  0  0  0  0  0  0  0  0  0  0  0
   -5.1824   -3.8543   -1.6009 H   0  0  0  0  0  0  0  0  0  0  0  0
   -6.7276   -1.6708   -0.0334 H   0  0  0  0  0  0  0  0  0  0  0  0
   -7.0477   -3.4273    0.1463 H   0  0  0  0  0  0  0  0  0  0  0  0
   -6.0718   -1.4761    2.3479 H   0  0  0  0  0  0  0  0  0  0  0  0
   -8.4438   -1.1086    1.7129 H   0  0  0  0  0  0  0  0  0  0  0  0
   -8.3221   -1.8397    3.3525 H   0  0  0  0  0  0  0  0  0  0  0  0
   -8.8027   -2.8651    1.9435 H   0  0  0  0  0  0  0  0  0  0  0  0
   -6.9084   -4.4435    2.5787 H   0  0  0  0  0  0  0  0  0  0  0  0
   -6.3368   -3.3689    3.9080 H   0  0  0  0  0  0  0  0  0  0  0  0
   -4.1233   -3.1271    2.8477 H   0  0  0  0  0  0  0  0  0  0  0  0
   -4.9984   -6.0909    2.9045 H   0  0  0  0  0  0  0  0  0  0  0  0
   -4.4885   -5.0989    4.3269 H   0  0  0  0  0  0  0  0  0  0  0  0
   -3.3065   -5.4660    3.0209 H   0  0  0  0  0  0  0  0  0  0  0  0
   -5.2021   -4.9694    0.6017 H   0  0  0  0  0  0  0  0  0  0  0  0
   -3.5311   -4.3353    0.7957 H   0  0  0  0  0  0  0  0  0  0  0  0
   -0.5833   -2.6076   -1.7938 H   0  0  0  0  0  0  0  0  0  0  0  0
   -0.2944   -1.2893   -0.6545 H   0  0  0  0  0  0  0  0  0  0  0  0
   -1.2551   -3.3759    1.0259 H   0  0  0  0  0  0  0  0  0  0  0  0
    0.7694   -4.5758   -0.9570 H   0  0  0  0  0  0  0  0  0  0  0  0
    0.2201   -5.2915    0.5992 H   0  0  0  0  0  0  0  0  0  0  0  0
   -0.9454   -5.0613   -0.7396 H   0  0  0  0  0  0  0  0  0  0  0  0
    2.5000   -1.3624    1.3045 H   0  0  0  0  0  0  0  0  0  0  0  0
    1.7805   -2.6299   -1.3757 H   0  0  0  0  0  0  0  0  0  0  0  0
    5.1180   -1.5591   -2.4022 H   0  0  0  0  0  0  0  0  0  0  0  0
    3.7110   -0.9651   -3.3911 H   0  0  0  0  0  0  0  0  0  0  0  0
    3.7388   -2.6439   -2.7452 H   0  0  0  0  0  0  0  0  0  0  0  0
    2.9941    0.4873    0.0674 H   0  0  0  0  0  0  0  0  0  0  0  0
    5.0507    0.7348   -2.2578 H   0  0  0  0  0  0  0  0  0  0  0  0
    4.8107    2.3086    0.3591 H   0  0  0  0  0  0  0  0  0  0  0  0
    6.0777    2.5124   -0.9226 H   0  0  0  0  0  0  0  0  0  0  0  0
    6.3867    1.8594    1.8779 H   0  0  0  0  0  0  0  0  0  0  0  0
    8.1259    3.5198    1.9806 H   0  0  0  0  0  0  0  0  0  0  0  0
    9.7627    3.8866    0.1744 H   0  0  0  0  0  0  0  0  0  0  0  0
   10.7092    2.4461    0.7129 H   0  0  0  0  0  0  0  0  0  0  0  0
   10.5512    3.8912    1.7940 H   0  0  0  0  0  0  0  0  0  0  0  0
   10.1574    1.9407    3.2138 H   0  0  0  0  0  0  0  0  0  0  0  0
    8.6832    1.8060    4.7980 H   0  0  0  0  0  0  0  0  0  0  0  0
    9.6781    0.0804    1.7211 H   0  0  0  0  0  0  0  0  0  0  0  0
    9.8457   -2.3862    4.2322 H   0  0  0  0  0  0  0  0  0  0  0  0
    9.0020   -2.3202    2.6533 H   0  0  0  0  0  0  0  0  0  0  0  0
   10.7058   -1.6818    2.8263 H   0  0  0  0  0  0  0  0  0  0  0  0
    7.6177   -0.8741    1.3011 H   0  0  0  0  0  0  0  0  0  0  0  0
    6.1296   -2.2061    2.4924 H   0  0  0  0  0  0  0  0  0  0  0  0
    5.0625   -0.8746    1.8385 H   0  0  0  0  0  0  0  0  0  0  0  0
    4.9645   -1.3591    3.5595 H   0  0  0  0  0  0  0  0  0  0  0  0
  1  2  1  0
  2  3  1  0
  3  4  1  0
  4  5  1  0
  5  6  2  0
  5  7  1  0
  7  8  1  0
  8  9  1  0
  8 10  1  0
 10 11  1  0
 10 12  1  0
 12 13  1  0
 13 14  1  0
 14 15  1  0
 15 16  1  0
 16 17  1  0
 16 18  1  0
 18 19  1  0
 18 20  1  0
 20 21  1  0
 21 22  1  0
 20 23  1  0
 23 24  1  0
 23 25  1  0
 12 26  1  0
 26 27  1  0
 27 28  1  0
 28 29  1  0
 29 30  1  0
 30 31  1  0
 31 32  1  0
 31 33  1  0
 33 34  1  0
 34 35  1  0
 34 36  1  0
 26 37  1  0
 37 38  1  0
 38 39  1  0
 38 40  1  0
 40 41  2  0
 40 42  1  0
 42 43  2  0
 43 44  1  0
 44 45  1  0
 44 46  2  0
 46 47  1  0
 47 48  1  0
 48 49  1  0
 49 50  1  0
 50 51  1  0
 51 52  1  0
 52 53  1  0
 52 54  1  0
 54 55  1  0
 54 56  1  0
 56 57  1  0
 57 58  1  0
 56 59  1  0
 59 60  1  0
 60 61  1  0
 47  3  1  0
 59 50  1  0
 21 14  1  0
 36 29  1  0
  1 62  1  0
  1 63  1  0
  1 64  1  0
  2 65  1  0
  2 66  1  0
  3 67  1  1
  7 68  1  0
  7 69  1  0
  8 70  1  1
  9 71  1  0
 10 72  1  6
 11 73  1  0
 11 74  1  0
 11 75  1  0
 12 76  1  1
 14 77  1  1
 16 78  1  1
 17 79  1  0
 17 80  1  0
 17 81  1  0
 18 82  1  6
 19 83  1  0
 20 84  1  1
 21 85  1  6
 22 86  1  0
 24 87  1  0
 24 88  1  0
 24 89  1  0
 25 90  1  0
 25 91  1  0
 25 92  1  0
 26 93  1  1
 27 94  1  0
 27 95  1  0
 28 96  1  0
 28 97  1  0
 30 98  1  0
 30 99  1  0
 31100  1  1
 32101  1  0
 32102  1  0
 32103  1  0
 33104  1  0
 33105  1  0
 34106  1  1
 35107  1  0
 35108  1  0
 35109  1  0
 36110  1  0
 36111  1  0
 37112  1  0
 37113  1  0
 38114  1  1
 39115  1  0
 39116  1  0
 39117  1  0
 42118  1  0
 43119  1  0
 45120  1  0
 45121  1  0
 45122  1  0
 46123  1  0
 47124  1  6
 48125  1  0
 48126  1  0
 50127  1  1
 52128  1  1
 53129  1  0
 53130  1  0
 53131  1  0
 54132  1  1
 55133  1  0
 56134  1  6
 58135  1  0
 58136  1  0
 58137  1  0
 59138  1  6
 61139  1  0
 61140  1  0
 61141  1  0
M  END
$$$$
