
     RDKit          3D

 48 50  0  0  0  0  0  0  0  0999 V2000
   -5.9267    2.6596    0.1381 C   0  0  0  0  0  0  0  0  0  0  0  0
   -5.1668    1.6639    1.0074 C   0  0  0  0  0  0  0  0  0  0  0  0
   -3.7709    1.8175    0.8264 O   0  0  0  0  0  0  0  0  0  0  0  0
   -3.2763    0.9317   -0.1615 C   0  0  0  0  0  0  0  0  0  0  0  0
   -2.8087   -0.3826    0.4898 C   0  0  0  0  0  0  0  0  0  0  0  0
   -1.9757   -1.2911   -0.4509 C   0  0  0  0  0  0  0  0  0  0  0  0
   -0.8494   -0.5906   -1.0179 O   0  0  0  0  0  0  0  0  0  0  0  0
    0.3179   -0.1936   -0.3477 C   0  0  0  0  0  0  0  0  0  0  0  0
    1.5323   -0.7913   -0.7047 C   0  0  0  0  0  0  0  0  0  0  0  0
    2.7188   -0.4225   -0.0650 C   0  0  0  0  0  0  0  0  0  0  0  0
    2.7080    0.5758    0.9249 C   0  0  0  0  0  0  0  0  0  0  0  0
    3.8733    0.9622    1.6033 O   0  0  0  0  0  0  0  0  0  0  0  0
    5.1681    0.9576    1.0638 C   0  0  0  0  0  0  0  0  0  0  0  0
    5.4073    1.2032   -0.3014 C   0  0  0  0  0  0  0  0  0  0  0  0
    6.7150    1.2067   -0.7970 C   0  0  0  0  0  0  0  0  0  0  0  0
    7.7916    0.9780    0.0649 C   0  0  0  0  0  0  0  0  0  0  0  0
    9.0590    0.9834   -0.4166 F   0  0  0  0  0  0  0  0  0  0  0  0
    7.5611    0.7532    1.4253 C   0  0  0  0  0  0  0  0  0  0  0  0
    6.2543    0.7496    1.9232 C   0  0  0  0  0  0  0  0  0  0  0  0
    1.4942    1.1754    1.2779 C   0  0  0  0  0  0  0  0  0  0  0  0
    0.3071    0.8054    0.6385 C   0  0  0  0  0  0  0  0  0  0  0  0
   -2.8521   -1.7294   -1.6122 C   0  0  0  0  0  0  0  0  0  0  0  0
   -2.9379   -1.0011   -2.6382 O   0  0  0  0  0  0  0  0  0  0  0  0
   -3.6343   -2.9242   -1.5449 N   0  0  0  0  0  0  0  0  0  0  0  0
   -3.3550   -3.9145   -0.5606 C   0  0  0  0  0  0  0  0  0  0  0  0
   -4.0494   -4.9638   -0.5046 O   0  0  0  0  0  0  0  0  0  0  0  0
   -2.2668   -3.7279    0.3402 N   0  0  0  0  0  0  0  0  0  0  0  0
   -1.5156   -2.5091    0.3469 C   0  0  0  0  0  0  0  0  0  0  0  0
   -0.5236   -2.4196    1.1191 O   0  0  0  0  0  0  0  0  0  0  0  0
   -7.0157    2.5763    0.3388 H   0  0  0  0  0  0  0  0  0  0  0  0
   -5.7453    2.4517   -0.9371 H   0  0  0  0  0  0  0  0  0  0  0  0
   -5.5966    3.6945    0.3690 H   0  0  0  0  0  0  0  0  0  0  0  0
   -5.5307    0.6281    0.8125 H   0  0  0  0  0  0  0  0  0  0  0  0
   -5.4006    1.8839    2.0704 H   0  0  0  0  0  0  0  0  0  0  0  0
   -2.4152    1.4287   -0.6532 H   0  0  0  0  0  0  0  0  0  0  0  0
   -4.0166    0.7303   -0.9698 H   0  0  0  0  0  0  0  0  0  0  0  0
   -3.7050   -0.9439    0.8353 H   0  0  0  0  0  0  0  0  0  0  0  0
   -2.2243   -0.1517    1.4049 H   0  0  0  0  0  0  0  0  0  0  0  0
    1.5518   -1.5599   -1.4669 H   0  0  0  0  0  0  0  0  0  0  0  0
    3.6381   -0.9282   -0.3293 H   0  0  0  0  0  0  0  0  0  0  0  0
    4.5880    1.4108   -0.9770 H   0  0  0  0  0  0  0  0  0  0  0  0
    6.8931    1.3941   -1.8481 H   0  0  0  0  0  0  0  0  0  0  0  0
    8.3943    0.5836    2.0951 H   0  0  0  0  0  0  0  0  0  0  0  0
    6.0838    0.5772    2.9783 H   0  0  0  0  0  0  0  0  0  0  0  0
    1.4739    1.9445    2.0397 H   0  0  0  0  0  0  0  0  0  0  0  0
   -0.6020    1.3237    0.8987 H   0  0  0  0  0  0  0  0  0  0  0  0
   -4.3625   -3.1086   -2.2713 H   0  0  0  0  0  0  0  0  0  0  0  0
   -2.0075   -4.4970    0.9985 H   0  0  0  0  0  0  0  0  0  0  0  0
  1  2  1  0
  2  3  1  0
  3  4  1  0
  4  5  1  0
  5  6  1  0
  6  7  1  0
  7  8  1  0
  8  9  2  0
  9 10  1  0
 10 11  2  0
 11 12  1  0
 12 13  1  0
 13 14  2  0
 14 15  1  0
 15 16  2  0
 16 17  1  0
 16 18  1  0
 18 19  2  0
 11 20  1  0
 20 21  2  0
  6 22  1  0
 22 23  2  0
 22 24  1  0
 24 25  1  0
 25 26  2  0
 25 27  1  0
 27 28  1  0
 28 29  2  0
 28  6  1  0
 21  8  1  0
 19 13  1  0
  1 30  1  0
  1 31  1  0
  1 32  1  0
  2 33  1  0
  2 34  1  0
  4 35  1  0
  4 36  1  0
  5 37  1  0
  5 38  1  0
  9 39  1  0
 10 40  1  0
 14 41  1  0
 15 42  1  0
 18 43  1  0
 19 44  1  0
 20 45  1  0
 21 46  1  0
 24 47  1  0
 27 48  1  0
M  END
$$$$
