
     RDKit          3D

 68 72  0  0  0  0  0  0  0  0999 V2000
    6.5564   -4.4384    0.6533 C   0  0  0  0  0  0  0  0  0  0  0  0
    5.6650   -3.3339    0.5354 O   0  0  0  0  0  0  0  0  0  0  0  0
    6.0293   -1.9862    0.6990 C   0  0  0  0  0  0  0  0  0  0  0  0
    7.3572   -1.6245    0.9969 C   0  0  0  0  0  0  0  0  0  0  0  0
    7.7107   -0.2861    1.1433 C   0  0  0  0  0  0  0  0  0  0  0  0
    6.7521    0.7114    0.9923 C   0  0  0  0  0  0  0  0  0  0  0  0
    5.4191    0.3808    0.6939 C   0  0  0  0  0  0  0  0  0  0  0  0
    5.0475   -0.9718    0.5537 C   0  0  0  0  0  0  0  0  0  0  0  0
    3.6250   -1.2976    0.2688 C   0  0  0  0  0  0  0  0  0  0  0  0
    3.2292   -2.4898    0.3776 O   0  0  0  0  0  0  0  0  0  0  0  0
    2.6563   -0.2220   -0.1032 C   0  0  0  0  0  0  0  0  0  0  0  0
    1.3753   -0.5421   -0.6089 C   0  0  0  0  0  0  0  0  0  0  0  0
    1.0606   -1.8913   -0.8108 O   0  0  0  0  0  0  0  0  0  0  0  0
    0.4394    0.4815   -0.9106 C   0  0  0  0  0  0  0  0  0  0  0  0
    0.8064    1.8381   -0.6972 C   0  0  0  0  0  0  0  0  0  0  0  0
   -0.1642    2.9741   -0.9738 C   0  0  0  0  0  0  0  0  0  0  0  0
   -1.6427    2.5380   -1.0410 C   0  0  2  0  0  0  0  0  0  0  0  0
   -2.1439    2.2521    0.2491 O   0  0  0  0  0  0  0  0  0  0  0  0
   -1.7539    1.3005   -1.9450 C   0  0  0  0  0  0  0  0  0  0  0  0
   -0.9565    0.0996   -1.4045 C   0  0  2  0  0  0  0  0  0  0  0  0
   -1.6611   -0.5170   -0.3326 O   0  0  0  0  0  0  0  0  0  0  0  0
   -2.5170   -1.5727   -0.7611 C   0  0  1  0  0  0  0  0  0  0  0  0
   -2.6427   -2.6228    0.3527 C   0  0  0  0  0  0  0  0  0  0  0  0
   -3.4137   -2.0626    1.5553 C   0  0  2  0  0  0  0  0  0  0  0  0
   -3.6612   -3.1304    2.5265 N   0  0  0  0  0  0  0  0  0  0  0  0
   -4.7445   -1.4576    1.0762 C   0  0  1  0  0  0  0  0  0  0  0  0
   -5.3616   -0.7957    2.1527 O   0  0  0  0  0  0  0  0  0  0  0  0
   -4.4729   -0.4586   -0.0722 C   0  0  2  0  0  0  0  0  0  0  0  0
   -5.7799    0.1232   -0.6135 C   0  0  0  0  0  0  0  0  0  0  0  0
   -3.7947   -1.0894   -1.1476 O   0  0  0  0  0  0  0  0  0  0  0  0
   -2.4691    3.6684   -1.6440 C   0  0  0  0  0  0  0  0  0  0  0  0
   -2.2315    4.0526   -2.7810 O   0  0  0  0  0  0  0  0  0  0  0  0
   -3.5986    4.3127   -0.8873 C   0  0  0  0  0  0  0  0  0  0  0  0
   -4.6465    3.3960   -0.7432 O   0  0  0  0  0  0  0  0  0  0  0  0
    2.1243    2.1526   -0.2886 C   0  0  0  0  0  0  0  0  0  0  0  0
    2.5562    3.4839   -0.2239 O   0  0  0  0  0  0  0  0  0  0  0  0
    3.0358    1.1273    0.0434 C   0  0  0  0  0  0  0  0  0  0  0  0
    4.4077    1.4489    0.5338 C   0  0  0  0  0  0  0  0  0  0  0  0
    4.7202    2.6356    0.8268 O   0  0  0  0  0  0  0  0  0  0  0  0
    5.9941   -5.3777    0.4749 H   0  0  0  0  0  0  0  0  0  0  0  0
    6.9891   -4.4727    1.6755 H   0  0  0  0  0  0  0  0  0  0  0  0
    7.3648   -4.3596   -0.1039 H   0  0  0  0  0  0  0  0  0  0  0  0
    8.1283   -2.3730    1.1158 H   0  0  0  0  0  0  0  0  0  0  0  0
    8.7349   -0.0201    1.3715 H   0  0  0  0  0  0  0  0  0  0  0  0
    7.0569    1.7443    1.1052 H   0  0  0  0  0  0  0  0  0  0  0  0
    0.1908   -2.2312   -1.1904 H   0  0  0  0  0  0  0  0  0  0  0  0
   -0.0879    3.7404   -0.1715 H   0  0  0  0  0  0  0  0  0  0  0  0
    0.1413    3.4447   -1.9345 H   0  0  0  0  0  0  0  0  0  0  0  0
   -1.4513    1.7788    0.7783 H   0  0  0  0  0  0  0  0  0  0  0  0
   -2.8207    1.0265   -2.0795 H   0  0  0  0  0  0  0  0  0  0  0  0
   -1.3622    1.5498   -2.9575 H   0  0  0  0  0  0  0  0  0  0  0  0
   -0.8070   -0.5754   -2.2779 H   0  0  0  0  0  0  0  0  0  0  0  0
   -2.0985   -2.1279   -1.6297 H   0  0  0  0  0  0  0  0  0  0  0  0
   -3.1764   -3.5138   -0.0474 H   0  0  0  0  0  0  0  0  0  0  0  0
   -1.6278   -2.9460    0.6728 H   0  0  0  0  0  0  0  0  0  0  0  0
   -2.7997   -1.2653    2.0359 H   0  0  0  0  0  0  0  0  0  0  0  0
   -4.1054   -2.7108    3.3753 H   0  0  0  0  0  0  0  0  0  0  0  0
   -2.7380   -3.5051    2.8459 H   0  0  0  0  0  0  0  0  0  0  0  0
   -5.3925   -2.2861    0.6980 H   0  0  0  0  0  0  0  0  0  0  0  0
   -6.3416   -0.9097    2.0437 H   0  0  0  0  0  0  0  0  0  0  0  0
   -3.8783    0.3956    0.3170 H   0  0  0  0  0  0  0  0  0  0  0  0
   -6.2953    0.7223    0.1666 H   0  0  0  0  0  0  0  0  0  0  0  0
   -6.4547   -0.6894   -0.9581 H   0  0  0  0  0  0  0  0  0  0  0  0
   -5.5637    0.7915   -1.4740 H   0  0  0  0  0  0  0  0  0  0  0  0
   -3.2339    4.6403    0.1115 H   0  0  0  0  0  0  0  0  0  0  0  0
   -3.9618    5.2100   -1.4372 H   0  0  0  0  0  0  0  0  0  0  0  0
   -5.3445    3.8569   -0.2094 H   0  0  0  0  0  0  0  0  0  0  0  0
    2.0235    4.2757   -0.5576 H   0  0  0  0  0  0  0  0  0  0  0  0
  1  2  1  0
  2  3  1  0
  3  4  2  0
  4  5  1  0
  5  6  2  0
  6  7  1  0
  7  8  2  0
  8  9  1  0
  9 10  2  0
  9 11  1  0
 11 12  2  0
 12 13  1  0
 12 14  1  0
 14 15  2  0
 15 16  1  0
 16 17  1  0
 17 18  1  1
 17 19  1  0
 19 20  1  0
 20 21  1  0
 21 22  1  0
 22 23  1  0
 23 24  1  0
 24 25  1  0
 24 26  1  0
 26 27  1  0
 26 28  1  0
 28 29  1  0
 28 30  1  0
 17 31  1  0
 31 32  2  0
 31 33  1  0
 33 34  1  0
 15 35  1  0
 35 36  1  0
 35 37  2  0
 37 38  1  0
 38 39  2  0
  8  3  1  0
 37 11  1  0
 38  7  1  0
 20 14  1  0
 30 22  1  0
  1 40  1  0
  1 41  1  0
  1 42  1  0
  4 43  1  0
  5 44  1  0
  6 45  1  0
 13 46  1  0
 16 47  1  0
 16 48  1  0
 18 49  1  0
 19 50  1  0
 19 51  1  0
 20 52  1  6
 22 53  1  6
 23 54  1  0
 23 55  1  0
 24 56  1  1
 25 57  1  0
 25 58  1  0
 26 59  1  6
 27 60  1  0
 28 61  1  1
 29 62  1  0
 29 63  1  0
 29 64  1  0
 33 65  1  0
 33 66  1  0
 34 67  1  0
 36 68  1  0
M  END
$$$$
