
     RDKit          3D

 70 72  0  0  0  0  0  0  0  0999 V2000
   -6.7103    0.2244   -2.0229 C   0  0  0  0  0  0  0  0  0  0  0  0
   -5.5778   -0.8000   -2.1480 C   0  0  0  0  0  0  0  0  0  0  0  0
   -5.3888   -1.6622   -0.8729 C   0  0  0  0  0  0  0  0  0  0  0  0
   -4.2549   -2.6830   -1.0992 C   0  0  0  0  0  0  0  0  0  0  0  0
   -5.0862   -0.8256    0.2569 O   0  0  0  0  0  0  0  0  0  0  0  0
   -3.8540   -0.1933    0.4665 C   0  0  0  0  0  0  0  0  0  0  0  0
   -2.9051   -0.7915    1.2976 C   0  0  0  0  0  0  0  0  0  0  0  0
   -1.6711   -0.1764    1.5152 C   0  0  0  0  0  0  0  0  0  0  0  0
   -1.3509    1.0552    0.9010 C   0  0  0  0  0  0  0  0  0  0  0  0
   -2.3408    1.6673    0.0973 C   0  0  0  0  0  0  0  0  0  0  0  0
   -3.5743    1.0458   -0.1170 C   0  0  0  0  0  0  0  0  0  0  0  0
    0.0253    1.6955    1.1958 C   0  0  0  0  0  0  0  0  0  0  0  0
   -0.0218    2.1563    2.6972 C   0  0  0  0  0  0  0  0  0  0  0  0
    0.9227    3.3321    2.9918 C   0  0  0  0  0  0  0  0  0  0  0  0
    0.5268    4.5863    2.1893 C   0  0  0  0  0  0  0  0  0  0  0  0
   -0.1474    4.2567    0.8439 C   0  0  0  0  0  0  0  0  0  0  0  0
    0.3607    2.9232    0.2738 C   0  0  0  0  0  0  0  0  0  0  0  0
    1.1117    0.6340    0.9050 C   0  0  0  0  0  0  0  0  0  0  0  0
    2.1487    0.3091    1.8108 C   0  0  0  0  0  0  0  0  0  0  0  0
    3.1216   -0.6367    1.4753 C   0  0  0  0  0  0  0  0  0  0  0  0
    3.1018   -1.2599    0.2251 C   0  0  0  0  0  0  0  0  0  0  0  0
    4.0729   -2.2131   -0.1044 O   0  0  0  0  0  0  0  0  0  0  0  0
    5.3321   -1.9075   -0.7241 C   0  0  0  0  0  0  0  0  0  0  0  0
    6.1497   -0.9932    0.2161 C   0  0  0  0  0  0  0  0  0  0  0  0
    5.0808   -1.2229   -2.0968 C   0  0  0  0  0  0  0  0  0  0  0  0
    6.3452   -0.9402   -2.9161 C   0  0  0  0  0  0  0  0  0  0  0  0
    6.0422   -3.2268   -0.9356 C   0  0  0  0  0  0  0  0  0  0  0  0
    5.3111   -4.3403   -1.3405 O   0  0  0  0  0  0  0  0  0  0  0  0
    7.2930   -3.3233   -0.8004 O   0  0  0  0  0  0  0  0  0  0  0  0
    2.0866   -0.9521   -0.6826 C   0  0  0  0  0  0  0  0  0  0  0  0
    1.1122   -0.0078   -0.3542 C   0  0  0  0  0  0  0  0  0  0  0  0
   -6.6563   -2.4285   -0.5691 C   0  0  0  0  0  0  0  0  0  0  0  0
   -7.2544   -2.3230    0.6839 O   0  0  0  0  0  0  0  0  0  0  0  0
   -7.1725   -3.1779   -1.4427 O   0  0  0  0  0  0  0  0  0  0  0  0
   -7.6930   -0.2877   -1.9561 H   0  0  0  0  0  0  0  0  0  0  0  0
   -6.5745    0.8618   -1.1252 H   0  0  0  0  0  0  0  0  0  0  0  0
   -6.7191    0.8768   -2.9213 H   0  0  0  0  0  0  0  0  0  0  0  0
   -4.6341   -0.2615   -2.3790 H   0  0  0  0  0  0  0  0  0  0  0  0
   -5.7931   -1.4553   -3.0208 H   0  0  0  0  0  0  0  0  0  0  0  0
   -4.5049   -3.3751   -1.9324 H   0  0  0  0  0  0  0  0  0  0  0  0
   -3.3060   -2.1672   -1.3593 H   0  0  0  0  0  0  0  0  0  0  0  0
   -4.0883   -3.2835   -0.1791 H   0  0  0  0  0  0  0  0  0  0  0  0
   -3.1232   -1.7392    1.7732 H   0  0  0  0  0  0  0  0  0  0  0  0
   -0.9576   -0.6659    2.1664 H   0  0  0  0  0  0  0  0  0  0  0  0
   -2.1869    2.6246   -0.3737 H   0  0  0  0  0  0  0  0  0  0  0  0
   -4.3134    1.5390   -0.7325 H   0  0  0  0  0  0  0  0  0  0  0  0
   -1.0491    2.5032    2.9545 H   0  0  0  0  0  0  0  0  0  0  0  0
    0.1740    1.3132    3.3924 H   0  0  0  0  0  0  0  0  0  0  0  0
    1.9661    3.0525    2.7352 H   0  0  0  0  0  0  0  0  0  0  0  0
    0.8980    3.5654    4.0782 H   0  0  0  0  0  0  0  0  0  0  0  0
    1.4390    5.1952    2.0064 H   0  0  0  0  0  0  0  0  0  0  0  0
   -0.1693    5.2077    2.7941 H   0  0  0  0  0  0  0  0  0  0  0  0
    0.0573    5.0732    0.1182 H   0  0  0  0  0  0  0  0  0  0  0  0
   -1.2469    4.2107    0.9915 H   0  0  0  0  0  0  0  0  0  0  0  0
   -0.0110    2.7733   -0.7615 H   0  0  0  0  0  0  0  0  0  0  0  0
    1.4652    3.0257    0.1665 H   0  0  0  0  0  0  0  0  0  0  0  0
    2.2290    0.7700    2.7819 H   0  0  0  0  0  0  0  0  0  0  0  0
    3.8965   -0.8822    2.1900 H   0  0  0  0  0  0  0  0  0  0  0  0
    7.1823   -0.8360   -0.1594 H   0  0  0  0  0  0  0  0  0  0  0  0
    6.2181   -1.4512    1.2260 H   0  0  0  0  0  0  0  0  0  0  0  0
    5.6660    0.0018    0.3125 H   0  0  0  0  0  0  0  0  0  0  0  0
    4.4093   -1.8676   -2.7053 H   0  0  0  0  0  0  0  0  0  0  0  0
    4.5547   -0.2563   -1.9406 H   0  0  0  0  0  0  0  0  0  0  0  0
    6.0559   -0.4875   -3.8878 H   0  0  0  0  0  0  0  0  0  0  0  0
    6.9020   -1.8766   -3.1269 H   0  0  0  0  0  0  0  0  0  0  0  0
    7.0069   -0.2222   -2.3901 H   0  0  0  0  0  0  0  0  0  0  0  0
    5.7674   -5.2290   -1.5082 H   0  0  0  0  0  0  0  0  0  0  0  0
    2.0561   -1.4399   -1.6483 H   0  0  0  0  0  0  0  0  0  0  0  0
    0.3498    0.2238   -1.0876 H   0  0  0  0  0  0  0  0  0  0  0  0
   -8.1014   -2.8348    0.9003 H   0  0  0  0  0  0  0  0  0  0  0  0
  1  2  1  0
  2  3  1  0
  3  4  1  0
  3  5  1  0
  5  6  1  0
  6  7  2  0
  7  8  1  0
  8  9  2  0
  9 10  1  0
 10 11  2  0
  9 12  1  0
 12 13  1  0
 13 14  1  0
 14 15  1  0
 15 16  1  0
 16 17  1  0
 12 18  1  0
 18 19  2  0
 19 20  1  0
 20 21  2  0
 21 22  1  0
 22 23  1  0
 23 24  1  0
 23 25  1  0
 25 26  1  0
 23 27  1  0
 27 28  1  0
 27 29  2  0
 21 30  1  0
 30 31  2  0
  3 32  1  0
 32 33  1  0
 32 34  2  0
 11  6  1  0
 17 12  1  0
 31 18  1  0
  1 35  1  0
  1 36  1  0
  1 37  1  0
  2 38  1  0
  2 39  1  0
  4 40  1  0
  4 41  1  0
  4 42  1  0
  7 43  1  0
  8 44  1  0
 10 45  1  0
 11 46  1  0
 13 47  1  0
 13 48  1  0
 14 49  1  0
 14 50  1  0
 15 51  1  0
 15 52  1  0
 16 53  1  0
 16 54  1  0
 17 55  1  0
 17 56  1  0
 19 57  1  0
 20 58  1  0
 24 59  1  0
 24 60  1  0
 24 61  1  0
 25 62  1  0
 25 63  1  0
 26 64  1  0
 26 65  1  0
 26 66  1  0
 28 67  1  0
 30 68  1  0
 31 69  1  0
 33 70  1  0
M  END
$$$$
