
     RDKit          3D

 37 39  0  0  0  0  0  0  0  0999 V2000
    7.0569    0.2183   -0.6195 N   0  0  0  0  0  0  0  0  0  0  0  0
    6.0723   -0.4894    0.1385 C   0  0  0  0  0  0  0  0  0  0  0  0
    6.4619   -1.2562    1.1094 N   0  0  0  0  0  0  0  0  0  0  0  0
    4.6321   -0.3519   -0.1946 C   0  0  0  0  0  0  0  0  0  0  0  0
    4.2263   -0.2384   -1.5351 C   0  0  0  0  0  0  0  0  0  0  0  0
    2.8743   -0.1062   -1.8613 C   0  0  0  0  0  0  0  0  0  0  0  0
    1.9025   -0.0813   -0.8515 C   0  0  0  0  0  0  0  0  0  0  0  0
    0.5425    0.0524   -1.1712 C   0  0  0  0  0  0  0  0  0  0  0  0
   -0.4319    0.0876   -0.1568 C   0  0  0  0  0  0  0  0  0  0  0  0
   -0.0253   -0.0295    1.1846 C   0  0  0  0  0  0  0  0  0  0  0  0
    1.3267   -0.1641    1.5101 C   0  0  0  0  0  0  0  0  0  0  0  0
    2.2984   -0.1905    0.5006 C   0  0  0  0  0  0  0  0  0  0  0  0
    3.6584   -0.3247    0.8205 C   0  0  0  0  0  0  0  0  0  0  0  0
   -1.8673    0.2234   -0.5064 C   0  0  0  0  0  0  0  0  0  0  0  0
   -2.2456   -0.0259   -1.6839 O   0  0  0  0  0  0  0  0  0  0  0  0
   -2.8220    0.6826    0.4656 N   0  0  0  0  0  0  0  0  0  0  0  0
   -4.2394    0.4625    0.3592 C   0  0  0  0  0  0  0  0  0  0  0  0
   -5.1264    1.3902    0.9288 C   0  0  0  0  0  0  0  0  0  0  0  0
   -6.5078    1.1859    0.8564 C   0  0  0  0  0  0  0  0  0  0  0  0
   -7.0150    0.0465    0.2268 C   0  0  0  0  0  0  0  0  0  0  0  0
   -6.1412   -0.8938   -0.3248 C   0  0  0  0  0  0  0  0  0  0  0  0
   -4.7589   -0.6929   -0.2552 C   0  0  0  0  0  0  0  0  0  0  0  0
    8.0728    0.0908   -0.4135 H   0  0  0  0  0  0  0  0  0  0  0  0
    6.7819    0.9106   -1.3510 H   0  0  0  0  0  0  0  0  0  0  0  0
    5.7996   -1.8179    1.6894 H   0  0  0  0  0  0  0  0  0  0  0  0
    4.9542   -0.2716   -2.3359 H   0  0  0  0  0  0  0  0  0  0  0  0
    2.5889   -0.0263   -2.9036 H   0  0  0  0  0  0  0  0  0  0  0  0
    0.2446    0.1394   -2.2100 H   0  0  0  0  0  0  0  0  0  0  0  0
   -0.7513   -0.0374    1.9869 H   0  0  0  0  0  0  0  0  0  0  0  0
    1.6115   -0.2540    2.5518 H   0  0  0  0  0  0  0  0  0  0  0  0
    3.9584   -0.3869    1.8601 H   0  0  0  0  0  0  0  0  0  0  0  0
   -2.4812    1.3066    1.2314 H   0  0  0  0  0  0  0  0  0  0  0  0
   -4.7462    2.2764    1.4213 H   0  0  0  0  0  0  0  0  0  0  0  0
   -7.1850    1.9101    1.2903 H   0  0  0  0  0  0  0  0  0  0  0  0
   -8.0844   -0.1115    0.1732 H   0  0  0  0  0  0  0  0  0  0  0  0
   -6.5348   -1.7833   -0.7994 H   0  0  0  0  0  0  0  0  0  0  0  0
   -4.1004   -1.4497   -0.6601 H   0  0  0  0  0  0  0  0  0  0  0  0
  1  2  1  0
  2  3  2  3
  2  4  1  0
  4  5  2  0
  5  6  1  0
  6  7  2  0
  7  8  1  0
  8  9  2  0
  9 10  1  0
 10 11  2  0
 11 12  1  0
 12 13  2  0
  9 14  1  0
 14 15  2  0
 14 16  1  0
 16 17  1  0
 17 18  2  0
 18 19  1  0
 19 20  2  0
 20 21  1  0
 21 22  2  0
 13  4  1  0
 22 17  1  0
 12  7  1  0
  1 23  1  0
  1 24  1  0
  3 25  1  0
  5 26  1  0
  6 27  1  0
  8 28  1  0
 10 29  1  0
 11 30  1  0
 13 31  1  0
 16 32  1  0
 18 33  1  0
 19 34  1  0
 20 35  1  0
 21 36  1  0
 22 37  1  0
M  END
$$$$
