
     RDKit          3D

 34 37  0  0  0  0  0  0  0  0999 V2000
    4.2705    1.1940    0.7452 O   0  0  0  0  0  0  0  0  0  0  0  0
    3.3043    1.9432    0.0812 C   0  0  0  0  0  0  0  0  0  0  0  0
    2.9332    3.0518    0.5515 O   0  0  0  0  0  0  0  0  0  0  0  0
    2.6747    1.4084   -1.1640 C   0  0  0  0  0  0  0  0  0  0  0  0
    1.5193    0.5152   -0.8149 C   0  0  0  0  0  0  0  0  0  0  0  0
    0.2100    0.8899   -0.5358 C   0  0  0  0  0  0  0  0  0  0  0  0
   -0.2817    2.1558   -0.5428 N   0  0  0  0  0  0  0  0  0  0  0  0
   -1.5764    2.3816   -0.1861 C   0  0  0  0  0  0  0  0  0  0  0  0
   -2.0121    3.5654   -0.1608 O   0  0  0  0  0  0  0  0  0  0  0  0
   -2.4254    1.2967    0.1287 C   0  0  0  0  0  0  0  0  0  0  0  0
   -3.7847    1.4939    0.4346 C   0  0  0  0  0  0  0  0  0  0  0  0
   -4.6255    0.3990    0.6342 C   0  0  0  0  0  0  0  0  0  0  0  0
   -4.1313   -0.8969    0.4931 C   0  0  0  0  0  0  0  0  0  0  0  0
   -2.7816   -1.1102    0.2016 C   0  0  0  0  0  0  0  0  0  0  0  0
   -1.8934   -0.0213    0.0892 C   0  0  0  0  0  0  0  0  0  0  0  0
   -0.5513   -0.1659   -0.1590 N   0  0  0  0  0  0  0  0  0  0  0  0
    0.3043   -1.2233   -0.0959 C   0  0  0  0  0  0  0  0  0  0  0  0
    1.5655   -0.8348   -0.5160 C   0  0  0  0  0  0  0  0  0  0  0  0
    2.6577   -1.7039   -0.4910 C   0  0  0  0  0  0  0  0  0  0  0  0
    2.4591   -3.0011    0.0020 C   0  0  0  0  0  0  0  0  0  0  0  0
    1.2011   -3.3862    0.5017 C   0  0  0  0  0  0  0  0  0  0  0  0
    0.1182   -2.4904    0.4840 C   0  0  0  0  0  0  0  0  0  0  0  0
    4.6944    1.5338    1.6001 H   0  0  0  0  0  0  0  0  0  0  0  0
    3.4305    0.8402   -1.7457 H   0  0  0  0  0  0  0  0  0  0  0  0
    2.3304    2.2448   -1.8084 H   0  0  0  0  0  0  0  0  0  0  0  0
    0.3319    2.9630   -0.7944 H   0  0  0  0  0  0  0  0  0  0  0  0
   -4.2041    2.4907    0.4963 H   0  0  0  0  0  0  0  0  0  0  0  0
   -5.6732    0.5559    0.8566 H   0  0  0  0  0  0  0  0  0  0  0  0
   -4.8032   -1.7408    0.5837 H   0  0  0  0  0  0  0  0  0  0  0  0
   -2.4815   -2.1180   -0.0204 H   0  0  0  0  0  0  0  0  0  0  0  0
    3.6395   -1.3863   -0.8165 H   0  0  0  0  0  0  0  0  0  0  0  0
    3.2883   -3.6957    0.0382 H   0  0  0  0  0  0  0  0  0  0  0  0
    1.0769   -4.3694    0.9371 H   0  0  0  0  0  0  0  0  0  0  0  0
   -0.7845   -2.7792    0.9928 H   0  0  0  0  0  0  0  0  0  0  0  0
  1  2  1  0
  2  3  2  0
  2  4  1  0
  4  5  1  0
  5  6  2  0
  6  7  1  0
  7  8  1  0
  8  9  2  0
  8 10  1  0
 10 11  2  0
 11 12  1  0
 12 13  2  0
 13 14  1  0
 14 15  2  0
 15 16  1  0
 16 17  1  0
 17 18  2  0
 18 19  1  0
 19 20  2  0
 20 21  1  0
 21 22  2  0
 18  5  1  0
 16  6  1  0
 22 17  1  0
 15 10  1  0
  1 23  1  0
  4 24  1  0
  4 25  1  0
  7 26  1  0
 11 27  1  0
 12 28  1  0
 13 29  1  0
 14 30  1  0
 19 31  1  0
 20 32  1  0
 21 33  1  0
 22 34  1  0
M  END
$$$$
