
     RDKit          3D

 72 75  0  0  0  0  0  0  0  0999 V2000
    5.9047   -2.7038    1.3092 C   0  0  0  0  0  0  0  0  0  0  0  0
    4.7520   -2.4285    2.2709 C   0  0  0  0  0  0  0  0  0  0  0  0
    3.5765   -1.8058    1.5485 C   0  0  0  0  0  0  0  0  0  0  0  0
    2.6014   -2.6693    1.0154 C   0  0  0  0  0  0  0  0  0  0  0  0
    1.4643   -2.1700    0.3581 C   0  0  0  0  0  0  0  0  0  0  0  0
    1.3138   -0.7811    0.2331 C   0  0  0  0  0  0  0  0  0  0  0  0
    2.2792    0.0873    0.7393 C   0  0  0  0  0  0  0  0  0  0  0  0
    3.4394   -0.4026    1.3664 C   0  0  0  0  0  0  0  0  0  0  0  0
    4.4566    0.5921    1.8999 C   0  0  0  0  0  0  0  0  0  0  0  0
    4.5861    1.7595    1.0022 N   0  0  0  0  0  0  0  0  0  0  0  0
    5.6494    2.6750    1.4458 C   0  0  0  0  0  0  0  0  0  0  0  0
    6.5005    2.4158    0.2107 C   0  0  0  0  0  0  0  0  0  0  0  0
    5.3885    1.4603   -0.1955 C   0  0  0  0  0  0  0  0  0  0  0  0
    7.8176    1.7466    0.4936 C   0  0  0  0  0  0  0  0  0  0  0  0
    7.8868    0.6271    1.3189 O   0  0  0  0  0  0  0  0  0  0  0  0
    8.8700    2.2051   -0.0249 O   0  0  0  0  0  0  0  0  0  0  0  0
    0.4323   -3.0847   -0.1999 C   0  0  0  0  0  0  0  0  0  0  0  0
    0.2894   -4.4943    0.3164 C   0  0  0  0  0  0  0  0  0  0  0  0
   -0.3121   -2.6649   -1.1790 N   0  0  0  0  0  0  0  0  0  0  0  0
   -1.2742   -3.4519   -1.7748 O   0  0  0  0  0  0  0  0  0  0  0  0
   -2.0845   -2.9331   -2.8195 C   0  0  0  0  0  0  0  0  0  0  0  0
   -2.9248   -1.7974   -2.3027 C   0  0  0  0  0  0  0  0  0  0  0  0
   -2.4714   -0.4820   -2.4142 C   0  0  0  0  0  0  0  0  0  0  0  0
   -3.2209    0.5669   -1.8890 C   0  0  0  0  0  0  0  0  0  0  0  0
   -4.4453    0.3330   -1.2295 C   0  0  0  0  0  0  0  0  0  0  0  0
   -5.2136    1.5349   -0.6781 C   0  0  0  0  0  0  0  0  0  0  0  0
   -5.5515    2.5541   -1.7858 C   0  0  0  0  0  0  0  0  0  0  0  0
   -6.4576    3.6850   -1.2558 C   0  0  0  0  0  0  0  0  0  0  0  0
   -6.2279    4.0098    0.2351 C   0  0  0  0  0  0  0  0  0  0  0  0
   -4.7923    3.6987    0.6720 C   0  0  0  0  0  0  0  0  0  0  0  0
   -4.4491    2.2053    0.4944 C   0  0  0  0  0  0  0  0  0  0  0  0
   -4.8987   -1.0133   -1.0814 C   0  0  0  0  0  0  0  0  0  0  0  0
   -4.1229   -2.0582   -1.6279 C   0  0  0  0  0  0  0  0  0  0  0  0
   -6.1884   -1.3568   -0.3554 C   0  0  0  0  0  0  0  0  0  0  0  0
   -6.3949   -2.7241   -0.2819 F   0  0  0  0  0  0  0  0  0  0  0  0
   -7.2635   -0.8015   -1.0260 F   0  0  0  0  0  0  0  0  0  0  0  0
   -6.1437   -0.8688    0.9385 F   0  0  0  0  0  0  0  0  0  0  0  0
    6.2540   -1.7655    0.8320 H   0  0  0  0  0  0  0  0  0  0  0  0
    6.7531   -3.1547    1.8656 H   0  0  0  0  0  0  0  0  0  0  0  0
    5.5818   -3.4134    0.5177 H   0  0  0  0  0  0  0  0  0  0  0  0
    5.0935   -1.7904    3.1119 H   0  0  0  0  0  0  0  0  0  0  0  0
    4.4448   -3.3908    2.7363 H   0  0  0  0  0  0  0  0  0  0  0  0
    2.7421   -3.7387    1.1105 H   0  0  0  0  0  0  0  0  0  0  0  0
    0.4395   -0.3611   -0.2495 H   0  0  0  0  0  0  0  0  0  0  0  0
    2.1176    1.1529    0.6338 H   0  0  0  0  0  0  0  0  0  0  0  0
    5.4466    0.1189    2.0588 H   0  0  0  0  0  0  0  0  0  0  0  0
    4.0964    0.9392    2.8924 H   0  0  0  0  0  0  0  0  0  0  0  0
    6.1373    2.3848    2.4062 H   0  0  0  0  0  0  0  0  0  0  0  0
    5.2733    3.7208    1.4745 H   0  0  0  0  0  0  0  0  0  0  0  0
    6.5756    3.3023   -0.4577 H   0  0  0  0  0  0  0  0  0  0  0  0
    5.7076    0.3958   -0.2826 H   0  0  0  0  0  0  0  0  0  0  0  0
    4.8610    1.8067   -1.1108 H   0  0  0  0  0  0  0  0  0  0  0  0
    8.7724    0.1733    1.5074 H   0  0  0  0  0  0  0  0  0  0  0  0
    0.9917   -5.1613   -0.2255 H   0  0  0  0  0  0  0  0  0  0  0  0
   -0.7461   -4.8710    0.1825 H   0  0  0  0  0  0  0  0  0  0  0  0
    0.5093   -4.5321    1.4040 H   0  0  0  0  0  0  0  0  0  0  0  0
   -2.7376   -3.7440   -3.2063 H   0  0  0  0  0  0  0  0  0  0  0  0
   -1.4379   -2.5969   -3.6591 H   0  0  0  0  0  0  0  0  0  0  0  0
   -1.5292   -0.2664   -2.9032 H   0  0  0  0  0  0  0  0  0  0  0  0
   -2.8306    1.5712   -1.9893 H   0  0  0  0  0  0  0  0  0  0  0  0
   -6.1925    1.2162   -0.2732 H   0  0  0  0  0  0  0  0  0  0  0  0
   -6.0635    2.0414   -2.6295 H   0  0  0  0  0  0  0  0  0  0  0  0
   -4.6184    3.0078   -2.1836 H   0  0  0  0  0  0  0  0  0  0  0  0
   -7.5229    3.3992   -1.3963 H   0  0  0  0  0  0  0  0  0  0  0  0
   -6.2791    4.5985   -1.8641 H   0  0  0  0  0  0  0  0  0  0  0  0
   -6.9303    3.4132    0.8581 H   0  0  0  0  0  0  0  0  0  0  0  0
   -6.4480    5.0837    0.4188 H   0  0  0  0  0  0  0  0  0  0  0  0
   -4.0911    4.3148    0.0667 H   0  0  0  0  0  0  0  0  0  0  0  0
   -4.6568    3.9862    1.7370 H   0  0  0  0  0  0  0  0  0  0  0  0
   -4.6964    1.6614    1.4325 H   0  0  0  0  0  0  0  0  0  0  0  0
   -3.3492    2.1226    0.3577 H   0  0  0  0  0  0  0  0  0  0  0  0
   -4.4391   -3.0888   -1.5284 H   0  0  0  0  0  0  0  0  0  0  0  0
  1  2  1  0
  2  3  1  0
  3  4  2  0
  4  5  1  0
  5  6  2  0
  6  7  1  0
  7  8  2  0
  8  9  1  0
  9 10  1  0
 10 11  1  0
 11 12  1  0
 12 13  1  0
 12 14  1  0
 14 15  1  0
 14 16  2  0
  5 17  1  0
 17 18  1  0
 17 19  2  0
 19 20  1  0
 20 21  1  0
 21 22  1  0
 22 23  2  0
 23 24  1  0
 24 25  2  0
 25 26  1  0
 26 27  1  0
 27 28  1  0
 28 29  1  0
 29 30  1  0
 30 31  1  0
 25 32  1  0
 32 33  2  0
 32 34  1  0
 34 35  1  0
 34 36  1  0
 34 37  1  0
  8  3  1  0
 13 10  1  0
 33 22  1  0
 31 26  1  0
  1 38  1  0
  1 39  1  0
  1 40  1  0
  2 41  1  0
  2 42  1  0
  4 43  1  0
  6 44  1  0
  7 45  1  0
  9 46  1  0
  9 47  1  0
 11 48  1  0
 11 49  1  0
 12 50  1  0
 13 51  1  0
 13 52  1  0
 15 53  1  0
 18 54  1  0
 18 55  1  0
 18 56  1  0
 21 57  1  0
 21 58  1  0
 23 59  1  0
 24 60  1  0
 26 61  1  0
 27 62  1  0
 27 63  1  0
 28 64  1  0
 28 65  1  0
 29 66  1  0
 29 67  1  0
 30 68  1  0
 30 69  1  0
 31 70  1  0
 31 71  1  0
 33 72  1  0
M  END
$$$$
