
     RDKit          3D

 49 51  0  0  0  0  0  0  0  0999 V2000
   -0.1514   -1.8722    0.0060 C   0  0  2  0  0  0  0  0  0  0  0  0
   -1.5962   -2.1035   -0.4597 C   0  0  0  0  0  0  0  0  0  0  0  0
   -2.6071   -1.6592    0.6163 C   0  0  2  0  0  0  0  0  0  0  0  0
   -2.5874   -2.5922    1.6667 O   0  0  0  0  0  0  0  0  0  0  0  0
   -4.0473   -1.5294    0.0644 C   0  0  2  0  0  0  0  0  0  0  0  0
   -4.4316   -2.7252   -0.5655 O   0  0  0  0  0  0  0  0  0  0  0  0
   -4.1635   -0.3664   -0.8911 C   0  0  0  0  0  0  0  0  0  0  0  0
   -3.9594   -0.5340   -2.1241 O   0  0  0  0  0  0  0  0  0  0  0  0
   -4.4893    0.9788   -0.3929 C   0  0  0  0  0  0  0  0  0  0  0  0
   -3.6305    2.0075   -0.4148 C   0  0  0  0  0  0  0  0  0  0  0  0
   -2.1645    1.8838   -0.7526 C   0  0  0  0  0  0  0  0  0  0  0  0
   -1.3013    2.0171    0.5220 C   0  0  2  0  0  0  0  0  0  0  0  0
   -0.9596    3.4765    0.8459 C   0  0  0  0  0  0  0  0  0  0  0  0
   -0.1156    1.2193    0.4383 O   0  0  0  0  0  0  0  0  0  0  0  0
    0.9008    1.3746   -0.5118 C   0  0  0  0  0  0  0  0  0  0  0  0
    0.7940    2.2086   -1.4511 O   0  0  0  0  0  0  0  0  0  0  0  0
    2.1261    0.5674   -0.3893 C   0  0  0  0  0  0  0  0  0  0  0  0
    2.0908   -0.8302   -0.6051 C   0  0  0  0  0  0  0  0  0  0  0  0
    3.2819   -1.5708   -0.5227 C   0  0  0  0  0  0  0  0  0  0  0  0
    4.4921   -0.9561   -0.1944 C   0  0  0  0  0  0  0  0  0  0  0  0
    5.6439   -1.7536   -0.1175 O   0  0  0  0  0  0  0  0  0  0  0  0
    6.9419   -1.2645    0.2042 C   0  0  0  0  0  0  0  0  0  0  0  0
    4.5175    0.4280    0.0411 C   0  0  0  0  0  0  0  0  0  0  0  0
    3.3495    1.1898   -0.0544 C   0  0  0  0  0  0  0  0  0  0  0  0
    3.4351    2.5608    0.2012 O   0  0  0  0  0  0  0  0  0  0  0  0
    0.8256   -1.5150   -1.0585 C   0  0  1  0  0  0  0  0  0  0  0  0
    0.7197   -2.8273   -0.5537 O   0  0  0  0  0  0  0  0  0  0  0  0
    0.0984   -1.6827    1.0725 H   0  0  0  0  0  0  0  0  0  0  0  0
   -1.7525   -3.1813   -0.6865 H   0  0  0  0  0  0  0  0  0  0  0  0
   -1.7646   -1.5387   -1.3987 H   0  0  0  0  0  0  0  0  0  0  0  0
   -2.2925   -0.6650    1.0055 H   0  0  0  0  0  0  0  0  0  0  0  0
   -2.9697   -2.1393    2.4635 H   0  0  0  0  0  0  0  0  0  0  0  0
   -4.7267   -1.3387    0.9284 H   0  0  0  0  0  0  0  0  0  0  0  0
   -5.4190   -2.6915   -0.6669 H   0  0  0  0  0  0  0  0  0  0  0  0
   -5.4822    1.1400    0.0073 H   0  0  0  0  0  0  0  0  0  0  0  0
   -3.9764    2.9649   -0.0448 H   0  0  0  0  0  0  0  0  0  0  0  0
   -1.9437    0.9161   -1.2459 H   0  0  0  0  0  0  0  0  0  0  0  0
   -1.9019    2.6749   -1.4871 H   0  0  0  0  0  0  0  0  0  0  0  0
   -1.8763    1.6254    1.3897 H   0  0  0  0  0  0  0  0  0  0  0  0
   -1.8894    4.0508    1.0434 H   0  0  0  0  0  0  0  0  0  0  0  0
   -0.4167    3.9590    0.0072 H   0  0  0  0  0  0  0  0  0  0  0  0
   -0.3213    3.5189    1.7537 H   0  0  0  0  0  0  0  0  0  0  0  0
    3.2766   -2.6349   -0.7258 H   0  0  0  0  0  0  0  0  0  0  0  0
    7.2644   -0.5140   -0.5481 H   0  0  0  0  0  0  0  0  0  0  0  0
    6.9392   -0.8129    1.2187 H   0  0  0  0  0  0  0  0  0  0  0  0
    7.6605   -2.1094    0.1935 H   0  0  0  0  0  0  0  0  0  0  0  0
    5.4416    0.9274    0.2997 H   0  0  0  0  0  0  0  0  0  0  0  0
    2.6313    3.1760    0.1914 H   0  0  0  0  0  0  0  0  0  0  0  0
    0.5067   -1.4578   -2.1207 H   0  0  0  0  0  0  0  0  0  0  0  0
  1  2  1  0
  2  3  1  0
  3  4  1  0
  3  5  1  0
  5  6  1  0
  5  7  1  0
  7  8  2  0
  7  9  1  0
  9 10  2  3
 10 11  1  0
 11 12  1  0
 12 13  1  0
 12 14  1  0
 14 15  1  0
 15 16  2  0
 15 17  1  0
 17 18  2  0
 18 19  1  0
 19 20  2  0
 20 21  1  0
 21 22  1  0
 20 23  1  0
 23 24  2  0
 24 25  1  0
 18 26  1  0
 26 27  1  0
 26  1  1  0
 27  1  1  0
 24 17  1  0
  1 28  1  1
  2 29  1  0
  2 30  1  0
  3 31  1  1
  4 32  1  0
  5 33  1  1
  6 34  1  0
  9 35  1  0
 10 36  1  0
 11 37  1  0
 11 38  1  0
 12 39  1  1
 13 40  1  0
 13 41  1  0
 13 42  1  0
 19 43  1  0
 22 44  1  0
 22 45  1  0
 22 46  1  0
 23 47  1  0
 25 48  1  0
 26 49  1  6
M  END
$$$$
