
     RDKit          3D

 34 35  0  0  0  0  0  0  0  0999 V2000
    1.2056   -1.2759   -2.7749 O   0  0  0  0  0  0  0  0  0  0  0  0
    1.0158   -0.4532   -1.6460 C   0  0  1  0  0  0  0  0  0  0  0  0
   -0.3537    0.1926   -1.6304 C   0  0  1  0  0  0  0  0  0  0  0  0
   -0.9320    0.2668   -2.9079 O   0  0  0  0  0  0  0  0  0  0  0  0
   -1.1438   -0.7413   -0.7283 C   0  0  1  0  0  0  0  0  0  0  0  0
   -0.2604   -1.2994    0.2183 O   0  0  0  0  0  0  0  0  0  0  0  0
    1.0373   -1.2781   -0.3440 C   0  0  2  0  0  0  0  0  0  0  0  0
    2.0174   -0.7010    0.6835 C   0  0  0  0  0  0  0  0  0  0  0  0
    3.3324   -0.8161    0.1923 O   0  0  0  0  0  0  0  0  0  0  0  0
    4.3882   -0.0964    1.3204 P   0  0  0  0  0  5  0  0  0  0  0  0
    4.0372    1.5530    1.4734 O   0  0  0  0  0  0  0  0  0  0  0  0
    4.2300   -0.8510    2.8277 O   0  0  0  0  0  0  0  0  0  0  0  0
    5.8104   -0.2572    0.8339 O   0  0  0  0  0  0  0  0  0  0  0  0
   -2.2532   -0.0292   -0.0599 N   0  0  0  0  0  0  0  0  0  0  0  0
   -3.5195   -0.1755   -0.5564 C   0  0  0  0  0  0  0  0  0  0  0  0
   -4.5939    0.4904    0.0266 C   0  0  0  0  0  0  0  0  0  0  0  0
   -4.3527    1.3176    1.1178 C   0  0  0  0  0  0  0  0  0  0  0  0
   -5.3064    1.9319    1.6661 O   0  0  0  0  0  0  0  0  0  0  0  0
   -3.0866    1.4642    1.5874 N   0  0  0  0  0  0  0  0  0  0  0  0
   -2.0410    0.8097    1.0095 C   0  0  0  0  0  0  0  0  0  0  0  0
   -0.8789    0.9896    1.4662 O   0  0  0  0  0  0  0  0  0  0  0  0
    0.5029   -1.9780   -2.7689 H   0  0  0  0  0  0  0  0  0  0  0  0
    1.7988    0.3373   -1.6597 H   0  0  0  0  0  0  0  0  0  0  0  0
   -0.2855    1.2077   -1.1734 H   0  0  0  0  0  0  0  0  0  0  0  0
   -0.4565    0.9941   -3.3878 H   0  0  0  0  0  0  0  0  0  0  0  0
   -1.5423   -1.5869   -1.3376 H   0  0  0  0  0  0  0  0  0  0  0  0
    1.3427   -2.3276   -0.5550 H   0  0  0  0  0  0  0  0  0  0  0  0
    1.9073   -1.2806    1.6281 H   0  0  0  0  0  0  0  0  0  0  0  0
    1.7475    0.3634    0.8724 H   0  0  0  0  0  0  0  0  0  0  0  0
    4.0477    1.9003    0.5458 H   0  0  0  0  0  0  0  0  0  0  0  0
    4.8011   -0.3193    3.4376 H   0  0  0  0  0  0  0  0  0  0  0  0
   -3.7091   -0.8119   -1.4128 H   0  0  0  0  0  0  0  0  0  0  0  0
   -5.5950    0.3658   -0.3676 H   0  0  0  0  0  0  0  0  0  0  0  0
   -2.9117    2.0944    2.4035 H   0  0  0  0  0  0  0  0  0  0  0  0
  1  2  1  0
  2  3  1  0
  3  4  1  0
  3  5  1  0
  5  6  1  0
  6  7  1  0
  7  8  1  0
  8  9  1  0
  9 10  1  0
 10 11  1  0
 10 12  1  0
 10 13  2  0
  5 14  1  0
 14 15  1  0
 15 16  2  0
 16 17  1  0
 17 18  2  0
 17 19  1  0
 19 20  1  0
 20 21  2  0
  7  2  1  0
 20 14  1  0
  1 22  1  0
  2 23  1  1
  3 24  1  1
  4 25  1  0
  5 26  1  6
  7 27  1  6
  8 28  1  0
  8 29  1  0
 11 30  1  0
 12 31  1  0
 15 32  1  0
 16 33  1  0
 19 34  1  0
M  END
$$$$
