
     RDKit          3D

 47 49  0  0  0  0  0  0  0  0999 V2000
   -0.1287   -2.6480   -0.3422 C   0  0  1  0  0  0  0  0  0  0  0  0
   -0.0674   -1.9294    1.3573 S   0  0  0  0  0  0  0  0  0  0  0  0
   -1.3705   -0.6500    1.1558 C   0  0  0  0  0  0  0  0  0  0  0  0
   -2.6726   -1.2116    0.6089 C   0  0  0  0  0  0  0  0  0  0  0  0
   -3.9571   -0.8845    1.3363 C   0  0  0  0  0  0  0  0  0  0  0  0
   -4.7094    0.0948    0.6214 O   0  0  0  0  0  0  0  0  0  0  0  0
   -4.3430    1.4426    0.5396 C   0  0  0  0  0  0  0  0  0  0  0  0
   -5.1441    2.3698   -0.3089 C   0  0  0  0  0  0  0  0  0  0  0  0
   -3.3253    1.8746    1.1457 O   0  0  0  0  0  0  0  0  0  0  0  0
   -2.6251   -1.9107   -0.5496 C   0  0  0  0  0  0  0  0  0  0  0  0
   -1.3282   -2.2417   -1.0346 N   0  0  0  0  0  0  0  0  0  0  0  0
   -0.4838   -1.7519   -2.1475 C   0  0  0  0  0  0  0  0  0  0  0  0
   -0.7046   -1.2113   -3.2624 O   0  0  0  0  0  0  0  0  0  0  0  0
    0.7437   -2.1009   -1.3596 C   0  0  1  0  0  0  0  0  0  0  0  0
    1.4793   -0.9019   -0.9500 N   0  0  0  0  0  0  0  0  0  0  0  0
    2.7627   -0.9881   -0.3144 C   0  0  0  0  0  0  0  0  0  0  0  0
    3.2541   -2.1171   -0.0411 O   0  0  0  0  0  0  0  0  0  0  0  0
    3.5032    0.2423    0.0511 C   0  0  0  0  0  0  0  0  0  0  0  0
    4.1312    0.3266    1.1858 N   0  0  0  0  0  0  0  0  0  0  0  0
    4.1332   -0.6958    2.1095 O   0  0  0  0  0  0  0  0  0  0  0  0
    4.8304   -0.5523    3.3351 C   0  0  0  0  0  0  0  0  0  0  0  0
    3.5374    1.4079   -0.8572 C   0  0  0  0  0  0  0  0  0  0  0  0
    3.2524    1.3428   -2.2244 C   0  0  0  0  0  0  0  0  0  0  0  0
    3.4443    2.8823   -2.8767 S   0  0  0  0  0  0  0  0  0  0  0  0
    3.8859    3.5549   -1.4040 C   0  0  0  0  0  0  0  0  0  0  0  0
    4.2202    4.9262   -1.2102 N   0  0  0  0  0  0  0  0  0  0  0  0
    3.8983    2.6430   -0.4103 N   0  0  0  0  0  0  0  0  0  0  0  0
   -3.7969   -2.3923   -1.3222 C   0  0  0  0  0  0  0  0  0  0  0  0
   -5.1024   -2.0680   -0.9683 O   0  0  0  0  0  0  0  0  0  0  0  0
   -3.6043   -3.1113   -2.3393 O   0  0  0  0  0  0  0  0  0  0  0  0
   -0.0673   -3.7579   -0.2973 H   0  0  0  0  0  0  0  0  0  0  0  0
   -1.5239   -0.1634    2.1411 H   0  0  0  0  0  0  0  0  0  0  0  0
   -0.9954    0.1310    0.4611 H   0  0  0  0  0  0  0  0  0  0  0  0
   -4.5632   -1.8060    1.4592 H   0  0  0  0  0  0  0  0  0  0  0  0
   -3.7563   -0.5138    2.3644 H   0  0  0  0  0  0  0  0  0  0  0  0
   -4.6531    2.4825   -1.2978 H   0  0  0  0  0  0  0  0  0  0  0  0
   -5.2195    3.3642    0.1795 H   0  0  0  0  0  0  0  0  0  0  0  0
   -6.1668    1.9632   -0.4545 H   0  0  0  0  0  0  0  0  0  0  0  0
    1.3782   -2.8476   -1.8856 H   0  0  0  0  0  0  0  0  0  0  0  0
    1.0416    0.0390   -1.0792 H   0  0  0  0  0  0  0  0  0  0  0  0
    5.9095   -0.3837    3.1362 H   0  0  0  0  0  0  0  0  0  0  0  0
    4.7106   -1.4774    3.9354 H   0  0  0  0  0  0  0  0  0  0  0  0
    4.4178    0.3073    3.9037 H   0  0  0  0  0  0  0  0  0  0  0  0
    2.9763    0.4584   -2.7826 H   0  0  0  0  0  0  0  0  0  0  0  0
    4.4891    5.2736   -0.2632 H   0  0  0  0  0  0  0  0  0  0  0  0
    4.1983    5.5929   -2.0131 H   0  0  0  0  0  0  0  0  0  0  0  0
   -5.8887   -2.4032   -1.5119 H   0  0  0  0  0  0  0  0  0  0  0  0
  1  2  1  0
  2  3  1  0
  3  4  1  0
  4  5  1  0
  5  6  1  0
  6  7  1  0
  7  8  1  0
  7  9  2  0
  4 10  2  0
 10 11  1  0
 11 12  1  0
 12 13  2  0
 12 14  1  0
 14 15  1  0
 15 16  1  0
 16 17  2  0
 16 18  1  0
 18 19  2  0
 19 20  1  0
 20 21  1  0
 18 22  1  0
 22 23  2  0
 23 24  1  0
 24 25  1  0
 25 26  1  0
 25 27  2  0
 10 28  1  0
 28 29  1  0
 28 30  2  0
 11  1  1  0
 27 22  1  0
 14  1  1  0
  1 31  1  1
  3 32  1  0
  3 33  1  0
  5 34  1  0
  5 35  1  0
  8 36  1  0
  8 37  1  0
  8 38  1  0
 14 39  1  6
 15 40  1  0
 21 41  1  0
 21 42  1  0
 21 43  1  0
 23 44  1  0
 26 45  1  0
 26 46  1  0
 29 47  1  0
M  END
$$$$
