
     RDKit          3D

123126  0  0  0  0  0  0  0  0999 V2000
    3.4870    1.6622   -1.4270 C   0  0  0  0  0  0  0  0  0  0  0  0
    2.2483    1.9615   -1.8388 C   0  0  0  0  0  0  0  0  0  0  0  0
    1.4411    1.0913   -2.7155 C   0  0  0  0  0  0  0  0  0  0  0  0
    1.2214    1.4564   -3.9016 O   0  0  0  0  0  0  0  0  0  0  0  0
    0.8390   -0.1961   -2.1898 C   0  0  2  0  0  0  0  0  0  0  0  0
    1.5181   -1.4068   -2.8473 C   0  0  0  0  0  0  0  0  0  0  0  0
   -0.6992   -0.2592   -2.4146 C   0  0  0  0  0  0  0  0  0  0  0  0
   -1.5907    0.3498   -1.2957 C   0  0  2  0  0  0  0  0  0  0  0  0
   -1.1826    1.8094   -0.9507 C   0  0  0  0  0  0  0  0  0  0  0  0
   -2.1537    2.5658   -0.0270 C   0  0  0  0  0  0  0  0  0  0  0  0
   -3.5575    2.5226   -0.5009 N   0  0  0  0  0  0  0  0  0  0  0  0
   -3.8139    3.3261   -1.7193 C   0  0  0  0  0  0  0  0  0  0  0  0
   -3.8081    4.8410   -1.4523 C   0  0  0  0  0  0  0  0  0  0  0  0
   -4.7776    5.2010   -0.3256 C   0  0  0  0  0  0  0  0  0  0  0  0
   -4.4995    4.3603    0.9207 C   0  0  0  0  0  0  0  0  0  0  0  0
   -4.5161    2.8641    0.5741 C   0  0  0  0  0  0  0  0  0  0  0  0
   -1.8502   -0.6314   -0.0863 C   0  0  2  0  0  0  0  0  0  0  0  0
   -3.1081   -0.3059    0.4988 O   0  0  0  0  0  0  0  0  0  0  0  0
   -4.2027   -0.9777   -0.1113 C   0  0  2  0  0  0  0  0  0  0  0  0
   -5.2413   -0.0313   -0.2825 O   0  0  0  0  0  0  0  0  0  0  0  0
   -6.3423   -0.5983   -0.9702 C   0  0  2  0  0  0  0  0  0  0  0  0
   -7.3326    0.5241   -1.2868 C   0  0  0  0  0  0  0  0  0  0  0  0
   -7.0026   -1.6959   -0.1042 C   0  0  1  0  0  0  0  0  0  0  0  0
   -8.0595   -2.2887   -0.8156 O   0  0  0  0  0  0  0  0  0  0  0  0
   -5.9420   -2.7745    0.2472 C   0  0  2  0  0  0  0  0  0  0  0  0
   -6.4189   -3.8469    1.1674 N   0  0  0  0  0  0  0  0  0  0  0  0
   -7.0773   -4.9567    0.4589 C   0  0  0  0  0  0  0  0  0  0  0  0
   -7.2487   -3.3852    2.2941 C   0  0  0  0  0  0  0  0  0  0  0  0
   -4.6772   -2.1052    0.8266 C   0  0  1  0  0  0  0  0  0  0  0  0
   -3.6554   -3.0587    0.9619 O   0  0  0  0  0  0  0  0  0  0  0  0
   -0.7288   -0.6585    1.0224 C   0  0  1  0  0  0  0  0  0  0  0  0
   -1.3088   -0.5690    2.4535 C   0  0  0  0  0  0  0  0  0  0  0  0
    0.2134   -1.9042    0.8880 C   0  0  2  0  0  0  0  0  0  0  0  0
   -0.3512   -3.0260    1.5221 O   0  0  0  0  0  0  0  0  0  0  0  0
    1.6046   -1.6179    1.4935 C   0  0  0  0  0  0  0  0  0  0  0  0
    2.5894   -2.7251    1.2251 C   0  0  0  0  0  0  0  0  0  0  0  0
    2.3322   -3.8894    1.6305 O   0  0  0  0  0  0  0  0  0  0  0  0
    3.7697   -2.5135    0.4973 O   0  0  0  0  0  0  0  0  0  0  0  0
    4.9159   -1.7582    0.9314 C   0  0  2  0  0  0  0  0  0  0  0  0
    5.2009   -1.9113    2.4508 C   0  0  0  0  0  0  0  0  0  0  0  0
    4.3032   -1.1115    3.4006 C   0  0  0  0  0  0  0  0  0  0  0  0
    4.8945   -0.3085    0.3546 C   0  0  1  0  0  0  0  0  0  0  0  0
    6.0755    0.5851    0.8289 C   0  0  0  0  0  0  0  0  0  0  0  0
    7.4062   -0.0270    0.5712 N   0  0  0  0  0  0  0  0  0  0  0  0
    8.3549    0.1640    1.6941 C   0  0  0  0  0  0  0  0  0  0  0  0
    8.8621    1.6095    1.7916 C   0  0  0  0  0  0  0  0  0  0  0  0
    9.5332    2.0247    0.4853 C   0  0  0  0  0  0  0  0  0  0  0  0
    8.5793    1.8235   -0.6898 C   0  0  0  0  0  0  0  0  0  0  0  0
    8.0240    0.3875   -0.7140 C   0  0  0  0  0  0  0  0  0  0  0  0
    4.8682   -0.3717   -1.1603 C   0  0  0  0  0  0  0  0  0  0  0  0
    4.2754    0.5308   -1.9628 C   0  0  0  0  0  0  0  0  0  0  0  0
    4.5375    0.4562   -3.4447 C   0  0  0  0  0  0  0  0  0  0  0  0
    3.9507    2.3083   -0.6929 H   0  0  0  0  0  0  0  0  0  0  0  0
    1.7889    2.8706   -1.4729 H   0  0  0  0  0  0  0  0  0  0  0  0
    1.0553   -0.2456   -1.1095 H   0  0  0  0  0  0  0  0  0  0  0  0
    2.5716   -1.4858   -2.5217 H   0  0  0  0  0  0  0  0  0  0  0  0
    1.0251   -2.3522   -2.5373 H   0  0  0  0  0  0  0  0  0  0  0  0
    1.4753   -1.3316   -3.9551 H   0  0  0  0  0  0  0  0  0  0  0  0
   -1.0233   -1.3119   -2.5659 H   0  0  0  0  0  0  0  0  0  0  0  0
   -0.9483    0.2410   -3.3769 H   0  0  0  0  0  0  0  0  0  0  0  0
   -2.5776    0.4501   -1.7995 H   0  0  0  0  0  0  0  0  0  0  0  0
   -1.0712    2.3824   -1.8947 H   0  0  0  0  0  0  0  0  0  0  0  0
   -0.1812    1.8413   -0.4846 H   0  0  0  0  0  0  0  0  0  0  0  0
   -1.7975    3.6111    0.0802 H   0  0  0  0  0  0  0  0  0  0  0  0
   -2.0754    2.1106    0.9819 H   0  0  0  0  0  0  0  0  0  0  0  0
   -4.8070    3.0410   -2.1309 H   0  0  0  0  0  0  0  0  0  0  0  0
   -3.0824    3.0876   -2.5169 H   0  0  0  0  0  0  0  0  0  0  0  0
   -2.7848    5.1883   -1.1983 H   0  0  0  0  0  0  0  0  0  0  0  0
   -4.1153    5.3735   -2.3781 H   0  0  0  0  0  0  0  0  0  0  0  0
   -5.8224    5.0265   -0.6653 H   0  0  0  0  0  0  0  0  0  0  0  0
   -4.6729    6.2790   -0.0767 H   0  0  0  0  0  0  0  0  0  0  0  0
   -3.5187    4.6434    1.3591 H   0  0  0  0  0  0  0  0  0  0  0  0
   -5.2813    4.5678    1.6827 H   0  0  0  0  0  0  0  0  0  0  0  0
   -4.3063    2.2670    1.4885 H   0  0  0  0  0  0  0  0  0  0  0  0
   -5.5422    2.5837    0.2505 H   0  0  0  0  0  0  0  0  0  0  0  0
   -1.8887   -1.6669   -0.4964 H   0  0  0  0  0  0  0  0  0  0  0  0
   -3.9375   -1.4100   -1.1093 H   0  0  0  0  0  0  0  0  0  0  0  0
   -6.0172   -1.0295   -1.9463 H   0  0  0  0  0  0  0  0  0  0  0  0
   -7.7245    0.9740   -0.3496 H   0  0  0  0  0  0  0  0  0  0  0  0
   -8.1810    0.1395   -1.8912 H   0  0  0  0  0  0  0  0  0  0  0  0
   -6.8227    1.3176   -1.8735 H   0  0  0  0  0  0  0  0  0  0  0  0
   -7.3696   -1.2125    0.8319 H   0  0  0  0  0  0  0  0  0  0  0  0
   -8.8970   -1.8426   -0.5241 H   0  0  0  0  0  0  0  0  0  0  0  0
   -5.6228   -3.2398   -0.7155 H   0  0  0  0  0  0  0  0  0  0  0  0
   -8.0445   -4.6405    0.0157 H   0  0  0  0  0  0  0  0  0  0  0  0
   -6.4174   -5.3542   -0.3415 H   0  0  0  0  0  0  0  0  0  0  0  0
   -7.2693   -5.7943    1.1634 H   0  0  0  0  0  0  0  0  0  0  0  0
   -6.7745   -2.5264    2.8116 H   0  0  0  0  0  0  0  0  0  0  0  0
   -8.2677   -3.0967    1.9553 H   0  0  0  0  0  0  0  0  0  0  0  0
   -7.3470   -4.1999    3.0429 H   0  0  0  0  0  0  0  0  0  0  0  0
   -4.9053   -1.6455    1.8164 H   0  0  0  0  0  0  0  0  0  0  0  0
   -3.7997   -3.5168    1.8307 H   0  0  0  0  0  0  0  0  0  0  0  0
   -0.1038    0.2446    0.9208 H   0  0  0  0  0  0  0  0  0  0  0  0
   -0.5019   -0.5898    3.2138 H   0  0  0  0  0  0  0  0  0  0  0  0
   -1.8580    0.3851    2.5931 H   0  0  0  0  0  0  0  0  0  0  0  0
   -2.0066   -1.4098    2.6528 H   0  0  0  0  0  0  0  0  0  0  0  0
    0.3721   -2.1416   -0.1867 H   0  0  0  0  0  0  0  0  0  0  0  0
   -0.9837   -3.4380    0.8784 H   0  0  0  0  0  0  0  0  0  0  0  0
    1.5052   -1.4864    2.5884 H   0  0  0  0  0  0  0  0  0  0  0  0
    1.9957   -0.6745    1.0725 H   0  0  0  0  0  0  0  0  0  0  0  0
    5.7871   -2.2567    0.4504 H   0  0  0  0  0  0  0  0  0  0  0  0
    5.1326   -2.9878    2.7205 H   0  0  0  0  0  0  0  0  0  0  0  0
    6.2525   -1.6295    2.6446 H   0  0  0  0  0  0  0  0  0  0  0  0
    3.4442   -1.7308    3.7249 H   0  0  0  0  0  0  0  0  0  0  0  0
    3.9359   -0.1687    2.9515 H   0  0  0  0  0  0  0  0  0  0  0  0
    4.8757   -0.8530    4.3165 H   0  0  0  0  0  0  0  0  0  0  0  0
    3.9662    0.1820    0.6998 H   0  0  0  0  0  0  0  0  0  0  0  0
    5.9305    0.7805    1.9135 H   0  0  0  0  0  0  0  0  0  0  0  0
    5.9924    1.5834    0.3526 H   0  0  0  0  0  0  0  0  0  0  0  0
    7.8906   -0.1151    2.6621 H   0  0  0  0  0  0  0  0  0  0  0  0
    9.2210   -0.5209    1.5593 H   0  0  0  0  0  0  0  0  0  0  0  0
    9.5971    1.6863    2.6215 H   0  0  0  0  0  0  0  0  0  0  0  0
    8.0175    2.2961    2.0177 H   0  0  0  0  0  0  0  0  0  0  0  0
    9.8302    3.0940    0.5437 H   0  0  0  0  0  0  0  0  0  0  0  0
   10.4530    1.4190    0.3281 H   0  0  0  0  0  0  0  0  0  0  0  0
    9.1268    2.0165   -1.6375 H   0  0  0  0  0  0  0  0  0  0  0  0
    7.7529    2.5627   -0.6329 H   0  0  0  0  0  0  0  0  0  0  0  0
    7.3077    0.3039   -1.5517 H   0  0  0  0  0  0  0  0  0  0  0  0
    8.8542   -0.3129   -0.9527 H   0  0  0  0  0  0  0  0  0  0  0  0
    5.4437   -1.1637   -1.6284 H   0  0  0  0  0  0  0  0  0  0  0  0
    3.9643    1.2269   -3.9999 H   0  0  0  0  0  0  0  0  0  0  0  0
    5.6168    0.6336   -3.6369 H   0  0  0  0  0  0  0  0  0  0  0  0
    4.2667   -0.5437   -3.8423 H   0  0  0  0  0  0  0  0  0  0  0  0
  1  2  2  0
  2  3  1  0
  3  4  2  0
  3  5  1  0
  5  6  1  0
  5  7  1  0
  7  8  1  0
  8  9  1  0
  9 10  1  0
 10 11  1  0
 11 12  1  0
 12 13  1  0
 13 14  1  0
 14 15  1  0
 15 16  1  0
  8 17  1  0
 17 18  1  0
 18 19  1  0
 19 20  1  0
 20 21  1  0
 21 22  1  0
 21 23  1  0
 23 24  1  0
 23 25  1  0
 25 26  1  0
 26 27  1  0
 26 28  1  0
 25 29  1  0
 29 30  1  0
 17 31  1  0
 31 32  1  0
 31 33  1  0
 33 34  1  0
 33 35  1  0
 35 36  1  0
 36 37  2  0
 36 38  1  0
 38 39  1  0
 39 40  1  0
 40 41  1  0
 39 42  1  0
 42 43  1  0
 43 44  1  0
 44 45  1  0
 45 46  1  0
 46 47  1  0
 47 48  1  0
 48 49  1  0
 42 50  1  0
 50 51  2  0
 51 52  1  0
 51  1  1  0
 16 11  1  0
 29 19  1  0
 49 44  1  0
  1 53  1  0
  2 54  1  0
  5 55  1  1
  6 56  1  0
  6 57  1  0
  6 58  1  0
  7 59  1  0
  7 60  1  0
  8 61  1  6
  9 62  1  0
  9 63  1  0
 10 64  1  0
 10 65  1  0
 12 66  1  0
 12 67  1  0
 13 68  1  0
 13 69  1  0
 14 70  1  0
 14 71  1  0
 15 72  1  0
 15 73  1  0
 16 74  1  0
 16 75  1  0
 17 76  1  6
 19 77  1  6
 21 78  1  6
 22 79  1  0
 22 80  1  0
 22 81  1  0
 23 82  1  1
 24 83  1  0
 25 84  1  6
 27 85  1  0
 27 86  1  0
 27 87  1  0
 28 88  1  0
 28 89  1  0
 28 90  1  0
 29 91  1  1
 30 92  1  0
 31 93  1  6
 32 94  1  0
 32 95  1  0
 32 96  1  0
 33 97  1  6
 34 98  1  0
 35 99  1  0
 35100  1  0
 39101  1  6
 40102  1  0
 40103  1  0
 41104  1  0
 41105  1  0
 41106  1  0
 42107  1  1
 43108  1  0
 43109  1  0
 45110  1  0
 45111  1  0
 46112  1  0
 46113  1  0
 47114  1  0
 47115  1  0
 48116  1  0
 48117  1  0
 49118  1  0
 49119  1  0
 50120  1  0
 52121  1  0
 52122  1  0
 52123  1  0
M  END
$$$$
