
     RDKit          3D

 44 45  0  0  0  0  0  0  0  0999 V2000
   -2.1128   -2.5823    0.6672 C   0  0  0  0  0  0  0  0  0  0  0  0
   -2.2641   -1.3674   -0.1529 N   0  0  0  0  0  0  0  0  0  0  0  0
   -3.4740   -1.4825   -0.9827 C   0  0  0  0  0  0  0  0  0  0  0  0
   -1.0686   -1.1426   -0.9990 C   0  0  0  0  0  0  0  0  0  0  0  0
   -0.0132   -0.2944   -0.2375 C   0  0  0  0  0  0  0  0  0  0  0  0
   -0.6195    1.0660    0.0966 C   0  0  0  0  0  0  0  0  0  0  0  0
   -0.9611    1.9846   -0.9157 C   0  0  0  0  0  0  0  0  0  0  0  0
   -1.5276    3.2203   -0.5909 C   0  0  0  0  0  0  0  0  0  0  0  0
   -1.7699    3.5551    0.7438 C   0  0  0  0  0  0  0  0  0  0  0  0
   -2.3340    4.7910    1.0519 O   0  0  0  0  0  0  0  0  0  0  0  0
   -1.4463    2.6450    1.7573 C   0  0  0  0  0  0  0  0  0  0  0  0
   -0.8802    1.4082    1.4367 C   0  0  0  0  0  0  0  0  0  0  0  0
    1.3838   -0.2007   -0.9755 C   0  0  0  0  0  0  0  0  0  0  0  0
    1.1893    0.2162   -2.3092 O   0  0  0  0  0  0  0  0  0  0  0  0
    2.3009    0.8686   -0.3143 C   0  0  0  0  0  0  0  0  0  0  0  0
    2.7184    0.5141    1.1258 C   0  0  0  0  0  0  0  0  0  0  0  0
    3.0343   -0.9800    1.3219 C   0  0  0  0  0  0  0  0  0  0  0  0
    3.3294   -1.6819   -0.0034 C   0  0  0  0  0  0  0  0  0  0  0  0
    2.1274   -1.5930   -0.9630 C   0  0  0  0  0  0  0  0  0  0  0  0
   -1.2101   -2.5141    1.3086 H   0  0  0  0  0  0  0  0  0  0  0  0
   -2.0342   -3.4926    0.0316 H   0  0  0  0  0  0  0  0  0  0  0  0
   -2.9845   -2.6930    1.3475 H   0  0  0  0  0  0  0  0  0  0  0  0
   -4.3653   -1.6661   -0.3444 H   0  0  0  0  0  0  0  0  0  0  0  0
   -3.3772   -2.3095   -1.7214 H   0  0  0  0  0  0  0  0  0  0  0  0
   -3.6549   -0.5290   -1.5242 H   0  0  0  0  0  0  0  0  0  0  0  0
   -1.3467   -0.5966   -1.9281 H   0  0  0  0  0  0  0  0  0  0  0  0
   -0.6465   -2.1103   -1.3445 H   0  0  0  0  0  0  0  0  0  0  0  0
    0.1842   -0.8199    0.7191 H   0  0  0  0  0  0  0  0  0  0  0  0
   -0.7946    1.7494   -1.9576 H   0  0  0  0  0  0  0  0  0  0  0  0
   -1.7815    3.9181   -1.3787 H   0  0  0  0  0  0  0  0  0  0  0  0
   -2.5227    5.0628    2.0097 H   0  0  0  0  0  0  0  0  0  0  0  0
   -1.6353    2.8937    2.7938 H   0  0  0  0  0  0  0  0  0  0  0  0
   -0.6455    0.7179    2.2373 H   0  0  0  0  0  0  0  0  0  0  0  0
    0.7986   -0.5361   -2.8251 H   0  0  0  0  0  0  0  0  0  0  0  0
    1.8284    1.8734   -0.3244 H   0  0  0  0  0  0  0  0  0  0  0  0
    3.2225    0.9715   -0.9299 H   0  0  0  0  0  0  0  0  0  0  0  0
    1.9155    0.8115    1.8327 H   0  0  0  0  0  0  0  0  0  0  0  0
    3.6161    1.1161    1.3866 H   0  0  0  0  0  0  0  0  0  0  0  0
    2.1766   -1.4855    1.8165 H   0  0  0  0  0  0  0  0  0  0  0  0
    3.9108   -1.0879    1.9969 H   0  0  0  0  0  0  0  0  0  0  0  0
    4.2241   -1.2189   -0.4749 H   0  0  0  0  0  0  0  0  0  0  0  0
    3.5712   -2.7497    0.1895 H   0  0  0  0  0  0  0  0  0  0  0  0
    1.4330   -2.4146   -0.6933 H   0  0  0  0  0  0  0  0  0  0  0  0
    2.5056   -1.8348   -1.9805 H   0  0  0  0  0  0  0  0  0  0  0  0
  1  2  1  0
  2  3  1  0
  2  4  1  0
  4  5  1  0
  5  6  1  0
  6  7  2  0
  7  8  1  0
  8  9  2  0
  9 10  1  0
  9 11  1  0
 11 12  2  0
  5 13  1  0
 13 14  1  0
 13 15  1  0
 15 16  1  0
 16 17  1  0
 17 18  1  0
 18 19  1  0
 12  6  1  0
 19 13  1  0
  1 20  1  0
  1 21  1  0
  1 22  1  0
  3 23  1  0
  3 24  1  0
  3 25  1  0
  4 26  1  0
  4 27  1  0
  5 28  1  0
  7 29  1  0
  8 30  1  0
 10 31  1  0
 11 32  1  0
 12 33  1  0
 14 34  1  0
 15 35  1  0
 15 36  1  0
 16 37  1  0
 16 38  1  0
 17 39  1  0
 17 40  1  0
 18 41  1  0
 18 42  1  0
 19 43  1  0
 19 44  1  0
M  END
$$$$
