
     RDKit          3D

 39 40  0  0  0  0  0  0  0  0999 V2000
   -0.4115   -2.5742    0.3938 C   0  0  2  0  0  0  0  0  0  0  0  0
   -1.6206   -3.4791    0.1173 C   0  0  0  0  0  0  0  0  0  0  0  0
    0.3565   -3.1155    1.4403 O   0  0  0  0  0  0  0  0  0  0  0  0
   -0.8483   -1.1167    0.7193 C   0  0  1  0  0  0  0  0  0  0  0  0
    0.3173   -0.2088    1.1787 C   0  0  0  0  0  0  0  0  0  0  0  0
    1.4112    0.0124    0.1212 C   0  0  0  0  0  0  0  0  0  0  0  0
    2.5304    0.8532    0.6889 C   0  0  0  0  0  0  0  0  0  0  0  0
    2.4835    2.2483    0.5250 C   0  0  0  0  0  0  0  0  0  0  0  0
    3.4848    3.0593    1.0600 C   0  0  0  0  0  0  0  0  0  0  0  0
    4.5391    2.4907    1.7736 C   0  0  0  0  0  0  0  0  0  0  0  0
    4.5971    1.1066    1.9628 C   0  0  0  0  0  0  0  0  0  0  0  0
    5.9408    0.4387    2.8816 Cl  0  0  0  0  0  0  0  0  0  0  0  0
    3.5917    0.2783    1.4278 C   0  0  0  0  0  0  0  0  0  0  0  0
    3.6678   -1.4660    1.6965 Cl  0  0  0  0  0  0  0  0  0  0  0  0
   -1.5860   -0.4954   -0.3921 N   0  0  0  0  0  0  0  0  0  0  0  0
   -1.3123   -0.5374   -1.7155 C   0  0  0  0  0  0  0  0  0  0  0  0
   -2.1675    0.2071   -2.4473 N   0  0  0  0  0  0  0  0  0  0  0  0
   -3.0040    0.7404   -1.5339 C   0  0  0  0  0  0  0  0  0  0  0  0
   -2.6481    0.3194   -0.2709 C   0  0  0  0  0  0  0  0  0  0  0  0
   -4.1162    1.6460   -1.8621 C   0  0  0  0  0  0  0  0  0  0  0  0
   -4.3797    2.0144   -3.2165 N   0  0  0  0  0  0  0  0  0  0  0  0
   -4.8456    2.1029   -0.9418 O   0  0  0  0  0  0  0  0  0  0  0  0
    0.2200   -2.5817   -0.5177 H   0  0  0  0  0  0  0  0  0  0  0  0
   -2.1774   -3.1270   -0.7761 H   0  0  0  0  0  0  0  0  0  0  0  0
   -1.2755   -4.5168   -0.0765 H   0  0  0  0  0  0  0  0  0  0  0  0
   -2.3090   -3.4901    0.9891 H   0  0  0  0  0  0  0  0  0  0  0  0
   -0.2083   -3.1187    2.2572 H   0  0  0  0  0  0  0  0  0  0  0  0
   -1.5399   -1.1823    1.5905 H   0  0  0  0  0  0  0  0  0  0  0  0
    0.7723   -0.6418    2.0959 H   0  0  0  0  0  0  0  0  0  0  0  0
   -0.1026    0.7802    1.4674 H   0  0  0  0  0  0  0  0  0  0  0  0
    1.8154   -0.9544   -0.2400 H   0  0  0  0  0  0  0  0  0  0  0  0
    0.9792    0.5271   -0.7624 H   0  0  0  0  0  0  0  0  0  0  0  0
    1.6678    2.7099   -0.0180 H   0  0  0  0  0  0  0  0  0  0  0  0
    3.4415    4.1322    0.9236 H   0  0  0  0  0  0  0  0  0  0  0  0
    5.3105    3.1291    2.1854 H   0  0  0  0  0  0  0  0  0  0  0  0
   -0.4921   -1.0910   -2.1518 H   0  0  0  0  0  0  0  0  0  0  0  0
   -3.1194    0.5924    0.6650 H   0  0  0  0  0  0  0  0  0  0  0  0
   -5.1710    2.6577   -3.4408 H   0  0  0  0  0  0  0  0  0  0  0  0
   -3.7917    1.6506   -3.9988 H   0  0  0  0  0  0  0  0  0  0  0  0
  1  2  1  0
  1  3  1  0
  1  4  1  0
  4  5  1  0
  5  6  1  0
  6  7  1  0
  7  8  2  0
  8  9  1  0
  9 10  2  0
 10 11  1  0
 11 12  1  0
 11 13  2  0
 13 14  1  0
  4 15  1  0
 15 16  1  0
 16 17  2  0
 17 18  1  0
 18 19  2  0
 18 20  1  0
 20 21  1  0
 20 22  2  0
 13  7  1  0
 19 15  1  0
  1 23  1  6
  2 24  1  0
  2 25  1  0
  2 26  1  0
  3 27  1  0
  4 28  1  1
  5 29  1  0
  5 30  1  0
  6 31  1  0
  6 32  1  0
  8 33  1  0
  9 34  1  0
 10 35  1  0
 16 36  1  0
 19 37  1  0
 21 38  1  0
 21 39  1  0
M  END
$$$$
