
     RDKit          3D

 91 95  0  0  0  0  0  0  0  0999 V2000
   -1.9508   -1.5992   -0.8392 C   0  0  0  0  0  0  0  0  0  0  0  0
   -2.4571   -1.0728    0.2791 C   0  0  0  0  0  0  0  0  0  0  0  0
   -3.9124   -0.9922    0.5076 C   0  0  0  0  0  0  0  0  0  0  0  0
   -4.8693   -1.9713    0.2771 C   0  0  0  0  0  0  0  0  0  0  0  0
   -6.0957   -1.4533    0.4997 N   0  0  0  0  0  0  0  0  0  0  0  0
   -5.8653   -0.1755    0.8659 C   0  0  0  0  0  0  0  0  0  0  0  0
   -4.5505    0.1282    0.9020 N   0  0  0  0  0  0  0  0  0  0  0  0
   -3.9524    1.4453    1.1601 C   0  0  2  0  0  0  0  0  0  0  0  0
   -4.8489    2.2495    1.9018 O   0  0  0  0  0  0  0  0  0  0  0  0
   -4.9717    3.4795    1.2271 C   0  0  2  0  0  0  0  0  0  0  0  0
   -6.3826    4.0471    1.4194 C   0  0  0  0  0  0  0  0  0  0  0  0
   -7.3391    3.1193    0.9620 O   0  0  0  0  0  0  0  0  0  0  0  0
   -8.8921    3.7841    1.1935 P   0  0  0  0  0  5  0  0  0  0  0  0
   -9.0266    5.2601    0.3758 O   0  0  0  0  0  0  0  0  0  0  0  0
  -10.0461    2.7093    0.5808 O   0  0  0  0  0  0  0  0  0  0  0  0
   -9.1512    3.9995    2.6681 O   0  0  0  0  0  0  0  0  0  0  0  0
   -4.6233    3.2525   -0.2386 C   0  0  1  0  0  0  0  0  0  0  0  0
   -4.0936    4.4106   -0.8314 O   0  0  0  0  0  0  0  0  0  0  0  0
   -3.6009    2.1454   -0.1585 C   0  0  1  0  0  0  0  0  0  0  0  0
   -2.2944    2.6616   -0.0813 O   0  0  0  0  0  0  0  0  0  0  0  0
   -4.6412   -3.3918   -0.0647 C   0  0  0  0  0  0  0  0  0  0  0  0
   -3.3847   -3.9606    0.1253 O   0  0  0  0  0  0  0  0  0  0  0  0
   -5.6077   -4.1271   -0.5179 N   0  0  0  0  0  0  0  0  0  0  0  0
   -0.5048   -1.6086   -1.1150 C   0  0  0  0  0  0  0  0  0  0  0  0
   -0.1164   -1.6640   -2.3123 O   0  0  0  0  0  0  0  0  0  0  0  0
    0.4711   -1.5615   -0.0570 N   0  0  0  0  0  0  0  0  0  0  0  0
    0.4364   -2.5714    1.0140 C   0  0  0  0  0  0  0  0  0  0  0  0
    0.8562   -3.9169    0.4917 C   0  0  0  0  0  0  0  0  0  0  0  0
    0.0786   -4.5438   -0.4338 N   0  0  0  0  0  0  0  0  0  0  0  0
    0.4043   -5.7632   -0.9384 C   0  0  0  0  0  0  0  0  0  0  0  0
    1.5692   -6.4207   -0.5051 C   0  0  0  0  0  0  0  0  0  0  0  0
    1.8880   -7.6435   -1.0161 N   0  0  0  0  0  0  0  0  0  0  0  0
    1.0845   -8.2369   -1.9476 C   0  0  0  0  0  0  0  0  0  0  0  0
    1.3851   -9.3986   -2.4345 N   0  0  0  0  0  0  0  0  0  0  0  0
   -0.0436   -7.6080   -2.3731 N   0  0  0  0  0  0  0  0  0  0  0  0
   -0.4002   -6.3883   -1.8911 C   0  0  0  0  0  0  0  0  0  0  0  0
   -1.5604   -5.7698   -2.3483 O   0  0  0  0  0  0  0  0  0  0  0  0
    2.3799   -5.7975    0.4519 C   0  0  0  0  0  0  0  0  0  0  0  0
    2.0236   -4.5439    0.9553 C   0  0  0  0  0  0  0  0  0  0  0  0
    1.5358   -0.5900   -0.1315 C   0  0  0  0  0  0  0  0  0  0  0  0
    2.8595   -0.9386    0.1837 C   0  0  0  0  0  0  0  0  0  0  0  0
    3.8815    0.0121    0.1108 C   0  0  0  0  0  0  0  0  0  0  0  0
    3.6004    1.3352   -0.2730 C   0  0  0  0  0  0  0  0  0  0  0  0
    2.2785    1.6792   -0.6029 C   0  0  0  0  0  0  0  0  0  0  0  0
    1.2577    0.7281   -0.5300 C   0  0  0  0  0  0  0  0  0  0  0  0
    4.6754    2.3524   -0.3608 C   0  0  0  0  0  0  0  0  0  0  0  0
    4.5243    3.3467   -1.1229 O   0  0  0  0  0  0  0  0  0  0  0  0
    5.8776    2.2326    0.4191 N   0  0  0  0  0  0  0  0  0  0  0  0
    7.0291    3.1171    0.2094 C   0  0  1  0  0  0  0  0  0  0  0  0
    8.0332    2.9759    1.3751 C   0  0  0  0  0  0  0  0  0  0  0  0
    9.2117    3.9605    1.2980 C   0  0  0  0  0  0  0  0  0  0  0  0
    8.7633    5.3797    1.4657 C   0  0  0  0  0  0  0  0  0  0  0  0
    8.4013    5.8476    2.7249 O   0  0  0  0  0  0  0  0  0  0  0  0
    8.6899    6.1423    0.4651 O   0  0  0  0  0  0  0  0  0  0  0  0
    7.6809    2.7906   -1.1055 C   0  0  0  0  0  0  0  0  0  0  0  0
    7.9214    3.8036   -2.0284 O   0  0  0  0  0  0  0  0  0  0  0  0
    8.0249    1.6065   -1.3680 O   0  0  0  0  0  0  0  0  0  0  0  0
   -2.6186   -1.9615   -1.6120 H   0  0  0  0  0  0  0  0  0  0  0  0
   -1.8008   -0.5829    0.9871 H   0  0  0  0  0  0  0  0  0  0  0  0
   -6.6570    0.5239    1.0970 H   0  0  0  0  0  0  0  0  0  0  0  0
   -3.0375    1.3043    1.7770 H   0  0  0  0  0  0  0  0  0  0  0  0
   -4.2435    4.1952    1.6736 H   0  0  0  0  0  0  0  0  0  0  0  0
   -6.5218    4.2483    2.5060 H   0  0  0  0  0  0  0  0  0  0  0  0
   -6.4565    5.0072    0.8606 H   0  0  0  0  0  0  0  0  0  0  0  0
   -8.8276    5.0421   -0.5696 H   0  0  0  0  0  0  0  0  0  0  0  0
   -9.8398    1.8433    1.0150 H   0  0  0  0  0  0  0  0  0  0  0  0
   -5.5049    2.8827   -0.8144 H   0  0  0  0  0  0  0  0  0  0  0  0
   -4.8662    4.9918   -1.0551 H   0  0  0  0  0  0  0  0  0  0  0  0
   -3.6967    1.4561   -1.0319 H   0  0  0  0  0  0  0  0  0  0  0  0
   -1.9794    2.7873   -1.0144 H   0  0  0  0  0  0  0  0  0  0  0  0
   -3.2101   -4.9341   -0.0945 H   0  0  0  0  0  0  0  0  0  0  0  0
   -6.5711   -3.7543   -0.6736 H   0  0  0  0  0  0  0  0  0  0  0  0
   -0.5902   -2.6636    1.4233 H   0  0  0  0  0  0  0  0  0  0  0  0
    1.0763   -2.2546    1.8666 H   0  0  0  0  0  0  0  0  0  0  0  0
    2.7551   -8.1307   -0.6914 H   0  0  0  0  0  0  0  0  0  0  0  0
    2.2408   -9.9201   -2.1387 H   0  0  0  0  0  0  0  0  0  0  0  0
   -2.1510   -6.2173   -3.0389 H   0  0  0  0  0  0  0  0  0  0  0  0
    3.2816   -6.2798    0.8084 H   0  0  0  0  0  0  0  0  0  0  0  0
    2.6502   -4.0703    1.7005 H   0  0  0  0  0  0  0  0  0  0  0  0
    3.1106   -1.9512    0.4636 H   0  0  0  0  0  0  0  0  0  0  0  0
    4.8935   -0.3020    0.3288 H   0  0  0  0  0  0  0  0  0  0  0  0
    2.0304    2.6892   -0.9051 H   0  0  0  0  0  0  0  0  0  0  0  0
    0.2445    1.0236   -0.7719 H   0  0  0  0  0  0  0  0  0  0  0  0
    5.9125    1.5293    1.1911 H   0  0  0  0  0  0  0  0  0  0  0  0
    6.6644    4.1674    0.1865 H   0  0  0  0  0  0  0  0  0  0  0  0
    8.4373    1.9395    1.3897 H   0  0  0  0  0  0  0  0  0  0  0  0
    7.4986    3.1313    2.3384 H   0  0  0  0  0  0  0  0  0  0  0  0
    9.7566    3.8405    0.3368 H   0  0  0  0  0  0  0  0  0  0  0  0
    9.9285    3.7222    2.1127 H   0  0  0  0  0  0  0  0  0  0  0  0
    8.0849    6.8013    2.8534 H   0  0  0  0  0  0  0  0  0  0  0  0
    8.3666    3.6028   -2.9158 H   0  0  0  0  0  0  0  0  0  0  0  0
  1  2  2  0
  2  3  1  0
  3  4  2  0
  4  5  1  0
  5  6  2  0
  6  7  1  0
  7  8  1  0
  8  9  1  0
  9 10  1  0
 10 11  1  0
 11 12  1  0
 12 13  1  0
 13 14  1  0
 13 15  1  0
 13 16  2  0
 10 17  1  0
 17 18  1  0
 17 19  1  0
 19 20  1  0
  4 21  1  0
 21 22  1  0
 21 23  2  3
  1 24  1  0
 24 25  2  0
 24 26  1  0
 26 27  1  0
 27 28  1  0
 28 29  2  0
 29 30  1  0
 30 31  2  0
 31 32  1  0
 32 33  1  0
 33 34  2  3
 33 35  1  0
 35 36  2  0
 36 37  1  0
 31 38  1  0
 38 39  2  0
 26 40  1  0
 40 41  2  0
 41 42  1  0
 42 43  2  0
 43 44  1  0
 44 45  2  0
 43 46  1  0
 46 47  2  0
 46 48  1  0
 48 49  1  0
 49 50  1  0
 50 51  1  0
 51 52  1  0
 52 53  1  0
 52 54  2  0
 49 55  1  0
 55 56  1  0
 55 57  2  0
  7  3  1  0
 19  8  1  0
 39 28  1  0
 45 40  1  0
 36 30  1  0
  1 58  1  0
  2 59  1  0
  6 60  1  0
  8 61  1  1
 10 62  1  1
 11 63  1  0
 11 64  1  0
 14 65  1  0
 15 66  1  0
 17 67  1  6
 18 68  1  0
 19 69  1  6
 20 70  1  0
 22 71  1  0
 23 72  1  0
 27 73  1  0
 27 74  1  0
 32 75  1  0
 34 76  1  0
 37 77  1  0
 38 78  1  0
 39 79  1  0
 41 80  1  0
 42 81  1  0
 44 82  1  0
 45 83  1  0
 48 84  1  0
 49 85  1  6
 50 86  1  0
 50 87  1  0
 51 88  1  0
 51 89  1  0
 53 90  1  0
 56 91  1  0
M  END
$$$$
