
     RDKit          3D

 19 20  0  0  0  0  0  0  0  0999 V2000
    2.6795    0.9470    0.1237 C   0  0  0  0  0  0  0  0  0  0  0  0
    1.7488   -0.1673   -0.0045 N   0  0  0  0  0  0  0  0  0  0  0  0
    2.0403   -1.4928   -0.0256 C   0  0  0  0  0  0  0  0  0  0  0  0
    0.9336   -2.2873   -0.0501 N   0  0  0  0  0  0  0  0  0  0  0  0
   -0.0728   -1.3923   -0.0306 C   0  0  0  0  0  0  0  0  0  0  0  0
    0.4121   -0.1319    0.0061 C   0  0  0  0  0  0  0  0  0  0  0  0
   -0.3888    0.9588    0.0635 N   0  0  0  0  0  0  0  0  0  0  0  0
   -1.7436    0.7636    0.0744 C   0  0  0  0  0  0  0  0  0  0  0  0
   -2.6167    1.8914    0.1312 N   0  0  0  0  0  0  0  0  0  0  0  0
   -2.2622   -0.5109    0.0326 N   0  0  0  0  0  0  0  0  0  0  0  0
   -1.4431   -1.6060   -0.0172 C   0  0  0  0  0  0  0  0  0  0  0  0
   -1.9218   -2.7711   -0.0469 O   0  0  0  0  0  0  0  0  0  0  0  0
    2.2924    1.8313   -0.4253 H   0  0  0  0  0  0  0  0  0  0  0  0
    2.8031    1.2060    1.1959 H   0  0  0  0  0  0  0  0  0  0  0  0
    3.6674    0.6699   -0.3016 H   0  0  0  0  0  0  0  0  0  0  0  0
    3.0493   -1.8843   -0.0111 H   0  0  0  0  0  0  0  0  0  0  0  0
   -2.2260    2.8591    0.1635 H   0  0  0  0  0  0  0  0  0  0  0  0
   -3.6530    1.7640    0.1409 H   0  0  0  0  0  0  0  0  0  0  0  0
   -3.2984   -0.6473    0.0429 H   0  0  0  0  0  0  0  0  0  0  0  0
  1  2  1  0
  2  3  1  0
  3  4  2  0
  4  5  1  0
  5  6  2  0
  6  7  1  0
  7  8  2  0
  8  9  1  0
  8 10  1  0
 10 11  1  0
 11 12  2  0
  6  2  1  0
 11  5  1  0
  1 13  1  0
  1 14  1  0
  1 15  1  0
  3 16  1  0
  9 17  1  0
  9 18  1  0
 10 19  1  0
M  END
$$$$
