
     RDKit          3D

 45 46  0  0  0  0  0  0  0  0999 V2000
    5.7847   -1.4702   -0.5272 C   0  0  0  0  0  0  0  0  0  0  0  0
    4.3567   -2.0139   -0.7462 C   0  0  0  0  0  0  0  0  0  0  0  0
    4.1719   -2.2558   -2.2607 C   0  0  0  0  0  0  0  0  0  0  0  0
    4.2178   -3.3469    0.0242 C   0  0  0  0  0  0  0  0  0  0  0  0
    3.3965   -0.9903   -0.2600 N   0  0  0  0  0  0  0  0  0  0  0  0
    1.9854   -1.4144   -0.2306 C   0  0  0  0  0  0  0  0  0  0  0  0
    1.0684   -0.1881   -0.0965 C   0  0  0  0  0  0  0  0  0  0  0  0
    1.2917    0.4482    1.1365 O   0  0  0  0  0  0  0  0  0  0  0  0
   -0.4020   -0.6042   -0.1807 C   0  0  0  0  0  0  0  0  0  0  0  0
   -1.2296    0.5525   -0.0825 O   0  0  0  0  0  0  0  0  0  0  0  0
   -2.6336    0.5379   -0.1212 C   0  0  0  0  0  0  0  0  0  0  0  0
   -3.3576   -0.6610   -0.2743 C   0  0  0  0  0  0  0  0  0  0  0  0
   -4.7515   -0.6424   -0.3415 C   0  0  0  0  0  0  0  0  0  0  0  0
   -5.4426    0.5657   -0.2574 C   0  0  0  0  0  0  0  0  0  0  0  0
   -4.7434    1.7672   -0.0925 C   0  0  0  0  0  0  0  0  0  0  0  0
   -3.3336    1.7578   -0.0096 C   0  0  0  0  0  0  0  0  0  0  0  0
   -2.5868    3.0738    0.0693 C   0  0  0  0  0  0  0  0  0  0  0  0
   -3.3642    4.1365    0.8566 C   0  0  0  0  0  0  0  0  0  0  0  0
   -4.7885    4.2045    0.3949 C   0  0  0  0  0  0  0  0  0  0  0  0
   -5.4111    5.2992    0.4196 O   0  0  0  0  0  0  0  0  0  0  0  0
   -5.4609    3.0062   -0.0014 N   0  0  0  0  0  0  0  0  0  0  0  0
    5.9142   -0.5012   -1.0562 H   0  0  0  0  0  0  0  0  0  0  0  0
    6.5481   -2.1833   -0.9076 H   0  0  0  0  0  0  0  0  0  0  0  0
    5.9794   -1.3033    0.5543 H   0  0  0  0  0  0  0  0  0  0  0  0
    5.0148   -2.8550   -2.6685 H   0  0  0  0  0  0  0  0  0  0  0  0
    4.1350   -1.2871   -2.8038 H   0  0  0  0  0  0  0  0  0  0  0  0
    3.2435   -2.8212   -2.4800 H   0  0  0  0  0  0  0  0  0  0  0  0
    4.2817   -3.1701    1.1193 H   0  0  0  0  0  0  0  0  0  0  0  0
    3.2493   -3.8419   -0.1992 H   0  0  0  0  0  0  0  0  0  0  0  0
    5.0266   -4.0518   -0.2661 H   0  0  0  0  0  0  0  0  0  0  0  0
    3.6594   -0.7214    0.7183 H   0  0  0  0  0  0  0  0  0  0  0  0
    1.8075   -2.0996    0.6287 H   0  0  0  0  0  0  0  0  0  0  0  0
    1.7120   -1.9453   -1.1643 H   0  0  0  0  0  0  0  0  0  0  0  0
    1.2745    0.5114   -0.9420 H   0  0  0  0  0  0  0  0  0  0  0  0
    2.0104    1.1179    0.9930 H   0  0  0  0  0  0  0  0  0  0  0  0
   -0.6403   -1.3043    0.6503 H   0  0  0  0  0  0  0  0  0  0  0  0
   -0.5907   -1.1087   -1.1537 H   0  0  0  0  0  0  0  0  0  0  0  0
   -2.8518   -1.6134   -0.3529 H   0  0  0  0  0  0  0  0  0  0  0  0
   -5.2982   -1.5685   -0.4649 H   0  0  0  0  0  0  0  0  0  0  0  0
   -6.5237    0.5661   -0.3161 H   0  0  0  0  0  0  0  0  0  0  0  0
   -1.5983    2.9387    0.5587 H   0  0  0  0  0  0  0  0  0  0  0  0
   -2.4089    3.4402   -0.9649 H   0  0  0  0  0  0  0  0  0  0  0  0
   -3.3529    3.8789    1.9375 H   0  0  0  0  0  0  0  0  0  0  0  0
   -2.8724    5.1248    0.7260 H   0  0  0  0  0  0  0  0  0  0  0  0
   -6.4868    3.0360   -0.1990 H   0  0  0  0  0  0  0  0  0  0  0  0
  1  2  1  0
  2  3  1  0
  2  4  1  0
  2  5  1  0
  5  6  1  0
  6  7  1  0
  7  8  1  0
  7  9  1  0
  9 10  1  0
 10 11  1  0
 11 12  2  0
 12 13  1  0
 13 14  2  0
 14 15  1  0
 15 16  2  0
 16 17  1  0
 17 18  1  0
 18 19  1  0
 19 20  2  0
 19 21  1  0
 16 11  1  0
 21 15  1  0
  1 22  1  0
  1 23  1  0
  1 24  1  0
  3 25  1  0
  3 26  1  0
  3 27  1  0
  4 28  1  0
  4 29  1  0
  4 30  1  0
  5 31  1  0
  6 32  1  0
  6 33  1  0
  7 34  1  0
  8 35  1  0
  9 36  1  0
  9 37  1  0
 12 38  1  0
 13 39  1  0
 14 40  1  0
 17 41  1  0
 17 42  1  0
 18 43  1  0
 18 44  1  0
 21 45  1  0
M  END
$$$$
