
     RDKit          3D

 51 54  0  0  0  0  0  0  0  0999 V2000
    6.8752   -1.9853    0.0351 C   0  0  0  0  0  0  0  0  0  0  0  0
    6.6819   -1.4635    1.4580 C   0  0  0  0  0  0  0  0  0  0  0  0
    7.1158    0.0002    1.6272 C   0  0  0  0  0  0  0  0  0  0  0  0
    6.0462    1.1596    0.7780 S   0  0  0  0  0  6  0  0  0  0  0  0
    6.4187    2.5543    1.1950 O   0  0  0  0  0  0  0  0  0  0  0  0
    6.2392    1.0162   -0.7058 O   0  0  0  0  0  0  0  0  0  0  0  0
    4.3870    0.8616    1.1942 N   0  0  0  0  0  0  0  0  0  0  0  0
    3.2735    1.3291    0.4121 C   0  0  0  0  0  0  0  0  0  0  0  0
    2.0109    0.7302    0.5757 C   0  0  0  0  0  0  0  0  0  0  0  0
    1.8668   -0.3036    1.4458 F   0  0  0  0  0  0  0  0  0  0  0  0
    0.9067    1.1664   -0.1811 C   0  0  0  0  0  0  0  0  0  0  0  0
   -0.4147    0.5257    0.0004 C   0  0  0  0  0  0  0  0  0  0  0  0
   -0.8357    0.3158    1.1694 O   0  0  0  0  0  0  0  0  0  0  0  0
   -1.2321    0.0975   -1.1554 C   0  0  0  0  0  0  0  0  0  0  0  0
   -0.7820   -0.1177   -2.4600 C   0  0  0  0  0  0  0  0  0  0  0  0
   -1.7935   -0.5449   -3.2494 N   0  0  0  0  0  0  0  0  0  0  0  0
   -2.8716   -0.6054   -2.4536 C   0  0  0  0  0  0  0  0  0  0  0  0
   -4.1150   -0.9905   -2.8284 N   0  0  0  0  0  0  0  0  0  0  0  0
   -5.1180   -1.0037   -1.9014 C   0  0  0  0  0  0  0  0  0  0  0  0
   -4.8717   -0.6154   -0.5565 C   0  0  0  0  0  0  0  0  0  0  0  0
   -3.5654   -0.2163   -0.1901 C   0  0  0  0  0  0  0  0  0  0  0  0
   -2.5789   -0.2276   -1.1741 C   0  0  0  0  0  0  0  0  0  0  0  0
   -5.9666   -0.6263    0.4465 C   0  0  0  0  0  0  0  0  0  0  0  0
   -6.9139   -1.6673    0.4606 C   0  0  0  0  0  0  0  0  0  0  0  0
   -7.9432   -1.6764    1.4067 C   0  0  0  0  0  0  0  0  0  0  0  0
   -8.0403   -0.6480    2.3483 C   0  0  0  0  0  0  0  0  0  0  0  0
   -9.3330   -0.6616    3.5339 Cl  0  0  0  0  0  0  0  0  0  0  0  0
   -7.1056    0.3912    2.3438 C   0  0  0  0  0  0  0  0  0  0  0  0
   -6.0741    0.4037    1.4001 C   0  0  0  0  0  0  0  0  0  0  0  0
    1.0687    2.2344   -1.0823 C   0  0  0  0  0  0  0  0  0  0  0  0
    0.0120    2.7207   -1.7820 F   0  0  0  0  0  0  0  0  0  0  0  0
    2.3174    2.8379   -1.2373 C   0  0  0  0  0  0  0  0  0  0  0  0
    3.4135    2.3916   -0.4981 C   0  0  0  0  0  0  0  0  0  0  0  0
    6.1342   -1.5295   -0.6527 H   0  0  0  0  0  0  0  0  0  0  0  0
    6.7205   -3.0848    0.0220 H   0  0  0  0  0  0  0  0  0  0  0  0
    7.9033   -1.7693   -0.3254 H   0  0  0  0  0  0  0  0  0  0  0  0
    5.6223   -1.5947    1.7610 H   0  0  0  0  0  0  0  0  0  0  0  0
    7.2995   -2.0865    2.1406 H   0  0  0  0  0  0  0  0  0  0  0  0
    7.0985    0.2497    2.7093 H   0  0  0  0  0  0  0  0  0  0  0  0
    8.1582    0.1337    1.2671 H   0  0  0  0  0  0  0  0  0  0  0  0
    4.2053    0.2761    2.0391 H   0  0  0  0  0  0  0  0  0  0  0  0
    0.2339    0.0153   -2.8089 H   0  0  0  0  0  0  0  0  0  0  0  0
   -1.7416   -0.7853   -4.2641 H   0  0  0  0  0  0  0  0  0  0  0  0
   -6.1114   -1.2973   -2.2141 H   0  0  0  0  0  0  0  0  0  0  0  0
   -3.3339    0.0773    0.8245 H   0  0  0  0  0  0  0  0  0  0  0  0
   -6.8484   -2.4837   -0.2476 H   0  0  0  0  0  0  0  0  0  0  0  0
   -8.6625   -2.4855    1.4089 H   0  0  0  0  0  0  0  0  0  0  0  0
   -7.1789    1.1918    3.0688 H   0  0  0  0  0  0  0  0  0  0  0  0
   -5.3720    1.2279    1.4049 H   0  0  0  0  0  0  0  0  0  0  0  0
    2.4346    3.6658   -1.9249 H   0  0  0  0  0  0  0  0  0  0  0  0
    4.3603    2.8964   -0.6269 H   0  0  0  0  0  0  0  0  0  0  0  0
  1  2  1  0
  2  3  1  0
  3  4  1  0
  4  5  2  0
  4  6  2  0
  4  7  1  0
  7  8  1  0
  8  9  2  0
  9 10  1  0
  9 11  1  0
 11 12  1  0
 12 13  2  0
 12 14  1  0
 14 15  2  0
 15 16  1  0
 16 17  1  0
 17 18  2  0
 18 19  1  0
 19 20  2  0
 20 21  1  0
 21 22  2  0
 20 23  1  0
 23 24  2  0
 24 25  1  0
 25 26  2  0
 26 27  1  0
 26 28  1  0
 28 29  2  0
 11 30  2  0
 30 31  1  0
 30 32  1  0
 32 33  2  0
 33  8  1  0
 22 14  1  0
 29 23  1  0
 22 17  1  0
  1 34  1  0
  1 35  1  0
  1 36  1  0
  2 37  1  0
  2 38  1  0
  3 39  1  0
  3 40  1  0
  7 41  1  0
 15 42  1  0
 16 43  1  0
 19 44  1  0
 21 45  1  0
 24 46  1  0
 25 47  1  0
 28 48  1  0
 29 49  1  0
 32 50  1  0
 33 51  1  0
M  END
$$$$
