
     RDKit          3D

 34 34  0  0  0  0  0  0  0  0999 V2000
    0.3369   -0.5794   -0.1856 C   0  0  2  0  0  0  0  0  0  0  0  0
   -0.6457    0.6114   -0.2679 C   0  0  0  0  0  0  0  0  0  0  0  0
   -2.0822    0.1658   -0.1402 C   0  0  0  0  0  0  0  0  0  0  0  0
   -2.8923    0.0330   -1.2808 C   0  0  0  0  0  0  0  0  0  0  0  0
   -4.2135   -0.4083   -1.1587 C   0  0  0  0  0  0  0  0  0  0  0  0
   -4.7333   -0.7243    0.0996 C   0  0  0  0  0  0  0  0  0  0  0  0
   -3.9319   -0.6017    1.2380 C   0  0  0  0  0  0  0  0  0  0  0  0
   -2.6101   -0.1611    1.1204 C   0  0  0  0  0  0  0  0  0  0  0  0
    1.8206   -0.1430   -0.3083 C   0  0  0  0  0  0  0  0  0  0  0  0
    2.3755    0.7189    0.8605 C   0  0  0  0  0  0  0  0  0  0  0  0
    2.0163    0.1444    2.0972 O   0  0  0  0  0  0  0  0  0  0  0  0
    1.8748    2.0329    0.7577 O   0  0  0  0  0  0  0  0  0  0  0  0
    3.9196    0.7637    0.7960 C   0  0  0  0  0  0  0  0  0  0  0  0
    4.3900    1.3981   -0.4326 N   0  0  0  0  0  4  0  0  0  0  0  0
    4.4123    2.7694   -0.5354 O   0  0  0  0  0  1  0  0  0  0  0  0
    4.6998    0.7021   -1.4212 O   0  0  0  0  0  0  0  0  0  0  0  0
    0.0291   -1.5892   -1.2628 C   0  0  0  0  0  0  0  0  0  0  0  0
   -0.4204   -2.8584   -0.9120 O   0  0  0  0  0  0  0  0  0  0  0  0
    0.1625   -1.2856   -2.4795 O   0  0  0  0  0  0  0  0  0  0  0  0
    0.1969   -1.0880    0.7930 H   0  0  0  0  0  0  0  0  0  0  0  0
   -0.4472    1.3272    0.5547 H   0  0  0  0  0  0  0  0  0  0  0  0
   -0.4941    1.1635   -1.2219 H   0  0  0  0  0  0  0  0  0  0  0  0
   -2.5005    0.2666   -2.2630 H   0  0  0  0  0  0  0  0  0  0  0  0
   -4.8338   -0.5080   -2.0400 H   0  0  0  0  0  0  0  0  0  0  0  0
   -5.7558   -1.0668    0.1921 H   0  0  0  0  0  0  0  0  0  0  0  0
   -4.3342   -0.8506    2.2114 H   0  0  0  0  0  0  0  0  0  0  0  0
   -1.9968   -0.0766    2.0091 H   0  0  0  0  0  0  0  0  0  0  0  0
    2.4358   -1.0688   -0.3768 H   0  0  0  0  0  0  0  0  0  0  0  0
    1.9587    0.4087   -1.2647 H   0  0  0  0  0  0  0  0  0  0  0  0
    1.1037    0.4587    2.3297 H   0  0  0  0  0  0  0  0  0  0  0  0
    2.1541    2.5231    1.5752 H   0  0  0  0  0  0  0  0  0  0  0  0
    4.3102    1.3340    1.6670 H   0  0  0  0  0  0  0  0  0  0  0  0
    4.3360   -0.2655    0.8721 H   0  0  0  0  0  0  0  0  0  0  0  0
   -0.6408   -3.5460   -1.6224 H   0  0  0  0  0  0  0  0  0  0  0  0
  1  2  1  0
  2  3  1  0
  3  4  2  0
  4  5  1  0
  5  6  2  0
  6  7  1  0
  7  8  2  0
  1  9  1  0
  9 10  1  0
 10 11  1  0
 10 12  1  0
 10 13  1  0
 13 14  1  0
 14 15  1  0
 14 16  2  0
  1 17  1  0
 17 18  1  0
 17 19  2  0
  8  3  1  0
  1 20  1  1
  2 21  1  0
  2 22  1  0
  4 23  1  0
  5 24  1  0
  6 25  1  0
  7 26  1  0
  8 27  1  0
  9 28  1  0
  9 29  1  0
 11 30  1  0
 12 31  1  0
 13 32  1  0
 13 33  1  0
 18 34  1  0
M  CHG  2  14   1  15  -1
M  END
$$$$
