
     RDKit          3D

 43 46  0  0  0  0  0  0  0  0999 V2000
   -7.4835   -0.5214    2.6902 F   0  0  0  0  0  0  0  0  0  0  0  0
   -6.5179    0.4047    2.3351 C   0  0  0  0  0  0  0  0  0  0  0  0
   -7.1398    1.5424    1.8559 F   0  0  0  0  0  0  0  0  0  0  0  0
   -5.7938    0.7300    3.4691 F   0  0  0  0  0  0  0  0  0  0  0  0
   -5.6106   -0.1522    1.2667 C   0  0  0  0  0  0  0  0  0  0  0  0
   -4.2899    0.3151    1.1414 C   0  0  0  0  0  0  0  0  0  0  0  0
   -3.4550   -0.1552    0.1153 C   0  0  0  0  0  0  0  0  0  0  0  0
   -2.0989    0.3175    0.0338 N   0  0  0  0  0  0  0  0  0  0  0  0
   -1.3535    0.3769   -1.1936 C   0  0  0  0  0  0  0  0  0  0  0  0
    0.0578    0.2448   -1.2074 C   0  0  0  0  0  0  0  0  0  0  0  0
    0.7317    0.4257   -2.4272 C   0  0  0  0  0  0  0  0  0  0  0  0
    0.0210    0.7048   -3.5935 C   0  0  0  0  0  0  0  0  0  0  0  0
   -1.3660    0.8091   -3.5386 C   0  0  0  0  0  0  0  0  0  0  0  0
   -2.0116    0.6550   -2.3546 N   0  0  0  0  0  0  0  0  0  0  0  0
    0.8432   -0.1180   -0.0041 C   0  0  0  0  0  0  0  0  0  0  0  0
    0.3006   -0.7316    0.9555 O   0  0  0  0  0  0  0  0  0  0  0  0
    2.2073    0.1890    0.0455 O   0  0  0  0  0  0  0  0  0  0  0  0
    3.0377   -0.1544    1.1499 C   0  0  0  0  0  0  0  0  0  0  0  0
    3.1896   -1.5778    1.2352 O   0  0  0  0  0  0  0  0  0  0  0  0
    4.5222   -1.9273    1.0606 C   0  0  0  0  0  0  0  0  0  0  0  0
    4.9552   -3.1089    1.0829 O   0  0  0  0  0  0  0  0  0  0  0  0
    5.3091   -0.7397    0.8549 C   0  0  0  0  0  0  0  0  0  0  0  0
    6.6756   -0.5721    0.6392 C   0  0  0  0  0  0  0  0  0  0  0  0
    7.1589    0.7368    0.4722 C   0  0  0  0  0  0  0  0  0  0  0  0
    6.2747    1.8348    0.5249 C   0  0  0  0  0  0  0  0  0  0  0  0
    4.9005    1.6317    0.7448 C   0  0  0  0  0  0  0  0  0  0  0  0
    4.4401    0.3239    0.9069 C   0  0  0  0  0  0  0  0  0  0  0  0
   -3.9496   -1.1146   -0.7854 C   0  0  0  0  0  0  0  0  0  0  0  0
   -5.2679   -1.5627   -0.6831 C   0  0  0  0  0  0  0  0  0  0  0  0
   -6.0995   -1.0763    0.3278 C   0  0  0  0  0  0  0  0  0  0  0  0
   -3.9096    1.0548    1.8354 H   0  0  0  0  0  0  0  0  0  0  0  0
   -1.6819    0.7610    0.8832 H   0  0  0  0  0  0  0  0  0  0  0  0
    1.8089    0.3289   -2.4848 H   0  0  0  0  0  0  0  0  0  0  0  0
    0.5417    0.8332   -4.5337 H   0  0  0  0  0  0  0  0  0  0  0  0
   -1.9308    1.0245   -4.4356 H   0  0  0  0  0  0  0  0  0  0  0  0
    2.6381    0.2593    2.1010 H   0  0  0  0  0  0  0  0  0  0  0  0
    7.3446   -1.4220    0.6016 H   0  0  0  0  0  0  0  0  0  0  0  0
    8.2148    0.9031    0.3027 H   0  0  0  0  0  0  0  0  0  0  0  0
    6.6557    2.8394    0.3954 H   0  0  0  0  0  0  0  0  0  0  0  0
    4.2165    2.4693    0.7860 H   0  0  0  0  0  0  0  0  0  0  0  0
   -3.3163   -1.5256   -1.5605 H   0  0  0  0  0  0  0  0  0  0  0  0
   -5.6463   -2.2906   -1.3892 H   0  0  0  0  0  0  0  0  0  0  0  0
   -7.1230   -1.4263    0.3782 H   0  0  0  0  0  0  0  0  0  0  0  0
  1  2  1  0
  2  3  1  0
  2  4  1  0
  2  5  1  0
  5  6  2  0
  6  7  1  0
  7  8  1  0
  8  9  1  0
  9 10  1  0
 10 11  2  0
 11 12  1  0
 12 13  2  0
 13 14  1  0
 10 15  1  0
 15 16  2  0
 15 17  1  0
 17 18  1  0
 18 19  1  0
 19 20  1  0
 20 21  2  0
 20 22  1  0
 22 23  2  0
 23 24  1  0
 24 25  2  0
 25 26  1  0
 26 27  2  0
  7 28  2  0
 28 29  1  0
 29 30  2  0
 30  5  1  0
 14  9  2  0
 27 18  1  0
 27 22  1  0
  6 31  1  0
  8 32  1  0
 11 33  1  0
 12 34  1  0
 13 35  1  0
 18 36  1  0
 23 37  1  0
 24 38  1  0
 25 39  1  0
 26 40  1  0
 28 41  1  0
 29 42  1  0
 30 43  1  0
M  END
$$$$
