
     RDKit          3D

 49 53  0  0  0  0  0  0  0  0999 V2000
    5.6013    1.1235   -0.2703 C   0  0  2  0  0  0  0  0  0  0  0  0
    6.5015   -0.0249   -0.7266 C   0  0  0  0  0  0  0  0  0  0  0  0
    7.3145   -0.3829    0.4925 C   0  0  0  0  0  0  0  0  0  0  0  0
    7.3537    0.8997    1.2967 C   0  0  0  0  0  0  0  0  0  0  0  0
    6.1368    1.6517    0.9899 N   0  0  0  0  0  0  0  0  0  0  0  0
    4.1898    0.6523   -0.0547 C   0  0  0  0  0  0  0  0  0  0  0  0
    3.1313    0.8423   -0.9200 C   0  0  0  0  0  0  0  0  0  0  0  0
    2.0881    0.1736   -0.3107 C   0  0  0  0  0  0  0  0  0  0  0  0
    0.7573    0.0793   -0.8372 N   0  0  0  0  0  0  0  0  0  0  0  0
   -0.3122   -0.6240   -0.1874 C   0  0  0  0  0  0  0  0  0  0  0  0
   -0.1213   -1.1878    0.9245 O   0  0  0  0  0  0  0  0  0  0  0  0
   -1.6129   -0.6462   -0.7940 N   0  0  0  0  0  0  0  0  0  0  0  0
   -2.7026   -1.4569   -0.3230 C   0  0  0  0  0  0  0  0  0  0  0  0
   -2.4967   -2.7674    0.1656 C   0  0  0  0  0  0  0  0  0  0  0  0
   -3.5858   -3.5537    0.5920 C   0  0  0  0  0  0  0  0  0  0  0  0
   -4.8939   -3.0514    0.5258 C   0  0  0  0  0  0  0  0  0  0  0  0
   -5.0766   -1.7671    0.0202 C   0  0  0  0  0  0  0  0  0  0  0  0
   -4.0210   -0.9825   -0.3902 C   0  0  0  0  0  0  0  0  0  0  0  0
   -4.5244    0.3497   -0.8892 C   0  0  2  0  0  0  0  0  0  0  0  0
   -4.0454    1.5518   -0.0814 C   0  0  0  0  0  0  0  0  0  0  0  0
   -5.2777    2.4501    0.0454 C   0  0  0  0  0  0  0  0  0  0  0  0
   -6.4869    1.5263   -0.0989 C   0  0  0  0  0  0  0  0  0  0  0  0
   -5.9652    0.2961   -0.6693 N   0  0  0  0  0  0  0  0  0  0  0  0
   -6.2803   -0.9912   -0.1435 C   0  0  0  0  0  0  0  0  0  0  0  0
   -7.4394   -1.3535    0.1909 O   0  0  0  0  0  0  0  0  0  0  0  0
    2.4986   -0.3921    0.8421 N   0  0  0  0  0  0  0  0  0  0  0  0
    3.7803   -0.0983    0.9872 N   0  0  0  0  0  0  0  0  0  0  0  0
    5.5988    1.9197   -1.0508 H   0  0  0  0  0  0  0  0  0  0  0  0
    5.9365   -0.9045   -1.1082 H   0  0  0  0  0  0  0  0  0  0  0  0
    7.1832    0.3344   -1.5294 H   0  0  0  0  0  0  0  0  0  0  0  0
    6.7931   -1.1758    1.0729 H   0  0  0  0  0  0  0  0  0  0  0  0
    8.3352   -0.7291    0.2200 H   0  0  0  0  0  0  0  0  0  0  0  0
    8.2553    1.4893    1.0118 H   0  0  0  0  0  0  0  0  0  0  0  0
    7.3971    0.6786    2.3843 H   0  0  0  0  0  0  0  0  0  0  0  0
    6.3849    2.6618    0.8656 H   0  0  0  0  0  0  0  0  0  0  0  0
    3.1234    1.3783   -1.8600 H   0  0  0  0  0  0  0  0  0  0  0  0
    0.5580    0.5481   -1.7495 H   0  0  0  0  0  0  0  0  0  0  0  0
   -1.7975    0.0273   -1.5710 H   0  0  0  0  0  0  0  0  0  0  0  0
   -1.5031   -3.1942    0.1948 H   0  0  0  0  0  0  0  0  0  0  0  0
   -3.4130   -4.5545    0.9659 H   0  0  0  0  0  0  0  0  0  0  0  0
   -5.7354   -3.6477    0.8540 H   0  0  0  0  0  0  0  0  0  0  0  0
   -4.3129    0.4730   -1.9738 H   0  0  0  0  0  0  0  0  0  0  0  0
   -3.2118    2.0778   -0.5947 H   0  0  0  0  0  0  0  0  0  0  0  0
   -3.7142    1.2392    0.9342 H   0  0  0  0  0  0  0  0  0  0  0  0
   -5.2785    3.1959   -0.7798 H   0  0  0  0  0  0  0  0  0  0  0  0
   -5.2882    2.9842    1.0202 H   0  0  0  0  0  0  0  0  0  0  0  0
   -7.2500    1.9666   -0.7754 H   0  0  0  0  0  0  0  0  0  0  0  0
   -6.9381    1.3336    0.8998 H   0  0  0  0  0  0  0  0  0  0  0  0
    4.3663   -0.4184    1.7898 H   0  0  0  0  0  0  0  0  0  0  0  0
  1  2  1  0
  2  3  1  0
  3  4  1  0
  4  5  1  0
  1  6  1  0
  6  7  2  0
  7  8  1  0
  8  9  1  0
  9 10  1  0
 10 11  2  0
 10 12  1  0
 12 13  1  0
 13 14  2  0
 14 15  1  0
 15 16  2  0
 16 17  1  0
 17 18  2  0
 18 19  1  0
 19 20  1  0
 20 21  1  0
 21 22  1  0
 22 23  1  0
 23 24  1  0
 24 25  2  0
  8 26  2  0
 26 27  1  0
  5  1  1  0
 27  6  1  0
 18 13  1  0
 23 19  1  0
 24 17  1  0
  1 28  1  6
  2 29  1  0
  2 30  1  0
  3 31  1  0
  3 32  1  0
  4 33  1  0
  4 34  1  0
  5 35  1  0
  7 36  1  0
  9 37  1  0
 12 38  1  0
 14 39  1  0
 15 40  1  0
 16 41  1  0
 19 42  1  6
 20 43  1  0
 20 44  1  0
 21 45  1  0
 21 46  1  0
 22 47  1  0
 22 48  1  0
 27 49  1  0
M  END
$$$$
