
     RDKit          3D

 37 38  0  0  0  0  0  0  0  0999 V2000
   -4.3301    1.2411   -0.1645 C   0  0  0  0  0  0  0  0  0  0  0  0
   -3.9739   -0.1183    0.4740 C   0  0  0  0  0  0  0  0  0  0  0  0
   -4.9743   -0.4066    1.6015 C   0  0  0  0  0  0  0  0  0  0  0  0
   -2.6690   -0.0548    1.0710 O   0  0  0  0  0  0  0  0  0  0  0  0
   -1.4283    0.1541    0.4374 C   0  0  0  0  0  0  0  0  0  0  0  0
   -0.3114    0.3586    1.2555 C   0  0  0  0  0  0  0  0  0  0  0  0
    0.9536    0.5691    0.7010 C   0  0  0  0  0  0  0  0  0  0  0  0
    1.1292    0.5633   -0.6927 C   0  0  0  0  0  0  0  0  0  0  0  0
    0.0096    0.3679   -1.5170 C   0  0  0  0  0  0  0  0  0  0  0  0
   -1.2558    0.1574   -0.9609 C   0  0  0  0  0  0  0  0  0  0  0  0
    2.4626    0.8029   -1.2966 C   0  0  0  0  0  0  0  0  0  0  0  0
    2.5297    1.4085   -2.4013 O   0  0  0  0  0  0  0  0  0  0  0  0
    3.7197    0.3561   -0.6487 C   0  0  0  0  0  0  0  0  0  0  0  0
    4.9026    1.0958   -0.8251 C   0  0  0  0  0  0  0  0  0  0  0  0
    6.0968    0.6739   -0.2325 C   0  0  0  0  0  0  0  0  0  0  0  0
    6.1256   -0.4959    0.5324 C   0  0  0  0  0  0  0  0  0  0  0  0
    7.6251   -1.0241    1.2736 Cl  0  0  0  0  0  0  0  0  0  0  0  0
    4.9591   -1.2478    0.7000 C   0  0  0  0  0  0  0  0  0  0  0  0
    3.7632   -0.8290    0.1093 C   0  0  0  0  0  0  0  0  0  0  0  0
   -4.0573   -1.2556   -0.5187 C   0  0  0  0  0  0  0  0  0  0  0  0
   -3.2794   -2.3948   -0.3307 O   0  0  0  0  0  0  0  0  0  0  0  0
   -4.8705   -1.2098   -1.4817 O   0  0  0  0  0  0  0  0  0  0  0  0
   -4.1924    2.0571    0.5768 H   0  0  0  0  0  0  0  0  0  0  0  0
   -5.3887    1.2525   -0.5033 H   0  0  0  0  0  0  0  0  0  0  0  0
   -3.6917    1.4652   -1.0412 H   0  0  0  0  0  0  0  0  0  0  0  0
   -4.7251   -1.3671    2.1027 H   0  0  0  0  0  0  0  0  0  0  0  0
   -4.9376    0.3990    2.3664 H   0  0  0  0  0  0  0  0  0  0  0  0
   -6.0115   -0.4728    1.2061 H   0  0  0  0  0  0  0  0  0  0  0  0
   -0.4270    0.3634    2.3321 H   0  0  0  0  0  0  0  0  0  0  0  0
    1.7909    0.7507    1.3630 H   0  0  0  0  0  0  0  0  0  0  0  0
    0.1164    0.3628   -2.5949 H   0  0  0  0  0  0  0  0  0  0  0  0
   -2.0791   -0.0117   -1.6360 H   0  0  0  0  0  0  0  0  0  0  0  0
    4.9002    2.0061   -1.4118 H   0  0  0  0  0  0  0  0  0  0  0  0
    6.9987    1.2568   -0.3693 H   0  0  0  0  0  0  0  0  0  0  0  0
    4.9788   -2.1600    1.2826 H   0  0  0  0  0  0  0  0  0  0  0  0
    2.8774   -1.4392    0.2326 H   0  0  0  0  0  0  0  0  0  0  0  0
   -3.3364   -3.1751   -0.9740 H   0  0  0  0  0  0  0  0  0  0  0  0
  1  2  1  0
  2  3  1  0
  2  4  1  0
  4  5  1  0
  5  6  2  0
  6  7  1  0
  7  8  2  0
  8  9  1  0
  9 10  2  0
  8 11  1  0
 11 12  2  0
 11 13  1  0
 13 14  2  0
 14 15  1  0
 15 16  2  0
 16 17  1  0
 16 18  1  0
 18 19  2  0
  2 20  1  0
 20 21  1  0
 20 22  2  0
 10  5  1  0
 19 13  1  0
  1 23  1  0
  1 24  1  0
  1 25  1  0
  3 26  1  0
  3 27  1  0
  3 28  1  0
  6 29  1  0
  7 30  1  0
  9 31  1  0
 10 32  1  0
 14 33  1  0
 15 34  1  0
 18 35  1  0
 19 36  1  0
 21 37  1  0
M  END
$$$$
