
     RDKit          3D

 20 20  0  0  0  0  0  0  0  0999 V2000
    0.0641    0.5596   -0.4575 C   0  0  1  0  0  0  0  0  0  0  0  0
    0.1986    0.1715   -1.8279 O   0  0  0  0  0  0  0  0  0  0  0  0
   -1.0540   -0.1199   -2.3396 C   0  0  0  0  0  0  0  0  0  0  0  0
   -1.2690   -0.4929   -3.5220 O   0  0  0  0  0  0  0  0  0  0  0  0
   -2.0509    0.0670   -1.3179 C   0  0  0  0  0  0  0  0  0  0  0  0
   -3.4218   -0.1274   -1.4617 O   0  0  0  0  0  0  0  0  0  0  0  0
   -1.4251    0.4616   -0.2204 C   0  0  0  0  0  0  0  0  0  0  0  0
   -2.0668    0.7599    0.9776 O   0  0  0  0  0  0  0  0  0  0  0  0
    0.8631   -0.3802    0.4724 C   0  0  1  0  0  0  0  0  0  0  0  0
    0.4102   -1.7083    0.3665 O   0  0  0  0  0  0  0  0  0  0  0  0
    2.3774   -0.3053    0.2021 C   0  0  0  0  0  0  0  0  0  0  0  0
    2.8644    0.9887    0.4375 O   0  0  0  0  0  0  0  0  0  0  0  0
    0.3896    1.6148   -0.3315 H   0  0  0  0  0  0  0  0  0  0  0  0
   -4.0583    0.0283   -0.6891 H   0  0  0  0  0  0  0  0  0  0  0  0
   -1.5402    1.0775    1.7819 H   0  0  0  0  0  0  0  0  0  0  0  0
    0.6932   -0.0528    1.5211 H   0  0  0  0  0  0  0  0  0  0  0  0
    0.6197   -2.0282   -0.5497 H   0  0  0  0  0  0  0  0  0  0  0  0
    2.9113   -1.0371    0.8503 H   0  0  0  0  0  0  0  0  0  0  0  0
    2.5896   -0.5792   -0.8534 H   0  0  0  0  0  0  0  0  0  0  0  0
    2.9049    1.1023    1.4230 H   0  0  0  0  0  0  0  0  0  0  0  0
  1  2  1  0
  2  3  1  0
  3  4  2  0
  3  5  1  0
  5  6  1  0
  5  7  2  0
  7  8  1  0
  1  9  1  0
  9 10  1  0
  9 11  1  0
 11 12  1  0
  7  1  1  0
  1 13  1  6
  6 14  1  0
  8 15  1  0
  9 16  1  1
 10 17  1  0
 11 18  1  0
 11 19  1  0
 12 20  1  0
M  END
$$$$
