
     RDKit          3D

 33 35  0  0  0  0  0  0  0  0999 V2000
    6.9333   -0.8244    2.1612 O   0  0  0  0  0  1  0  0  0  0  0  0
    6.1860    0.3175    1.9840 N   0  0  0  0  0  4  0  0  0  0  0  0
    6.6657    1.4121    2.3458 O   0  0  0  0  0  0  0  0  0  0  0  0
    4.8755    0.2497    1.3924 C   0  0  0  0  0  0  0  0  0  0  0  0
    4.3411   -0.9846    0.9875 C   0  0  0  0  0  0  0  0  0  0  0  0
    3.0687   -1.0552    0.4123 C   0  0  0  0  0  0  0  0  0  0  0  0
    2.3023    0.1096    0.2294 C   0  0  0  0  0  0  0  0  0  0  0  0
    2.8369    1.3434    0.6348 C   0  0  0  0  0  0  0  0  0  0  0  0
    4.1089    1.4137    1.2096 C   0  0  0  0  0  0  0  0  0  0  0  0
    0.9512    0.0618   -0.3770 C   0  0  0  0  0  0  0  0  0  0  0  0
    0.2813   -1.0606   -0.8395 C   0  0  0  0  0  0  0  0  0  0  0  0
   -0.9301   -0.6095   -1.3169 C   0  0  0  0  0  0  0  0  0  0  0  0
   -0.9335    0.7573   -1.1070 C   0  0  0  0  0  0  0  0  0  0  0  0
    0.2005    1.1260   -0.5591 O   0  0  0  0  0  0  0  0  0  0  0  0
   -1.9903    1.7123   -1.4856 C   0  0  0  0  0  0  0  0  0  0  0  0
   -3.2584    1.4231   -1.5122 N   0  0  0  0  0  0  0  0  0  0  0  0
   -3.8103    0.2302   -1.0151 N   0  0  0  0  0  0  0  0  0  0  0  0
   -3.7364   -0.1518    0.3991 C   0  0  0  0  0  0  0  0  0  0  0  0
   -4.9562   -0.9985    0.5819 C   0  0  0  0  0  0  0  0  0  0  0  0
   -5.2764   -1.5617    1.6611 O   0  0  0  0  0  0  0  0  0  0  0  0
   -5.7350   -1.0901   -0.5994 N   0  0  0  0  0  0  0  0  0  0  0  0
   -5.0233   -0.3040   -1.5337 C   0  0  0  0  0  0  0  0  0  0  0  0
   -5.4398   -0.0738   -2.6995 O   0  0  0  0  0  0  0  0  0  0  0  0
    4.9067   -1.8985    1.1152 H   0  0  0  0  0  0  0  0  0  0  0  0
    2.6929   -2.0241    0.1149 H   0  0  0  0  0  0  0  0  0  0  0  0
    2.2707    2.2578    0.5073 H   0  0  0  0  0  0  0  0  0  0  0  0
    4.4925    2.3799    1.5113 H   0  0  0  0  0  0  0  0  0  0  0  0
    0.6244   -2.0856   -0.8481 H   0  0  0  0  0  0  0  0  0  0  0  0
   -1.7008   -1.2086   -1.7832 H   0  0  0  0  0  0  0  0  0  0  0  0
   -1.6827    2.7036   -1.7900 H   0  0  0  0  0  0  0  0  0  0  0  0
   -3.7927    0.7473    1.0492 H   0  0  0  0  0  0  0  0  0  0  0  0
   -2.8213   -0.7412    0.6082 H   0  0  0  0  0  0  0  0  0  0  0  0
   -6.6515   -1.5729   -0.7300 H   0  0  0  0  0  0  0  0  0  0  0  0
  1  2  1  0
  2  3  2  0
  2  4  1  0
  4  5  2  0
  5  6  1  0
  6  7  2  0
  7  8  1  0
  8  9  2  0
  7 10  1  0
 10 11  2  0
 11 12  1  0
 12 13  2  0
 13 14  1  0
 13 15  1  0
 15 16  2  3
 16 17  1  0
 17 18  1  0
 18 19  1  0
 19 20  2  0
 19 21  1  0
 21 22  1  0
 22 23  2  0
  9  4  1  0
 14 10  1  0
 22 17  1  0
  5 24  1  0
  6 25  1  0
  8 26  1  0
  9 27  1  0
 11 28  1  0
 12 29  1  0
 15 30  1  0
 18 31  1  0
 18 32  1  0
 21 33  1  0
M  CHG  2   1  -1   2   1
M  END
$$$$
