
     RDKit          3D

 52 52  0  0  0  0  0  0  0  0999 V2000
   -1.5085    0.3532   -0.5557 C   0  0  2  0  0  0  0  0  0  0  0  0
   -2.7170   -0.5643   -0.8723 C   0  0  0  0  0  0  0  0  0  0  0  0
   -3.9490   -0.3908    0.0481 C   0  0  0  0  0  0  0  0  0  0  0  0
   -3.6352   -0.7361    1.5121 C   0  0  0  0  0  0  0  0  0  0  0  0
   -5.0996   -1.2730   -0.4550 C   0  0  0  0  0  0  0  0  0  0  0  0
   -1.8013    1.8589   -0.7919 C   0  0  0  0  0  0  0  0  0  0  0  0
   -2.3952    2.5335    0.4134 C   0  0  0  0  0  0  0  0  0  0  0  0
   -1.7554    2.5470    1.4996 O   0  0  0  0  0  0  0  0  0  0  0  0
   -3.6590    3.1979    0.3264 N   0  0  0  0  0  0  0  0  0  0  0  0
   -4.1995    3.7930    1.4163 O   0  0  0  0  0  0  0  0  0  0  0  0
   -0.3442   -0.0813   -1.4143 C   0  0  0  0  0  0  0  0  0  0  0  0
   -0.3213    0.2226   -2.6392 O   0  0  0  0  0  0  0  0  0  0  0  0
    0.7104   -0.8753   -0.8491 N   0  0  0  0  0  0  0  0  0  0  0  0
    1.9525   -1.1588   -1.5797 C   0  0  1  0  0  0  0  0  0  0  0  0
    2.8357    0.1024   -1.7055 C   0  0  0  0  0  0  0  0  0  0  0  0
    3.2568    0.6797   -0.3754 C   0  0  0  0  0  0  0  0  0  0  0  0
    4.5111    0.3591    0.1726 C   0  0  0  0  0  0  0  0  0  0  0  0
    4.8877    0.8703    1.4182 C   0  0  0  0  0  0  0  0  0  0  0  0
    4.0191    1.7071    2.1238 C   0  0  0  0  0  0  0  0  0  0  0  0
    2.7729    2.0359    1.5839 C   0  0  0  0  0  0  0  0  0  0  0  0
    2.3921    1.5267    0.3390 C   0  0  0  0  0  0  0  0  0  0  0  0
    2.7081   -2.3162   -0.9639 C   0  0  0  0  0  0  0  0  0  0  0  0
    3.1581   -3.2206   -1.7193 O   0  0  0  0  0  0  0  0  0  0  0  0
    2.9548   -2.3821    0.4495 N   0  0  0  0  0  0  0  0  0  0  0  0
    3.7302   -3.4655    1.0399 C   0  0  0  0  0  0  0  0  0  0  0  0
   -1.2009    0.2040    0.5005 H   0  0  0  0  0  0  0  0  0  0  0  0
   -3.0276   -0.3867   -1.9263 H   0  0  0  0  0  0  0  0  0  0  0  0
   -2.3848   -1.6256   -0.8107 H   0  0  0  0  0  0  0  0  0  0  0  0
   -4.3042    0.6572   -0.0025 H   0  0  0  0  0  0  0  0  0  0  0  0
   -4.5638   -0.7099    2.1214 H   0  0  0  0  0  0  0  0  0  0  0  0
   -2.9380    0.0047    1.9521 H   0  0  0  0  0  0  0  0  0  0  0  0
   -3.1870   -1.7498    1.5892 H   0  0  0  0  0  0  0  0  0  0  0  0
   -6.0045   -1.1210    0.1715 H   0  0  0  0  0  0  0  0  0  0  0  0
   -5.3611   -1.0051   -1.5011 H   0  0  0  0  0  0  0  0  0  0  0  0
   -4.8154   -2.3469   -0.4199 H   0  0  0  0  0  0  0  0  0  0  0  0
   -2.4639    1.9863   -1.6753 H   0  0  0  0  0  0  0  0  0  0  0  0
   -0.8571    2.3997   -1.0224 H   0  0  0  0  0  0  0  0  0  0  0  0
   -4.1740    3.2361   -0.5816 H   0  0  0  0  0  0  0  0  0  0  0  0
   -4.7600    3.0913    1.8363 H   0  0  0  0  0  0  0  0  0  0  0  0
    0.5694   -1.2597    0.1116 H   0  0  0  0  0  0  0  0  0  0  0  0
    1.6757   -1.4686   -2.6126 H   0  0  0  0  0  0  0  0  0  0  0  0
    3.7349   -0.1445   -2.3121 H   0  0  0  0  0  0  0  0  0  0  0  0
    2.2863    0.8797   -2.2794 H   0  0  0  0  0  0  0  0  0  0  0  0
    5.1904   -0.2964   -0.3582 H   0  0  0  0  0  0  0  0  0  0  0  0
    5.8521    0.6150    1.8379 H   0  0  0  0  0  0  0  0  0  0  0  0
    4.3117    2.1011    3.0884 H   0  0  0  0  0  0  0  0  0  0  0  0
    2.1011    2.6853    2.1303 H   0  0  0  0  0  0  0  0  0  0  0  0
    1.4250    1.7927   -0.0663 H   0  0  0  0  0  0  0  0  0  0  0  0
    2.5997   -1.6302    1.0810 H   0  0  0  0  0  0  0  0  0  0  0  0
    3.2284   -4.4367    0.8458 H   0  0  0  0  0  0  0  0  0  0  0  0
    4.7508   -3.4790    0.6028 H   0  0  0  0  0  0  0  0  0  0  0  0
    3.8125   -3.3162    2.1372 H   0  0  0  0  0  0  0  0  0  0  0  0
  1  2  1  0
  2  3  1  0
  3  4  1  0
  3  5  1  0
  1  6  1  0
  6  7  1  0
  7  8  2  0
  7  9  1  0
  9 10  1  0
  1 11  1  0
 11 12  2  0
 11 13  1  0
 13 14  1  0
 14 15  1  0
 15 16  1  0
 16 17  2  0
 17 18  1  0
 18 19  2  0
 19 20  1  0
 20 21  2  0
 14 22  1  0
 22 23  2  0
 22 24  1  0
 24 25  1  0
 21 16  1  0
  1 26  1  1
  2 27  1  0
  2 28  1  0
  3 29  1  0
  4 30  1  0
  4 31  1  0
  4 32  1  0
  5 33  1  0
  5 34  1  0
  5 35  1  0
  6 36  1  0
  6 37  1  0
  9 38  1  0
 10 39  1  0
 13 40  1  0
 14 41  1  6
 15 42  1  0
 15 43  1  0
 17 44  1  0
 18 45  1  0
 19 46  1  0
 20 47  1  0
 21 48  1  0
 24 49  1  0
 25 50  1  0
 25 51  1  0
 25 52  1  0
M  END
$$$$
