
     RDKit          3D

 36 38  0  0  0  0  0  0  0  0999 V2000
    6.7977    1.8459    0.1497 C   0  0  0  0  0  0  0  0  0  0  0  0
    5.5283    1.7631   -0.2451 C   0  0  0  0  0  0  0  0  0  0  0  0
    4.6142    0.7112    0.2376 C   0  0  0  0  0  0  0  0  0  0  0  0
    5.0172   -0.1460    1.0713 O   0  0  0  0  0  0  0  0  0  0  0  0
    3.2521    0.6962   -0.2180 N   0  0  0  0  0  0  0  0  0  0  0  0
    2.3360   -0.3877    0.0164 C   0  0  0  0  0  0  0  0  0  0  0  0
    2.7693   -1.7248    0.0066 C   0  0  0  0  0  0  0  0  0  0  0  0
    1.8581   -2.7650    0.1989 C   0  0  0  0  0  0  0  0  0  0  0  0
    0.5030   -2.4861    0.3968 C   0  0  0  0  0  0  0  0  0  0  0  0
   -0.3774   -3.5058    0.5652 N   0  0  0  0  0  0  0  0  0  0  0  0
   -1.6993   -3.2645    0.7468 C   0  0  0  0  0  0  0  0  0  0  0  0
   -2.1623   -1.9895    0.7696 N   0  0  0  0  0  0  0  0  0  0  0  0
   -1.3328   -0.9229    0.6029 C   0  0  0  0  0  0  0  0  0  0  0  0
   -1.8724    0.4074    0.6915 N   0  0  0  0  0  0  0  0  0  0  0  0
   -3.2100    0.7471    0.2862 C   0  0  0  0  0  0  0  0  0  0  0  0
   -3.8649    0.0436   -0.7426 C   0  0  0  0  0  0  0  0  0  0  0  0
   -5.1576    0.4068   -1.1334 C   0  0  0  0  0  0  0  0  0  0  0  0
   -5.8026    1.4790   -0.5118 C   0  0  0  0  0  0  0  0  0  0  0  0
   -5.1531    2.1947    0.4970 C   0  0  0  0  0  0  0  0  0  0  0  0
   -3.8603    1.8353    0.8904 C   0  0  0  0  0  0  0  0  0  0  0  0
    0.0474   -1.1489    0.4064 C   0  0  0  0  0  0  0  0  0  0  0  0
    0.9718   -0.1076    0.1935 C   0  0  0  0  0  0  0  0  0  0  0  0
    7.2204    1.1377    0.8512 H   0  0  0  0  0  0  0  0  0  0  0  0
    7.4310    2.6355   -0.2335 H   0  0  0  0  0  0  0  0  0  0  0  0
    5.1551    2.4957   -0.9500 H   0  0  0  0  0  0  0  0  0  0  0  0
    2.8807    1.5617   -0.6717 H   0  0  0  0  0  0  0  0  0  0  0  0
    3.8059   -1.9696   -0.1821 H   0  0  0  0  0  0  0  0  0  0  0  0
    2.2064   -3.7905    0.1806 H   0  0  0  0  0  0  0  0  0  0  0  0
   -2.3850   -4.0898    0.8800 H   0  0  0  0  0  0  0  0  0  0  0  0
   -1.3157    1.1353    1.1930 H   0  0  0  0  0  0  0  0  0  0  0  0
   -3.3730   -0.7715   -1.2568 H   0  0  0  0  0  0  0  0  0  0  0  0
   -5.6567   -0.1388   -1.9238 H   0  0  0  0  0  0  0  0  0  0  0  0
   -6.8026    1.7594   -0.8165 H   0  0  0  0  0  0  0  0  0  0  0  0
   -5.6507    3.0297    0.9732 H   0  0  0  0  0  0  0  0  0  0  0  0
   -3.3676    2.3995    1.6723 H   0  0  0  0  0  0  0  0  0  0  0  0
    0.6497    0.9241    0.1573 H   0  0  0  0  0  0  0  0  0  0  0  0
  1  2  2  3
  2  3  1  0
  3  4  2  0
  3  5  1  0
  5  6  1  0
  6  7  2  0
  7  8  1  0
  8  9  2  0
  9 10  1  0
 10 11  2  0
 11 12  1  0
 12 13  2  0
 13 14  1  0
 14 15  1  0
 15 16  2  0
 16 17  1  0
 17 18  2  0
 18 19  1  0
 19 20  2  0
 13 21  1  0
 21 22  2  0
 22  6  1  0
 21  9  1  0
 20 15  1  0
  1 23  1  0
  1 24  1  0
  2 25  1  0
  5 26  1  0
  7 27  1  0
  8 28  1  0
 11 29  1  0
 14 30  1  0
 16 31  1  0
 17 32  1  0
 18 33  1  0
 19 34  1  0
 20 35  1  0
 22 36  1  0
M  END
$$$$
