
     RDKit          3D

 78 81  0  0  0  0  0  0  0  0999 V2000
    3.5412   -2.8541    3.1106 C   0  0  0  0  0  0  0  0  0  0  0  0
    3.5294   -1.7599    2.2196 O   0  0  0  0  0  0  0  0  0  0  0  0
    2.6232   -1.9873    1.1509 C   0  0  1  0  0  0  0  0  0  0  0  0
    1.2570   -1.3337    1.4763 C   0  0  0  0  0  0  0  0  0  0  0  0
    0.3033   -1.3760    0.3444 N   0  0  0  0  0  0  0  0  0  0  0  0
   -0.3406   -2.6944    0.1511 C   0  0  0  0  0  0  0  0  0  0  0  0
   -1.4669   -2.8914    1.1783 C   0  0  0  0  0  0  0  0  0  0  0  0
   -2.5134   -3.9025    0.6817 C   0  0  0  0  0  0  0  0  0  0  0  0
   -3.6875   -4.0954    1.6618 C   0  0  0  0  0  0  0  0  0  0  0  0
   -4.4905   -2.8194    1.9784 C   0  0  0  0  0  0  0  0  0  0  0  0
   -4.9473   -2.1045    0.7429 C   0  0  0  0  0  0  0  0  0  0  0  0
   -6.0966   -2.3243    0.2726 O   0  0  0  0  0  0  0  0  0  0  0  0
   -4.0645   -1.2300    0.1017 O   0  0  0  0  0  0  0  0  0  0  0  0
   -4.3753   -0.5143   -1.0920 C   0  0  1  0  0  0  0  0  0  0  0  0
   -5.2634    0.7229   -0.7754 C   0  0  0  0  0  0  0  0  0  0  0  0
   -4.6080    1.9810   -1.2110 N   0  0  0  0  0  0  0  0  0  0  0  0
   -4.3571    1.9247   -2.6726 C   0  0  0  0  0  0  0  0  0  0  0  0
   -3.4378    0.7310   -3.0397 C   0  0  0  0  0  0  0  0  0  0  0  0
   -3.0666   -0.0334   -1.7556 C   0  0  0  0  0  0  0  0  0  0  0  0
   -2.3598    0.9550   -0.8064 C   0  0  0  0  0  0  0  0  0  0  0  0
   -3.3166    2.1339   -0.4959 C   0  0  0  0  0  0  0  0  0  0  0  0
    0.8793   -0.8212   -0.8977 C   0  0  0  0  0  0  0  0  0  0  0  0
    2.1944   -1.5078   -1.2843 C   0  0  0  0  0  0  0  0  0  0  0  0
    3.2215   -1.4014   -0.1462 C   0  0  1  0  0  0  0  0  0  0  0  0
    3.6520   -0.0061    0.0362 N   0  0  0  0  0  0  0  0  0  0  0  0
    4.4493    0.6856   -0.9377 C   0  0  0  0  0  0  0  0  0  0  0  0
    5.0245    0.0348   -1.8526 O   0  0  0  0  0  0  0  0  0  0  0  0
    4.6399    2.1537   -0.8598 C   0  0  0  0  0  0  0  0  0  0  0  0
    3.5969    3.0132   -0.4511 C   0  0  0  0  0  0  0  0  0  0  0  0
    2.3369    2.4696   -0.1497 O   0  0  0  0  0  0  0  0  0  0  0  0
    1.2009    3.2218    0.2640 C   0  0  0  0  0  0  0  0  0  0  0  0
    3.8347    4.3996   -0.3789 C   0  0  0  0  0  0  0  0  0  0  0  0
    5.0815    4.9370   -0.7269 C   0  0  0  0  0  0  0  0  0  0  0  0
    5.2832    6.3537   -0.6430 N   0  0  0  0  0  0  0  0  0  0  0  0
    6.1080    4.0773   -1.1578 C   0  0  0  0  0  0  0  0  0  0  0  0
    7.6940    4.6854   -1.6180 Cl  0  0  0  0  0  0  0  0  0  0  0  0
    5.8809    2.7000   -1.2250 C   0  0  0  0  0  0  0  0  0  0  0  0
    3.9758   -3.7537    2.6221 H   0  0  0  0  0  0  0  0  0  0  0  0
    4.1836   -2.5976    3.9777 H   0  0  0  0  0  0  0  0  0  0  0  0
    2.5232   -3.0774    3.4988 H   0  0  0  0  0  0  0  0  0  0  0  0
    2.4666   -3.0763    0.9611 H   0  0  0  0  0  0  0  0  0  0  0  0
    1.4099   -0.2726    1.7679 H   0  0  0  0  0  0  0  0  0  0  0  0
    0.8157   -1.8251    2.3680 H   0  0  0  0  0  0  0  0  0  0  0  0
   -0.7831   -2.7513   -0.8683 H   0  0  0  0  0  0  0  0  0  0  0  0
    0.3894   -3.5268    0.2294 H   0  0  0  0  0  0  0  0  0  0  0  0
   -1.9478   -1.9097    1.3619 H   0  0  0  0  0  0  0  0  0  0  0  0
   -1.0396   -3.2501    2.1392 H   0  0  0  0  0  0  0  0  0  0  0  0
   -2.0160   -4.8863    0.5364 H   0  0  0  0  0  0  0  0  0  0  0  0
   -2.9095   -3.5891   -0.3083 H   0  0  0  0  0  0  0  0  0  0  0  0
   -4.3799   -4.8509    1.2304 H   0  0  0  0  0  0  0  0  0  0  0  0
   -3.2982   -4.5154    2.6147 H   0  0  0  0  0  0  0  0  0  0  0  0
   -3.8811   -2.1289    2.5984 H   0  0  0  0  0  0  0  0  0  0  0  0
   -5.3765   -3.0977    2.5894 H   0  0  0  0  0  0  0  0  0  0  0  0
   -4.9030   -1.1928   -1.8003 H   0  0  0  0  0  0  0  0  0  0  0  0
   -5.4848    0.7788    0.3135 H   0  0  0  0  0  0  0  0  0  0  0  0
   -6.2458    0.6178   -1.2865 H   0  0  0  0  0  0  0  0  0  0  0  0
   -3.8909    2.8770   -3.0091 H   0  0  0  0  0  0  0  0  0  0  0  0
   -5.3242    1.8370   -3.2154 H   0  0  0  0  0  0  0  0  0  0  0  0
   -3.9584    0.0509   -3.7491 H   0  0  0  0  0  0  0  0  0  0  0  0
   -2.5157    1.0983   -3.5416 H   0  0  0  0  0  0  0  0  0  0  0  0
   -2.4050   -0.8951   -1.9909 H   0  0  0  0  0  0  0  0  0  0  0  0
   -2.0640    0.4423    0.1344 H   0  0  0  0  0  0  0  0  0  0  0  0
   -1.4296    1.3354   -1.2829 H   0  0  0  0  0  0  0  0  0  0  0  0
   -3.4993    2.1921    0.5999 H   0  0  0  0  0  0  0  0  0  0  0  0
   -2.8381    3.0947   -0.7879 H   0  0  0  0  0  0  0  0  0  0  0  0
    0.1572   -0.9041   -1.7386 H   0  0  0  0  0  0  0  0  0  0  0  0
    1.0552    0.2653   -0.7603 H   0  0  0  0  0  0  0  0  0  0  0  0
    2.0016   -2.5782   -1.5143 H   0  0  0  0  0  0  0  0  0  0  0  0
    2.5935   -1.0408   -2.2095 H   0  0  0  0  0  0  0  0  0  0  0  0
    4.1108   -2.0140   -0.4147 H   0  0  0  0  0  0  0  0  0  0  0  0
    3.4422    0.4879    0.9322 H   0  0  0  0  0  0  0  0  0  0  0  0
    0.3521    2.5290    0.4385 H   0  0  0  0  0  0  0  0  0  0  0  0
    1.4215    3.7570    1.2115 H   0  0  0  0  0  0  0  0  0  0  0  0
    0.9120    3.9442   -0.5281 H   0  0  0  0  0  0  0  0  0  0  0  0
    3.0501    5.0731   -0.0617 H   0  0  0  0  0  0  0  0  0  0  0  0
    4.5119    6.9816   -0.3239 H   0  0  0  0  0  0  0  0  0  0  0  0
    6.1932    6.7985   -0.8927 H   0  0  0  0  0  0  0  0  0  0  0  0
    6.6849    2.0499   -1.5493 H   0  0  0  0  0  0  0  0  0  0  0  0
  1  2  1  0
  2  3  1  0
  3  4  1  0
  4  5  1  0
  5  6  1  0
  6  7  1  0
  7  8  1  0
  8  9  1  0
  9 10  1  0
 10 11  1  0
 11 12  2  0
 11 13  1  0
 13 14  1  0
 14 15  1  0
 15 16  1  0
 16 17  1  0
 17 18  1  0
 18 19  1  0
 19 20  1  0
 20 21  1  0
  5 22  1  0
 22 23  1  0
 23 24  1  0
 24 25  1  0
 25 26  1  0
 26 27  2  0
 26 28  1  0
 28 29  2  0
 29 30  1  0
 30 31  1  0
 29 32  1  0
 32 33  2  0
 33 34  1  0
 33 35  1  0
 35 36  1  0
 35 37  2  0
 24  3  1  0
 37 28  1  0
 19 14  1  0
 21 16  1  0
  1 38  1  0
  1 39  1  0
  1 40  1  0
  3 41  1  6
  4 42  1  0
  4 43  1  0
  6 44  1  0
  6 45  1  0
  7 46  1  0
  7 47  1  0
  8 48  1  0
  8 49  1  0
  9 50  1  0
  9 51  1  0
 10 52  1  0
 10 53  1  0
 14 54  1  6
 15 55  1  0
 15 56  1  0
 17 57  1  0
 17 58  1  0
 18 59  1  0
 18 60  1  0
 19 61  1  0
 20 62  1  0
 20 63  1  0
 21 64  1  0
 21 65  1  0
 22 66  1  0
 22 67  1  0
 23 68  1  0
 23 69  1  0
 24 70  1  6
 25 71  1  0
 31 72  1  0
 31 73  1  0
 31 74  1  0
 32 75  1  0
 34 76  1  0
 34 77  1  0
 37 78  1  0
M  END
$$$$
