
     RDKit          3D

 50 51  0  0  0  0  0  0  0  0999 V2000
    3.2430   -0.0317    0.4276 O   0  0  0  0  0  0  0  0  0  0  0  0
    2.4507    0.2620   -0.6958 C   0  0  0  0  0  0  0  0  0  0  0  0
    1.0449   -0.3505   -0.5554 C   0  0  0  0  0  0  0  0  0  0  0  0
    0.3865    0.1706    0.6511 N   0  0  0  0  0  0  0  0  0  0  0  0
   -1.0617   -0.0894    0.6534 C   0  0  0  0  0  0  0  0  0  0  0  0
   -1.3940   -1.5751    0.8704 C   0  0  0  0  0  0  0  0  0  0  0  0
   -2.8353   -1.7530    1.0295 N   0  0  0  0  0  0  0  0  0  0  0  0
   -3.7500   -1.6596   -0.0717 C   0  0  0  0  0  0  0  0  0  0  0  0
   -3.3202   -1.4977   -1.2461 O   0  0  0  0  0  0  0  0  0  0  0  0
   -5.2265   -1.7042    0.1735 C   0  0  0  0  0  0  0  0  0  0  0  0
   -5.7170   -0.3451    0.5892 C   0  0  0  0  0  0  0  0  0  0  0  0
   -5.7592    0.0095    1.9478 C   0  0  0  0  0  0  0  0  0  0  0  0
   -6.1781    1.2875    2.3300 C   0  0  0  0  0  0  0  0  0  0  0  0
   -6.5492    2.2257    1.3613 C   0  0  0  0  0  0  0  0  0  0  0  0
   -6.9643    3.4953    1.7566 O   0  0  0  0  0  0  0  0  0  0  0  0
   -6.4974    1.8811    0.0038 C   0  0  0  0  0  0  0  0  0  0  0  0
   -6.0786    0.6038   -0.3811 C   0  0  0  0  0  0  0  0  0  0  0  0
    3.1358   -0.2106   -1.9906 C   0  0  0  0  0  0  0  0  0  0  0  0
    4.3502    0.5087   -2.2144 O   0  0  0  0  0  0  0  0  0  0  0  0
    5.6008    0.2381   -1.6286 C   0  0  0  0  0  0  0  0  0  0  0  0
    5.8730   -0.9637   -0.9422 C   0  0  0  0  0  0  0  0  0  0  0  0
    7.1326   -1.1865   -0.3792 C   0  0  0  0  0  0  0  0  0  0  0  0
    8.1347   -0.2227   -0.4971 C   0  0  0  0  0  0  0  0  0  0  0  0
    7.8821    0.9671   -1.1821 C   0  0  0  0  0  0  0  0  0  0  0  0
    6.6221    1.1995   -1.7497 C   0  0  0  0  0  0  0  0  0  0  0  0
    6.3819    2.4360   -2.4508 C   0  0  0  0  0  0  0  0  0  0  0  0
    6.1887    3.4285   -3.0136 N   0  0  0  0  0  0  0  0  0  0  0  0
    3.2655   -1.0192    0.5289 H   0  0  0  0  0  0  0  0  0  0  0  0
    2.3371    1.3667   -0.7552 H   0  0  0  0  0  0  0  0  0  0  0  0
    0.4534   -0.0841   -1.4601 H   0  0  0  0  0  0  0  0  0  0  0  0
    1.1267   -1.4590   -0.5033 H   0  0  0  0  0  0  0  0  0  0  0  0
    0.8165   -0.2730    1.4967 H   0  0  0  0  0  0  0  0  0  0  0  0
   -1.5217    0.2778   -0.2899 H   0  0  0  0  0  0  0  0  0  0  0  0
   -1.5167    0.4977    1.4803 H   0  0  0  0  0  0  0  0  0  0  0  0
   -0.8833   -1.9347    1.7899 H   0  0  0  0  0  0  0  0  0  0  0  0
   -1.0387   -2.1902    0.0168 H   0  0  0  0  0  0  0  0  0  0  0  0
   -3.2073   -1.9764    1.9802 H   0  0  0  0  0  0  0  0  0  0  0  0
   -5.7530   -2.0354   -0.7484 H   0  0  0  0  0  0  0  0  0  0  0  0
   -5.4514   -2.4555    0.9613 H   0  0  0  0  0  0  0  0  0  0  0  0
   -5.4660   -0.7022    2.7097 H   0  0  0  0  0  0  0  0  0  0  0  0
   -6.2108    1.5504    3.3797 H   0  0  0  0  0  0  0  0  0  0  0  0
   -7.2386    4.1973    1.0793 H   0  0  0  0  0  0  0  0  0  0  0  0
   -6.7773    2.6028   -0.7531 H   0  0  0  0  0  0  0  0  0  0  0  0
   -6.0334    0.3549   -1.4342 H   0  0  0  0  0  0  0  0  0  0  0  0
    2.4609    0.0089   -2.8451 H   0  0  0  0  0  0  0  0  0  0  0  0
    3.3014   -1.3076   -1.9945 H   0  0  0  0  0  0  0  0  0  0  0  0
    5.1295   -1.7393   -0.8426 H   0  0  0  0  0  0  0  0  0  0  0  0
    7.3332   -2.1110    0.1470 H   0  0  0  0  0  0  0  0  0  0  0  0
    9.1092   -0.3993   -0.0603 H   0  0  0  0  0  0  0  0  0  0  0  0
    8.6691    1.7068   -1.2697 H   0  0  0  0  0  0  0  0  0  0  0  0
  1  2  1  0
  2  3  1  0
  3  4  1  0
  4  5  1  0
  5  6  1  0
  6  7  1  0
  7  8  1  0
  8  9  2  0
  8 10  1  0
 10 11  1  0
 11 12  2  0
 12 13  1  0
 13 14  2  0
 14 15  1  0
 14 16  1  0
 16 17  2  0
  2 18  1  0
 18 19  1  0
 19 20  1  0
 20 21  2  0
 21 22  1  0
 22 23  2  0
 23 24  1  0
 24 25  2  0
 25 26  1  0
 26 27  3  0
 17 11  1  0
 25 20  1  0
  1 28  1  0
  2 29  1  0
  3 30  1  0
  3 31  1  0
  4 32  1  0
  5 33  1  0
  5 34  1  0
  6 35  1  0
  6 36  1  0
  7 37  1  0
 10 38  1  0
 10 39  1  0
 12 40  1  0
 13 41  1  0
 15 42  1  0
 16 43  1  0
 17 44  1  0
 18 45  1  0
 18 46  1  0
 21 47  1  0
 22 48  1  0
 23 49  1  0
 24 50  1  0
M  END
$$$$
