
     RDKit          3D

 34 35  0  0  0  0  0  0  0  0999 V2000
   -6.6517   -0.2974   -0.1321 N   0  0  0  0  0  0  0  0  0  0  0  0
   -5.4270    0.0266   -1.3097 S   0  0  0  0  0  6  0  0  0  0  0  0
   -5.5777   -0.9221   -2.4649 O   0  0  0  0  0  0  0  0  0  0  0  0
   -5.5862    1.4391   -1.7995 O   0  0  0  0  0  0  0  0  0  0  0  0
   -3.8352   -0.1811   -0.5871 C   0  0  0  0  0  0  0  0  0  0  0  0
   -2.7615    0.6179   -0.9987 C   0  0  0  0  0  0  0  0  0  0  0  0
   -1.4958    0.4466   -0.4298 C   0  0  0  0  0  0  0  0  0  0  0  0
   -1.2830   -0.5365    0.5542 C   0  0  0  0  0  0  0  0  0  0  0  0
   -2.3683   -1.3306    0.9662 C   0  0  0  0  0  0  0  0  0  0  0  0
   -3.6322   -1.1578    0.3948 C   0  0  0  0  0  0  0  0  0  0  0  0
    0.0513   -0.7268    1.1726 C   0  0  0  0  0  0  0  0  0  0  0  0
    0.1323   -1.2418    2.3218 O   0  0  0  0  0  0  0  0  0  0  0  0
    1.2521   -0.3511    0.4802 N   0  0  0  0  0  0  0  0  0  0  0  0
    2.5535   -0.3827    1.1468 C   0  0  0  0  0  0  0  0  0  0  0  0
    3.6364    0.1063    0.2208 C   0  0  0  0  0  0  0  0  0  0  0  0
    4.3927   -0.8129   -0.5259 C   0  0  0  0  0  0  0  0  0  0  0  0
    5.3754   -0.3622   -1.4131 C   0  0  0  0  0  0  0  0  0  0  0  0
    6.1059   -1.2550   -2.1256 F   0  0  0  0  0  0  0  0  0  0  0  0
    5.6016    1.0079   -1.5697 C   0  0  0  0  0  0  0  0  0  0  0  0
    4.8426    1.9295   -0.8437 C   0  0  0  0  0  0  0  0  0  0  0  0
    3.8584    1.4847    0.0453 C   0  0  0  0  0  0  0  0  0  0  0  0
    3.1202    2.3955    0.7291 F   0  0  0  0  0  0  0  0  0  0  0  0
   -7.5722   -0.1049   -0.5868 H   0  0  0  0  0  0  0  0  0  0  0  0
   -6.5376    0.4085    0.6295 H   0  0  0  0  0  0  0  0  0  0  0  0
   -2.9029    1.3776   -1.7568 H   0  0  0  0  0  0  0  0  0  0  0  0
   -0.6957    1.1017   -0.7472 H   0  0  0  0  0  0  0  0  0  0  0  0
   -2.2369   -2.0950    1.7221 H   0  0  0  0  0  0  0  0  0  0  0  0
   -4.4511   -1.7881    0.7176 H   0  0  0  0  0  0  0  0  0  0  0  0
    1.2038   -0.1046   -0.5342 H   0  0  0  0  0  0  0  0  0  0  0  0
    2.7720   -1.4204    1.4813 H   0  0  0  0  0  0  0  0  0  0  0  0
    2.5204    0.2591    2.0539 H   0  0  0  0  0  0  0  0  0  0  0  0
    4.2205   -1.8771   -0.4213 H   0  0  0  0  0  0  0  0  0  0  0  0
    6.3611    1.3568   -2.2576 H   0  0  0  0  0  0  0  0  0  0  0  0
    5.0148    2.9902   -0.9739 H   0  0  0  0  0  0  0  0  0  0  0  0
  1  2  1  0
  2  3  2  0
  2  4  2  0
  2  5  1  0
  5  6  2  0
  6  7  1  0
  7  8  2  0
  8  9  1  0
  9 10  2  0
  8 11  1  0
 11 12  2  0
 11 13  1  0
 13 14  1  0
 14 15  1  0
 15 16  2  0
 16 17  1  0
 17 18  1  0
 17 19  2  0
 19 20  1  0
 20 21  2  0
 21 22  1  0
 10  5  1  0
 21 15  1  0
  1 23  1  0
  1 24  1  0
  6 25  1  0
  7 26  1  0
  9 27  1  0
 10 28  1  0
 13 29  1  0
 14 30  1  0
 14 31  1  0
 16 32  1  0
 19 33  1  0
 20 34  1  0
M  END
$$$$
