
     RDKit          3D

 55 56  0  0  0  0  0  0  0  0999 V2000
   -6.9793   -4.3286   -0.0285 C   0  0  0  0  0  0  0  0  0  0  0  0
   -6.7153   -2.8315   -0.0307 C   0  0  0  0  0  0  0  0  0  0  0  0
   -5.3141   -2.5954    0.0782 O   0  0  0  0  0  0  0  0  0  0  0  0
   -4.7237   -1.3231    0.1047 C   0  0  0  0  0  0  0  0  0  0  0  0
   -5.4785   -0.1401    0.0285 C   0  0  0  0  0  0  0  0  0  0  0  0
   -4.8459    1.1038    0.0746 C   0  0  0  0  0  0  0  0  0  0  0  0
   -3.4454    1.1890    0.1871 C   0  0  0  0  0  0  0  0  0  0  0  0
   -2.7776    2.4233    0.2355 O   0  0  0  0  0  0  0  0  0  0  0  0
   -3.4195    3.6945    0.1854 C   0  0  0  0  0  0  0  0  0  0  0  0
   -2.3721    4.7932    0.2659 C   0  0  0  0  0  0  0  0  0  0  0  0
   -2.6838    0.0076    0.2424 C   0  0  0  0  0  0  0  0  0  0  0  0
   -1.2554    0.0901    0.3867 N   0  0  0  0  0  0  0  0  0  0  0  0
   -0.3325   -0.7460   -0.3363 C   0  0  0  0  0  0  0  0  0  0  0  0
   -0.7664   -1.6023   -1.1548 O   0  0  0  0  0  0  0  0  0  0  0  0
    1.1315   -0.6148   -0.1435 C   0  0  0  0  0  0  0  0  0  0  0  0
    1.7152    0.6229    0.1738 C   0  0  0  0  0  0  0  0  0  0  0  0
    3.1025    0.7385    0.3485 C   0  0  0  0  0  0  0  0  0  0  0  0
    3.7046    2.0816    0.6564 C   0  0  0  0  0  0  0  0  0  0  0  0
    3.9238   -0.3901    0.1646 C   0  0  0  0  0  0  0  0  0  0  0  0
    5.3098   -0.2704    0.2926 O   0  0  0  0  0  0  0  0  0  0  0  0
    6.1363    0.0225   -0.8288 C   0  0  0  0  0  0  0  0  0  0  0  0
    7.5922    0.1702   -0.3818 C   0  0  0  0  0  0  0  0  0  0  0  0
    7.7700    1.3093    0.5175 N   0  0  0  0  0  0  0  0  0  0  0  0
    3.3476   -1.6389   -0.1367 C   0  0  0  0  0  0  0  0  0  0  0  0
    4.2081   -2.8549   -0.3402 C   0  0  0  0  0  0  0  0  0  0  0  0
    1.9590   -1.7369   -0.3091 C   0  0  0  0  0  0  0  0  0  0  0  0
   -3.3324   -1.2394    0.2168 C   0  0  0  0  0  0  0  0  0  0  0  0
   -6.6075   -4.7780    0.9167 H   0  0  0  0  0  0  0  0  0  0  0  0
   -8.0702   -4.5173   -0.1132 H   0  0  0  0  0  0  0  0  0  0  0  0
   -6.4624   -4.8062   -0.8877 H   0  0  0  0  0  0  0  0  0  0  0  0
   -7.2435   -2.3680    0.8305 H   0  0  0  0  0  0  0  0  0  0  0  0
   -7.0981   -2.3963   -0.9792 H   0  0  0  0  0  0  0  0  0  0  0  0
   -6.5560   -0.1702   -0.0588 H   0  0  0  0  0  0  0  0  0  0  0  0
   -5.4564    1.9947    0.0216 H   0  0  0  0  0  0  0  0  0  0  0  0
   -3.9804    3.7960   -0.7688 H   0  0  0  0  0  0  0  0  0  0  0  0
   -4.1204    3.7966    1.0420 H   0  0  0  0  0  0  0  0  0  0  0  0
   -1.6662    4.7075   -0.5873 H   0  0  0  0  0  0  0  0  0  0  0  0
   -2.8666    5.7867    0.2273 H   0  0  0  0  0  0  0  0  0  0  0  0
   -1.8057    4.7082    1.2175 H   0  0  0  0  0  0  0  0  0  0  0  0
   -0.8821    0.8328    1.0178 H   0  0  0  0  0  0  0  0  0  0  0  0
    1.1014    1.5104    0.2556 H   0  0  0  0  0  0  0  0  0  0  0  0
    4.5554    1.9757    1.3621 H   0  0  0  0  0  0  0  0  0  0  0  0
    2.9579    2.7550    1.1285 H   0  0  0  0  0  0  0  0  0  0  0  0
    4.0656    2.5502   -0.2827 H   0  0  0  0  0  0  0  0  0  0  0  0
    5.7956    0.9600   -1.3194 H   0  0  0  0  0  0  0  0  0  0  0  0
    6.0662   -0.8045   -1.5673 H   0  0  0  0  0  0  0  0  0  0  0  0
    7.9206   -0.7599    0.1308 H   0  0  0  0  0  0  0  0  0  0  0  0
    8.2352    0.3121   -1.2769 H   0  0  0  0  0  0  0  0  0  0  0  0
    7.1913    1.1600    1.3756 H   0  0  0  0  0  0  0  0  0  0  0  0
    7.4214    2.1743    0.0437 H   0  0  0  0  0  0  0  0  0  0  0  0
    5.0748   -2.8441    0.3540 H   0  0  0  0  0  0  0  0  0  0  0  0
    3.6331   -3.7852   -0.1452 H   0  0  0  0  0  0  0  0  0  0  0  0
    4.5780   -2.8757   -1.3863 H   0  0  0  0  0  0  0  0  0  0  0  0
    1.5205   -2.6952   -0.5625 H   0  0  0  0  0  0  0  0  0  0  0  0
   -2.7604   -2.1535    0.3100 H   0  0  0  0  0  0  0  0  0  0  0  0
  1  2  1  0
  2  3  1  0
  3  4  1  0
  4  5  2  0
  5  6  1  0
  6  7  2  0
  7  8  1  0
  8  9  1  0
  9 10  1  0
  7 11  1  0
 11 12  1  0
 12 13  1  0
 13 14  2  0
 13 15  1  0
 15 16  2  0
 16 17  1  0
 17 18  1  0
 17 19  2  0
 19 20  1  0
 20 21  1  0
 21 22  1  0
 22 23  1  0
 19 24  1  0
 24 25  1  0
 24 26  2  0
 11 27  2  0
 27  4  1  0
 26 15  1  0
  1 28  1  0
  1 29  1  0
  1 30  1  0
  2 31  1  0
  2 32  1  0
  5 33  1  0
  6 34  1  0
  9 35  1  0
  9 36  1  0
 10 37  1  0
 10 38  1  0
 10 39  1  0
 12 40  1  0
 16 41  1  0
 18 42  1  0
 18 43  1  0
 18 44  1  0
 21 45  1  0
 21 46  1  0
 22 47  1  0
 22 48  1  0
 23 49  1  0
 23 50  1  0
 25 51  1  0
 25 52  1  0
 25 53  1  0
 26 54  1  0
 27 55  1  0
M  END
$$$$
