
     RDKit          3D

 32 34  0  0  0  0  0  0  0  0999 V2000
    0.5157   -0.5737    0.4588 C   0  0  2  0  0  0  0  0  0  0  0  0
    0.2187   -1.4632   -0.7568 C   0  0  0  0  0  0  0  0  0  0  0  0
   -1.2281   -1.8571   -0.7355 C   0  0  0  0  0  0  0  0  0  0  0  0
   -1.5438   -3.0597   -0.9357 O   0  0  0  0  0  0  0  0  0  0  0  0
   -2.2449   -0.8253   -0.4142 C   0  0  0  0  0  0  0  0  0  0  0  0
   -1.7867    0.3363    0.2450 C   0  0  0  0  0  0  0  0  0  0  0  0
   -0.4258    0.5006    0.5382 O   0  0  0  0  0  0  0  0  0  0  0  0
   -2.6837    1.3433    0.6085 C   0  0  0  0  0  0  0  0  0  0  0  0
   -4.0485    1.2013    0.3426 C   0  0  0  0  0  0  0  0  0  0  0  0
   -4.9525    2.1914    0.7213 O   0  0  0  0  0  0  0  0  0  0  0  0
   -4.5121    0.0605   -0.3157 C   0  0  0  0  0  0  0  0  0  0  0  0
   -3.6254   -0.9432   -0.7250 C   0  0  0  0  0  0  0  0  0  0  0  0
   -4.1544   -2.0068   -1.4595 O   0  0  0  0  0  0  0  0  0  0  0  0
    1.9203   -0.0263    0.3892 C   0  0  0  0  0  0  0  0  0  0  0  0
    2.9529   -0.6318    1.1254 C   0  0  0  0  0  0  0  0  0  0  0  0
    4.2610   -0.1456    1.0393 C   0  0  0  0  0  0  0  0  0  0  0  0
    4.5541    0.9440    0.2084 C   0  0  0  0  0  0  0  0  0  0  0  0
    5.8537    1.4369    0.1151 O   0  0  0  0  0  0  0  0  0  0  0  0
    3.5336    1.5417   -0.5374 C   0  0  0  0  0  0  0  0  0  0  0  0
    2.2246    1.0578   -0.4534 C   0  0  0  0  0  0  0  0  0  0  0  0
    0.4008   -1.1910    1.3783 H   0  0  0  0  0  0  0  0  0  0  0  0
    0.4205   -0.9098   -1.6995 H   0  0  0  0  0  0  0  0  0  0  0  0
    0.8666   -2.3670   -0.7288 H   0  0  0  0  0  0  0  0  0  0  0  0
   -2.3188    2.2298    1.1119 H   0  0  0  0  0  0  0  0  0  0  0  0
   -4.6482    3.0322    1.1982 H   0  0  0  0  0  0  0  0  0  0  0  0
   -5.5677   -0.0338   -0.5388 H   0  0  0  0  0  0  0  0  0  0  0  0
   -3.5946   -2.6738   -1.9702 H   0  0  0  0  0  0  0  0  0  0  0  0
    2.7465   -1.4807    1.7653 H   0  0  0  0  0  0  0  0  0  0  0  0
    5.0461   -0.6182    1.6156 H   0  0  0  0  0  0  0  0  0  0  0  0
    6.6152    1.0252    0.6418 H   0  0  0  0  0  0  0  0  0  0  0  0
    3.7557    2.3798   -1.1858 H   0  0  0  0  0  0  0  0  0  0  0  0
    1.4491    1.5263   -1.0467 H   0  0  0  0  0  0  0  0  0  0  0  0
  1  2  1  0
  2  3  1  0
  3  4  2  0
  3  5  1  0
  5  6  2  0
  6  7  1  0
  6  8  1  0
  8  9  2  0
  9 10  1  0
  9 11  1  0
 11 12  2  0
 12 13  1  0
  1 14  1  0
 14 15  2  0
 15 16  1  0
 16 17  2  0
 17 18  1  0
 17 19  1  0
 19 20  2  0
  7  1  1  0
 20 14  1  0
 12  5  1  0
  1 21  1  1
  2 22  1  0
  2 23  1  0
  8 24  1  0
 10 25  1  0
 11 26  1  0
 13 27  1  0
 15 28  1  0
 16 29  1  0
 18 30  1  0
 19 31  1  0
 20 32  1  0
M  END
$$$$
