
     RDKit          3D

 59 64  0  0  0  0  0  0  0  0999 V2000
    3.2714    1.8347    0.4573 N   0  0  0  0  0  0  0  0  0  0  0  0
    2.6054    0.9996   -0.3713 C   0  0  0  0  0  0  0  0  0  0  0  0
    3.4291   -0.0513   -0.7689 C   0  0  0  0  0  0  0  0  0  0  0  0
    4.6424    0.1690   -0.1444 C   0  0  0  0  0  0  0  0  0  0  0  0
    5.8218   -0.5774   -0.1228 C   0  0  0  0  0  0  0  0  0  0  0  0
    6.8900   -0.0961    0.6557 C   0  0  0  0  0  0  0  0  0  0  0  0
    6.7544    1.0982    1.3971 C   0  0  0  0  0  0  0  0  0  0  0  0
    5.5467    1.8187    1.3724 C   0  0  0  0  0  0  0  0  0  0  0  0
    4.5060    1.3203    0.5899 C   0  0  0  0  0  0  0  0  0  0  0  0
    3.0651   -1.1640   -1.6672 C   0  0  0  0  0  0  0  0  0  0  0  0
    1.8955   -1.8160   -1.6988 C   0  0  0  0  0  0  0  0  0  0  0  0
    1.9154   -2.7089   -2.8584 C   0  0  0  0  0  0  0  0  0  0  0  0
    0.9784   -3.4734   -3.2090 O   0  0  0  0  0  0  0  0  0  0  0  0
    3.1492   -2.6099   -3.5511 N   0  0  0  0  0  0  0  0  0  0  0  0
    3.8592   -1.6318   -2.8076 C   0  0  0  0  0  0  0  0  0  0  0  0
    4.9907   -1.1924   -3.1418 O   0  0  0  0  0  0  0  0  0  0  0  0
    0.7650   -1.6619   -0.7655 C   0  0  0  0  0  0  0  0  0  0  0  0
   -0.5698   -1.5100   -1.1221 C   0  0  0  0  0  0  0  0  0  0  0  0
   -1.3364   -1.3646   -0.0156 N   0  0  0  0  0  0  0  0  0  0  0  0
   -2.7744   -1.0960   -0.0028 C   0  0  0  0  0  0  0  0  0  0  0  0
   -3.0264    0.4142    0.0818 C   0  0  0  0  0  0  0  0  0  0  0  0
   -4.5372    0.7476    0.1360 C   0  0  2  0  0  0  0  0  0  0  0  0
   -5.2814    0.4335   -1.1601 C   0  0  0  0  0  0  0  0  0  0  0  0
   -6.4526    1.4013   -1.1732 C   0  0  0  0  0  0  0  0  0  0  0  0
   -6.2351    2.3246    0.0233 C   0  0  0  0  0  0  0  0  0  0  0  0
   -4.8488    2.1500    0.4843 N   0  0  0  0  0  0  0  0  0  0  0  0
   -3.9714    3.1351   -0.1827 C   0  0  0  0  0  0  0  0  0  0  0  0
   -0.4972   -1.4209    1.0403 C   0  0  0  0  0  0  0  0  0  0  0  0
   -0.8115   -1.3090    2.3982 C   0  0  0  0  0  0  0  0  0  0  0  0
    0.2357   -1.4230    3.3295 C   0  0  0  0  0  0  0  0  0  0  0  0
    1.5585   -1.6520    2.8947 C   0  0  0  0  0  0  0  0  0  0  0  0
    1.8491   -1.7585    1.5238 C   0  0  0  0  0  0  0  0  0  0  0  0
    0.7954   -1.6170    0.6183 C   0  0  0  0  0  0  0  0  0  0  0  0
    2.8955    2.6982    0.9084 H   0  0  0  0  0  0  0  0  0  0  0  0
    1.5772    1.1476   -0.6749 H   0  0  0  0  0  0  0  0  0  0  0  0
    5.9144   -1.5051   -0.6708 H   0  0  0  0  0  0  0  0  0  0  0  0
    7.8194   -0.6492    0.6928 H   0  0  0  0  0  0  0  0  0  0  0  0
    7.5817    1.4566    1.9956 H   0  0  0  0  0  0  0  0  0  0  0  0
    5.4283    2.7271    1.9487 H   0  0  0  0  0  0  0  0  0  0  0  0
    3.4408   -3.0952   -4.4283 H   0  0  0  0  0  0  0  0  0  0  0  0
   -0.9512   -1.4771   -2.1350 H   0  0  0  0  0  0  0  0  0  0  0  0
   -3.2342   -1.5043   -0.9290 H   0  0  0  0  0  0  0  0  0  0  0  0
   -3.2454   -1.6146    0.8598 H   0  0  0  0  0  0  0  0  0  0  0  0
   -2.5420    0.8016    1.0044 H   0  0  0  0  0  0  0  0  0  0  0  0
   -2.5494    0.9030   -0.7955 H   0  0  0  0  0  0  0  0  0  0  0  0
   -4.9797    0.1137    0.9394 H   0  0  0  0  0  0  0  0  0  0  0  0
   -4.6331    0.6166   -2.0455 H   0  0  0  0  0  0  0  0  0  0  0  0
   -5.6319   -0.6217   -1.1750 H   0  0  0  0  0  0  0  0  0  0  0  0
   -6.4559    1.9885   -2.1177 H   0  0  0  0  0  0  0  0  0  0  0  0
   -7.4186    0.8588   -1.0779 H   0  0  0  0  0  0  0  0  0  0  0  0
   -6.9199    2.0247    0.8470 H   0  0  0  0  0  0  0  0  0  0  0  0
   -6.4800    3.3798   -0.2354 H   0  0  0  0  0  0  0  0  0  0  0  0
   -2.9440    3.0798    0.2329 H   0  0  0  0  0  0  0  0  0  0  0  0
   -3.9386    2.9771   -1.2835 H   0  0  0  0  0  0  0  0  0  0  0  0
   -4.3273    4.1679    0.0217 H   0  0  0  0  0  0  0  0  0  0  0  0
   -1.8264   -1.1423    2.7332 H   0  0  0  0  0  0  0  0  0  0  0  0
    0.0244   -1.3422    4.3878 H   0  0  0  0  0  0  0  0  0  0  0  0
    2.3544   -1.7498    3.6214 H   0  0  0  0  0  0  0  0  0  0  0  0
    2.8595   -1.9522    1.1904 H   0  0  0  0  0  0  0  0  0  0  0  0
  1  2  1  0
  2  3  2  0
  3  4  1  0
  4  5  2  0
  5  6  1  0
  6  7  2  0
  7  8  1  0
  8  9  2  0
  3 10  1  0
 10 11  2  0
 11 12  1  0
 12 13  2  0
 12 14  1  0
 14 15  1  0
 15 16  2  0
 11 17  1  0
 17 18  2  0
 18 19  1  0
 19 20  1  0
 20 21  1  0
 21 22  1  0
 22 23  1  0
 23 24  1  0
 24 25  1  0
 25 26  1  0
 26 27  1  0
 19 28  1  0
 28 29  2  0
 29 30  1  0
 30 31  2  0
 31 32  1  0
 32 33  2  0
  9  1  1  0
 15 10  1  0
 33 17  1  0
  9  4  1  0
 26 22  1  0
 33 28  1  0
  1 34  1  0
  2 35  1  0
  5 36  1  0
  6 37  1  0
  7 38  1  0
  8 39  1  0
 14 40  1  0
 18 41  1  0
 20 42  1  0
 20 43  1  0
 21 44  1  0
 21 45  1  0
 22 46  1  1
 23 47  1  0
 23 48  1  0
 24 49  1  0
 24 50  1  0
 25 51  1  0
 25 52  1  0
 27 53  1  0
 27 54  1  0
 27 55  1  0
 29 56  1  0
 30 57  1  0
 31 58  1  0
 32 59  1  0
M  END
$$$$
