
     RDKit          3D

 31 31  0  0  0  0  0  0  0  0999 V2000
    3.7588   -1.0430    1.1727 O   0  0  0  0  0  0  0  0  0  0  0  0
    2.7835   -1.1545    0.1712 C   0  0  0  0  0  0  0  0  0  0  0  0
    1.6358   -0.1680    0.4339 C   0  0  0  0  0  0  0  0  0  0  0  0
    0.7706    0.0199   -0.7610 N   0  0  0  0  0  0  0  0  0  0  0  0
    0.0647   -1.2143   -1.1832 C   0  0  0  0  0  0  0  0  0  0  0  0
   -1.0598   -1.6208   -0.2120 C   0  0  2  0  0  0  0  0  0  0  0  0
   -1.7228   -2.7404   -0.7414 O   0  0  0  0  0  0  0  0  0  0  0  0
   -2.0594   -0.4612   -0.0269 C   0  0  1  0  0  0  0  0  0  0  0  0
   -2.9832   -0.7867    0.9806 O   0  0  0  0  0  0  0  0  0  0  0  0
   -1.3351    0.8436    0.3586 C   0  0  2  0  0  0  0  0  0  0  0  0
   -2.2567    1.9052    0.3499 O   0  0  0  0  0  0  0  0  0  0  0  0
   -0.2003    1.1446   -0.6534 C   0  0  1  0  0  0  0  0  0  0  0  0
    0.4837    2.5155   -0.4223 C   0  0  0  0  0  0  0  0  0  0  0  0
    0.7473    2.7547    0.9367 O   0  0  0  0  0  0  0  0  0  0  0  0
    4.3137   -0.2518    0.9445 H   0  0  0  0  0  0  0  0  0  0  0  0
    2.3998   -2.1951    0.1918 H   0  0  0  0  0  0  0  0  0  0  0  0
    3.2336   -0.9661   -0.8306 H   0  0  0  0  0  0  0  0  0  0  0  0
    1.0569   -0.4980    1.3202 H   0  0  0  0  0  0  0  0  0  0  0  0
    2.1207    0.7915    0.6963 H   0  0  0  0  0  0  0  0  0  0  0  0
    0.7719   -2.0574   -1.3145 H   0  0  0  0  0  0  0  0  0  0  0  0
   -0.3730   -1.0507   -2.1933 H   0  0  0  0  0  0  0  0  0  0  0  0
   -0.6105   -1.8884    0.7716 H   0  0  0  0  0  0  0  0  0  0  0  0
   -2.1479   -3.2149    0.0202 H   0  0  0  0  0  0  0  0  0  0  0  0
   -2.5943   -0.2881   -0.9925 H   0  0  0  0  0  0  0  0  0  0  0  0
   -3.7012   -1.3240    0.5546 H   0  0  0  0  0  0  0  0  0  0  0  0
   -0.8987    0.7337    1.3785 H   0  0  0  0  0  0  0  0  0  0  0  0
   -2.7473    1.8709    1.2124 H   0  0  0  0  0  0  0  0  0  0  0  0
   -0.6856    1.2501   -1.6520 H   0  0  0  0  0  0  0  0  0  0  0  0
    1.4403    2.5507   -0.9858 H   0  0  0  0  0  0  0  0  0  0  0  0
   -0.1574    3.3287   -0.8375 H   0  0  0  0  0  0  0  0  0  0  0  0
   -0.0481    3.2142    1.3126 H   0  0  0  0  0  0  0  0  0  0  0  0
  1  2  1  0
  2  3  1  0
  3  4  1  0
  4  5  1  0
  5  6  1  0
  6  7  1  0
  6  8  1  0
  8  9  1  0
  8 10  1  0
 10 11  1  0
 10 12  1  0
 12 13  1  0
 13 14  1  0
 12  4  1  0
  1 15  1  0
  2 16  1  0
  2 17  1  0
  3 18  1  0
  3 19  1  0
  5 20  1  0
  5 21  1  0
  6 22  1  1
  7 23  1  0
  8 24  1  6
  9 25  1  0
 10 26  1  1
 11 27  1  0
 12 28  1  6
 13 29  1  0
 13 30  1  0
 14 31  1  0
M  END
$$$$
