
     RDKit          2D

293298  0  0  0  0  0  0  0  0999 V2000
    9.6962   -6.2942    0.0000 C   0  0  0  0  0  0  0  0  0  0  0  0
   10.4462   -7.5933    0.0000 C   0  0  0  0  0  0  0  0  0  0  0  0
   11.1962   -8.8923    0.0000 C   0  0  0  0  0  0  0  0  0  0  0  0
   11.9462  -10.1913    0.0000 C   0  0  0  0  0  0  0  0  0  0  0  0
    9.8971   -9.6423    0.0000 C   0  0  0  0  0  0  0  0  0  0  0  0
    9.1471   -8.3433    0.0000 N   0  0  0  0  0  0  0  0  0  0  0  0
    7.6471   -8.3433    0.0000 C   0  0  0  0  0  0  0  0  0  0  0  0
    6.7444   -9.5412    0.0000 O   0  0  0  0  0  0  0  0  0  0  0  0
    6.8971   -7.0442    0.0000 C   0  0  0  0  0  0  0  0  0  0  0  0
    6.1471   -5.7452    0.0000 C   0  0  0  0  0  0  0  0  0  0  0  0
    5.3971   -4.4462    0.0000 C   0  0  0  0  0  0  0  0  0  0  0  0
    4.6471   -3.1471    0.0000 C   0  0  0  0  0  0  0  0  0  0  0  0
    3.1471   -3.1471    0.0000 O   0  0  0  0  0  0  0  0  0  0  0  0
    5.3971   -1.8481    0.0000 O   0  0  0  0  0  0  0  0  0  0  0  0
    5.5981   -7.7942    0.0000 N   0  0  0  0  0  0  0  0  0  0  0  0
    4.2990   -7.0442    0.0000 C   0  0  0  0  0  0  0  0  0  0  0  0
    4.2990   -6.0601    0.0000 O   0  0  0  0  0  0  0  0  0  0  0  0
    3.0000   -7.7942    0.0000 C   0  0  0  0  0  0  0  0  0  0  0  0
    1.7010   -8.5442    0.0000 C   0  0  0  0  0  0  0  0  0  0  0  0
    0.4019   -9.2942    0.0000 C   0  0  0  0  0  0  0  0  0  0  0  0
   -0.8971  -10.0442    0.0000 C   0  0  0  0  0  0  0  0  0  0  0  0
   -2.1962   -9.2942    0.0000 O   0  0  0  0  0  0  0  0  0  0  0  0
   -1.0800  -11.5330    0.0000 O   0  0  0  0  0  0  0  0  0  0  0  0
    2.2500   -6.4952    0.0000 N   0  0  0  0  0  0  0  0  0  0  0  0
    3.0000   -5.1962    0.0000 C   0  0  0  0  0  0  0  0  0  0  0  0
    3.9841   -5.1962    0.0000 O   0  0  0  0  0  0  0  0  0  0  0  0
    2.2500   -3.8971    0.0000 C   0  0  0  0  0  0  0  0  0  0  0  0
    1.5000   -2.5981    0.0000 C   0  0  0  0  0  0  0  0  0  0  0  0
    0.7500   -1.2990    0.0000 C   0  0  0  0  0  0  0  0  0  0  0  0
    1.5000    0.0000    0.0000 C   0  0  0  0  0  0  0  0  0  0  0  0
    0.7500    1.2990    0.0000 C   0  0  0  0  0  0  0  0  0  0  0  0
   -0.7500    1.2990    0.0000 C   0  0  0  0  0  0  0  0  0  0  0  0
   -1.5000    0.0000    0.0000 C   0  0  0  0  0  0  0  0  0  0  0  0
   -0.7500   -1.2990    0.0000 C   0  0  0  0  0  0  0  0  0  0  0  0
    0.9510   -4.6471    0.0000 N   0  0  0  0  0  0  0  0  0  0  0  0
    0.9510   -6.1471    0.0000 C   0  0  0  0  0  0  0  0  0  0  0  0
    1.5244   -6.7009    0.0000 O   0  0  0  0  0  0  0  0  0  0  0  0
   -0.3481   -6.8971    0.0000 C   0  0  0  0  0  0  0  0  0  0  0  0
   -1.6471   -7.6471    0.0000 C   0  0  0  0  0  0  0  0  0  0  0  0
   -2.9462   -8.3971    0.0000 C   0  0  0  0  0  0  0  0  0  0  0  0
   -2.9462   -9.8971    0.0000 O   0  0  0  0  0  0  0  0  0  0  0  0
   -4.2452   -7.6471    0.0000 O   0  0  0  0  0  0  0  0  0  0  0  0
    0.4019   -8.1962    0.0000 N   0  0  0  0  0  0  0  0  0  0  0  0
   -0.3481   -9.4952    0.0000 C   0  0  0  0  0  0  0  0  0  0  0  0
   -1.8035   -9.1322    0.0000 O   0  0  0  0  0  0  0  0  0  0  0  0
    0.4019  -10.7942    0.0000 C   0  0  0  0  0  0  0  0  0  0  0  0
    1.1519  -12.0933    0.0000 N   0  0  0  0  0  0  0  0  0  0  0  0
    0.4019  -13.3923    0.0000 C   0  0  0  0  0  0  0  0  0  0  0  0
   -1.0981  -13.3923    0.0000 O   0  0  0  0  0  0  0  0  0  0  0  0
    1.1519  -14.6913    0.0000 C   0  0  0  0  0  0  0  0  0  0  0  0
    1.9019  -15.9904    0.0000 C   0  0  0  0  0  0  0  0  0  0  0  0
    2.6519  -17.2894    0.0000 C   0  0  0  0  0  0  0  0  0  0  0  0
    1.9019  -18.5885    0.0000 N   0  0  0  0  0  0  0  0  0  0  0  0
    4.1519  -17.2894    0.0000 O   0  0  0  0  0  0  0  0  0  0  0  0
   -0.1471  -15.4413    0.0000 N   0  0  0  0  0  0  0  0  0  0  0  0
   -0.1471  -16.9413    0.0000 C   0  0  0  0  0  0  0  0  0  0  0  0
    1.1519  -17.6913    0.0000 O   0  0  0  0  0  0  0  0  0  0  0  0
   -1.4462  -17.6913    0.0000 C   0  0  0  0  0  0  0  0  0  0  0  0
   -2.7452  -18.4413    0.0000 N   0  0  0  0  0  0  0  0  0  0  0  0
   -4.0442  -17.6913    0.0000 C   0  0  0  0  0  0  0  0  0  0  0  0
   -4.0442  -16.1913    0.0000 O   0  0  0  0  0  0  0  0  0  0  0  0
   -5.3433  -18.4413    0.0000 C   0  0  0  0  0  0  0  0  0  0  0  0
   -6.6423  -19.1913    0.0000 N   0  0  0  0  0  0  0  0  0  0  0  0
   -6.6423  -20.6913    0.0000 C   0  0  0  0  0  0  0  0  0  0  0  0
   -5.3433  -21.4413    0.0000 O   0  0  0  0  0  0  0  0  0  0  0  0
   -7.9413  -21.4413    0.0000 C   0  0  0  0  0  0  0  0  0  0  0  0
   -9.2404  -22.1913    0.0000 N   0  0  0  0  0  0  0  0  0  0  0  0
  -10.5394  -21.4413    0.0000 C   0  0  0  0  0  0  0  0  0  0  0  0
  -10.5394  -19.9413    0.0000 O   0  0  0  0  0  0  0  0  0  0  0  0
  -11.8385  -22.1913    0.0000 C   0  0  0  0  0  0  0  0  0  0  0  0
  -13.1375  -22.9413    0.0000 N   0  0  0  0  0  0  0  0  0  0  0  0
  -13.1375  -24.4413    0.0000 C   0  0  0  0  0  0  0  0  0  0  0  0
  -11.7567  -25.0274    0.0000 O   0  0  0  0  0  0  0  0  0  0  0  0
  -14.4365  -25.1913    0.0000 C   0  0  0  0  0  0  0  0  0  0  0  0
  -15.8631  -25.6549    0.0000 C   0  0  0  0  0  0  0  0  0  0  0  0
  -15.8631  -27.1549    0.0000 C   0  0  0  0  0  0  0  0  0  0  0  0
  -14.4365  -27.6184    0.0000 C   0  0  0  0  0  0  0  0  0  0  0  0
  -13.5549  -26.4049    0.0000 N   0  0  0  0  0  0  0  0  0  0  0  0
  -12.0549  -26.4049    0.0000 C   0  0  0  0  0  0  0  0  0  0  0  0
  -11.1521  -25.2069    0.0000 O   0  0  0  0  0  0  0  0  0  0  0  0
  -11.3049  -27.7039    0.0000 C   0  0  0  0  0  0  0  0  0  0  0  0
  -10.5549  -29.0029    0.0000 C   0  0  0  0  0  0  0  0  0  0  0  0
   -9.8049  -30.3020    0.0000 C   0  0  0  0  0  0  0  0  0  0  0  0
   -9.0549  -31.6010    0.0000 C   0  0  0  0  0  0  0  0  0  0  0  0
   -8.3049  -32.9001    0.0000 N   0  0  0  0  0  0  0  0  0  0  0  0
   -6.8049  -32.9001    0.0000 C   0  0  0  0  0  0  0  0  0  0  0  0
   -6.0549  -31.6010    0.0000 N   0  0  0  0  0  0  0  0  0  0  0  0
   -6.0549  -34.1991    0.0000 N   0  0  0  0  0  0  0  0  0  0  0  0
  -10.0058  -26.9539    0.0000 N   0  0  0  0  0  0  0  0  0  0  0  0
   -8.7068  -27.7039    0.0000 C   0  0  0  0  0  0  0  0  0  0  0  0
   -8.7068  -29.2039    0.0000 O   0  0  0  0  0  0  0  0  0  0  0  0
   -7.4077  -26.9539    0.0000 C   0  0  0  0  0  0  0  0  0  0  0  0
   -6.2930  -25.9502    0.0000 C   0  0  0  0  0  0  0  0  0  0  0  0
   -4.9940  -26.7002    0.0000 C   0  0  0  0  0  0  0  0  0  0  0  0
   -5.3059  -28.1674    0.0000 C   0  0  0  0  0  0  0  0  0  0  0  0
   -6.7976  -28.3242    0.0000 N   0  0  0  0  0  0  0  0  0  0  0  0
   -7.5476  -29.6233    0.0000 C   0  0  0  0  0  0  0  0  0  0  0  0
   -9.0476  -29.6233    0.0000 O   0  0  0  0  0  0  0  0  0  0  0  0
   -6.7976  -30.9223    0.0000 C   0  0  0  0  0  0  0  0  0  0  0  0
   -8.0967  -31.6723    0.0000 N   0  0  0  0  0  0  0  0  0  0  0  0
   -6.0476  -32.2213    0.0000 C   0  0  0  0  0  0  0  0  0  0  0  0
   -5.2976  -33.5204    0.0000 C   0  0  0  0  0  0  0  0  0  0  0  0
   -6.0476  -34.8194    0.0000 C   0  0  0  0  0  0  0  0  0  0  0  0
   -5.2976  -36.1185    0.0000 C   0  0  0  0  0  0  0  0  0  0  0  0
   -3.7976  -36.1185    0.0000 C   0  0  0  0  0  0  0  0  0  0  0  0
   -3.0476  -34.8194    0.0000 C   0  0  0  0  0  0  0  0  0  0  0  0
   -3.7976  -33.5204    0.0000 C   0  0  0  0  0  0  0  0  0  0  0  0
    8.5981  -10.3923    0.0000 C   0  0  0  0  0  0  0  0  0  0  0  0
    7.2173   -9.8062    0.0000 O   0  0  0  0  0  0  0  0  0  0  0  0
    8.5981  -11.8923    0.0000 N   0  0  0  0  0  0  0  0  0  0  0  0
    7.3846  -12.7740    0.0000 C   0  0  0  0  0  0  0  0  0  0  0  0
    7.8481  -14.2006    0.0000 C   0  0  0  0  0  0  0  0  0  0  0  0
    9.3481  -14.2006    0.0000 C   0  0  0  0  0  0  0  0  0  0  0  0
    9.8116  -12.7740    0.0000 C   0  0  0  0  0  0  0  0  0  0  0  0
   11.1819  -13.3841    0.0000 C   0  0  0  0  0  0  0  0  0  0  0  0
   11.8630  -14.7205    0.0000 O   0  0  0  0  0  0  0  0  0  0  0  0
   12.3954  -12.5024    0.0000 N   0  0  0  0  0  0  0  0  0  0  0  0
   13.7658  -13.1125    0.0000 C   0  0  0  0  0  0  0  0  0  0  0  0
   14.3759  -11.7422    0.0000 C   0  0  0  0  0  0  0  0  0  0  0  0
   14.9860  -10.3719    0.0000 C   0  0  0  0  0  0  0  0  0  0  0  0
   15.5961   -9.0016    0.0000 C   0  0  0  0  0  0  0  0  0  0  0  0
   14.7144   -7.7880    0.0000 O   0  0  0  0  0  0  0  0  0  0  0  0
   17.0879   -8.8448    0.0000 O   0  0  0  0  0  0  0  0  0  0  0  0
   13.1557  -14.4828    0.0000 C   0  0  0  0  0  0  0  0  0  0  0  0
   11.8192  -15.1639    0.0000 O   0  0  0  0  0  0  0  0  0  0  0  0
   14.0373  -15.6964    0.0000 N   0  0  0  0  0  0  0  0  0  0  0  0
   13.4272  -17.0667    0.0000 C   0  0  0  0  0  0  0  0  0  0  0  0
   14.7975  -17.6768    0.0000 C   0  0  0  0  0  0  0  0  0  0  0  0
   16.1679  -18.2869    0.0000 C   0  0  0  0  0  0  0  0  0  0  0  0
   17.5382  -18.8970    0.0000 C   0  0  0  0  0  0  0  0  0  0  0  0
   18.7517  -18.0153    0.0000 O   0  0  0  0  0  0  0  0  0  0  0  0
   17.6950  -20.3888    0.0000 O   0  0  0  0  0  0  0  0  0  0  0  0
   12.0569  -16.4566    0.0000 C   0  0  0  0  0  0  0  0  0  0  0  0
   12.2658  -14.9712    0.0000 O   0  0  0  0  0  0  0  0  0  0  0  0
   10.8434  -17.3382    0.0000 N   0  0  0  0  0  0  0  0  0  0  0  0
    9.4731  -16.7281    0.0000 C   0  0  0  0  0  0  0  0  0  0  0  0
    8.8630  -18.0985    0.0000 C   0  0  0  0  0  0  0  0  0  0  0  0
    8.2529  -19.4688    0.0000 C   0  0  0  0  0  0  0  0  0  0  0  0
    9.1345  -20.6823    0.0000 C   0  0  0  0  0  0  0  0  0  0  0  0
    8.5244  -22.0526    0.0000 C   0  0  0  0  0  0  0  0  0  0  0  0
    7.0326  -22.2094    0.0000 C   0  0  0  0  0  0  0  0  0  0  0  0
    6.4225  -23.5797    0.0000 O   0  0  0  0  0  0  0  0  0  0  0  0
    6.1510  -20.9959    0.0000 C   0  0  0  0  0  0  0  0  0  0  0  0
    6.7611  -19.6256    0.0000 C   0  0  0  0  0  0  0  0  0  0  0  0
   10.0832  -15.3578    0.0000 C   0  0  0  0  0  0  0  0  0  0  0  0
    8.7349  -14.7004    0.0000 O   0  0  0  0  0  0  0  0  0  0  0  0
   11.5750  -15.2010    0.0000 N   0  0  0  0  0  0  0  0  0  0  0  0
   12.1851  -13.8307    0.0000 C   0  0  0  0  0  0  0  0  0  0  0  0
   13.5554  -14.4408    0.0000 C   0  0  0  0  0  0  0  0  0  0  0  0
   14.9257  -15.0509    0.0000 C   0  0  0  0  0  0  0  0  0  0  0  0
   16.2960  -15.6610    0.0000 C   0  0  0  0  0  0  0  0  0  0  0  0
   15.5358  -13.6806    0.0000 C   0  0  0  0  0  0  0  0  0  0  0  0
   10.8147  -13.2206    0.0000 C   0  0  0  0  0  0  0  0  0  0  0  0
    9.6012  -14.1023    0.0000 O   0  0  0  0  0  0  0  0  0  0  0  0
   10.8410  -11.7208    0.0000 O   0  0  0  0  0  0  0  0  0  0  0  0
    8.9462   -4.9952    0.0000 H   0  0  0  0  0  0  0  0  0  0  0  0
   10.9952   -5.5442    0.0000 H   0  0  0  0  0  0  0  0  0  0  0  0
    8.3154   -6.8803    0.0000 H   0  0  0  0  0  0  0  0  0  0  0  0
    9.0042   -8.0066    0.0000 H   0  0  0  0  0  0  0  0  0  0  0  0
   11.7452   -6.8433    0.0000 H   0  0  0  0  0  0  0  0  0  0  0  0
   12.4952   -8.1423    0.0000 H   0  0  0  0  0  0  0  0  0  0  0  0
   12.6962  -11.4904    0.0000 H   0  0  0  0  0  0  0  0  0  0  0  0
   13.1441   -9.2886    0.0000 H   0  0  0  0  0  0  0  0  0  0  0  0
   10.5654  -10.7774    0.0000 H   0  0  0  0  0  0  0  0  0  0  0  0
   10.7999  -10.8402    0.0000 H   0  0  0  0  0  0  0  0  0  0  0  0
    9.1993   -6.8442    0.0000 H   0  0  0  0  0  0  0  0  0  0  0  0
    8.0950   -6.1415    0.0000 H   0  0  0  0  0  0  0  0  0  0  0  0
    7.4462   -4.9952    0.0000 H   0  0  0  0  0  0  0  0  0  0  0  0
    4.7052   -6.1586    0.0000 H   0  0  0  0  0  0  0  0  0  0  0  0
    6.6962   -3.6962    0.0000 H   0  0  0  0  0  0  0  0  0  0  0  0
    4.0981   -5.1962    0.0000 H   0  0  0  0  0  0  0  0  0  0  0  0
    2.5611   -1.7663    0.0000 H   0  0  0  0  0  0  0  0  0  0  0  0
    5.5981   -9.2942    0.0000 H   0  0  0  0  0  0  0  0  0  0  0  0
    3.7500   -9.0933    0.0000 H   0  0  0  0  0  0  0  0  0  0  0  0
    2.6037   -9.7422    0.0000 H   0  0  0  0  0  0  0  0  0  0  0  0
    0.7982   -7.3463    0.0000 H   0  0  0  0  0  0  0  0  0  0  0  0
   -0.6401   -8.2153    0.0000 H   0  0  0  0  0  0  0  0  0  0  0  0
    1.5677  -10.2381    0.0000 H   0  0  0  0  0  0  0  0  0  0  0  0
   -3.2751  -10.3363    0.0000 H   0  0  0  0  0  0  0  0  0  0  0  0
    0.7612   -6.6780    0.0000 H   0  0  0  0  0  0  0  0  0  0  0  0
    3.3290   -2.8551    0.0000 H   0  0  0  0  0  0  0  0  0  0  0  0
    0.1192   -3.1841    0.0000 H   0  0  0  0  0  0  0  0  0  0  0  0
    2.6979   -1.6953    0.0000 H   0  0  0  0  0  0  0  0  0  0  0  0
    3.0000    0.0000    0.0000 H   0  0  0  0  0  0  0  0  0  0  0  0
    1.5000    2.5981    0.0000 H   0  0  0  0  0  0  0  0  0  0  0  0
   -1.5000    2.5981    0.0000 H   0  0  0  0  0  0  0  0  0  0  0  0
   -3.0000    0.0000    0.0000 H   0  0  0  0  0  0  0  0  0  0  0  0
   -1.5000   -2.5981    0.0000 H   0  0  0  0  0  0  0  0  0  0  0  0
   -0.4298   -4.0611    0.0000 H   0  0  0  0  0  0  0  0  0  0  0  0
   -1.0981   -5.5981    0.0000 H   0  0  0  0  0  0  0  0  0  0  0  0
   -1.2337   -9.0890    0.0000 H   0  0  0  0  0  0  0  0  0  0  0  0
   -2.3971   -6.3481    0.0000 H   0  0  0  0  0  0  0  0  0  0  0  0
   -4.2452  -10.6471    0.0000 H   0  0  0  0  0  0  0  0  0  0  0  0
    1.8573   -8.5591    0.0000 H   0  0  0  0  0  0  0  0  0  0  0  0
   -0.7960  -11.6970    0.0000 H   0  0  0  0  0  0  0  0  0  0  0  0
    1.8438  -10.3809    0.0000 H   0  0  0  0  0  0  0  0  0  0  0  0
    2.6519  -12.0933    0.0000 H   0  0  0  0  0  0  0  0  0  0  0  0
    2.4510  -13.9413    0.0000 H   0  0  0  0  0  0  0  0  0  0  0  0
    0.8230  -17.0324    0.0000 H   0  0  0  0  0  0  0  0  0  0  0  0
    3.2010  -15.2404    0.0000 H   0  0  0  0  0  0  0  0  0  0  0  0
    2.6519  -19.8875    0.0000 H   0  0  0  0  0  0  0  0  0  0  0  0
    0.4019  -18.5885    0.0000 H   0  0  0  0  0  0  0  0  0  0  0  0
   -1.4462  -14.6913    0.0000 H   0  0  0  0  0  0  0  0  0  0  0  0
   -0.6962  -18.9904    0.0000 H   0  0  0  0  0  0  0  0  0  0  0  0
   -2.1962  -16.3923    0.0000 H   0  0  0  0  0  0  0  0  0  0  0  0
   -2.7452  -19.9413    0.0000 H   0  0  0  0  0  0  0  0  0  0  0  0
   -6.0933  -17.1423    0.0000 H   0  0  0  0  0  0  0  0  0  0  0  0
   -4.5933  -19.7404    0.0000 H   0  0  0  0  0  0  0  0  0  0  0  0
   -7.9413  -18.4413    0.0000 H   0  0  0  0  0  0  0  0  0  0  0  0
   -7.1913  -22.7404    0.0000 H   0  0  0  0  0  0  0  0  0  0  0  0
   -8.6913  -20.1423    0.0000 H   0  0  0  0  0  0  0  0  0  0  0  0
   -9.2404  -23.6913    0.0000 H   0  0  0  0  0  0  0  0  0  0  0  0
  -12.5885  -20.8923    0.0000 H   0  0  0  0  0  0  0  0  0  0  0  0
  -11.0885  -23.4904    0.0000 H   0  0  0  0  0  0  0  0  0  0  0  0
  -14.4365  -22.1913    0.0000 H   0  0  0  0  0  0  0  0  0  0  0  0
  -15.0466  -23.8210    0.0000 H   0  0  0  0  0  0  0  0  0  0  0  0
  -16.1750  -24.1876    0.0000 H   0  0  0  0  0  0  0  0  0  0  0  0
  -17.3549  -25.8117    0.0000 H   0  0  0  0  0  0  0  0  0  0  0  0
  -17.3549  -26.9981    0.0000 H   0  0  0  0  0  0  0  0  0  0  0  0
  -16.1750  -28.6221    0.0000 H   0  0  0  0  0  0  0  0  0  0  0  0
  -15.0466  -28.9887    0.0000 H   0  0  0  0  0  0  0  0  0  0  0  0
  -13.2386  -28.5211    0.0000 H   0  0  0  0  0  0  0  0  0  0  0  0
  -12.5028  -28.6067    0.0000 H   0  0  0  0  0  0  0  0  0  0  0  0
  -11.8539  -29.7529    0.0000 H   0  0  0  0  0  0  0  0  0  0  0  0
   -9.1129  -28.5896    0.0000 H   0  0  0  0  0  0  0  0  0  0  0  0
  -11.1039  -31.0520    0.0000 H   0  0  0  0  0  0  0  0  0  0  0  0
   -8.5058  -29.5520    0.0000 H   0  0  0  0  0  0  0  0  0  0  0  0
  -10.3539  -32.3510    0.0000 H   0  0  0  0  0  0  0  0  0  0  0  0
   -7.9759  -30.5590    0.0000 H   0  0  0  0  0  0  0  0  0  0  0  0
   -9.0549  -34.1991    0.0000 H   0  0  0  0  0  0  0  0  0  0  0  0
   -4.5660  -31.4182    0.0000 H   0  0  0  0  0  0  0  0  0  0  0  0
   -6.4682  -30.1591    0.0000 H   0  0  0  0  0  0  0  0  0  0  0  0
   -4.5549  -34.1991    0.0000 H   0  0  0  0  0  0  0  0  0  0  0  0
  -10.0058  -25.4539    0.0000 H   0  0  0  0  0  0  0  0  0  0  0  0
   -8.2894  -25.7404    0.0000 H   0  0  0  0  0  0  0  0  0  0  0  0
   -7.4077  -24.9465    0.0000 H   0  0  0  0  0  0  0  0  0  0  0  0
   -5.4113  -24.7367    0.0000 H   0  0  0  0  0  0  0  0  0  0  0  0
   -4.3839  -25.3299    0.0000 H   0  0  0  0  0  0  0  0  0  0  0  0
   -3.5674  -27.1637    0.0000 H   0  0  0  0  0  0  0  0  0  0  0  0
   -3.8141  -28.3242    0.0000 H   0  0  0  0  0  0  0  0  0  0  0  0
   -5.1230  -29.6562    0.0000 H   0  0  0  0  0  0  0  0  0  0  0  0
   -5.4169  -30.3362    0.0000 H   0  0  0  0  0  0  0  0  0  0  0  0
   -7.9138  -33.1611    0.0000 H   0  0  0  0  0  0  0  0  0  0  0  0
   -9.5958  -31.6201    0.0000 H   0  0  0  0  0  0  0  0  0  0  0  0
   -6.9915  -33.3871    0.0000 H   0  0  0  0  0  0  0  0  0  0  0  0
   -4.6669  -31.6353    0.0000 H   0  0  0  0  0  0  0  0  0  0  0  0
   -7.5476  -34.8194    0.0000 H   0  0  0  0  0  0  0  0  0  0  0  0
   -6.0476  -37.4175    0.0000 H   0  0  0  0  0  0  0  0  0  0  0  0
   -3.0476  -37.4175    0.0000 H   0  0  0  0  0  0  0  0  0  0  0  0
   -1.5476  -34.8194    0.0000 H   0  0  0  0  0  0  0  0  0  0  0  0
   -3.0476  -32.2213    0.0000 H   0  0  0  0  0  0  0  0  0  0  0  0
    6.6346  -11.4749    0.0000 H   0  0  0  0  0  0  0  0  0  0  0  0
    6.0142  -13.3841    0.0000 H   0  0  0  0  0  0  0  0  0  0  0  0
    6.3809  -14.5124    0.0000 H   0  0  0  0  0  0  0  0  0  0  0  0
    7.8219  -15.7003    0.0000 H   0  0  0  0  0  0  0  0  0  0  0  0
    9.1913  -15.6924    0.0000 H   0  0  0  0  0  0  0  0  0  0  0  0
   10.6962  -14.8582    0.0000 H   0  0  0  0  0  0  0  0  0  0  0  0
   10.3977  -11.3932    0.0000 H   0  0  0  0  0  0  0  0  0  0  0  0
   12.2387  -11.0106    0.0000 H   0  0  0  0  0  0  0  0  0  0  0  0
   15.2430  -13.3729    0.0000 H   0  0  0  0  0  0  0  0  0  0  0  0
   15.8103  -12.1807    0.0000 H   0  0  0  0  0  0  0  0  0  0  0  0
   13.0056  -11.1321    0.0000 H   0  0  0  0  0  0  0  0  0  0  0  0
   13.7002   -9.5993    0.0000 H   0  0  0  0  0  0  0  0  0  0  0  0
   16.3563  -10.9820    0.0000 H   0  0  0  0  0  0  0  0  0  0  0  0
   15.3245   -6.4177    0.0000 H   0  0  0  0  0  0  0  0  0  0  0  0
   15.4862  -16.0847    0.0000 H   0  0  0  0  0  0  0  0  0  0  0  0
   12.8171  -18.4370    0.0000 H   0  0  0  0  0  0  0  0  0  0  0  0
   14.1874  -19.0471    0.0000 H   0  0  0  0  0  0  0  0  0  0  0  0
   15.7211  -16.4948    0.0000 H   0  0  0  0  0  0  0  0  0  0  0  0
   15.5578  -19.6572    0.0000 H   0  0  0  0  0  0  0  0  0  0  0  0
   16.7780  -16.9166    0.0000 H   0  0  0  0  0  0  0  0  0  0  0  0
   20.1220  -18.6254    0.0000 H   0  0  0  0  0  0  0  0  0  0  0  0
   11.1809  -18.7998    0.0000 H   0  0  0  0  0  0  0  0  0  0  0  0
    8.0386  -16.2896    0.0000 H   0  0  0  0  0  0  0  0  0  0  0  0
   10.1487  -18.8711    0.0000 H   0  0  0  0  0  0  0  0  0  0  0  0
    7.4926  -17.4884    0.0000 H   0  0  0  0  0  0  0  0  0  0  0  0
   10.6263  -20.5255    0.0000 H   0  0  0  0  0  0  0  0  0  0  0  0
    9.4061  -23.2662    0.0000 H   0  0  0  0  0  0  0  0  0  0  0  0
    4.9308  -23.7365    0.0000 H   0  0  0  0  0  0  0  0  0  0  0  0
    4.6592  -21.1527    0.0000 H   0  0  0  0  0  0  0  0  0  0  0  0
    5.8794  -18.4120    0.0000 H   0  0  0  0  0  0  0  0  0  0  0  0
   12.5980  -16.2980    0.0000 H   0  0  0  0  0  0  0  0  0  0  0  0
   12.4455  -12.3535    0.0000 H   0  0  0  0  0  0  0  0  0  0  0  0
   14.4789  -13.2589    0.0000 H   0  0  0  0  0  0  0  0  0  0  0  0
   13.1169  -15.8753    0.0000 H   0  0  0  0  0  0  0  0  0  0  0  0
   14.6653  -16.5282    0.0000 H   0  0  0  0  0  0  0  0  0  0  0  0
   17.6663  -16.2711    0.0000 H   0  0  0  0  0  0  0  0  0  0  0  0
   17.2196  -14.4791    0.0000 H   0  0  0  0  0  0  0  0  0  0  0  0
   15.8575  -17.0955    0.0000 H   0  0  0  0  0  0  0  0  0  0  0  0
   16.3084  -12.3949    0.0000 H   0  0  0  0  0  0  0  0  0  0  0  0
   16.9061  -14.2907    0.0000 H   0  0  0  0  0  0  0  0  0  0  0  0
   17.0130  -13.9410    0.0000 H   0  0  0  0  0  0  0  0  0  0  0  0
    8.2309  -13.4922    0.0000 H   0  0  0  0  0  0  0  0  0  0  0  0
  1  2  1  0
  2  3  1  0
  3  4  1  0
  3  5  1  0
  5  6  1  0
  6  7  1  0
  7  8  2  0
  7  9  1  0
  9 10  1  0
 10 11  1  0
 11 12  1  0
 12 13  1  0
 12 14  2  0
  9 15  1  0
 15 16  1  0
 16 17  2  0
 16 18  1  0
 18 19  1  0
 19 20  1  0
 20 21  1  0
 21 22  1  0
 21 23  2  0
 18 24  1  0
 24 25  1  0
 25 26  2  0
 25 27  1  0
 27 28  1  0
 28 29  1  0
 29 30  2  0
 30 31  1  0
 31 32  2  0
 32 33  1  0
 33 34  2  0
 27 35  1  0
 35 36  1  0
 36 37  2  0
 36 38  1  0
 38 39  1  0
 39 40  1  0
 40 41  1  0
 40 42  2  0
 38 43  1  0
 43 44  1  0
 44 45  2  0
 44 46  1  0
 46 47  1  0
 47 48  1  0
 48 49  2  0
 48 50  1  0
 50 51  1  0
 51 52  1  0
 52 53  1  0
 52 54  2  0
 50 55  1  0
 55 56  1  0
 56 57  2  0
 56 58  1  0
 58 59  1  0
 59 60  1  0
 60 61  2  0
 60 62  1  0
 62 63  1  0
 63 64  1  0
 64 65  2  0
 64 66  1  0
 66 67  1  0
 67 68  1  0
 68 69  2  0
 68 70  1  0
 70 71  1  0
 71 72  1  0
 72 73  2  0
 72 74  1  0
 74 75  1  0
 75 76  1  0
 76 77  1  0
 77 78  1  0
 78 79  1  0
 79 80  2  0
 79 81  1  0
 81 82  1  0
 82 83  1  0
 83 84  1  0
 84 85  1  0
 85 86  1  0
 86 87  1  0
 86 88  2  3
 81 89  1  0
 89 90  1  0
 90 91  2  0
 90 92  1  0
 92 93  1  0
 93 94  1  0
 94 95  1  0
 95 96  1  0
 96 97  1  0
 97 98  2  0
 97 99  1  0
 99100  1  0
 99101  1  0
101102  1  0
102103  2  0
103104  1  0
104105  2  0
105106  1  0
106107  2  0
  5108  1  0
108109  2  0
108110  1  0
110111  1  0
111112  1  0
112113  1  0
113114  1  0
114115  1  0
115116  2  0
115117  1  0
117118  1  0
118119  1  0
119120  1  0
120121  1  0
121122  1  0
121123  2  0
118124  1  0
124125  2  0
124126  1  0
126127  1  0
127128  1  0
128129  1  0
129130  1  0
130131  1  0
130132  2  0
127133  1  0
133134  2  0
133135  1  0
135136  1  0
136137  1  0
137138  1  0
138139  2  0
139140  1  0
140141  2  0
141142  1  0
141143  1  0
143144  2  0
136145  1  0
145146  2  0
145147  1  0
147148  1  0
148149  1  0
149150  1  0
150151  1  0
150152  1  0
148153  1  0
153154  1  0
153155  2  0
 34 29  1  0
 78 74  1  0
 96 92  1  0
107102  1  0
114110  1  0
144138  1  0
  1156  1  0
  1157  1  0
  1158  1  0
  2159  1  0
  2160  1  0
  3161  1  1
  4162  1  0
  4163  1  0
  4164  1  0
  5165  1  6
  6166  1  0
  9167  1  6
 10168  1  0
 10169  1  0
 11170  1  0
 11171  1  0
 13172  1  0
 15173  1  0
 18174  1  1
 19175  1  0
 19176  1  0
 20177  1  0
 20178  1  0
 22179  1  0
 24180  1  0
 27181  1  6
 28182  1  0
 28183  1  0
 30184  1  0
 31185  1  0
 32186  1  0
 33187  1  0
 34188  1  0
 35189  1  0
 38190  1  6
 39191  1  0
 39192  1  0
 41193  1  0
 43194  1  0
 46195  1  0
 46196  1  0
 47197  1  0
 50198  1  1
 51199  1  0
 51200  1  0
 53201  1  0
 53202  1  0
 55203  1  0
 58204  1  0
 58205  1  0
 59206  1  0
 62207  1  0
 62208  1  0
 63209  1  0
 66210  1  0
 66211  1  0
 67212  1  0
 70213  1  0
 70214  1  0
 71215  1  0
 74216  1  6
 75217  1  0
 75218  1  0
 76219  1  0
 76220  1  0
 77221  1  0
 77222  1  0
 81223  1  6
 82224  1  0
 82225  1  0
 83226  1  0
 83227  1  0
 84228  1  0
 84229  1  0
 85230  1  0
 87231  1  0
 87232  1  0
 88233  1  0
 89234  1  0
 92235  1  1
 93236  1  0
 93237  1  0
 94238  1  0
 94239  1  0
 95240  1  0
 95241  1  0
 99242  1  6
100243  1  0
100244  1  0
101245  1  0
101246  1  0
103247  1  0
104248  1  0
105249  1  0
106250  1  0
107251  1  0
111252  1  0
111253  1  0
112254  1  0
112255  1  0
113256  1  0
113257  1  0
114258  1  1
117259  1  0
118260  1  6
119261  1  0
119262  1  0
120263  1  0
120264  1  0
122265  1  0
126266  1  0
127267  1  6
128268  1  0
128269  1  0
129270  1  0
129271  1  0
131272  1  0
135273  1  0
136274  1  6
137275  1  0
137276  1  0
139277  1  0
140278  1  0
142279  1  0
143280  1  0
144281  1  0
147282  1  0
148283  1  1
149284  1  0
149285  1  0
150286  1  0
151287  1  0
151288  1  0
151289  1  0
152290  1  0
152291  1  0
152292  1  0
154293  1  0
M  END
$$$$
