
     RDKit          3D

 54 58  0  0  0  0  0  0  0  0999 V2000
    9.3642   -0.2544    1.0310 Cl  0  0  0  0  0  0  0  0  0  0  0  0
    7.6603   -0.2196    0.6176 C   0  0  0  0  0  0  0  0  0  0  0  0
    7.2650    0.1106   -0.6921 C   0  0  0  0  0  0  0  0  0  0  0  0
    5.9009    0.1249   -0.9721 C   0  0  0  0  0  0  0  0  0  0  0  0
    4.9564   -0.1682   -0.0240 C   0  0  0  0  0  0  0  0  0  0  0  0
    5.3196   -0.5070    1.2839 C   0  0  0  0  0  0  0  0  0  0  0  0
    6.6911   -0.5279    1.5997 C   0  0  0  0  0  0  0  0  0  0  0  0
    3.7264   -0.0850   -0.5802 N   0  0  0  0  0  0  0  0  0  0  0  0
    2.4238   -0.3714    0.0469 C   0  0  0  0  0  0  0  0  0  0  0  0
    1.8710   -1.7144   -0.4577 C   0  0  0  0  0  0  0  0  0  0  0  0
    0.4015   -1.8553   -0.0549 C   0  0  0  0  0  0  0  0  0  0  0  0
   -0.4418   -0.8102   -0.6793 N   0  0  0  0  0  0  0  0  0  0  0  0
   -1.7517   -0.6309   -0.0170 C   0  0  0  0  0  0  0  0  0  0  0  0
   -1.6834    0.1954    1.2854 C   0  0  0  0  0  0  0  0  0  0  0  0
   -3.0251    0.2075    2.0288 C   0  0  0  0  0  0  0  0  0  0  0  0
   -4.0531    0.9089    1.2545 N   0  0  0  0  0  0  0  0  0  0  0  0
   -4.2113    2.2509    1.1234 C   0  0  0  0  0  0  0  0  0  0  0  0
   -3.4856    3.0980    1.7095 O   0  0  0  0  0  0  0  0  0  0  0  0
   -5.2241    2.5952    0.2938 N   0  0  0  0  0  0  0  0  0  0  0  0
   -5.7158    1.4139   -0.1181 C   0  0  0  0  0  0  0  0  0  0  0  0
   -6.7654    1.1825   -1.0039 C   0  0  0  0  0  0  0  0  0  0  0  0
   -7.0886   -0.1553   -1.2974 C   0  0  0  0  0  0  0  0  0  0  0  0
   -6.3619   -1.2144   -0.7072 C   0  0  0  0  0  0  0  0  0  0  0  0
   -5.3053   -0.9475    0.1837 C   0  0  0  0  0  0  0  0  0  0  0  0
   -5.0106    0.3904    0.4577 C   0  0  0  0  0  0  0  0  0  0  0  0
    0.2427    0.4479   -1.0648 C   0  0  0  0  0  0  0  0  0  0  0  0
    1.4236    0.7998   -0.1410 C   0  0  0  0  0  0  0  0  0  0  0  0
    3.9853    0.2448   -1.8759 C   0  0  0  0  0  0  0  0  0  0  0  0
    3.0928    0.3933   -2.7518 O   0  0  0  0  0  0  0  0  0  0  0  0
    5.3033    0.3889   -2.1447 N   0  0  0  0  0  0  0  0  0  0  0  0
    7.9940    0.3425   -1.4580 H   0  0  0  0  0  0  0  0  0  0  0  0
    4.5879   -0.7506    2.0406 H   0  0  0  0  0  0  0  0  0  0  0  0
    7.0023   -0.7850    2.6041 H   0  0  0  0  0  0  0  0  0  0  0  0
    2.5668   -0.4794    1.1429 H   0  0  0  0  0  0  0  0  0  0  0  0
    1.9538   -1.7850   -1.5640 H   0  0  0  0  0  0  0  0  0  0  0  0
    2.4608   -2.5478   -0.0176 H   0  0  0  0  0  0  0  0  0  0  0  0
    0.3325   -1.8285    1.0532 H   0  0  0  0  0  0  0  0  0  0  0  0
    0.0376   -2.8513   -0.3863 H   0  0  0  0  0  0  0  0  0  0  0  0
   -2.1920   -1.6293    0.1997 H   0  0  0  0  0  0  0  0  0  0  0  0
   -2.4412   -0.1304   -0.7305 H   0  0  0  0  0  0  0  0  0  0  0  0
   -0.9195   -0.2258    1.9698 H   0  0  0  0  0  0  0  0  0  0  0  0
   -1.3951    1.2434    1.0606 H   0  0  0  0  0  0  0  0  0  0  0  0
   -3.3468   -0.8302    2.2589 H   0  0  0  0  0  0  0  0  0  0  0  0
   -2.8898    0.7246    3.0035 H   0  0  0  0  0  0  0  0  0  0  0  0
   -5.5414    3.5540    0.0276 H   0  0  0  0  0  0  0  0  0  0  0  0
   -7.3117    2.0016   -1.4534 H   0  0  0  0  0  0  0  0  0  0  0  0
   -7.8979   -0.3744   -1.9817 H   0  0  0  0  0  0  0  0  0  0  0  0
   -6.6188   -2.2389   -0.9432 H   0  0  0  0  0  0  0  0  0  0  0  0
   -4.7472   -1.7580    0.6316 H   0  0  0  0  0  0  0  0  0  0  0  0
    0.6187    0.3304   -2.1015 H   0  0  0  0  0  0  0  0  0  0  0  0
   -0.4673    1.3032   -1.1013 H   0  0  0  0  0  0  0  0  0  0  0  0
    1.0180    1.0911    0.8513 H   0  0  0  0  0  0  0  0  0  0  0  0
    1.9404    1.7001   -0.5383 H   0  0  0  0  0  0  0  0  0  0  0  0
    5.7516    0.6324   -3.0560 H   0  0  0  0  0  0  0  0  0  0  0  0
  1  2  1  0
  2  3  2  0
  3  4  1  0
  4  5  2  0
  5  6  1  0
  6  7  2  0
  5  8  1  0
  8  9  1  0
  9 10  1  0
 10 11  1  0
 11 12  1  0
 12 13  1  0
 13 14  1  0
 14 15  1  0
 15 16  1  0
 16 17  1  0
 17 18  2  0
 17 19  1  0
 19 20  1  0
 20 21  2  0
 21 22  1  0
 22 23  2  0
 23 24  1  0
 24 25  2  0
 12 26  1  0
 26 27  1  0
  8 28  1  0
 28 29  2  0
 28 30  1  0
  7  2  1  0
 27  9  1  0
 30  4  1  0
 25 16  1  0
 25 20  1  0
  3 31  1  0
  6 32  1  0
  7 33  1  0
  9 34  1  0
 10 35  1  0
 10 36  1  0
 11 37  1  0
 11 38  1  0
 13 39  1  0
 13 40  1  0
 14 41  1  0
 14 42  1  0
 15 43  1  0
 15 44  1  0
 19 45  1  0
 21 46  1  0
 22 47  1  0
 23 48  1  0
 24 49  1  0
 26 50  1  0
 26 51  1  0
 27 52  1  0
 27 53  1  0
 30 54  1  0
M  END
$$$$
