
     RDKit          3D

 19 19  0  0  0  0  0  0  0  0999 V2000
   -3.5348    0.3387   -0.0111 C   0  0  0  0  0  0  0  0  0  0  0  0
   -2.5364   -0.5328    0.5097 O   0  0  0  0  0  0  0  0  0  0  0  0
   -1.1594   -0.3807    0.2891 C   0  0  0  0  0  0  0  0  0  0  0  0
   -0.6295    0.6694   -0.4835 C   0  0  0  0  0  0  0  0  0  0  0  0
    0.7514    0.7782   -0.6744 C   0  0  0  0  0  0  0  0  0  0  0  0
    1.6274   -0.1577   -0.0987 C   0  0  0  0  0  0  0  0  0  0  0  0
    1.0935   -1.2051    0.6723 C   0  0  0  0  0  0  0  0  0  0  0  0
   -0.2872   -1.3123    0.8621 C   0  0  0  0  0  0  0  0  0  0  0  0
    3.0879   -0.0388   -0.3033 C   0  0  0  0  0  0  0  0  0  0  0  0
    3.6071    1.0024   -1.0687 O   0  0  0  0  0  0  0  0  0  0  0  0
    3.8755   -0.8775    0.2125 O   0  0  0  0  0  0  0  0  0  0  0  0
   -3.3794    1.3694    0.3717 H   0  0  0  0  0  0  0  0  0  0  0  0
   -4.5330   -0.0158    0.3182 H   0  0  0  0  0  0  0  0  0  0  0  0
   -3.5043    0.3342   -1.1212 H   0  0  0  0  0  0  0  0  0  0  0  0
   -1.2753    1.4066   -0.9406 H   0  0  0  0  0  0  0  0  0  0  0  0
    1.1318    1.5961   -1.2734 H   0  0  0  0  0  0  0  0  0  0  0  0
    1.7417   -1.9424    1.1293 H   0  0  0  0  0  0  0  0  0  0  0  0
   -0.6824   -2.1249    1.4586 H   0  0  0  0  0  0  0  0  0  0  0  0
    4.6054    1.0930   -1.2150 H   0  0  0  0  0  0  0  0  0  0  0  0
  1  2  1  0
  2  3  1  0
  3  4  2  0
  4  5  1  0
  5  6  2  0
  6  7  1  0
  7  8  2  0
  6  9  1  0
  9 10  1  0
  9 11  2  0
  8  3  1  0
  1 12  1  0
  1 13  1  0
  1 14  1  0
  4 15  1  0
  5 16  1  0
  7 17  1  0
  8 18  1  0
 10 19  1  0
M  END
$$$$
