
     RDKit          3D

 60 62  0  0  0  0  0  0  0  0999 V2000
    7.0342   -1.1485    2.7679 O   0  0  0  0  0  0  0  0  0  0  0  0
    6.1327   -1.2708    1.7023 C   0  0  0  0  0  0  0  0  0  0  0  0
    6.4084   -0.1826    0.6520 C   0  0  1  0  0  0  0  0  0  0  0  0
    5.6505   -0.4313   -0.5304 O   0  0  0  0  0  0  0  0  0  0  0  0
    4.4054    0.2433   -0.5283 C   0  0  2  0  0  0  0  0  0  0  0  0
    3.6542   -0.2342   -1.6300 O   0  0  0  0  0  0  0  0  0  0  0  0
    2.0223   -0.4846   -1.1887 P   0  0  1  0  0  5  0  0  0  0  0  0
    1.3287    0.9820   -0.6957 O   0  0  0  0  0  0  0  0  0  0  0  0
    1.2831   -0.9917   -2.4064 O   0  0  0  0  0  0  0  0  0  0  0  0
    1.9569   -1.6584    0.0465 O   0  0  0  0  0  0  0  0  0  0  0  0
    0.3654   -1.6979    0.6504 P   0  0  1  0  0  5  0  0  0  0  0  0
    0.1857   -3.1203    1.5530 O   0  0  0  0  0  0  0  0  0  0  0  0
    0.1446   -0.5035    1.5542 O   0  0  0  0  0  0  0  0  0  0  0  0
   -0.7622   -1.6906   -0.6321 O   0  0  0  0  0  0  0  0  0  0  0  0
   -2.0627   -1.7202   -0.0931 C   0  0  0  0  0  0  0  0  0  0  0  0
   -3.0834   -1.5920   -1.2293 C   0  0  1  0  0  0  0  0  0  0  0  0
   -4.3846   -1.7724   -0.7046 O   0  0  0  0  0  0  0  0  0  0  0  0
   -5.1743   -0.6968   -1.1572 C   0  0  2  0  0  0  0  0  0  0  0  0
   -4.2548    0.4724   -1.4611 C   0  0  2  0  0  0  0  0  0  0  0  0
   -4.8103    1.3045   -2.4463 O   0  0  0  0  0  0  0  0  0  0  0  0
   -2.9965   -0.2238   -1.9269 C   0  0  2  0  0  0  0  0  0  0  0  0
   -3.0067   -0.4086   -3.3214 O   0  0  0  0  0  0  0  0  0  0  0  0
   -6.1967   -0.3302   -0.1546 N   0  0  0  0  0  0  0  0  0  0  0  0
   -7.4603   -0.0335   -0.5866 C   0  0  0  0  0  0  0  0  0  0  0  0
   -8.4528    0.3372    0.3164 C   0  0  0  0  0  0  0  0  0  0  0  0
   -8.1310    0.4115    1.6669 C   0  0  0  0  0  0  0  0  0  0  0  0
   -9.0095    0.7434    2.5069 O   0  0  0  0  0  0  0  0  0  0  0  0
   -6.8670    0.1295    2.0765 N   0  0  0  0  0  0  0  0  0  0  0  0
   -5.9018   -0.2310    1.1854 C   0  0  0  0  0  0  0  0  0  0  0  0
   -4.7368   -0.4663    1.6077 O   0  0  0  0  0  0  0  0  0  0  0  0
    4.6347    1.7749   -0.6667 C   0  0  2  0  0  0  0  0  0  0  0  0
    4.6993    2.1488   -2.0208 O   0  0  0  0  0  0  0  0  0  0  0  0
    5.9446    2.2142    0.0310 C   0  0  1  0  0  0  0  0  0  0  0  0
    5.8324    3.5322    0.5025 O   0  0  0  0  0  0  0  0  0  0  0  0
    6.2817    1.2767    1.1965 C   0  0  1  0  0  0  0  0  0  0  0  0
    5.2781    1.3800    2.1790 O   0  0  0  0  0  0  0  0  0  0  0  0
    6.8006   -1.8681    3.4101 H   0  0  0  0  0  0  0  0  0  0  0  0
    5.0881   -1.1966    2.0771 H   0  0  0  0  0  0  0  0  0  0  0  0
    6.2592   -2.2693    1.2271 H   0  0  0  0  0  0  0  0  0  0  0  0
    7.4734   -0.3065    0.3544 H   0  0  0  0  0  0  0  0  0  0  0  0
    3.8983    0.0460    0.4478 H   0  0  0  0  0  0  0  0  0  0  0  0
    1.7002    1.1560    0.2049 H   0  0  0  0  0  0  0  0  0  0  0  0
   -0.5256   -2.9222    2.2133 H   0  0  0  0  0  0  0  0  0  0  0  0
   -2.2400   -2.6896    0.4244 H   0  0  0  0  0  0  0  0  0  0  0  0
   -2.2260   -0.8834    0.6238 H   0  0  0  0  0  0  0  0  0  0  0  0
   -2.8862   -2.4090   -1.9596 H   0  0  0  0  0  0  0  0  0  0  0  0
   -5.6644   -1.0297   -2.1031 H   0  0  0  0  0  0  0  0  0  0  0  0
   -4.0422    1.0519   -0.5321 H   0  0  0  0  0  0  0  0  0  0  0  0
   -4.2454    2.1204   -2.4739 H   0  0  0  0  0  0  0  0  0  0  0  0
   -2.0927    0.3551   -1.6183 H   0  0  0  0  0  0  0  0  0  0  0  0
   -2.6265    0.4156   -3.7238 H   0  0  0  0  0  0  0  0  0  0  0  0
   -7.7116   -0.0809   -1.6397 H   0  0  0  0  0  0  0  0  0  0  0  0
   -9.4528    0.5653   -0.0315 H   0  0  0  0  0  0  0  0  0  0  0  0
   -6.6303    0.1953    3.0932 H   0  0  0  0  0  0  0  0  0  0  0  0
    3.7837    2.2989   -0.1708 H   0  0  0  0  0  0  0  0  0  0  0  0
    3.7661    2.2928   -2.3282 H   0  0  0  0  0  0  0  0  0  0  0  0
    6.7901    2.1555   -0.6962 H   0  0  0  0  0  0  0  0  0  0  0  0
    5.8565    4.1230   -0.2951 H   0  0  0  0  0  0  0  0  0  0  0  0
    7.2646    1.5928    1.6228 H   0  0  0  0  0  0  0  0  0  0  0  0
    5.7113    1.2256    3.0586 H   0  0  0  0  0  0  0  0  0  0  0  0
  1  2  1  0
  2  3  1  0
  3  4  1  0
  4  5  1  0
  5  6  1  0
  7  6  1  6
  7  8  1  0
  7  9  2  0
  7 10  1  0
 11 10  1  6
 11 12  1  0
 11 13  2  0
 11 14  1  0
 14 15  1  0
 15 16  1  0
 16 17  1  0
 17 18  1  0
 18 19  1  0
 19 20  1  0
 19 21  1  0
 21 22  1  0
 18 23  1  0
 23 24  1  0
 24 25  2  0
 25 26  1  0
 26 27  2  0
 26 28  1  0
 28 29  1  0
 29 30  2  0
  5 31  1  0
 31 32  1  0
 31 33  1  0
 33 34  1  0
 33 35  1  0
 35 36  1  0
 35  3  1  0
 21 16  1  0
 29 23  1  0
  1 37  1  0
  2 38  1  0
  2 39  1  0
  3 40  1  6
  5 41  1  1
  8 42  1  0
 12 43  1  0
 15 44  1  0
 15 45  1  0
 16 46  1  6
 18 47  1  6
 19 48  1  1
 20 49  1  0
 21 50  1  1
 22 51  1  0
 24 52  1  0
 25 53  1  0
 28 54  1  0
 31 55  1  1
 32 56  1  0
 33 57  1  6
 34 58  1  0
 35 59  1  1
 36 60  1  0
M  END
$$$$
