
     RDKit          3D

 42 43  0  0  0  0  0  0  0  0999 V2000
   -3.5925    3.6330   -0.0062 C   0  0  0  0  0  0  0  0  0  0  0  0
   -2.5827    2.6080    0.5030 C   0  0  0  0  0  0  0  0  0  0  0  0
   -2.8243    1.2877   -0.1161 N   0  0  0  0  0  0  0  0  0  0  0  0
   -3.9833    0.5893    0.4737 C   0  0  0  0  0  0  0  0  0  0  0  0
   -3.5220   -0.7766    0.9570 C   0  0  0  0  0  0  0  0  0  0  0  0
   -2.2115   -1.0091    0.2496 C   0  0  0  0  0  0  0  0  0  0  0  0
   -1.6614    0.3951    0.0327 C   0  0  1  0  0  0  0  0  0  0  0  0
   -0.7719    0.4754   -1.2192 C   0  0  0  0  0  0  0  0  0  0  0  0
    0.4602   -0.2913   -1.0371 N   0  0  0  0  0  0  0  0  0  0  0  0
    1.5810    0.2263   -0.3029 C   0  0  0  0  0  0  0  0  0  0  0  0
    1.4911    1.3405    0.2816 O   0  0  0  0  0  0  0  0  0  0  0  0
    2.8616   -0.5157   -0.2628 C   0  0  0  0  0  0  0  0  0  0  0  0
    4.0743    0.1633   -0.5116 C   0  0  0  0  0  0  0  0  0  0  0  0
    4.0507    1.5380   -0.7644 O   0  0  0  0  0  0  0  0  0  0  0  0
    5.2882   -0.5521   -0.5219 C   0  0  0  0  0  0  0  0  0  0  0  0
    6.8265    0.2438   -0.8291 Cl  0  0  0  0  0  0  0  0  0  0  0  0
    5.2883   -1.9304   -0.2981 C   0  0  0  0  0  0  0  0  0  0  0  0
    4.0945   -2.6058   -0.0431 C   0  0  0  0  0  0  0  0  0  0  0  0
    4.1341   -4.3368    0.2570 Cl  0  0  0  0  0  0  0  0  0  0  0  0
    2.8823   -1.9037   -0.0025 C   0  0  0  0  0  0  0  0  0  0  0  0
    1.7102   -2.5935    0.3170 O   0  0  0  0  0  0  0  0  0  0  0  0
    1.1415   -2.5199    1.6182 C   0  0  0  0  0  0  0  0  0  0  0  0
   -3.5452    3.6943   -1.1142 H   0  0  0  0  0  0  0  0  0  0  0  0
   -4.6228    3.3555    0.2994 H   0  0  0  0  0  0  0  0  0  0  0  0
   -3.3559    4.6316    0.4178 H   0  0  0  0  0  0  0  0  0  0  0  0
   -2.6257    2.5475    1.6142 H   0  0  0  0  0  0  0  0  0  0  0  0
   -1.5702    2.9792    0.2285 H   0  0  0  0  0  0  0  0  0  0  0  0
   -4.7529    0.4598   -0.3173 H   0  0  0  0  0  0  0  0  0  0  0  0
   -4.4529    1.1447    1.3170 H   0  0  0  0  0  0  0  0  0  0  0  0
   -3.3527   -0.7491    2.0564 H   0  0  0  0  0  0  0  0  0  0  0  0
   -4.2623   -1.5705    0.7164 H   0  0  0  0  0  0  0  0  0  0  0  0
   -1.5271   -1.6302    0.8632 H   0  0  0  0  0  0  0  0  0  0  0  0
   -2.4069   -1.5208   -0.7193 H   0  0  0  0  0  0  0  0  0  0  0  0
   -1.0633    0.6689    0.9345 H   0  0  0  0  0  0  0  0  0  0  0  0
   -1.3262    0.0833   -2.1001 H   0  0  0  0  0  0  0  0  0  0  0  0
   -0.5186    1.5338   -1.4443 H   0  0  0  0  0  0  0  0  0  0  0  0
    0.5752   -1.1725   -1.5866 H   0  0  0  0  0  0  0  0  0  0  0  0
    4.8849    2.0780   -0.9553 H   0  0  0  0  0  0  0  0  0  0  0  0
    6.2220   -2.4789   -0.3158 H   0  0  0  0  0  0  0  0  0  0  0  0
    1.8785   -2.8666    2.3731 H   0  0  0  0  0  0  0  0  0  0  0  0
    0.8384   -1.4773    1.8491 H   0  0  0  0  0  0  0  0  0  0  0  0
    0.2489   -3.1764    1.6634 H   0  0  0  0  0  0  0  0  0  0  0  0
  1  2  1  0
  2  3  1  0
  3  4  1  0
  4  5  1  0
  5  6  1  0
  6  7  1  0
  7  8  1  0
  8  9  1  0
  9 10  1  0
 10 11  2  0
 10 12  1  0
 12 13  2  0
 13 14  1  0
 13 15  1  0
 15 16  1  0
 15 17  2  0
 17 18  1  0
 18 19  1  0
 18 20  2  0
 20 21  1  0
 21 22  1  0
  7  3  1  0
 20 12  1  0
  1 23  1  0
  1 24  1  0
  1 25  1  0
  2 26  1  0
  2 27  1  0
  4 28  1  0
  4 29  1  0
  5 30  1  0
  5 31  1  0
  6 32  1  0
  6 33  1  0
  7 34  1  1
  8 35  1  0
  8 36  1  0
  9 37  1  0
 14 38  1  0
 17 39  1  0
 22 40  1  0
 22 41  1  0
 22 42  1  0
M  END
$$$$
