
     RDKit          3D

 50 54  0  0  0  0  0  0  0  0999 V2000
   -8.0158   -0.0171   -0.0514 C   0  0  0  0  0  0  0  0  0  0  0  0
   -6.5972   -0.3846   -0.1767 N   0  0  0  0  0  0  0  0  0  0  0  0
   -5.8260    0.7599   -0.7000 C   0  0  0  0  0  0  0  0  0  0  0  0
   -4.3610    0.3648   -0.9020 C   0  0  0  0  0  0  0  0  0  0  0  0
   -3.8242   -0.2141    0.3342 N   0  0  0  0  0  0  0  0  0  0  0  0
   -4.6142   -1.2560    0.9994 C   0  0  0  0  0  0  0  0  0  0  0  0
   -6.0676   -0.7989    1.1372 C   0  0  0  0  0  0  0  0  0  0  0  0
   -2.4365   -0.0382    0.6763 C   0  0  0  0  0  0  0  0  0  0  0  0
   -2.0632    0.2132    2.0239 C   0  0  0  0  0  0  0  0  0  0  0  0
   -0.7123    0.3921    2.3759 C   0  0  0  0  0  0  0  0  0  0  0  0
    0.2367    0.3152    1.3618 C   0  0  0  0  0  0  0  0  0  0  0  0
    1.5697    0.4571    1.4699 N   0  0  0  0  0  0  0  0  0  0  0  0
    1.9950    0.2846    0.1891 C   0  0  0  0  0  0  0  0  0  0  0  0
    0.9877    0.0605   -0.6922 N   0  0  0  0  0  0  0  0  0  0  0  0
   -0.1134    0.0789    0.0678 C   0  0  0  0  0  0  0  0  0  0  0  0
   -1.4370   -0.1024   -0.3236 C   0  0  0  0  0  0  0  0  0  0  0  0
    3.4157    0.3951   -0.2122 C   0  0  0  0  0  0  0  0  0  0  0  0
    4.4222   -0.3859    0.4055 C   0  0  0  0  0  0  0  0  0  0  0  0
    4.0531   -1.4432    1.3080 N   0  0  0  0  0  0  0  0  0  0  0  0
    5.7786   -0.1910    0.0318 C   0  0  0  0  0  0  0  0  0  0  0  0
    6.0674    0.7016   -1.0336 C   0  0  0  0  0  0  0  0  0  0  0  0
    5.0644    1.3926   -1.6417 N   0  0  0  0  0  0  0  0  0  0  0  0
    3.7701    1.2780   -1.2475 C   0  0  0  0  0  0  0  0  0  0  0  0
    2.8891    1.9793   -1.8171 O   0  0  0  0  0  0  0  0  0  0  0  0
    7.3929    0.8852   -1.4590 C   0  0  0  0  0  0  0  0  0  0  0  0
    8.4371    0.2174   -0.8237 C   0  0  0  0  0  0  0  0  0  0  0  0
    8.1734   -0.6229    0.2548 C   0  0  0  0  0  0  0  0  0  0  0  0
    6.8617   -0.8241    0.6943 C   0  0  0  0  0  0  0  0  0  0  0  0
    6.6852   -1.5767    1.8086 F   0  0  0  0  0  0  0  0  0  0  0  0
   -8.1532    0.8336    0.6533 H   0  0  0  0  0  0  0  0  0  0  0  0
   -8.6053   -0.8865    0.3114 H   0  0  0  0  0  0  0  0  0  0  0  0
   -8.4266    0.2655   -1.0446 H   0  0  0  0  0  0  0  0  0  0  0  0
   -6.2372    1.0784   -1.6835 H   0  0  0  0  0  0  0  0  0  0  0  0
   -5.8812    1.6278   -0.0030 H   0  0  0  0  0  0  0  0  0  0  0  0
   -3.7838    1.2707   -1.1903 H   0  0  0  0  0  0  0  0  0  0  0  0
   -4.2847   -0.3818   -1.7222 H   0  0  0  0  0  0  0  0  0  0  0  0
   -4.2104   -1.4873    2.0080 H   0  0  0  0  0  0  0  0  0  0  0  0
   -4.5738   -2.1862    0.3922 H   0  0  0  0  0  0  0  0  0  0  0  0
   -6.6620   -1.6505    1.5362 H   0  0  0  0  0  0  0  0  0  0  0  0
   -6.1234    0.0382    1.8708 H   0  0  0  0  0  0  0  0  0  0  0  0
   -2.8205    0.2866    2.7937 H   0  0  0  0  0  0  0  0  0  0  0  0
   -0.4229    0.5873    3.4004 H   0  0  0  0  0  0  0  0  0  0  0  0
    1.0533   -0.0960   -1.7229 H   0  0  0  0  0  0  0  0  0  0  0  0
   -1.6819   -0.2974   -1.3596 H   0  0  0  0  0  0  0  0  0  0  0  0
    4.5703   -2.3488    1.3066 H   0  0  0  0  0  0  0  0  0  0  0  0
    3.1522   -1.4400    1.8310 H   0  0  0  0  0  0  0  0  0  0  0  0
    5.2902    2.0526   -2.4219 H   0  0  0  0  0  0  0  0  0  0  0  0
    7.6186    1.5546   -2.2801 H   0  0  0  0  0  0  0  0  0  0  0  0
    9.4566    0.3688   -1.1545 H   0  0  0  0  0  0  0  0  0  0  0  0
    8.9942   -1.1100    0.7658 H   0  0  0  0  0  0  0  0  0  0  0  0
  1  2  1  0
  2  3  1  0
  3  4  1  0
  4  5  1  0
  5  6  1  0
  6  7  1  0
  5  8  1  0
  8  9  2  0
  9 10  1  0
 10 11  2  0
 11 12  1  0
 12 13  2  0
 13 14  1  0
 14 15  1  0
 15 16  2  0
 13 17  1  0
 17 18  2  0
 18 19  1  0
 18 20  1  0
 20 21  2  0
 21 22  1  0
 22 23  1  0
 23 24  2  0
 21 25  1  0
 25 26  2  0
 26 27  1  0
 27 28  2  0
 28 29  1  0
  7  2  1  0
 16  8  1  0
 23 17  1  0
 15 11  1  0
 28 20  1  0
  1 30  1  0
  1 31  1  0
  1 32  1  0
  3 33  1  0
  3 34  1  0
  4 35  1  0
  4 36  1  0
  6 37  1  0
  6 38  1  0
  7 39  1  0
  7 40  1  0
  9 41  1  0
 10 42  1  0
 14 43  1  0
 16 44  1  0
 19 45  1  0
 19 46  1  0
 22 47  1  0
 25 48  1  0
 26 49  1  0
 27 50  1  0
M  END
$$$$
