
     RDKit          3D

 18 18  0  0  0  0  0  0  0  0999 V2000
   -0.8024    2.8197    0.1930 O   0  0  0  0  0  0  0  0  0  0  0  0
   -0.3575    1.5011    0.1090 C   0  0  0  0  0  0  0  0  0  0  0  0
    1.0029    1.2061    0.2594 C   0  0  0  0  0  0  0  0  0  0  0  0
    1.4630   -0.1156    0.1597 C   0  0  0  0  0  0  0  0  0  0  0  0
    0.5337   -1.1441   -0.0734 C   0  0  0  0  0  0  0  0  0  0  0  0
   -0.8376   -0.8651   -0.2047 C   0  0  0  0  0  0  0  0  0  0  0  0
   -1.2794    0.4757   -0.1391 C   0  0  0  0  0  0  0  0  0  0  0  0
   -2.6157    0.8234   -0.3484 O   0  0  0  0  0  0  0  0  0  0  0  0
   -1.7645   -1.9492   -0.3735 N   0  0  0  0  0  4  0  0  0  0  0  0
   -2.9226   -1.9884    0.3680 O   0  0  0  0  0  1  0  0  0  0  0  0
   -1.4324   -2.9608   -1.0255 O   0  0  0  0  0  0  0  0  0  0  0  0
    2.8648   -0.4108    0.3052 N   0  0  0  0  0  4  0  0  0  0  0  0
    3.7712    0.5976    0.5410 O   0  0  0  0  0  1  0  0  0  0  0  0
    3.2817   -1.5845    0.2169 O   0  0  0  0  0  0  0  0  0  0  0  0
   -0.1628    3.5862    0.3672 H   0  0  0  0  0  0  0  0  0  0  0  0
    1.6992    2.0136    0.4455 H   0  0  0  0  0  0  0  0  0  0  0  0
    0.8713   -2.1714   -0.1276 H   0  0  0  0  0  0  0  0  0  0  0  0
   -3.3129    0.1666   -0.6726 H   0  0  0  0  0  0  0  0  0  0  0  0
  1  2  1  0
  2  3  2  0
  3  4  1  0
  4  5  2  0
  5  6  1  0
  6  7  2  0
  7  8  1  0
  6  9  1  0
  9 10  1  0
  9 11  2  0
  4 12  1  0
 12 13  1  0
 12 14  2  0
  7  2  1  0
  1 15  1  0
  3 16  1  0
  5 17  1  0
  8 18  1  0
M  CHG  4   9   1  10  -1  12   1  13  -1
M  END
$$$$
