
     RDKit          3D

 41 44  0  0  0  0  0  0  0  0999 V2000
   -6.2427   -1.1966    1.2406 N   0  0  0  0  0  0  0  0  0  0  0  0
   -5.0776   -0.8005    0.5539 C   0  0  0  0  0  0  0  0  0  0  0  0
   -3.8998   -1.0220    1.1645 N   0  0  0  0  0  0  0  0  0  0  0  0
   -2.7780   -0.6623    0.5489 C   0  0  0  0  0  0  0  0  0  0  0  0
   -2.7627   -0.0635   -0.7057 C   0  0  0  0  0  0  0  0  0  0  0  0
   -1.5241    0.2904   -1.2946 N   0  0  0  0  0  0  0  0  0  0  0  0
   -0.2310    0.0313   -0.6937 C   0  0  2  0  0  0  0  0  0  0  0  0
   -0.2862   -0.9985    0.3781 C   0  0  2  0  0  0  0  0  0  0  0  0
   -1.5214   -0.8820    1.1648 N   0  0  0  0  0  0  0  0  0  0  0  0
    0.7505   -1.0811    1.2376 O   0  0  0  0  0  0  0  0  0  0  0  0
    1.7813   -0.2021    1.1464 C   0  0  1  0  0  0  0  0  0  0  0  0
    2.9405   -0.7067    0.2797 C   0  0  0  0  0  0  0  0  0  0  0  0
    3.4458   -1.9031    0.8424 O   0  0  0  0  0  0  0  0  0  0  0  0
    4.7150   -2.5149   -0.0495 P   0  0  0  0  0  5  0  0  0  0  0  0
    6.0954   -2.5203    0.9504 O   0  0  0  0  0  0  0  0  0  0  0  0
    4.3332   -4.0993   -0.5126 O   0  0  0  0  0  0  0  0  0  0  0  0
    5.0155   -1.6812   -1.2753 O   0  0  0  0  0  0  0  0  0  0  0  0
    1.3478    1.1458    0.7409 C   0  0  0  0  0  0  0  0  0  0  0  0
    0.3780    1.2708   -0.1460 C   0  0  0  0  0  0  0  0  0  0  0  0
    0.0319    2.9898   -0.4756 S   0  0  0  0  0  0  0  0  0  0  0  0
    1.5338    3.9263   -0.2803 Mo  0  0  0  0  0  7  0  0  0  0  0  0
    0.5898    5.4834   -0.0608 S   0  0  0  0  0  0  0  0  0  0  0  0
    2.9568    4.5867   -0.0603 O   0  0  0  0  0  0  0  0  0  0  0  0
    2.0470    3.3573   -1.8950 O   0  0  0  0  0  0  0  0  0  0  0  0
    1.9107    2.7651    1.2449 S   0  0  0  0  0  0  0  0  0  0  0  0
   -3.9756    0.1535   -1.3113 C   0  0  0  0  0  0  0  0  0  0  0  0
   -4.0345    0.6832   -2.4299 O   0  0  0  0  0  0  0  0  0  0  0  0
   -5.0872   -0.2232   -0.6587 N   0  0  0  0  0  0  0  0  0  0  0  0
   -6.6539   -0.5763    1.9523 H   0  0  0  0  0  0  0  0  0  0  0  0
   -6.6805   -2.1043    1.0300 H   0  0  0  0  0  0  0  0  0  0  0  0
   -1.5514    0.7681   -2.2206 H   0  0  0  0  0  0  0  0  0  0  0  0
    0.4403   -0.3264   -1.5143 H   0  0  0  0  0  0  0  0  0  0  0  0
   -0.3985   -1.9938   -0.1426 H   0  0  0  0  0  0  0  0  0  0  0  0
   -1.4848   -0.9617    2.2008 H   0  0  0  0  0  0  0  0  0  0  0  0
    2.2441   -0.1726    2.1877 H   0  0  0  0  0  0  0  0  0  0  0  0
    2.5815   -1.0040   -0.7253 H   0  0  0  0  0  0  0  0  0  0  0  0
    3.7202    0.0703    0.2056 H   0  0  0  0  0  0  0  0  0  0  0  0
    6.7888   -1.9262    0.5814 H   0  0  0  0  0  0  0  0  0  0  0  0
    3.7535   -4.0050   -1.3343 H   0  0  0  0  0  0  0  0  0  0  0  0
    0.8270    6.1780    1.0979 H   0  0  0  0  0  0  0  0  0  0  0  0
   -6.0387   -0.0722   -1.0932 H   0  0  0  0  0  0  0  0  0  0  0  0
  1  2  1  0
  2  3  2  0
  3  4  1  0
  4  5  2  0
  5  6  1  0
  6  7  1  0
  7  8  1  0
  8  9  1  0
  8 10  1  0
 10 11  1  0
 11 12  1  0
 12 13  1  0
 13 14  1  0
 14 15  1  0
 14 16  1  0
 14 17  2  0
 11 18  1  0
 18 19  2  0
 19 20  1  0
 20 21  1  0
 21 22  1  0
 21 23  2  0
 21 24  2  0
 21 25  1  0
  5 26  1  0
 26 27  2  0
 26 28  1  0
 28  2  1  0
  9  4  1  0
 25 18  1  0
 19  7  1  0
  1 29  1  0
  1 30  1  0
  6 31  1  0
  7 32  1  6
  8 33  1  6
  9 34  1  0
 11 35  1  1
 12 36  1  0
 12 37  1  0
 15 38  1  0
 16 39  1  0
 22 40  1  0
 28 41  1  0
M  END
$$$$
