
     RDKit          3D

 33 33  0  0  0  0  0  0  0  0999 V2000
   -0.6024   -0.6130   -0.4309 C   0  0  2  0  0  0  0  0  0  0  0  0
    0.7078   -1.2278    0.1133 C   0  0  0  0  0  0  0  0  0  0  0  0
    1.8316   -0.2228    0.0765 C   0  0  0  0  0  0  0  0  0  0  0  0
    2.1102    0.5767    1.1984 C   0  0  0  0  0  0  0  0  0  0  0  0
    3.1287    1.5333    1.1462 C   0  0  0  0  0  0  0  0  0  0  0  0
    3.8706    1.7037   -0.0258 C   0  0  0  0  0  0  0  0  0  0  0  0
    3.5930    0.9199   -1.1490 C   0  0  0  0  0  0  0  0  0  0  0  0
    2.5750   -0.0375   -1.1014 C   0  0  0  0  0  0  0  0  0  0  0  0
   -1.1021    0.4096    0.4980 N   0  0  0  0  0  0  0  0  0  0  0  0
   -1.7363    1.6196    0.0602 C   0  0  0  0  0  0  0  0  0  0  0  0
   -2.2330    2.6036    1.0681 C   0  0  0  0  0  0  0  0  0  0  0  0
   -1.8612    1.8706   -1.1691 O   0  0  0  0  0  0  0  0  0  0  0  0
   -1.7093   -1.6676   -0.7634 C   0  0  0  0  0  0  0  0  0  0  0  0
   -2.8021   -0.9819   -1.3333 O   0  0  0  0  0  0  0  0  0  0  0  0
   -1.2001   -2.5967   -1.6944 O   0  0  0  0  0  0  0  0  0  0  0  0
   -2.2128   -2.4557    0.4730 C   0  0  0  0  0  0  0  0  0  0  0  0
   -3.2183   -3.3262    0.0888 F   0  0  0  0  0  0  0  0  0  0  0  0
   -2.7280   -1.6020    1.4312 F   0  0  0  0  0  0  0  0  0  0  0  0
   -1.1973   -3.2086    1.0327 F   0  0  0  0  0  0  0  0  0  0  0  0
   -0.3393   -0.1191   -1.3942 H   0  0  0  0  0  0  0  0  0  0  0  0
    0.9983   -2.1128   -0.4930 H   0  0  0  0  0  0  0  0  0  0  0  0
    0.5683   -1.5795    1.1574 H   0  0  0  0  0  0  0  0  0  0  0  0
    1.5386    0.4612    2.1108 H   0  0  0  0  0  0  0  0  0  0  0  0
    3.3408    2.1448    2.0138 H   0  0  0  0  0  0  0  0  0  0  0  0
    4.6578    2.4455   -0.0648 H   0  0  0  0  0  0  0  0  0  0  0  0
    4.1643    1.0567   -2.0580 H   0  0  0  0  0  0  0  0  0  0  0  0
    2.3631   -0.6317   -1.9818 H   0  0  0  0  0  0  0  0  0  0  0  0
   -1.0128    0.2467    1.5269 H   0  0  0  0  0  0  0  0  0  0  0  0
   -2.9084    2.0928    1.7857 H   0  0  0  0  0  0  0  0  0  0  0  0
   -2.7921    3.4248    0.5713 H   0  0  0  0  0  0  0  0  0  0  0  0
   -1.3715    3.0340    1.6197 H   0  0  0  0  0  0  0  0  0  0  0  0
   -3.3899   -1.6524   -1.7705 H   0  0  0  0  0  0  0  0  0  0  0  0
   -1.0311   -2.1083   -2.5426 H   0  0  0  0  0  0  0  0  0  0  0  0
  1  2  1  0
  2  3  1  0
  3  4  2  0
  4  5  1  0
  5  6  2  0
  6  7  1  0
  7  8  2  0
  1  9  1  0
  9 10  1  0
 10 11  1  0
 10 12  2  0
  1 13  1  0
 13 14  1  0
 13 15  1  0
 13 16  1  0
 16 17  1  0
 16 18  1  0
 16 19  1  0
  8  3  1  0
  1 20  1  6
  2 21  1  0
  2 22  1  0
  4 23  1  0
  5 24  1  0
  6 25  1  0
  7 26  1  0
  8 27  1  0
  9 28  1  0
 11 29  1  0
 11 30  1  0
 11 31  1  0
 14 32  1  0
 15 33  1  0
M  END
$$$$
