
     RDKit          3D

 42 44  0  0  0  0  0  0  0  0999 V2000
   -6.1283   -1.8179   -0.5257 N   0  0  0  0  0  0  0  0  0  0  0  0
   -5.2796   -0.7519   -0.0997 C   0  0  0  0  0  0  0  0  0  0  0  0
   -5.7244    0.1736    0.8026 N   0  0  0  0  0  0  0  0  0  0  0  0
   -4.9201    1.2002    1.2294 C   0  0  0  0  0  0  0  0  0  0  0  0
   -3.6427    1.3232    0.7574 N   0  0  0  0  0  0  0  0  0  0  0  0
   -3.2077    0.4069   -0.1412 C   0  0  0  0  0  0  0  0  0  0  0  0
   -3.9800   -0.6153   -0.5743 C   0  0  0  0  0  0  0  0  0  0  0  0
   -3.2960   -1.3932   -1.4346 N   0  0  0  0  0  0  0  0  0  0  0  0
   -2.0809   -0.7807   -1.4917 C   0  0  0  0  0  0  0  0  0  0  0  0
   -2.0017    0.3329   -0.7165 N   0  0  0  0  0  0  0  0  0  0  0  0
   -0.8309    1.1746   -0.4655 C   0  0  2  0  0  0  0  0  0  0  0  0
   -0.0760    1.3201   -1.6488 O   0  0  0  0  0  0  0  0  0  0  0  0
    1.2892    1.1588   -1.3180 C   0  0  2  0  0  0  0  0  0  0  0  0
    1.8439   -0.0727   -2.0436 C   0  0  0  0  0  0  0  0  0  0  0  0
    1.6966    0.0805   -3.4230 O   0  0  0  0  0  0  0  0  0  0  0  0
    3.6552   -3.8477   -2.4878 W   0  0  0  0  0  5  0  0  0  0  0  0
    1.9323   -2.5916    1.3469 O   0  0  0  0  0  0  0  0  0  0  0  0
    1.8360   -1.2565    3.1215 O   0  0  0  0  0  0  0  0  0  0  0  0
    5.1240    1.2936   -0.5000 O   0  0  0  0  0  0  0  0  0  0  0  0
    6.8372    0.2882   -1.5146 W   0  0  0  0  0  5  0  0  0  0  0  0
    4.8309   -1.0095    0.3635 O   0  0  0  0  0  0  0  0  0  0  0  0
    4.6639    0.4723    2.0600 O   0  0  0  0  0  0  0  0  0  0  0  0
    5.1135    1.2824   -0.5031 O   0  0  0  0  0  0  0  0  0  0  0  0
    1.4261    1.0247    0.2024 C   0  0  1  0  0  0  0  0  0  0  0  0
    1.7068    2.2779    0.7746 O   0  0  0  0  0  0  0  0  0  0  0  0
    0.0544    0.5593    0.6092 C   0  0  1  0  0  0  0  0  0  0  0  0
   -0.2904    1.0141    1.8923 O   0  0  0  0  0  0  0  0  0  0  0  0
   -7.0994   -1.8969   -0.1505 H   0  0  0  0  0  0  0  0  0  0  0  0
   -5.7945   -2.5290   -1.2136 H   0  0  0  0  0  0  0  0  0  0  0  0
   -5.2986    1.9162    1.9457 H   0  0  0  0  0  0  0  0  0  0  0  0
   -1.2585   -1.1565   -2.0862 H   0  0  0  0  0  0  0  0  0  0  0  0
   -1.1639    2.1884   -0.1467 H   0  0  0  0  0  0  0  0  0  0  0  0
    1.8518    2.0503   -1.6744 H   0  0  0  0  0  0  0  0  0  0  0  0
    1.3026   -0.9875   -1.7217 H   0  0  0  0  0  0  0  0  0  0  0  0
    2.9226   -0.1965   -1.8121 H   0  0  0  0  0  0  0  0  0  0  0  0
    1.8497   -2.5309    0.3620 H   0  0  0  0  0  0  0  0  0  0  0  0
    4.4122   -1.7222   -0.1818 H   0  0  0  0  0  0  0  0  0  0  0  0
    3.9398    0.9351    2.5520 H   0  0  0  0  0  0  0  0  0  0  0  0
    2.1977    0.2804    0.5098 H   0  0  0  0  0  0  0  0  0  0  0  0
    2.6763    2.4403    0.6381 H   0  0  0  0  0  0  0  0  0  0  0  0
    0.0193   -0.5552    0.5645 H   0  0  0  0  0  0  0  0  0  0  0  0
   -1.1088    0.5178    2.1548 H   0  0  0  0  0  0  0  0  0  0  0  0
  1  2  1  0
  2  3  2  0
  3  4  1  0
  4  5  2  0
  5  6  1  0
  6  7  2  0
  7  8  1  0
  8  9  2  0
  9 10  1  0
 10 11  1  0
 11 12  1  0
 12 13  1  0
 13 14  1  0
 14 15  1  0
 15 16  1  0
 16 17  1  0
 16 18  2  0
 16 19  1  0
 19 20  1  0
 20 21  1  0
 20 22  1  0
 20 23  2  0
 13 24  1  0
 24 25  1  0
 24 26  1  0
 26 27  1  0
  7  2  1  0
 26 11  1  0
 10  6  1  0
  1 28  1  0
  1 29  1  0
  4 30  1  0
  9 31  1  0
 11 32  1  1
 13 33  1  6
 14 34  1  0
 14 35  1  0
 17 36  1  0
 21 37  1  0
 22 38  1  0
 24 39  1  6
 25 40  1  0
 26 41  1  1
 27 42  1  0
M  END
$$$$
