
     RDKit          3D

 34 33  0  0  0  0  0  0  0  0999 V2000
   -5.5382   -0.5943    0.0577 C   0  0  0  0  0  0  0  0  0  0  0  0
   -4.0337   -0.4077    0.2320 C   0  0  0  0  0  0  0  0  0  0  0  0
   -3.5069    0.7138   -0.6751 C   0  0  0  0  0  0  0  0  0  0  0  0
   -2.0198    1.0181   -0.4346 C   0  0  0  0  0  0  0  0  0  0  0  0
   -1.0995   -0.1208   -0.9088 C   0  0  0  0  0  0  0  0  0  0  0  0
    0.3831    0.2849   -0.9308 C   0  0  0  0  0  0  0  0  0  0  0  0
    0.9731    0.4397    0.4816 C   0  0  0  0  0  0  0  0  0  0  0  0
    2.4578    0.8377    0.4600 C   0  0  0  0  0  0  0  0  0  0  0  0
    3.3763   -0.3173    0.0354 C   0  0  0  0  0  0  0  0  0  0  0  0
    4.8232    0.0796    0.1693 C   0  0  0  0  0  0  0  0  0  0  0  0
    5.7216   -0.5678    1.1816 C   0  0  0  0  0  0  0  0  0  0  0  0
    5.2808    0.9407   -0.5667 O   0  0  0  0  0  0  0  0  0  0  0  0
   -5.7746   -0.8575   -0.9954 H   0  0  0  0  0  0  0  0  0  0  0  0
   -5.8899   -1.4158    0.7168 H   0  0  0  0  0  0  0  0  0  0  0  0
   -6.0776    0.3369    0.3334 H   0  0  0  0  0  0  0  0  0  0  0  0
   -3.8237   -0.1626    1.2959 H   0  0  0  0  0  0  0  0  0  0  0  0
   -3.5308   -1.3662   -0.0163 H   0  0  0  0  0  0  0  0  0  0  0  0
   -3.6691    0.4455   -1.7423 H   0  0  0  0  0  0  0  0  0  0  0  0
   -4.0841    1.6424   -0.4707 H   0  0  0  0  0  0  0  0  0  0  0  0
   -1.7668    1.9457   -0.9932 H   0  0  0  0  0  0  0  0  0  0  0  0
   -1.8587    1.2188    0.6460 H   0  0  0  0  0  0  0  0  0  0  0  0
   -1.2260   -1.0128   -0.2585 H   0  0  0  0  0  0  0  0  0  0  0  0
   -1.3886   -0.4118   -1.9425 H   0  0  0  0  0  0  0  0  0  0  0  0
    0.5063    1.2317   -1.5009 H   0  0  0  0  0  0  0  0  0  0  0  0
    0.9373   -0.5090   -1.4738 H   0  0  0  0  0  0  0  0  0  0  0  0
    0.8438   -0.5044    1.0550 H   0  0  0  0  0  0  0  0  0  0  0  0
    0.4222    1.2390    1.0204 H   0  0  0  0  0  0  0  0  0  0  0  0
    2.6039    1.7092   -0.2157 H   0  0  0  0  0  0  0  0  0  0  0  0
    2.7421    1.1572    1.4871 H   0  0  0  0  0  0  0  0  0  0  0  0
    3.1876   -0.5922   -1.0233 H   0  0  0  0  0  0  0  0  0  0  0  0
    3.1621   -1.2097    0.6620 H   0  0  0  0  0  0  0  0  0  0  0  0
    5.1749   -1.3190    1.7888 H   0  0  0  0  0  0  0  0  0  0  0  0
    6.5623   -1.0734    0.6621 H   0  0  0  0  0  0  0  0  0  0  0  0
    6.1299    0.2073    1.8634 H   0  0  0  0  0  0  0  0  0  0  0  0
  1  2  1  0
  2  3  1  0
  3  4  1  0
  4  5  1  0
  5  6  1  0
  6  7  1  0
  7  8  1  0
  8  9  1  0
  9 10  1  0
 10 11  1  0
 10 12  2  0
  1 13  1  0
  1 14  1  0
  1 15  1  0
  2 16  1  0
  2 17  1  0
  3 18  1  0
  3 19  1  0
  4 20  1  0
  4 21  1  0
  5 22  1  0
  5 23  1  0
  6 24  1  0
  6 25  1  0
  7 26  1  0
  7 27  1  0
  8 28  1  0
  8 29  1  0
  9 30  1  0
  9 31  1  0
 11 32  1  0
 11 33  1  0
 11 34  1  0
M  END
$$$$
