
     RDKit          3D

 72 75  0  0  0  0  0  0  0  0999 V2000
    7.3644   -3.0766    0.0350 O   0  0  0  0  0  0  0  0  0  0  0  0
    5.9993   -2.9221    0.2547 C   0  0  0  0  0  0  0  0  0  0  0  0
    5.1717   -3.3490   -0.5944 O   0  0  0  0  0  0  0  0  0  0  0  0
    5.5184   -2.2069    1.4760 C   0  0  0  0  0  0  0  0  0  0  0  0
    5.4614   -0.7263    1.2184 C   0  0  0  0  0  0  0  0  0  0  0  0
    4.3199   -0.1547    0.6323 C   0  0  0  0  0  0  0  0  0  0  0  0
    4.2721    1.2276    0.3621 C   0  0  0  0  0  0  0  0  0  0  0  0
    3.1514    1.8420   -0.2163 O   0  0  0  0  0  0  0  0  0  0  0  0
    1.9668    1.1488   -0.5993 C   0  0  0  0  0  0  0  0  0  0  0  0
    0.9585    2.1420   -1.1738 C   0  0  0  0  0  0  0  0  0  0  0  0
   -0.2998    1.4781   -1.7781 C   0  0  0  0  0  0  0  0  0  0  0  0
   -1.1493    0.7123   -0.8286 N   0  0  0  0  0  0  0  0  0  0  0  0
   -0.6935   -0.6780   -0.5923 C   0  0  0  0  0  0  0  0  0  0  0  0
   -1.7907   -1.6740   -1.0264 C   0  0  0  0  0  0  0  0  0  0  0  0
   -3.0069   -1.6080   -0.1222 C   0  0  0  0  0  0  0  0  0  0  0  0
   -2.9242   -1.9703    1.2367 C   0  0  0  0  0  0  0  0  0  0  0  0
   -4.0488   -1.8823    2.0621 C   0  0  0  0  0  0  0  0  0  0  0  0
   -5.2659   -1.4356    1.5431 C   0  0  0  0  0  0  0  0  0  0  0  0
   -5.3618   -1.0787    0.1964 C   0  0  0  0  0  0  0  0  0  0  0  0
   -4.2409   -1.1666   -0.6340 C   0  0  0  0  0  0  0  0  0  0  0  0
   -1.2961   -3.1078   -1.1474 C   0  0  0  0  0  0  0  0  0  0  0  0
   -1.8522   -3.9411   -2.1363 C   0  0  0  0  0  0  0  0  0  0  0  0
   -1.4470   -5.2737   -2.2545 C   0  0  0  0  0  0  0  0  0  0  0  0
   -0.4916   -5.7955   -1.3805 C   0  0  0  0  0  0  0  0  0  0  0  0
    0.0560   -4.9872   -0.3826 C   0  0  0  0  0  0  0  0  0  0  0  0
   -0.3458   -3.6539   -0.2588 C   0  0  0  0  0  0  0  0  0  0  0  0
   -1.5078    1.4264    0.4180 C   0  0  0  0  0  0  0  0  0  0  0  0
   -2.3122    2.6795    0.1330 C   0  0  0  0  0  0  0  0  0  0  0  0
   -2.0302    3.9224    0.7548 C   0  0  0  0  0  0  0  0  0  0  0  0
   -0.7053    4.0616    1.9212 Cl  0  0  0  0  0  0  0  0  0  0  0  0
   -2.8265    5.0583    0.4584 C   0  0  0  0  0  0  0  0  0  0  0  0
   -3.9085    4.9229   -0.4309 C   0  0  0  0  0  0  0  0  0  0  0  0
   -4.2003    3.6925   -1.0132 C   0  0  0  0  0  0  0  0  0  0  0  0
   -3.4153    2.5795   -0.7300 C   0  0  0  0  0  0  0  0  0  0  0  0
   -2.5348    6.4018    1.0968 C   0  0  0  0  0  0  0  0  0  0  0  0
   -3.3997    7.3857    0.6484 F   0  0  0  0  0  0  0  0  0  0  0  0
   -1.2438    6.7929    0.7906 F   0  0  0  0  0  0  0  0  0  0  0  0
   -2.6680    6.3023    2.4699 F   0  0  0  0  0  0  0  0  0  0  0  0
    5.3785    2.0246    0.6773 C   0  0  0  0  0  0  0  0  0  0  0  0
    6.5211    1.4576    1.2470 C   0  0  0  0  0  0  0  0  0  0  0  0
    6.5666    0.0872    1.5126 C   0  0  0  0  0  0  0  0  0  0  0  0
    7.7070   -3.5438   -0.7959 H   0  0  0  0  0  0  0  0  0  0  0  0
    4.5128   -2.5855    1.7628 H   0  0  0  0  0  0  0  0  0  0  0  0
    6.2027   -2.4263    2.3241 H   0  0  0  0  0  0  0  0  0  0  0  0
    3.4796   -0.7920    0.3900 H   0  0  0  0  0  0  0  0  0  0  0  0
    2.2217    0.3898   -1.3704 H   0  0  0  0  0  0  0  0  0  0  0  0
    1.5363    0.6536    0.2954 H   0  0  0  0  0  0  0  0  0  0  0  0
    1.4613    2.7085   -1.9877 H   0  0  0  0  0  0  0  0  0  0  0  0
    0.6798    2.8882   -0.4029 H   0  0  0  0  0  0  0  0  0  0  0  0
   -0.9188    2.2817   -2.2307 H   0  0  0  0  0  0  0  0  0  0  0  0
   -0.0017    0.8324   -2.6336 H   0  0  0  0  0  0  0  0  0  0  0  0
    0.2187   -0.9105   -1.1836 H   0  0  0  0  0  0  0  0  0  0  0  0
   -0.4190   -0.8335    0.4745 H   0  0  0  0  0  0  0  0  0  0  0  0
   -2.0867   -1.3511   -2.0511 H   0  0  0  0  0  0  0  0  0  0  0  0
   -1.9899   -2.3106    1.6619 H   0  0  0  0  0  0  0  0  0  0  0  0
   -3.9756   -2.1581    3.1061 H   0  0  0  0  0  0  0  0  0  0  0  0
   -6.1349   -1.3662    2.1846 H   0  0  0  0  0  0  0  0  0  0  0  0
   -6.3055   -0.7325   -0.2047 H   0  0  0  0  0  0  0  0  0  0  0  0
   -4.3362   -0.8826   -1.6745 H   0  0  0  0  0  0  0  0  0  0  0  0
   -2.6032   -3.5585   -2.8166 H   0  0  0  0  0  0  0  0  0  0  0  0
   -1.8776   -5.9035   -3.0223 H   0  0  0  0  0  0  0  0  0  0  0  0
   -0.1799   -6.8278   -1.4727 H   0  0  0  0  0  0  0  0  0  0  0  0
    0.7904   -5.3955    0.2998 H   0  0  0  0  0  0  0  0  0  0  0  0
    0.0887   -3.0591    0.5320 H   0  0  0  0  0  0  0  0  0  0  0  0
   -0.5988    1.6170    1.0199 H   0  0  0  0  0  0  0  0  0  0  0  0
   -2.1528    0.7785    1.0481 H   0  0  0  0  0  0  0  0  0  0  0  0
   -4.5412    5.7660   -0.6755 H   0  0  0  0  0  0  0  0  0  0  0  0
   -5.0416    3.6007   -1.6881 H   0  0  0  0  0  0  0  0  0  0  0  0
   -3.6651    1.6339   -1.1935 H   0  0  0  0  0  0  0  0  0  0  0  0
    5.3537    3.0878    0.4746 H   0  0  0  0  0  0  0  0  0  0  0  0
    7.3742    2.0814    1.4805 H   0  0  0  0  0  0  0  0  0  0  0  0
    7.4622   -0.3397    1.9468 H   0  0  0  0  0  0  0  0  0  0  0  0
  1  2  1  0
  2  3  2  0
  2  4  1  0
  4  5  1  0
  5  6  2  0
  6  7  1  0
  7  8  1  0
  8  9  1  0
  9 10  1  0
 10 11  1  0
 11 12  1  0
 12 13  1  0
 13 14  1  0
 14 15  1  0
 15 16  2  0
 16 17  1  0
 17 18  2  0
 18 19  1  0
 19 20  2  0
 14 21  1  0
 21 22  2  0
 22 23  1  0
 23 24  2  0
 24 25  1  0
 25 26  2  0
 12 27  1  0
 27 28  1  0
 28 29  2  0
 29 30  1  0
 29 31  1  0
 31 32  2  0
 32 33  1  0
 33 34  2  0
 31 35  1  0
 35 36  1  0
 35 37  1  0
 35 38  1  0
  7 39  2  0
 39 40  1  0
 40 41  2  0
 41  5  1  0
 20 15  1  0
 26 21  1  0
 34 28  1  0
  1 42  1  0
  4 43  1  0
  4 44  1  0
  6 45  1  0
  9 46  1  0
  9 47  1  0
 10 48  1  0
 10 49  1  0
 11 50  1  0
 11 51  1  0
 13 52  1  0
 13 53  1  0
 14 54  1  0
 16 55  1  0
 17 56  1  0
 18 57  1  0
 19 58  1  0
 20 59  1  0
 22 60  1  0
 23 61  1  0
 24 62  1  0
 25 63  1  0
 26 64  1  0
 27 65  1  0
 27 66  1  0
 32 67  1  0
 33 68  1  0
 34 69  1  0
 39 70  1  0
 40 71  1  0
 41 72  1  0
M  END
$$$$
