
     RDKit          3D

 19 19  0  0  0  0  0  0  0  0999 V2000
   -3.5289   -0.3783   -0.3828 N   0  0  0  0  0  0  0  0  0  0  0  0
   -2.1077   -0.3288   -0.2327 C   0  0  0  0  0  0  0  0  0  0  0  0
   -1.5341   -0.2715    1.0462 C   0  0  0  0  0  0  0  0  0  0  0  0
   -0.1441   -0.2229    1.1919 C   0  0  0  0  0  0  0  0  0  0  0  0
    0.6806   -0.2366    0.0617 C   0  0  0  0  0  0  0  0  0  0  0  0
    0.1123   -0.2862   -1.2158 C   0  0  0  0  0  0  0  0  0  0  0  0
   -1.2775   -0.3349   -1.3635 C   0  0  0  0  0  0  0  0  0  0  0  0
    2.6118   -0.1464    0.2654 As  0  0  0  0  0  5  0  0  0  0  0  0
    3.5960   -0.3829   -1.2692 O   0  0  0  0  0  0  0  0  0  0  0  0
    3.3389   -1.2271    1.5633 O   0  0  0  0  0  0  0  0  0  0  0  0
    3.0355    1.3664    0.7525 O   0  0  0  0  0  0  0  0  0  0  0  0
   -4.1551   -0.3734    0.4531 H   0  0  0  0  0  0  0  0  0  0  0  0
   -3.9652   -0.4203   -1.3308 H   0  0  0  0  0  0  0  0  0  0  0  0
   -2.1630   -0.2630    1.9275 H   0  0  0  0  0  0  0  0  0  0  0  0
    0.2900   -0.1746    2.1821 H   0  0  0  0  0  0  0  0  0  0  0  0
    0.7452   -0.2879   -2.0938 H   0  0  0  0  0  0  0  0  0  0  0  0
   -1.7068   -0.3759   -2.3567 H   0  0  0  0  0  0  0  0  0  0  0  0
    3.3612   -1.2947   -1.5759 H   0  0  0  0  0  0  0  0  0  0  0  0
    2.8107   -1.0307    2.3775 H   0  0  0  0  0  0  0  0  0  0  0  0
  1  2  1  0
  2  3  2  0
  3  4  1  0
  4  5  2  0
  5  6  1  0
  6  7  2  0
  5  8  1  0
  8  9  1  0
  8 10  1  0
  8 11  2  0
  7  2  1  0
  1 12  1  0
  1 13  1  0
  3 14  1  0
  4 15  1  0
  6 16  1  0
  7 17  1  0
  9 18  1  0
 10 19  1  0
M  END
$$$$
