
     RDKit          3D

 56 59  0  0  0  0  0  0  0  0999 V2000
    1.9978    0.4038    0.3363 C   0  0  2  0  0  0  0  0  0  0  0  0
    3.1619    1.3790    0.2347 C   0  0  0  0  0  0  0  0  0  0  0  0
    4.4177    0.4894    0.2588 C   0  0  0  0  0  0  0  0  0  0  0  0
    3.9481   -0.9921    0.1282 C   0  0  2  0  0  0  0  0  0  0  0  0
    4.0565   -1.7121    1.4963 C   0  0  0  0  0  0  0  0  0  0  0  0
    4.7503   -1.6883   -0.8000 O   0  0  0  0  0  0  0  0  0  0  0  0
    2.4787   -0.8563   -0.4003 C   0  0  2  0  0  0  0  0  0  0  0  0
    2.5227   -0.6718   -1.9567 C   0  0  0  0  0  0  0  0  0  0  0  0
    1.4979   -2.0060   -0.0515 C   0  0  0  0  0  0  0  0  0  0  0  0
    0.0452   -1.6475   -0.4437 C   0  0  0  0  0  0  0  0  0  0  0  0
   -0.4276   -0.2799    0.1490 C   0  0  1  0  0  0  0  0  0  0  0  0
    0.5964    0.8749   -0.1157 C   0  0  1  0  0  0  0  0  0  0  0  0
    0.1729    2.1369    0.6577 C   0  0  0  0  0  0  0  0  0  0  0  0
   -1.2369    2.5757    0.2631 C   0  0  0  0  0  0  0  0  0  0  0  0
   -2.2658    1.4520    0.5036 C   0  0  1  0  0  0  0  0  0  0  0  0
   -3.6816    1.9613    0.1672 C   0  0  0  0  0  0  0  0  0  0  0  0
   -4.7081    0.8671    0.1170 C   0  0  0  0  0  0  0  0  0  0  0  0
   -5.8801    1.1779   -0.2250 O   0  0  0  0  0  0  0  0  0  0  0  0
   -4.3384   -0.5548    0.3516 C   0  0  0  0  0  0  0  0  0  0  0  0
   -2.8875   -0.9825    0.2446 C   0  0  0  0  0  0  0  0  0  0  0  0
   -1.9030    0.1240   -0.2463 C   0  0  2  0  0  0  0  0  0  0  0  0
   -2.0532    0.2793   -1.7896 C   0  0  0  0  0  0  0  0  0  0  0  0
   -5.2351   -1.5031    0.6943 C   0  0  0  0  0  0  0  0  0  0  0  0
   -6.5734   -1.2507    1.0042 O   0  0  0  0  0  0  0  0  0  0  0  0
    1.9004    0.1676    1.4218 H   0  0  0  0  0  0  0  0  0  0  0  0
    3.1629    2.0911    1.0887 H   0  0  0  0  0  0  0  0  0  0  0  0
    3.1080    1.9534   -0.7159 H   0  0  0  0  0  0  0  0  0  0  0  0
    4.9923    0.6622    1.1955 H   0  0  0  0  0  0  0  0  0  0  0  0
    5.0762    0.7698   -0.5928 H   0  0  0  0  0  0  0  0  0  0  0  0
    3.7648   -2.7788    1.3964 H   0  0  0  0  0  0  0  0  0  0  0  0
    5.1077   -1.6916    1.8556 H   0  0  0  0  0  0  0  0  0  0  0  0
    3.4277   -1.2326    2.2733 H   0  0  0  0  0  0  0  0  0  0  0  0
    5.6946   -1.6159   -0.4998 H   0  0  0  0  0  0  0  0  0  0  0  0
    1.5492   -0.4006   -2.4033 H   0  0  0  0  0  0  0  0  0  0  0  0
    2.8349   -1.6203   -2.4438 H   0  0  0  0  0  0  0  0  0  0  0  0
    3.2468    0.1134   -2.2579 H   0  0  0  0  0  0  0  0  0  0  0  0
    1.8053   -2.9395   -0.5709 H   0  0  0  0  0  0  0  0  0  0  0  0
    1.5026   -2.2148    1.0395 H   0  0  0  0  0  0  0  0  0  0  0  0
   -0.0467   -1.6647   -1.5452 H   0  0  0  0  0  0  0  0  0  0  0  0
   -0.6058   -2.4617   -0.0622 H   0  0  0  0  0  0  0  0  0  0  0  0
   -0.4311   -0.4348    1.2537 H   0  0  0  0  0  0  0  0  0  0  0  0
    0.6257    1.1430   -1.1891 H   0  0  0  0  0  0  0  0  0  0  0  0
    0.2073    1.9487    1.7540 H   0  0  0  0  0  0  0  0  0  0  0  0
    0.8730    2.9701    0.4324 H   0  0  0  0  0  0  0  0  0  0  0  0
   -1.5111    3.4627    0.8756 H   0  0  0  0  0  0  0  0  0  0  0  0
   -1.2430    2.8958   -0.8010 H   0  0  0  0  0  0  0  0  0  0  0  0
   -2.2567    1.2366    1.5979 H   0  0  0  0  0  0  0  0  0  0  0  0
   -3.6770    2.4817   -0.8155 H   0  0  0  0  0  0  0  0  0  0  0  0
   -3.9936    2.7050    0.9324 H   0  0  0  0  0  0  0  0  0  0  0  0
   -2.8281   -1.8640   -0.4317 H   0  0  0  0  0  0  0  0  0  0  0  0
   -2.5781   -1.3288    1.2560 H   0  0  0  0  0  0  0  0  0  0  0  0
   -1.3739    1.0493   -2.2022 H   0  0  0  0  0  0  0  0  0  0  0  0
   -1.8521   -0.6748   -2.3152 H   0  0  0  0  0  0  0  0  0  0  0  0
   -3.0868    0.5618   -2.0724 H   0  0  0  0  0  0  0  0  0  0  0  0
   -4.9070   -2.5334    0.7657 H   0  0  0  0  0  0  0  0  0  0  0  0
   -6.9434   -0.3317    1.2028 H   0  0  0  0  0  0  0  0  0  0  0  0
  1  2  1  0
  2  3  1  0
  3  4  1  0
  4  5  1  0
  4  6  1  6
  4  7  1  0
  7  8  1  6
  7  9  1  0
  9 10  1  0
 10 11  1  0
 11 12  1  0
 12 13  1  0
 13 14  1  0
 14 15  1  0
 15 16  1  0
 16 17  1  0
 17 18  2  0
 17 19  1  0
 19 20  1  0
 20 21  1  0
 21 22  1  6
 19 23  2  0
 23 24  1  0
  7  1  1  0
 21 11  1  0
 12  1  1  0
 21 15  1  0
  1 25  1  1
  2 26  1  0
  2 27  1  0
  3 28  1  0
  3 29  1  0
  5 30  1  0
  5 31  1  0
  5 32  1  0
  6 33  1  0
  8 34  1  0
  8 35  1  0
  8 36  1  0
  9 37  1  0
  9 38  1  0
 10 39  1  0
 10 40  1  0
 11 41  1  1
 12 42  1  6
 13 43  1  0
 13 44  1  0
 14 45  1  0
 14 46  1  0
 15 47  1  1
 16 48  1  0
 16 49  1  0
 20 50  1  0
 20 51  1  0
 22 52  1  0
 22 53  1  0
 22 54  1  0
 23 55  1  0
 24 56  1  0
M  END
$$$$
