
     RDKit          3D

 42 45  0  0  0  0  0  0  0  0999 V2000
   -4.0084    3.2939   -0.9969 N   0  0  0  0  0  0  0  0  0  0  0  0
   -4.0368    2.0119   -0.3703 C   0  0  0  0  0  0  0  0  0  0  0  0
   -5.1535    1.6214    0.3268 N   0  0  0  0  0  0  0  0  0  0  0  0
   -5.2173    0.4059    0.9449 C   0  0  0  0  0  0  0  0  0  0  0  0
   -6.2441    0.0657    1.5887 O   0  0  0  0  0  0  0  0  0  0  0  0
   -4.1170   -0.4323    0.8433 C   0  0  0  0  0  0  0  0  0  0  0  0
   -3.0277   -0.0351    0.1466 C   0  0  0  0  0  0  0  0  0  0  0  0
   -2.9533    1.1770   -0.4607 N   0  0  0  0  0  0  0  0  0  0  0  0
   -2.0896   -0.9916    0.2024 N   0  0  0  0  0  0  0  0  0  0  0  0
   -2.6562   -1.9551    0.9765 C   0  0  0  0  0  0  0  0  0  0  0  0
   -3.9175   -1.6475    1.3867 N   0  0  0  0  0  0  0  0  0  0  0  0
   -0.7205   -0.9484   -0.3157 C   0  0  2  0  0  0  0  0  0  0  0  0
   -0.2371   -2.2544   -0.5202 O   0  0  0  0  0  0  0  0  0  0  0  0
    1.1545   -2.1898   -0.3253 C   0  0  2  0  0  0  0  0  0  0  0  0
    1.6653   -3.5450    0.1700 C   0  0  0  0  0  0  0  0  0  0  0  0
    3.0590   -3.5088    0.3087 O   0  0  0  0  0  0  0  0  0  0  0  0
    1.4426   -1.0635    0.6701 C   0  0  1  0  0  0  0  0  0  0  0  0
    2.4788   -0.2497    0.2158 O   0  0  0  0  0  0  0  0  0  0  0  0
    1.9487    1.0539    0.1681 C   0  0  1  0  0  0  0  0  0  0  0  0
    2.3827    1.7435   -1.1258 C   0  0  0  0  0  0  0  0  0  0  0  0
    4.1931    1.9498   -1.1993 P   0  0  0  0  0  5  0  0  0  0  0  0
    4.7245    2.8268    0.1470 O   0  0  0  0  0  0  0  0  0  0  0  0
    4.9484    0.4352   -1.2112 O   0  0  0  0  0  0  0  0  0  0  0  0
    4.5585    2.6992   -2.4605 O   0  0  0  0  0  0  0  0  0  0  0  0
    0.5430    1.0296    0.2243 O   0  0  0  0  0  0  0  0  0  0  0  0
    0.2051   -0.2458    0.6739 C   0  0  1  0  0  0  0  0  0  0  0  0
   -4.8318    3.9322   -0.9283 H   0  0  0  0  0  0  0  0  0  0  0  0
   -3.1672    3.6084   -1.5294 H   0  0  0  0  0  0  0  0  0  0  0  0
   -2.0965    1.4689   -0.9810 H   0  0  0  0  0  0  0  0  0  0  0  0
   -2.1526   -2.8709    1.2579 H   0  0  0  0  0  0  0  0  0  0  0  0
   -0.7146   -0.4244   -1.2986 H   0  0  0  0  0  0  0  0  0  0  0  0
    1.6344   -1.9692   -1.3072 H   0  0  0  0  0  0  0  0  0  0  0  0
    1.1907   -3.7944    1.1461 H   0  0  0  0  0  0  0  0  0  0  0  0
    1.3867   -4.3290   -0.5692 H   0  0  0  0  0  0  0  0  0  0  0  0
    3.3257   -4.4061    0.6381 H   0  0  0  0  0  0  0  0  0  0  0  0
    1.6709   -1.4381    1.6938 H   0  0  0  0  0  0  0  0  0  0  0  0
    2.3283    1.6330    1.0391 H   0  0  0  0  0  0  0  0  0  0  0  0
    2.0488    1.1458   -2.0008 H   0  0  0  0  0  0  0  0  0  0  0  0
    1.9114    2.7476   -1.1847 H   0  0  0  0  0  0  0  0  0  0  0  0
    4.2188    3.6777    0.1116 H   0  0  0  0  0  0  0  0  0  0  0  0
    4.5546   -0.0391   -1.9865 H   0  0  0  0  0  0  0  0  0  0  0  0
   -0.2329   -0.1893    1.6963 H   0  0  0  0  0  0  0  0  0  0  0  0
  1  2  1  0
  2  3  2  0
  3  4  1  0
  4  5  2  0
  4  6  1  0
  6  7  2  0
  7  8  1  0
  7  9  1  0
  9 10  1  0
 10 11  2  0
  9 12  1  0
 12 13  1  0
 13 14  1  0
 14 15  1  0
 15 16  1  0
 14 17  1  0
 17 18  1  0
 18 19  1  0
 19 20  1  0
 20 21  1  0
 21 22  1  0
 21 23  1  0
 21 24  2  0
 19 25  1  0
 25 26  1  0
  8  2  1  0
 26 12  1  0
 11  6  1  0
 26 17  1  0
  1 27  1  0
  1 28  1  0
  8 29  1  0
 10 30  1  0
 12 31  1  6
 14 32  1  6
 15 33  1  0
 15 34  1  0
 16 35  1  0
 17 36  1  1
 19 37  1  1
 20 38  1  0
 20 39  1  0
 22 40  1  0
 23 41  1  0
 26 42  1  1
M  END
$$$$
