
     RDKit          3D

 40 40  0  0  0  0  0  0  0  0999 V2000
    5.6735   -0.5694   -0.1370 C   0  0  0  0  0  0  0  0  0  0  0  0
    5.4115    0.7106   -0.9282 C   0  0  0  0  0  0  0  0  0  0  0  0
    4.0258    0.7171   -1.5859 C   0  0  0  0  0  0  0  0  0  0  0  0
    2.9203    0.7778   -0.5716 C   0  0  0  0  0  0  0  0  0  0  0  0
    2.7333    1.8422    0.0789 O   0  0  0  0  0  0  0  0  0  0  0  0
    2.0864   -0.3668   -0.3398 N   0  0  0  0  0  0  0  0  0  0  0  0
    0.9593   -0.3192    0.5455 C   0  0  0  0  0  0  0  0  0  0  0  0
    1.0089   -1.0205    1.7585 C   0  0  0  0  0  0  0  0  0  0  0  0
    2.7042   -2.1597    2.3177 I   0  0  0  0  0  0  0  0  0  0  0  0
   -0.0601   -0.9557    2.6467 C   0  0  0  0  0  0  0  0  0  0  0  0
   -1.2039   -0.2210    2.3365 C   0  0  0  0  0  0  0  0  0  0  0  0
   -2.7038   -0.1427    3.8441 I   0  0  0  0  0  0  0  0  0  0  0  0
   -1.3084    0.4441    1.0905 C   0  0  0  0  0  0  0  0  0  0  0  0
   -2.5835    1.1916    0.7433 C   0  0  0  0  0  0  0  0  0  0  0  0
   -3.7708    0.2635    0.3720 C   0  0  0  0  0  0  0  0  0  0  0  0
   -3.6286   -0.4069   -1.0179 C   0  0  0  0  0  0  0  0  0  0  0  0
   -2.8574   -1.7273   -0.9713 C   0  0  0  0  0  0  0  0  0  0  0  0
   -5.0443    1.0664    0.4157 C   0  0  0  0  0  0  0  0  0  0  0  0
   -6.0125    0.7768    1.3724 O   0  0  0  0  0  0  0  0  0  0  0  0
   -5.2332    2.0070   -0.4029 O   0  0  0  0  0  0  0  0  0  0  0  0
   -0.2038    0.4028    0.1949 C   0  0  0  0  0  0  0  0  0  0  0  0
   -0.2696    1.3355   -1.7322 I   0  0  0  0  0  0  0  0  0  0  0  0
    4.9850   -0.6339    0.7302 H   0  0  0  0  0  0  0  0  0  0  0  0
    5.5371   -1.4616   -0.7844 H   0  0  0  0  0  0  0  0  0  0  0  0
    6.7162   -0.5627    0.2444 H   0  0  0  0  0  0  0  0  0  0  0  0
    6.1816    0.7964   -1.7250 H   0  0  0  0  0  0  0  0  0  0  0  0
    5.5196    1.5908   -0.2574 H   0  0  0  0  0  0  0  0  0  0  0  0
    3.9472    1.6081   -2.2453 H   0  0  0  0  0  0  0  0  0  0  0  0
    3.9092   -0.1801   -2.2318 H   0  0  0  0  0  0  0  0  0  0  0  0
    2.3785   -1.2936   -0.7235 H   0  0  0  0  0  0  0  0  0  0  0  0
    0.0037   -1.4739    3.5949 H   0  0  0  0  0  0  0  0  0  0  0  0
   -2.4253    1.9356   -0.0609 H   0  0  0  0  0  0  0  0  0  0  0  0
   -2.8626    1.8089    1.6248 H   0  0  0  0  0  0  0  0  0  0  0  0
   -3.8679   -0.5341    1.1385 H   0  0  0  0  0  0  0  0  0  0  0  0
   -3.1509    0.2855   -1.7418 H   0  0  0  0  0  0  0  0  0  0  0  0
   -4.6375   -0.6461   -1.4231 H   0  0  0  0  0  0  0  0  0  0  0  0
   -1.8088   -1.5751   -0.6563 H   0  0  0  0  0  0  0  0  0  0  0  0
   -3.3481   -2.4371   -0.2721 H   0  0  0  0  0  0  0  0  0  0  0  0
   -2.8478   -2.1835   -1.9835 H   0  0  0  0  0  0  0  0  0  0  0  0
   -6.8725    1.3101    1.4192 H   0  0  0  0  0  0  0  0  0  0  0  0
  1  2  1  0
  2  3  1  0
  3  4  1  0
  4  5  2  0
  4  6  1  0
  6  7  1  0
  7  8  2  0
  8  9  1  0
  8 10  1  0
 10 11  2  0
 11 12  1  0
 11 13  1  0
 13 14  1  0
 14 15  1  0
 15 16  1  0
 16 17  1  0
 15 18  1  0
 18 19  1  0
 18 20  2  0
 13 21  2  0
 21 22  1  0
 21  7  1  0
  1 23  1  0
  1 24  1  0
  1 25  1  0
  2 26  1  0
  2 27  1  0
  3 28  1  0
  3 29  1  0
  6 30  1  0
 10 31  1  0
 14 32  1  0
 14 33  1  0
 15 34  1  0
 16 35  1  0
 16 36  1  0
 17 37  1  0
 17 38  1  0
 17 39  1  0
 19 40  1  0
M  END
$$$$
