
     RDKit          3D

 40 44  0  0  0  0  0  0  0  0999 V2000
    1.2407    1.5653    1.2033 C   0  0  2  0  0  0  0  0  0  0  0  0
    2.4717    0.8290    1.1979 O   0  0  0  0  0  0  0  0  0  0  0  0
    2.3135   -0.3535    0.5038 C   0  0  0  0  0  0  0  0  0  0  0  0
    3.3140   -1.2145    0.0466 C   0  0  0  0  0  0  0  0  0  0  0  0
    4.6455   -1.0453    0.4172 O   0  0  0  0  0  0  0  0  0  0  0  0
    2.9439   -2.2474   -0.8359 C   0  0  0  0  0  0  0  0  0  0  0  0
    1.6113   -2.3499   -1.2918 C   0  0  0  0  0  0  0  0  0  0  0  0
    0.6277   -1.4691   -0.8013 C   0  0  0  0  0  0  0  0  0  0  0  0
    1.0076   -0.5491    0.1775 C   0  0  0  0  0  0  0  0  0  0  0  0
    0.1475    0.5148    0.7814 C   0  0  1  0  0  0  0  0  0  0  0  0
   -0.5985   -0.0676    2.0253 C   0  0  0  0  0  0  0  0  0  0  0  0
   -2.0683   -0.4439    1.7419 C   0  0  0  0  0  0  0  0  0  0  0  0
   -2.2319   -1.0803    0.4180 N   0  0  0  0  0  0  0  0  0  0  0  0
   -3.6445   -1.4181    0.1837 C   0  0  0  0  0  0  0  0  0  0  0  0
   -1.6494   -0.3263   -0.7325 C   0  0  2  0  0  0  0  0  0  0  0  0
   -0.7118   -1.3120   -1.4845 C   0  0  0  0  0  0  0  0  0  0  0  0
   -0.8830    0.9631   -0.2727 C   0  0  2  0  0  0  0  0  0  0  0  0
   -0.2199    1.7414   -1.4201 C   0  0  0  0  0  0  0  0  0  0  0  0
    0.4285    3.0154   -0.8807 C   0  0  0  0  0  0  0  0  0  0  0  0
    1.3783    2.7475    0.2620 C   0  0  0  0  0  0  0  0  0  0  0  0
    2.2707    3.5546    0.4733 O   0  0  0  0  0  0  0  0  0  0  0  0
    1.0653    1.9678    2.2235 H   0  0  0  0  0  0  0  0  0  0  0  0
    4.9288   -0.3009    1.0435 H   0  0  0  0  0  0  0  0  0  0  0  0
    3.6962   -2.9230   -1.2223 H   0  0  0  0  0  0  0  0  0  0  0  0
    1.3610   -3.0751   -2.0556 H   0  0  0  0  0  0  0  0  0  0  0  0
   -0.6174    0.6727    2.8534 H   0  0  0  0  0  0  0  0  0  0  0  0
   -0.0655   -0.9604    2.4236 H   0  0  0  0  0  0  0  0  0  0  0  0
   -2.7080    0.4647    1.8162 H   0  0  0  0  0  0  0  0  0  0  0  0
   -2.4042   -1.1449    2.5377 H   0  0  0  0  0  0  0  0  0  0  0  0
   -4.0232   -2.0759    0.9954 H   0  0  0  0  0  0  0  0  0  0  0  0
   -4.2695   -0.4989    0.1371 H   0  0  0  0  0  0  0  0  0  0  0  0
   -3.7497   -1.9784   -0.7703 H   0  0  0  0  0  0  0  0  0  0  0  0
   -2.4436   -0.0004   -1.4443 H   0  0  0  0  0  0  0  0  0  0  0  0
   -0.5398   -0.9349   -2.5155 H   0  0  0  0  0  0  0  0  0  0  0  0
   -1.1997   -2.3065   -1.5783 H   0  0  0  0  0  0  0  0  0  0  0  0
   -1.6139    1.6610    0.1951 H   0  0  0  0  0  0  0  0  0  0  0  0
   -0.9887    2.0181   -2.1736 H   0  0  0  0  0  0  0  0  0  0  0  0
    0.5556    1.1338   -1.9332 H   0  0  0  0  0  0  0  0  0  0  0  0
   -0.3577    3.7200   -0.5334 H   0  0  0  0  0  0  0  0  0  0  0  0
    0.9802    3.5067   -1.7116 H   0  0  0  0  0  0  0  0  0  0  0  0
  1  2  1  0
  2  3  1  0
  3  4  2  0
  4  5  1  0
  4  6  1  0
  6  7  2  0
  7  8  1  0
  8  9  2  0
  9 10  1  0
 10 11  1  1
 11 12  1  0
 12 13  1  0
 13 14  1  0
 13 15  1  0
 15 16  1  0
 15 17  1  0
 17 18  1  0
 18 19  1  0
 19 20  1  0
 20 21  2  0
 10  1  1  0
 17 10  1  0
 20  1  1  0
  9  3  1  0
 16  8  1  0
  1 22  1  1
  5 23  1  0
  6 24  1  0
  7 25  1  0
 11 26  1  0
 11 27  1  0
 12 28  1  0
 12 29  1  0
 14 30  1  0
 14 31  1  0
 14 32  1  0
 15 33  1  6
 16 34  1  0
 16 35  1  0
 17 36  1  1
 18 37  1  0
 18 38  1  0
 19 39  1  0
 19 40  1  0
M  END
$$$$
