
     RDKit          3D

 25 25  0  0  0  0  0  0  0  0999 V2000
   -1.2552   -2.3677   -0.4194 N   0  0  0  0  0  0  0  0  0  0  0  0
   -1.7166   -1.0729   -0.0094 C   0  0  0  0  0  0  0  0  0  0  0  0
   -3.0528   -0.7192   -0.2562 C   0  0  0  0  0  0  0  0  0  0  0  0
   -3.5243    0.5518    0.0771 C   0  0  0  0  0  0  0  0  0  0  0  0
   -2.6673    1.4837    0.6615 C   0  0  0  0  0  0  0  0  0  0  0  0
   -1.3378    1.1457    0.9217 C   0  0  0  0  0  0  0  0  0  0  0  0
   -0.8479   -0.1316    0.5967 C   0  0  0  0  0  0  0  0  0  0  0  0
    0.5528   -0.4701    0.9283 C   0  0  0  0  0  0  0  0  0  0  0  0
    0.8003   -1.5076    1.6001 O   0  0  0  0  0  0  0  0  0  0  0  0
    1.6937    0.3702    0.4286 C   0  0  0  0  0  0  0  0  0  0  0  0
    2.0536   -0.0238   -1.0052 C   0  0  0  0  0  0  0  0  0  0  0  0
    3.1981    0.8003   -1.5034 C   0  0  0  0  0  0  0  0  0  0  0  0
    4.5048    0.3793   -1.2777 O   0  0  0  0  0  0  0  0  0  0  0  0
    2.9806    1.8935   -2.0911 O   0  0  0  0  0  0  0  0  0  0  0  0
   -0.2449   -2.6267   -0.4051 H   0  0  0  0  0  0  0  0  0  0  0  0
   -1.9230   -3.0663   -0.8156 H   0  0  0  0  0  0  0  0  0  0  0  0
   -3.7275   -1.4273   -0.7207 H   0  0  0  0  0  0  0  0  0  0  0  0
   -4.5551    0.8154   -0.1213 H   0  0  0  0  0  0  0  0  0  0  0  0
   -3.0358    2.4676    0.9215 H   0  0  0  0  0  0  0  0  0  0  0  0
   -0.6986    1.8762    1.4015 H   0  0  0  0  0  0  0  0  0  0  0  0
    1.4236    1.4471    0.4635 H   0  0  0  0  0  0  0  0  0  0  0  0
    2.5762    0.2220    1.0895 H   0  0  0  0  0  0  0  0  0  0  0  0
    1.1744    0.1247   -1.6705 H   0  0  0  0  0  0  0  0  0  0  0  0
    2.3375   -1.0982   -1.0409 H   0  0  0  0  0  0  0  0  0  0  0  0
    5.2911    0.9339   -1.5943 H   0  0  0  0  0  0  0  0  0  0  0  0
  1  2  1  0
  2  3  2  0
  3  4  1  0
  4  5  2  0
  5  6  1  0
  6  7  2  0
  7  8  1  0
  8  9  2  0
  8 10  1  0
 10 11  1  0
 11 12  1  0
 12 13  1  0
 12 14  2  0
  7  2  1  0
  1 15  1  0
  1 16  1  0
  3 17  1  0
  4 18  1  0
  5 19  1  0
  6 20  1  0
 10 21  1  0
 10 22  1  0
 11 23  1  0
 11 24  1  0
 13 25  1  0
M  END
$$$$
