
     RDKit          3D

 42 43  0  0  0  0  0  0  0  0999 V2000
   -4.8729    2.0354   -0.9180 C   0  0  0  0  0  0  0  0  0  0  0  0
   -4.1015    0.8153   -0.4931 C   0  0  0  0  0  0  0  0  0  0  0  0
   -3.1339    0.9307    0.5196 C   0  0  0  0  0  0  0  0  0  0  0  0
   -2.4027   -0.1836    0.9337 C   0  0  0  0  0  0  0  0  0  0  0  0
   -2.6215   -1.4304    0.3402 C   0  0  0  0  0  0  0  0  0  0  0  0
   -3.5875   -1.5591   -0.6646 C   0  0  0  0  0  0  0  0  0  0  0  0
   -4.3314   -0.4472   -1.0904 C   0  0  0  0  0  0  0  0  0  0  0  0
   -5.3100   -0.6208   -2.1249 N   0  0  0  0  0  0  0  0  0  0  0  0
   -1.6888   -2.8296    0.8631 S   0  0  0  0  0  6  0  0  0  0  0  0
   -1.6101   -3.8507   -0.2373 O   0  0  0  0  0  0  0  0  0  0  0  0
   -2.3566   -3.4449    2.0600 O   0  0  0  0  0  0  0  0  0  0  0  0
   -0.0825   -2.3398    1.2896 N   0  0  0  0  0  0  0  0  0  0  0  0
    0.7702   -1.6676    0.3575 C   0  0  0  0  0  0  0  0  0  0  0  0
    0.3962   -1.5040   -0.8361 O   0  0  0  0  0  0  0  0  0  0  0  0
    2.0465   -1.1741    0.7873 N   0  0  0  0  0  0  0  0  0  0  0  0
    2.9300   -0.4107   -0.1029 C   0  0  0  0  0  0  0  0  0  0  0  0
    4.3787   -0.4059    0.4485 C   0  0  0  0  0  0  0  0  0  0  0  0
    5.1806    0.7734   -0.1101 C   0  0  0  0  0  0  0  0  0  0  0  0
    4.5684    2.1255    0.3104 C   0  0  0  0  0  0  0  0  0  0  0  0
    3.0505    2.0563    0.5726 C   0  0  0  0  0  0  0  0  0  0  0  0
    2.3691    1.0198   -0.3275 C   0  0  0  0  0  0  0  0  0  0  0  0
   -4.5619    2.9371   -0.3486 H   0  0  0  0  0  0  0  0  0  0  0  0
   -4.6976    2.2343   -1.9962 H   0  0  0  0  0  0  0  0  0  0  0  0
   -5.9571    1.8752   -0.7407 H   0  0  0  0  0  0  0  0  0  0  0  0
   -2.9428    1.8860    0.9927 H   0  0  0  0  0  0  0  0  0  0  0  0
   -1.6636   -0.0721    1.7171 H   0  0  0  0  0  0  0  0  0  0  0  0
   -3.7635   -2.5263   -1.1187 H   0  0  0  0  0  0  0  0  0  0  0  0
   -5.8917    0.1693   -2.4791 H   0  0  0  0  0  0  0  0  0  0  0  0
   -5.4653   -1.5600   -2.5546 H   0  0  0  0  0  0  0  0  0  0  0  0
    0.2435   -2.4968    2.2689 H   0  0  0  0  0  0  0  0  0  0  0  0
    2.3464   -1.3821    1.7666 H   0  0  0  0  0  0  0  0  0  0  0  0
    2.9599   -0.9238   -1.0906 H   0  0  0  0  0  0  0  0  0  0  0  0
    4.3788   -0.3310    1.5584 H   0  0  0  0  0  0  0  0  0  0  0  0
    4.8817   -1.3594    0.1770 H   0  0  0  0  0  0  0  0  0  0  0  0
    5.2003    0.7028   -1.2202 H   0  0  0  0  0  0  0  0  0  0  0  0
    6.2309    0.7134    0.2485 H   0  0  0  0  0  0  0  0  0  0  0  0
    4.7705    2.8718   -0.4886 H   0  0  0  0  0  0  0  0  0  0  0  0
    5.0705    2.4868    1.2343 H   0  0  0  0  0  0  0  0  0  0  0  0
    2.5984    3.0566    0.3983 H   0  0  0  0  0  0  0  0  0  0  0  0
    2.8675    1.7859    1.6360 H   0  0  0  0  0  0  0  0  0  0  0  0
    2.5318    1.3140   -1.3880 H   0  0  0  0  0  0  0  0  0  0  0  0
    1.2722    1.0495   -0.1503 H   0  0  0  0  0  0  0  0  0  0  0  0
  1  2  1  0
  2  3  2  0
  3  4  1  0
  4  5  2  0
  5  6  1  0
  6  7  2  0
  7  8  1  0
  5  9  1  0
  9 10  2  0
  9 11  2  0
  9 12  1  0
 12 13  1  0
 13 14  2  0
 13 15  1  0
 15 16  1  0
 16 17  1  0
 17 18  1  0
 18 19  1  0
 19 20  1  0
 20 21  1  0
  7  2  1  0
 21 16  1  0
  1 22  1  0
  1 23  1  0
  1 24  1  0
  3 25  1  0
  4 26  1  0
  6 27  1  0
  8 28  1  0
  8 29  1  0
 12 30  1  0
 15 31  1  0
 16 32  1  0
 17 33  1  0
 17 34  1  0
 18 35  1  0
 18 36  1  0
 19 37  1  0
 19 38  1  0
 20 39  1  0
 20 40  1  0
 21 41  1  0
 21 42  1  0
M  END
$$$$
