
     RDKit          3D

 28 29  0  0  0  0  0  0  0  0999 V2000
   -0.1422    1.4300    0.2183 C   0  0  1  0  0  0  0  0  0  0  0  0
   -0.7158    2.6383   -0.3914 N   0  0  0  0  0  0  0  0  0  0  0  0
   -1.8627    2.2611   -1.1358 C   0  0  0  0  0  0  0  0  0  0  0  0
   -2.5920    3.0614   -1.7779 O   0  0  0  0  0  0  0  0  0  0  0  0
   -2.0370    0.8424   -1.0350 C   0  0  0  0  0  0  0  0  0  0  0  0
   -2.9310    0.1551   -1.5957 O   0  0  0  0  0  0  0  0  0  0  0  0
   -1.0043    0.3196   -0.2117 N   0  0  0  0  0  0  0  0  0  0  0  0
   -0.6809   -1.0957   -0.0239 C   0  0  2  0  0  0  0  0  0  0  0  0
   -1.6258   -1.7041    1.0220 C   0  0  0  0  0  0  0  0  0  0  0  0
   -1.4115   -3.0846    1.1250 O   0  0  0  0  0  0  0  0  0  0  0  0
    0.8048   -1.2377    0.3866 C   0  0  1  0  0  0  0  0  0  0  0  0
    1.2136   -2.5682    0.1903 O   0  0  0  0  0  0  0  0  0  0  0  0
    1.6714   -0.2909   -0.4732 C   0  0  2  0  0  0  0  0  0  0  0  0
    3.0316   -0.5306   -0.2129 O   0  0  0  0  0  0  0  0  0  0  0  0
    1.3214    1.2122   -0.2377 C   0  0  2  0  0  0  0  0  0  0  0  0
    2.1735    1.7711    0.7320 O   0  0  0  0  0  0  0  0  0  0  0  0
   -0.1983    1.5140    1.3263 H   0  0  0  0  0  0  0  0  0  0  0  0
   -0.3649    3.6137   -0.2650 H   0  0  0  0  0  0  0  0  0  0  0  0
   -0.8308   -1.6223   -0.9936 H   0  0  0  0  0  0  0  0  0  0  0  0
   -1.4590   -1.2180    2.0098 H   0  0  0  0  0  0  0  0  0  0  0  0
   -2.6794   -1.5203    0.7143 H   0  0  0  0  0  0  0  0  0  0  0  0
   -2.0385   -3.4093    1.8224 H   0  0  0  0  0  0  0  0  0  0  0  0
    0.9214   -0.9542    1.4608 H   0  0  0  0  0  0  0  0  0  0  0  0
    1.9742   -2.7327    0.8068 H   0  0  0  0  0  0  0  0  0  0  0  0
    1.4621   -0.5352   -1.5428 H   0  0  0  0  0  0  0  0  0  0  0  0
    3.5412   -0.1362   -0.9685 H   0  0  0  0  0  0  0  0  0  0  0  0
    1.4674    1.7400   -1.2115 H   0  0  0  0  0  0  0  0  0  0  0  0
    2.9914    2.0810    0.2619 H   0  0  0  0  0  0  0  0  0  0  0  0
  1  2  1  0
  2  3  1  0
  3  4  2  0
  3  5  1  0
  5  6  2  0
  5  7  1  0
  7  8  1  0
  8  9  1  0
  9 10  1  0
  8 11  1  0
 11 12  1  0
 11 13  1  0
 13 14  1  0
 13 15  1  0
 15 16  1  0
  7  1  1  0
 15  1  1  0
  1 17  1  1
  2 18  1  0
  8 19  1  6
  9 20  1  0
  9 21  1  0
 10 22  1  0
 11 23  1  1
 12 24  1  0
 13 25  1  6
 14 26  1  0
 15 27  1  6
 16 28  1  0
M  END
$$$$
