
     RDKit          3D

 43 45  0  0  0  0  0  0  0  0999 V2000
   -1.2241   -1.8249   -0.9138 C   0  0  1  0  0  0  0  0  0  0  0  0
   -0.5381   -1.2916    0.6991 S   0  0  0  0  0  0  0  0  0  0  0  0
   -1.8753   -0.0379    0.9909 C   0  0  0  0  0  0  0  0  0  0  0  0
   -1.2722    1.3529    0.7236 C   0  0  0  0  0  0  0  0  0  0  0  0
   -2.3128   -0.1074    2.4667 C   0  0  0  0  0  0  0  0  0  0  0  0
   -3.0316   -0.3096   -0.0253 C   0  0  1  0  0  0  0  0  0  0  0  0
   -2.3878   -1.0137   -1.1043 N   0  0  0  0  0  0  0  0  0  0  0  0
   -1.8351   -0.5811   -2.4090 C   0  0  0  0  0  0  0  0  0  0  0  0
   -2.2186    0.1886   -3.3278 O   0  0  0  0  0  0  0  0  0  0  0  0
   -0.5947   -1.3741   -2.1370 C   0  0  1  0  0  0  0  0  0  0  0  0
    0.5720   -0.5091   -1.9437 N   0  0  0  0  0  0  0  0  0  0  0  0
    1.8660   -1.0386   -1.6254 C   0  0  0  0  0  0  0  0  0  0  0  0
    2.0320   -2.2856   -1.5264 O   0  0  0  0  0  0  0  0  0  0  0  0
    3.0067   -0.0920   -1.3531 C   0  0  2  0  0  0  0  0  0  0  0  0
    4.2990   -0.7826   -1.4097 N   0  0  0  0  0  0  0  0  0  0  0  0
    2.8077    0.6029   -0.0188 C   0  0  0  0  0  0  0  0  0  0  0  0
    2.7232   -0.1360    1.1771 C   0  0  0  0  0  0  0  0  0  0  0  0
    2.5159    0.5138    2.3973 C   0  0  0  0  0  0  0  0  0  0  0  0
    2.3956    1.9045    2.4388 C   0  0  0  0  0  0  0  0  0  0  0  0
    2.4791    2.6481    1.2593 C   0  0  0  0  0  0  0  0  0  0  0  0
    2.6830    2.0028    0.0357 C   0  0  0  0  0  0  0  0  0  0  0  0
   -4.1509   -1.1585    0.5179 C   0  0  0  0  0  0  0  0  0  0  0  0
   -5.3568   -0.5616    0.8715 O   0  0  0  0  0  0  0  0  0  0  0  0
   -3.9916   -2.3979    0.6879 O   0  0  0  0  0  0  0  0  0  0  0  0
   -1.4856   -2.9060   -0.9291 H   0  0  0  0  0  0  0  0  0  0  0  0
   -2.0222    2.1483    0.9232 H   0  0  0  0  0  0  0  0  0  0  0  0
   -0.9414    1.4427   -0.3318 H   0  0  0  0  0  0  0  0  0  0  0  0
   -0.3920    1.5294    1.3773 H   0  0  0  0  0  0  0  0  0  0  0  0
   -2.6289   -1.1367    2.7380 H   0  0  0  0  0  0  0  0  0  0  0  0
   -1.4692    0.1681    3.1358 H   0  0  0  0  0  0  0  0  0  0  0  0
   -3.1561    0.5911    2.6551 H   0  0  0  0  0  0  0  0  0  0  0  0
   -3.4681    0.6382   -0.4115 H   0  0  0  0  0  0  0  0  0  0  0  0
   -0.4272   -2.1712   -2.8937 H   0  0  0  0  0  0  0  0  0  0  0  0
    0.4816    0.5214   -2.0965 H   0  0  0  0  0  0  0  0  0  0  0  0
    2.9979    0.6616   -2.1718 H   0  0  0  0  0  0  0  0  0  0  0  0
    5.0587   -0.0740   -1.2862 H   0  0  0  0  0  0  0  0  0  0  0  0
    4.3794   -1.4621   -0.6187 H   0  0  0  0  0  0  0  0  0  0  0  0
    2.8011   -1.2157    1.1639 H   0  0  0  0  0  0  0  0  0  0  0  0
    2.4444   -0.0621    3.3109 H   0  0  0  0  0  0  0  0  0  0  0  0
    2.2332    2.4057    3.3842 H   0  0  0  0  0  0  0  0  0  0  0  0
    2.3816    3.7255    1.2923 H   0  0  0  0  0  0  0  0  0  0  0  0
    2.7385    2.5964   -0.8682 H   0  0  0  0  0  0  0  0  0  0  0  0
   -6.1164   -1.1121    1.2538 H   0  0  0  0  0  0  0  0  0  0  0  0
  1  2  1  0
  2  3  1  0
  3  4  1  0
  3  5  1  0
  3  6  1  0
  6  7  1  0
  7  8  1  0
  8  9  2  0
  8 10  1  0
 10 11  1  0
 11 12  1  0
 12 13  2  0
 12 14  1  0
 14 15  1  0
 14 16  1  0
 16 17  2  0
 17 18  1  0
 18 19  2  0
 19 20  1  0
 20 21  2  0
  6 22  1  0
 22 23  1  0
 22 24  2  0
  7  1  1  0
 21 16  1  0
 10  1  1  0
  1 25  1  1
  4 26  1  0
  4 27  1  0
  4 28  1  0
  5 29  1  0
  5 30  1  0
  5 31  1  0
  6 32  1  6
 10 33  1  6
 11 34  1  0
 14 35  1  6
 15 36  1  0
 15 37  1  0
 17 38  1  0
 18 39  1  0
 19 40  1  0
 20 41  1  0
 21 42  1  0
 23 43  1  0
M  END
$$$$
