
     RDKit          3D

 38 41  0  0  0  0  0  0  0  0999 V2000
   -2.4926    0.0814    1.3250 C   0  0  0  0  0  0  0  0  0  0  0  0
   -2.4997   -1.3104    0.6553 C   0  0  0  0  0  0  0  0  0  0  0  0
   -1.6626   -1.2659   -0.6420 C   0  0  0  0  0  0  0  0  0  0  0  0
   -2.2653   -0.2250   -1.6084 C   0  0  0  0  0  0  0  0  0  0  0  0
   -2.2566    1.1651   -0.9388 C   0  0  0  0  0  0  0  0  0  0  0  0
   -3.0949    1.1209    0.3563 C   0  0  0  0  0  0  0  0  0  0  0  0
   -0.8043    1.5600   -0.5962 C   0  0  0  0  0  0  0  0  0  0  0  0
   -0.1725    0.5224    0.3831 C   0  0  0  0  0  0  0  0  0  0  0  0
   -1.0403    0.4791    1.6726 C   0  0  0  0  0  0  0  0  0  0  0  0
   -0.2076   -0.8742   -0.3013 C   0  0  0  0  0  0  0  0  0  0  0  0
    1.2655    0.9097    0.7314 C   0  0  0  0  0  0  0  0  0  0  0  0
    1.7368    1.9566    0.3088 O   0  0  0  0  0  0  0  0  0  0  0  0
    2.1350    0.0517    1.6177 C   0  0  0  0  0  0  0  0  0  0  0  0
    3.3071   -0.4084    0.8776 N   0  0  0  0  0  0  0  0  0  0  0  0
    4.4751    0.2381    0.7331 C   0  0  0  0  0  0  0  0  0  0  0  0
    5.2742   -0.5162   -0.0963 C   0  0  0  0  0  0  0  0  0  0  0  0
    4.6090   -1.6258   -0.4799 N   0  0  0  0  0  0  0  0  0  0  0  0
    3.4096   -1.5241    0.1302 C   0  0  0  0  0  0  0  0  0  0  0  0
   -3.1002    0.0476    2.2555 H   0  0  0  0  0  0  0  0  0  0  0  0
   -2.0815   -2.0697    1.3521 H   0  0  0  0  0  0  0  0  0  0  0  0
   -3.5440   -1.6143    0.4227 H   0  0  0  0  0  0  0  0  0  0  0  0
   -1.6734   -2.2676   -1.1242 H   0  0  0  0  0  0  0  0  0  0  0  0
   -3.3063   -0.5119   -1.8750 H   0  0  0  0  0  0  0  0  0  0  0  0
   -1.6772   -0.1967   -2.5520 H   0  0  0  0  0  0  0  0  0  0  0  0
   -2.6907    1.9147   -1.6357 H   0  0  0  0  0  0  0  0  0  0  0  0
   -3.1083    2.1245    0.8355 H   0  0  0  0  0  0  0  0  0  0  0  0
   -4.1479    0.8532    0.1183 H   0  0  0  0  0  0  0  0  0  0  0  0
   -0.8004    2.5748   -0.1389 H   0  0  0  0  0  0  0  0  0  0  0  0
   -0.2077    1.6167   -1.5342 H   0  0  0  0  0  0  0  0  0  0  0  0
   -0.6325   -0.2546    2.4008 H   0  0  0  0  0  0  0  0  0  0  0  0
   -1.0346    1.4739    2.1711 H   0  0  0  0  0  0  0  0  0  0  0  0
    0.4052   -0.8614   -1.2301 H   0  0  0  0  0  0  0  0  0  0  0  0
    0.2190   -1.6541    0.3643 H   0  0  0  0  0  0  0  0  0  0  0  0
    2.4586    0.6518    2.4956 H   0  0  0  0  0  0  0  0  0  0  0  0
    1.5820   -0.8246    2.0130 H   0  0  0  0  0  0  0  0  0  0  0  0
    4.7233    1.1892    1.1864 H   0  0  0  0  0  0  0  0  0  0  0  0
    6.2794   -0.2691   -0.4103 H   0  0  0  0  0  0  0  0  0  0  0  0
    2.6213   -2.2573    0.0228 H   0  0  0  0  0  0  0  0  0  0  0  0
  1  2  1  0
  2  3  1  0
  3  4  1  0
  4  5  1  0
  5  6  1  0
  5  7  1  0
  7  8  1  0
  8  9  1  0
  8 10  1  0
  8 11  1  0
 11 12  2  0
 11 13  1  0
 13 14  1  0
 14 15  1  0
 15 16  2  0
 16 17  1  0
 17 18  2  0
  6  1  1  0
 18 14  1  0
  9  1  1  0
 10  3  1  0
  1 19  1  0
  2 20  1  0
  2 21  1  0
  3 22  1  0
  4 23  1  0
  4 24  1  0
  5 25  1  0
  6 26  1  0
  6 27  1  0
  7 28  1  0
  7 29  1  0
  9 30  1  0
  9 31  1  0
 10 32  1  0
 10 33  1  0
 13 34  1  0
 13 35  1  0
 15 36  1  0
 16 37  1  0
 18 38  1  0
M  END
$$$$
