
     RDKit          3D

 16 15  0  0  0  0  0  0  0  0999 V2000
    3.7867   -0.3713    0.6843 O   0  0  0  0  0  0  0  0  0  0  0  0
    2.4722   -0.5967    0.4478 N   0  0  0  0  0  0  0  0  0  0  0  0
    1.4834    0.3406    0.8813 C   0  0  0  0  0  0  0  0  0  0  0  0
    1.8350    1.4054    1.4567 O   0  0  0  0  0  0  0  0  0  0  0  0
    0.0353    0.0847    0.6119 C   0  0  0  0  0  0  0  0  0  0  0  0
   -0.2390    0.4090   -0.7292 O   0  0  0  0  0  0  0  0  0  0  0  0
   -1.8876    0.0942   -1.0279 P   0  0  0  0  0  5  0  0  0  0  0  0
   -2.8559    1.0414   -0.0117 O   0  0  0  0  0  0  0  0  0  0  0  0
   -2.2215   -1.5441   -0.7620 O   0  0  0  0  0  0  0  0  0  0  0  0
   -2.1993    0.4344   -2.4676 O   0  0  0  0  0  0  0  0  0  0  0  0
    4.1106    0.1092   -0.1199 H   0  0  0  0  0  0  0  0  0  0  0  0
    2.1841   -1.4751   -0.0390 H   0  0  0  0  0  0  0  0  0  0  0  0
   -0.5728    0.7096    1.3050 H   0  0  0  0  0  0  0  0  0  0  0  0
   -0.1697   -0.9908    0.8137 H   0  0  0  0  0  0  0  0  0  0  0  0
   -2.5583    1.9719   -0.1746 H   0  0  0  0  0  0  0  0  0  0  0  0
   -3.2030   -1.6225   -0.8690 H   0  0  0  0  0  0  0  0  0  0  0  0
  1  2  1  0
  2  3  1  0
  3  4  2  0
  3  5  1  0
  5  6  1  0
  6  7  1  0
  7  8  1  0
  7  9  1  0
  7 10  2  0
  1 11  1  0
  2 12  1  0
  5 13  1  0
  5 14  1  0
  8 15  1  0
  9 16  1  0
M  END
$$$$
