
     RDKit          3D

 56 58  0  0  0  0  0  0  0  0999 V2000
   -5.8877    2.2311    1.6409 C   0  0  0  0  0  0  0  0  0  0  0  0
   -6.1035    1.6547    0.2331 C   0  0  0  0  0  0  0  0  0  0  0  0
   -5.8101    0.2034    0.1123 N   0  0  0  0  0  0  0  0  0  0  0  0
   -6.9063   -0.6397    0.6428 C   0  0  0  0  0  0  0  0  0  0  0  0
   -7.8542   -1.0223   -0.4876 C   0  0  0  0  0  0  0  0  0  0  0  0
   -4.4843   -0.2102    0.6264 C   0  0  0  0  0  0  0  0  0  0  0  0
   -3.3369    0.4542   -0.1488 C   0  0  0  0  0  0  0  0  0  0  0  0
   -2.0473   -0.1187    0.2364 N   0  0  0  0  0  0  0  0  0  0  0  0
   -0.8264    0.3135   -0.3785 C   0  0  0  0  0  0  0  0  0  0  0  0
   -0.8269    1.3281   -1.1271 O   0  0  0  0  0  0  0  0  0  0  0  0
    0.4440   -0.3984   -0.1262 C   0  0  0  0  0  0  0  0  0  0  0  0
    0.6320   -1.7649    0.0587 C   0  0  0  0  0  0  0  0  0  0  0  0
   -0.4187   -2.8315    0.0271 C   0  0  0  0  0  0  0  0  0  0  0  0
    1.9351   -2.0282    0.2764 N   0  0  0  0  0  0  0  0  0  0  0  0
    2.5968   -0.8598    0.1923 C   0  0  0  0  0  0  0  0  0  0  0  0
    4.0460   -0.7446    0.4198 C   0  0  0  0  0  0  0  0  0  0  0  0
    4.8951   -0.2293   -0.4797 C   0  0  0  0  0  0  0  0  0  0  0  0
    4.6375    0.2158   -1.8588 C   0  0  0  0  0  0  0  0  0  0  0  0
    3.5344    0.1522   -2.4624 O   0  0  0  0  0  0  0  0  0  0  0  0
    5.8380    0.6703   -2.4769 N   0  0  0  0  0  0  0  0  0  0  0  0
    6.8463    0.4829   -1.4907 C   0  0  0  0  0  0  0  0  0  0  0  0
    6.3390   -0.0436   -0.3168 C   0  0  0  0  0  0  0  0  0  0  0  0
    7.1677   -0.3037    0.7773 C   0  0  0  0  0  0  0  0  0  0  0  0
    8.5400   -0.0207    0.6562 C   0  0  0  0  0  0  0  0  0  0  0  0
    9.6167   -0.3327    2.0050 Cl  0  0  0  0  0  0  0  0  0  0  0  0
    9.0546    0.5131   -0.5443 C   0  0  0  0  0  0  0  0  0  0  0  0
    8.2030    0.7690   -1.6320 C   0  0  0  0  0  0  0  0  0  0  0  0
    1.7044    0.1795   -0.0388 C   0  0  0  0  0  0  0  0  0  0  0  0
    2.0171    1.6462   -0.0986 C   0  0  0  0  0  0  0  0  0  0  0  0
   -6.3035    3.2598    1.6817 H   0  0  0  0  0  0  0  0  0  0  0  0
   -6.3958    1.6202    2.4140 H   0  0  0  0  0  0  0  0  0  0  0  0
   -4.8061    2.2973    1.8788 H   0  0  0  0  0  0  0  0  0  0  0  0
   -7.1552    1.8520   -0.0697 H   0  0  0  0  0  0  0  0  0  0  0  0
   -5.4792    2.2204   -0.4900 H   0  0  0  0  0  0  0  0  0  0  0  0
   -6.5250   -1.5839    1.0924 H   0  0  0  0  0  0  0  0  0  0  0  0
   -7.4844   -0.1222    1.4383 H   0  0  0  0  0  0  0  0  0  0  0  0
   -8.3164   -0.1155   -0.9308 H   0  0  0  0  0  0  0  0  0  0  0  0
   -8.6609   -1.6767   -0.0948 H   0  0  0  0  0  0  0  0  0  0  0  0
   -7.3001   -1.5718   -1.2780 H   0  0  0  0  0  0  0  0  0  0  0  0
   -4.3681   -1.3087    0.4875 H   0  0  0  0  0  0  0  0  0  0  0  0
   -4.3921   -0.0051    1.7149 H   0  0  0  0  0  0  0  0  0  0  0  0
   -3.3163    1.5446    0.0570 H   0  0  0  0  0  0  0  0  0  0  0  0
   -3.4947    0.2965   -1.2380 H   0  0  0  0  0  0  0  0  0  0  0  0
   -2.0042   -0.8219    1.0075 H   0  0  0  0  0  0  0  0  0  0  0  0
    0.0354   -3.8009   -0.2668 H   0  0  0  0  0  0  0  0  0  0  0  0
   -1.2060   -2.5792   -0.7137 H   0  0  0  0  0  0  0  0  0  0  0  0
   -0.8703   -2.9411    1.0345 H   0  0  0  0  0  0  0  0  0  0  0  0
    2.3571   -2.9666    0.4581 H   0  0  0  0  0  0  0  0  0  0  0  0
    4.4346   -1.1380    1.3496 H   0  0  0  0  0  0  0  0  0  0  0  0
    5.9588    1.0164   -3.4545 H   0  0  0  0  0  0  0  0  0  0  0  0
    6.7679   -0.7114    1.6962 H   0  0  0  0  0  0  0  0  0  0  0  0
   10.1117    0.7286   -0.6323 H   0  0  0  0  0  0  0  0  0  0  0  0
    8.5912    1.1783   -2.5555 H   0  0  0  0  0  0  0  0  0  0  0  0
    3.0458    1.8502    0.2629 H   0  0  0  0  0  0  0  0  0  0  0  0
    1.3077    2.2072    0.5450 H   0  0  0  0  0  0  0  0  0  0  0  0
    1.9228    2.0057   -1.1440 H   0  0  0  0  0  0  0  0  0  0  0  0
  1  2  1  0
  2  3  1  0
  3  4  1  0
  4  5  1  0
  3  6  1  0
  6  7  1  0
  7  8  1  0
  8  9  1  0
  9 10  2  0
  9 11  1  0
 11 12  2  0
 12 13  1  0
 12 14  1  0
 14 15  1  0
 15 16  1  0
 16 17  2  0
 17 18  1  0
 18 19  2  0
 18 20  1  0
 20 21  1  0
 21 22  2  0
 22 23  1  0
 23 24  2  0
 24 25  1  0
 24 26  1  0
 26 27  2  0
 15 28  2  0
 28 29  1  0
 28 11  1  0
 22 17  1  0
 27 21  1  0
  1 30  1  0
  1 31  1  0
  1 32  1  0
  2 33  1  0
  2 34  1  0
  4 35  1  0
  4 36  1  0
  5 37  1  0
  5 38  1  0
  5 39  1  0
  6 40  1  0
  6 41  1  0
  7 42  1  0
  7 43  1  0
  8 44  1  0
 13 45  1  0
 13 46  1  0
 13 47  1  0
 14 48  1  0
 16 49  1  0
 20 50  1  0
 23 51  1  0
 26 52  1  0
 27 53  1  0
 29 54  1  0
 29 55  1  0
 29 56  1  0
M  END
$$$$
