
     RDKit          3D

 64 65  0  0  0  0  0  0  0  0999 V2000
    2.8471   -0.2435    0.6109 C   0  0  2  0  0  0  0  0  0  0  0  0
    3.4832   -0.6478   -0.7401 C   0  0  0  0  0  0  0  0  0  0  0  0
    4.4706   -1.8303   -0.6403 C   0  0  0  0  0  0  0  0  0  0  0  0
    3.7818   -3.2065   -0.5194 C   0  0  0  0  0  0  0  0  0  0  0  0
    3.5687   -3.8974   -1.8742 C   0  0  0  0  0  0  0  0  0  0  0  0
    2.6042   -3.1705   -2.6931 N   0  0  0  0  0  0  0  0  0  0  0  0
    1.7609    0.7154    0.3860 N   0  0  0  0  0  0  0  0  0  0  0  0
    0.7911    1.0331    1.3958 C   0  0  0  0  0  0  0  0  0  0  0  0
    0.7803    0.4000    2.4873 O   0  0  0  0  0  0  0  0  0  0  0  0
   -0.1544    2.1874    1.1808 C   0  0  2  0  0  0  0  0  0  0  0  0
    0.5401    3.5134    1.5121 C   0  0  0  0  0  0  0  0  0  0  0  0
   -0.4497    4.3081    2.3584 C   0  0  0  0  0  0  0  0  0  0  0  0
   -1.4276    3.2892    2.9227 C   0  0  0  0  0  0  0  0  0  0  0  0
   -1.3090    2.1188    2.0721 N   0  0  0  0  0  0  0  0  0  0  0  0
   -2.2921    1.0664    2.1048 C   0  0  0  0  0  0  0  0  0  0  0  0
   -2.8158    0.7549    3.2086 O   0  0  0  0  0  0  0  0  0  0  0  0
   -2.7920    0.3842    0.8525 C   0  0  1  0  0  0  0  0  0  0  0  0
   -3.4463    1.4069   -0.0983 C   0  0  0  0  0  0  0  0  0  0  0  0
   -4.0949    0.7273   -1.2780 C   0  0  0  0  0  0  0  0  0  0  0  0
   -3.4421    0.6797   -2.5218 C   0  0  0  0  0  0  0  0  0  0  0  0
   -4.0359    0.0235   -3.6043 C   0  0  0  0  0  0  0  0  0  0  0  0
   -5.2816   -0.5918   -3.4532 C   0  0  0  0  0  0  0  0  0  0  0  0
   -5.9351   -0.5530   -2.2186 C   0  0  0  0  0  0  0  0  0  0  0  0
   -5.3447    0.1017   -1.1332 C   0  0  0  0  0  0  0  0  0  0  0  0
   -1.7118   -0.3549    0.1930 N   0  0  0  0  0  0  0  0  0  0  0  0
   -1.2383   -1.6130    0.6938 C   0  0  0  0  0  0  0  0  0  0  0  0
   -0.2326   -2.3978   -0.0814 C   0  0  0  0  0  0  0  0  0  0  0  0
   -1.7008   -2.0880    1.7661 O   0  0  0  0  0  0  0  0  0  0  0  0
    3.9310    0.4169    1.5949 B   0  0  0  0  0  0  0  0  0  0  0  0
    4.2108   -0.1976    2.8902 O   0  0  0  0  0  0  0  0  0  0  0  0
    4.6141    1.6509    1.2134 O   0  0  0  0  0  0  0  0  0  0  0  0
    2.4286   -1.1478    1.0999 H   0  0  0  0  0  0  0  0  0  0  0  0
    2.6783   -0.8994   -1.4612 H   0  0  0  0  0  0  0  0  0  0  0  0
    4.0203    0.2279   -1.1680 H   0  0  0  0  0  0  0  0  0  0  0  0
    5.1326   -1.8188   -1.5335 H   0  0  0  0  0  0  0  0  0  0  0  0
    5.1405   -1.6839    0.2333 H   0  0  0  0  0  0  0  0  0  0  0  0
    4.4361   -3.8671    0.0902 H   0  0  0  0  0  0  0  0  0  0  0  0
    2.8154   -3.1325    0.0197 H   0  0  0  0  0  0  0  0  0  0  0  0
    3.2020   -4.9338   -1.6998 H   0  0  0  0  0  0  0  0  0  0  0  0
    4.5381   -3.9694   -2.4146 H   0  0  0  0  0  0  0  0  0  0  0  0
    1.6568   -3.2962   -2.2689 H   0  0  0  0  0  0  0  0  0  0  0  0
    2.5713   -3.6317   -3.6309 H   0  0  0  0  0  0  0  0  0  0  0  0
    1.7269    1.2485   -0.5131 H   0  0  0  0  0  0  0  0  0  0  0  0
   -0.4936    2.2051    0.1248 H   0  0  0  0  0  0  0  0  0  0  0  0
    0.8055    4.0678    0.5855 H   0  0  0  0  0  0  0  0  0  0  0  0
    1.4692    3.3538    2.1055 H   0  0  0  0  0  0  0  0  0  0  0  0
   -0.9961    5.0277    1.7094 H   0  0  0  0  0  0  0  0  0  0  0  0
    0.0649    4.8671    3.1699 H   0  0  0  0  0  0  0  0  0  0  0  0
   -1.1559    3.0195    3.9663 H   0  0  0  0  0  0  0  0  0  0  0  0
   -2.4644    3.6902    2.8926 H   0  0  0  0  0  0  0  0  0  0  0  0
   -3.5856   -0.3413    1.1440 H   0  0  0  0  0  0  0  0  0  0  0  0
   -4.2240    1.9773    0.4564 H   0  0  0  0  0  0  0  0  0  0  0  0
   -2.7013    2.1504   -0.4501 H   0  0  0  0  0  0  0  0  0  0  0  0
   -2.4747    1.1483   -2.6533 H   0  0  0  0  0  0  0  0  0  0  0  0
   -3.5294   -0.0096   -4.5603 H   0  0  0  0  0  0  0  0  0  0  0  0
   -5.7394   -1.1000   -4.2920 H   0  0  0  0  0  0  0  0  0  0  0  0
   -6.8985   -1.0324   -2.1018 H   0  0  0  0  0  0  0  0  0  0  0  0
   -5.8588    0.1196   -0.1801 H   0  0  0  0  0  0  0  0  0  0  0  0
   -1.2939    0.0162   -0.6900 H   0  0  0  0  0  0  0  0  0  0  0  0
    0.3775   -3.0211    0.6053 H   0  0  0  0  0  0  0  0  0  0  0  0
    0.4412   -1.7136   -0.6360 H   0  0  0  0  0  0  0  0  0  0  0  0
   -0.7562   -3.0563   -0.8048 H   0  0  0  0  0  0  0  0  0  0  0  0
    4.9560   -0.8257    2.7142 H   0  0  0  0  0  0  0  0  0  0  0  0
    4.0311    2.3756    1.5543 H   0  0  0  0  0  0  0  0  0  0  0  0
  1  2  1  0
  2  3  1  0
  3  4  1  0
  4  5  1  0
  5  6  1  0
  1  7  1  0
  7  8  1  0
  8  9  2  0
  8 10  1  0
 10 11  1  0
 11 12  1  0
 12 13  1  0
 13 14  1  0
 14 15  1  0
 15 16  2  0
 15 17  1  0
 17 18  1  0
 18 19  1  0
 19 20  2  0
 20 21  1  0
 21 22  2  0
 22 23  1  0
 23 24  2  0
 17 25  1  0
 25 26  1  0
 26 27  1  0
 26 28  2  0
  1 29  1  0
 29 30  1  0
 29 31  1  0
 14 10  1  0
 24 19  1  0
  1 32  1  1
  2 33  1  0
  2 34  1  0
  3 35  1  0
  3 36  1  0
  4 37  1  0
  4 38  1  0
  5 39  1  0
  5 40  1  0
  6 41  1  0
  6 42  1  0
  7 43  1  0
 10 44  1  6
 11 45  1  0
 11 46  1  0
 12 47  1  0
 12 48  1  0
 13 49  1  0
 13 50  1  0
 17 51  1  1
 18 52  1  0
 18 53  1  0
 20 54  1  0
 21 55  1  0
 22 56  1  0
 23 57  1  0
 24 58  1  0
 25 59  1  0
 27 60  1  0
 27 61  1  0
 27 62  1  0
 30 63  1  0
 31 64  1  0
M  END
$$$$
