
     RDKit          3D

 50 52  0  0  0  0  0  0  0  0999 V2000
    4.8318    3.3023    0.1947 C   0  0  0  0  0  0  0  0  0  0  0  0
    5.2666    1.9929    0.5406 O   0  0  0  0  0  0  0  0  0  0  0  0
    4.4784    1.1087    1.2841 C   0  0  0  0  0  0  0  0  0  0  0  0
    3.3231    1.4501    1.6600 O   0  0  0  0  0  0  0  0  0  0  0  0
    4.9850   -0.2456    1.5952 C   0  0  0  0  0  0  0  0  0  0  0  0
    6.3169   -0.4449    2.0358 C   0  0  0  0  0  0  0  0  0  0  0  0
    7.1826    0.6179    2.3045 O   0  0  0  0  0  0  0  0  0  0  0  0
    6.7927   -1.7425    2.2463 C   0  0  0  0  0  0  0  0  0  0  0  0
    5.9578   -2.8420    2.0605 C   0  0  0  0  0  0  0  0  0  0  0  0
    4.6367   -2.6579    1.6566 C   0  0  0  0  0  0  0  0  0  0  0  0
    4.1382   -1.3635    1.4144 C   0  0  0  0  0  0  0  0  0  0  0  0
    2.8196   -1.1556    0.9760 O   0  0  0  0  0  0  0  0  0  0  0  0
    1.8729   -2.1897    0.7197 C   0  0  0  0  0  0  0  0  0  0  0  0
    0.5851   -1.5831    0.2589 C   0  0  0  0  0  0  0  0  0  0  0  0
    0.5250   -0.8772   -0.8772 C   0  0  0  0  0  0  0  0  0  0  0  0
   -0.7086   -0.2274   -1.3832 C   0  0  0  0  0  0  0  0  0  0  0  0
   -1.9988   -0.6458   -0.9980 C   0  0  0  0  0  0  0  0  0  0  0  0
   -3.1395    0.0035   -1.4965 C   0  0  0  0  0  0  0  0  0  0  0  0
   -2.9902    1.0430   -2.4266 C   0  0  0  0  0  0  0  0  0  0  0  0
   -1.7168    1.4512   -2.8256 C   0  0  0  0  0  0  0  0  0  0  0  0
   -0.5829    0.8215   -2.3082 C   0  0  0  0  0  0  0  0  0  0  0  0
   -4.4784   -0.4701   -1.0982 C   0  0  0  0  0  0  0  0  0  0  0  0
   -5.5881    0.2838   -0.7407 C   0  0  0  0  0  0  0  0  0  0  0  0
   -5.6680    1.7677   -0.4987 C   0  0  0  0  0  0  0  0  0  0  0  0
   -5.8550    2.0252    0.8660 O   0  0  0  0  0  0  0  0  0  0  0  0
   -6.5564   -0.6715   -0.4628 C   0  0  0  0  0  0  0  0  0  0  0  0
   -6.0341   -1.8997   -0.6475 N   0  0  0  0  0  0  0  0  0  0  0  0
   -4.7979   -1.7416   -1.0208 O   0  0  0  0  0  0  0  0  0  0  0  0
   -7.9381   -0.4486   -0.0065 C   0  0  0  0  0  0  0  0  0  0  0  0
   -8.4434    0.8399    0.1338 O   0  0  0  0  0  0  0  0  0  0  0  0
   -8.6753   -1.4368    0.2534 O   0  0  0  0  0  0  0  0  0  0  0  0
    3.9102    3.2461   -0.4226 H   0  0  0  0  0  0  0  0  0  0  0  0
    5.6270    3.8074   -0.3910 H   0  0  0  0  0  0  0  0  0  0  0  0
    4.6327    3.8918    1.1146 H   0  0  0  0  0  0  0  0  0  0  0  0
    6.8885    1.5853    2.3143 H   0  0  0  0  0  0  0  0  0  0  0  0
    7.8122   -1.8973    2.5766 H   0  0  0  0  0  0  0  0  0  0  0  0
    6.3345   -3.8413    2.2372 H   0  0  0  0  0  0  0  0  0  0  0  0
    4.0131   -3.5313    1.5249 H   0  0  0  0  0  0  0  0  0  0  0  0
    1.6893   -2.7658    1.6520 H   0  0  0  0  0  0  0  0  0  0  0  0
    2.2593   -2.8758   -0.0652 H   0  0  0  0  0  0  0  0  0  0  0  0
   -0.2856   -1.7099    0.8874 H   0  0  0  0  0  0  0  0  0  0  0  0
    1.4400   -0.7302   -1.4410 H   0  0  0  0  0  0  0  0  0  0  0  0
   -2.1296   -1.4804   -0.3224 H   0  0  0  0  0  0  0  0  0  0  0  0
   -3.8574    1.5178   -2.8679 H   0  0  0  0  0  0  0  0  0  0  0  0
   -1.6080    2.2519   -3.5458 H   0  0  0  0  0  0  0  0  0  0  0  0
    0.3961    1.1544   -2.6314 H   0  0  0  0  0  0  0  0  0  0  0  0
   -4.7569    2.2925   -0.8530 H   0  0  0  0  0  0  0  0  0  0  0  0
   -6.5261    2.1824   -1.0665 H   0  0  0  0  0  0  0  0  0  0  0  0
   -4.9856    1.8434    1.3104 H   0  0  0  0  0  0  0  0  0  0  0  0
   -9.3946    0.9947    0.4458 H   0  0  0  0  0  0  0  0  0  0  0  0
  1  2  1  0
  2  3  1  0
  3  4  2  0
  3  5  1  0
  5  6  2  0
  6  7  1  0
  6  8  1  0
  8  9  2  0
  9 10  1  0
 10 11  2  0
 11 12  1  0
 12 13  1  0
 13 14  1  0
 14 15  2  0
 15 16  1  0
 16 17  2  0
 17 18  1  0
 18 19  2  0
 19 20  1  0
 20 21  2  0
 18 22  1  0
 22 23  2  0
 23 24  1  0
 24 25  1  0
 23 26  1  0
 26 27  2  0
 27 28  1  0
 26 29  1  0
 29 30  1  0
 29 31  2  0
 11  5  1  0
 21 16  1  0
 28 22  1  0
  1 32  1  0
  1 33  1  0
  1 34  1  0
  7 35  1  0
  8 36  1  0
  9 37  1  0
 10 38  1  0
 13 39  1  0
 13 40  1  0
 14 41  1  0
 15 42  1  0
 17 43  1  0
 19 44  1  0
 20 45  1  0
 21 46  1  0
 24 47  1  0
 24 48  1  0
 25 49  1  0
 30 50  1  0
M  END
$$$$
