
     RDKit          3D

 62 65  0  0  0  0  0  0  0  0999 V2000
   -1.3712   -2.9793    3.2437 C   0  0  0  0  0  0  0  0  0  0  0  0
   -1.4392   -1.8583    2.3689 O   0  0  0  0  0  0  0  0  0  0  0  0
   -0.5622   -0.7644    2.4122 C   0  0  0  0  0  0  0  0  0  0  0  0
    0.4754   -0.6662    3.3544 C   0  0  0  0  0  0  0  0  0  0  0  0
    1.3392    0.4296    3.3353 C   0  0  0  0  0  0  0  0  0  0  0  0
    1.1779    1.4438    2.3861 C   0  0  0  0  0  0  0  0  0  0  0  0
    2.2981    2.8000    2.4130 Cl  0  0  0  0  0  0  0  0  0  0  0  0
    0.1263    1.3743    1.4501 C   0  0  0  0  0  0  0  0  0  0  0  0
   -0.0129    2.3885    0.4353 N   0  0  0  0  0  0  0  0  0  0  0  0
   -1.2647    2.7429   -0.1772 C   0  0  0  0  0  0  0  0  0  0  0  0
   -1.3030    3.3970   -1.4265 C   0  0  0  0  0  0  0  0  0  0  0  0
   -0.1081    3.6936   -2.1522 N   0  0  0  0  0  0  0  0  0  0  0  0
    0.7690    2.4589   -2.9971 S   0  0  0  0  0  6  0  0  0  0  0  0
    2.2335    2.7952   -2.9626 O   0  0  0  0  0  0  0  0  0  0  0  0
    0.3174    2.4236   -4.4299 O   0  0  0  0  0  0  0  0  0  0  0  0
    0.5194    0.8664   -2.2810 C   0  0  0  0  0  0  0  0  0  0  0  0
    1.5108    0.2833   -1.4782 C   0  0  0  0  0  0  0  0  0  0  0  0
    1.3186   -0.9878   -0.9156 C   0  0  0  0  0  0  0  0  0  0  0  0
    2.3301   -1.5347   -0.0525 N   0  0  0  0  0  0  0  0  0  0  0  0
    2.6231   -2.9397    0.0517 C   0  0  0  0  0  0  0  0  0  0  0  0
    2.1600   -3.7400   -0.8074 O   0  0  0  0  0  0  0  0  0  0  0  0
    3.5608   -3.4566    1.1358 C   0  0  0  0  0  0  0  0  0  0  0  0
    3.1273   -2.9202    2.5118 C   0  0  0  0  0  0  0  0  0  0  0  0
    4.9967   -2.9927    0.8353 C   0  0  0  0  0  0  0  0  0  0  0  0
    3.5417   -4.9263    1.1902 N   0  0  0  0  0  0  0  0  0  0  0  0
    0.1065   -1.6632   -1.1459 C   0  0  0  0  0  0  0  0  0  0  0  0
   -0.8822   -1.0828   -1.9450 C   0  0  0  0  0  0  0  0  0  0  0  0
   -0.6769    0.1765   -2.5130 C   0  0  0  0  0  0  0  0  0  0  0  0
   -2.5015    3.7856   -1.9393 N   0  0  0  0  0  0  0  0  0  0  0  0
   -3.6660    3.5387   -1.2865 C   0  0  0  0  0  0  0  0  0  0  0  0
   -4.8909    3.9330   -1.8358 C   0  0  0  0  0  0  0  0  0  0  0  0
   -6.0797    3.6687   -1.1463 C   0  0  0  0  0  0  0  0  0  0  0  0
   -6.0455    3.0131    0.0904 C   0  0  0  0  0  0  0  0  0  0  0  0
   -4.8222    2.6190    0.6441 C   0  0  0  0  0  0  0  0  0  0  0  0
   -3.6319    2.8800   -0.0429 C   0  0  0  0  0  0  0  0  0  0  0  0
   -2.4350    2.5116    0.4804 N   0  0  0  0  0  0  0  0  0  0  0  0
   -0.7306    0.2571    1.4722 C   0  0  0  0  0  0  0  0  0  0  0  0
   -1.5058   -2.6516    4.2961 H   0  0  0  0  0  0  0  0  0  0  0  0
   -2.1835   -3.6894    2.9861 H   0  0  0  0  0  0  0  0  0  0  0  0
   -0.3967   -3.4974    3.1255 H   0  0  0  0  0  0  0  0  0  0  0  0
    0.6300   -1.4359    4.0980 H   0  0  0  0  0  0  0  0  0  0  0  0
    2.1416    0.4871    4.0600 H   0  0  0  0  0  0  0  0  0  0  0  0
    0.8448    2.8958    0.1229 H   0  0  0  0  0  0  0  0  0  0  0  0
    0.0064    4.6674   -2.5108 H   0  0  0  0  0  0  0  0  0  0  0  0
    2.4313    0.8180   -1.2814 H   0  0  0  0  0  0  0  0  0  0  0  0
    2.9473   -0.8606    0.4530 H   0  0  0  0  0  0  0  0  0  0  0  0
    3.2293   -1.8163    2.5697 H   0  0  0  0  0  0  0  0  0  0  0  0
    3.7569   -3.3637    3.3130 H   0  0  0  0  0  0  0  0  0  0  0  0
    2.0691   -3.1896    2.7139 H   0  0  0  0  0  0  0  0  0  0  0  0
    5.0745   -1.8848    0.8577 H   0  0  0  0  0  0  0  0  0  0  0  0
    5.3161   -3.3453   -0.1691 H   0  0  0  0  0  0  0  0  0  0  0  0
    5.7007   -3.4060    1.5894 H   0  0  0  0  0  0  0  0  0  0  0  0
    2.5609   -5.2589    1.3435 H   0  0  0  0  0  0  0  0  0  0  0  0
    3.8657   -5.3212    0.2764 H   0  0  0  0  0  0  0  0  0  0  0  0
   -0.0944   -2.6174   -0.6778 H   0  0  0  0  0  0  0  0  0  0  0  0
   -1.8162   -1.6036   -2.1113 H   0  0  0  0  0  0  0  0  0  0  0  0
   -1.4542    0.6193   -3.1228 H   0  0  0  0  0  0  0  0  0  0  0  0
   -4.9244    4.4407   -2.7918 H   0  0  0  0  0  0  0  0  0  0  0  0
   -7.0282    3.9722   -1.5701 H   0  0  0  0  0  0  0  0  0  0  0  0
   -6.9676    2.8114    0.6200 H   0  0  0  0  0  0  0  0  0  0  0  0
   -4.8023    2.1135    1.6017 H   0  0  0  0  0  0  0  0  0  0  0  0
   -1.5098    0.1485    0.7302 H   0  0  0  0  0  0  0  0  0  0  0  0
  1  2  1  0
  2  3  1  0
  3  4  2  0
  4  5  1  0
  5  6  2  0
  6  7  1  0
  6  8  1  0
  8  9  1  0
  9 10  1  0
 10 11  1  0
 11 12  1  0
 12 13  1  0
 13 14  2  0
 13 15  2  0
 13 16  1  0
 16 17  2  0
 17 18  1  0
 18 19  1  0
 19 20  1  0
 20 21  2  0
 20 22  1  0
 22 23  1  0
 22 24  1  0
 22 25  1  0
 18 26  2  0
 26 27  1  0
 27 28  2  0
 11 29  2  0
 29 30  1  0
 30 31  2  0
 31 32  1  0
 32 33  2  0
 33 34  1  0
 34 35  2  0
 35 36  1  0
  8 37  2  0
 37  3  1  0
 36 10  2  0
 28 16  1  0
 35 30  1  0
  1 38  1  0
  1 39  1  0
  1 40  1  0
  4 41  1  0
  5 42  1  0
  9 43  1  0
 12 44  1  0
 17 45  1  0
 19 46  1  0
 23 47  1  0
 23 48  1  0
 23 49  1  0
 24 50  1  0
 24 51  1  0
 24 52  1  0
 25 53  1  0
 25 54  1  0
 26 55  1  0
 27 56  1  0
 28 57  1  0
 31 58  1  0
 32 59  1  0
 33 60  1  0
 34 61  1  0
 37 62  1  0
M  END
$$$$
