
     RDKit          3D

 40 40  0  0  0  0  0  0  0  0999 V2000
    4.8764   -2.0880    0.9494 C   0  0  0  0  0  0  0  0  0  0  0  0
    5.1746   -0.7013    1.4544 C   0  0  0  0  0  0  0  0  0  0  0  0
    6.5270   -0.2404    1.4648 N   0  0  0  0  0  0  0  0  0  0  0  0
    4.2460    0.0735    1.9408 N   0  0  0  0  0  0  0  0  0  0  0  0
    2.8152   -0.2241    2.0159 C   0  0  0  0  0  0  0  0  0  0  0  0
    2.1138    0.1982    0.7212 C   0  0  0  0  0  0  0  0  0  0  0  0
    0.6143   -0.1316    0.7739 C   0  0  0  0  0  0  0  0  0  0  0  0
   -0.1294    0.3306   -0.4940 C   0  0  2  0  0  0  0  0  0  0  0  0
   -1.5755    0.1796   -0.3094 N   0  0  0  0  0  0  0  0  0  0  0  0
   -2.5242    0.9478   -1.0686 C   0  0  0  0  0  0  0  0  0  0  0  0
   -2.1171    1.6942   -2.0011 O   0  0  0  0  0  0  0  0  0  0  0  0
   -3.9776    0.8646   -0.7868 C   0  0  0  0  0  0  0  0  0  0  0  0
   -4.9094    1.2031   -1.7862 C   0  0  0  0  0  0  0  0  0  0  0  0
   -6.2820    1.1327   -1.5293 C   0  0  0  0  0  0  0  0  0  0  0  0
   -6.7400    0.7322   -0.2724 C   0  0  0  0  0  0  0  0  0  0  0  0
   -5.8259    0.4055    0.7315 C   0  0  0  0  0  0  0  0  0  0  0  0
   -4.4519    0.4730    0.4800 C   0  0  0  0  0  0  0  0  0  0  0  0
    0.3094   -0.4612   -1.6987 C   0  0  0  0  0  0  0  0  0  0  0  0
    1.1442    0.1347   -2.6919 N   0  0  0  0  0  0  0  0  0  0  0  0
   -0.0400   -1.6661   -1.8214 O   0  0  0  0  0  0  0  0  0  0  0  0
    5.7749   -2.5334    0.4737 H   0  0  0  0  0  0  0  0  0  0  0  0
    4.5728   -2.7375    1.7967 H   0  0  0  0  0  0  0  0  0  0  0  0
    4.0686   -2.0660    0.1911 H   0  0  0  0  0  0  0  0  0  0  0  0
    6.7584    0.7107    1.8293 H   0  0  0  0  0  0  0  0  0  0  0  0
    7.3036   -0.8420    1.1112 H   0  0  0  0  0  0  0  0  0  0  0  0
    2.3855    0.3572    2.8594 H   0  0  0  0  0  0  0  0  0  0  0  0
    2.6436   -1.3006    2.2323 H   0  0  0  0  0  0  0  0  0  0  0  0
    2.5795   -0.3217   -0.1413 H   0  0  0  0  0  0  0  0  0  0  0  0
    2.2485    1.2928    0.5786 H   0  0  0  0  0  0  0  0  0  0  0  0
    0.1669    0.3824    1.6534 H   0  0  0  0  0  0  0  0  0  0  0  0
    0.4767   -1.2270    0.9137 H   0  0  0  0  0  0  0  0  0  0  0  0
    0.0981    1.4090   -0.6498 H   0  0  0  0  0  0  0  0  0  0  0  0
   -1.9203   -0.6135    0.2775 H   0  0  0  0  0  0  0  0  0  0  0  0
   -4.5769    1.5120   -2.7696 H   0  0  0  0  0  0  0  0  0  0  0  0
   -6.9912    1.3891   -2.3058 H   0  0  0  0  0  0  0  0  0  0  0  0
   -7.8028    0.6797   -0.0749 H   0  0  0  0  0  0  0  0  0  0  0  0
   -6.1822    0.1056    1.7086 H   0  0  0  0  0  0  0  0  0  0  0  0
   -3.7680    0.2416    1.2856 H   0  0  0  0  0  0  0  0  0  0  0  0
    1.4527   -0.4197   -3.5211 H   0  0  0  0  0  0  0  0  0  0  0  0
    1.4637    1.1243   -2.5993 H   0  0  0  0  0  0  0  0  0  0  0  0
  1  2  1  0
  2  3  1  0
  2  4  2  0
  4  5  1  0
  5  6  1  0
  6  7  1  0
  7  8  1  0
  8  9  1  0
  9 10  1  0
 10 11  2  0
 10 12  1  0
 12 13  2  0
 13 14  1  0
 14 15  2  0
 15 16  1  0
 16 17  2  0
  8 18  1  0
 18 19  1  0
 18 20  2  0
 17 12  1  0
  1 21  1  0
  1 22  1  0
  1 23  1  0
  3 24  1  0
  3 25  1  0
  5 26  1  0
  5 27  1  0
  6 28  1  0
  6 29  1  0
  7 30  1  0
  7 31  1  0
  8 32  1  6
  9 33  1  0
 13 34  1  0
 14 35  1  0
 15 36  1  0
 16 37  1  0
 17 38  1  0
 19 39  1  0
 19 40  1  0
M  END
$$$$
