
     RDKit          3D

 70 73  0  0  0  0  0  0  0  0999 V2000
    8.8595    3.4362    3.0628 C   0  0  0  0  0  0  0  0  0  0  0  0
    9.3622    2.8364    1.8732 O   0  0  0  0  0  0  0  0  0  0  0  0
    8.6314    1.9625    1.0539 C   0  0  0  0  0  0  0  0  0  0  0  0
    7.3078    1.5890    1.3376 C   0  0  0  0  0  0  0  0  0  0  0  0
    6.6066    0.7078    0.4897 C   0  0  0  0  0  0  0  0  0  0  0  0
    7.2355    0.1919   -0.6662 C   0  0  0  0  0  0  0  0  0  0  0  0
    8.5689    0.5784   -0.9305 C   0  0  0  0  0  0  0  0  0  0  0  0
    9.2512    1.4492   -0.0827 C   0  0  0  0  0  0  0  0  0  0  0  0
    6.5190   -0.7610   -1.6349 C   0  0  0  0  0  0  0  0  0  0  0  0
    6.4697   -0.1135   -3.0378 C   0  0  0  0  0  0  0  0  0  0  0  0
    7.2954   -2.0944   -1.7044 C   0  0  0  0  0  0  0  0  0  0  0  0
    5.0880   -1.0861   -1.2251 C   0  0  0  0  0  0  0  0  0  0  0  0
    4.3941   -1.8136   -1.9908 O   0  0  0  0  0  0  0  0  0  0  0  0
    4.5090   -0.6108    0.0036 N   0  0  0  0  0  0  0  0  0  0  0  0
    3.1343   -0.9954    0.3620 C   0  0  0  0  0  0  0  0  0  0  0  0
    2.1317   -0.0155   -0.2534 C   0  0  0  0  0  0  0  0  0  0  0  0
    0.7229   -0.4030    0.1057 C   0  0  0  0  0  0  0  0  0  0  0  0
    0.0056   -1.2967   -0.7053 C   0  0  0  0  0  0  0  0  0  0  0  0
   -1.2914   -1.6821   -0.3540 C   0  0  0  0  0  0  0  0  0  0  0  0
   -1.8799   -1.1913    0.8192 C   0  0  0  0  0  0  0  0  0  0  0  0
   -1.1641   -0.3034    1.6335 C   0  0  0  0  0  0  0  0  0  0  0  0
    0.1329    0.0828    1.2833 C   0  0  0  0  0  0  0  0  0  0  0  0
   -3.5199   -1.6636    1.2515 S   0  0  0  0  0  6  0  0  0  0  0  0
   -3.7932   -3.0515    0.7430 O   0  0  0  0  0  0  0  0  0  0  0  0
   -3.6696   -1.6488    2.7472 O   0  0  0  0  0  0  0  0  0  0  0  0
   -4.6380   -0.5488    0.5403 N   0  0  0  0  0  0  0  0  0  0  0  0
   -6.0518   -0.6859    0.7137 C   0  0  0  0  0  0  0  0  0  0  0  0
   -6.5138   -1.6335    1.4061 O   0  0  0  0  0  0  0  0  0  0  0  0
   -6.9388    0.2611    0.1025 N   0  0  0  0  0  0  0  0  0  0  0  0
   -8.3973    0.1571    0.2153 C   0  0  0  0  0  0  0  0  0  0  0  0
   -8.9192   -0.9607   -0.7072 C   0  0  0  0  0  0  0  0  0  0  0  0
  -10.4488   -1.0592   -0.6449 C   0  0  0  0  0  0  0  0  0  0  0  0
  -11.1031    0.2827   -0.9946 C   0  0  0  0  0  0  0  0  0  0  0  0
  -10.5867    1.4006   -0.0811 C   0  0  0  0  0  0  0  0  0  0  0  0
   -9.0577    1.5013   -0.1478 C   0  0  0  0  0  0  0  0  0  0  0  0
    5.2227    0.3262    0.8221 C   0  0  0  0  0  0  0  0  0  0  0  0
    4.6615    0.8280    1.8359 O   0  0  0  0  0  0  0  0  0  0  0  0
    7.9768    4.0680    2.8284 H   0  0  0  0  0  0  0  0  0  0  0  0
    8.5845    2.6519    3.7993 H   0  0  0  0  0  0  0  0  0  0  0  0
    9.6479    4.0784    3.5059 H   0  0  0  0  0  0  0  0  0  0  0  0
    6.8214    1.9806    2.2205 H   0  0  0  0  0  0  0  0  0  0  0  0
    9.0942    0.2083   -1.8001 H   0  0  0  0  0  0  0  0  0  0  0  0
   10.2719    1.7279   -0.3126 H   0  0  0  0  0  0  0  0  0  0  0  0
    5.9238    0.8541   -2.9953 H   0  0  0  0  0  0  0  0  0  0  0  0
    5.9525   -0.7749   -3.7662 H   0  0  0  0  0  0  0  0  0  0  0  0
    7.4866    0.0762   -3.4393 H   0  0  0  0  0  0  0  0  0  0  0  0
    6.7918   -2.8138   -2.3861 H   0  0  0  0  0  0  0  0  0  0  0  0
    8.3267   -1.9494   -2.0877 H   0  0  0  0  0  0  0  0  0  0  0  0
    7.3585   -2.5556   -0.6948 H   0  0  0  0  0  0  0  0  0  0  0  0
    2.9187   -2.0283    0.0101 H   0  0  0  0  0  0  0  0  0  0  0  0
    3.0144   -1.0144    1.4677 H   0  0  0  0  0  0  0  0  0  0  0  0
    2.3450    1.0136    0.1099 H   0  0  0  0  0  0  0  0  0  0  0  0
    2.2507   -0.0050   -1.3589 H   0  0  0  0  0  0  0  0  0  0  0  0
    0.4508   -1.6939   -1.6092 H   0  0  0  0  0  0  0  0  0  0  0  0
   -1.8349   -2.3630   -0.9965 H   0  0  0  0  0  0  0  0  0  0  0  0
   -1.6084    0.0896    2.5390 H   0  0  0  0  0  0  0  0  0  0  0  0
    0.6774    0.7606    1.9292 H   0  0  0  0  0  0  0  0  0  0  0  0
   -4.2614    0.2390   -0.0320 H   0  0  0  0  0  0  0  0  0  0  0  0
   -6.5179    1.0662   -0.4150 H   0  0  0  0  0  0  0  0  0  0  0  0
   -8.6618   -0.0828    1.2702 H   0  0  0  0  0  0  0  0  0  0  0  0
   -8.4865   -1.9367   -0.4001 H   0  0  0  0  0  0  0  0  0  0  0  0
   -8.6028   -0.7623   -1.7553 H   0  0  0  0  0  0  0  0  0  0  0  0
  -10.7960   -1.8339   -1.3619 H   0  0  0  0  0  0  0  0  0  0  0  0
  -10.7614   -1.3725    0.3756 H   0  0  0  0  0  0  0  0  0  0  0  0
  -12.2049    0.1947   -0.8799 H   0  0  0  0  0  0  0  0  0  0  0  0
  -10.8882    0.5379   -2.0558 H   0  0  0  0  0  0  0  0  0  0  0  0
  -11.0323    2.3681   -0.3978 H   0  0  0  0  0  0  0  0  0  0  0  0
  -10.9036    1.2041    0.9668 H   0  0  0  0  0  0  0  0  0  0  0  0
   -8.7149    2.2851    0.5620 H   0  0  0  0  0  0  0  0  0  0  0  0
   -8.7547    1.8098   -1.1732 H   0  0  0  0  0  0  0  0  0  0  0  0
  1  2  1  0
  2  3  1  0
  3  4  2  0
  4  5  1  0
  5  6  2  0
  6  7  1  0
  7  8  2  0
  6  9  1  0
  9 10  1  0
  9 11  1  0
  9 12  1  0
 12 13  2  0
 12 14  1  0
 14 15  1  0
 15 16  1  0
 16 17  1  0
 17 18  2  0
 18 19  1  0
 19 20  2  0
 20 21  1  0
 21 22  2  0
 20 23  1  0
 23 24  2  0
 23 25  2  0
 23 26  1  0
 26 27  1  0
 27 28  2  0
 27 29  1  0
 29 30  1  0
 30 31  1  0
 31 32  1  0
 32 33  1  0
 33 34  1  0
 34 35  1  0
 14 36  1  0
 36 37  2  0
  8  3  1  0
 22 17  1  0
 35 30  1  0
 36  5  1  0
  1 38  1  0
  1 39  1  0
  1 40  1  0
  4 41  1  0
  7 42  1  0
  8 43  1  0
 10 44  1  0
 10 45  1  0
 10 46  1  0
 11 47  1  0
 11 48  1  0
 11 49  1  0
 15 50  1  0
 15 51  1  0
 16 52  1  0
 16 53  1  0
 18 54  1  0
 19 55  1  0
 21 56  1  0
 22 57  1  0
 26 58  1  0
 29 59  1  0
 30 60  1  0
 31 61  1  0
 31 62  1  0
 32 63  1  0
 32 64  1  0
 33 65  1  0
 33 66  1  0
 34 67  1  0
 34 68  1  0
 35 69  1  0
 35 70  1  0
M  END
$$$$
