
     RDKit          3D

 53 55  0  0  0  0  0  0  0  0999 V2000
    1.4478   -0.8398    0.8064 N   0  0  0  0  0  0  0  0  0  0  0  0
    0.1686   -0.4169    0.3047 C   0  0  0  0  0  0  0  0  0  0  0  0
    0.0103    0.8142   -0.3541 C   0  0  0  0  0  0  0  0  0  0  0  0
   -1.2491    1.2137   -0.8099 C   0  0  0  0  0  0  0  0  0  0  0  0
   -2.3725    0.4055   -0.6027 C   0  0  0  0  0  0  0  0  0  0  0  0
   -3.6114    0.8579   -1.0861 O   0  0  0  0  0  0  0  0  0  0  0  0
   -4.8705    0.2199   -0.8692 C   0  0  0  0  0  0  0  0  0  0  0  0
   -5.3708    0.4643    0.5666 C   0  0  1  0  0  0  0  0  0  0  0  0
   -5.6098    1.8331    0.7673 O   0  0  0  0  0  0  0  0  0  0  0  0
   -6.6525   -0.3342    0.8522 C   0  0  0  0  0  0  0  0  0  0  0  0
   -7.7448    0.0755   -0.0637 N   0  0  0  0  0  0  0  0  0  0  0  0
   -8.4484   -1.0968   -0.6074 C   0  0  0  0  0  0  0  0  0  0  0  0
   -8.7068    0.9623    0.6124 C   0  0  0  0  0  0  0  0  0  0  0  0
   -2.2181   -0.8198    0.0742 C   0  0  0  0  0  0  0  0  0  0  0  0
   -0.9585   -1.2188    0.5310 C   0  0  0  0  0  0  0  0  0  0  0  0
    2.6963   -0.5933    0.1438 C   0  0  0  0  0  0  0  0  0  0  0  0
    2.7287   -0.1766   -1.1513 N   0  0  0  0  0  0  0  0  0  0  0  0
    3.9075    0.0227   -1.7937 C   0  0  0  0  0  0  0  0  0  0  0  0
    5.1104   -0.2065   -1.1289 C   0  0  0  0  0  0  0  0  0  0  0  0
    5.0689   -0.6314    0.2071 C   0  0  0  0  0  0  0  0  0  0  0  0
    3.8623   -0.8321    0.8017 N   0  0  0  0  0  0  0  0  0  0  0  0
    6.2681   -0.9212    0.9430 N   0  0  0  0  0  0  0  0  0  0  0  0
    7.5495   -0.3267    0.6710 C   0  0  0  0  0  0  0  0  0  0  0  0
    8.7282   -1.0878    0.7994 C   0  0  0  0  0  0  0  0  0  0  0  0
    8.6703   -2.7950    1.2189 Cl  0  0  0  0  0  0  0  0  0  0  0  0
    9.9741   -0.4944    0.5637 C   0  0  0  0  0  0  0  0  0  0  0  0
   10.0572    0.8551    0.2138 C   0  0  0  0  0  0  0  0  0  0  0  0
    8.8945    1.6218    0.1022 C   0  0  0  0  0  0  0  0  0  0  0  0
    9.0010    3.3205   -0.3219 Cl  0  0  0  0  0  0  0  0  0  0  0  0
    7.6463    1.0363    0.3363 C   0  0  0  0  0  0  0  0  0  0  0  0
    1.4676   -1.4329    1.6670 H   0  0  0  0  0  0  0  0  0  0  0  0
    0.8519    1.4792   -0.4951 H   0  0  0  0  0  0  0  0  0  0  0  0
   -1.3553    2.1639   -1.3181 H   0  0  0  0  0  0  0  0  0  0  0  0
   -4.7969   -0.8657   -1.0943 H   0  0  0  0  0  0  0  0  0  0  0  0
   -5.6007    0.6516   -1.5862 H   0  0  0  0  0  0  0  0  0  0  0  0
   -4.5996    0.1126    1.2898 H   0  0  0  0  0  0  0  0  0  0  0  0
   -4.7263    2.2630    0.9099 H   0  0  0  0  0  0  0  0  0  0  0  0
   -6.4051   -1.4159    0.7442 H   0  0  0  0  0  0  0  0  0  0  0  0
   -6.9351   -0.1976    1.9215 H   0  0  0  0  0  0  0  0  0  0  0  0
   -8.8886   -1.7138    0.2076 H   0  0  0  0  0  0  0  0  0  0  0  0
   -9.2570   -0.7756   -1.2991 H   0  0  0  0  0  0  0  0  0  0  0  0
   -7.7435   -1.7213   -1.1976 H   0  0  0  0  0  0  0  0  0  0  0  0
   -9.2297    0.4330    1.4402 H   0  0  0  0  0  0  0  0  0  0  0  0
   -9.4617    1.3308   -0.1151 H   0  0  0  0  0  0  0  0  0  0  0  0
   -8.1892    1.8530    1.0261 H   0  0  0  0  0  0  0  0  0  0  0  0
   -3.0598   -1.4729    0.2548 H   0  0  0  0  0  0  0  0  0  0  0  0
   -0.8576   -2.1622    1.0531 H   0  0  0  0  0  0  0  0  0  0  0  0
    3.9100    0.3490   -2.8251 H   0  0  0  0  0  0  0  0  0  0  0  0
    6.0479   -0.0755   -1.6530 H   0  0  0  0  0  0  0  0  0  0  0  0
    6.1917   -1.5849    1.7462 H   0  0  0  0  0  0  0  0  0  0  0  0
   10.8806   -1.0799    0.6508 H   0  0  0  0  0  0  0  0  0  0  0  0
   11.0255    1.3046    0.0342 H   0  0  0  0  0  0  0  0  0  0  0  0
    6.7540    1.6461    0.2714 H   0  0  0  0  0  0  0  0  0  0  0  0
  1  2  1  0
  2  3  2  0
  3  4  1  0
  4  5  2  0
  5  6  1  0
  6  7  1  0
  7  8  1  0
  8  9  1  0
  8 10  1  0
 10 11  1  0
 11 12  1  0
 11 13  1  0
  5 14  1  0
 14 15  2  0
  1 16  1  0
 16 17  2  0
 17 18  1  0
 18 19  2  0
 19 20  1  0
 20 21  2  0
 20 22  1  0
 22 23  1  0
 23 24  2  0
 24 25  1  0
 24 26  1  0
 26 27  2  0
 27 28  1  0
 28 29  1  0
 28 30  2  0
 15  2  1  0
 21 16  1  0
 30 23  1  0
  1 31  1  0
  3 32  1  0
  4 33  1  0
  7 34  1  0
  7 35  1  0
  8 36  1  1
  9 37  1  0
 10 38  1  0
 10 39  1  0
 12 40  1  0
 12 41  1  0
 12 42  1  0
 13 43  1  0
 13 44  1  0
 13 45  1  0
 14 46  1  0
 15 47  1  0
 18 48  1  0
 19 49  1  0
 22 50  1  0
 26 51  1  0
 27 52  1  0
 30 53  1  0
M  END
$$$$
