
     RDKit          3D

 32 34  0  0  0  0  0  0  0  0999 V2000
    4.6415    2.7744   -1.2429 O   0  0  0  0  0  0  0  0  0  0  0  0
    3.9284    1.6688   -0.7846 C   0  0  0  0  0  0  0  0  0  0  0  0
    2.5394    1.7323   -0.7045 C   0  0  0  0  0  0  0  0  0  0  0  0
    1.8063    0.6425   -0.2287 C   0  0  0  0  0  0  0  0  0  0  0  0
    2.4639   -0.5483    0.1758 C   0  0  0  0  0  0  0  0  0  0  0  0
    3.8818   -0.6248    0.0328 C   0  0  0  0  0  0  0  0  0  0  0  0
    4.6306   -1.7772    0.2886 O   0  0  0  0  0  0  0  0  0  0  0  0
    4.5919    0.4963   -0.4145 C   0  0  0  0  0  0  0  0  0  0  0  0
    1.6566   -1.5663    0.7374 C   0  0  0  0  0  0  0  0  0  0  0  0
    2.1587   -2.6108    1.2292 O   0  0  0  0  0  0  0  0  0  0  0  0
    0.2679   -1.4037    0.8012 C   0  0  0  0  0  0  0  0  0  0  0  0
   -0.5020   -2.4029    1.4044 O   0  0  0  0  0  0  0  0  0  0  0  0
   -0.3033   -0.2189    0.2954 C   0  0  0  0  0  0  0  0  0  0  0  0
    0.4844    0.7465   -0.1627 O   0  0  0  0  0  0  0  0  0  0  0  0
   -1.7624    0.0058    0.2562 C   0  0  0  0  0  0  0  0  0  0  0  0
   -2.2935    1.2074    0.7482 C   0  0  0  0  0  0  0  0  0  0  0  0
   -3.6679    1.4510    0.6812 C   0  0  0  0  0  0  0  0  0  0  0  0
   -4.5252    0.5041    0.1046 C   0  0  0  0  0  0  0  0  0  0  0  0
   -5.8968    0.7419    0.0376 O   0  0  0  0  0  0  0  0  0  0  0  0
   -4.0003   -0.6875   -0.4121 C   0  0  0  0  0  0  0  0  0  0  0  0
   -4.8535   -1.6224   -0.9955 O   0  0  0  0  0  0  0  0  0  0  0  0
   -2.6209   -0.9310   -0.3435 C   0  0  0  0  0  0  0  0  0  0  0  0
    5.6522    2.7602   -1.3159 H   0  0  0  0  0  0  0  0  0  0  0  0
    2.0262    2.6381   -1.0037 H   0  0  0  0  0  0  0  0  0  0  0  0
    4.2504   -2.7103    0.3380 H   0  0  0  0  0  0  0  0  0  0  0  0
    5.6701    0.4426   -0.5028 H   0  0  0  0  0  0  0  0  0  0  0  0
   -1.4872   -2.2950    1.6068 H   0  0  0  0  0  0  0  0  0  0  0  0
   -1.6442    1.9520    1.1928 H   0  0  0  0  0  0  0  0  0  0  0  0
   -4.0657    2.3776    1.0752 H   0  0  0  0  0  0  0  0  0  0  0  0
   -6.3051    1.5950    0.4015 H   0  0  0  0  0  0  0  0  0  0  0  0
   -4.5038   -2.4930   -1.3785 H   0  0  0  0  0  0  0  0  0  0  0  0
   -2.2184   -1.8442   -0.7652 H   0  0  0  0  0  0  0  0  0  0  0  0
  1  2  1  0
  2  3  2  0
  3  4  1  0
  4  5  2  0
  5  6  1  0
  6  7  1  0
  6  8  2  0
  5  9  1  0
  9 10  2  0
  9 11  1  0
 11 12  1  0
 11 13  2  0
 13 14  1  0
 13 15  1  0
 15 16  2  0
 16 17  1  0
 17 18  2  0
 18 19  1  0
 18 20  1  0
 20 21  1  0
 20 22  2  0
  8  2  1  0
 22 15  1  0
 14  4  1  0
  1 23  1  0
  3 24  1  0
  7 25  1  0
  8 26  1  0
 12 27  1  0
 16 28  1  0
 17 29  1  0
 19 30  1  0
 21 31  1  0
 22 32  1  0
M  END
$$$$
