
     RDKit          3D

 35 36  0  0  0  0  0  0  0  0999 V2000
    4.7259   -0.3717   -0.0235 C   0  0  1  0  0  0  0  0  0  0  0  0
    4.6334   -1.7225    0.6902 C   0  0  0  0  0  0  0  0  0  0  0  0
    3.5797    0.4286    0.2744 O   0  0  0  0  0  0  0  0  0  0  0  0
    2.2895    0.2462   -0.2512 C   0  0  0  0  0  0  0  0  0  0  0  0
    1.2591    1.0573    0.2379 C   0  0  0  0  0  0  0  0  0  0  0  0
   -0.0454    0.9220   -0.2455 C   0  0  0  0  0  0  0  0  0  0  0  0
   -0.3407   -0.0410   -1.2263 C   0  0  0  0  0  0  0  0  0  0  0  0
   -1.6317   -0.2043   -1.7493 O   0  0  0  0  0  0  0  0  0  0  0  0
   -2.8243    0.0075   -1.0438 C   0  0  0  0  0  0  0  0  0  0  0  0
   -2.8368    0.0309    0.3180 N   0  0  0  0  0  0  0  0  0  0  0  0
   -3.9808    0.2176    1.0274 C   0  0  0  0  0  0  0  0  0  0  0  0
   -5.2034    0.4026    0.3631 C   0  0  0  0  0  0  0  0  0  0  0  0
   -5.2162    0.3423   -1.0390 C   0  0  0  0  0  0  0  0  0  0  0  0
   -4.0266    0.1509   -1.7465 C   0  0  0  0  0  0  0  0  0  0  0  0
   -4.0553    0.0889   -3.5018 Cl  0  0  0  0  0  0  0  0  0  0  0  0
   -6.4865    0.5582    1.1390 C   0  0  0  0  0  0  0  0  0  0  0  0
   -6.2517    1.1843    2.3509 F   0  0  0  0  0  0  0  0  0  0  0  0
   -7.0302   -0.6906    1.3747 F   0  0  0  0  0  0  0  0  0  0  0  0
   -7.3971    1.3199    0.4273 F   0  0  0  0  0  0  0  0  0  0  0  0
    0.6921   -0.8358   -1.7347 C   0  0  0  0  0  0  0  0  0  0  0  0
    1.9971   -0.7017   -1.2512 C   0  0  0  0  0  0  0  0  0  0  0  0
    5.9530    0.3541    0.4375 C   0  0  0  0  0  0  0  0  0  0  0  0
    5.9570    1.0024    1.6693 O   0  0  0  0  0  0  0  0  0  0  0  0
    6.9947    0.3475   -0.2720 O   0  0  0  0  0  0  0  0  0  0  0  0
    4.8063   -0.5275   -1.1213 H   0  0  0  0  0  0  0  0  0  0  0  0
    4.5515   -1.5751    1.7886 H   0  0  0  0  0  0  0  0  0  0  0  0
    5.5356   -2.3334    0.4725 H   0  0  0  0  0  0  0  0  0  0  0  0
    3.7427   -2.2861    0.3449 H   0  0  0  0  0  0  0  0  0  0  0  0
    1.4728    1.8027    0.9936 H   0  0  0  0  0  0  0  0  0  0  0  0
   -0.8114    1.5887    0.1264 H   0  0  0  0  0  0  0  0  0  0  0  0
   -3.9339    0.2171    2.1086 H   0  0  0  0  0  0  0  0  0  0  0  0
   -6.1474    0.4405   -1.5833 H   0  0  0  0  0  0  0  0  0  0  0  0
    0.4800   -1.5674   -2.5042 H   0  0  0  0  0  0  0  0  0  0  0  0
    2.7648   -1.3375   -1.6673 H   0  0  0  0  0  0  0  0  0  0  0  0
    6.7843    1.4845    1.9999 H   0  0  0  0  0  0  0  0  0  0  0  0
  1  2  1  0
  1  3  1  0
  3  4  1  0
  4  5  2  0
  5  6  1  0
  6  7  2  0
  7  8  1  0
  8  9  1  0
  9 10  2  0
 10 11  1  0
 11 12  2  0
 12 13  1  0
 13 14  2  0
 14 15  1  0
 12 16  1  0
 16 17  1  0
 16 18  1  0
 16 19  1  0
  7 20  1  0
 20 21  2  0
  1 22  1  0
 22 23  1  0
 22 24  2  0
 21  4  1  0
 14  9  1  0
  1 25  1  6
  2 26  1  0
  2 27  1  0
  2 28  1  0
  5 29  1  0
  6 30  1  0
 11 31  1  0
 13 32  1  0
 20 33  1  0
 21 34  1  0
 23 35  1  0
M  END
$$$$
