
     RDKit          3D

 60 61  0  0  0  0  0  0  0  0999 V2000
   -1.6744    0.2937    2.1775 O   0  0  0  0  0  0  0  0  0  0  0  0
   -1.3084   -0.7087    1.5857 C   0  0  0  0  0  0  0  0  0  0  0  0
   -2.0821   -1.2704    0.4097 C   0  0  1  0  0  0  0  0  0  0  0  0
   -3.4542   -1.9205    0.7913 C   0  0  0  0  0  0  0  0  0  0  0  0
   -4.3000   -1.1095    1.7881 C   0  0  0  0  0  0  0  0  0  0  0  0
   -3.2487   -3.3387    1.3498 C   0  0  0  0  0  0  0  0  0  0  0  0
   -2.1452   -0.3120   -0.8212 C   0  0  2  0  0  0  0  0  0  0  0  0
   -0.8115    0.1651   -1.1787 N   0  0  0  0  0  0  0  0  0  0  0  0
   -0.7816    1.5971   -1.4332 C   0  0  0  0  0  0  0  0  0  0  0  0
   -2.2365    2.0364   -1.4547 C   0  0  0  0  0  0  0  0  0  0  0  0
   -2.9918    0.9676   -0.6521 C   0  0  1  0  0  0  0  0  0  0  0  0
   -4.3718    0.7573   -1.1243 N   0  0  0  0  0  0  0  0  0  0  0  0
   -5.3734    2.1674   -0.8996 S   0  0  0  0  0  6  0  0  0  0  0  0
   -6.8095    1.7646   -1.0798 O   0  0  0  0  0  0  0  0  0  0  0  0
   -5.0312    3.2047   -1.9322 O   0  0  0  0  0  0  0  0  0  0  0  0
   -5.1930    2.8824    0.7242 C   0  0  0  0  0  0  0  0  0  0  0  0
    0.2380   -0.7097   -1.6292 C   0  0  0  0  0  0  0  0  0  0  0  0
   -0.0535   -1.7476   -2.2815 O   0  0  0  0  0  0  0  0  0  0  0  0
    1.6569   -0.4196   -1.3606 C   0  0  0  0  0  0  0  0  0  0  0  0
    2.0517    0.3061   -0.3102 C   0  0  0  0  0  0  0  0  0  0  0  0
    3.5013    0.5687   -0.0363 C   0  0  0  0  0  0  0  0  0  0  0  0
    4.1756   -0.6978    0.3364 N   0  0  0  0  0  0  0  0  0  0  0  0
    5.1017   -1.2146   -0.7040 C   0  0  0  0  0  0  0  0  0  0  0  0
    6.5855   -0.8692   -0.4488 C   0  0  0  0  0  0  0  0  0  0  0  0
    6.7341    0.4114    0.3709 C   0  0  0  0  0  0  0  0  0  0  0  0
    6.0183    0.2916    1.7255 C   0  0  0  0  0  0  0  0  0  0  0  0
    4.7968   -0.6508    1.6756 C   0  0  0  0  0  0  0  0  0  0  0  0
   -0.3960   -1.2026    1.9049 H   0  0  0  0  0  0  0  0  0  0  0  0
   -1.4505   -2.1109    0.0452 H   0  0  0  0  0  0  0  0  0  0  0  0
   -4.0561   -2.0313   -0.1379 H   0  0  0  0  0  0  0  0  0  0  0  0
   -3.8123   -1.0638    2.7845 H   0  0  0  0  0  0  0  0  0  0  0  0
   -5.2936   -1.5898    1.9157 H   0  0  0  0  0  0  0  0  0  0  0  0
   -4.4805   -0.0847    1.4251 H   0  0  0  0  0  0  0  0  0  0  0  0
   -2.7479   -3.9832    0.5962 H   0  0  0  0  0  0  0  0  0  0  0  0
   -4.2271   -3.8054    1.5941 H   0  0  0  0  0  0  0  0  0  0  0  0
   -2.6257   -3.3098    2.2694 H   0  0  0  0  0  0  0  0  0  0  0  0
   -2.5385   -0.8918   -1.6873 H   0  0  0  0  0  0  0  0  0  0  0  0
   -0.2379    2.1165   -0.6166 H   0  0  0  0  0  0  0  0  0  0  0  0
   -0.2964    1.8162   -2.4097 H   0  0  0  0  0  0  0  0  0  0  0  0
   -2.3558    3.0464   -1.0061 H   0  0  0  0  0  0  0  0  0  0  0  0
   -2.5908    2.0578   -2.5089 H   0  0  0  0  0  0  0  0  0  0  0  0
   -2.9954    1.2818    0.4075 H   0  0  0  0  0  0  0  0  0  0  0  0
   -4.3662    0.5401   -2.1479 H   0  0  0  0  0  0  0  0  0  0  0  0
   -5.9333    3.6993    0.8485 H   0  0  0  0  0  0  0  0  0  0  0  0
   -5.3751    2.1115    1.4993 H   0  0  0  0  0  0  0  0  0  0  0  0
   -4.1744    3.3039    0.8452 H   0  0  0  0  0  0  0  0  0  0  0  0
    2.3981   -0.8716   -2.0075 H   0  0  0  0  0  0  0  0  0  0  0  0
    1.3229    0.7090    0.3814 H   0  0  0  0  0  0  0  0  0  0  0  0
    3.9635    1.0533   -0.9247 H   0  0  0  0  0  0  0  0  0  0  0  0
    3.5558    1.3200    0.7828 H   0  0  0  0  0  0  0  0  0  0  0  0
    5.0016   -2.3205   -0.7406 H   0  0  0  0  0  0  0  0  0  0  0  0
    4.8118   -0.8577   -1.7166 H   0  0  0  0  0  0  0  0  0  0  0  0
    7.1153   -0.7542   -1.4191 H   0  0  0  0  0  0  0  0  0  0  0  0
    7.0713   -1.7054    0.1013 H   0  0  0  0  0  0  0  0  0  0  0  0
    6.3128    1.2644   -0.2040 H   0  0  0  0  0  0  0  0  0  0  0  0
    7.8123    0.6237    0.5378 H   0  0  0  0  0  0  0  0  0  0  0  0
    5.6978    1.3041    2.0537 H   0  0  0  0  0  0  0  0  0  0  0  0
    6.7317   -0.0907    2.4879 H   0  0  0  0  0  0  0  0  0  0  0  0
    4.0469   -0.3412    2.4365 H   0  0  0  0  0  0  0  0  0  0  0  0
    5.1184   -1.6784    1.9559 H   0  0  0  0  0  0  0  0  0  0  0  0
  1  2  2  0
  2  3  1  0
  3  4  1  0
  4  5  1  0
  4  6  1  0
  3  7  1  0
  7  8  1  0
  8  9  1  0
  9 10  1  0
 10 11  1  0
 11 12  1  0
 12 13  1  0
 13 14  2  0
 13 15  2  0
 13 16  1  0
  8 17  1  0
 17 18  2  0
 17 19  1  0
 19 20  2  0
 20 21  1  0
 21 22  1  0
 22 23  1  0
 23 24  1  0
 24 25  1  0
 25 26  1  0
 26 27  1  0
 11  7  1  0
 27 22  1  0
  2 28  1  0
  3 29  1  6
  4 30  1  0
  5 31  1  0
  5 32  1  0
  5 33  1  0
  6 34  1  0
  6 35  1  0
  6 36  1  0
  7 37  1  6
  9 38  1  0
  9 39  1  0
 10 40  1  0
 10 41  1  0
 11 42  1  1
 12 43  1  0
 16 44  1  0
 16 45  1  0
 16 46  1  0
 19 47  1  0
 20 48  1  0
 21 49  1  0
 21 50  1  0
 23 51  1  0
 23 52  1  0
 24 53  1  0
 24 54  1  0
 25 55  1  0
 25 56  1  0
 26 57  1  0
 26 58  1  0
 27 59  1  0
 27 60  1  0
M  END
$$$$
