
     RDKit          3D

139144  0  0  0  0  0  0  0  0999 V2000
    6.9311    2.4953   -0.1385 C   0  0  0  0  0  0  0  0  0  0  0  0
    5.7685    3.2676   -0.4215 O   0  0  0  0  0  0  0  0  0  0  0  0
    4.4579    2.7665   -0.4729 C   0  0  0  0  0  0  0  0  0  0  0  0
    4.1889    1.4164   -0.1796 C   0  0  0  0  0  0  0  0  0  0  0  0
    2.8871    0.8985   -0.2495 C   0  0  0  0  0  0  0  0  0  0  0  0
    2.6139   -0.5510    0.1196 C   0  0  0  0  0  0  0  0  0  0  0  0
    3.0538   -1.6450   -0.9215 C   0  0  2  0  0  0  0  0  0  0  0  0
    4.5456   -1.5052   -1.2250 C   0  0  0  0  0  0  0  0  0  0  0  0
    5.5058   -1.8780   -0.2677 C   0  0  0  0  0  0  0  0  0  0  0  0
    6.8758   -1.6450   -0.4937 C   0  0  0  0  0  0  0  0  0  0  0  0
    7.8559   -1.9921    0.4496 O   0  0  0  0  0  0  0  0  0  0  0  0
    7.5845   -2.5922    1.7120 C   0  0  0  0  0  0  0  0  0  0  0  0
    7.2881   -1.0371   -1.6883 C   0  0  0  0  0  0  0  0  0  0  0  0
    8.6591   -0.8018   -1.8775 O   0  0  0  0  0  0  0  0  0  0  0  0
    9.2168   -0.1563   -3.0175 C   0  0  0  0  0  0  0  0  0  0  0  0
    6.3286   -0.6775   -2.6525 C   0  0  0  0  0  0  0  0  0  0  0  0
    4.9688   -0.9219   -2.4232 C   0  0  0  0  0  0  0  0  0  0  0  0
    3.9440   -0.6180   -3.4594 C   0  0  0  0  0  0  0  0  0  0  0  0
    2.9233   -1.7601   -3.4470 C   0  0  0  0  0  0  0  0  0  0  0  0
    2.1571   -1.8586   -2.1553 N   0  0  2  0  0  4  0  0  0  0  0  0
    1.0186   -0.9008   -2.2681 C   0  0  0  0  0  0  0  0  0  0  0  0
    1.5888   -3.2521   -2.1239 C   0  0  0  0  0  0  0  0  0  0  0  0
    0.5631   -3.5114   -0.9915 C   0  0  0  0  0  0  0  0  0  0  0  0
    0.4124   -5.0081   -0.6919 C   0  0  0  0  0  0  0  0  0  0  0  0
   -0.4903   -5.2040    0.3955 O   0  0  0  0  0  0  0  0  0  0  0  0
   -0.1706   -4.8840    1.7211 C   0  0  0  0  0  0  0  0  0  0  0  0
    1.0265   -4.6514    2.0481 O   0  0  0  0  0  0  0  0  0  0  0  0
   -1.2539   -4.7694    2.7156 C   0  0  0  0  0  0  0  0  0  0  0  0
   -2.8212   -5.4510    2.2793 Cl  0  0  0  0  0  0  0  0  0  0  0  0
   -1.0728   -4.0473    3.8380 C   0  0  0  0  0  0  0  0  0  0  0  0
   -2.1580   -3.6379    4.7458 C   0  0  0  0  0  0  0  0  0  0  0  0
   -3.2012   -4.3332    4.8795 O   0  0  0  0  0  0  0  0  0  0  0  0
   -2.0367   -2.4217    5.4232 O   0  0  0  0  0  0  0  0  0  0  0  0
   -3.1443   -1.5380    5.5913 C   0  0  0  0  0  0  0  0  0  0  0  0
   -3.4529   -0.8302    4.2620 C   0  0  0  0  0  0  0  0  0  0  0  0
   -2.4162    0.2871    3.9683 C   0  0  0  0  0  0  0  0  0  0  0  0
   -2.3952    0.9091    2.5831 N   0  0  1  0  0  4  0  0  0  0  0  0
   -1.9569    2.3218    2.7915 C   0  0  0  0  0  0  0  0  0  0  0  0
   -1.3439    0.2729    1.7340 C   0  0  0  0  0  0  0  0  0  0  0  0
   -1.6437   -1.1845    1.3852 C   0  0  0  0  0  0  0  0  0  0  0  0
   -3.0586   -1.3918    0.9297 C   0  0  0  0  0  0  0  0  0  0  0  0
   -3.3853   -2.5683    0.2433 C   0  0  0  0  0  0  0  0  0  0  0  0
   -4.7154   -2.8451   -0.1166 C   0  0  0  0  0  0  0  0  0  0  0  0
   -5.0655   -3.9947   -0.8429 O   0  0  0  0  0  0  0  0  0  0  0  0
   -4.1307   -4.9233   -1.3844 C   0  0  0  0  0  0  0  0  0  0  0  0
   -5.7319   -1.9525    0.2502 C   0  0  0  0  0  0  0  0  0  0  0  0
   -7.0531   -2.2637   -0.1085 O   0  0  0  0  0  0  0  0  0  0  0  0
   -8.1830   -1.4493    0.1875 C   0  0  0  0  0  0  0  0  0  0  0  0
   -5.4054   -0.7743    0.9469 C   0  0  0  0  0  0  0  0  0  0  0  0
   -4.0739   -0.4825    1.2837 C   0  0  0  0  0  0  0  0  0  0  0  0
   -3.7359    0.8815    1.8777 C   0  0  2  0  0  0  0  0  0  0  0  0
   -3.8850    1.9315    0.7603 C   0  0  0  0  0  0  0  0  0  0  0  0
   -4.4976    3.1621    1.0401 C   0  0  0  0  0  0  0  0  0  0  0  0
   -4.6383    4.1529    0.0486 C   0  0  0  0  0  0  0  0  0  0  0  0
   -5.2339    5.3887    0.3473 O   0  0  0  0  0  0  0  0  0  0  0  0
   -5.7269    5.7717    1.6274 C   0  0  0  0  0  0  0  0  0  0  0  0
   -4.1728    3.8899   -1.2652 C   0  0  0  0  0  0  0  0  0  0  0  0
   -4.2666    4.8100   -2.3272 O   0  0  0  0  0  0  0  0  0  0  0  0
   -4.7983    6.1285   -2.2640 C   0  0  0  0  0  0  0  0  0  0  0  0
   -3.5830    2.6510   -1.5579 C   0  0  0  0  0  0  0  0  0  0  0  0
   -3.1599    2.4091   -2.8760 O   0  0  0  0  0  0  0  0  0  0  0  0
   -2.6278    1.1718   -3.3424 C   0  0  0  0  0  0  0  0  0  0  0  0
   -3.4260    1.6916   -0.5466 C   0  0  0  0  0  0  0  0  0  0  0  0
    1.8298    1.7740   -0.5295 C   0  0  0  0  0  0  0  0  0  0  0  0
    2.0730    3.1267   -0.8276 C   0  0  0  0  0  0  0  0  0  0  0  0
    1.0335    4.0163   -1.1436 O   0  0  0  0  0  0  0  0  0  0  0  0
   -0.3337    3.6470   -1.2763 C   0  0  0  0  0  0  0  0  0  0  0  0
    3.3841    3.6264   -0.8119 C   0  0  0  0  0  0  0  0  0  0  0  0
    3.5450    4.9876   -1.1362 O   0  0  0  0  0  0  0  0  0  0  0  0
    4.7728    5.7033   -1.2127 C   0  0  0  0  0  0  0  0  0  0  0  0
    7.8216    3.1551   -0.1772 H   0  0  0  0  0  0  0  0  0  0  0  0
    6.8616    2.0538    0.8780 H   0  0  0  0  0  0  0  0  0  0  0  0
    7.0505    1.6970   -0.8988 H   0  0  0  0  0  0  0  0  0  0  0  0
    4.9923    0.7686    0.1320 H   0  0  0  0  0  0  0  0  0  0  0  0
    3.1671   -0.7448    1.0655 H   0  0  0  0  0  0  0  0  0  0  0  0
    1.5583   -0.6912    0.4249 H   0  0  0  0  0  0  0  0  0  0  0  0
    3.0257   -2.5732   -0.3068 H   0  0  0  0  0  0  0  0  0  0  0  0
    5.1750   -2.3224    0.6612 H   0  0  0  0  0  0  0  0  0  0  0  0
    7.0869   -3.5746    1.5690 H   0  0  0  0  0  0  0  0  0  0  0  0
    6.9425   -1.9226    2.3227 H   0  0  0  0  0  0  0  0  0  0  0  0
    8.5412   -2.7538    2.2495 H   0  0  0  0  0  0  0  0  0  0  0  0
    8.8080    0.8721   -3.1115 H   0  0  0  0  0  0  0  0  0  0  0  0
   10.3172   -0.0912   -2.8947 H   0  0  0  0  0  0  0  0  0  0  0  0
    8.9958   -0.7422   -3.9345 H   0  0  0  0  0  0  0  0  0  0  0  0
    6.6306   -0.2177   -3.5838 H   0  0  0  0  0  0  0  0  0  0  0  0
    4.4102   -0.5645   -4.4676 H   0  0  0  0  0  0  0  0  0  0  0  0
    3.4716    0.3621   -3.2446 H   0  0  0  0  0  0  0  0  0  0  0  0
    2.2438   -1.6371   -4.3226 H   0  0  0  0  0  0  0  0  0  0  0  0
    3.4874   -2.7021   -3.6507 H   0  0  0  0  0  0  0  0  0  0  0  0
    0.3817   -0.8771   -1.3650 H   0  0  0  0  0  0  0  0  0  0  0  0
    0.3379   -1.1831   -3.1033 H   0  0  0  0  0  0  0  0  0  0  0  0
    1.3668    0.1242   -2.4929 H   0  0  0  0  0  0  0  0  0  0  0  0
    2.4219   -3.9877   -2.0298 H   0  0  0  0  0  0  0  0  0  0  0  0
    1.0818   -3.4936   -3.0880 H   0  0  0  0  0  0  0  0  0  0  0  0
    0.8600   -2.9941   -0.0594 H   0  0  0  0  0  0  0  0  0  0  0  0
   -0.4290   -3.1144   -1.2966 H   0  0  0  0  0  0  0  0  0  0  0  0
    1.3974   -5.4634   -0.4488 H   0  0  0  0  0  0  0  0  0  0  0  0
    0.0044   -5.5207   -1.5887 H   0  0  0  0  0  0  0  0  0  0  0  0
   -0.1112   -3.5796    4.0130 H   0  0  0  0  0  0  0  0  0  0  0  0
   -4.0366   -2.1050    5.9358 H   0  0  0  0  0  0  0  0  0  0  0  0
   -2.9003   -0.7913    6.3767 H   0  0  0  0  0  0  0  0  0  0  0  0
   -3.4694   -1.6077    3.4820 H   0  0  0  0  0  0  0  0  0  0  0  0
   -4.4693   -0.3887    4.3344 H   0  0  0  0  0  0  0  0  0  0  0  0
   -1.4031   -0.0963    4.2289 H   0  0  0  0  0  0  0  0  0  0  0  0
   -2.6254    1.0602    4.7456 H   0  0  0  0  0  0  0  0  0  0  0  0
   -1.7344    2.8440    1.8361 H   0  0  0  0  0  0  0  0  0  0  0  0
   -2.7364    2.9070    3.3286 H   0  0  0  0  0  0  0  0  0  0  0  0
   -1.0213    2.3695    3.3952 H   0  0  0  0  0  0  0  0  0  0  0  0
   -1.2156    0.8310    0.7817 H   0  0  0  0  0  0  0  0  0  0  0  0
   -0.3486    0.3115    2.2342 H   0  0  0  0  0  0  0  0  0  0  0  0
   -1.4474   -1.8216    2.2688 H   0  0  0  0  0  0  0  0  0  0  0  0
   -0.9447   -1.5033    0.5865 H   0  0  0  0  0  0  0  0  0  0  0  0
   -2.5969   -3.2656   -0.0040 H   0  0  0  0  0  0  0  0  0  0  0  0
   -3.4318   -4.4042   -2.0740 H   0  0  0  0  0  0  0  0  0  0  0  0
   -4.6805   -5.7006   -1.9533 H   0  0  0  0  0  0  0  0  0  0  0  0
   -3.5634   -5.4176   -0.5696 H   0  0  0  0  0  0  0  0  0  0  0  0
   -8.2906   -1.3301    1.2863 H   0  0  0  0  0  0  0  0  0  0  0  0
   -8.0749   -0.4558   -0.2969 H   0  0  0  0  0  0  0  0  0  0  0  0
   -9.0963   -1.9391   -0.2077 H   0  0  0  0  0  0  0  0  0  0  0  0
   -6.1765   -0.0609    1.2054 H   0  0  0  0  0  0  0  0  0  0  0  0
   -4.5253    1.1099    2.6286 H   0  0  0  0  0  0  0  0  0  0  0  0
   -4.8560    3.3451    2.0435 H   0  0  0  0  0  0  0  0  0  0  0  0
   -4.9040    5.7599    2.3731 H   0  0  0  0  0  0  0  0  0  0  0  0
   -6.5428    5.0878    1.9432 H   0  0  0  0  0  0  0  0  0  0  0  0
   -6.1331    6.8019    1.5646 H   0  0  0  0  0  0  0  0  0  0  0  0
   -4.2196    6.7426   -1.5423 H   0  0  0  0  0  0  0  0  0  0  0  0
   -4.7113    6.5979   -3.2651 H   0  0  0  0  0  0  0  0  0  0  0  0
   -5.8736    6.0972   -1.9894 H   0  0  0  0  0  0  0  0  0  0  0  0
   -3.3730    0.3601   -3.2035 H   0  0  0  0  0  0  0  0  0  0  0  0
   -2.3962    1.2614   -4.4233 H   0  0  0  0  0  0  0  0  0  0  0  0
   -1.6914    0.9235   -2.7998 H   0  0  0  0  0  0  0  0  0  0  0  0
   -2.9581    0.7485   -0.7824 H   0  0  0  0  0  0  0  0  0  0  0  0
    0.8170    1.3988   -0.5106 H   0  0  0  0  0  0  0  0  0  0  0  0
   -0.4417    2.8896   -2.0789 H   0  0  0  0  0  0  0  0  0  0  0  0
   -0.9285    4.5426   -1.5488 H   0  0  0  0  0  0  0  0  0  0  0  0
   -0.7169    3.2458   -0.3162 H   0  0  0  0  0  0  0  0  0  0  0  0
    5.4374    5.2473   -1.9764 H   0  0  0  0  0  0  0  0  0  0  0  0
    4.5597    6.7479   -1.5187 H   0  0  0  0  0  0  0  0  0  0  0  0
    5.2660    5.7288   -0.2184 H   0  0  0  0  0  0  0  0  0  0  0  0
  1  2  1  0
  2  3  1  0
  3  4  2  0
  4  5  1  0
  5  6  1  0
  6  7  1  0
  7  8  1  0
  8  9  2  0
  9 10  1  0
 10 11  1  0
 11 12  1  0
 10 13  2  0
 13 14  1  0
 14 15  1  0
 13 16  1  0
 16 17  2  0
 17 18  1  0
 18 19  1  0
 19 20  1  0
 20 21  1  6
 20 22  1  0
 22 23  1  0
 23 24  1  0
 24 25  1  0
 25 26  1  0
 26 27  2  0
 26 28  1  0
 28 29  1  0
 28 30  2  0
 30 31  1  0
 31 32  2  0
 31 33  1  0
 33 34  1  0
 34 35  1  0
 35 36  1  0
 37 36  1  1
 37 38  1  0
 37 39  1  0
 39 40  1  0
 40 41  1  0
 41 42  2  0
 42 43  1  0
 43 44  1  0
 44 45  1  0
 43 46  2  0
 46 47  1  0
 47 48  1  0
 46 49  1  0
 49 50  2  0
 50 51  1  0
 51 52  1  0
 52 53  2  0
 53 54  1  0
 54 55  1  0
 55 56  1  0
 54 57  2  0
 57 58  1  0
 58 59  1  0
 57 60  1  0
 60 61  1  0
 61 62  1  0
 60 63  2  0
  5 64  2  0
 64 65  1  0
 65 66  1  0
 66 67  1  0
 65 68  2  0
 68 69  1  0
 69 70  1  0
 68  3  1  0
 20  7  1  0
 51 37  1  0
 63 52  1  0
 17  8  1  0
 50 41  1  0
  1 71  1  0
  1 72  1  0
  1 73  1  0
  4 74  1  0
  6 75  1  0
  6 76  1  0
  7 77  1  1
  9 78  1  0
 12 79  1  0
 12 80  1  0
 12 81  1  0
 15 82  1  0
 15 83  1  0
 15 84  1  0
 16 85  1  0
 18 86  1  0
 18 87  1  0
 19 88  1  0
 19 89  1  0
 21 90  1  0
 21 91  1  0
 21 92  1  0
 22 93  1  0
 22 94  1  0
 23 95  1  0
 23 96  1  0
 24 97  1  0
 24 98  1  0
 30 99  1  0
 34100  1  0
 34101  1  0
 35102  1  0
 35103  1  0
 36104  1  0
 36105  1  0
 38106  1  0
 38107  1  0
 38108  1  0
 39109  1  0
 39110  1  0
 40111  1  0
 40112  1  0
 42113  1  0
 45114  1  0
 45115  1  0
 45116  1  0
 48117  1  0
 48118  1  0
 48119  1  0
 49120  1  0
 51121  1  1
 53122  1  0
 56123  1  0
 56124  1  0
 56125  1  0
 59126  1  0
 59127  1  0
 59128  1  0
 62129  1  0
 62130  1  0
 62131  1  0
 63132  1  0
 64133  1  0
 67134  1  0
 67135  1  0
 67136  1  0
 70137  1  0
 70138  1  0
 70139  1  0
M  CHG  2  20   1  37   1
M  END
$$$$
