
     RDKit          3D

 28 28  0  0  0  0  0  0  0  0999 V2000
    4.8587    0.1850   -1.0009 O   0  0  0  0  0  0  0  0  0  0  0  0
    3.2565    0.3523   -0.5205 S   0  0  0  0  0  6  0  0  0  0  0  0
    3.2121    0.8730    0.8891 O   0  0  0  0  0  0  0  0  0  0  0  0
    2.5782    1.3342   -1.4336 O   0  0  0  0  0  0  0  0  0  0  0  0
    2.4399   -1.2381   -0.6287 C   0  0  0  0  0  0  0  0  0  0  0  0
    1.1445   -1.2986    0.1927 C   0  0  0  0  0  0  0  0  0  0  0  0
    0.0260   -0.4260   -0.3939 C   0  0  0  0  0  0  0  0  0  0  0  0
   -1.2359   -0.6567    0.3465 N   0  0  0  0  0  0  0  0  0  0  0  0
   -2.4230   -0.5064   -0.5175 C   0  0  0  0  0  0  0  0  0  0  0  0
   -2.6629    0.9714   -0.9090 C   0  0  0  0  0  0  0  0  0  0  0  0
   -1.9618    1.8874   -0.0851 O   0  0  0  0  0  0  0  0  0  0  0  0
   -2.0956    1.5205    1.2710 C   0  0  0  0  0  0  0  0  0  0  0  0
   -1.3504    0.1993    1.5524 C   0  0  0  0  0  0  0  0  0  0  0  0
    5.2662   -0.4168   -0.3277 H   0  0  0  0  0  0  0  0  0  0  0  0
    3.1387   -2.0092   -0.2408 H   0  0  0  0  0  0  0  0  0  0  0  0
    2.2341   -1.4747   -1.6943 H   0  0  0  0  0  0  0  0  0  0  0  0
    1.3555   -1.0067    1.2430 H   0  0  0  0  0  0  0  0  0  0  0  0
    0.7949   -2.3541    0.2065 H   0  0  0  0  0  0  0  0  0  0  0  0
    0.3163    0.6463   -0.3580 H   0  0  0  0  0  0  0  0  0  0  0  0
   -0.0890   -0.7005   -1.4668 H   0  0  0  0  0  0  0  0  0  0  0  0
   -2.3351   -1.1420   -1.4262 H   0  0  0  0  0  0  0  0  0  0  0  0
   -3.3129   -0.8820    0.0346 H   0  0  0  0  0  0  0  0  0  0  0  0
   -2.3165    1.1209   -1.9535 H   0  0  0  0  0  0  0  0  0  0  0  0
   -3.7510    1.2017   -0.8904 H   0  0  0  0  0  0  0  0  0  0  0  0
   -3.1709    1.4301    1.5513 H   0  0  0  0  0  0  0  0  0  0  0  0
   -1.6653    2.3257    1.9032 H   0  0  0  0  0  0  0  0  0  0  0  0
   -0.3492    0.4262    1.9808 H   0  0  0  0  0  0  0  0  0  0  0  0
   -1.9023   -0.3625    2.3361 H   0  0  0  0  0  0  0  0  0  0  0  0
  1  2  1  0
  2  3  2  0
  2  4  2  0
  2  5  1  0
  5  6  1  0
  6  7  1  0
  7  8  1  0
  8  9  1  0
  9 10  1  0
 10 11  1  0
 11 12  1  0
 12 13  1  0
 13  8  1  0
  1 14  1  0
  5 15  1  0
  5 16  1  0
  6 17  1  0
  6 18  1  0
  7 19  1  0
  7 20  1  0
  9 21  1  0
  9 22  1  0
 10 23  1  0
 10 24  1  0
 12 25  1  0
 12 26  1  0
 13 27  1  0
 13 28  1  0
M  END
$$$$
