
     RDKit          3D

 50 52  0  0  0  0  0  0  0  0999 V2000
    7.1794    0.4767   -1.6577 O   0  0  0  0  0  0  0  0  0  0  0  0
    6.2099   -0.5208   -1.7243 C   0  0  0  0  0  0  0  0  0  0  0  0
    6.5474   -1.6874   -2.0635 O   0  0  0  0  0  0  0  0  0  0  0  0
    4.7997   -0.2130   -1.3998 C   0  0  0  0  0  0  0  0  0  0  0  0
    4.4256    1.0886   -1.0246 C   0  0  0  0  0  0  0  0  0  0  0  0
    3.0941    1.3823   -0.7177 C   0  0  0  0  0  0  0  0  0  0  0  0
    2.1156    0.3803   -0.7650 C   0  0  0  0  0  0  0  0  0  0  0  0
    0.7520    0.7129   -0.4608 N   0  0  0  0  0  0  0  0  0  0  0  0
   -0.1328   -0.1415    0.2821 C   0  0  0  0  0  0  0  0  0  0  0  0
    0.2848   -1.2262    0.7726 O   0  0  0  0  0  0  0  0  0  0  0  0
   -1.5398    0.3134    0.5767 C   0  0  2  0  0  0  0  0  0  0  0  0
   -1.6150    0.9708    1.9695 C   0  0  0  0  0  0  0  0  0  0  0  0
   -0.7645    2.2148    2.0457 C   0  0  0  0  0  0  0  0  0  0  0  0
    0.5391    2.1535    2.5666 C   0  0  0  0  0  0  0  0  0  0  0  0
    1.3502    3.2920    2.5732 C   0  0  0  0  0  0  0  0  0  0  0  0
    0.8704    4.5006    2.0588 C   0  0  0  0  0  0  0  0  0  0  0  0
    1.6905    5.6265    2.0695 O   0  0  0  0  0  0  0  0  0  0  0  0
   -0.4280    4.5671    1.5353 C   0  0  0  0  0  0  0  0  0  0  0  0
   -1.2401    3.4290    1.5247 C   0  0  0  0  0  0  0  0  0  0  0  0
   -2.4601   -0.8265    0.4971 N   0  0  0  0  0  0  0  0  0  0  0  0
   -2.7685   -1.4655   -0.7535 C   0  0  0  0  0  0  0  0  0  0  0  0
   -2.3942   -0.9318   -1.8340 O   0  0  0  0  0  0  0  0  0  0  0  0
   -3.5323   -2.7354   -0.7977 C   0  0  0  0  0  0  0  0  0  0  0  0
   -3.5311   -3.6235    0.2951 C   0  0  0  0  0  0  0  0  0  0  0  0
   -4.2503   -4.8213    0.2341 C   0  0  0  0  0  0  0  0  0  0  0  0
   -4.9716   -5.1490   -0.9159 C   0  0  0  0  0  0  0  0  0  0  0  0
   -4.9706   -4.2822   -2.0106 C   0  0  0  0  0  0  0  0  0  0  0  0
   -4.2525   -3.0837   -1.9558 C   0  0  0  0  0  0  0  0  0  0  0  0
    2.4815   -0.9170   -1.1593 C   0  0  0  0  0  0  0  0  0  0  0  0
    3.8126   -1.2123   -1.4683 C   0  0  0  0  0  0  0  0  0  0  0  0
    8.1478    0.2766   -1.8776 H   0  0  0  0  0  0  0  0  0  0  0  0
    5.1606    1.8817   -0.9685 H   0  0  0  0  0  0  0  0  0  0  0  0
    2.8249    2.3911   -0.4291 H   0  0  0  0  0  0  0  0  0  0  0  0
    0.4334    1.6882   -0.6607 H   0  0  0  0  0  0  0  0  0  0  0  0
   -1.8519    1.0682   -0.1794 H   0  0  0  0  0  0  0  0  0  0  0  0
   -1.3019    0.2419    2.7499 H   0  0  0  0  0  0  0  0  0  0  0  0
   -2.6713    1.2421    2.1880 H   0  0  0  0  0  0  0  0  0  0  0  0
    0.9319    1.2213    2.9532 H   0  0  0  0  0  0  0  0  0  0  0  0
    2.3548    3.2333    2.9723 H   0  0  0  0  0  0  0  0  0  0  0  0
    1.3729    6.5162    1.7030 H   0  0  0  0  0  0  0  0  0  0  0  0
   -0.8057    5.4973    1.1306 H   0  0  0  0  0  0  0  0  0  0  0  0
   -2.2354    3.4905    1.1023 H   0  0  0  0  0  0  0  0  0  0  0  0
   -2.9424   -1.1513    1.3652 H   0  0  0  0  0  0  0  0  0  0  0  0
   -2.9577   -3.4108    1.1873 H   0  0  0  0  0  0  0  0  0  0  0  0
   -4.2426   -5.4996    1.0776 H   0  0  0  0  0  0  0  0  0  0  0  0
   -5.5267   -6.0771   -0.9607 H   0  0  0  0  0  0  0  0  0  0  0  0
   -5.5268   -4.5387   -2.9030 H   0  0  0  0  0  0  0  0  0  0  0  0
   -4.2690   -2.4243   -2.8149 H   0  0  0  0  0  0  0  0  0  0  0  0
    1.7369   -1.6965   -1.2521 H   0  0  0  0  0  0  0  0  0  0  0  0
    4.0668   -2.2213   -1.7681 H   0  0  0  0  0  0  0  0  0  0  0  0
  1  2  1  0
  2  3  2  0
  2  4  1  0
  4  5  2  0
  5  6  1  0
  6  7  2  0
  7  8  1  0
  8  9  1  0
  9 10  2  0
  9 11  1  0
 11 12  1  0
 12 13  1  0
 13 14  2  0
 14 15  1  0
 15 16  2  0
 16 17  1  0
 16 18  1  0
 18 19  2  0
 11 20  1  0
 20 21  1  0
 21 22  2  0
 21 23  1  0
 23 24  2  0
 24 25  1  0
 25 26  2  0
 26 27  1  0
 27 28  2  0
  7 29  1  0
 29 30  2  0
 30  4  1  0
 19 13  1  0
 28 23  1  0
  1 31  1  0
  5 32  1  0
  6 33  1  0
  8 34  1  0
 11 35  1  6
 12 36  1  0
 12 37  1  0
 14 38  1  0
 15 39  1  0
 17 40  1  0
 18 41  1  0
 19 42  1  0
 20 43  1  0
 24 44  1  0
 25 45  1  0
 26 46  1  0
 27 47  1  0
 28 48  1  0
 29 49  1  0
 30 50  1  0
M  END
$$$$
