
     RDKit          3D

 63 66  0  0  0  0  0  0  0  0999 V2000
   -0.2529   -0.3157    1.2480 C   0  0  2  0  0  0  0  0  0  0  0  0
    0.5520    0.3777    2.3427 C   0  0  0  0  0  0  0  0  0  0  0  0
    1.9895   -0.1389    2.1387 C   0  0  0  0  0  0  0  0  0  0  0  0
    1.9848   -0.9104    0.7950 C   0  0  2  0  0  0  0  0  0  0  0  0
    3.2750   -0.8589   -0.0029 C   0  0  0  0  0  0  0  0  0  0  0  0
    3.6653   -1.9209   -0.5577 O   0  0  0  0  0  0  0  0  0  0  0  0
    4.0250    0.3630   -0.1726 N   0  0  0  0  0  0  0  0  0  0  0  0
    5.2641    0.4884   -0.9666 C   0  0  0  0  0  0  0  0  0  0  0  0
    4.9915    0.1317   -2.4413 C   0  0  0  0  0  0  0  0  0  0  0  0
    6.3647   -0.4219   -0.3873 C   0  0  0  0  0  0  0  0  0  0  0  0
    5.7568    1.9496   -0.9026 C   0  0  0  0  0  0  0  0  0  0  0  0
    0.7147   -0.4209    0.0595 C   0  0  2  0  0  0  0  0  0  0  0  0
    0.9810    0.9448   -0.6524 C   0  0  0  0  0  0  0  0  0  0  0  0
    0.1217   -1.4343   -0.9458 C   0  0  0  0  0  0  0  0  0  0  0  0
   -1.3011   -1.0183   -1.3971 C   0  0  0  0  0  0  0  0  0  0  0  0
   -2.2688   -0.7444   -0.1988 C   0  0  1  0  0  0  0  0  0  0  0  0
   -1.6312    0.2458    0.8435 C   0  0  1  0  0  0  0  0  0  0  0  0
   -2.5426    0.4220    2.0753 C   0  0  0  0  0  0  0  0  0  0  0  0
   -3.9455    0.8866    1.6699 C   0  0  0  0  0  0  0  0  0  0  0  0
   -4.5634   -0.1150    0.6856 C   0  0  1  0  0  0  0  0  0  0  0  0
   -5.9461    0.2286    0.3469 N   0  0  0  0  0  0  0  0  0  0  0  0
   -6.5854   -0.5221   -0.6903 C   0  0  0  0  0  0  0  0  0  0  0  0
   -7.8265   -0.4247   -0.8777 O   0  0  0  0  0  0  0  0  0  0  0  0
   -5.7665   -1.4088   -1.5343 C   0  0  0  0  0  0  0  0  0  0  0  0
   -4.4269   -1.3580   -1.4585 C   0  0  0  0  0  0  0  0  0  0  0  0
   -3.7172   -0.2933   -0.6182 C   0  0  2  0  0  0  0  0  0  0  0  0
   -3.6924    1.0132   -1.4602 C   0  0  0  0  0  0  0  0  0  0  0  0
   -0.4446   -1.3460    1.6401 H   0  0  0  0  0  0  0  0  0  0  0  0
    0.1711    0.1089    3.3522 H   0  0  0  0  0  0  0  0  0  0  0  0
    0.5094    1.4820    2.2210 H   0  0  0  0  0  0  0  0  0  0  0  0
    2.2729   -0.8244    2.9674 H   0  0  0  0  0  0  0  0  0  0  0  0
    2.6927    0.7166    2.1546 H   0  0  0  0  0  0  0  0  0  0  0  0
    1.8272   -1.9828    1.0614 H   0  0  0  0  0  0  0  0  0  0  0  0
    3.6503    1.2301    0.2694 H   0  0  0  0  0  0  0  0  0  0  0  0
    5.8890    0.3343   -3.0650 H   0  0  0  0  0  0  0  0  0  0  0  0
    4.7377   -0.9406   -2.5633 H   0  0  0  0  0  0  0  0  0  0  0  0
    4.1461    0.7375   -2.8329 H   0  0  0  0  0  0  0  0  0  0  0  0
    6.5074   -0.2112    0.6944 H   0  0  0  0  0  0  0  0  0  0  0  0
    6.1108   -1.4949   -0.5032 H   0  0  0  0  0  0  0  0  0  0  0  0
    7.3302   -0.2496   -0.9105 H   0  0  0  0  0  0  0  0  0  0  0  0
    5.9597    2.2447    0.1497 H   0  0  0  0  0  0  0  0  0  0  0  0
    6.6918    2.0813   -1.4893 H   0  0  0  0  0  0  0  0  0  0  0  0
    4.9864    2.6373   -1.3140 H   0  0  0  0  0  0  0  0  0  0  0  0
    0.0751    1.3844   -1.1079 H   0  0  0  0  0  0  0  0  0  0  0  0
    1.7061    0.8107   -1.4822 H   0  0  0  0  0  0  0  0  0  0  0  0
    1.3867    1.7027    0.0472 H   0  0  0  0  0  0  0  0  0  0  0  0
    0.0653   -2.4449   -0.4841 H   0  0  0  0  0  0  0  0  0  0  0  0
    0.7830   -1.5169   -1.8357 H   0  0  0  0  0  0  0  0  0  0  0  0
   -1.2306   -0.1326   -2.0569 H   0  0  0  0  0  0  0  0  0  0  0  0
   -1.6904   -1.8446   -2.0236 H   0  0  0  0  0  0  0  0  0  0  0  0
   -2.3872   -1.7259    0.3171 H   0  0  0  0  0  0  0  0  0  0  0  0
   -1.4960    1.2512    0.4022 H   0  0  0  0  0  0  0  0  0  0  0  0
   -2.6179   -0.5369    2.6348 H   0  0  0  0  0  0  0  0  0  0  0  0
   -2.1070    1.1818    2.7595 H   0  0  0  0  0  0  0  0  0  0  0  0
   -3.9028    1.9042    1.2270 H   0  0  0  0  0  0  0  0  0  0  0  0
   -4.5785    0.9437    2.5820 H   0  0  0  0  0  0  0  0  0  0  0  0
   -4.5972   -1.0993    1.2093 H   0  0  0  0  0  0  0  0  0  0  0  0
   -6.4697    0.9713    0.8633 H   0  0  0  0  0  0  0  0  0  0  0  0
   -6.2457   -2.1180   -2.1976 H   0  0  0  0  0  0  0  0  0  0  0  0
   -3.8646   -2.0517   -2.0652 H   0  0  0  0  0  0  0  0  0  0  0  0
   -3.1281    1.8277   -0.9686 H   0  0  0  0  0  0  0  0  0  0  0  0
   -3.2384    0.8331   -2.4567 H   0  0  0  0  0  0  0  0  0  0  0  0
   -4.7196    1.3917   -1.6441 H   0  0  0  0  0  0  0  0  0  0  0  0
  1  2  1  0
  2  3  1  0
  3  4  1  0
  4  5  1  0
  5  6  2  0
  5  7  1  0
  7  8  1  0
  8  9  1  0
  8 10  1  0
  8 11  1  0
  4 12  1  0
 12 13  1  6
 12 14  1  0
 14 15  1  0
 15 16  1  0
 16 17  1  0
 17 18  1  0
 18 19  1  0
 19 20  1  0
 20 21  1  0
 21 22  1  0
 22 23  2  0
 22 24  1  0
 24 25  2  0
 25 26  1  0
 26 27  1  6
 12  1  1  0
 26 16  1  0
 17  1  1  0
 26 20  1  0
  1 28  1  1
  2 29  1  0
  2 30  1  0
  3 31  1  0
  3 32  1  0
  4 33  1  1
  7 34  1  0
  9 35  1  0
  9 36  1  0
  9 37  1  0
 10 38  1  0
 10 39  1  0
 10 40  1  0
 11 41  1  0
 11 42  1  0
 11 43  1  0
 13 44  1  0
 13 45  1  0
 13 46  1  0
 14 47  1  0
 14 48  1  0
 15 49  1  0
 15 50  1  0
 16 51  1  1
 17 52  1  6
 18 53  1  0
 18 54  1  0
 19 55  1  0
 19 56  1  0
 20 57  1  1
 21 58  1  0
 24 59  1  0
 25 60  1  0
 27 61  1  0
 27 62  1  0
 27 63  1  0
M  END
$$$$
