
     RDKit          3D

 40 43  0  0  0  0  0  0  0  0999 V2000
   -4.3443   -2.0224   -0.3513 O   0  0  0  0  0  0  0  0  0  0  0  0
   -4.4356   -0.6546   -0.1145 C   0  0  0  0  0  0  0  0  0  0  0  0
   -5.4297   -0.0077   -0.5404 O   0  0  0  0  0  0  0  0  0  0  0  0
   -3.3470    0.0509    0.6354 C   0  0  0  0  0  0  0  0  0  0  0  0
   -2.5087    0.9517   -0.2832 C   0  0  0  0  0  0  0  0  0  0  0  0
   -1.6178    0.1665   -1.2665 C   0  0  0  0  0  0  0  0  0  0  0  0
   -0.4290   -0.3898   -0.5919 N   0  0  0  0  0  0  0  0  0  0  0  0
    0.6731    0.3861   -0.3026 C   0  0  0  0  0  0  0  0  0  0  0  0
    1.8006   -0.1568    0.3110 C   0  0  0  0  0  0  0  0  0  0  0  0
    2.8044    0.9005    0.4496 C   0  0  0  0  0  0  0  0  0  0  0  0
    3.9560    0.8022    0.9487 O   0  0  0  0  0  0  0  0  0  0  0  0
    2.2267    2.1081   -0.1031 C   0  0  0  0  0  0  0  0  0  0  0  0
    2.7946    3.3789   -0.1848 C   0  0  0  0  0  0  0  0  0  0  0  0
    2.0336    4.4126   -0.7434 C   0  0  0  0  0  0  0  0  0  0  0  0
    0.7282    4.1625   -1.1986 C   0  0  0  0  0  0  0  0  0  0  0  0
    0.1712    2.8760   -1.1063 C   0  0  0  0  0  0  0  0  0  0  0  0
    0.9435    1.8349   -0.5579 C   0  0  0  0  0  0  0  0  0  0  0  0
    1.8473   -1.5056    0.6805 C   0  0  0  0  0  0  0  0  0  0  0  0
    2.9651   -2.0845    1.3122 C   0  0  0  0  0  0  0  0  0  0  0  0
    2.9557   -3.4363    1.6611 C   0  0  0  0  0  0  0  0  0  0  0  0
    1.8392   -4.2244    1.3868 C   0  0  0  0  0  0  0  0  0  0  0  0
    0.7234   -3.6665    0.7608 C   0  0  0  0  0  0  0  0  0  0  0  0
    0.7118   -2.3034    0.3998 C   0  0  0  0  0  0  0  0  0  0  0  0
   -0.4133   -1.7261   -0.2409 C   0  0  0  0  0  0  0  0  0  0  0  0
   -1.4119   -2.4580   -0.4930 O   0  0  0  0  0  0  0  0  0  0  0  0
   -5.0694   -2.5107   -0.8630 H   0  0  0  0  0  0  0  0  0  0  0  0
   -3.8158    0.6810    1.4218 H   0  0  0  0  0  0  0  0  0  0  0  0
   -2.6974   -0.6865    1.1522 H   0  0  0  0  0  0  0  0  0  0  0  0
   -3.1844    1.6205   -0.8600 H   0  0  0  0  0  0  0  0  0  0  0  0
   -1.8763    1.6008    0.3585 H   0  0  0  0  0  0  0  0  0  0  0  0
   -2.2204   -0.6250   -1.7605 H   0  0  0  0  0  0  0  0  0  0  0  0
   -1.3025    0.7929   -2.1221 H   0  0  0  0  0  0  0  0  0  0  0  0
    3.7973    3.5655    0.1775 H   0  0  0  0  0  0  0  0  0  0  0  0
    2.4498    5.4088   -0.8180 H   0  0  0  0  0  0  0  0  0  0  0  0
    0.1441    4.9713   -1.6188 H   0  0  0  0  0  0  0  0  0  0  0  0
   -0.8386    2.7492   -1.4477 H   0  0  0  0  0  0  0  0  0  0  0  0
    3.8485   -1.5110    1.5448 H   0  0  0  0  0  0  0  0  0  0  0  0
    3.8180   -3.8745    2.1470 H   0  0  0  0  0  0  0  0  0  0  0  0
    1.8380   -5.2718    1.6599 H   0  0  0  0  0  0  0  0  0  0  0  0
   -0.1280   -4.3054    0.5609 H   0  0  0  0  0  0  0  0  0  0  0  0
  1  2  1  0
  2  3  2  0
  2  4  1  0
  4  5  1  0
  5  6  1  0
  6  7  1  0
  7  8  1  0
  8  9  2  0
  9 10  1  0
 10 11  2  0
 10 12  1  0
 12 13  2  0
 13 14  1  0
 14 15  2  0
 15 16  1  0
 16 17  2  0
  9 18  1  0
 18 19  2  0
 19 20  1  0
 20 21  2  0
 21 22  1  0
 22 23  2  0
 23 24  1  0
 24 25  2  0
 24  7  1  0
 17  8  1  0
 23 18  1  0
 17 12  1  0
  1 26  1  0
  4 27  1  0
  4 28  1  0
  5 29  1  0
  5 30  1  0
  6 31  1  0
  6 32  1  0
 13 33  1  0
 14 34  1  0
 15 35  1  0
 16 36  1  0
 19 37  1  0
 20 38  1  0
 21 39  1  0
 22 40  1  0
M  END
$$$$
