
     RDKit          3D

 55 58  0  0  0  0  0  0  0  0999 V2000
   -2.1236   -0.7982    2.4636 C   0  0  2  0  0  0  0  0  0  0  0  0
   -1.5986   -1.6938    3.4988 N   0  0  0  0  0  0  0  0  0  0  0  0
   -2.0257   -1.4595    1.0922 C   0  0  0  0  0  0  0  0  0  0  0  0
   -0.8351   -2.0127    0.7294 F   0  0  0  0  0  0  0  0  0  0  0  0
   -3.0538   -1.5233    0.2189 C   0  0  0  0  0  0  0  0  0  0  0  0
   -2.9265   -2.1706   -1.1183 C   0  0  0  0  0  0  0  0  0  0  0  0
   -4.3480   -2.2123   -1.6644 C   0  0  0  0  0  0  0  0  0  0  0  0
   -5.1489   -1.1799   -0.8737 C   0  0  0  0  0  0  0  0  0  0  0  0
   -4.4320   -0.9993    0.4587 C   0  0  0  0  0  0  0  0  0  0  0  0
   -1.3983    0.5753    2.5272 C   0  0  2  0  0  0  0  0  0  0  0  0
   -2.1055    1.6388    1.6599 C   0  0  0  0  0  0  0  0  0  0  0  0
   -1.5015    3.0363    1.8767 C   0  0  0  0  0  0  0  0  0  0  0  0
   -0.5745    3.5508    0.7843 C   0  0  0  0  0  0  0  0  0  0  0  0
   -1.9927    4.0866    0.8917 C   0  0  0  0  0  0  0  0  0  0  0  0
    0.0659    0.4653    2.1811 C   0  0  0  0  0  0  0  0  0  0  0  0
    0.5547    0.4471    0.9262 N   0  0  0  0  0  0  0  0  0  0  0  0
    1.8812    0.3257    1.1488 C   0  0  0  0  0  0  0  0  0  0  0  0
    2.1672    0.2640    2.4650 N   0  0  0  0  0  0  0  0  0  0  0  0
    1.0219    0.3542    3.0683 O   0  0  0  0  0  0  0  0  0  0  0  0
    2.8853    0.2380    0.0565 C   0  0  0  0  0  0  0  0  0  0  0  0
    2.4276    0.0332   -1.2595 C   0  0  0  0  0  0  0  0  0  0  0  0
    3.3249   -0.0659   -2.3240 C   0  0  0  0  0  0  0  0  0  0  0  0
    4.6991    0.0460   -2.0991 C   0  0  0  0  0  0  0  0  0  0  0  0
    5.1714    0.2480   -0.7983 C   0  0  0  0  0  0  0  0  0  0  0  0
    4.2818    0.3495    0.2792 C   0  0  0  0  0  0  0  0  0  0  0  0
    4.9831    0.6490    1.8672 Cl  0  0  0  0  0  0  0  0  0  0  0  0
    5.8313   -0.0966   -3.4398 S   0  0  0  0  0  6  0  0  0  0  0  0
    6.3194   -1.7967   -3.6212 C   0  0  0  0  0  0  0  0  0  0  0  0
    5.1814    0.3777   -4.7095 O   0  0  0  0  0  0  0  0  0  0  0  0
    7.0445    0.7499   -3.1740 O   0  0  0  0  0  0  0  0  0  0  0  0
   -3.1888   -0.6142    2.7213 H   0  0  0  0  0  0  0  0  0  0  0  0
   -0.6187   -1.9756    3.2651 H   0  0  0  0  0  0  0  0  0  0  0  0
   -2.1762   -2.5662    3.5089 H   0  0  0  0  0  0  0  0  0  0  0  0
   -2.2727   -1.5527   -1.7715 H   0  0  0  0  0  0  0  0  0  0  0  0
   -2.5139   -3.1992   -1.0284 H   0  0  0  0  0  0  0  0  0  0  0  0
   -4.3683   -1.9899   -2.7533 H   0  0  0  0  0  0  0  0  0  0  0  0
   -4.7817   -3.2226   -1.4936 H   0  0  0  0  0  0  0  0  0  0  0  0
   -5.1512   -0.2150   -1.4279 H   0  0  0  0  0  0  0  0  0  0  0  0
   -6.1990   -1.5128   -0.7248 H   0  0  0  0  0  0  0  0  0  0  0  0
   -4.9289   -1.5986    1.2521 H   0  0  0  0  0  0  0  0  0  0  0  0
   -4.4178    0.0739    0.7389 H   0  0  0  0  0  0  0  0  0  0  0  0
   -1.4623    0.9246    3.5826 H   0  0  0  0  0  0  0  0  0  0  0  0
   -3.1725    1.6957    1.9634 H   0  0  0  0  0  0  0  0  0  0  0  0
   -2.0764    1.3409    0.5880 H   0  0  0  0  0  0  0  0  0  0  0  0
   -1.3274    3.4223    2.9040 H   0  0  0  0  0  0  0  0  0  0  0  0
   -0.4142    2.8824   -0.0882 H   0  0  0  0  0  0  0  0  0  0  0  0
    0.2032    4.2591    1.1396 H   0  0  0  0  0  0  0  0  0  0  0  0
   -2.6705    3.7273    0.0875 H   0  0  0  0  0  0  0  0  0  0  0  0
   -2.0526    5.1159    1.3043 H   0  0  0  0  0  0  0  0  0  0  0  0
    1.3692   -0.0621   -1.4692 H   0  0  0  0  0  0  0  0  0  0  0  0
    2.9453   -0.2344   -3.3237 H   0  0  0  0  0  0  0  0  0  0  0  0
    6.2366    0.3294   -0.6203 H   0  0  0  0  0  0  0  0  0  0  0  0
    6.8057   -2.1444   -2.6865 H   0  0  0  0  0  0  0  0  0  0  0  0
    5.4240   -2.4198   -3.8239 H   0  0  0  0  0  0  0  0  0  0  0  0
    7.0331   -1.8907   -4.4655 H   0  0  0  0  0  0  0  0  0  0  0  0
  1  2  1  0
  1  3  1  0
  3  4  1  0
  3  5  2  3
  5  6  1  0
  6  7  1  0
  7  8  1  0
  8  9  1  0
  1 10  1  0
 10 11  1  0
 11 12  1  0
 12 13  1  0
 13 14  1  0
 10 15  1  0
 15 16  2  0
 16 17  1  0
 17 18  2  0
 18 19  1  0
 17 20  1  0
 20 21  2  0
 21 22  1  0
 22 23  2  0
 23 24  1  0
 24 25  2  0
 25 26  1  0
 23 27  1  0
 27 28  1  0
 27 29  2  0
 27 30  2  0
  9  5  1  0
 14 12  1  0
 19 15  1  0
 25 20  1  0
  1 31  1  1
  2 32  1  0
  2 33  1  0
  6 34  1  0
  6 35  1  0
  7 36  1  0
  7 37  1  0
  8 38  1  0
  8 39  1  0
  9 40  1  0
  9 41  1  0
 10 42  1  1
 11 43  1  0
 11 44  1  0
 12 45  1  0
 13 46  1  0
 13 47  1  0
 14 48  1  0
 14 49  1  0
 21 50  1  0
 22 51  1  0
 24 52  1  0
 28 53  1  0
 28 54  1  0
 28 55  1  0
M  END
$$$$
