
     RDKit          3D

 37 36  0  0  0  0  0  0  0  0999 V2000
    4.1253   -0.1377    2.3965 N   0  0  0  0  0  0  0  0  0  0  0  0
    3.8853   -1.0532    1.2790 C   0  0  1  0  0  0  0  0  0  0  0  0
    2.4593   -0.8758    0.7180 C   0  0  0  0  0  0  0  0  0  0  0  0
    2.1687    0.5509    0.2262 C   0  0  0  0  0  0  0  0  0  0  0  0
    0.7526    0.6577   -0.2530 C   0  0  0  0  0  0  0  0  0  0  0  0
    0.5005    0.4615   -1.4716 O   0  0  0  0  0  0  0  0  0  0  0  0
   -0.3054    0.9063    0.6888 N   0  0  0  0  0  0  0  0  0  0  0  0
   -1.7133    1.1610    0.3443 C   0  0  1  0  0  0  0  0  0  0  0  0
   -1.8844    2.5455   -0.3208 C   0  0  0  0  0  0  0  0  0  0  0  0
   -1.5423    2.5593   -2.1132 S   0  0  0  0  0  0  0  0  0  0  0  0
   -2.3380    0.0168   -0.4270 C   0  0  0  0  0  0  0  0  0  0  0  0
   -1.7141   -1.0725   -0.5541 O   0  0  0  0  0  0  0  0  0  0  0  0
   -3.6739    0.1347   -0.9414 N   0  0  0  0  0  0  0  0  0  0  0  0
   -4.3089   -0.9265   -1.7184 C   0  0  0  0  0  0  0  0  0  0  0  0
   -4.7056   -2.0561   -0.8232 C   0  0  0  0  0  0  0  0  0  0  0  0
   -3.9726   -3.2385   -0.8298 O   0  0  0  0  0  0  0  0  0  0  0  0
   -5.6883   -1.9279   -0.0451 O   0  0  0  0  0  0  0  0  0  0  0  0
    4.9191   -0.8529    0.2039 C   0  0  0  0  0  0  0  0  0  0  0  0
    5.4910    0.4006    0.0029 O   0  0  0  0  0  0  0  0  0  0  0  0
    5.2403   -1.8148   -0.5442 O   0  0  0  0  0  0  0  0  0  0  0  0
    5.0666   -0.3517    2.8005 H   0  0  0  0  0  0  0  0  0  0  0  0
    3.4328   -0.3505    3.1513 H   0  0  0  0  0  0  0  0  0  0  0  0
    3.9748   -2.0994    1.6521 H   0  0  0  0  0  0  0  0  0  0  0  0
    1.7303   -1.1422    1.5151 H   0  0  0  0  0  0  0  0  0  0  0  0
    2.3066   -1.5920   -0.1200 H   0  0  0  0  0  0  0  0  0  0  0  0
    2.8546    0.8155   -0.6070 H   0  0  0  0  0  0  0  0  0  0  0  0
    2.3289    1.2816    1.0476 H   0  0  0  0  0  0  0  0  0  0  0  0
   -0.0526    0.9288    1.7029 H   0  0  0  0  0  0  0  0  0  0  0  0
   -2.2755    1.2145    1.3031 H   0  0  0  0  0  0  0  0  0  0  0  0
   -1.2155    3.2806    0.1760 H   0  0  0  0  0  0  0  0  0  0  0  0
   -2.9257    2.9016   -0.1700 H   0  0  0  0  0  0  0  0  0  0  0  0
   -1.8209    3.9348   -2.2224 H   0  0  0  0  0  0  0  0  0  0  0  0
   -4.2173    1.0095   -0.7681 H   0  0  0  0  0  0  0  0  0  0  0  0
   -5.2180   -0.5265   -2.2170 H   0  0  0  0  0  0  0  0  0  0  0  0
   -3.6164   -1.2832   -2.5110 H   0  0  0  0  0  0  0  0  0  0  0  0
   -4.2226   -4.0080   -0.2203 H   0  0  0  0  0  0  0  0  0  0  0  0
    6.1746    0.5484   -0.7298 H   0  0  0  0  0  0  0  0  0  0  0  0
  1  2  1  0
  2  3  1  0
  3  4  1  0
  4  5  1  0
  5  6  2  0
  5  7  1  0
  7  8  1  0
  8  9  1  0
  9 10  1  0
  8 11  1  0
 11 12  2  0
 11 13  1  0
 13 14  1  0
 14 15  1  0
 15 16  1  0
 15 17  2  0
  2 18  1  0
 18 19  1  0
 18 20  2  0
  1 21  1  0
  1 22  1  0
  2 23  1  1
  3 24  1  0
  3 25  1  0
  4 26  1  0
  4 27  1  0
  7 28  1  0
  8 29  1  1
  9 30  1  0
  9 31  1  0
 10 32  1  0
 13 33  1  0
 14 34  1  0
 14 35  1  0
 16 36  1  0
 19 37  1  0
M  END
$$$$
