
     RDKit          3D

 52 54  0  0  0  0  0  0  0  0999 V2000
    7.9938    1.2944   -2.9641 N   0  0  0  0  0  0  0  0  0  0  0  0
    7.5898    0.1011   -2.2989 C   0  0  0  0  0  0  0  0  0  0  0  0
    7.3589    0.0362   -0.9714 N   0  0  0  0  0  0  0  0  0  0  0  0
    6.9873   -1.2175   -0.5941 C   0  0  0  0  0  0  0  0  0  0  0  0
    6.6236   -1.5378    0.8216 C   0  0  0  0  0  0  0  0  0  0  0  0
    5.1502   -1.3605    1.0201 C   0  0  0  0  0  0  0  0  0  0  0  0
    4.4094   -2.3777    1.0995 O   0  0  0  0  0  0  0  0  0  0  0  0
    4.5952   -0.0398    1.1236 N   0  0  0  0  0  0  0  0  0  0  0  0
    3.1900    0.2527    1.0408 C   0  0  0  0  0  0  0  0  0  0  0  0
    2.6678    1.3295    1.7722 C   0  0  0  0  0  0  0  0  0  0  0  0
    1.3096    1.6495    1.6919 C   0  0  0  0  0  0  0  0  0  0  0  0
    0.4566    0.9119    0.8570 C   0  0  0  0  0  0  0  0  0  0  0  0
   -1.0126    1.2338    0.7946 C   0  0  0  0  0  0  0  0  0  0  0  0
   -1.7865    0.4257    1.8410 C   0  0  0  0  0  0  0  0  0  0  0  0
   -3.2134    0.7786    1.8065 N   0  0  0  0  0  0  0  0  0  0  0  0
   -3.9561   -0.0788    0.8714 C   0  0  0  0  0  0  0  0  0  0  0  0
   -5.3802    0.4577    0.6776 C   0  0  2  0  0  0  0  0  0  0  0  0
   -6.0822    0.3886    1.8925 O   0  0  0  0  0  0  0  0  0  0  0  0
   -6.0981   -0.3423   -0.3881 C   0  0  0  0  0  0  0  0  0  0  0  0
   -6.2361    0.1755   -1.6879 C   0  0  0  0  0  0  0  0  0  0  0  0
   -6.8732   -0.5733   -2.6823 C   0  0  0  0  0  0  0  0  0  0  0  0
   -7.3691   -1.8467   -2.3915 C   0  0  0  0  0  0  0  0  0  0  0  0
   -7.2253   -2.3758   -1.1064 C   0  0  0  0  0  0  0  0  0  0  0  0
   -6.5891   -1.6310   -0.1087 C   0  0  0  0  0  0  0  0  0  0  0  0
    0.9780   -0.1595    0.1158 C   0  0  0  0  0  0  0  0  0  0  0  0
    2.3362   -0.4802    0.1973 C   0  0  0  0  0  0  0  0  0  0  0  0
    6.9052   -2.1481   -1.6293 C   0  0  0  0  0  0  0  0  0  0  0  0
    7.3321   -1.3733   -3.0612 S   0  0  0  0  0  0  0  0  0  0  0  0
    8.1301    2.1774   -2.4243 H   0  0  0  0  0  0  0  0  0  0  0  0
    8.1558    1.2942   -3.9953 H   0  0  0  0  0  0  0  0  0  0  0  0
    7.1754   -0.8653    1.5127 H   0  0  0  0  0  0  0  0  0  0  0  0
    6.9206   -2.5824    1.0606 H   0  0  0  0  0  0  0  0  0  0  0  0
    5.2491    0.7473    1.3370 H   0  0  0  0  0  0  0  0  0  0  0  0
    3.3134    1.9133    2.4163 H   0  0  0  0  0  0  0  0  0  0  0  0
    0.9230    2.4727    2.2801 H   0  0  0  0  0  0  0  0  0  0  0  0
   -1.1712    2.3197    0.9755 H   0  0  0  0  0  0  0  0  0  0  0  0
   -1.3980    1.0126   -0.2235 H   0  0  0  0  0  0  0  0  0  0  0  0
   -1.6309   -0.6666    1.6830 H   0  0  0  0  0  0  0  0  0  0  0  0
   -1.3754    0.6736    2.8458 H   0  0  0  0  0  0  0  0  0  0  0  0
   -3.6033    0.6136    2.7646 H   0  0  0  0  0  0  0  0  0  0  0  0
   -3.9958   -1.1227    1.2587 H   0  0  0  0  0  0  0  0  0  0  0  0
   -3.4492   -0.0936   -0.1189 H   0  0  0  0  0  0  0  0  0  0  0  0
   -5.3027    1.5252    0.3621 H   0  0  0  0  0  0  0  0  0  0  0  0
   -6.8944    0.9499    1.7849 H   0  0  0  0  0  0  0  0  0  0  0  0
   -5.8498    1.1572   -1.9326 H   0  0  0  0  0  0  0  0  0  0  0  0
   -6.9795   -0.1672   -3.6800 H   0  0  0  0  0  0  0  0  0  0  0  0
   -7.8607   -2.4252   -3.1629 H   0  0  0  0  0  0  0  0  0  0  0  0
   -7.6041   -3.3650   -0.8839 H   0  0  0  0  0  0  0  0  0  0  0  0
   -6.4772   -2.0587    0.8799 H   0  0  0  0  0  0  0  0  0  0  0  0
    0.3334   -0.7420   -0.5310 H   0  0  0  0  0  0  0  0  0  0  0  0
    2.7193   -1.2843   -0.4165 H   0  0  0  0  0  0  0  0  0  0  0  0
    6.6099   -3.1844   -1.5319 H   0  0  0  0  0  0  0  0  0  0  0  0
  1  2  1  0
  2  3  2  0
  3  4  1  0
  4  5  1  0
  5  6  1  0
  6  7  2  0
  6  8  1  0
  8  9  1  0
  9 10  2  0
 10 11  1  0
 11 12  2  0
 12 13  1  0
 13 14  1  0
 14 15  1  0
 15 16  1  0
 16 17  1  0
 17 18  1  0
 17 19  1  0
 19 20  2  0
 20 21  1  0
 21 22  2  0
 22 23  1  0
 23 24  2  0
 12 25  1  0
 25 26  2  0
  4 27  2  0
 27 28  1  0
 28  2  1  0
 26  9  1  0
 24 19  1  0
  1 29  1  0
  1 30  1  0
  5 31  1  0
  5 32  1  0
  8 33  1  0
 10 34  1  0
 11 35  1  0
 13 36  1  0
 13 37  1  0
 14 38  1  0
 14 39  1  0
 15 40  1  0
 16 41  1  0
 16 42  1  0
 17 43  1  6
 18 44  1  0
 20 45  1  0
 21 46  1  0
 22 47  1  0
 23 48  1  0
 24 49  1  0
 25 50  1  0
 26 51  1  0
 27 52  1  0
M  END
$$$$
