
     RDKit          3D

 39 39  0  0  0  0  0  0  0  0999 V2000
    2.1328    1.3829   -0.2279 C   0  0  1  0  0  0  0  0  0  0  0  0
    3.5639    1.3546    0.0888 N   0  0  0  0  0  0  0  0  0  0  0  0
    1.6982    0.0731   -0.9323 C   0  0  0  0  0  0  0  0  0  0  0  0
    2.0989   -1.2455   -0.2303 C   0  0  0  0  0  0  0  0  0  0  0  0
    1.1667   -1.6756    0.9259 C   0  0  0  0  0  0  0  0  0  0  0  0
    0.1556   -2.7823    0.5597 C   0  0  0  0  0  0  0  0  0  0  0  0
   -0.9676   -2.3795   -0.4240 C   0  0  0  0  0  0  0  0  0  0  0  0
   -2.2536   -1.8377    0.2437 C   0  0  0  0  0  0  0  0  0  0  0  0
   -2.2287   -0.3414    0.6022 C   0  0  0  0  0  0  0  0  0  0  0  0
   -2.3789    0.5749   -0.6246 C   0  0  0  0  0  0  0  0  0  0  0  0
   -2.2217    2.0680   -0.2728 C   0  0  0  0  0  0  0  0  0  0  0  0
   -0.7584    2.5460   -0.2489 C   0  0  0  0  0  0  0  0  0  0  0  0
   -0.0644    2.0820    0.9556 N   0  0  0  0  0  0  0  0  0  0  0  0
    1.3105    1.6567    1.0141 C   0  0  0  0  0  0  0  0  0  0  0  0
    1.8303    1.4600    2.1466 O   0  0  0  0  0  0  0  0  0  0  0  0
    1.9662    2.2235   -0.9373 H   0  0  0  0  0  0  0  0  0  0  0  0
    4.0969    1.2271   -0.8025 H   0  0  0  0  0  0  0  0  0  0  0  0
    3.8392    2.2952    0.4558 H   0  0  0  0  0  0  0  0  0  0  0  0
    2.1680    0.0691   -1.9403 H   0  0  0  0  0  0  0  0  0  0  0  0
    0.6112    0.0948   -1.1080 H   0  0  0  0  0  0  0  0  0  0  0  0
    3.1377   -1.1583    0.1533 H   0  0  0  0  0  0  0  0  0  0  0  0
    2.1327   -2.0519   -0.9950 H   0  0  0  0  0  0  0  0  0  0  0  0
    1.8127   -2.0949    1.7283 H   0  0  0  0  0  0  0  0  0  0  0  0
    0.6617   -0.8202    1.3924 H   0  0  0  0  0  0  0  0  0  0  0  0
    0.7230   -3.6309    0.1177 H   0  0  0  0  0  0  0  0  0  0  0  0
   -0.2936   -3.1767    1.4968 H   0  0  0  0  0  0  0  0  0  0  0  0
   -0.5998   -1.7122   -1.2215 H   0  0  0  0  0  0  0  0  0  0  0  0
   -1.2661   -3.3108   -0.9540 H   0  0  0  0  0  0  0  0  0  0  0  0
   -3.1116   -2.0181   -0.4408 H   0  0  0  0  0  0  0  0  0  0  0  0
   -2.4673   -2.4235    1.1639 H   0  0  0  0  0  0  0  0  0  0  0  0
   -3.0834   -0.1401    1.2845 H   0  0  0  0  0  0  0  0  0  0  0  0
   -1.3214   -0.1006    1.1715 H   0  0  0  0  0  0  0  0  0  0  0  0
   -3.3992    0.4226   -1.0403 H   0  0  0  0  0  0  0  0  0  0  0  0
   -1.6677    0.2996   -1.4281 H   0  0  0  0  0  0  0  0  0  0  0  0
   -2.7491    2.6561   -1.0554 H   0  0  0  0  0  0  0  0  0  0  0  0
   -2.7224    2.3000    0.6926 H   0  0  0  0  0  0  0  0  0  0  0  0
   -0.7491    3.6569   -0.2471 H   0  0  0  0  0  0  0  0  0  0  0  0
   -0.2543    2.2191   -1.1781 H   0  0  0  0  0  0  0  0  0  0  0  0
   -0.5478    2.2380    1.8695 H   0  0  0  0  0  0  0  0  0  0  0  0
  1  2  1  0
  1  3  1  0
  3  4  1  0
  4  5  1  0
  5  6  1  0
  6  7  1  0
  7  8  1  0
  8  9  1  0
  9 10  1  0
 10 11  1  0
 11 12  1  0
 12 13  1  0
 13 14  1  0
 14 15  2  0
 14  1  1  0
  1 16  1  6
  2 17  1  0
  2 18  1  0
  3 19  1  0
  3 20  1  0
  4 21  1  0
  4 22  1  0
  5 23  1  0
  5 24  1  0
  6 25  1  0
  6 26  1  0
  7 27  1  0
  7 28  1  0
  8 29  1  0
  8 30  1  0
  9 31  1  0
  9 32  1  0
 10 33  1  0
 10 34  1  0
 11 35  1  0
 11 36  1  0
 12 37  1  0
 12 38  1  0
 13 39  1  0
M  END
$$$$
