
     RDKit          3D

 56 60  0  0  0  0  0  0  0  0999 V2000
   -9.4997    0.9696   -0.4772 C   0  0  0  0  0  0  0  0  0  0  0  0
   -8.0391    1.1420   -0.4803 N   0  0  0  0  0  0  0  0  0  0  0  0
   -7.4862    0.7685    0.8363 C   0  0  0  0  0  0  0  0  0  0  0  0
   -5.9755    1.0132    0.8664 C   0  0  0  0  0  0  0  0  0  0  0  0
   -5.3378    0.3429   -0.2718 N   0  0  0  0  0  0  0  0  0  0  0  0
   -5.9265    0.5442   -1.6004 C   0  0  0  0  0  0  0  0  0  0  0  0
   -7.4372    0.3108   -1.5411 C   0  0  0  0  0  0  0  0  0  0  0  0
   -4.0037   -0.1864   -0.1510 C   0  0  0  0  0  0  0  0  0  0  0  0
   -3.0127    0.5189    0.5504 C   0  0  0  0  0  0  0  0  0  0  0  0
   -1.7204   -0.0011    0.6672 C   0  0  0  0  0  0  0  0  0  0  0  0
   -1.3926   -1.2374    0.0821 C   0  0  0  0  0  0  0  0  0  0  0  0
   -2.3922   -1.9489   -0.6046 C   0  0  0  0  0  0  0  0  0  0  0  0
   -3.6831   -1.4267   -0.7223 C   0  0  0  0  0  0  0  0  0  0  0  0
   -0.0277   -1.8048    0.2042 C   0  0  0  0  0  0  0  0  0  0  0  0
    0.1346   -3.0500    0.0835 O   0  0  0  0  0  0  0  0  0  0  0  0
    1.1095   -0.9540    0.4280 N   0  0  0  0  0  0  0  0  0  0  0  0
    2.4027   -1.4514    0.7943 C   0  0  0  0  0  0  0  0  0  0  0  0
    2.7043   -2.7533    1.0704 N   0  0  0  0  0  0  0  0  0  0  0  0
    3.9976   -2.8159    1.3959 N   0  0  0  0  0  0  0  0  0  0  0  0
    4.4718   -1.5662    1.3205 C   0  0  0  0  0  0  0  0  0  0  0  0
    5.6589   -0.9193    1.5290 C   0  0  0  0  0  0  0  0  0  0  0  0
    5.4224    0.4034    1.2779 N   0  0  0  0  0  0  0  0  0  0  0  0
    4.1080    0.5447    0.9274 C   0  0  0  0  0  0  0  0  0  0  0  0
    3.5416   -0.7045    0.9628 C   0  0  0  0  0  0  0  0  0  0  0  0
    6.3737    1.4797    1.3620 C   0  0  0  0  0  0  0  0  0  0  0  0
    6.0005    2.6611    1.1261 O   0  0  0  0  0  0  0  0  0  0  0  0
    7.8212    1.2305    1.6775 C   0  0  0  0  0  0  0  0  0  0  0  0
    8.5490    0.7790    0.4505 C   0  0  0  0  0  0  0  0  0  0  0  0
    8.8894    1.5793   -0.6329 C   0  0  0  0  0  0  0  0  0  0  0  0
    9.5369    0.8756   -1.6553 C   0  0  0  0  0  0  0  0  0  0  0  0
    9.7029   -0.4765   -1.3834 C   0  0  0  0  0  0  0  0  0  0  0  0
    9.0423   -0.7964    0.1299 S   0  0  0  0  0  0  0  0  0  0  0  0
   -9.7822   -0.0889   -0.2800 H   0  0  0  0  0  0  0  0  0  0  0  0
   -9.9234    1.2809   -1.4563 H   0  0  0  0  0  0  0  0  0  0  0  0
   -9.9595    1.6178    0.2995 H   0  0  0  0  0  0  0  0  0  0  0  0
   -7.9529    1.3870    1.6347 H   0  0  0  0  0  0  0  0  0  0  0  0
   -7.6909   -0.3033    1.0632 H   0  0  0  0  0  0  0  0  0  0  0  0
   -5.7725    2.1048    0.8123 H   0  0  0  0  0  0  0  0  0  0  0  0
   -5.5698    0.6226    1.8254 H   0  0  0  0  0  0  0  0  0  0  0  0
   -5.4824   -0.1472   -2.3479 H   0  0  0  0  0  0  0  0  0  0  0  0
   -5.7246    1.5854   -1.9335 H   0  0  0  0  0  0  0  0  0  0  0  0
   -7.8687    0.5835   -2.5296 H   0  0  0  0  0  0  0  0  0  0  0  0
   -7.6369   -0.7707   -1.3607 H   0  0  0  0  0  0  0  0  0  0  0  0
   -3.2374    1.4766    1.0021 H   0  0  0  0  0  0  0  0  0  0  0  0
   -0.9895    0.5586    1.2353 H   0  0  0  0  0  0  0  0  0  0  0  0
   -2.1740   -2.9079   -1.0580 H   0  0  0  0  0  0  0  0  0  0  0  0
   -4.4385   -1.9983   -1.2464 H   0  0  0  0  0  0  0  0  0  0  0  0
    1.0151    0.0754    0.2806 H   0  0  0  0  0  0  0  0  0  0  0  0
    4.5152   -3.6826    1.6608 H   0  0  0  0  0  0  0  0  0  0  0  0
    6.5965   -1.3599    1.8376 H   0  0  0  0  0  0  0  0  0  0  0  0
    3.6171    1.4755    0.6739 H   0  0  0  0  0  0  0  0  0  0  0  0
    7.9169    0.4743    2.4840 H   0  0  0  0  0  0  0  0  0  0  0  0
    8.2901    2.1660    2.0519 H   0  0  0  0  0  0  0  0  0  0  0  0
    8.6730    2.6384   -0.6858 H   0  0  0  0  0  0  0  0  0  0  0  0
    9.8728    1.3401   -2.5728 H   0  0  0  0  0  0  0  0  0  0  0  0
   10.1732   -1.1987   -2.0367 H   0  0  0  0  0  0  0  0  0  0  0  0
  1  2  1  0
  2  3  1  0
  3  4  1  0
  4  5  1  0
  5  6  1  0
  6  7  1  0
  5  8  1  0
  8  9  2  0
  9 10  1  0
 10 11  2  0
 11 12  1  0
 12 13  2  0
 11 14  1  0
 14 15  2  0
 14 16  1  0
 16 17  1  0
 17 18  2  0
 18 19  1  0
 19 20  1  0
 20 21  2  0
 21 22  1  0
 22 23  1  0
 23 24  2  0
 22 25  1  0
 25 26  2  0
 25 27  1  0
 27 28  1  0
 28 29  2  0
 29 30  1  0
 30 31  2  0
 31 32  1  0
  7  2  1  0
 13  8  1  0
 24 17  1  0
 32 28  1  0
 24 20  1  0
  1 33  1  0
  1 34  1  0
  1 35  1  0
  3 36  1  0
  3 37  1  0
  4 38  1  0
  4 39  1  0
  6 40  1  0
  6 41  1  0
  7 42  1  0
  7 43  1  0
  9 44  1  0
 10 45  1  0
 12 46  1  0
 13 47  1  0
 16 48  1  0
 19 49  1  0
 21 50  1  0
 23 51  1  0
 27 52  1  0
 27 53  1  0
 29 54  1  0
 30 55  1  0
 31 56  1  0
M  END
$$$$
