
     RDKit          3D

 22 22  0  0  0  0  0  0  0  0999 V2000
    4.0846   -1.3558    1.9710 O   0  0  0  0  0  0  0  0  0  0  0  0
    3.3668   -0.7502    0.9439 C   0  0  0  0  0  0  0  0  0  0  0  0
    3.9819   -0.1862   -0.0003 O   0  0  0  0  0  0  0  0  0  0  0  0
    1.8971   -0.7747    0.9660 C   0  0  0  0  0  0  0  0  0  0  0  0
    1.3077   -1.3468    1.9226 O   0  0  0  0  0  0  0  0  0  0  0  0
    1.1378   -0.1342   -0.0725 N   0  0  0  0  0  0  0  0  0  0  0  0
   -0.2899   -0.2589   -0.1875 C   0  0  0  0  0  0  0  0  0  0  0  0
   -1.1054    0.8704   -0.4628 C   0  0  0  0  0  0  0  0  0  0  0  0
   -2.4845    0.6813   -0.6721 C   0  0  0  0  0  0  0  0  0  0  0  0
   -3.0502   -0.5925   -0.5961 C   0  0  0  0  0  0  0  0  0  0  0  0
   -2.2493   -1.6978   -0.3168 C   0  0  0  0  0  0  0  0  0  0  0  0
   -0.8779   -1.5348   -0.1199 C   0  0  0  0  0  0  0  0  0  0  0  0
   -0.5659    2.2522   -0.4988 C   0  0  0  0  0  0  0  0  0  0  0  0
   -1.2742    3.2585   -1.1509 O   0  0  0  0  0  0  0  0  0  0  0  0
    0.5139    2.5407    0.0835 O   0  0  0  0  0  0  0  0  0  0  0  0
    5.0976   -1.3491    1.9713 H   0  0  0  0  0  0  0  0  0  0  0  0
    1.6386    0.4623   -0.7686 H   0  0  0  0  0  0  0  0  0  0  0  0
   -3.1333    1.5239   -0.8770 H   0  0  0  0  0  0  0  0  0  0  0  0
   -4.1134   -0.7221   -0.7527 H   0  0  0  0  0  0  0  0  0  0  0  0
   -2.6895   -2.6853   -0.2658 H   0  0  0  0  0  0  0  0  0  0  0  0
   -0.2667   -2.4107    0.0570 H   0  0  0  0  0  0  0  0  0  0  0  0
   -0.9259    4.2095   -1.1733 H   0  0  0  0  0  0  0  0  0  0  0  0
  1  2  1  0
  2  3  2  0
  2  4  1  0
  4  5  2  0
  4  6  1  0
  6  7  1  0
  7  8  2  0
  8  9  1  0
  9 10  2  0
 10 11  1  0
 11 12  2  0
  8 13  1  0
 13 14  1  0
 13 15  2  0
 12  7  1  0
  1 16  1  0
  6 17  1  0
  9 18  1  0
 10 19  1  0
 11 20  1  0
 12 21  1  0
 14 22  1  0
M  END
$$$$
