
     RDKit          3D

 51 53  0  0  0  0  0  0  0  0999 V2000
    4.2358   -2.5825   -0.1678 C   0  0  0  0  0  0  0  0  0  0  0  0
    4.2317   -1.1988    0.5083 C   0  0  0  0  0  0  0  0  0  0  0  0
    3.3653   -0.1630   -0.1481 N   0  0  0  0  0  4  0  0  0  0  0  0
    3.4952    1.0869    0.6518 C   0  0  0  0  0  0  0  0  0  0  0  0
    3.8798    0.0809   -1.5384 C   0  0  0  0  0  0  0  0  0  0  0  0
    3.2532    1.2763   -2.2822 C   0  0  0  0  0  0  0  0  0  0  0  0
    1.9241   -0.5783   -0.2089 C   0  0  0  0  0  0  0  0  0  0  0  0
    1.3150   -1.0605    1.1277 C   0  0  0  0  0  0  0  0  0  0  0  0
   -0.0846   -1.2822    0.9705 O   0  0  0  0  0  0  0  0  0  0  0  0
   -1.0234   -0.2462    0.9143 C   0  0  0  0  0  0  0  0  0  0  0  0
   -0.6826    0.9452    1.1567 O   0  0  0  0  0  0  0  0  0  0  0  0
   -2.4367   -0.5575    0.5118 C   0  0  0  0  0  0  0  0  0  0  0  0
   -3.3999   -0.0213    1.5514 C   0  0  0  0  0  0  0  0  0  0  0  0
   -3.4359   -0.5942    2.8347 C   0  0  0  0  0  0  0  0  0  0  0  0
   -4.2761   -0.0675    3.8197 C   0  0  0  0  0  0  0  0  0  0  0  0
   -5.0829    1.0366    3.5347 C   0  0  0  0  0  0  0  0  0  0  0  0
   -5.0576    1.6116    2.2616 C   0  0  0  0  0  0  0  0  0  0  0  0
   -4.2267    1.0837    1.2671 C   0  0  0  0  0  0  0  0  0  0  0  0
   -4.2417    1.6509   -0.0087 O   0  0  0  0  0  0  0  0  0  0  0  0
   -3.5351    1.0957   -1.0775 C   0  0  0  0  0  0  0  0  0  0  0  0
   -3.6910    1.6384   -2.3579 C   0  0  0  0  0  0  0  0  0  0  0  0
   -3.0160    1.0787   -3.4457 C   0  0  0  0  0  0  0  0  0  0  0  0
   -2.1812   -0.0254   -3.2581 C   0  0  0  0  0  0  0  0  0  0  0  0
   -2.0140   -0.5682   -1.9812 C   0  0  0  0  0  0  0  0  0  0  0  0
   -2.6859   -0.0109   -0.8786 C   0  0  0  0  0  0  0  0  0  0  0  0
    4.7177   -2.5433   -1.1655 H   0  0  0  0  0  0  0  0  0  0  0  0
    3.2162   -3.0052   -0.2588 H   0  0  0  0  0  0  0  0  0  0  0  0
    4.8313   -3.2832    0.4547 H   0  0  0  0  0  0  0  0  0  0  0  0
    3.9441   -1.3416    1.5732 H   0  0  0  0  0  0  0  0  0  0  0  0
    5.2884   -0.8461    0.5422 H   0  0  0  0  0  0  0  0  0  0  0  0
    3.3660    0.8992    1.7396 H   0  0  0  0  0  0  0  0  0  0  0  0
    2.7328    1.8438    0.3648 H   0  0  0  0  0  0  0  0  0  0  0  0
    4.5030    1.5420    0.5227 H   0  0  0  0  0  0  0  0  0  0  0  0
    4.9812    0.2482   -1.5199 H   0  0  0  0  0  0  0  0  0  0  0  0
    3.7057   -0.8108   -2.1792 H   0  0  0  0  0  0  0  0  0  0  0  0
    3.4818    2.2371   -1.7779 H   0  0  0  0  0  0  0  0  0  0  0  0
    3.6906    1.3317   -3.3014 H   0  0  0  0  0  0  0  0  0  0  0  0
    2.1580    1.1597   -2.4024 H   0  0  0  0  0  0  0  0  0  0  0  0
    1.2994    0.2698   -0.5608 H   0  0  0  0  0  0  0  0  0  0  0  0
    1.7774   -1.3832   -0.9623 H   0  0  0  0  0  0  0  0  0  0  0  0
    1.7704   -2.0258    1.4265 H   0  0  0  0  0  0  0  0  0  0  0  0
    1.4834   -0.3315    1.9465 H   0  0  0  0  0  0  0  0  0  0  0  0
   -2.5623   -1.6624    0.4712 H   0  0  0  0  0  0  0  0  0  0  0  0
   -2.8042   -1.4411    3.0730 H   0  0  0  0  0  0  0  0  0  0  0  0
   -4.2968   -0.5116    4.8065 H   0  0  0  0  0  0  0  0  0  0  0  0
   -5.7303    1.4451    4.2999 H   0  0  0  0  0  0  0  0  0  0  0  0
   -5.6912    2.4618    2.0434 H   0  0  0  0  0  0  0  0  0  0  0  0
   -4.3423    2.4896   -2.5100 H   0  0  0  0  0  0  0  0  0  0  0  0
   -3.1416    1.4996   -4.4349 H   0  0  0  0  0  0  0  0  0  0  0  0
   -1.6575   -0.4566   -4.1015 H   0  0  0  0  0  0  0  0  0  0  0  0
   -1.3500   -1.4134   -1.8468 H   0  0  0  0  0  0  0  0  0  0  0  0
  1  2  1  0
  2  3  1  0
  3  4  1  0
  3  5  1  0
  5  6  1  0
  3  7  1  0
  7  8  1  0
  8  9  1  0
  9 10  1  0
 10 11  2  0
 10 12  1  0
 12 13  1  0
 13 14  2  0
 14 15  1  0
 15 16  2  0
 16 17  1  0
 17 18  2  0
 18 19  1  0
 19 20  1  0
 20 21  2  0
 21 22  1  0
 22 23  2  0
 23 24  1  0
 24 25  2  0
 25 12  1  0
 18 13  1  0
 25 20  1  0
  1 26  1  0
  1 27  1  0
  1 28  1  0
  2 29  1  0
  2 30  1  0
  4 31  1  0
  4 32  1  0
  4 33  1  0
  5 34  1  0
  5 35  1  0
  6 36  1  0
  6 37  1  0
  6 38  1  0
  7 39  1  0
  7 40  1  0
  8 41  1  0
  8 42  1  0
 12 43  1  0
 14 44  1  0
 15 45  1  0
 16 46  1  0
 17 47  1  0
 21 48  1  0
 22 49  1  0
 23 50  1  0
 24 51  1  0
M  CHG  1   3   1
M  END
$$$$
