
     RDKit          3D

 44 45  0  0  0  0  0  0  0  0999 V2000
    6.9797   -0.3196    0.4448 C   0  0  0  0  0  0  0  0  0  0  0  0
    5.9393   -1.3730    0.8105 C   0  0  0  0  0  0  0  0  0  0  0  0
    4.5549   -0.7823    0.7965 C   0  0  0  0  0  0  0  0  0  0  0  0
    3.8019   -0.7710   -0.3862 C   0  0  0  0  0  0  0  0  0  0  0  0
    2.5283   -0.1952   -0.4091 C   0  0  0  0  0  0  0  0  0  0  0  0
    1.9844    0.3856    0.7528 C   0  0  0  0  0  0  0  0  0  0  0  0
    2.7557    0.3922    1.9293 C   0  0  0  0  0  0  0  0  0  0  0  0
    4.0284   -0.1848    1.9505 C   0  0  0  0  0  0  0  0  0  0  0  0
    0.6351    1.0102    0.7539 C   0  0  0  0  0  0  0  0  0  0  0  0
    0.3735    1.8975    1.6129 O   0  0  0  0  0  0  0  0  0  0  0  0
   -0.4284    0.6417   -0.2607 C   0  0  0  0  0  0  0  0  0  0  0  0
   -0.4540    1.6908   -1.3789 C   0  0  0  0  0  0  0  0  0  0  0  0
   -1.8038    0.4870    0.4240 C   0  0  0  0  0  0  0  0  0  0  0  0
   -2.7953   -0.0850   -0.5192 N   0  0  0  0  0  0  0  0  0  0  0  0
   -3.5011   -1.2503    0.0688 C   0  0  0  0  0  0  0  0  0  0  0  0
   -4.7611   -1.6069   -0.7263 C   0  0  0  0  0  0  0  0  0  0  0  0
   -5.7748   -0.4492   -0.7002 C   0  0  0  0  0  0  0  0  0  0  0  0
   -5.1046    0.9213   -0.5005 C   0  0  0  0  0  0  0  0  0  0  0  0
   -3.6970    0.9419   -1.1114 C   0  0  0  0  0  0  0  0  0  0  0  0
    6.7845    0.0774   -0.5744 H   0  0  0  0  0  0  0  0  0  0  0  0
    7.9920   -0.7754    0.4610 H   0  0  0  0  0  0  0  0  0  0  0  0
    6.9544    0.5171    1.1754 H   0  0  0  0  0  0  0  0  0  0  0  0
    6.1703   -1.7822    1.8182 H   0  0  0  0  0  0  0  0  0  0  0  0
    6.0023   -2.2166    0.0890 H   0  0  0  0  0  0  0  0  0  0  0  0
    4.2044   -1.2028   -1.2944 H   0  0  0  0  0  0  0  0  0  0  0  0
    1.9881   -0.1878   -1.3456 H   0  0  0  0  0  0  0  0  0  0  0  0
    2.3711    0.8378    2.8384 H   0  0  0  0  0  0  0  0  0  0  0  0
    4.6043   -0.1649    2.8675 H   0  0  0  0  0  0  0  0  0  0  0  0
   -0.1835   -0.3452   -0.7089 H   0  0  0  0  0  0  0  0  0  0  0  0
    0.5628    1.8260   -1.8051 H   0  0  0  0  0  0  0  0  0  0  0  0
   -0.8074    2.6700   -0.9903 H   0  0  0  0  0  0  0  0  0  0  0  0
   -1.1202    1.3617   -2.2032 H   0  0  0  0  0  0  0  0  0  0  0  0
   -2.1483    1.4583    0.8464 H   0  0  0  0  0  0  0  0  0  0  0  0
   -1.6548   -0.1841    1.3020 H   0  0  0  0  0  0  0  0  0  0  0  0
   -3.7970   -1.0467    1.1238 H   0  0  0  0  0  0  0  0  0  0  0  0
   -2.8166   -2.1260    0.0665 H   0  0  0  0  0  0  0  0  0  0  0  0
   -5.2269   -2.5227   -0.3023 H   0  0  0  0  0  0  0  0  0  0  0  0
   -4.4720   -1.8272   -1.7775 H   0  0  0  0  0  0  0  0  0  0  0  0
   -6.5050   -0.6123    0.1223 H   0  0  0  0  0  0  0  0  0  0  0  0
   -6.3435   -0.4488   -1.6556 H   0  0  0  0  0  0  0  0  0  0  0  0
   -5.7288    1.7133   -0.9678 H   0  0  0  0  0  0  0  0  0  0  0  0
   -5.0279    1.1467    0.5858 H   0  0  0  0  0  0  0  0  0  0  0  0
   -3.2815    1.9692   -1.0206 H   0  0  0  0  0  0  0  0  0  0  0  0
   -3.7817    0.7442   -2.2018 H   0  0  0  0  0  0  0  0  0  0  0  0
  1  2  1  0
  2  3  1  0
  3  4  2  0
  4  5  1  0
  5  6  2  0
  6  7  1  0
  7  8  2  0
  6  9  1  0
  9 10  2  0
  9 11  1  0
 11 12  1  0
 11 13  1  0
 13 14  1  0
 14 15  1  0
 15 16  1  0
 16 17  1  0
 17 18  1  0
 18 19  1  0
  8  3  1  0
 19 14  1  0
  1 20  1  0
  1 21  1  0
  1 22  1  0
  2 23  1  0
  2 24  1  0
  4 25  1  0
  5 26  1  0
  7 27  1  0
  8 28  1  0
 11 29  1  0
 12 30  1  0
 12 31  1  0
 12 32  1  0
 13 33  1  0
 13 34  1  0
 15 35  1  0
 15 36  1  0
 16 37  1  0
 16 38  1  0
 17 39  1  0
 17 40  1  0
 18 41  1  0
 18 42  1  0
 19 43  1  0
 19 44  1  0
M  END
$$$$
