
     RDKit          3D

 88 93  0  0  0  0  0  0  0  0999 V2000
   -1.9614   -1.3811    1.1246 C   0  0  1  0  0  0  0  0  0  0  0  0
   -0.4369   -1.1785    1.0130 C   0  0  0  0  0  0  0  0  0  0  0  0
   -0.0099   -1.0955   -0.4589 C   0  0  1  0  0  0  0  0  0  0  0  0
    1.3667   -0.7241   -0.5538 O   0  0  0  0  0  0  0  0  0  0  0  0
    1.8334    0.5791   -0.3497 C   0  0  0  0  0  0  0  0  0  0  0  0
    1.0257    1.5194   -0.1110 O   0  0  0  0  0  0  0  0  0  0  0  0
    3.2814    0.8320   -0.4244 C   0  0  0  0  0  0  0  0  0  0  0  0
    3.8048    2.0559   -0.2648 C   0  0  0  0  0  0  0  0  0  0  0  0
    5.2582    2.3450   -0.3472 C   0  0  0  0  0  0  0  0  0  0  0  0
    5.6653    3.6458   -0.6624 C   0  0  0  0  0  0  0  0  0  0  0  0
    7.0290    3.9746   -0.7464 C   0  0  0  0  0  0  0  0  0  0  0  0
    7.4594    5.2714   -1.0734 O   0  0  0  0  0  0  0  0  0  0  0  0
    6.5929    6.3676   -1.3484 C   0  0  0  0  0  0  0  0  0  0  0  0
    8.0050    2.9957   -0.5010 C   0  0  0  0  0  0  0  0  0  0  0  0
    9.3488    3.4035   -0.6111 O   0  0  0  0  0  0  0  0  0  0  0  0
   10.5019    2.5919   -0.4172 C   0  0  0  0  0  0  0  0  0  0  0  0
    7.6076    1.6776   -0.1593 C   0  0  0  0  0  0  0  0  0  0  0  0
    8.5796    0.6981    0.1012 O   0  0  0  0  0  0  0  0  0  0  0  0
    8.3069   -0.6564    0.4470 C   0  0  0  0  0  0  0  0  0  0  0  0
    6.2345    1.3709   -0.0816 C   0  0  0  0  0  0  0  0  0  0  0  0
   -0.2143   -2.4538   -1.1672 C   0  0  2  0  0  0  0  0  0  0  0  0
   -0.2530   -2.2104   -2.5656 O   0  0  0  0  0  0  0  0  0  0  0  0
    0.3576   -3.2677   -3.2741 C   0  0  0  0  0  0  0  0  0  0  0  0
   -1.5230   -3.1936   -0.7214 C   0  0  1  0  0  0  0  0  0  0  0  0
   -1.2070   -4.4352    0.0836 C   0  0  0  0  0  0  0  0  0  0  0  0
   -0.4461   -4.3767    1.0875 O   0  0  0  0  0  0  0  0  0  0  0  0
   -1.7829   -5.6528   -0.2921 O   0  0  0  0  0  0  0  0  0  0  0  0
   -1.5613   -6.8593    0.4274 C   0  0  0  0  0  0  0  0  0  0  0  0
   -2.5549   -2.2547   -0.0243 C   0  0  1  0  0  0  0  0  0  0  0  0
   -3.8473   -2.9952    0.4069 C   0  0  0  0  0  0  0  0  0  0  0  0
   -4.6395   -2.1947    1.4557 C   0  0  1  0  0  0  0  0  0  0  0  0
   -3.8350   -2.0195    2.7019 N   0  0  0  0  0  0  0  0  0  0  0  0
   -4.4015   -1.0175    3.6391 C   0  0  0  0  0  0  0  0  0  0  0  0
   -4.4734    0.3911    3.0201 C   0  0  0  0  0  0  0  0  0  0  0  0
   -5.0742    0.2962    1.6578 C   0  0  0  0  0  0  0  0  0  0  0  0
   -5.1163   -0.8666    0.9148 C   0  0  0  0  0  0  0  0  0  0  0  0
   -5.6886   -0.6497   -0.2930 N   0  0  0  0  0  0  0  0  0  0  0  0
   -5.9686    0.6680   -0.3212 C   0  0  0  0  0  0  0  0  0  0  0  0
   -5.6001    1.2801    0.8516 C   0  0  0  0  0  0  0  0  0  0  0  0
   -5.7771    2.6447    1.0583 C   0  0  0  0  0  0  0  0  0  0  0  0
   -6.3568    3.3954    0.0197 C   0  0  0  0  0  0  0  0  0  0  0  0
   -6.7454    2.7703   -1.1991 C   0  0  0  0  0  0  0  0  0  0  0  0
   -7.3262    3.4872   -2.2555 O   0  0  0  0  0  0  0  0  0  0  0  0
   -7.5863    4.8867   -2.2289 C   0  0  0  0  0  0  0  0  0  0  0  0
   -6.5459    1.3852   -1.3667 C   0  0  0  0  0  0  0  0  0  0  0  0
   -2.3629   -1.9024    2.5206 C   0  0  0  0  0  0  0  0  0  0  0  0
   -2.4039   -0.3656    1.0244 H   0  0  0  0  0  0  0  0  0  0  0  0
   -0.1635   -0.2379    1.5384 H   0  0  0  0  0  0  0  0  0  0  0  0
    0.1195   -1.9962    1.5164 H   0  0  0  0  0  0  0  0  0  0  0  0
   -0.6304   -0.3255   -0.9735 H   0  0  0  0  0  0  0  0  0  0  0  0
    3.9166   -0.0151   -0.6437 H   0  0  0  0  0  0  0  0  0  0  0  0
    3.1373    2.8966   -0.1129 H   0  0  0  0  0  0  0  0  0  0  0  0
    4.9117    4.3987   -0.8528 H   0  0  0  0  0  0  0  0  0  0  0  0
    5.9585    6.5846   -0.4632 H   0  0  0  0  0  0  0  0  0  0  0  0
    5.9570    6.1401   -2.2299 H   0  0  0  0  0  0  0  0  0  0  0  0
    7.2047    7.2648   -1.5746 H   0  0  0  0  0  0  0  0  0  0  0  0
   11.4071    3.2100   -0.5866 H   0  0  0  0  0  0  0  0  0  0  0  0
   10.5337    2.2110    0.6251 H   0  0  0  0  0  0  0  0  0  0  0  0
   10.5119    1.7563   -1.1482 H   0  0  0  0  0  0  0  0  0  0  0  0
    7.7352   -1.1512   -0.3663 H   0  0  0  0  0  0  0  0  0  0  0  0
    9.2671   -1.1948    0.5828 H   0  0  0  0  0  0  0  0  0  0  0  0
    7.7385   -0.7008    1.3999 H   0  0  0  0  0  0  0  0  0  0  0  0
    5.9274    0.3790    0.2125 H   0  0  0  0  0  0  0  0  0  0  0  0
    0.6743   -3.0742   -0.8858 H   0  0  0  0  0  0  0  0  0  0  0  0
    0.1976   -3.1059   -4.3596 H   0  0  0  0  0  0  0  0  0  0  0  0
   -0.0885   -4.2521   -3.0089 H   0  0  0  0  0  0  0  0  0  0  0  0
    1.4545   -3.2789   -3.0911 H   0  0  0  0  0  0  0  0  0  0  0  0
   -2.0287   -3.5599   -1.6434 H   0  0  0  0  0  0  0  0  0  0  0  0
   -1.9200   -6.7490    1.4727 H   0  0  0  0  0  0  0  0  0  0  0  0
   -0.4793   -7.1097    0.4256 H   0  0  0  0  0  0  0  0  0  0  0  0
   -2.1222   -7.6827   -0.0603 H   0  0  0  0  0  0  0  0  0  0  0  0
   -2.8719   -1.5360   -0.8156 H   0  0  0  0  0  0  0  0  0  0  0  0
   -3.6088   -3.9772    0.8657 H   0  0  0  0  0  0  0  0  0  0  0  0
   -4.4782   -3.2056   -0.4836 H   0  0  0  0  0  0  0  0  0  0  0  0
   -5.5452   -2.7855    1.7131 H   0  0  0  0  0  0  0  0  0  0  0  0
   -5.4275   -1.3363    3.9277 H   0  0  0  0  0  0  0  0  0  0  0  0
   -3.8093   -0.9848    4.5794 H   0  0  0  0  0  0  0  0  0  0  0  0
   -3.4549    0.8264    2.9430 H   0  0  0  0  0  0  0  0  0  0  0  0
   -5.0952    1.0500    3.6628 H   0  0  0  0  0  0  0  0  0  0  0  0
   -5.8715   -1.3483   -1.0471 H   0  0  0  0  0  0  0  0  0  0  0  0
   -5.4798    3.1151    1.9866 H   0  0  0  0  0  0  0  0  0  0  0  0
   -6.4995    4.4565    0.1700 H   0  0  0  0  0  0  0  0  0  0  0  0
   -6.6377    5.4490   -2.0976 H   0  0  0  0  0  0  0  0  0  0  0  0
   -8.2915    5.1284   -1.4059 H   0  0  0  0  0  0  0  0  0  0  0  0
   -8.0474    5.1880   -3.1917 H   0  0  0  0  0  0  0  0  0  0  0  0
   -6.8310    0.8898   -2.2862 H   0  0  0  0  0  0  0  0  0  0  0  0
   -1.9199   -2.9080    2.6747 H   0  0  0  0  0  0  0  0  0  0  0  0
   -1.9098   -1.2450    3.2963 H   0  0  0  0  0  0  0  0  0  0  0  0
  1  2  1  0
  2  3  1  0
  3  4  1  0
  4  5  1  0
  5  6  2  0
  5  7  1  0
  7  8  2  3
  8  9  1  0
  9 10  2  0
 10 11  1  0
 11 12  1  0
 12 13  1  0
 11 14  2  0
 14 15  1  0
 15 16  1  0
 14 17  1  0
 17 18  1  0
 18 19  1  0
 17 20  2  0
  3 21  1  0
 21 22  1  0
 22 23  1  0
 21 24  1  0
 24 25  1  0
 25 26  2  0
 25 27  1  0
 27 28  1  0
 24 29  1  0
 29 30  1  0
 30 31  1  0
 31 32  1  0
 32 33  1  0
 33 34  1  0
 34 35  1  0
 35 36  2  0
 36 37  1  0
 37 38  1  0
 38 39  2  0
 39 40  1  0
 40 41  2  0
 41 42  1  0
 42 43  1  0
 43 44  1  0
 42 45  2  0
 32 46  1  0
 29  1  1  0
 36 31  1  0
 45 38  1  0
 46  1  1  0
 20  9  1  0
 39 35  1  0
  1 47  1  6
  2 48  1  0
  2 49  1  0
  3 50  1  6
  7 51  1  0
  8 52  1  0
 10 53  1  0
 13 54  1  0
 13 55  1  0
 13 56  1  0
 16 57  1  0
 16 58  1  0
 16 59  1  0
 19 60  1  0
 19 61  1  0
 19 62  1  0
 20 63  1  0
 21 64  1  6
 23 65  1  0
 23 66  1  0
 23 67  1  0
 24 68  1  6
 28 69  1  0
 28 70  1  0
 28 71  1  0
 29 72  1  6
 30 73  1  0
 30 74  1  0
 31 75  1  1
 33 76  1  0
 33 77  1  0
 34 78  1  0
 34 79  1  0
 37 80  1  0
 40 81  1  0
 41 82  1  0
 44 83  1  0
 44 84  1  0
 44 85  1  0
 45 86  1  0
 46 87  1  0
 46 88  1  0
M  END
$$$$
