
     RDKit          3D

 25 25  0  0  0  0  0  0  0  0999 V2000
   -1.8697   -0.7854   -0.2184 C   0  0  2  0  0  0  0  0  0  0  0  0
   -1.8366   -0.8410    1.3147 C   0  0  0  0  0  0  0  0  0  0  0  0
   -0.5363   -1.2353   -0.8574 C   0  0  0  0  0  0  0  0  0  0  0  0
    0.6393   -0.3436   -0.5156 C   0  0  0  0  0  0  0  0  0  0  0  0
    0.9003    0.7932   -1.3012 C   0  0  0  0  0  0  0  0  0  0  0  0
    1.9693    1.6380   -0.9930 C   0  0  0  0  0  0  0  0  0  0  0  0
    2.7915    1.3563    0.0989 C   0  0  0  0  0  0  0  0  0  0  0  0
    2.5487    0.2272    0.8841 C   0  0  0  0  0  0  0  0  0  0  0  0
    1.4780   -0.6278    0.5832 C   0  0  0  0  0  0  0  0  0  0  0  0
    1.2491   -1.7559    1.3709 O   0  0  0  0  0  0  0  0  0  0  0  0
   -2.2898    0.5757   -0.7078 C   0  0  0  0  0  0  0  0  0  0  0  0
   -1.8694    1.7266   -0.0455 O   0  0  0  0  0  0  0  0  0  0  0  0
   -2.9901    0.6767   -1.7507 O   0  0  0  0  0  0  0  0  0  0  0  0
   -2.6464   -1.5128   -0.5448 H   0  0  0  0  0  0  0  0  0  0  0  0
   -1.1018   -0.1184    1.7283 H   0  0  0  0  0  0  0  0  0  0  0  0
   -2.8400   -0.5957    1.7239 H   0  0  0  0  0  0  0  0  0  0  0  0
   -1.5665   -1.8635    1.6539 H   0  0  0  0  0  0  0  0  0  0  0  0
   -0.3211   -2.2826   -0.5531 H   0  0  0  0  0  0  0  0  0  0  0  0
   -0.6613   -1.2678   -1.9625 H   0  0  0  0  0  0  0  0  0  0  0  0
    0.2721    1.0275   -2.1518 H   0  0  0  0  0  0  0  0  0  0  0  0
    2.1600    2.5125   -1.6016 H   0  0  0  0  0  0  0  0  0  0  0  0
    3.6191    2.0123    0.3361 H   0  0  0  0  0  0  0  0  0  0  0  0
    3.1943    0.0160    1.7270 H   0  0  0  0  0  0  0  0  0  0  0  0
    1.8371   -1.9774    2.1658 H   0  0  0  0  0  0  0  0  0  0  0  0
   -2.1298    2.6452   -0.3834 H   0  0  0  0  0  0  0  0  0  0  0  0
  1  2  1  0
  1  3  1  0
  3  4  1  0
  4  5  2  0
  5  6  1  0
  6  7  2  0
  7  8  1  0
  8  9  2  0
  9 10  1  0
  1 11  1  0
 11 12  1  0
 11 13  2  0
  9  4  1  0
  1 14  1  6
  2 15  1  0
  2 16  1  0
  2 17  1  0
  3 18  1  0
  3 19  1  0
  5 20  1  0
  6 21  1  0
  7 22  1  0
  8 23  1  0
 10 24  1  0
 12 25  1  0
M  END
$$$$
