
     RDKit          3D

 22 21  0  0  0  0  0  0  0  0999 V2000
   -1.6807   -2.0780   -0.8752 N   0  0  0  0  0  0  0  0  0  0  0  0
   -1.0758   -1.0287   -0.0530 C   0  0  1  0  0  0  0  0  0  0  0  0
   -0.0481   -0.2342   -0.8900 C   0  0  0  0  0  0  0  0  0  0  0  0
    0.7286    0.8234   -0.0728 C   0  0  0  0  0  0  0  0  0  0  0  0
    1.5640    0.1938    1.0076 C   0  0  0  0  0  0  0  0  0  0  0  0
    1.3666    0.5627    2.3347 O   0  0  0  0  0  0  0  0  0  0  0  0
    2.4421   -0.6644    0.7197 O   0  0  0  0  0  0  0  0  0  0  0  0
    1.6084    1.6426   -0.9751 C   0  0  0  0  0  0  0  0  0  0  0  0
    2.5320    1.0184   -1.8098 O   0  0  0  0  0  0  0  0  0  0  0  0
    1.5232    2.9001   -0.9663 O   0  0  0  0  0  0  0  0  0  0  0  0
   -2.1533   -0.1229    0.4774 C   0  0  0  0  0  0  0  0  0  0  0  0
   -2.2134    0.1561    1.8392 O   0  0  0  0  0  0  0  0  0  0  0  0
   -2.9886    0.4005   -0.3086 O   0  0  0  0  0  0  0  0  0  0  0  0
   -2.3388   -2.6284   -0.2757 H   0  0  0  0  0  0  0  0  0  0  0  0
   -0.9294   -2.7472   -1.1622 H   0  0  0  0  0  0  0  0  0  0  0  0
   -0.5554   -1.5084    0.8066 H   0  0  0  0  0  0  0  0  0  0  0  0
   -0.5791    0.2692   -1.7291 H   0  0  0  0  0  0  0  0  0  0  0  0
    0.6758   -0.9468   -1.3447 H   0  0  0  0  0  0  0  0  0  0  0  0
   -0.0046    1.5097    0.4056 H   0  0  0  0  0  0  0  0  0  0  0  0
    1.9183    0.1486    3.0765 H   0  0  0  0  0  0  0  0  0  0  0  0
    3.1337    1.5616   -2.4172 H   0  0  0  0  0  0  0  0  0  0  0  0
   -2.9255    0.7723    2.2123 H   0  0  0  0  0  0  0  0  0  0  0  0
  1  2  1  0
  2  3  1  0
  3  4  1  0
  4  5  1  0
  5  6  1  0
  5  7  2  0
  4  8  1  0
  8  9  1  0
  8 10  2  0
  2 11  1  0
 11 12  1  0
 11 13  2  0
  1 14  1  0
  1 15  1  0
  2 16  1  1
  3 17  1  0
  3 18  1  0
  4 19  1  0
  6 20  1  0
  9 21  1  0
 12 22  1  0
M  END
$$$$
