
     RDKit          3D

 54 54  0  0  0  0  0  0  0  0999 V2000
   -1.8951    3.3669    0.0753 C   0  0  1  0  0  0  0  0  0  0  0  0
   -1.2494    4.4035   -0.6249 O   0  0  0  0  0  0  0  0  0  0  0  0
   -3.4257    3.5091    0.0110 C   0  0  0  0  0  0  0  0  0  0  0  0
   -3.8697    4.8055    0.6135 C   0  0  0  0  0  0  0  0  0  0  0  0
   -4.0306    4.9094    1.9916 O   0  0  0  0  0  0  0  0  0  0  0  0
   -4.0625    5.8110   -0.1211 O   0  0  0  0  0  0  0  0  0  0  0  0
   -1.4710    2.0208   -0.4530 C   0  0  0  0  0  0  0  0  0  0  0  0
   -1.2627    1.8725   -1.6876 O   0  0  0  0  0  0  0  0  0  0  0  0
   -1.3628    0.9025    0.4448 N   0  0  0  0  0  0  0  0  0  0  0  0
   -0.9915   -0.4576    0.0386 C   0  0  1  0  0  0  0  0  0  0  0  0
   -2.0831   -1.0765   -0.8657 C   0  0  0  0  0  0  0  0  0  0  0  0
   -1.8447   -2.5617   -1.1941 C   0  0  0  0  0  0  0  0  0  0  0  0
   -1.8839   -3.4330    0.0353 C   0  0  0  0  0  0  0  0  0  0  0  0
   -0.6909   -3.8825    0.6272 C   0  0  0  0  0  0  0  0  0  0  0  0
   -0.7310   -4.6675    1.7836 C   0  0  0  0  0  0  0  0  0  0  0  0
   -1.9591   -5.0067    2.3579 C   0  0  0  0  0  0  0  0  0  0  0  0
   -3.1495   -4.5594    1.7781 C   0  0  0  0  0  0  0  0  0  0  0  0
   -3.1141   -3.7732    0.6222 C   0  0  0  0  0  0  0  0  0  0  0  0
    0.3835   -0.4602   -0.5848 C   0  0  0  0  0  0  0  0  0  0  0  0
    0.5154   -0.3593   -1.8358 O   0  0  0  0  0  0  0  0  0  0  0  0
    1.5436   -0.5283    0.2564 N   0  0  0  0  0  0  0  0  0  0  0  0
    2.9031   -0.4457   -0.2726 C   0  0  0  0  0  0  0  0  0  0  0  0
    3.2380    1.0072   -0.6492 C   0  0  0  0  0  0  0  0  0  0  0  0
    4.6583    1.2119   -1.2262 C   0  0  0  0  0  0  0  0  0  0  0  0
    4.8633    0.4696   -2.5538 C   0  0  0  0  0  0  0  0  0  0  0  0
    5.7595    0.8500   -0.2203 C   0  0  0  0  0  0  0  0  0  0  0  0
   -1.5805    3.4367    1.1396 H   0  0  0  0  0  0  0  0  0  0  0  0
   -1.6111    4.4200   -1.5498 H   0  0  0  0  0  0  0  0  0  0  0  0
   -3.9006    2.6760    0.5739 H   0  0  0  0  0  0  0  0  0  0  0  0
   -3.7745    3.4464   -1.0435 H   0  0  0  0  0  0  0  0  0  0  0  0
   -4.3159    5.7835    2.4167 H   0  0  0  0  0  0  0  0  0  0  0  0
   -1.5551    1.0657    1.4592 H   0  0  0  0  0  0  0  0  0  0  0  0
   -0.9409   -1.0738    0.9624 H   0  0  0  0  0  0  0  0  0  0  0  0
   -3.0696   -0.9727   -0.3626 H   0  0  0  0  0  0  0  0  0  0  0  0
   -2.1492   -0.5167   -1.8223 H   0  0  0  0  0  0  0  0  0  0  0  0
   -0.8782   -2.6846   -1.7287 H   0  0  0  0  0  0  0  0  0  0  0  0
   -2.6357   -2.8997   -1.8985 H   0  0  0  0  0  0  0  0  0  0  0  0
    0.2682   -3.6194    0.1984 H   0  0  0  0  0  0  0  0  0  0  0  0
    0.1904   -5.0105    2.2361 H   0  0  0  0  0  0  0  0  0  0  0  0
   -1.9883   -5.6138    3.2535 H   0  0  0  0  0  0  0  0  0  0  0  0
   -4.0999   -4.8198    2.2257 H   0  0  0  0  0  0  0  0  0  0  0  0
   -4.0431   -3.4277    0.1856 H   0  0  0  0  0  0  0  0  0  0  0  0
    1.4184   -0.6780    1.2831 H   0  0  0  0  0  0  0  0  0  0  0  0
    3.6076   -0.7996    0.5091 H   0  0  0  0  0  0  0  0  0  0  0  0
    2.9963   -1.1190   -1.1503 H   0  0  0  0  0  0  0  0  0  0  0  0
    3.1232    1.6442    0.2554 H   0  0  0  0  0  0  0  0  0  0  0  0
    2.4986    1.3733   -1.3941 H   0  0  0  0  0  0  0  0  0  0  0  0
    4.7598    2.2988   -1.4423 H   0  0  0  0  0  0  0  0  0  0  0  0
    5.8208    0.7874   -3.0190 H   0  0  0  0  0  0  0  0  0  0  0  0
    4.9015   -0.6289   -2.3983 H   0  0  0  0  0  0  0  0  0  0  0  0
    4.0400    0.7081   -3.2604 H   0  0  0  0  0  0  0  0  0  0  0  0
    5.8046   -0.2464   -0.0514 H   0  0  0  0  0  0  0  0  0  0  0  0
    5.5790    1.3604    0.7496 H   0  0  0  0  0  0  0  0  0  0  0  0
    6.7467    1.1819   -0.6070 H   0  0  0  0  0  0  0  0  0  0  0  0
  1  2  1  0
  1  3  1  0
  3  4  1  0
  4  5  1  0
  4  6  2  0
  1  7  1  0
  7  8  2  0
  7  9  1  0
  9 10  1  0
 10 11  1  0
 11 12  1  0
 12 13  1  0
 13 14  2  0
 14 15  1  0
 15 16  2  0
 16 17  1  0
 17 18  2  0
 10 19  1  0
 19 20  2  0
 19 21  1  0
 21 22  1  0
 22 23  1  0
 23 24  1  0
 24 25  1  0
 24 26  1  0
 18 13  1  0
  1 27  1  1
  2 28  1  0
  3 29  1  0
  3 30  1  0
  5 31  1  0
  9 32  1  0
 10 33  1  1
 11 34  1  0
 11 35  1  0
 12 36  1  0
 12 37  1  0
 14 38  1  0
 15 39  1  0
 16 40  1  0
 17 41  1  0
 18 42  1  0
 21 43  1  0
 22 44  1  0
 22 45  1  0
 23 46  1  0
 23 47  1  0
 24 48  1  0
 25 49  1  0
 25 50  1  0
 25 51  1  0
 26 52  1  0
 26 53  1  0
 26 54  1  0
M  END
$$$$
