
     RDKit          3D

 39 42  0  0  0  0  0  0  0  0999 V2000
    0.6905   -3.0467   -0.1751 O   0  0  0  0  0  0  0  0  0  0  0  0
    0.3954   -2.1766    0.6875 C   0  0  0  0  0  0  0  0  0  0  0  0
   -0.7656   -2.4157    1.6037 C   0  0  0  0  0  0  0  0  0  0  0  0
   -1.9668   -1.6517    1.1191 C   0  0  0  0  0  0  0  0  0  0  0  0
   -2.2014   -0.3422    1.5689 C   0  0  0  0  0  0  0  0  0  0  0  0
   -3.2995    0.3868    1.0881 C   0  0  0  0  0  0  0  0  0  0  0  0
   -4.1701   -0.2001    0.1379 C   0  0  0  0  0  0  0  0  0  0  0  0
   -5.2677    0.5306   -0.3431 C   0  0  0  0  0  0  0  0  0  0  0  0
   -5.4991    1.8313    0.1138 C   0  0  0  0  0  0  0  0  0  0  0  0
   -4.6394    2.4112    1.0505 C   0  0  0  0  0  0  0  0  0  0  0  0
   -3.5426    1.6943    1.5375 C   0  0  0  0  0  0  0  0  0  0  0  0
   -3.9242   -1.5036   -0.3162 C   0  0  0  0  0  0  0  0  0  0  0  0
   -2.8273   -2.2214    0.1675 C   0  0  0  0  0  0  0  0  0  0  0  0
    1.1564   -0.9647    0.7981 N   0  0  0  0  0  0  0  0  0  0  0  0
    2.0957   -0.5104   -0.1866 C   0  0  0  0  0  0  0  0  0  0  0  0
    3.0628    0.4465    0.0303 C   0  0  0  0  0  0  0  0  0  0  0  0
    3.6592    0.5925   -1.2082 C   0  0  0  0  0  0  0  0  0  0  0  0
    3.0537   -0.2033   -2.1134 N   0  0  0  0  0  0  0  0  0  0  0  0
    2.1050   -0.8769   -1.4831 N   0  0  0  0  0  0  0  0  0  0  0  0
    4.7444    1.5673   -1.5453 C   0  0  0  0  0  0  0  0  0  0  0  0
    6.0417    1.3629   -0.7777 C   0  0  0  0  0  0  0  0  0  0  0  0
    5.9521    0.9548   -2.2381 C   0  0  0  0  0  0  0  0  0  0  0  0
   -0.9966   -3.5027    1.6480 H   0  0  0  0  0  0  0  0  0  0  0  0
   -0.4964   -2.1020    2.6355 H   0  0  0  0  0  0  0  0  0  0  0  0
   -1.5272    0.1063    2.2899 H   0  0  0  0  0  0  0  0  0  0  0  0
   -5.9439    0.0975   -1.0706 H   0  0  0  0  0  0  0  0  0  0  0  0
   -6.3465    2.3916   -0.2597 H   0  0  0  0  0  0  0  0  0  0  0  0
   -4.8234    3.4189    1.3999 H   0  0  0  0  0  0  0  0  0  0  0  0
   -2.8866    2.1602    2.2633 H   0  0  0  0  0  0  0  0  0  0  0  0
   -4.5768   -1.9655   -1.0475 H   0  0  0  0  0  0  0  0  0  0  0  0
   -2.6461   -3.2232   -0.2022 H   0  0  0  0  0  0  0  0  0  0  0  0
    1.0440   -0.3898    1.6635 H   0  0  0  0  0  0  0  0  0  0  0  0
    3.2910    0.9709    0.9489 H   0  0  0  0  0  0  0  0  0  0  0  0
    1.4544   -1.5383   -1.9593 H   0  0  0  0  0  0  0  0  0  0  0  0
    4.4981    2.6135   -1.8242 H   0  0  0  0  0  0  0  0  0  0  0  0
    6.0660    0.5036   -0.0729 H   0  0  0  0  0  0  0  0  0  0  0  0
    6.6259    2.2914   -0.6054 H   0  0  0  0  0  0  0  0  0  0  0  0
    5.9261   -0.1455   -2.3938 H   0  0  0  0  0  0  0  0  0  0  0  0
    6.4847    1.6416   -2.9293 H   0  0  0  0  0  0  0  0  0  0  0  0
  1  2  2  0
  2  3  1  0
  3  4  1  0
  4  5  2  0
  5  6  1  0
  6  7  2  0
  7  8  1  0
  8  9  2  0
  9 10  1  0
 10 11  2  0
  7 12  1  0
 12 13  2  0
  2 14  1  0
 14 15  1  0
 15 16  2  0
 16 17  1  0
 17 18  2  0
 18 19  1  0
 17 20  1  0
 20 21  1  0
 21 22  1  0
 13  4  1  0
 19 15  1  0
 22 20  1  0
 11  6  1  0
  3 23  1  0
  3 24  1  0
  5 25  1  0
  8 26  1  0
  9 27  1  0
 10 28  1  0
 11 29  1  0
 12 30  1  0
 13 31  1  0
 14 32  1  0
 16 33  1  0
 19 34  1  0
 20 35  1  0
 21 36  1  0
 21 37  1  0
 22 38  1  0
 22 39  1  0
M  END
$$$$
