
     RDKit          3D

 64 68  0  0  0  0  0  0  0  0999 V2000
   -4.8947   -4.2728    4.2785 O   0  0  0  0  0  0  0  0  0  0  0  0
   -4.4945   -3.1987    3.4868 C   0  0  0  0  0  0  0  0  0  0  0  0
   -4.0786   -1.9963    4.0724 C   0  0  0  0  0  0  0  0  0  0  0  0
   -3.6711   -0.9281    3.2690 C   0  0  0  0  0  0  0  0  0  0  0  0
   -3.6824   -1.0486    1.8687 C   0  0  0  0  0  0  0  0  0  0  0  0
   -3.1929    0.0825    0.9884 C   0  0  2  0  0  0  0  0  0  0  0  0
   -3.9483    0.1419   -0.2887 N   0  0  0  0  0  0  0  0  0  0  0  0
   -4.5978   -1.0659   -0.8489 C   0  0  0  0  0  0  0  0  0  0  0  0
   -4.1094   -2.3707   -0.2080 C   0  0  0  0  0  0  0  0  0  0  0  0
   -4.1148   -2.2489    1.2837 C   0  0  0  0  0  0  0  0  0  0  0  0
   -4.5080   -3.3248    2.0943 C   0  0  0  0  0  0  0  0  0  0  0  0
   -4.1043    1.4119   -0.9835 C   0  0  0  0  0  0  0  0  0  0  0  0
   -3.1576    2.4498   -0.8307 C   0  0  0  0  0  0  0  0  0  0  0  0
   -3.3119    3.6649   -1.5041 C   0  0  0  0  0  0  0  0  0  0  0  0
   -4.4097    3.8703   -2.3388 C   0  0  0  0  0  0  0  0  0  0  0  0
   -5.3575    2.8607   -2.5021 C   0  0  0  0  0  0  0  0  0  0  0  0
   -5.2100    1.6424   -1.8327 C   0  0  0  0  0  0  0  0  0  0  0  0
   -1.6920   -0.0459    0.7665 C   0  0  0  0  0  0  0  0  0  0  0  0
   -0.8142    0.3027    1.8078 C   0  0  0  0  0  0  0  0  0  0  0  0
    0.5683    0.1874    1.6442 C   0  0  0  0  0  0  0  0  0  0  0  0
    1.1059   -0.2744    0.4395 C   0  0  0  0  0  0  0  0  0  0  0  0
    2.5003   -0.3709    0.3258 O   0  0  0  0  0  0  0  0  0  0  0  0
    3.1854   -0.8134   -0.8437 C   0  0  0  0  0  0  0  0  0  0  0  0
    4.6927   -0.7827   -0.5984 C   0  0  0  0  0  0  0  0  0  0  0  0
    5.1328    0.5897   -0.2598 N   0  0  0  0  0  0  0  0  0  0  0  0
    5.3559    1.4428   -1.4591 C   0  0  0  0  0  0  0  0  0  0  0  0
    6.8424    1.7097   -1.7764 C   0  0  0  0  0  0  0  0  0  0  0  0
    7.7031    0.4888   -1.4541 C   0  0  0  0  0  0  0  0  0  0  0  0
    7.5691    0.0722    0.0212 C   0  0  0  0  0  0  0  0  0  0  0  0
    6.2765    0.5976    0.6756 C   0  0  0  0  0  0  0  0  0  0  0  0
    0.2365   -0.6211   -0.6101 C   0  0  0  0  0  0  0  0  0  0  0  0
   -1.1470   -0.5072   -0.4482 C   0  0  0  0  0  0  0  0  0  0  0  0
   -4.8960   -4.2134    5.2901 H   0  0  0  0  0  0  0  0  0  0  0  0
   -4.0651   -1.8905    5.1497 H   0  0  0  0  0  0  0  0  0  0  0  0
   -3.3460   -0.0089    3.7392 H   0  0  0  0  0  0  0  0  0  0  0  0
   -3.3860    1.0306    1.5403 H   0  0  0  0  0  0  0  0  0  0  0  0
   -5.6959   -0.9929   -0.6925 H   0  0  0  0  0  0  0  0  0  0  0  0
   -4.4000   -1.1236   -1.9416 H   0  0  0  0  0  0  0  0  0  0  0  0
   -4.7724   -3.2001   -0.5381 H   0  0  0  0  0  0  0  0  0  0  0  0
   -3.0803   -2.6074   -0.5485 H   0  0  0  0  0  0  0  0  0  0  0  0
   -4.8267   -4.2584    1.6470 H   0  0  0  0  0  0  0  0  0  0  0  0
   -2.2884    2.3316   -0.2018 H   0  0  0  0  0  0  0  0  0  0  0  0
   -2.5760    4.4489   -1.3789 H   0  0  0  0  0  0  0  0  0  0  0  0
   -4.5265    4.8125   -2.8586 H   0  0  0  0  0  0  0  0  0  0  0  0
   -6.2113    3.0224   -3.1476 H   0  0  0  0  0  0  0  0  0  0  0  0
   -5.9734    0.8915   -1.9772 H   0  0  0  0  0  0  0  0  0  0  0  0
   -1.1998    0.6703    2.7499 H   0  0  0  0  0  0  0  0  0  0  0  0
    1.2269    0.4609    2.4589 H   0  0  0  0  0  0  0  0  0  0  0  0
    2.9260   -0.1584   -1.7025 H   0  0  0  0  0  0  0  0  0  0  0  0
    2.8809   -1.8557   -1.0816 H   0  0  0  0  0  0  0  0  0  0  0  0
    4.9058   -1.4896    0.2347 H   0  0  0  0  0  0  0  0  0  0  0  0
    5.2241   -1.1682   -1.4961 H   0  0  0  0  0  0  0  0  0  0  0  0
    4.8771    1.0062   -2.3637 H   0  0  0  0  0  0  0  0  0  0  0  0
    4.8541    2.4193   -1.2907 H   0  0  0  0  0  0  0  0  0  0  0  0
    6.9539    1.9722   -2.8507 H   0  0  0  0  0  0  0  0  0  0  0  0
    7.2023    2.5772   -1.1803 H   0  0  0  0  0  0  0  0  0  0  0  0
    7.3974   -0.3533   -2.1122 H   0  0  0  0  0  0  0  0  0  0  0  0
    8.7670    0.7160   -1.6821 H   0  0  0  0  0  0  0  0  0  0  0  0
    7.5938   -1.0373    0.0884 H   0  0  0  0  0  0  0  0  0  0  0  0
    8.4388    0.4577    0.5968 H   0  0  0  0  0  0  0  0  0  0  0  0
    6.4430    1.6391    1.0294 H   0  0  0  0  0  0  0  0  0  0  0  0
    6.0419    0.0006    1.5841 H   0  0  0  0  0  0  0  0  0  0  0  0
    0.6191   -0.9771   -1.5568 H   0  0  0  0  0  0  0  0  0  0  0  0
   -1.7811   -0.7671   -1.2836 H   0  0  0  0  0  0  0  0  0  0  0  0
  1  2  1  0
  2  3  2  0
  3  4  1  0
  4  5  2  0
  5  6  1  0
  6  7  1  0
  7  8  1  0
  8  9  1  0
  9 10  1  0
 10 11  2  0
  7 12  1  0
 12 13  2  0
 13 14  1  0
 14 15  2  0
 15 16  1  0
 16 17  2  0
  6 18  1  0
 18 19  2  0
 19 20  1  0
 20 21  2  0
 21 22  1  0
 22 23  1  0
 23 24  1  0
 24 25  1  0
 25 26  1  0
 26 27  1  0
 27 28  1  0
 28 29  1  0
 29 30  1  0
 21 31  1  0
 31 32  2  0
 11  2  1  0
 17 12  1  0
 32 18  1  0
 10  5  1  0
 30 25  1  0
  1 33  1  0
  3 34  1  0
  4 35  1  0
  6 36  1  1
  8 37  1  0
  8 38  1  0
  9 39  1  0
  9 40  1  0
 11 41  1  0
 13 42  1  0
 14 43  1  0
 15 44  1  0
 16 45  1  0
 17 46  1  0
 19 47  1  0
 20 48  1  0
 23 49  1  0
 23 50  1  0
 24 51  1  0
 24 52  1  0
 26 53  1  0
 26 54  1  0
 27 55  1  0
 27 56  1  0
 28 57  1  0
 28 58  1  0
 29 59  1  0
 29 60  1  0
 30 61  1  0
 30 62  1  0
 31 63  1  0
 32 64  1  0
M  END
$$$$
