
     RDKit          3D

 57 61  0  0  0  0  0  0  0  0999 V2000
    4.0549   -1.4919   -1.3875 C   0  0  0  0  0  0  0  0  0  0  0  0
    3.3253   -0.2843   -0.9849 N   0  0  0  0  0  0  0  0  0  0  0  0
    1.9869   -0.3668   -0.3677 C   0  0  0  0  0  0  0  0  0  0  0  0
    0.9227   -0.8150   -1.4015 C   0  0  0  0  0  0  0  0  0  0  0  0
   -0.1223   -1.7853   -0.8271 C   0  0  0  0  0  0  0  0  0  0  0  0
   -0.4519   -1.4492    0.5632 N   0  0  0  0  0  0  0  0  0  0  0  0
    0.6187   -1.2462    1.5510 C   0  0  0  0  0  0  0  0  0  0  0  0
    2.0031   -1.2549    0.8908 C   0  0  0  0  0  0  0  0  0  0  0  0
   -1.7879   -1.6933    1.0261 C   0  0  0  0  0  0  0  0  0  0  0  0
   -2.4193   -2.8765    0.8116 N   0  0  0  0  0  0  0  0  0  0  0  0
   -3.6351   -2.6671    1.3449 C   0  0  0  0  0  0  0  0  0  0  0  0
   -3.7312   -1.3998    1.8478 C   0  0  0  0  0  0  0  0  0  0  0  0
   -4.9078   -0.9376    2.4479 C   0  0  0  0  0  0  0  0  0  0  0  0
   -5.9979   -1.8244    2.5203 C   0  0  0  0  0  0  0  0  0  0  0  0
   -5.8936   -3.1326    1.9983 C   0  0  0  0  0  0  0  0  0  0  0  0
   -4.6973   -3.5663    1.3995 C   0  0  0  0  0  0  0  0  0  0  0  0
   -2.5645   -0.7584    1.6434 N   0  0  0  0  0  0  0  0  0  0  0  0
   -2.2307    0.6348    1.9710 C   0  0  0  0  0  0  0  0  0  0  0  0
   -1.7247    1.3827    0.7627 C   0  0  0  0  0  0  0  0  0  0  0  0
   -2.4169    1.3163   -0.4591 C   0  0  0  0  0  0  0  0  0  0  0  0
   -1.9581    2.0317   -1.5694 C   0  0  0  0  0  0  0  0  0  0  0  0
   -0.8186    2.8342   -1.4641 C   0  0  0  0  0  0  0  0  0  0  0  0
   -0.3731    3.5249   -2.5422 F   0  0  0  0  0  0  0  0  0  0  0  0
   -0.1402    2.9268   -0.2460 C   0  0  0  0  0  0  0  0  0  0  0  0
   -0.5925    2.2085    0.8649 C   0  0  0  0  0  0  0  0  0  0  0  0
    3.9349    0.9956   -1.2411 C   0  0  0  0  0  0  0  0  0  0  0  0
    5.2785    1.1457   -1.0801 N   0  0  0  0  0  0  0  0  0  0  0  0
    5.8872    2.3363   -1.3133 C   0  0  0  0  0  0  0  0  0  0  0  0
    5.1346    3.4313   -1.7300 C   0  0  0  0  0  0  0  0  0  0  0  0
    3.7614    3.2648   -1.9095 C   0  0  0  0  0  0  0  0  0  0  0  0
    3.0562    4.2335   -2.2993 O   0  0  0  0  0  0  0  0  0  0  0  0
    3.1861    2.0548   -1.6693 N   0  0  0  0  0  0  0  0  0  0  0  0
    3.4131   -2.3949   -1.3303 H   0  0  0  0  0  0  0  0  0  0  0  0
    4.3972   -1.3906   -2.4393 H   0  0  0  0  0  0  0  0  0  0  0  0
    4.9364   -1.6348   -0.7279 H   0  0  0  0  0  0  0  0  0  0  0  0
    1.6946    0.6433   -0.0043 H   0  0  0  0  0  0  0  0  0  0  0  0
    1.4007   -1.2998   -2.2797 H   0  0  0  0  0  0  0  0  0  0  0  0
    0.3986    0.0864   -1.7859 H   0  0  0  0  0  0  0  0  0  0  0  0
   -1.0338   -1.7477   -1.4643 H   0  0  0  0  0  0  0  0  0  0  0  0
    0.2746   -2.8232   -0.8629 H   0  0  0  0  0  0  0  0  0  0  0  0
    0.5764   -2.0463    2.3217 H   0  0  0  0  0  0  0  0  0  0  0  0
    0.4797   -0.2712    2.0577 H   0  0  0  0  0  0  0  0  0  0  0  0
    2.2710   -2.3018    0.6359 H   0  0  0  0  0  0  0  0  0  0  0  0
    2.7583   -0.8731    1.6119 H   0  0  0  0  0  0  0  0  0  0  0  0
   -4.9952    0.0611    2.8510 H   0  0  0  0  0  0  0  0  0  0  0  0
   -6.9234   -1.5014    2.9790 H   0  0  0  0  0  0  0  0  0  0  0  0
   -6.7392   -3.8052    2.0587 H   0  0  0  0  0  0  0  0  0  0  0  0
   -4.6065   -4.5657    0.9940 H   0  0  0  0  0  0  0  0  0  0  0  0
   -1.4863    0.6428    2.7941 H   0  0  0  0  0  0  0  0  0  0  0  0
   -3.1211    1.1758    2.3481 H   0  0  0  0  0  0  0  0  0  0  0  0
   -3.3069    0.7065   -0.5531 H   0  0  0  0  0  0  0  0  0  0  0  0
   -2.4884    1.9652   -2.5105 H   0  0  0  0  0  0  0  0  0  0  0  0
    0.7392    3.5522   -0.1621 H   0  0  0  0  0  0  0  0  0  0  0  0
   -0.0561    2.2935    1.8016 H   0  0  0  0  0  0  0  0  0  0  0  0
    6.9557    2.4317   -1.1739 H   0  0  0  0  0  0  0  0  0  0  0  0
    5.6110    4.3857   -1.9175 H   0  0  0  0  0  0  0  0  0  0  0  0
    2.1636    1.9391   -1.8462 H   0  0  0  0  0  0  0  0  0  0  0  0
  1  2  1  0
  2  3  1  0
  3  4  1  0
  4  5  1  0
  5  6  1  0
  6  7  1  0
  7  8  1  0
  6  9  1  0
  9 10  2  0
 10 11  1  0
 11 12  2  0
 12 13  1  0
 13 14  2  0
 14 15  1  0
 15 16  2  0
 12 17  1  0
 17 18  1  0
 18 19  1  0
 19 20  2  0
 20 21  1  0
 21 22  2  0
 22 23  1  0
 22 24  1  0
 24 25  2  0
  2 26  1  0
 26 27  2  0
 27 28  1  0
 28 29  2  0
 29 30  1  0
 30 31  2  0
 30 32  1  0
  8  3  1  0
 17  9  1  0
 25 19  1  0
 32 26  1  0
 16 11  1  0
  1 33  1  0
  1 34  1  0
  1 35  1  0
  3 36  1  0
  4 37  1  0
  4 38  1  0
  5 39  1  0
  5 40  1  0
  7 41  1  0
  7 42  1  0
  8 43  1  0
  8 44  1  0
 13 45  1  0
 14 46  1  0
 15 47  1  0
 16 48  1  0
 18 49  1  0
 18 50  1  0
 20 51  1  0
 21 52  1  0
 24 53  1  0
 25 54  1  0
 28 55  1  0
 29 56  1  0
 32 57  1  0
M  END
$$$$
