
     RDKit          3D

 43 45  0  0  0  0  0  0  0  0999 V2000
   -1.1443   -0.6216    1.9315 C   0  0  2  0  0  0  0  0  0  0  0  0
    0.3177   -0.2459    2.1847 C   0  0  0  0  0  0  0  0  0  0  0  0
    1.1669   -0.9649    1.3104 O   0  0  0  0  0  0  0  0  0  0  0  0
    1.0578   -0.5041   -0.0340 C   0  0  1  0  0  0  0  0  0  0  0  0
    1.9760    0.7224   -0.2475 C   0  0  0  0  0  0  0  0  0  0  0  0
    3.2924    0.3902    0.1264 O   0  0  0  0  0  0  0  0  0  0  0  0
    4.3201    1.6713   -0.2925 S   0  0  0  0  0  6  0  0  0  0  0  0
    3.7938    3.1466    0.4456 N   0  0  0  0  0  0  0  0  0  0  0  0
    4.3601    1.8339   -1.7871 O   0  0  0  0  0  0  0  0  0  0  0  0
    5.7041    1.3516    0.1971 O   0  0  0  0  0  0  0  0  0  0  0  0
    1.5072   -1.5242   -0.8782 O   0  0  0  0  0  0  0  0  0  0  0  0
    0.5803   -1.6295   -1.9393 C   0  0  0  0  0  0  0  0  0  0  0  0
    1.2742   -1.2564   -3.2552 C   0  0  0  0  0  0  0  0  0  0  0  0
    0.0887   -3.0800   -2.0218 C   0  0  0  0  0  0  0  0  0  0  0  0
   -0.5246   -0.7715   -1.7484 O   0  0  0  0  0  0  0  0  0  0  0  0
   -0.3845   -0.2215   -0.4739 C   0  0  1  0  0  0  0  0  0  0  0  0
   -1.4407   -0.8433    0.4679 C   0  0  2  0  0  0  0  0  0  0  0  0
   -2.6851   -0.2600    0.2270 O   0  0  0  0  0  0  0  0  0  0  0  0
   -3.0160    0.4748    1.3876 C   0  0  0  0  0  0  0  0  0  0  0  0
   -4.3096   -0.0923    1.9829 C   0  0  0  0  0  0  0  0  0  0  0  0
   -3.2183    1.9425    1.0015 C   0  0  0  0  0  0  0  0  0  0  0  0
   -1.9912    0.3991    2.3548 O   0  0  0  0  0  0  0  0  0  0  0  0
   -1.3864   -1.5470    2.5023 H   0  0  0  0  0  0  0  0  0  0  0  0
    0.4641    0.8521    2.0968 H   0  0  0  0  0  0  0  0  0  0  0  0
    0.5804   -0.5120    3.2303 H   0  0  0  0  0  0  0  0  0  0  0  0
    1.6138    1.5790    0.3579 H   0  0  0  0  0  0  0  0  0  0  0  0
    1.9315    1.0227   -1.3169 H   0  0  0  0  0  0  0  0  0  0  0  0
    3.0169    3.5262   -0.1405 H   0  0  0  0  0  0  0  0  0  0  0  0
    4.5827    3.8266    0.3651 H   0  0  0  0  0  0  0  0  0  0  0  0
    2.1748   -1.8881   -3.4119 H   0  0  0  0  0  0  0  0  0  0  0  0
    0.5815   -1.3981   -4.1125 H   0  0  0  0  0  0  0  0  0  0  0  0
    1.5899   -0.1936   -3.2425 H   0  0  0  0  0  0  0  0  0  0  0  0
   -0.6915   -3.1816   -2.8064 H   0  0  0  0  0  0  0  0  0  0  0  0
   -0.3413   -3.4011   -1.0515 H   0  0  0  0  0  0  0  0  0  0  0  0
    0.9321   -3.7626   -2.2623 H   0  0  0  0  0  0  0  0  0  0  0  0
   -0.5656    0.8749   -0.5355 H   0  0  0  0  0  0  0  0  0  0  0  0
   -1.5161   -1.9349    0.2789 H   0  0  0  0  0  0  0  0  0  0  0  0
   -5.1376   -0.0290    1.2445 H   0  0  0  0  0  0  0  0  0  0  0  0
   -4.5963    0.4707    2.8970 H   0  0  0  0  0  0  0  0  0  0  0  0
   -4.1641   -1.1588    2.2573 H   0  0  0  0  0  0  0  0  0  0  0  0
   -3.5016    2.5434    1.8923 H   0  0  0  0  0  0  0  0  0  0  0  0
   -4.0160    2.0362    0.2337 H   0  0  0  0  0  0  0  0  0  0  0  0
   -2.2766    2.3578    0.5841 H   0  0  0  0  0  0  0  0  0  0  0  0
  1  2  1  0
  2  3  1  0
  3  4  1  0
  4  5  1  1
  5  6  1  0
  6  7  1  0
  7  8  1  0
  7  9  2  0
  7 10  2  0
  4 11  1  0
 11 12  1  0
 12 13  1  0
 12 14  1  0
 12 15  1  0
 15 16  1  0
 16 17  1  0
 17 18  1  0
 18 19  1  0
 19 20  1  0
 19 21  1  0
 19 22  1  0
 17  1  1  0
 22  1  1  0
 16  4  1  0
  1 23  1  1
  2 24  1  0
  2 25  1  0
  5 26  1  0
  5 27  1  0
  8 28  1  0
  8 29  1  0
 13 30  1  0
 13 31  1  0
 13 32  1  0
 14 33  1  0
 14 34  1  0
 14 35  1  0
 16 36  1  6
 17 37  1  1
 20 38  1  0
 20 39  1  0
 20 40  1  0
 21 41  1  0
 21 42  1  0
 21 43  1  0
M  END
$$$$
