
     RDKit          3D

 43 46  0  0  0  0  0  0  0  0999 V2000
   -2.2184   -2.0022   -1.9580 C   0  0  0  0  0  0  0  0  0  0  0  0
   -1.6696   -0.7308   -1.4841 N   0  0  0  0  0  0  0  0  0  0  0  0
   -1.9290   -0.2861   -0.1385 C   0  0  0  0  0  0  0  0  0  0  0  0
   -0.8932    0.2322    0.6917 C   0  0  0  0  0  0  0  0  0  0  0  0
   -1.2071    0.5385    2.0374 C   0  0  0  0  0  0  0  0  0  0  0  0
   -2.5051    0.3912    2.5288 C   0  0  0  0  0  0  0  0  0  0  0  0
   -2.8628    0.7963    4.1981 Cl  0  0  0  0  0  0  0  0  0  0  0  0
   -3.5161   -0.0805    1.6977 C   0  0  0  0  0  0  0  0  0  0  0  0
   -3.2299   -0.4236    0.3793 C   0  0  0  0  0  0  0  0  0  0  0  0
    0.5473    0.4108    0.1746 C   0  0  0  0  0  0  0  0  0  0  0  0
    1.3418    1.0790    1.1712 O   0  0  0  0  0  0  0  0  0  0  0  0
    1.3786    2.4704    1.3377 C   0  0  0  0  0  0  0  0  0  0  0  0
    1.9400    3.0409    2.6003 C   0  0  0  0  0  0  0  0  0  0  0  0
    0.9302    3.2719    0.3733 C   0  0  0  0  0  0  0  0  0  0  0  0
    0.4739    2.6820   -0.8840 C   0  0  0  0  0  0  0  0  0  0  0  0
    0.0710    3.4360   -1.8106 O   0  0  0  0  0  0  0  0  0  0  0  0
    0.5064    1.2499   -1.0511 N   0  0  0  0  0  0  0  0  0  0  0  0
    0.2312    0.6754   -2.3769 C   0  0  0  0  0  0  0  0  0  0  0  0
   -1.1758    0.1948   -2.4547 C   0  0  0  0  0  0  0  0  0  0  0  0
   -1.8998    0.5276   -3.4313 O   0  0  0  0  0  0  0  0  0  0  0  0
    1.2591   -0.9212   -0.0824 C   0  0  0  0  0  0  0  0  0  0  0  0
    0.7220   -2.1711    0.3032 C   0  0  0  0  0  0  0  0  0  0  0  0
    1.4359   -3.3519    0.0789 C   0  0  0  0  0  0  0  0  0  0  0  0
    2.7030   -3.3072   -0.5035 C   0  0  0  0  0  0  0  0  0  0  0  0
    3.2661   -2.0795   -0.8522 C   0  0  0  0  0  0  0  0  0  0  0  0
    2.5575   -0.8956   -0.6321 C   0  0  0  0  0  0  0  0  0  0  0  0
   -1.5719   -2.4214   -2.7584 H   0  0  0  0  0  0  0  0  0  0  0  0
   -2.2567   -2.7398   -1.1278 H   0  0  0  0  0  0  0  0  0  0  0  0
   -3.2411   -1.8465   -2.3612 H   0  0  0  0  0  0  0  0  0  0  0  0
   -0.4506    0.8892    2.7252 H   0  0  0  0  0  0  0  0  0  0  0  0
   -4.5240   -0.1946    2.0759 H   0  0  0  0  0  0  0  0  0  0  0  0
   -4.0299   -0.8010   -0.2444 H   0  0  0  0  0  0  0  0  0  0  0  0
    2.2370    2.2217    3.2883 H   0  0  0  0  0  0  0  0  0  0  0  0
    2.8343    3.6583    2.3718 H   0  0  0  0  0  0  0  0  0  0  0  0
    1.1756    3.6691    3.1047 H   0  0  0  0  0  0  0  0  0  0  0  0
    0.9439    4.3490    0.4935 H   0  0  0  0  0  0  0  0  0  0  0  0
    0.4255    1.4188   -3.1803 H   0  0  0  0  0  0  0  0  0  0  0  0
    0.9075   -0.1757   -2.5887 H   0  0  0  0  0  0  0  0  0  0  0  0
   -0.2424   -2.2506    0.7840 H   0  0  0  0  0  0  0  0  0  0  0  0
    1.0084   -4.3039    0.3665 H   0  0  0  0  0  0  0  0  0  0  0  0
    3.2537   -4.2234   -0.6731 H   0  0  0  0  0  0  0  0  0  0  0  0
    4.2556   -2.0438   -1.2895 H   0  0  0  0  0  0  0  0  0  0  0  0
    3.0181    0.0476   -0.8997 H   0  0  0  0  0  0  0  0  0  0  0  0
  1  2  1  0
  2  3  1  0
  3  4  2  0
  4  5  1  0
  5  6  2  0
  6  7  1  0
  6  8  1  0
  8  9  2  0
  4 10  1  0
 10 11  1  0
 11 12  1  0
 12 13  1  0
 12 14  2  0
 14 15  1  0
 15 16  2  0
 15 17  1  0
 17 18  1  0
 18 19  1  0
 19 20  2  0
 10 21  1  0
 21 22  2  0
 22 23  1  0
 23 24  2  0
 24 25  1  0
 25 26  2  0
 19  2  1  0
 26 21  1  0
  9  3  1  0
 17 10  1  0
  1 27  1  0
  1 28  1  0
  1 29  1  0
  5 30  1  0
  8 31  1  0
  9 32  1  0
 13 33  1  0
 13 34  1  0
 13 35  1  0
 14 36  1  0
 18 37  1  0
 18 38  1  0
 22 39  1  0
 23 40  1  0
 24 41  1  0
 25 42  1  0
 26 43  1  0
M  END
$$$$
