
     RDKit          3D

 73 74  0  0  0  0  0  0  0  0999 V2000
   -3.1715    0.6845    2.7925 C   0  0  0  0  0  0  0  0  0  0  0  0
   -3.2774    0.1462    1.3555 C   0  0  1  0  0  0  0  0  0  0  0  0
   -3.0560    1.2519    0.3447 C   0  0  0  0  0  0  0  0  0  0  0  0
   -1.9688    2.0389    0.3456 C   0  0  0  0  0  0  0  0  0  0  0  0
   -1.7781    3.0998   -0.7047 C   0  0  0  0  0  0  0  0  0  0  0  0
   -0.4545    3.8123   -0.5096 C   0  0  0  0  0  0  0  0  0  0  0  0
   -0.4331    5.1328    0.2155 C   0  0  0  0  0  0  0  0  0  0  0  0
    0.7215    3.2774   -0.9089 C   0  0  0  0  0  0  0  0  0  0  0  0
    0.8427    1.9588   -1.6423 C   0  0  0  0  0  0  0  0  0  0  0  0
    2.2756    1.3787   -1.5610 C   0  0  2  0  0  0  0  0  0  0  0  0
    2.4443    0.3052   -2.4964 O   0  0  0  0  0  0  0  0  0  0  0  0
    2.0656   -1.0420   -2.3533 C   0  0  0  0  0  0  0  0  0  0  0  0
    2.4937   -1.8553   -3.2140 O   0  0  0  0  0  0  0  0  0  0  0  0
    1.2556   -1.5641   -1.1825 C   0  0  0  0  0  0  0  0  0  0  0  0
    0.3091   -2.7583   -1.4955 C   0  0  2  0  0  0  0  0  0  0  0  0
    1.0036   -3.7707   -2.1835 O   0  0  0  0  0  0  0  0  0  0  0  0
   -1.0154   -2.3882   -2.2554 C   0  0  0  0  0  0  0  0  0  0  0  0
   -0.7086   -1.7083   -3.6155 C   0  0  0  0  0  0  0  0  0  0  0  0
   -1.7936   -3.6881   -2.5807 C   0  0  0  0  0  0  0  0  0  0  0  0
   -1.9130   -1.4737   -1.3957 C   0  0  0  0  0  0  0  0  0  0  0  0
   -2.1271   -0.3302   -1.7684 O   0  0  0  0  0  0  0  0  0  0  0  0
   -2.6056   -1.9669   -0.1258 C   0  0  2  0  0  0  0  0  0  0  0  0
   -4.0986   -2.2063   -0.3960 C   0  0  0  0  0  0  0  0  0  0  0  0
   -2.3507   -1.0942    1.1507 C   0  0  1  0  0  0  0  0  0  0  0  0
   -1.0020   -0.7099    1.2245 O   0  0  0  0  0  0  0  0  0  0  0  0
    2.8235    1.0014   -0.1821 C   0  0  0  0  0  0  0  0  0  0  0  0
    4.2914    0.6625   -0.1211 C   0  0  0  0  0  0  0  0  0  0  0  0
    2.0335    0.9439    0.9166 C   0  0  0  0  0  0  0  0  0  0  0  0
    2.4454    0.5547    2.2865 C   0  0  0  0  0  0  0  0  0  0  0  0
    1.5306    0.5209    3.3380 C   0  0  0  0  0  0  0  0  0  0  0  0
    2.3467    0.0436    4.7282 S   0  0  0  0  0  0  0  0  0  0  0  0
    3.8189   -0.1175    3.9368 C   0  0  0  0  0  0  0  0  0  0  0  0
    5.1069   -0.4710    4.5977 C   0  0  0  0  0  0  0  0  0  0  0  0
    3.7160    0.2072    2.6308 N   0  0  0  0  0  0  0  0  0  0  0  0
   -2.1257    0.9553    3.0475 H   0  0  0  0  0  0  0  0  0  0  0  0
   -3.5164   -0.0865    3.5142 H   0  0  0  0  0  0  0  0  0  0  0  0
   -3.8156    1.5817    2.9161 H   0  0  0  0  0  0  0  0  0  0  0  0
   -4.3327   -0.1807    1.2502 H   0  0  0  0  0  0  0  0  0  0  0  0
   -3.8239    1.4123   -0.4078 H   0  0  0  0  0  0  0  0  0  0  0  0
   -1.2105    1.9090    1.1102 H   0  0  0  0  0  0  0  0  0  0  0  0
   -2.6174    3.8245   -0.6341 H   0  0  0  0  0  0  0  0  0  0  0  0
   -1.8271    2.6503   -1.7200 H   0  0  0  0  0  0  0  0  0  0  0  0
    0.2066    5.0545    1.1203 H   0  0  0  0  0  0  0  0  0  0  0  0
   -0.0250    5.9207   -0.4522 H   0  0  0  0  0  0  0  0  0  0  0  0
   -1.4506    5.4375    0.5382 H   0  0  0  0  0  0  0  0  0  0  0  0
    1.6372    3.8248   -0.6962 H   0  0  0  0  0  0  0  0  0  0  0  0
    0.5914    2.1399   -2.7094 H   0  0  0  0  0  0  0  0  0  0  0  0
    0.1042    1.2320   -1.2658 H   0  0  0  0  0  0  0  0  0  0  0  0
    2.9360    2.1945   -1.9299 H   0  0  0  0  0  0  0  0  0  0  0  0
    1.9772   -1.8872   -0.4018 H   0  0  0  0  0  0  0  0  0  0  0  0
    0.6538   -0.7631   -0.7367 H   0  0  0  0  0  0  0  0  0  0  0  0
    0.0053   -3.1742   -0.5072 H   0  0  0  0  0  0  0  0  0  0  0  0
    1.6495   -4.1684   -1.5424 H   0  0  0  0  0  0  0  0  0  0  0  0
   -1.6431   -1.5733   -4.2026 H   0  0  0  0  0  0  0  0  0  0  0  0
   -0.0121   -2.3259   -4.2216 H   0  0  0  0  0  0  0  0  0  0  0  0
   -0.2663   -0.7002   -3.4785 H   0  0  0  0  0  0  0  0  0  0  0  0
   -1.9510   -4.3114   -1.6764 H   0  0  0  0  0  0  0  0  0  0  0  0
   -2.7838   -3.4515   -3.0264 H   0  0  0  0  0  0  0  0  0  0  0  0
   -1.2392   -4.3107   -3.3159 H   0  0  0  0  0  0  0  0  0  0  0  0
   -2.1869   -2.9640    0.1225 H   0  0  0  0  0  0  0  0  0  0  0  0
   -4.5847   -1.2886   -0.7900 H   0  0  0  0  0  0  0  0  0  0  0  0
   -4.6129   -2.5251    0.5356 H   0  0  0  0  0  0  0  0  0  0  0  0
   -4.2313   -3.0137   -1.1451 H   0  0  0  0  0  0  0  0  0  0  0  0
   -2.5677   -1.7666    2.0163 H   0  0  0  0  0  0  0  0  0  0  0  0
   -0.4810   -1.5188    1.4697 H   0  0  0  0  0  0  0  0  0  0  0  0
    4.7694    0.7648   -1.1184 H   0  0  0  0  0  0  0  0  0  0  0  0
    4.4267   -0.3902    0.2047 H   0  0  0  0  0  0  0  0  0  0  0  0
    4.8152    1.3546    0.5710 H   0  0  0  0  0  0  0  0  0  0  0  0
    0.9881    1.1806    0.8210 H   0  0  0  0  0  0  0  0  0  0  0  0
    0.4786    0.7662    3.2765 H   0  0  0  0  0  0  0  0  0  0  0  0
    4.9244   -1.1930    5.4209 H   0  0  0  0  0  0  0  0  0  0  0  0
    5.7972   -0.9327    3.8609 H   0  0  0  0  0  0  0  0  0  0  0  0
    5.5736    0.4467    5.0115 H   0  0  0  0  0  0  0  0  0  0  0  0
  1  2  1  0
  2  3  1  0
  3  4  2  0
  4  5  1  0
  5  6  1  0
  6  7  1  0
  6  8  2  0
  8  9  1  0
  9 10  1  0
 10 11  1  0
 11 12  1  0
 12 13  2  0
 12 14  1  0
 14 15  1  0
 15 16  1  0
 15 17  1  0
 17 18  1  0
 17 19  1  0
 17 20  1  0
 20 21  2  0
 20 22  1  0
 22 23  1  0
 22 24  1  0
 24 25  1  0
 10 26  1  0
 26 27  1  0
 26 28  2  0
 28 29  1  0
 29 30  2  0
 30 31  1  0
 31 32  1  0
 32 33  1  0
 32 34  2  0
 24  2  1  0
 34 29  1  0
  1 35  1  0
  1 36  1  0
  1 37  1  0
  2 38  1  6
  3 39  1  0
  4 40  1  0
  5 41  1  0
  5 42  1  0
  7 43  1  0
  7 44  1  0
  7 45  1  0
  8 46  1  0
  9 47  1  0
  9 48  1  0
 10 49  1  6
 14 50  1  0
 14 51  1  0
 15 52  1  1
 16 53  1  0
 18 54  1  0
 18 55  1  0
 18 56  1  0
 19 57  1  0
 19 58  1  0
 19 59  1  0
 22 60  1  1
 23 61  1  0
 23 62  1  0
 23 63  1  0
 24 64  1  1
 25 65  1  0
 27 66  1  0
 27 67  1  0
 27 68  1  0
 28 69  1  0
 30 70  1  0
 33 71  1  0
 33 72  1  0
 33 73  1  0
M  END
$$$$
