
     RDKit          3D

 47 48  0  0  0  0  0  0  0  0999 V2000
    0.8744    0.7061   -0.3729 N   0  0  0  0  0  0  0  0  0  0  0  0
    1.4859   -0.6194   -0.2306 C   0  0  1  0  0  0  0  0  0  0  0  0
    0.5023   -1.7375   -0.6412 C   0  0  0  0  0  0  0  0  0  0  0  0
   -0.6173   -1.8920    0.3577 C   0  0  0  0  0  0  0  0  0  0  0  0
   -0.3741   -2.4817    1.4459 O   0  0  0  0  0  0  0  0  0  0  0  0
   -1.9385   -1.3599    0.1115 N   0  0  0  0  0  0  0  0  0  0  0  0
   -2.5557   -1.6034   -1.2057 C   0  0  0  0  0  0  0  0  0  0  0  0
   -2.6777   -0.3075   -2.0175 C   0  0  0  0  0  0  0  0  0  0  0  0
   -3.1357    0.8980   -1.1860 C   0  0  0  0  0  0  0  0  0  0  0  0
   -4.2427    0.5502   -0.2953 N   0  0  0  0  0  0  0  0  0  0  0  0
   -4.1173   -0.3567    0.8136 C   0  0  0  0  0  0  0  0  0  0  0  0
   -5.1545   -0.6900    1.4475 O   0  0  0  0  0  0  0  0  0  0  0  0
   -2.7747   -0.9150    1.2586 C   0  0  0  0  0  0  0  0  0  0  0  0
   -2.0365    0.1329    2.1392 C   0  0  0  0  0  0  0  0  0  0  0  0
   -2.6965    0.3701    3.5057 C   0  0  0  0  0  0  0  0  0  0  0  0
   -2.8699   -0.8277    4.1761 F   0  0  0  0  0  0  0  0  0  0  0  0
   -1.8808    1.1876    4.2669 F   0  0  0  0  0  0  0  0  0  0  0  0
   -3.9213    0.9941    3.3560 F   0  0  0  0  0  0  0  0  0  0  0  0
    2.7668   -0.6942   -1.0832 C   0  0  0  0  0  0  0  0  0  0  0  0
    3.7866    0.3254   -0.6381 C   0  0  0  0  0  0  0  0  0  0  0  0
    4.6299    0.0651    0.4583 C   0  0  0  0  0  0  0  0  0  0  0  0
    4.5586   -1.1183    1.1193 F   0  0  0  0  0  0  0  0  0  0  0  0
    5.5515    1.0292    0.8800 C   0  0  0  0  0  0  0  0  0  0  0  0
    5.6348    2.2583    0.2201 C   0  0  0  0  0  0  0  0  0  0  0  0
    6.5294    3.1892    0.6350 F   0  0  0  0  0  0  0  0  0  0  0  0
    4.7933    2.5284   -0.8633 C   0  0  0  0  0  0  0  0  0  0  0  0
    4.8679    3.7231   -1.5004 F   0  0  0  0  0  0  0  0  0  0  0  0
    3.8703    1.5681   -1.2893 C   0  0  0  0  0  0  0  0  0  0  0  0
    0.4756    0.8089   -1.3345 H   0  0  0  0  0  0  0  0  0  0  0  0
    0.0888    0.7956    0.3078 H   0  0  0  0  0  0  0  0  0  0  0  0
    1.7729   -0.7706    0.8350 H   0  0  0  0  0  0  0  0  0  0  0  0
    0.1179   -1.5325   -1.6604 H   0  0  0  0  0  0  0  0  0  0  0  0
    1.0430   -2.7078   -0.6926 H   0  0  0  0  0  0  0  0  0  0  0  0
   -3.5612   -2.0591   -1.0739 H   0  0  0  0  0  0  0  0  0  0  0  0
   -1.9835   -2.3556   -1.7901 H   0  0  0  0  0  0  0  0  0  0  0  0
   -1.6959   -0.0669   -2.4782 H   0  0  0  0  0  0  0  0  0  0  0  0
   -3.4007   -0.4757   -2.8450 H   0  0  0  0  0  0  0  0  0  0  0  0
   -2.2859    1.3029   -0.6023 H   0  0  0  0  0  0  0  0  0  0  0  0
   -3.4613    1.7036   -1.8792 H   0  0  0  0  0  0  0  0  0  0  0  0
   -5.1784    0.9756   -0.4840 H   0  0  0  0  0  0  0  0  0  0  0  0
   -2.9714   -1.8149    1.8825 H   0  0  0  0  0  0  0  0  0  0  0  0
   -0.9978   -0.1996    2.3391 H   0  0  0  0  0  0  0  0  0  0  0  0
   -1.9657    1.1057    1.6120 H   0  0  0  0  0  0  0  0  0  0  0  0
    2.5136   -0.5397   -2.1556 H   0  0  0  0  0  0  0  0  0  0  0  0
    3.2126   -1.7100   -1.0044 H   0  0  0  0  0  0  0  0  0  0  0  0
    6.2003    0.8239    1.7219 H   0  0  0  0  0  0  0  0  0  0  0  0
    3.2186    1.7934   -2.1245 H   0  0  0  0  0  0  0  0  0  0  0  0
  1  2  1  0
  2  3  1  0
  3  4  1  0
  4  5  2  0
  4  6  1  0
  6  7  1  0
  7  8  1  0
  8  9  1  0
  9 10  1  0
 10 11  1  0
 11 12  2  0
 11 13  1  0
 13 14  1  0
 14 15  1  0
 15 16  1  0
 15 17  1  0
 15 18  1  0
  2 19  1  0
 19 20  1  0
 20 21  2  0
 21 22  1  0
 21 23  1  0
 23 24  2  0
 24 25  1  0
 24 26  1  0
 26 27  1  0
 26 28  2  0
 13  6  1  0
 28 20  1  0
  1 29  1  0
  1 30  1  0
  2 31  1  1
  3 32  1  0
  3 33  1  0
  7 34  1  0
  7 35  1  0
  8 36  1  0
  8 37  1  0
  9 38  1  0
  9 39  1  0
 10 40  1  0
 13 41  1  0
 14 42  1  0
 14 43  1  0
 19 44  1  0
 19 45  1  0
 23 46  1  0
 28 47  1  0
M  END
$$$$
