
     RDKit          3D

 35 36  0  0  0  0  0  0  0  0999 V2000
   -4.5112    1.0589   -0.2713 C   0  0  0  0  0  0  0  0  0  0  0  0
   -3.2675    0.1608   -0.0867 C   0  0  0  0  0  0  0  0  0  0  0  0
   -3.3862   -0.5631    1.2747 C   0  0  0  0  0  0  0  0  0  0  0  0
   -3.2673   -0.8903   -1.2207 C   0  0  0  0  0  0  0  0  0  0  0  0
   -1.9788    1.0504   -0.1705 C   0  0  0  0  0  0  0  0  0  0  0  0
   -2.0144    2.0904    0.7788 O   0  0  0  0  0  0  0  0  0  0  0  0
   -0.6751    0.2824   -0.0622 C   0  0  0  0  0  0  0  0  0  0  0  0
    0.4959    0.8960   -0.2757 C   0  0  0  0  0  0  0  0  0  0  0  0
    1.8114    0.2157   -0.2029 C   0  0  0  0  0  0  0  0  0  0  0  0
    2.9144    0.8150   -0.8530 C   0  0  0  0  0  0  0  0  0  0  0  0
    4.1508    0.1811   -0.7755 C   0  0  0  0  0  0  0  0  0  0  0  0
    4.3236   -0.9770   -0.0926 C   0  0  0  0  0  0  0  0  0  0  0  0
    5.6438   -1.3737   -0.1838 O   0  0  0  0  0  0  0  0  0  0  0  0
    6.3439   -0.4032   -0.9747 C   0  0  0  0  0  0  0  0  0  0  0  0
    5.3538    0.5718   -1.3312 O   0  0  0  0  0  0  0  0  0  0  0  0
    3.2761   -1.6003    0.5755 C   0  0  0  0  0  0  0  0  0  0  0  0
    2.0076   -0.9940    0.5234 C   0  0  0  0  0  0  0  0  0  0  0  0
   -4.5813    1.8135    0.5413 H   0  0  0  0  0  0  0  0  0  0  0  0
   -4.4671    1.5962   -1.2433 H   0  0  0  0  0  0  0  0  0  0  0  0
   -5.4429    0.4526   -0.2531 H   0  0  0  0  0  0  0  0  0  0  0  0
   -3.4645    0.1639    2.1100 H   0  0  0  0  0  0  0  0  0  0  0  0
   -2.5161   -1.2242    1.4638 H   0  0  0  0  0  0  0  0  0  0  0  0
   -4.2993   -1.1967    1.2972 H   0  0  0  0  0  0  0  0  0  0  0  0
   -2.4431   -1.6228   -1.0966 H   0  0  0  0  0  0  0  0  0  0  0  0
   -3.1521   -0.3987   -2.2107 H   0  0  0  0  0  0  0  0  0  0  0  0
   -4.2212   -1.4611   -1.2274 H   0  0  0  0  0  0  0  0  0  0  0  0
   -1.9788    1.5309   -1.1747 H   0  0  0  0  0  0  0  0  0  0  0  0
   -1.7949    1.7043    1.6665 H   0  0  0  0  0  0  0  0  0  0  0  0
   -0.6979   -0.7736    0.1569 H   0  0  0  0  0  0  0  0  0  0  0  0
    0.4856    1.9429   -0.5586 H   0  0  0  0  0  0  0  0  0  0  0  0
    2.8114    1.7399   -1.4069 H   0  0  0  0  0  0  0  0  0  0  0  0
    6.7582   -0.8799   -1.8877 H   0  0  0  0  0  0  0  0  0  0  0  0
    7.1495    0.0704   -0.3753 H   0  0  0  0  0  0  0  0  0  0  0  0
    3.4348   -2.5185    1.1257 H   0  0  0  0  0  0  0  0  0  0  0  0
    1.1991   -1.4596    1.0688 H   0  0  0  0  0  0  0  0  0  0  0  0
  1  2  1  0
  2  3  1  0
  2  4  1  0
  2  5  1  0
  5  6  1  0
  5  7  1  0
  7  8  2  0
  8  9  1  0
  9 10  2  0
 10 11  1  0
 11 12  2  0
 12 13  1  0
 13 14  1  0
 14 15  1  0
 12 16  1  0
 16 17  2  0
 17  9  1  0
 15 11  1  0
  1 18  1  0
  1 19  1  0
  1 20  1  0
  3 21  1  0
  3 22  1  0
  3 23  1  0
  4 24  1  0
  4 25  1  0
  4 26  1  0
  5 27  1  0
  6 28  1  0
  7 29  1  0
  8 30  1  0
 10 31  1  0
 14 32  1  0
 14 33  1  0
 16 34  1  0
 17 35  1  0
M  END
$$$$
