
     RDKit          3D

 47 49  0  0  0  0  0  0  0  0999 V2000
    2.2437    0.2094   -2.3702 C   0  0  0  0  0  0  0  0  0  0  0  0
    2.9014    0.1896   -1.0202 C   0  0  0  0  0  0  0  0  0  0  0  0
    2.3655   -0.5124    0.0896 C   0  0  0  0  0  0  0  0  0  0  0  0
    1.0197   -1.2188    0.0029 C   0  0  0  0  0  0  0  0  0  0  0  0
   -0.1723   -0.5412    1.2214 S   0  0  0  0  0  0  0  0  0  0  0  0
   -0.8412    0.8025    0.1811 C   0  0  0  0  0  0  0  0  0  0  0  0
   -2.0285    0.3088   -0.5993 C   0  0  0  0  0  0  0  0  0  0  0  0
   -3.2502    0.0811    0.0553 C   0  0  0  0  0  0  0  0  0  0  0  0
   -4.3673   -0.4110   -0.6490 C   0  0  0  0  0  0  0  0  0  0  0  0
   -4.2474   -0.6333   -2.0344 C   0  0  0  0  0  0  0  0  0  0  0  0
   -3.0328   -0.4118   -2.6866 C   0  0  0  0  0  0  0  0  0  0  0  0
   -1.9261    0.0510   -1.9738 C   0  0  0  0  0  0  0  0  0  0  0  0
   -5.7043   -0.6133    0.0583 C   0  0  0  0  0  0  0  0  0  0  0  0
   -6.4461   -1.6271   -0.5813 O   0  0  0  0  0  0  0  0  0  0  0  0
   -5.4763   -0.9770    1.4019 O   0  0  0  0  0  0  0  0  0  0  0  0
   -6.5145    0.6971    0.0113 C   0  0  0  0  0  0  0  0  0  0  0  0
   -6.7188    1.0902   -1.3004 F   0  0  0  0  0  0  0  0  0  0  0  0
   -5.8404    1.7033    0.6819 F   0  0  0  0  0  0  0  0  0  0  0  0
   -7.7480    0.5140    0.6117 F   0  0  0  0  0  0  0  0  0  0  0  0
    3.1128   -0.5411    1.3001 C   0  0  0  0  0  0  0  0  0  0  0  0
    2.6040   -1.2609    2.4333 N   0  0  0  0  0  0  0  0  0  0  0  0
    4.3428    0.1627    1.3889 C   0  0  0  0  0  0  0  0  0  0  0  0
    5.1748    0.1396    2.5385 C   0  0  0  0  0  0  0  0  0  0  0  0
    4.8888   -0.6211    3.6238 F   0  0  0  0  0  0  0  0  0  0  0  0
    6.3621    0.8788    2.5648 C   0  0  0  0  0  0  0  0  0  0  0  0
    6.7530    1.6299    1.4580 C   0  0  0  0  0  0  0  0  0  0  0  0
    5.9689    1.6329    0.3065 C   0  0  0  0  0  0  0  0  0  0  0  0
    4.7783    0.8992    0.2625 C   0  0  0  0  0  0  0  0  0  0  0  0
    4.0621    0.8779   -0.8856 N   0  0  0  0  0  0  0  0  0  0  0  0
    2.0526   -0.8255   -2.7235 H   0  0  0  0  0  0  0  0  0  0  0  0
    1.2988    0.7836   -2.3271 H   0  0  0  0  0  0  0  0  0  0  0  0
    2.9045    0.7006   -3.1161 H   0  0  0  0  0  0  0  0  0  0  0  0
    1.1672   -2.2972    0.2173 H   0  0  0  0  0  0  0  0  0  0  0  0
    0.5662   -1.1815   -1.0050 H   0  0  0  0  0  0  0  0  0  0  0  0
   -1.1657    1.6272    0.8503 H   0  0  0  0  0  0  0  0  0  0  0  0
   -0.0571    1.2217   -0.4811 H   0  0  0  0  0  0  0  0  0  0  0  0
   -3.3267    0.2917    1.1152 H   0  0  0  0  0  0  0  0  0  0  0  0
   -5.0945   -0.9759   -2.6150 H   0  0  0  0  0  0  0  0  0  0  0  0
   -2.9505   -0.5951   -3.7502 H   0  0  0  0  0  0  0  0  0  0  0  0
   -0.9956    0.2161   -2.4985 H   0  0  0  0  0  0  0  0  0  0  0  0
   -5.9543   -2.4798   -0.4467 H   0  0  0  0  0  0  0  0  0  0  0  0
   -6.3466   -1.2556    1.7905 H   0  0  0  0  0  0  0  0  0  0  0  0
    2.0957   -2.1648    2.3187 H   0  0  0  0  0  0  0  0  0  0  0  0
    2.5836   -0.8194    3.3783 H   0  0  0  0  0  0  0  0  0  0  0  0
    6.9904    0.8592    3.4462 H   0  0  0  0  0  0  0  0  0  0  0  0
    7.6752    2.1960    1.4864 H   0  0  0  0  0  0  0  0  0  0  0  0
    6.2931    2.1996   -0.5578 H   0  0  0  0  0  0  0  0  0  0  0  0
  1  2  1  0
  2  3  2  0
  3  4  1  0
  4  5  1  0
  5  6  1  0
  6  7  1  0
  7  8  2  0
  8  9  1  0
  9 10  2  0
 10 11  1  0
 11 12  2  0
  9 13  1  0
 13 14  1  0
 13 15  1  0
 13 16  1  0
 16 17  1  0
 16 18  1  0
 16 19  1  0
  3 20  1  0
 20 21  1  0
 20 22  2  0
 22 23  1  0
 23 24  1  0
 23 25  2  0
 25 26  1  0
 26 27  2  0
 27 28  1  0
 28 29  2  0
 29  2  1  0
 12  7  1  0
 28 22  1  0
  1 30  1  0
  1 31  1  0
  1 32  1  0
  4 33  1  0
  4 34  1  0
  6 35  1  0
  6 36  1  0
  8 37  1  0
 10 38  1  0
 11 39  1  0
 12 40  1  0
 14 41  1  0
 15 42  1  0
 21 43  1  0
 21 44  1  0
 25 45  1  0
 26 46  1  0
 27 47  1  0
M  END
$$$$
