
     RDKit          3D

 39 40  0  0  0  0  0  0  0  0999 V2000
    7.9391   -0.5967   -0.0548 C   0  0  0  0  0  0  0  0  0  0  0  0
    6.5860   -0.7762   -0.7242 C   0  0  0  0  0  0  0  0  0  0  0  0
    5.5800   -0.1345    0.0528 O   0  0  0  0  0  0  0  0  0  0  0  0
    4.2313   -0.1329   -0.3132 C   0  0  0  0  0  0  0  0  0  0  0  0
    3.8590   -0.6994   -1.3778 O   0  0  0  0  0  0  0  0  0  0  0  0
    3.2828    0.5466    0.5189 N   0  0  0  0  0  0  0  0  0  0  0  0
    1.8607    0.4808    0.3171 C   0  0  0  0  0  0  0  0  0  0  0  0
    1.0518    1.6271    0.4609 C   0  0  0  0  0  0  0  0  0  0  0  0
    1.6181    2.9156    0.7183 N   0  0  0  0  0  0  0  0  0  0  0  0
   -0.2977    1.5201    0.3199 N   0  0  0  0  0  0  0  0  0  0  0  0
   -0.9189    0.3415    0.0453 C   0  0  0  0  0  0  0  0  0  0  0  0
   -2.3500    0.3247   -0.0855 N   0  0  0  0  0  0  0  0  0  0  0  0
   -3.1185   -0.8859   -0.3810 C   0  0  0  0  0  0  0  0  0  0  0  0
   -4.5890   -0.5746   -0.4579 C   0  0  0  0  0  0  0  0  0  0  0  0
   -5.3835   -0.6174    0.6997 C   0  0  0  0  0  0  0  0  0  0  0  0
   -6.7419   -0.2917    0.6337 C   0  0  0  0  0  0  0  0  0  0  0  0
   -7.3129    0.0895   -0.5842 C   0  0  0  0  0  0  0  0  0  0  0  0
   -8.6297    0.4065   -0.6459 F   0  0  0  0  0  0  0  0  0  0  0  0
   -6.5244    0.1500   -1.7370 C   0  0  0  0  0  0  0  0  0  0  0  0
   -5.1656   -0.1749   -1.6749 C   0  0  0  0  0  0  0  0  0  0  0  0
   -0.1456   -0.8209   -0.1008 C   0  0  0  0  0  0  0  0  0  0  0  0
    1.2395   -0.7463    0.0406 C   0  0  0  0  0  0  0  0  0  0  0  0
    8.7256   -1.0963   -0.6587 H   0  0  0  0  0  0  0  0  0  0  0  0
    8.1804    0.4842    0.0292 H   0  0  0  0  0  0  0  0  0  0  0  0
    7.9229   -1.0470    0.9604 H   0  0  0  0  0  0  0  0  0  0  0  0
    6.3596   -1.8613   -0.8093 H   0  0  0  0  0  0  0  0  0  0  0  0
    6.6174   -0.3288   -1.7414 H   0  0  0  0  0  0  0  0  0  0  0  0
    3.6559    1.1309    1.2998 H   0  0  0  0  0  0  0  0  0  0  0  0
    0.9915    3.7400    0.8525 H   0  0  0  0  0  0  0  0  0  0  0  0
    2.6481    3.0808    0.7199 H   0  0  0  0  0  0  0  0  0  0  0  0
   -2.8555    1.2322    0.0386 H   0  0  0  0  0  0  0  0  0  0  0  0
   -2.9374   -1.6430    0.4128 H   0  0  0  0  0  0  0  0  0  0  0  0
   -2.7762   -1.3156   -1.3476 H   0  0  0  0  0  0  0  0  0  0  0  0
   -4.9512   -0.9012    1.6512 H   0  0  0  0  0  0  0  0  0  0  0  0
   -7.3502   -0.3315    1.5281 H   0  0  0  0  0  0  0  0  0  0  0  0
   -6.9642    0.4524   -2.6787 H   0  0  0  0  0  0  0  0  0  0  0  0
   -4.5635   -0.1141   -2.5731 H   0  0  0  0  0  0  0  0  0  0  0  0
   -0.5991   -1.7798   -0.3110 H   0  0  0  0  0  0  0  0  0  0  0  0
    1.8251   -1.6531   -0.0401 H   0  0  0  0  0  0  0  0  0  0  0  0
  1  2  1  0
  2  3  1  0
  3  4  1  0
  4  5  2  0
  4  6  1  0
  6  7  1  0
  7  8  2  0
  8  9  1  0
  8 10  1  0
 10 11  2  0
 11 12  1  0
 12 13  1  0
 13 14  1  0
 14 15  2  0
 15 16  1  0
 16 17  2  0
 17 18  1  0
 17 19  1  0
 19 20  2  0
 11 21  1  0
 21 22  2  0
 22  7  1  0
 20 14  1  0
  1 23  1  0
  1 24  1  0
  1 25  1  0
  2 26  1  0
  2 27  1  0
  6 28  1  0
  9 29  1  0
  9 30  1  0
 12 31  1  0
 13 32  1  0
 13 33  1  0
 15 34  1  0
 16 35  1  0
 19 36  1  0
 20 37  1  0
 21 38  1  0
 22 39  1  0
M  END
$$$$
