
     RDKit          3D

 35 37  0  0  0  0  0  0  0  0999 V2000
    4.4876    1.7025   -1.3127 N   0  0  0  0  0  0  0  0  0  0  0  0
    3.7661    0.7148   -0.5770 C   0  0  0  0  0  0  0  0  0  0  0  0
    2.4126    0.8427   -0.4243 N   0  0  0  0  0  0  0  0  0  0  0  0
    1.7518   -0.1059    0.2808 C   0  0  0  0  0  0  0  0  0  0  0  0
    2.3830   -1.1771    0.8272 C   0  0  0  0  0  0  0  0  0  0  0  0
    1.5065   -1.9907    1.4418 N   0  0  0  0  0  0  0  0  0  0  0  0
    0.2912   -1.4142    1.2733 C   0  0  0  0  0  0  0  0  0  0  0  0
    0.4092   -0.2189    0.5605 C   0  0  0  0  0  0  0  0  0  0  0  0
   -0.6984    0.6730    0.0744 C   0  0  2  0  0  0  0  0  0  0  0  0
   -1.7866    0.7152    1.0589 N   0  0  0  0  0  0  0  0  0  0  0  0
   -3.0568    0.5563    0.3372 C   0  0  2  0  0  0  0  0  0  0  0  0
   -3.7191   -0.7653    0.7575 C   0  0  0  0  0  0  0  0  0  0  0  0
   -4.0273   -0.7459    2.1256 O   0  0  0  0  0  0  0  0  0  0  0  0
   -2.7457    0.5740   -1.1675 C   0  0  1  0  0  0  0  0  0  0  0  0
   -2.9641    1.8544   -1.7149 O   0  0  0  0  0  0  0  0  0  0  0  0
   -1.2810    0.1686   -1.2430 C   0  0  1  0  0  0  0  0  0  0  0  0
   -0.6243    0.7509   -2.3392 O   0  0  0  0  0  0  0  0  0  0  0  0
    3.7559   -1.3201    0.6753 C   0  0  0  0  0  0  0  0  0  0  0  0
    4.3671   -2.3060    1.1672 O   0  0  0  0  0  0  0  0  0  0  0  0
    4.4283   -0.3591   -0.0284 N   0  0  0  0  0  0  0  0  0  0  0  0
    5.5207    1.6230   -1.4416 H   0  0  0  0  0  0  0  0  0  0  0  0
    3.9871    2.5177   -1.7312 H   0  0  0  0  0  0  0  0  0  0  0  0
    1.7109   -2.8915    1.9286 H   0  0  0  0  0  0  0  0  0  0  0  0
   -0.6343   -1.8456    1.6318 H   0  0  0  0  0  0  0  0  0  0  0  0
   -0.2921    1.7019   -0.0718 H   0  0  0  0  0  0  0  0  0  0  0  0
   -1.7784    1.6492    1.5335 H   0  0  0  0  0  0  0  0  0  0  0  0
   -3.7571    1.3862    0.5911 H   0  0  0  0  0  0  0  0  0  0  0  0
   -3.0580   -1.6301    0.5165 H   0  0  0  0  0  0  0  0  0  0  0  0
   -4.6663   -0.8969    0.1920 H   0  0  0  0  0  0  0  0  0  0  0  0
   -3.1985   -0.9993    2.6098 H   0  0  0  0  0  0  0  0  0  0  0  0
   -3.3713   -0.1520   -1.7327 H   0  0  0  0  0  0  0  0  0  0  0  0
   -2.4217    2.5090   -1.2011 H   0  0  0  0  0  0  0  0  0  0  0  0
   -1.2135   -0.9449   -1.2976 H   0  0  0  0  0  0  0  0  0  0  0  0
   -0.9459    0.2705   -3.1461 H   0  0  0  0  0  0  0  0  0  0  0  0
    5.4623   -0.4466   -0.1537 H   0  0  0  0  0  0  0  0  0  0  0  0
  1  2  1  0
  2  3  2  0
  3  4  1  0
  4  5  2  0
  5  6  1  0
  6  7  1  0
  7  8  2  0
  8  9  1  0
  9 10  1  0
 10 11  1  0
 11 12  1  0
 12 13  1  0
 11 14  1  0
 14 15  1  0
 14 16  1  0
 16 17  1  0
  5 18  1  0
 18 19  2  0
 18 20  1  0
 20  2  1  0
  8  4  1  0
 16  9  1  0
  1 21  1  0
  1 22  1  0
  6 23  1  0
  7 24  1  0
  9 25  1  6
 10 26  1  0
 11 27  1  6
 12 28  1  0
 12 29  1  0
 13 30  1  0
 14 31  1  6
 15 32  1  0
 16 33  1  6
 17 34  1  0
 20 35  1  0
M  END
$$$$
