
     RDKit          3D

 63 63  0  0  0  0  0  0  0  0999 V2000
    3.4328   -1.1384   -1.6613 C   0  0  1  0  0  0  0  0  0  0  0  0
    3.6654    0.3863   -1.4650 C   0  0  0  0  0  0  0  0  0  0  0  0
    4.8751    0.7661   -0.5747 C   0  0  0  0  0  0  0  0  0  0  0  0
    6.0163    1.3957   -1.3846 C   0  0  0  0  0  0  0  0  0  0  0  0
    7.1351    1.7481   -0.5096 N   0  0  0  0  0  0  0  0  0  0  0  0
    8.0461    0.8024    0.0821 C   0  0  0  0  0  0  0  0  0  0  0  0
    9.0125    1.2618    1.0271 N   0  0  0  0  0  0  0  0  0  0  0  0
    8.0246   -0.4562   -0.2326 N   0  0  0  0  0  0  0  0  0  0  0  0
    4.7051   -1.8752   -2.0052 C   0  0  0  0  0  0  0  0  0  0  0  0
    5.2987   -1.6248   -3.0421 O   0  0  0  0  0  0  0  0  0  0  0  0
    2.6512   -1.8235   -0.5059 C   0  0  2  0  0  0  0  0  0  0  0  0
    1.3043   -1.2522   -0.4290 N   0  0  0  0  0  0  0  0  0  0  0  0
    0.2887   -1.7315    0.2344 C   0  0  0  0  0  0  0  0  0  0  0  0
    0.3988   -2.9188    0.9675 O   0  0  0  0  0  0  0  0  0  0  0  0
   -0.9741   -1.0305    0.2119 N   0  0  0  0  0  0  0  0  0  0  0  0
   -2.1080   -1.5392    0.9945 C   0  0  0  0  0  0  0  0  0  0  0  0
   -3.4229   -1.3010    0.2510 C   0  0  0  0  0  0  0  0  0  0  0  0
   -3.5046    0.0898   -0.2214 N   0  0  0  0  0  0  0  0  0  0  0  0
   -2.3710    0.5973   -1.0059 C   0  0  0  0  0  0  0  0  0  0  0  0
   -1.0550    0.3588   -0.2641 C   0  0  0  0  0  0  0  0  0  0  0  0
   -4.7647    0.7976   -0.2304 C   0  0  0  0  0  0  0  0  0  0  0  0
   -4.8696    1.9655   -0.9920 O   0  0  0  0  0  0  0  0  0  0  0  0
   -5.7619    0.3293    0.4735 N   0  0  0  0  0  0  0  0  0  0  0  0
   -7.1412    0.8017    0.6740 C   0  0  0  0  0  0  0  0  0  0  0  0
   -7.1654    2.1858    1.3555 C   0  0  0  0  0  0  0  0  0  0  0  0
   -7.9303    0.8043   -0.6521 C   0  0  0  0  0  0  0  0  0  0  0  0
   -7.8148   -0.2054    1.6235 C   0  0  0  0  0  0  0  0  0  0  0  0
    3.3436   -1.7031    0.8271 C   0  0  0  0  0  0  0  0  0  0  0  0
    3.0825   -0.6161    1.6573 O   0  0  0  0  0  0  0  0  0  0  0  0
    4.1769   -2.5778    1.1855 O   0  0  0  0  0  0  0  0  0  0  0  0
    2.7787   -1.2391   -2.5573 H   0  0  0  0  0  0  0  0  0  0  0  0
    3.7727    0.8520   -2.4700 H   0  0  0  0  0  0  0  0  0  0  0  0
    2.7477    0.8417   -1.0336 H   0  0  0  0  0  0  0  0  0  0  0  0
    4.5421    1.5054    0.1866 H   0  0  0  0  0  0  0  0  0  0  0  0
    5.2619   -0.1110   -0.0200 H   0  0  0  0  0  0  0  0  0  0  0  0
    6.3610    0.7190   -2.1938 H   0  0  0  0  0  0  0  0  0  0  0  0
    5.6383    2.3219   -1.8708 H   0  0  0  0  0  0  0  0  0  0  0  0
    7.2865    2.7624   -0.3089 H   0  0  0  0  0  0  0  0  0  0  0  0
    9.0539    2.2694    1.2972 H   0  0  0  0  0  0  0  0  0  0  0  0
    9.6878    0.5950    1.4631 H   0  0  0  0  0  0  0  0  0  0  0  0
    7.3619   -0.8713   -0.9214 H   0  0  0  0  0  0  0  0  0  0  0  0
    5.0955   -2.6454   -1.3485 H   0  0  0  0  0  0  0  0  0  0  0  0
    2.5590   -2.9020   -0.7677 H   0  0  0  0  0  0  0  0  0  0  0  0
    1.2473   -3.4659    1.0247 H   0  0  0  0  0  0  0  0  0  0  0  0
   -2.1360   -1.0189    1.9765 H   0  0  0  0  0  0  0  0  0  0  0  0
   -2.0140   -2.6301    1.1820 H   0  0  0  0  0  0  0  0  0  0  0  0
   -3.4835   -1.9851   -0.6232 H   0  0  0  0  0  0  0  0  0  0  0  0
   -4.2566   -1.5519    0.9403 H   0  0  0  0  0  0  0  0  0  0  0  0
   -2.3446    0.0766   -1.9878 H   0  0  0  0  0  0  0  0  0  0  0  0
   -2.4632    1.6883   -1.1939 H   0  0  0  0  0  0  0  0  0  0  0  0
   -0.9911    1.0454    0.6079 H   0  0  0  0  0  0  0  0  0  0  0  0
   -0.2220    0.6051   -0.9563 H   0  0  0  0  0  0  0  0  0  0  0  0
   -5.6939    2.5353   -1.0701 H   0  0  0  0  0  0  0  0  0  0  0  0
   -8.2014    2.4490    1.6606 H   0  0  0  0  0  0  0  0  0  0  0  0
   -6.5257    2.1768    2.2642 H   0  0  0  0  0  0  0  0  0  0  0  0
   -6.8114    2.9963    0.6939 H   0  0  0  0  0  0  0  0  0  0  0  0
   -7.5906    1.5884   -1.3520 H   0  0  0  0  0  0  0  0  0  0  0  0
   -7.8302   -0.1792   -1.1596 H   0  0  0  0  0  0  0  0  0  0  0  0
   -9.0093    0.9899   -0.4601 H   0  0  0  0  0  0  0  0  0  0  0  0
   -7.2698   -0.2512    2.5915 H   0  0  0  0  0  0  0  0  0  0  0  0
   -8.8697    0.0798    1.8289 H   0  0  0  0  0  0  0  0  0  0  0  0
   -7.8080   -1.2240    1.1780 H   0  0  0  0  0  0  0  0  0  0  0  0
    3.5523   -0.5190    2.5493 H   0  0  0  0  0  0  0  0  0  0  0  0
  1  2  1  0
  2  3  1  0
  3  4  1  0
  4  5  1  0
  5  6  1  0
  6  7  1  0
  6  8  2  3
  1  9  1  0
  9 10  2  0
  1 11  1  0
 11 12  1  0
 12 13  2  3
 13 14  1  0
 13 15  1  0
 15 16  1  0
 16 17  1  0
 17 18  1  0
 18 19  1  0
 19 20  1  0
 18 21  1  0
 21 22  1  0
 21 23  2  3
 23 24  1  0
 24 25  1  0
 24 26  1  0
 24 27  1  0
 11 28  1  0
 28 29  1  0
 28 30  2  0
 20 15  1  0
  1 31  1  6
  2 32  1  0
  2 33  1  0
  3 34  1  0
  3 35  1  0
  4 36  1  0
  4 37  1  0
  5 38  1  0
  7 39  1  0
  7 40  1  0
  8 41  1  0
  9 42  1  0
 11 43  1  6
 14 44  1  0
 16 45  1  0
 16 46  1  0
 17 47  1  0
 17 48  1  0
 19 49  1  0
 19 50  1  0
 20 51  1  0
 20 52  1  0
 22 53  1  0
 25 54  1  0
 25 55  1  0
 25 56  1  0
 26 57  1  0
 26 58  1  0
 26 59  1  0
 27 60  1  0
 27 61  1  0
 27 62  1  0
 29 63  1  0
M  END
$$$$
