
     RDKit          3D

 28 27  0  0  0  0  0  0  0  0999 V2000
   -2.0771   -1.8349   -0.5023 C   0  0  0  0  0  0  0  0  0  0  0  0
   -1.1493   -0.9153    0.3019 C   0  0  0  0  0  0  0  0  0  0  0  0
   -1.9546   -0.1873    1.3897 C   0  0  0  0  0  0  0  0  0  0  0  0
   -0.4378    0.0885   -0.6382 C   0  0  0  0  0  0  0  0  0  0  0  0
    0.8394    0.7227   -0.0057 C   0  0  2  0  0  0  0  0  0  0  0  0
    0.9221    2.2290   -0.3308 C   0  0  0  0  0  0  0  0  0  0  0  0
   -0.1842    2.9548    0.2891 N   0  0  0  0  0  0  0  0  0  0  0  0
    2.1295    0.0226   -0.4937 C   0  0  0  0  0  0  0  0  0  0  0  0
    2.1933   -1.4097   -0.0602 C   0  0  0  0  0  0  0  0  0  0  0  0
    1.8163   -2.4189   -0.9406 O   0  0  0  0  0  0  0  0  0  0  0  0
    2.5557   -1.6988    1.1116 O   0  0  0  0  0  0  0  0  0  0  0  0
   -2.8490   -1.2413   -1.0379 H   0  0  0  0  0  0  0  0  0  0  0  0
   -2.5832   -2.5576    0.1729 H   0  0  0  0  0  0  0  0  0  0  0  0
   -1.4902   -2.4159   -1.2455 H   0  0  0  0  0  0  0  0  0  0  0  0
   -0.3950   -1.5597    0.8019 H   0  0  0  0  0  0  0  0  0  0  0  0
   -2.4419   -0.9253    2.0620 H   0  0  0  0  0  0  0  0  0  0  0  0
   -1.2948    0.4513    2.0118 H   0  0  0  0  0  0  0  0  0  0  0  0
   -2.7411    0.4521    0.9342 H   0  0  0  0  0  0  0  0  0  0  0  0
   -1.1721    0.8707   -0.9326 H   0  0  0  0  0  0  0  0  0  0  0  0
   -0.1623   -0.4177   -1.5899 H   0  0  0  0  0  0  0  0  0  0  0  0
    0.8114    0.6306    1.1023 H   0  0  0  0  0  0  0  0  0  0  0  0
    1.8846    2.6488    0.0401 H   0  0  0  0  0  0  0  0  0  0  0  0
    0.8877    2.3753   -1.4334 H   0  0  0  0  0  0  0  0  0  0  0  0
   -0.1213    3.9529   -0.0162 H   0  0  0  0  0  0  0  0  0  0  0  0
   -0.0395    2.9507    1.3251 H   0  0  0  0  0  0  0  0  0  0  0  0
    3.0200    0.5464   -0.0819 H   0  0  0  0  0  0  0  0  0  0  0  0
    2.1992    0.0766   -1.6022 H   0  0  0  0  0  0  0  0  0  0  0  0
    1.8342   -3.3906   -0.6552 H   0  0  0  0  0  0  0  0  0  0  0  0
  1  2  1  0
  2  3  1  0
  2  4  1  0
  4  5  1  0
  5  6  1  0
  6  7  1  0
  5  8  1  0
  8  9  1  0
  9 10  1  0
  9 11  2  0
  1 12  1  0
  1 13  1  0
  1 14  1  0
  2 15  1  0
  3 16  1  0
  3 17  1  0
  3 18  1  0
  4 19  1  0
  4 20  1  0
  5 21  1  1
  6 22  1  0
  6 23  1  0
  7 24  1  0
  7 25  1  0
  8 26  1  0
  8 27  1  0
 10 28  1  0
M  END
$$$$
