
     RDKit          3D

 21 17  0  0  0  0  0  0  0  0999 V2000
    0.0000    0.0000    0.0000 Li  0  0  0  0  0 15  0  0  0  0  0  0
    0.0000    0.0000    0.0000 Li  0  0  0  0  0 15  0  0  0  0  0  0
    0.0000    0.0000    0.0000 Li  0  0  0  0  0 15  0  0  0  0  0  0
    0.6313    1.4727   -1.0788 O   0  0  0  0  0  0  0  0  0  0  0  0
   -0.0135    0.6410   -0.1390 C   0  0  0  0  0  0  0  0  0  0  0  0
    1.0738    0.1160    0.8383 C   0  0  0  0  0  0  0  0  0  0  0  0
    2.1819   -0.6148    0.1367 C   0  0  0  0  0  0  0  0  0  0  0  0
    2.1726   -2.0024    0.0743 O   0  0  0  0  0  1  0  0  0  0  0  0
    3.1134    0.0267   -0.4168 O   0  0  0  0  0  0  0  0  0  0  0  0
   -0.7309   -0.5235   -0.8843 C   0  0  0  0  0  0  0  0  0  0  0  0
   -1.4274   -1.4896    0.0315 C   0  0  0  0  0  0  0  0  0  0  0  0
   -2.7185   -1.2252    0.4710 O   0  0  0  0  0  1  0  0  0  0  0  0
   -0.8418   -2.5358    0.4157 O   0  0  0  0  0  0  0  0  0  0  0  0
   -1.0337    1.4683    0.6239 C   0  0  0  0  0  0  0  0  0  0  0  0
   -1.7071    2.5057   -0.0110 O   0  0  0  0  0  1  0  0  0  0  0  0
   -1.3305    1.1882    1.8166 O   0  0  0  0  0  0  0  0  0  0  0  0
   -0.0271    1.7370   -1.7742 H   0  0  0  0  0  0  0  0  0  0  0  0
    0.6278   -0.5563    1.6024 H   0  0  0  0  0  0  0  0  0  0  0  0
    1.5185    0.9751    1.3881 H   0  0  0  0  0  0  0  0  0  0  0  0
   -1.4894   -0.1061   -1.5823 H   0  0  0  0  0  0  0  0  0  0  0  0
    0.0006   -1.0770   -1.5121 H   0  0  0  0  0  0  0  0  0  0  0  0
  4  5  1  0
  5  6  1  0
  6  7  1  0
  7  8  1  0
  7  9  2  0
  5 10  1  0
 10 11  1  0
 11 12  1  0
 11 13  2  0
  5 14  1  0
 14 15  1  0
 14 16  2  0
  4 17  1  0
  6 18  1  0
  6 19  1  0
 10 20  1  0
 10 21  1  0
M  CHG  6   1   1   2   1   3   1   8  -1  12  -1  15  -1
M  END
$$$$
