
     RDKit          3D

 64 66  0  0  0  0  0  0  0  0999 V2000
   -2.5076    2.6543   -0.4554 C   0  0  0  0  0  0  0  0  0  0  0  0
   -2.6538    1.2452   -0.5768 O   0  0  0  0  0  0  0  0  0  0  0  0
   -2.7275    0.3985    0.5329 C   0  0  0  0  0  0  0  0  0  0  0  0
   -2.6433    0.8659    1.7026 O   0  0  0  0  0  0  0  0  0  0  0  0
   -2.9598   -1.0783    0.3207 C   0  0  2  0  0  0  0  0  0  0  0  0
   -4.4068   -1.4443    0.7304 C   0  0  0  0  0  0  0  0  0  0  0  0
   -5.4272   -0.6482   -0.0478 C   0  0  0  0  0  0  0  0  0  0  0  0
   -5.7758   -1.0337   -1.3506 C   0  0  0  0  0  0  0  0  0  0  0  0
   -6.6865   -0.2753   -2.0882 C   0  0  0  0  0  0  0  0  0  0  0  0
   -7.2477    0.8797   -1.5382 C   0  0  0  0  0  0  0  0  0  0  0  0
   -6.8997    1.2918   -0.2406 C   0  0  0  0  0  0  0  0  0  0  0  0
   -5.9889    0.5169    0.5008 C   0  0  0  0  0  0  0  0  0  0  0  0
   -7.4883    2.5278    0.3331 C   0  0  0  0  0  0  0  0  0  0  0  0
   -8.8467    2.8751    0.0524 N   0  0  0  0  0  0  0  0  0  0  0  0
   -6.7830    3.3155    1.0845 N   0  0  0  0  0  0  0  0  0  0  0  0
   -1.8923   -1.9086    1.0925 C   0  0  1  0  0  0  0  0  0  0  0  0
   -2.0127   -3.4144    0.8141 C   0  0  0  0  0  0  0  0  0  0  0  0
   -0.5385   -1.4692    0.7258 N   0  0  0  0  0  0  0  0  0  0  0  0
    0.5966   -1.6870    1.5812 C   0  0  0  0  0  0  0  0  0  0  0  0
    0.4197   -2.1122    2.7560 O   0  0  0  0  0  0  0  0  0  0  0  0
    1.9740   -1.4007    1.1136 C   0  0  0  0  0  0  0  0  0  0  0  0
    2.3012   -1.4421   -0.2530 C   0  0  0  0  0  0  0  0  0  0  0  0
    3.6054   -1.1754   -0.6792 C   0  0  0  0  0  0  0  0  0  0  0  0
    4.6129   -0.8663    0.2506 C   0  0  0  0  0  0  0  0  0  0  0  0
    4.2882   -0.8368    1.6176 C   0  0  0  0  0  0  0  0  0  0  0  0
    2.9848   -1.1057    2.0441 C   0  0  0  0  0  0  0  0  0  0  0  0
    5.9984   -0.5809   -0.2025 C   0  0  0  0  0  0  0  0  0  0  0  0
    6.5846   -1.3404   -1.2312 C   0  0  0  0  0  0  0  0  0  0  0  0
    7.8850   -1.0657   -1.6610 C   0  0  0  0  0  0  0  0  0  0  0  0
    8.6175   -0.0350   -1.0695 C   0  0  0  0  0  0  0  0  0  0  0  0
    8.0567    0.7243   -0.0321 C   0  0  0  0  0  0  0  0  0  0  0  0
    8.8298    1.8603    0.5791 C   0  0  0  0  0  0  0  0  0  0  0  0
    8.5020    3.1081   -0.1020 N   0  0  0  0  0  0  0  0  0  0  0  0
    6.7441    0.4563    0.3886 C   0  0  0  0  0  0  0  0  0  0  0  0
   -1.5637    2.8941    0.0783 H   0  0  0  0  0  0  0  0  0  0  0  0
   -2.4737    3.1056   -1.4680 H   0  0  0  0  0  0  0  0  0  0  0  0
   -3.3716    3.0786    0.0987 H   0  0  0  0  0  0  0  0  0  0  0  0
   -2.8431   -1.2930   -0.7656 H   0  0  0  0  0  0  0  0  0  0  0  0
   -4.5435   -1.2835    1.8228 H   0  0  0  0  0  0  0  0  0  0  0  0
   -4.5995   -2.5198    0.5371 H   0  0  0  0  0  0  0  0  0  0  0  0
   -5.3385   -1.9191   -1.7953 H   0  0  0  0  0  0  0  0  0  0  0  0
   -6.9511   -0.5780   -3.0931 H   0  0  0  0  0  0  0  0  0  0  0  0
   -7.9346    1.4632   -2.1380 H   0  0  0  0  0  0  0  0  0  0  0  0
   -5.7200    0.8108    1.5079 H   0  0  0  0  0  0  0  0  0  0  0  0
   -9.4725    2.2279   -0.4760 H   0  0  0  0  0  0  0  0  0  0  0  0
   -9.2501    3.7653    0.4208 H   0  0  0  0  0  0  0  0  0  0  0  0
   -5.7800    3.1349    1.3121 H   0  0  0  0  0  0  0  0  0  0  0  0
   -2.0472   -1.7421    2.1824 H   0  0  0  0  0  0  0  0  0  0  0  0
   -2.0348   -3.6090   -0.2794 H   0  0  0  0  0  0  0  0  0  0  0  0
   -2.9259   -3.8325    1.2844 H   0  0  0  0  0  0  0  0  0  0  0  0
   -1.1464   -3.9557    1.2497 H   0  0  0  0  0  0  0  0  0  0  0  0
   -0.4040   -0.9484   -0.1699 H   0  0  0  0  0  0  0  0  0  0  0  0
    1.5596   -1.7015   -0.9965 H   0  0  0  0  0  0  0  0  0  0  0  0
    3.8227   -1.1996   -1.7398 H   0  0  0  0  0  0  0  0  0  0  0  0
    5.0467   -0.6223    2.3600 H   0  0  0  0  0  0  0  0  0  0  0  0
    2.7655   -1.0744    3.1043 H   0  0  0  0  0  0  0  0  0  0  0  0
    6.0425   -2.1555   -1.6939 H   0  0  0  0  0  0  0  0  0  0  0  0
    8.3263   -1.6540   -2.4552 H   0  0  0  0  0  0  0  0  0  0  0  0
    9.6212    0.1715   -1.4202 H   0  0  0  0  0  0  0  0  0  0  0  0
    9.9244    1.6675    0.5143 H   0  0  0  0  0  0  0  0  0  0  0  0
    8.5727    1.9501    1.6576 H   0  0  0  0  0  0  0  0  0  0  0  0
    8.9034    3.0683   -1.0674 H   0  0  0  0  0  0  0  0  0  0  0  0
    9.0001    3.8819    0.3947 H   0  0  0  0  0  0  0  0  0  0  0  0
    6.3001    1.0693    1.1639 H   0  0  0  0  0  0  0  0  0  0  0  0
  1  2  1  0
  2  3  1  0
  3  4  2  0
  3  5  1  0
  5  6  1  0
  6  7  1  0
  7  8  2  0
  8  9  1  0
  9 10  2  0
 10 11  1  0
 11 12  2  0
 11 13  1  0
 13 14  1  0
 13 15  2  3
  5 16  1  0
 16 17  1  0
 16 18  1  0
 18 19  1  0
 19 20  2  0
 19 21  1  0
 21 22  2  0
 22 23  1  0
 23 24  2  0
 24 25  1  0
 25 26  2  0
 24 27  1  0
 27 28  2  0
 28 29  1  0
 29 30  2  0
 30 31  1  0
 31 32  1  0
 32 33  1  0
 31 34  2  0
 12  7  1  0
 26 21  1  0
 34 27  1  0
  1 35  1  0
  1 36  1  0
  1 37  1  0
  5 38  1  6
  6 39  1  0
  6 40  1  0
  8 41  1  0
  9 42  1  0
 10 43  1  0
 12 44  1  0
 14 45  1  0
 14 46  1  0
 15 47  1  0
 16 48  1  1
 17 49  1  0
 17 50  1  0
 17 51  1  0
 18 52  1  0
 22 53  1  0
 23 54  1  0
 25 55  1  0
 26 56  1  0
 28 57  1  0
 29 58  1  0
 30 59  1  0
 32 60  1  0
 32 61  1  0
 33 62  1  0
 33 63  1  0
 34 64  1  0
M  END
$$$$
