
     RDKit          3D

114122  0  0  0  0  0  0  0  0999 V2000
   -7.3860    1.4271    1.2082 C   0  0  2  0  0  0  0  0  0  0  0  0
   -6.8050    0.6604    0.0724 N   0  0  0  0  0  0  0  0  0  0  0  0
   -7.6268   -0.1284   -0.7202 C   0  0  0  0  0  0  0  0  0  0  0  0
   -7.1319   -0.8345   -1.7786 N   0  0  0  0  0  0  0  0  0  0  0  0
   -5.8150   -0.7466   -2.0524 C   0  0  0  0  0  0  0  0  0  0  0  0
   -5.1663   -1.3544   -3.0590 N   0  0  0  0  0  0  0  0  0  0  0  0
   -3.8976   -0.9677   -2.9578 N   0  0  0  0  0  0  0  0  0  0  0  0
   -3.7451   -0.1104   -1.9160 C   0  0  0  0  0  0  0  0  0  0  0  0
   -4.9797    0.0305   -1.3230 C   0  0  0  0  0  0  0  0  0  0  0  0
   -5.4577    0.7670   -0.2444 C   0  0  0  0  0  0  0  0  0  0  0  0
   -4.4167    1.7379    0.5868 S   0  0  0  0  0  0  0  0  0  0  0  0
   -2.8531   -1.3696   -3.9021 C   0  0  1  0  0  0  0  0  0  0  0  0
   -2.5450   -0.2074   -4.8110 C   0  0  0  0  0  0  0  0  0  0  0  0
   -1.4276    0.5040   -4.6839 C   0  0  0  0  0  0  0  0  0  0  0  0
   -0.4107    0.1066   -3.7524 N   0  0  0  0  0  0  0  0  0  0  0  0
   -0.5282   -1.1468   -3.0541 C   0  0  0  0  0  0  0  0  0  0  0  0
   -1.6389   -1.8995   -3.1462 C   0  0  0  0  0  0  0  0  0  0  0  0
   -1.6948   -3.2072   -2.4273 C   0  0  0  0  0  0  0  0  0  0  0  0
   -0.5714   -3.6723   -1.7513 O   0  0  0  0  0  1  0  0  0  0  0  0
   -2.7643   -3.9399   -2.4087 N   0  0  0  0  0  0  0  0  0  0  0  0
    0.7223    1.0038   -3.4849 C   0  0  2  0  0  0  0  0  0  0  0  0
    1.9289    0.2675   -3.4745 O   0  0  0  0  0  0  0  0  0  0  0  0
    2.6555    0.6792   -2.3414 C   0  0  2  0  0  0  0  0  0  0  0  0
    3.5472   -0.4636   -1.8423 C   0  0  0  0  0  0  0  0  0  0  0  0
    2.7630   -1.6022   -1.5706 O   0  0  0  0  0  0  0  0  0  0  0  0
    3.7921   -2.8379   -1.0102 P   0  0  0  0  0  5  0  0  0  0  0  0
    4.9121   -3.2189   -2.2232 O   0  0  0  0  0  1  0  0  0  0  0  0
    2.9541   -4.0603   -0.7115 O   0  0  0  0  0  0  0  0  0  0  0  0
    4.5585   -2.3161    0.4200 O   0  0  0  0  0  0  0  0  0  0  0  0
    5.8840   -3.3460    0.7110 P   0  0  0  0  0  5  0  0  0  0  0  0
    6.5228   -2.9912    2.2379 O   0  0  0  0  0  0  0  0  0  0  0  0
    5.4438   -4.7936    0.6997 O   0  0  0  0  0  0  0  0  0  0  0  0
    7.0964   -3.1183   -0.4663 O   0  0  0  0  0  0  0  0  0  0  0  0
    7.4426   -1.7532   -0.4837 C   0  0  0  0  0  0  0  0  0  0  0  0
    8.5423   -1.5180   -1.5229 C   0  0  1  0  0  0  0  0  0  0  0  0
    8.8449   -0.1441   -1.5913 O   0  0  0  0  0  0  0  0  0  0  0  0
   10.2173   -0.0271   -1.9086 C   0  0  1  0  0  0  0  0  0  0  0  0
   10.8595    0.9114   -0.9850 N   0  0  0  0  0  0  0  0  0  0  0  0
   11.8241    1.8213   -1.2792 C   0  0  0  0  0  0  0  0  0  0  0  0
   12.2870    2.4915   -0.1876 N   0  0  0  0  0  0  0  0  0  0  0  0
   11.5719    1.9517    0.8174 C   0  0  0  0  0  0  0  0  0  0  0  0
   11.6199    2.2204    2.1808 C   0  0  0  0  0  0  0  0  0  0  0  0
   12.4985    3.2065    2.7230 N   0  0  0  0  0  0  0  0  0  0  0  0
   10.7940    1.4999    2.9976 N   0  0  0  0  0  0  0  0  0  0  0  0
    9.9486    0.5433    2.4948 C   0  0  0  0  0  0  0  0  0  0  0  0
    9.9122    0.2868    1.1527 N   0  0  0  0  0  0  0  0  0  0  0  0
   10.7279    1.0065    0.3451 C   0  0  0  0  0  0  0  0  0  0  0  0
   10.8844   -1.4037   -1.8279 C   0  0  2  0  0  0  0  0  0  0  0  0
   11.1918   -1.8615   -3.1147 O   0  0  0  0  0  1  0  0  0  0  0  0
    9.8256   -2.2631   -1.1873 C   0  0  2  0  0  0  0  0  0  0  0  0
    9.8130   -3.5612   -1.7086 O   0  0  0  0  0  1  0  0  0  0  0  0
    1.6569    1.1500   -1.2910 C   0  0  1  0  0  0  0  0  0  0  0  0
    2.2141    2.1243   -0.4459 O   0  0  0  0  0  0  0  0  0  0  0  0
    0.5379    1.7134   -2.1343 C   0  0  1  0  0  0  0  0  0  0  0  0
    0.6807    3.1033   -2.2901 O   0  0  0  0  0  0  0  0  0  0  0  0
   -8.5587    0.7121    1.8671 C   0  0  0  0  0  0  0  0  0  0  0  0
   -9.6890    1.2750    1.8890 O   0  0  0  0  0  0  0  0  0  0  0  0
   -8.4066   -0.6027    2.4592 N   0  0  0  0  0  0  0  0  0  0  0  0
   -9.5927   -1.3391    2.9113 C   0  0  0  0  0  0  0  0  0  0  0  0
   -9.7750   -1.1958    4.4287 C   0  0  0  0  0  0  0  0  0  0  0  0
   -8.7320   -2.0083    5.2153 C   0  0  0  0  0  0  0  0  0  0  0  0
   -7.4007   -1.2729    5.4751 C   0  0  0  0  0  0  0  0  0  0  0  0
   -6.7691   -0.5129    4.2877 C   0  0  0  0  0  0  0  0  0  0  0  0
   -7.0942   -1.0923    2.9054 C   0  0  0  0  0  0  0  0  0  0  0  0
   -7.7389    2.8389    0.7659 C   0  0  0  0  0  0  0  0  0  0  0  0
   -7.2352    3.9464    1.4737 C   0  0  0  0  0  0  0  0  0  0  0  0
   -7.5559    5.2475    1.0755 C   0  0  0  0  0  0  0  0  0  0  0  0
   -8.3861    5.4583   -0.0275 C   0  0  0  0  0  0  0  0  0  0  0  0
   -8.9002    4.3680   -0.7325 C   0  0  0  0  0  0  0  0  0  0  0  0
   -8.5823    3.0647   -0.3391 C   0  0  0  0  0  0  0  0  0  0  0  0
   -6.6324    1.5030    2.0194 H   0  0  0  0  0  0  0  0  0  0  0  0
   -8.6881   -0.1987   -0.5229 H   0  0  0  0  0  0  0  0  0  0  0  0
   -2.8188    0.3706   -1.6293 H   0  0  0  0  0  0  0  0  0  0  0  0
   -3.2373   -2.1831   -4.5549 H   0  0  0  0  0  0  0  0  0  0  0  0
   -3.2974    0.1131   -5.5211 H   0  0  0  0  0  0  0  0  0  0  0  0
   -1.2887    1.3822   -5.3028 H   0  0  0  0  0  0  0  0  0  0  0  0
    0.3034   -1.4841   -2.4512 H   0  0  0  0  0  0  0  0  0  0  0  0
   -3.6579   -3.6858   -2.8811 H   0  0  0  0  0  0  0  0  0  0  0  0
    0.8019    1.7579   -4.3007 H   0  0  0  0  0  0  0  0  0  0  0  0
    3.3118    1.5304   -2.6367 H   0  0  0  0  0  0  0  0  0  0  0  0
    4.0845   -0.1189   -0.9300 H   0  0  0  0  0  0  0  0  0  0  0  0
    4.2931   -0.6844   -2.6394 H   0  0  0  0  0  0  0  0  0  0  0  0
    5.7488   -3.0431    2.8537 H   0  0  0  0  0  0  0  0  0  0  0  0
    7.8088   -1.4196    0.5138 H   0  0  0  0  0  0  0  0  0  0  0  0
    6.5656   -1.1322   -0.7748 H   0  0  0  0  0  0  0  0  0  0  0  0
    8.1658   -1.8420   -2.5206 H   0  0  0  0  0  0  0  0  0  0  0  0
   10.2976    0.3783   -2.9426 H   0  0  0  0  0  0  0  0  0  0  0  0
   12.2002    1.9917   -2.2797 H   0  0  0  0  0  0  0  0  0  0  0  0
   12.5147    3.3857    3.7514 H   0  0  0  0  0  0  0  0  0  0  0  0
   13.1329    3.7597    2.1050 H   0  0  0  0  0  0  0  0  0  0  0  0
    9.3076   -0.0130    3.1646 H   0  0  0  0  0  0  0  0  0  0  0  0
   11.8128   -1.3939   -1.2147 H   0  0  0  0  0  0  0  0  0  0  0  0
    9.9934   -2.3037   -0.0878 H   0  0  0  0  0  0  0  0  0  0  0  0
    1.2605    0.2934   -0.6955 H   0  0  0  0  0  0  0  0  0  0  0  0
    2.7628    1.6379    0.2228 H   0  0  0  0  0  0  0  0  0  0  0  0
   -0.4463    1.4828   -1.6615 H   0  0  0  0  0  0  0  0  0  0  0  0
   -0.1706    3.4308   -2.6823 H   0  0  0  0  0  0  0  0  0  0  0  0
   -9.4984   -2.4111    2.6313 H   0  0  0  0  0  0  0  0  0  0  0  0
  -10.5069   -0.9718    2.3972 H   0  0  0  0  0  0  0  0  0  0  0  0
   -9.7465   -0.1245    4.7255 H   0  0  0  0  0  0  0  0  0  0  0  0
  -10.7843   -1.5843    4.6864 H   0  0  0  0  0  0  0  0  0  0  0  0
   -8.5336   -2.9783    4.7096 H   0  0  0  0  0  0  0  0  0  0  0  0
   -9.1679   -2.2655    6.2054 H   0  0  0  0  0  0  0  0  0  0  0  0
   -6.6688   -2.0264    5.8397 H   0  0  0  0  0  0  0  0  0  0  0  0
   -7.5497   -0.5514    6.3082 H   0  0  0  0  0  0  0  0  0  0  0  0
   -5.6654   -0.5124    4.4219 H   0  0  0  0  0  0  0  0  0  0  0  0
   -7.0886    0.5516    4.3258 H   0  0  0  0  0  0  0  0  0  0  0  0
   -6.3022   -0.8080    2.1846 H   0  0  0  0  0  0  0  0  0  0  0  0
   -7.0776   -2.2034    2.9344 H   0  0  0  0  0  0  0  0  0  0  0  0
   -6.5914    3.8052    2.3330 H   0  0  0  0  0  0  0  0  0  0  0  0
   -7.1609    6.0932    1.6235 H   0  0  0  0  0  0  0  0  0  0  0  0
   -8.6338    6.4664   -0.3337 H   0  0  0  0  0  0  0  0  0  0  0  0
   -9.5483    4.5325   -1.5836 H   0  0  0  0  0  0  0  0  0  0  0  0
   -9.0020    2.2368   -0.8931 H   0  0  0  0  0  0  0  0  0  0  0  0
  1  2  1  0
  2  3  1  0
  3  4  2  0
  4  5  1  0
  5  6  2  0
  6  7  1  0
  7  8  1  0
  8  9  2  0
  9 10  1  0
 10 11  2  0
  7 12  1  0
 12 13  1  0
 13 14  2  0
 14 15  1  0
 15 16  1  0
 16 17  2  0
 17 18  1  0
 18 19  1  0
 18 20  2  3
 15 21  1  0
 21 22  1  0
 22 23  1  0
 23 24  1  0
 24 25  1  0
 25 26  1  0
 26 27  1  0
 26 28  2  0
 26 29  1  0
 29 30  1  0
 30 31  1  0
 30 32  2  0
 30 33  1  0
 33 34  1  0
 34 35  1  0
 35 36  1  0
 36 37  1  0
 37 38  1  0
 38 39  1  0
 39 40  2  0
 40 41  1  0
 41 42  2  0
 42 43  1  0
 42 44  1  0
 44 45  2  0
 45 46  1  0
 46 47  2  0
 37 48  1  0
 48 49  1  0
 48 50  1  0
 50 51  1  0
 23 52  1  0
 52 53  1  0
 52 54  1  0
 54 55  1  0
  1 56  1  0
 56 57  2  0
 56 58  1  0
 58 59  1  0
 59 60  1  0
 60 61  1  0
 61 62  1  0
 62 63  1  0
 63 64  1  0
  1 65  1  0
 65 66  2  0
 66 67  1  0
 67 68  2  0
 68 69  1  0
 69 70  2  0
 10  2  1  0
 17 12  1  0
 54 21  1  0
 64 58  1  0
 70 65  1  0
  9  5  1  0
 50 35  1  0
 47 38  1  0
 47 41  1  0
  1 71  1  1
  3 72  1  0
  8 73  1  0
 12 74  1  6
 13 75  1  0
 14 76  1  0
 16 77  1  0
 20 78  1  0
 21 79  1  6
 23 80  1  6
 24 81  1  0
 24 82  1  0
 31 83  1  0
 34 84  1  0
 34 85  1  0
 35 86  1  6
 37 87  1  6
 39 88  1  0
 43 89  1  0
 43 90  1  0
 45 91  1  0
 48 92  1  1
 50 93  1  1
 52 94  1  1
 53 95  1  0
 54 96  1  1
 55 97  1  0
 59 98  1  0
 59 99  1  0
 60100  1  0
 60101  1  0
 61102  1  0
 61103  1  0
 62104  1  0
 62105  1  0
 63106  1  0
 63107  1  0
 64108  1  0
 64109  1  0
 66110  1  0
 67111  1  0
 68112  1  0
 69113  1  0
 70114  1  0
M  CHG  4  19  -1  27  -1  49  -1  51  -1
M  END
$$$$
