
     RDKit          3D

 39 38  0  0  0  0  0  0  0  0999 V2000
    0.0000    0.0000    0.0000 Fe  0  0  0  0  0 15  0  0  0  0  0  0
   -1.2374    0.7282    0.7926 C   0  0  1  0  0  0  0  0  0  0  0  0
   -1.4142    2.0597    0.3750 O   0  0  0  0  0  0  0  0  0  0  0  0
   -1.8875   -0.2746   -0.1871 C   0  0  0  0  0  0  0  0  0  0  0  0
   -1.2825   -0.2170   -1.4498 O   0  0  0  0  0  0  0  0  0  0  0  0
    0.2464    0.4350    1.1235 C   0  0  1  0  0  0  0  0  0  0  0  0
    0.3882   -0.9068    1.5987 O   0  0  0  0  0  0  0  0  0  0  0  0
    1.2573   -1.5921    0.7679 C   0  0  0  0  0  0  0  0  0  0  0  0
    1.5726   -2.8017    0.9128 O   0  0  0  0  0  0  0  0  0  0  0  0
    1.7395   -0.7079   -0.2626 C   0  0  0  0  0  0  0  0  0  0  0  0
    2.6491   -1.0166   -1.2686 O   0  0  0  0  0  0  0  0  0  0  0  0
    1.1830    0.4745   -0.0665 C   0  0  0  0  0  0  0  0  0  0  0  0
    1.4859    1.6013   -0.8249 O   0  0  0  0  0  0  0  0  0  0  0  0
    0.9076    0.5876   -0.5687 C   0  0  1  0  0  0  0  0  0  0  0  0
    1.6277    1.4677    0.2558 O   0  0  0  0  0  0  0  0  0  0  0  0
    1.3496   -0.8573   -0.2787 C   0  0  0  0  0  0  0  0  0  0  0  0
    2.7040   -1.0263   -0.6009 O   0  0  0  0  0  0  0  0  0  0  0  0
   -0.6094    0.7997   -0.3679 C   0  0  1  0  0  0  0  0  0  0  0  0
   -1.3677   -0.0898   -1.1928 O   0  0  0  0  0  0  0  0  0  0  0  0
   -2.1992   -0.8505   -0.3880 C   0  0  0  0  0  0  0  0  0  0  0  0
   -2.9957   -1.7259   -0.8154 O   0  0  0  0  0  0  0  0  0  0  0  0
   -2.0021   -0.4872    0.9912 C   0  0  0  0  0  0  0  0  0  0  0  0
   -2.6530   -1.0296    2.0921 O   0  0  0  0  0  1  0  0  0  0  0  0
   -1.0854    0.4629    1.0258 C   0  0  0  0  0  0  0  0  0  0  0  0
   -0.6400    1.0753    2.1909 O   0  0  0  0  0  1  0  0  0  0  0  0
   -1.7909    0.6224    1.7511 H   0  0  0  0  0  0  0  0  0  0  0  0
   -1.1644    2.1210   -0.5822 H   0  0  0  0  0  0  0  0  0  0  0  0
   -1.8066   -1.3060    0.2231 H   0  0  0  0  0  0  0  0  0  0  0  0
   -2.9685   -0.0285   -0.2848 H   0  0  0  0  0  0  0  0  0  0  0  0
   -1.7422   -0.8971   -2.0073 H   0  0  0  0  0  0  0  0  0  0  0  0
    0.6085    1.1411    1.9018 H   0  0  0  0  0  0  0  0  0  0  0  0
    3.0399   -1.9477   -1.3450 H   0  0  0  0  0  0  0  0  0  0  0  0
    1.1237    2.5127   -0.5754 H   0  0  0  0  0  0  0  0  0  0  0  0
    1.1451    0.8029   -1.6369 H   0  0  0  0  0  0  0  0  0  0  0  0
    1.5469    2.3712   -0.1482 H   0  0  0  0  0  0  0  0  0  0  0  0
    0.7588   -1.5616   -0.9014 H   0  0  0  0  0  0  0  0  0  0  0  0
    1.1710   -1.1180    0.7897 H   0  0  0  0  0  0  0  0  0  0  0  0
    3.2271   -0.6701    0.1640 H   0  0  0  0  0  0  0  0  0  0  0  0
   -0.8851    1.8489   -0.6105 H   0  0  0  0  0  0  0  0  0  0  0  0
  2  3  1  0
  2  4  1  0
  4  5  1  0
  2  6  1  0
  6  7  1  0
  7  8  1  0
  8  9  2  0
  8 10  1  0
 10 11  1  0
 10 12  2  0
 12 13  1  0
 14 15  1  0
 14 16  1  0
 16 17  1  0
 14 18  1  0
 18 19  1  0
 19 20  1  0
 20 21  2  0
 20 22  1  0
 22 23  1  0
 22 24  2  0
 24 25  1  0
 12  6  1  0
 24 18  1  0
  2 26  1  1
  3 27  1  0
  4 28  1  0
  4 29  1  0
  5 30  1  0
  6 31  1  1
 11 32  1  0
 13 33  1  0
 14 34  1  6
 15 35  1  0
 16 36  1  0
 16 37  1  0
 17 38  1  0
 18 39  1  6
M  CHG  3   1   2  23  -1  25  -1
M  END
$$$$
