
     RDKit          2D

179186  0  0  0  0  0  0  0  0999 V2000
   -0.3481   -7.9952    0.0000 C   0  0  0  0  0  0  0  0  0  0  0  0
    0.4019   -9.2942    0.0000 C   0  0  0  0  0  0  0  0  0  0  0  0
    1.1519  -10.5933    0.0000 C   0  0  0  0  0  0  0  0  0  0  0  0
    1.7010   -8.5442    0.0000 C   0  0  0  0  0  0  0  0  0  0  0  0
    3.0000   -7.7942    0.0000 C   0  0  0  0  0  0  0  0  0  0  0  0
    2.2500   -6.4952    0.0000 N   0  0  0  0  0  0  0  0  0  0  0  0
    3.0000   -5.1962    0.0000 C   0  0  0  0  0  0  0  0  0  0  0  0
    3.8857   -5.1962    0.0000 O   0  0  0  0  0  0  0  0  0  0  0  0
    2.2500   -3.8971    0.0000 C   0  0  0  0  0  0  0  0  0  0  0  0
    1.5000   -2.5981    0.0000 C   0  0  0  0  0  0  0  0  0  0  0  0
    0.7500   -1.2990    0.0000 C   0  0  0  0  0  0  0  0  0  0  0  0
    1.5000    0.0000    0.0000 C   0  0  0  0  0  0  0  0  0  0  0  0
    0.7500    1.2990    0.0000 C   0  0  0  0  0  0  0  0  0  0  0  0
    1.5000    2.5981    0.0000 C   0  0  0  0  0  0  0  0  0  0  0  0
    0.7500    3.8971    0.0000 C   0  0  0  0  0  0  0  0  0  0  0  0
   -0.7500    3.8971    0.0000 C   0  0  0  0  0  0  0  0  0  0  0  0
   -1.5000    2.5981    0.0000 C   0  0  0  0  0  0  0  0  0  0  0  0
   -0.7500    1.2990    0.0000 C   0  0  0  0  0  0  0  0  0  0  0  0
   -1.5000    0.0000    0.0000 C   0  0  0  0  0  0  0  0  0  0  0  0
   -0.7500   -1.2990    0.0000 C   0  0  0  0  0  0  0  0  0  0  0  0
    0.9510   -4.6471    0.0000 N   0  0  0  0  0  0  0  0  0  0  0  0
   -0.3481   -3.8971    0.0000 C   0  0  0  0  0  0  0  0  0  0  0  0
   -0.3481   -2.3971    0.0000 O   0  0  0  0  0  0  0  0  0  0  0  0
   -1.6471   -4.6471    0.0000 C   0  0  0  0  0  0  0  0  0  0  0  0
   -2.9462   -5.3971    0.0000 C   0  0  0  0  0  0  0  0  0  0  0  0
   -4.2452   -6.1471    0.0000 C   0  0  0  0  0  0  0  0  0  0  0  0
   -4.2452   -7.6471    0.0000 C   0  0  0  0  0  0  0  0  0  0  0  0
   -5.5442   -8.3971    0.0000 C   0  0  0  0  0  0  0  0  0  0  0  0
   -6.8433   -7.6471    0.0000 C   0  0  0  0  0  0  0  0  0  0  0  0
   -8.1423   -8.3971    0.0000 O   0  0  0  0  0  0  0  0  0  0  0  0
   -6.8433   -6.1471    0.0000 C   0  0  0  0  0  0  0  0  0  0  0  0
   -5.5442   -5.3971    0.0000 C   0  0  0  0  0  0  0  0  0  0  0  0
   -2.3971   -3.3481    0.0000 N   0  0  0  0  0  0  0  0  0  0  0  0
   -3.8971   -3.3481    0.0000 C   0  0  0  0  0  0  0  0  0  0  0  0
   -4.6471   -4.6471    0.0000 O   0  0  0  0  0  0  0  0  0  0  0  0
   -4.6471   -2.0490    0.0000 C   0  0  0  0  0  0  0  0  0  0  0  0
   -5.3971   -0.7500    0.0000 C   0  0  0  0  0  0  0  0  0  0  0  0
   -6.1471    0.5490    0.0000 O   0  0  0  0  0  0  0  0  0  0  0  0
   -5.9462   -2.7990    0.0000 N   0  0  0  0  0  0  0  0  0  0  0  0
   -7.2452   -2.0490    0.0000 C   0  0  0  0  0  0  0  0  0  0  0  0
   -7.2452   -0.5490    0.0000 O   0  0  0  0  0  0  0  0  0  0  0  0
   -8.5442   -2.7990    0.0000 C   0  0  0  0  0  0  0  0  0  0  0  0
   -9.8433   -3.5490    0.0000 C   0  0  0  0  0  0  0  0  0  0  0  0
  -11.1423   -4.2990    0.0000 C   0  0  0  0  0  0  0  0  0  0  0  0
  -11.2991   -5.7908    0.0000 C   0  0  0  0  0  0  0  0  0  0  0  0
  -12.7663   -6.1027    0.0000 N   0  0  0  0  0  0  0  0  0  0  0  0
  -13.5163   -4.8037    0.0000 C   0  0  0  0  0  0  0  0  0  0  0  0
  -14.9835   -4.4918    0.0000 C   0  0  0  0  0  0  0  0  0  0  0  0
  -15.4471   -3.0652    0.0000 C   0  0  0  0  0  0  0  0  0  0  0  0
  -14.4434   -1.9505    0.0000 C   0  0  0  0  0  0  0  0  0  0  0  0
  -12.9761   -2.2623    0.0000 C   0  0  0  0  0  0  0  0  0  0  0  0
  -12.5126   -3.6889    0.0000 C   0  0  0  0  0  0  0  0  0  0  0  0
   -9.2942   -1.5000    0.0000 N   0  0  0  0  0  0  0  0  0  0  0  0
  -10.7942   -1.5000    0.0000 C   0  0  0  0  0  0  0  0  0  0  0  0
  -11.5442   -2.7990    0.0000 O   0  0  0  0  0  0  0  0  0  0  0  0
  -11.5442   -0.2010    0.0000 C   0  0  0  0  0  0  0  0  0  0  0  0
  -12.2942    1.0981    0.0000 C   0  0  0  0  0  0  0  0  0  0  0  0
  -13.0442    2.3971    0.0000 C   0  0  0  0  0  0  0  0  0  0  0  0
  -12.4341    3.7674    0.0000 C   0  0  0  0  0  0  0  0  0  0  0  0
  -13.5488    4.7711    0.0000 N   0  0  0  0  0  0  0  0  0  0  0  0
  -14.8479    4.0211    0.0000 C   0  0  0  0  0  0  0  0  0  0  0  0
  -14.5360    2.5539    0.0000 N   0  0  0  0  0  0  0  0  0  0  0  0
  -12.8433   -0.9510    0.0000 N   0  0  0  0  0  0  0  0  0  0  0  0
  -14.1423   -0.2010    0.0000 C   0  0  0  0  0  0  0  0  0  0  0  0
  -14.1423    1.2990    0.0000 O   0  0  0  0  0  0  0  0  0  0  0  0
  -15.4413   -0.9510    0.0000 C   0  0  0  0  0  0  0  0  0  0  0  0
  -16.5561   -1.9547    0.0000 C   0  0  0  0  0  0  0  0  0  0  0  0
  -17.8551   -1.2047    0.0000 C   0  0  0  0  0  0  0  0  0  0  0  0
  -17.5432    0.2626    0.0000 C   0  0  0  0  0  0  0  0  0  0  0  0
  -18.5469    1.3773    0.0000 O   0  0  0  0  0  0  0  0  0  0  0  0
  -16.0514    0.4194    0.0000 N   0  0  0  0  0  0  0  0  0  0  0  0
    4.2990   -7.0442    0.0000 C   0  0  0  0  0  0  0  0  0  0  0  0
    4.2990   -6.2471    0.0000 O   0  0  0  0  0  0  0  0  0  0  0  0
    5.5981   -7.7942    0.0000 N   0  0  0  0  0  0  0  0  0  0  0  0
    6.8971   -7.0442    0.0000 C   0  0  0  0  0  0  0  0  0  0  0  0
    7.6471   -8.3433    0.0000 C   0  0  0  0  0  0  0  0  0  0  0  0
    8.3971   -9.6423    0.0000 C   0  0  0  0  0  0  0  0  0  0  0  0
    9.1471  -10.9413    0.0000 C   0  0  0  0  0  0  0  0  0  0  0  0
    9.8971  -12.2404    0.0000 N   0  0  0  0  0  0  0  0  0  0  0  0
    9.1471  -13.5394    0.0000 C   0  0  0  0  0  0  0  0  0  0  0  0
    9.8971  -14.8385    0.0000 N   0  0  0  0  0  0  0  0  0  0  0  0
    7.6471  -13.5394    0.0000 N   0  0  0  0  0  0  0  0  0  0  0  0
    6.1471   -5.7452    0.0000 C   0  0  0  0  0  0  0  0  0  0  0  0
    5.0536   -5.7452    0.0000 O   0  0  0  0  0  0  0  0  0  0  0  0
    6.8971   -4.4462    0.0000 N   0  0  0  0  0  0  0  0  0  0  0  0
    6.2870   -3.0758    0.0000 C   0  0  0  0  0  0  0  0  0  0  0  0
    7.4017   -2.0721    0.0000 C   0  0  0  0  0  0  0  0  0  0  0  0
    8.7008   -2.8221    0.0000 C   0  0  0  0  0  0  0  0  0  0  0  0
    8.3889   -4.2894    0.0000 C   0  0  0  0  0  0  0  0  0  0  0  0
    9.8807   -4.4462    0.0000 C   0  0  0  0  0  0  0  0  0  0  0  0
   10.9037   -3.3491    0.0000 O   0  0  0  0  0  0  0  0  0  0  0  0
   10.4908   -5.8165    0.0000 N   0  0  0  0  0  0  0  0  0  0  0  0
   11.9826   -5.9733    0.0000 C   0  0  0  0  0  0  0  0  0  0  0  0
   13.4744   -6.1301    0.0000 C   0  0  0  0  0  0  0  0  0  0  0  0
   14.3560   -4.9165    0.0000 N   0  0  0  0  0  0  0  0  0  0  0  0
   14.0845   -7.5004    0.0000 O   0  0  0  0  0  0  0  0  0  0  0  0
   -0.9341   -6.6144    0.0000 H   0  0  0  0  0  0  0  0  0  0  0  0
   -1.6471   -8.7452    0.0000 H   0  0  0  0  0  0  0  0  0  0  0  0
    0.7309   -6.9531    0.0000 H   0  0  0  0  0  0  0  0  0  0  0  0
   -0.8971  -10.0442    0.0000 H   0  0  0  0  0  0  0  0  0  0  0  0
    1.9019  -11.8923    0.0000 H   0  0  0  0  0  0  0  0  0  0  0  0
   -0.1471  -11.3433    0.0000 H   0  0  0  0  0  0  0  0  0  0  0  0
    2.5327  -10.0072    0.0000 H   0  0  0  0  0  0  0  0  0  0  0  0
    0.9510   -7.2452    0.0000 H   0  0  0  0  0  0  0  0  0  0  0  0
    2.6037   -9.7422    0.0000 H   0  0  0  0  0  0  0  0  0  0  0  0
    3.7500   -9.0933    0.0000 H   0  0  0  0  0  0  0  0  0  0  0  0
    0.7612   -6.3123    0.0000 H   0  0  0  0  0  0  0  0  0  0  0  0
    3.5490   -3.1471    0.0000 H   0  0  0  0  0  0  0  0  0  0  0  0
    0.0581   -3.0115    0.0000 H   0  0  0  0  0  0  0  0  0  0  0  0
    2.7990   -1.8481    0.0000 H   0  0  0  0  0  0  0  0  0  0  0  0
    3.0000    0.0000    0.0000 H   0  0  0  0  0  0  0  0  0  0  0  0
    3.0000    2.5981    0.0000 H   0  0  0  0  0  0  0  0  0  0  0  0
    1.5000    5.1962    0.0000 H   0  0  0  0  0  0  0  0  0  0  0  0
   -1.5000    5.1962    0.0000 H   0  0  0  0  0  0  0  0  0  0  0  0
   -3.0000    2.5981    0.0000 H   0  0  0  0  0  0  0  0  0  0  0  0
   -3.0000    0.0000    0.0000 H   0  0  0  0  0  0  0  0  0  0  0  0
   -1.6528   -2.4970    0.0000 H   0  0  0  0  0  0  0  0  0  0  0  0
    0.7681   -6.1359    0.0000 H   0  0  0  0  0  0  0  0  0  0  0  0
   -0.7444   -5.8450    0.0000 H   0  0  0  0  0  0  0  0  0  0  0  0
   -3.9882   -4.3182    0.0000 H   0  0  0  0  0  0  0  0  0  0  0  0
   -2.1962   -6.6962    0.0000 H   0  0  0  0  0  0  0  0  0  0  0  0
   -2.9462   -8.3971    0.0000 H   0  0  0  0  0  0  0  0  0  0  0  0
   -5.5442   -9.8971    0.0000 H   0  0  0  0  0  0  0  0  0  0  0  0
   -9.4413   -7.6471    0.0000 H   0  0  0  0  0  0  0  0  0  0  0  0
   -8.1423   -5.3971    0.0000 H   0  0  0  0  0  0  0  0  0  0  0  0
   -5.7271   -3.9083    0.0000 H   0  0  0  0  0  0  0  0  0  0  0  0
   -1.8111   -1.9673    0.0000 H   0  0  0  0  0  0  0  0  0  0  0  0
   -3.3481   -1.2990    0.0000 H   0  0  0  0  0  0  0  0  0  0  0  0
   -6.8390   -1.1634    0.0000 H   0  0  0  0  0  0  0  0  0  0  0  0
   -4.0981    0.0000    0.0000 H   0  0  0  0  0  0  0  0  0  0  0  0
   -5.3971    1.8481    0.0000 H   0  0  0  0  0  0  0  0  0  0  0  0
   -6.1290   -4.2879    0.0000 H   0  0  0  0  0  0  0  0  0  0  0  0
   -7.7942   -4.0981    0.0000 H   0  0  0  0  0  0  0  0  0  0  0  0
  -10.8853   -2.4701    0.0000 H   0  0  0  0  0  0  0  0  0  0  0  0
   -9.0933   -4.8481    0.0000 H   0  0  0  0  0  0  0  0  0  0  0  0
  -10.1844   -6.7945    0.0000 H   0  0  0  0  0  0  0  0  0  0  0  0
  -13.3764   -7.4730    0.0000 H   0  0  0  0  0  0  0  0  0  0  0  0
  -15.9872   -5.6065    0.0000 H   0  0  0  0  0  0  0  0  0  0  0  0
  -16.9414   -2.9345    0.0000 H   0  0  0  0  0  0  0  0  0  0  0  0
  -15.2383   -0.6785    0.0000 H   0  0  0  0  0  0  0  0  0  0  0  0
  -11.7325   -1.4236    0.0000 H   0  0  0  0  0  0  0  0  0  0  0  0
   -8.5442   -0.2010    0.0000 H   0  0  0  0  0  0  0  0  0  0  0  0
  -10.2452    0.5490    0.0000 H   0  0  0  0  0  0  0  0  0  0  0  0
  -13.7361    0.6847    0.0000 H   0  0  0  0  0  0  0  0  0  0  0  0
  -10.9952    1.8481    0.0000 H   0  0  0  0  0  0  0  0  0  0  0  0
  -10.9669    4.0793    0.0000 H   0  0  0  0  0  0  0  0  0  0  0  0
  -16.2182    4.6312    0.0000 H   0  0  0  0  0  0  0  0  0  0  0  0
  -15.6681    1.5698    0.0000 H   0  0  0  0  0  0  0  0  0  0  0  0
  -13.2062   -2.4064    0.0000 H   0  0  0  0  0  0  0  0  0  0  0  0
  -14.8795   -2.3418    0.0000 H   0  0  0  0  0  0  0  0  0  0  0  0
  -15.2316   -2.6588    0.0000 H   0  0  0  0  0  0  0  0  0  0  0  0
  -17.5791   -3.0517    0.0000 H   0  0  0  0  0  0  0  0  0  0  0  0
  -18.4652   -2.5750    0.0000 H   0  0  0  0  0  0  0  0  0  0  0  0
  -19.2817   -0.7411    0.0000 H   0  0  0  0  0  0  0  0  0  0  0  0
  -15.4654    1.8001    0.0000 H   0  0  0  0  0  0  0  0  0  0  0  0
    5.4152   -9.2830    0.0000 H   0  0  0  0  0  0  0  0  0  0  0  0
    8.2779   -6.4582    0.0000 H   0  0  0  0  0  0  0  0  0  0  0  0
    9.0279   -7.7572    0.0000 H   0  0  0  0  0  0  0  0  0  0  0  0
    6.4492   -9.2460    0.0000 H   0  0  0  0  0  0  0  0  0  0  0  0
    7.0981  -10.3923    0.0000 H   0  0  0  0  0  0  0  0  0  0  0  0
    9.6962   -8.8923    0.0000 H   0  0  0  0  0  0  0  0  0  0  0  0
   10.4462  -10.1913    0.0000 H   0  0  0  0  0  0  0  0  0  0  0  0
    7.8481  -11.6913    0.0000 H   0  0  0  0  0  0  0  0  0  0  0  0
    9.1471  -16.1375    0.0000 H   0  0  0  0  0  0  0  0  0  0  0  0
   11.3971  -14.8385    0.0000 H   0  0  0  0  0  0  0  0  0  0  0  0
    6.8971  -14.8385    0.0000 H   0  0  0  0  0  0  0  0  0  0  0  0
    6.8971  -12.2404    0.0000 H   0  0  0  0  0  0  0  0  0  0  0  0
    4.9880   -3.8258    0.0000 H   0  0  0  0  0  0  0  0  0  0  0  0
    5.4053   -1.8623    0.0000 H   0  0  0  0  0  0  0  0  0  0  0  0
    6.2870   -1.0684    0.0000 H   0  0  0  0  0  0  0  0  0  0  0  0
    8.2834   -0.8586    0.0000 H   0  0  0  0  0  0  0  0  0  0  0  0
    9.3109   -1.4518    0.0000 H   0  0  0  0  0  0  0  0  0  0  0  0
   10.1732   -3.1083    0.0000 H   0  0  0  0  0  0  0  0  0  0  0  0
    8.5717   -5.7782    0.0000 H   0  0  0  0  0  0  0  0  0  0  0  0
    9.7636   -7.1284    0.0000 H   0  0  0  0  0  0  0  0  0  0  0  0
   12.1394   -4.4815    0.0000 H   0  0  0  0  0  0  0  0  0  0  0  0
   11.8258   -7.4650    0.0000 H   0  0  0  0  0  0  0  0  0  0  0  0
   15.8478   -5.0733    0.0000 H   0  0  0  0  0  0  0  0  0  0  0  0
   13.7459   -3.5462    0.0000 H   0  0  0  0  0  0  0  0  0  0  0  0
  1  2  1  0
  2  3  1  0
  2  4  1  0
  4  5  1  0
  5  6  1  0
  6  7  1  0
  7  8  2  0
  7  9  1  0
  9 10  1  0
 10 11  1  0
 11 12  2  0
 12 13  1  0
 13 14  2  0
 14 15  1  0
 15 16  2  0
 16 17  1  0
 17 18  2  0
 18 19  1  0
 19 20  2  0
  9 21  1  0
 21 22  1  0
 22 23  2  0
 22 24  1  0
 24 25  1  0
 25 26  1  0
 26 27  2  0
 27 28  1  0
 28 29  2  0
 29 30  1  0
 29 31  1  0
 31 32  2  0
 24 33  1  0
 33 34  1  0
 34 35  2  0
 34 36  1  0
 36 37  1  0
 37 38  1  0
 36 39  1  0
 39 40  1  0
 40 41  2  0
 40 42  1  0
 42 43  1  0
 43 44  1  0
 44 45  2  0
 45 46  1  0
 46 47  1  0
 47 48  2  0
 48 49  1  0
 49 50  2  0
 50 51  1  0
 51 52  2  0
 42 53  1  0
 53 54  1  0
 54 55  2  0
 54 56  1  0
 56 57  1  0
 57 58  1  0
 58 59  2  0
 59 60  1  0
 60 61  2  0
 61 62  1  0
 56 63  1  0
 63 64  1  0
 64 65  2  0
 64 66  1  0
 66 67  1  0
 67 68  1  0
 68 69  1  0
 69 70  2  0
 69 71  1  0
  5 72  1  0
 72 73  2  0
 72 74  1  0
 74 75  1  0
 75 76  1  0
 76 77  1  0
 77 78  1  0
 78 79  1  0
 79 80  2  3
 80 81  1  0
 80 82  1  0
 75 83  1  0
 83 84  2  0
 83 85  1  0
 85 86  1  0
 86 87  1  0
 87 88  1  0
 88 89  1  0
 89 90  1  0
 90 91  2  0
 90 92  1  0
 92 93  1  0
 93 94  1  0
 94 95  1  0
 94 96  2  0
 20 11  1  0
 32 26  1  0
 52 44  1  0
 62 58  1  0
 71 66  1  0
 89 85  1  0
 18 13  1  0
 52 47  1  0
  1 97  1  0
  1 98  1  0
  1 99  1  0
  2100  1  0
  3101  1  0
  3102  1  0
  3103  1  0
  4104  1  0
  4105  1  0
  5106  1  1
  6107  1  0
  9108  1  1
 10109  1  0
 10110  1  0
 12111  1  0
 14112  1  0
 15113  1  0
 16114  1  0
 17115  1  0
 19116  1  0
 20117  1  0
 21118  1  0
 24119  1  1
 25120  1  0
 25121  1  0
 27122  1  0
 28123  1  0
 30124  1  0
 31125  1  0
 32126  1  0
 33127  1  0
 36128  1  6
 37129  1  0
 37130  1  0
 38131  1  0
 39132  1  0
 42133  1  1
 43134  1  0
 43135  1  0
 45136  1  0
 46137  1  0
 48138  1  0
 49139  1  0
 50140  1  0
 51141  1  0
 53142  1  0
 56143  1  6
 57144  1  0
 57145  1  0
 59146  1  0
 61147  1  0
 62148  1  0
 63149  1  0
 66150  1  1
 67151  1  0
 67152  1  0
 68153  1  0
 68154  1  0
 71155  1  0
 74156  1  0
 75157  1  1
 76158  1  0
 76159  1  0
 77160  1  0
 77161  1  0
 78162  1  0
 78163  1  0
 81164  1  0
 81165  1  0
 82166  1  0
 82167  1  0
 86168  1  0
 86169  1  0
 87170  1  0
 87171  1  0
 88172  1  0
 88173  1  0
 89174  1  6
 92175  1  0
 93176  1  0
 93177  1  0
 95178  1  0
 95179  1  0
M  END
$$$$
