
     RDKit          3D

 22 21  0  0  0  0  0  0  0  0999 V2000
   -2.4729   -1.7434    0.6940 N   0  0  0  0  0  0  0  0  0  0  0  0
   -1.9451   -0.3770    0.6831 C   0  0  1  0  0  0  0  0  0  0  0  0
   -0.9035   -0.2127   -0.4336 C   0  0  0  0  0  0  0  0  0  0  0  0
    0.5239   -1.3258   -0.1804 S   0  0  0  0  0  0  0  0  0  0  0  0
    1.4689   -0.0690    1.2705 S   0  0  0  0  0  0  0  0  0  0  0  0
    2.5326    0.7820    0.0559 C   0  0  0  0  0  0  0  0  0  0  0  0
    3.7490   -0.0749   -0.2916 C   0  0  0  0  0  0  0  0  0  0  0  0
    4.5959    0.6185   -1.1669 O   0  0  0  0  0  0  0  0  0  0  0  0
   -3.0595    0.6204    0.5082 C   0  0  0  0  0  0  0  0  0  0  0  0
   -3.8409    0.6016   -0.6438 O   0  0  0  0  0  0  0  0  0  0  0  0
   -3.2871    1.4751    1.4059 O   0  0  0  0  0  0  0  0  0  0  0  0
   -3.1416   -1.8375    1.4932 H   0  0  0  0  0  0  0  0  0  0  0  0
   -3.0105   -1.9194   -0.1865 H   0  0  0  0  0  0  0  0  0  0  0  0
   -1.4471   -0.1849    1.6593 H   0  0  0  0  0  0  0  0  0  0  0  0
   -0.5543    0.8413   -0.4826 H   0  0  0  0  0  0  0  0  0  0  0  0
   -1.3623   -0.4599   -1.4150 H   0  0  0  0  0  0  0  0  0  0  0  0
    1.9563    1.0250   -0.8620 H   0  0  0  0  0  0  0  0  0  0  0  0
    2.8779    1.7359    0.5078 H   0  0  0  0  0  0  0  0  0  0  0  0
    4.3132   -0.3049    0.6370 H   0  0  0  0  0  0  0  0  0  0  0  0
    3.4300   -1.0390   -0.7479 H   0  0  0  0  0  0  0  0  0  0  0  0
    4.1702    0.5807   -2.0631 H   0  0  0  0  0  0  0  0  0  0  0  0
   -4.5931    1.2677   -0.7724 H   0  0  0  0  0  0  0  0  0  0  0  0
  1  2  1  0
  2  3  1  0
  3  4  1  0
  4  5  1  0
  5  6  1  0
  6  7  1  0
  7  8  1  0
  2  9  1  0
  9 10  1  0
  9 11  2  0
  1 12  1  0
  1 13  1  0
  2 14  1  1
  3 15  1  0
  3 16  1  0
  6 17  1  0
  6 18  1  0
  7 19  1  0
  7 20  1  0
  8 21  1  0
 10 22  1  0
M  END
$$$$
