
     RDKit          3D

 27 27  0  0  0  0  0  0  0  0999 V2000
   -2.0837    0.4841    0.4398 C   0  0  1  0  0  0  0  0  0  0  0  0
   -2.1012   -0.0481    1.7452 O   0  0  0  0  0  0  0  0  0  0  0  0
   -1.1056    1.5041    0.3079 O   0  0  0  0  0  0  0  0  0  0  0  0
    0.2203    0.9965    0.3487 C   0  0  2  0  0  0  0  0  0  0  0  0
    1.1782    2.1972    0.3005 C   0  0  0  0  0  0  0  0  0  0  0  0
    1.0072    2.9129   -0.8924 O   0  0  0  0  0  0  0  0  0  0  0  0
    0.4724    0.0064   -0.8243 C   0  0  1  0  0  0  0  0  0  0  0  0
    2.2092   -0.6184   -0.9354 S   0  0  0  0  0  0  0  0  0  0  0  0
    2.4466   -1.2207    0.7725 C   0  0  0  0  0  0  0  0  0  0  0  0
   -0.5431   -1.1527   -0.7877 C   0  0  2  0  0  0  0  0  0  0  0  0
   -0.4489   -1.9135   -1.9659 O   0  0  0  0  0  0  0  0  0  0  0  0
   -1.9684   -0.5820   -0.6797 C   0  0  1  0  0  0  0  0  0  0  0  0
   -2.9227   -1.6020   -0.5145 O   0  0  0  0  0  0  0  0  0  0  0  0
   -3.0695    0.9748    0.2943 H   0  0  0  0  0  0  0  0  0  0  0  0
   -1.3973   -0.7399    1.8204 H   0  0  0  0  0  0  0  0  0  0  0  0
    0.3968    0.4915    1.3212 H   0  0  0  0  0  0  0  0  0  0  0  0
    2.2338    1.8615    0.3935 H   0  0  0  0  0  0  0  0  0  0  0  0
    0.9602    2.8634    1.1653 H   0  0  0  0  0  0  0  0  0  0  0  0
    1.6508    3.6673   -0.8558 H   0  0  0  0  0  0  0  0  0  0  0  0
    0.2948    0.5617   -1.7721 H   0  0  0  0  0  0  0  0  0  0  0  0
    2.5412   -0.3684    1.4745 H   0  0  0  0  0  0  0  0  0  0  0  0
    3.3924   -1.7987    0.8111 H   0  0  0  0  0  0  0  0  0  0  0  0
    1.6244   -1.8884    1.0916 H   0  0  0  0  0  0  0  0  0  0  0  0
   -0.3547   -1.8005    0.0957 H   0  0  0  0  0  0  0  0  0  0  0  0
    0.2484   -2.6036   -1.8136 H   0  0  0  0  0  0  0  0  0  0  0  0
   -2.1975   -0.0686   -1.6405 H   0  0  0  0  0  0  0  0  0  0  0  0
   -2.6841   -2.1159    0.3000 H   0  0  0  0  0  0  0  0  0  0  0  0
  1  2  1  0
  1  3  1  0
  3  4  1  0
  4  5  1  0
  5  6  1  0
  4  7  1  0
  7  8  1  0
  8  9  1  0
  7 10  1  0
 10 11  1  0
 10 12  1  0
 12 13  1  0
 12  1  1  0
  1 14  1  6
  2 15  1  0
  4 16  1  1
  5 17  1  0
  5 18  1  0
  6 19  1  0
  7 20  1  6
  9 21  1  0
  9 22  1  0
  9 23  1  0
 10 24  1  1
 11 25  1  0
 12 26  1  6
 13 27  1  0
M  END
$$$$
