
     RDKit          3D

 30 31  0  0  0  0  0  0  0  0999 V2000
    3.3991   -1.2194    0.1161 C   0  0  0  0  0  0  0  0  0  0  0  0
    2.0644   -0.5191    0.3974 C   0  0  0  0  0  0  0  0  0  0  0  0
    2.3008    0.9681    0.6923 C   0  0  0  0  0  0  0  0  0  0  0  0
    1.0986   -0.7155   -0.7913 C   0  0  0  0  0  0  0  0  0  0  0  0
   -0.2505   -0.2050   -0.4808 N   0  0  0  0  0  0  0  0  0  0  0  0
   -1.1125   -0.9327    0.2846 C   0  0  0  0  0  0  0  0  0  0  0  0
   -2.3535   -0.5022    0.5933 C   0  0  0  0  0  0  0  0  0  0  0  0
   -3.0017   -1.4125    1.3423 N   0  0  0  0  0  0  0  0  0  0  0  0
   -2.0815   -2.4055    1.4641 C   0  0  0  0  0  0  0  0  0  0  0  0
   -0.9145   -2.1437    0.8272 N   0  0  0  0  0  0  0  0  0  0  0  0
   -2.8020    0.7254    0.1427 C   0  0  0  0  0  0  0  0  0  0  0  0
   -3.9707    1.1123    0.4191 O   0  0  0  0  0  0  0  0  0  0  0  0
   -1.9461    1.4982   -0.6085 N   0  0  0  0  0  0  0  0  0  0  0  0
   -2.3970    2.8004   -1.1273 C   0  0  0  0  0  0  0  0  0  0  0  0
   -0.6849    1.0252   -0.9358 C   0  0  0  0  0  0  0  0  0  0  0  0
    0.0766    1.7279   -1.6590 O   0  0  0  0  0  0  0  0  0  0  0  0
    4.0826   -1.1078    0.9849 H   0  0  0  0  0  0  0  0  0  0  0  0
    3.8875   -0.7859   -0.7832 H   0  0  0  0  0  0  0  0  0  0  0  0
    3.2343   -2.3050   -0.0527 H   0  0  0  0  0  0  0  0  0  0  0  0
    1.6229   -0.9851    1.3051 H   0  0  0  0  0  0  0  0  0  0  0  0
    3.0268    1.0837    1.5253 H   0  0  0  0  0  0  0  0  0  0  0  0
    1.3535    1.4562    1.0032 H   0  0  0  0  0  0  0  0  0  0  0  0
    2.7001    1.4879   -0.2050 H   0  0  0  0  0  0  0  0  0  0  0  0
    1.0321   -1.7953   -1.0488 H   0  0  0  0  0  0  0  0  0  0  0  0
    1.5145   -0.2254   -1.6988 H   0  0  0  0  0  0  0  0  0  0  0  0
   -2.2651   -3.3183    2.0153 H   0  0  0  0  0  0  0  0  0  0  0  0
   -0.0709   -2.7564    0.7805 H   0  0  0  0  0  0  0  0  0  0  0  0
   -1.5564    3.5257   -1.1674 H   0  0  0  0  0  0  0  0  0  0  0  0
   -3.1708    3.2542   -0.4721 H   0  0  0  0  0  0  0  0  0  0  0  0
   -2.8159    2.6695   -2.1472 H   0  0  0  0  0  0  0  0  0  0  0  0
  1  2  1  0
  2  3  1  0
  2  4  1  0
  4  5  1  0
  5  6  1  0
  6  7  2  0
  7  8  1  0
  8  9  2  0
  9 10  1  0
  7 11  1  0
 11 12  2  0
 11 13  1  0
 13 14  1  0
 13 15  1  0
 15 16  2  0
 15  5  1  0
 10  6  1  0
  1 17  1  0
  1 18  1  0
  1 19  1  0
  2 20  1  0
  3 21  1  0
  3 22  1  0
  3 23  1  0
  4 24  1  0
  4 25  1  0
  9 26  1  0
 10 27  1  0
 14 28  1  0
 14 29  1  0
 14 30  1  0
M  END
$$$$
