
     RDKit          3D

 54 56  0  0  0  0  0  0  0  0999 V2000
    8.3503   -0.1827   -1.3169 C   0  0  0  0  0  0  0  0  0  0  0  0
    7.6169   -0.6286   -0.1808 O   0  0  0  0  0  0  0  0  0  0  0  0
    6.2684   -0.3261    0.0596 C   0  0  0  0  0  0  0  0  0  0  0  0
    5.6697   -0.8321    1.2188 C   0  0  0  0  0  0  0  0  0  0  0  0
    4.3286   -0.5605    1.5027 C   0  0  0  0  0  0  0  0  0  0  0  0
    3.5607    0.2207    0.6241 C   0  0  0  0  0  0  0  0  0  0  0  0
    2.1063    0.5089    0.9276 C   0  0  0  0  0  0  0  0  0  0  0  0
    1.0938   -0.4940    0.2845 C   0  0  0  0  0  0  0  0  0  0  0  0
    1.1191   -0.3884   -1.2605 C   0  0  0  0  0  0  0  0  0  0  0  0
    1.4726   -1.9400    0.6760 C   0  0  0  0  0  0  0  0  0  0  0  0
   -0.2790   -0.2579    0.8042 N   0  0  0  0  0  0  0  0  0  0  0  0
   -0.7811    1.1262    0.6862 C   0  0  0  0  0  0  0  0  0  0  0  0
   -2.2779    1.2314    1.0643 C   0  0  2  0  0  0  0  0  0  0  0  0
   -2.4702    0.7186    2.3607 O   0  0  0  0  0  0  0  0  0  0  0  0
   -3.2842    0.6283    0.0777 C   0  0  0  0  0  0  0  0  0  0  0  0
   -4.6515    0.5854    0.4337 C   0  0  0  0  0  0  0  0  0  0  0  0
   -5.0781    1.0881    1.6721 O   0  0  0  0  0  0  0  0  0  0  0  0
   -6.3412    0.7627    2.2578 C   0  0  0  0  0  0  0  0  0  0  0  0
   -7.3845    0.5193    1.2083 C   0  0  0  0  0  0  0  0  0  0  0  0
   -8.6060    0.6329    1.4935 O   0  0  0  0  0  0  0  0  0  0  0  0
   -6.9907    0.0813   -0.0943 N   0  0  0  0  0  0  0  0  0  0  0  0
   -5.6061    0.0705   -0.4601 C   0  0  0  0  0  0  0  0  0  0  0  0
   -5.2100   -0.3964   -1.7162 C   0  0  0  0  0  0  0  0  0  0  0  0
   -3.8655   -0.3384   -2.0929 C   0  0  0  0  0  0  0  0  0  0  0  0
   -3.4625   -0.7880   -3.3486 O   0  0  0  0  0  0  0  0  0  0  0  0
   -2.9138    0.1805   -1.2101 C   0  0  0  0  0  0  0  0  0  0  0  0
    4.1617    0.7359   -0.5355 C   0  0  0  0  0  0  0  0  0  0  0  0
    5.5032    0.4641   -0.8190 C   0  0  0  0  0  0  0  0  0  0  0  0
    9.3884   -0.5682   -1.2525 H   0  0  0  0  0  0  0  0  0  0  0  0
    8.3838    0.9271   -1.3383 H   0  0  0  0  0  0  0  0  0  0  0  0
    7.8844   -0.5693   -2.2479 H   0  0  0  0  0  0  0  0  0  0  0  0
    6.2477   -1.4397    1.9035 H   0  0  0  0  0  0  0  0  0  0  0  0
    3.8871   -0.9640    2.4055 H   0  0  0  0  0  0  0  0  0  0  0  0
    1.8888    1.5420    0.5808 H   0  0  0  0  0  0  0  0  0  0  0  0
    1.9585    0.5151    2.0304 H   0  0  0  0  0  0  0  0  0  0  0  0
    2.0791   -0.7699   -1.6682 H   0  0  0  0  0  0  0  0  0  0  0  0
    1.0076    0.6619   -1.5990 H   0  0  0  0  0  0  0  0  0  0  0  0
    0.3031   -0.9947   -1.7081 H   0  0  0  0  0  0  0  0  0  0  0  0
    1.5119   -2.0427    1.7818 H   0  0  0  0  0  0  0  0  0  0  0  0
    2.4566   -2.2353    0.2540 H   0  0  0  0  0  0  0  0  0  0  0  0
    0.7177   -2.6586    0.2900 H   0  0  0  0  0  0  0  0  0  0  0  0
   -0.9419   -0.9128    0.3279 H   0  0  0  0  0  0  0  0  0  0  0  0
   -0.6117    1.5530   -0.3222 H   0  0  0  0  0  0  0  0  0  0  0  0
   -0.2313    1.7691    1.4061 H   0  0  0  0  0  0  0  0  0  0  0  0
   -2.5096    2.3179    1.1061 H   0  0  0  0  0  0  0  0  0  0  0  0
   -2.4238   -0.2716    2.3029 H   0  0  0  0  0  0  0  0  0  0  0  0
   -6.2287   -0.1594    2.8657 H   0  0  0  0  0  0  0  0  0  0  0  0
   -6.6556    1.5920    2.9257 H   0  0  0  0  0  0  0  0  0  0  0  0
   -7.7218   -0.2044   -0.7845 H   0  0  0  0  0  0  0  0  0  0  0  0
   -5.9474   -0.7877   -2.4061 H   0  0  0  0  0  0  0  0  0  0  0  0
   -4.1258   -1.1679   -4.0138 H   0  0  0  0  0  0  0  0  0  0  0  0
   -1.8919    0.2244   -1.5522 H   0  0  0  0  0  0  0  0  0  0  0  0
    3.5906    1.3489   -1.2217 H   0  0  0  0  0  0  0  0  0  0  0  0
    5.9351    0.8732   -1.7220 H   0  0  0  0  0  0  0  0  0  0  0  0
  1  2  1  0
  2  3  1  0
  3  4  2  0
  4  5  1  0
  5  6  2  0
  6  7  1  0
  7  8  1  0
  8  9  1  0
  8 10  1  0
  8 11  1  0
 11 12  1  0
 12 13  1  0
 13 14  1  0
 13 15  1  0
 15 16  2  0
 16 17  1  0
 17 18  1  0
 18 19  1  0
 19 20  2  0
 19 21  1  0
 21 22  1  0
 22 23  2  0
 23 24  1  0
 24 25  1  0
 24 26  2  0
  6 27  1  0
 27 28  2  0
 28  3  1  0
 26 15  1  0
 22 16  1  0
  1 29  1  0
  1 30  1  0
  1 31  1  0
  4 32  1  0
  5 33  1  0
  7 34  1  0
  7 35  1  0
  9 36  1  0
  9 37  1  0
  9 38  1  0
 10 39  1  0
 10 40  1  0
 10 41  1  0
 11 42  1  0
 12 43  1  0
 12 44  1  0
 13 45  1  1
 14 46  1  0
 18 47  1  0
 18 48  1  0
 21 49  1  0
 23 50  1  0
 25 51  1  0
 26 52  1  0
 27 53  1  0
 28 54  1  0
M  END
$$$$
