
     RDKit          3D

 55 58  0  0  0  0  0  0  0  0999 V2000
   -0.7666   -1.1202    0.0289 C   0  0  2  0  0  0  0  0  0  0  0  0
   -1.5037   -2.3239   -0.5486 C   0  0  0  0  0  0  0  0  0  0  0  0
   -3.0069   -1.9935   -0.3772 C   0  0  1  0  0  0  0  0  0  0  0  0
   -3.6318   -2.9008    0.4957 O   0  0  0  0  0  0  0  0  0  0  0  0
   -3.0883   -0.5221    0.1757 C   0  0  2  0  0  0  0  0  0  0  0  0
   -3.2547   -0.5193    1.5830 O   0  0  0  0  0  0  0  0  0  0  0  0
   -4.2713    0.2635   -0.3991 C   0  0  0  0  0  0  0  0  0  0  0  0
   -4.8762   -0.1451   -1.3801 O   0  0  0  0  0  0  0  0  0  0  0  0
   -4.7065    1.5700    0.2082 C   0  0  0  0  0  0  0  0  0  0  0  0
   -4.5569    2.5956   -0.7329 O   0  0  0  0  0  0  0  0  0  0  0  0
   -1.6956    0.0766   -0.2325 C   0  0  2  0  0  0  0  0  0  0  0  0
   -1.7343    0.4929   -1.7449 C   0  0  0  0  0  0  0  0  0  0  0  0
   -1.1899    1.2613    0.6333 C   0  0  0  0  0  0  0  0  0  0  0  0
    0.3064    1.6062    0.3700 C   0  0  2  0  0  0  0  0  0  0  0  0
    0.4375    2.2669   -0.8598 O   0  0  0  0  0  0  0  0  0  0  0  0
    1.2558    0.3524    0.4593 C   0  0  1  0  0  0  0  0  0  0  0  0
    1.2251   -0.0337    1.7968 F   0  0  0  0  0  0  0  0  0  0  0  0
    0.7030   -0.8621   -0.3814 C   0  0  1  0  0  0  0  0  0  0  0  0
    1.5586   -2.1269   -0.1437 C   0  0  0  0  0  0  0  0  0  0  0  0
    3.0279   -1.8823   -0.4825 C   0  0  0  0  0  0  0  0  0  0  0  0
    3.5392   -0.6867    0.2815 C   0  0  0  0  0  0  0  0  0  0  0  0
    4.6384   -0.8110    1.0428 C   0  0  0  0  0  0  0  0  0  0  0  0
    5.1314    0.3117    1.8391 C   0  0  0  0  0  0  0  0  0  0  0  0
    6.1747    0.1871    2.5329 O   0  0  0  0  0  0  0  0  0  0  0  0
    4.3964    1.5734    1.8378 C   0  0  0  0  0  0  0  0  0  0  0  0
    3.3070    1.7227    1.0836 C   0  0  0  0  0  0  0  0  0  0  0  0
    2.7800    0.6440    0.1341 C   0  0  2  0  0  0  0  0  0  0  0  0
    3.0368    1.1632   -1.3036 C   0  0  0  0  0  0  0  0  0  0  0  0
   -0.7245   -1.3109    1.1246 H   0  0  0  0  0  0  0  0  0  0  0  0
   -1.2221   -3.2560   -0.0107 H   0  0  0  0  0  0  0  0  0  0  0  0
   -1.2542   -2.4445   -1.6258 H   0  0  0  0  0  0  0  0  0  0  0  0
   -3.4800   -2.0746   -1.3825 H   0  0  0  0  0  0  0  0  0  0  0  0
   -3.7008   -3.7637    0.0094 H   0  0  0  0  0  0  0  0  0  0  0  0
   -2.6798   -1.2083    2.0014 H   0  0  0  0  0  0  0  0  0  0  0  0
   -5.7745    1.4870    0.5082 H   0  0  0  0  0  0  0  0  0  0  0  0
   -4.1092    1.8068    1.1151 H   0  0  0  0  0  0  0  0  0  0  0  0
   -4.8619    3.4271   -0.2851 H   0  0  0  0  0  0  0  0  0  0  0  0
   -2.1992   -0.2906   -2.3775 H   0  0  0  0  0  0  0  0  0  0  0  0
   -2.3273    1.4225   -1.8728 H   0  0  0  0  0  0  0  0  0  0  0  0
   -0.7445    0.6930   -2.1863 H   0  0  0  0  0  0  0  0  0  0  0  0
   -1.8132    2.1617    0.4474 H   0  0  0  0  0  0  0  0  0  0  0  0
   -1.2978    1.0176    1.7124 H   0  0  0  0  0  0  0  0  0  0  0  0
    0.6027    2.3102    1.1809 H   0  0  0  0  0  0  0  0  0  0  0  0
    0.0770    3.1843   -0.7396 H   0  0  0  0  0  0  0  0  0  0  0  0
    0.7516   -0.6485   -1.4644 H   0  0  0  0  0  0  0  0  0  0  0  0
    1.1902   -2.9568   -0.7846 H   0  0  0  0  0  0  0  0  0  0  0  0
    1.4771   -2.4563    0.9159 H   0  0  0  0  0  0  0  0  0  0  0  0
    3.6041   -2.8031   -0.2429 H   0  0  0  0  0  0  0  0  0  0  0  0
    3.1376   -1.7011   -1.5728 H   0  0  0  0  0  0  0  0  0  0  0  0
    5.1651   -1.7562    1.1019 H   0  0  0  0  0  0  0  0  0  0  0  0
    4.7419    2.3960    2.4519 H   0  0  0  0  0  0  0  0  0  0  0  0
    2.8291    2.6939    1.0892 H   0  0  0  0  0  0  0  0  0  0  0  0
    4.1214    1.1007   -1.5416 H   0  0  0  0  0  0  0  0  0  0  0  0
    2.4941    0.5777   -2.0704 H   0  0  0  0  0  0  0  0  0  0  0  0
    2.7621    2.2319   -1.4176 H   0  0  0  0  0  0  0  0  0  0  0  0
  1  2  1  0
  2  3  1  0
  3  4  1  0
  3  5  1  0
  5  6  1  1
  5  7  1  0
  7  8  2  0
  7  9  1  0
  9 10  1  0
  5 11  1  0
 11 12  1  6
 11 13  1  0
 13 14  1  0
 14 15  1  0
 14 16  1  0
 16 17  1  1
 16 18  1  0
 18 19  1  0
 19 20  1  0
 20 21  1  0
 21 22  2  0
 22 23  1  0
 23 24  2  0
 23 25  1  0
 25 26  2  0
 26 27  1  0
 27 28  1  6
 11  1  1  0
 27 16  1  0
 18  1  1  0
 27 21  1  0
  1 29  1  1
  2 30  1  0
  2 31  1  0
  3 32  1  6
  4 33  1  0
  6 34  1  0
  9 35  1  0
  9 36  1  0
 10 37  1  0
 12 38  1  0
 12 39  1  0
 12 40  1  0
 13 41  1  0
 13 42  1  0
 14 43  1  1
 15 44  1  0
 18 45  1  6
 19 46  1  0
 19 47  1  0
 20 48  1  0
 20 49  1  0
 22 50  1  0
 25 51  1  0
 26 52  1  0
 28 53  1  0
 28 54  1  0
 28 55  1  0
M  END
$$$$
