
     RDKit          3D

 45 47  0  0  0  0  0  0  0  0999 V2000
    6.7929   -0.6843   -0.2414 C   0  0  1  0  0  0  0  0  0  0  0  0
    8.0034   -0.1463   -0.7113 O   0  0  0  0  0  0  0  0  0  0  0  0
    6.9686   -1.2041    1.1987 C   0  0  0  0  0  0  0  0  0  0  0  0
    5.8354   -1.9134    1.6223 O   0  0  0  0  0  0  0  0  0  0  0  0
    5.6713    0.3609   -0.3527 C   0  0  0  0  0  0  0  0  0  0  0  0
    4.4062   -0.2482   -0.1041 O   0  0  0  0  0  0  0  0  0  0  0  0
    3.1795    0.4312   -0.1249 C   0  0  0  0  0  0  0  0  0  0  0  0
    2.0142   -0.2945    0.1518 C   0  0  0  0  0  0  0  0  0  0  0  0
    0.7540    0.3293    0.1362 C   0  0  0  0  0  0  0  0  0  0  0  0
    0.6788    1.7064   -0.1364 C   0  0  0  0  0  0  0  0  0  0  0  0
    1.8370    2.4358   -0.4130 C   0  0  0  0  0  0  0  0  0  0  0  0
    3.0829    1.8054   -0.4116 C   0  0  0  0  0  0  0  0  0  0  0  0
   -0.4645   -0.4558    0.4469 C   0  0  0  0  0  0  0  0  0  0  0  0
   -0.3756   -1.4391    1.2305 O   0  0  0  0  0  0  0  0  0  0  0  0
   -1.7735   -0.1433   -0.1657 C   0  0  0  0  0  0  0  0  0  0  0  0
   -3.0415   -0.4053    0.3248 C   0  0  0  0  0  0  0  0  0  0  0  0
   -3.3533   -0.8727    1.6424 N   0  0  0  0  0  0  0  0  0  0  0  0
   -3.9540    0.0152   -0.5792 N   0  0  0  0  0  0  0  0  0  0  0  0
   -3.3247    0.5341   -1.6231 N   0  0  0  0  0  0  0  0  0  0  0  0
   -1.9982    0.4445   -1.3998 C   0  0  0  0  0  0  0  0  0  0  0  0
   -5.3854   -0.0662   -0.4917 C   0  0  0  0  0  0  0  0  0  0  0  0
   -6.1743    1.0221   -0.8977 C   0  0  0  0  0  0  0  0  0  0  0  0
   -7.5693    0.9424   -0.8430 C   0  0  0  0  0  0  0  0  0  0  0  0
   -8.1871   -0.2296   -0.3971 C   0  0  0  0  0  0  0  0  0  0  0  0
   -9.5397   -0.3064   -0.3469 F   0  0  0  0  0  0  0  0  0  0  0  0
   -7.4097   -1.3257   -0.0123 C   0  0  0  0  0  0  0  0  0  0  0  0
   -6.0145   -1.2488   -0.0653 C   0  0  0  0  0  0  0  0  0  0  0  0
    6.5339   -1.5442   -0.8970 H   0  0  0  0  0  0  0  0  0  0  0  0
    8.2355    0.6242   -0.1288 H   0  0  0  0  0  0  0  0  0  0  0  0
    7.1358   -0.3515    1.8911 H   0  0  0  0  0  0  0  0  0  0  0  0
    7.8676   -1.8597    1.2537 H   0  0  0  0  0  0  0  0  0  0  0  0
    5.8592   -2.7908    1.1584 H   0  0  0  0  0  0  0  0  0  0  0  0
    5.8453    1.1819    0.3771 H   0  0  0  0  0  0  0  0  0  0  0  0
    5.6756    0.7850   -1.3805 H   0  0  0  0  0  0  0  0  0  0  0  0
    2.0954   -1.3529    0.3686 H   0  0  0  0  0  0  0  0  0  0  0  0
   -0.2716    2.2242   -0.1171 H   0  0  0  0  0  0  0  0  0  0  0  0
    1.7692    3.4956   -0.6230 H   0  0  0  0  0  0  0  0  0  0  0  0
    3.9628    2.3950   -0.6292 H   0  0  0  0  0  0  0  0  0  0  0  0
   -2.5996   -1.1289    2.3156 H   0  0  0  0  0  0  0  0  0  0  0  0
   -4.3334   -0.8673    1.9981 H   0  0  0  0  0  0  0  0  0  0  0  0
   -1.2439    0.7760   -2.1009 H   0  0  0  0  0  0  0  0  0  0  0  0
   -5.7068    1.9346   -1.2458 H   0  0  0  0  0  0  0  0  0  0  0  0
   -8.1705    1.7890   -1.1486 H   0  0  0  0  0  0  0  0  0  0  0  0
   -7.8873   -2.2385    0.3199 H   0  0  0  0  0  0  0  0  0  0  0  0
   -5.4261   -2.1154    0.2077 H   0  0  0  0  0  0  0  0  0  0  0  0
  1  2  1  0
  1  3  1  0
  3  4  1  0
  1  5  1  0
  5  6  1  0
  6  7  1  0
  7  8  2  0
  8  9  1  0
  9 10  2  0
 10 11  1  0
 11 12  2  0
  9 13  1  0
 13 14  2  0
 13 15  1  0
 15 16  2  0
 16 17  1  0
 16 18  1  0
 18 19  1  0
 19 20  2  0
 18 21  1  0
 21 22  2  0
 22 23  1  0
 23 24  2  0
 24 25  1  0
 24 26  1  0
 26 27  2  0
 12  7  1  0
 20 15  1  0
 27 21  1  0
  1 28  1  6
  2 29  1  0
  3 30  1  0
  3 31  1  0
  4 32  1  0
  5 33  1  0
  5 34  1  0
  8 35  1  0
 10 36  1  0
 11 37  1  0
 12 38  1  0
 17 39  1  0
 17 40  1  0
 20 41  1  0
 22 42  1  0
 23 43  1  0
 26 44  1  0
 27 45  1  0
M  END
$$$$
