
     RDKit          3D

 43 44  0  0  0  0  0  0  0  0999 V2000
   -5.7233   -0.4529   -0.1591 N   0  0  0  0  0  0  0  0  0  0  0  0
   -4.2983   -0.2334    0.0928 C   0  0  2  0  0  0  0  0  0  0  0  0
   -4.0406    1.2673    0.3616 C   0  0  0  0  0  0  0  0  0  0  0  0
   -2.6401    1.5640    0.9264 C   0  0  0  0  0  0  0  0  0  0  0  0
   -1.5774    1.5073   -0.1317 C   0  0  0  0  0  0  0  0  0  0  0  0
   -1.5008    2.4366   -0.9807 O   0  0  0  0  0  0  0  0  0  0  0  0
   -0.6732    0.3945   -0.1907 N   0  0  0  0  0  0  0  0  0  0  0  0
    0.3722    0.2892   -1.2160 C   0  0  1  0  0  0  0  0  0  0  0  0
    1.5868    1.1653   -0.8557 C   0  0  0  0  0  0  0  0  0  0  0  0
    2.1815    0.8150    0.4805 C   0  0  0  0  0  0  0  0  0  0  0  0
    1.7411    1.2601    1.7239 C   0  0  0  0  0  0  0  0  0  0  0  0
    2.4743    0.7004    2.7129 N   0  0  0  0  0  0  0  0  0  0  0  0
    3.3689   -0.0986    2.1059 C   0  0  0  0  0  0  0  0  0  0  0  0
    4.3348   -0.8994    2.7137 C   0  0  0  0  0  0  0  0  0  0  0  0
    5.1643   -1.6744    1.8828 C   0  0  0  0  0  0  0  0  0  0  0  0
    5.0103   -1.6339    0.4793 C   0  0  0  0  0  0  0  0  0  0  0  0
    4.0263   -0.8170   -0.1066 C   0  0  0  0  0  0  0  0  0  0  0  0
    3.2203   -0.0576    0.7428 C   0  0  0  0  0  0  0  0  0  0  0  0
    0.7725   -1.1459   -1.4414 C   0  0  0  0  0  0  0  0  0  0  0  0
    1.0536   -1.5844   -2.7315 O   0  0  0  0  0  0  0  0  0  0  0  0
    0.8996   -1.9407   -0.4708 O   0  0  0  0  0  0  0  0  0  0  0  0
   -3.5118   -0.7267   -1.0910 C   0  0  0  0  0  0  0  0  0  0  0  0
   -3.5863   -0.0580   -2.3096 O   0  0  0  0  0  0  0  0  0  0  0  0
   -2.8087   -1.7677   -0.9899 O   0  0  0  0  0  0  0  0  0  0  0  0
   -6.2555   -0.2021    0.7060 H   0  0  0  0  0  0  0  0  0  0  0  0
   -5.8802   -1.4780   -0.3006 H   0  0  0  0  0  0  0  0  0  0  0  0
   -4.0023   -0.8145    0.9968 H   0  0  0  0  0  0  0  0  0  0  0  0
   -4.2241    1.8678   -0.5569 H   0  0  0  0  0  0  0  0  0  0  0  0
   -4.7756    1.6161    1.1198 H   0  0  0  0  0  0  0  0  0  0  0  0
   -2.6409    2.5879    1.3590 H   0  0  0  0  0  0  0  0  0  0  0  0
   -2.4039    0.8638    1.7565 H   0  0  0  0  0  0  0  0  0  0  0  0
   -0.7413   -0.3351    0.5547 H   0  0  0  0  0  0  0  0  0  0  0  0
   -0.0401    0.6595   -2.1808 H   0  0  0  0  0  0  0  0  0  0  0  0
    1.2743    2.2314   -0.8364 H   0  0  0  0  0  0  0  0  0  0  0  0
    2.3612    1.0748   -1.6476 H   0  0  0  0  0  0  0  0  0  0  0  0
    0.9220    1.9468    1.8942 H   0  0  0  0  0  0  0  0  0  0  0  0
    2.3582    0.8525    3.7395 H   0  0  0  0  0  0  0  0  0  0  0  0
    4.4426   -0.9270    3.7903 H   0  0  0  0  0  0  0  0  0  0  0  0
    5.9241   -2.3076    2.3223 H   0  0  0  0  0  0  0  0  0  0  0  0
    5.6524   -2.2364   -0.1497 H   0  0  0  0  0  0  0  0  0  0  0  0
    3.9011   -0.7862   -1.1809 H   0  0  0  0  0  0  0  0  0  0  0  0
    1.3443   -2.5394   -2.9037 H   0  0  0  0  0  0  0  0  0  0  0  0
   -3.0622   -0.3834   -3.1130 H   0  0  0  0  0  0  0  0  0  0  0  0
  1  2  1  0
  2  3  1  0
  3  4  1  0
  4  5  1  0
  5  6  2  0
  5  7  1  0
  7  8  1  0
  8  9  1  0
  9 10  1  0
 10 11  2  0
 11 12  1  0
 12 13  1  0
 13 14  2  0
 14 15  1  0
 15 16  2  0
 16 17  1  0
 17 18  2  0
  8 19  1  0
 19 20  1  0
 19 21  2  0
  2 22  1  0
 22 23  1  0
 22 24  2  0
 18 10  1  0
 18 13  1  0
  1 25  1  0
  1 26  1  0
  2 27  1  1
  3 28  1  0
  3 29  1  0
  4 30  1  0
  4 31  1  0
  7 32  1  0
  8 33  1  6
  9 34  1  0
  9 35  1  0
 11 36  1  0
 12 37  1  0
 14 38  1  0
 15 39  1  0
 16 40  1  0
 17 41  1  0
 20 42  1  0
 23 43  1  0
M  END
$$$$
