
     RDKit          3D

 60 59  0  0  0  0  0  0  0  0999 V2000
   -6.7300   -0.2457   -0.0428 C   0  0  1  0  0  0  0  0  0  0  0  0
   -7.4855   -1.0969   -0.8693 O   0  0  0  0  0  0  0  0  0  0  0  0
   -7.2207   -0.3388    1.4170 C   0  0  0  0  0  0  0  0  0  0  0  0
   -6.9249   -1.5918    1.9699 O   0  0  0  0  0  0  0  0  0  0  0  0
   -5.2100   -0.5050   -0.2425 C   0  0  2  0  0  0  0  0  0  0  0  0
   -4.8945   -1.8168    0.1563 O   0  0  0  0  0  0  0  0  0  0  0  0
   -4.3166    0.5144    0.5243 C   0  0  2  0  0  0  0  0  0  0  0  0
   -4.6584    1.8421    0.2053 O   0  0  0  0  0  0  0  0  0  0  0  0
   -2.7892    0.2764    0.3463 C   0  0  2  0  0  0  0  0  0  0  0  0
   -2.0707    1.0654    1.2627 O   0  0  0  0  0  0  0  0  0  0  0  0
   -2.2730    0.5118   -1.0908 C   0  0  0  0  0  0  0  0  0  0  0  0
   -0.8548    0.1341   -1.1935 N   0  0  0  0  0  0  0  0  0  0  0  0
   -0.5131   -1.2252   -1.6430 C   0  0  0  0  0  0  0  0  0  0  0  0
   -0.0292   -1.2120   -3.0956 C   0  0  0  0  0  0  0  0  0  0  0  0
   -1.0304   -0.7231   -3.9466 O   0  0  0  0  0  0  0  0  0  0  0  0
    0.1724    1.0877   -0.8378 C   0  0  0  0  0  0  0  0  0  0  0  0
   -0.0827    2.3228   -0.8923 O   0  0  0  0  0  0  0  0  0  0  0  0
    1.5418    0.6270   -0.3945 C   0  0  0  0  0  0  0  0  0  0  0  0
    2.4110    1.7708    0.1561 C   0  0  0  0  0  0  0  0  0  0  0  0
    3.8267    1.3070    0.5345 C   0  0  0  0  0  0  0  0  0  0  0  0
    3.8409    0.3980    1.7746 C   0  0  0  0  0  0  0  0  0  0  0  0
    5.2571    0.1678    2.3295 C   0  0  0  0  0  0  0  0  0  0  0  0
    6.1647   -0.6492    1.3857 C   0  0  0  0  0  0  0  0  0  0  0  0
    7.1542    0.2391    0.6170 C   0  0  0  0  0  0  0  0  0  0  0  0
    8.0144   -0.5888   -0.3333 C   0  0  0  0  0  0  0  0  0  0  0  0
   -6.9420    0.7910   -0.3833 H   0  0  0  0  0  0  0  0  0  0  0  0
   -7.3393   -2.0290   -0.5613 H   0  0  0  0  0  0  0  0  0  0  0  0
   -8.3222   -0.1793    1.4332 H   0  0  0  0  0  0  0  0  0  0  0  0
   -6.7600    0.4669    2.0290 H   0  0  0  0  0  0  0  0  0  0  0  0
   -7.2633   -1.5686    2.9025 H   0  0  0  0  0  0  0  0  0  0  0  0
   -5.0284   -0.3874   -1.3362 H   0  0  0  0  0  0  0  0  0  0  0  0
   -4.2329   -2.1732   -0.4928 H   0  0  0  0  0  0  0  0  0  0  0  0
   -4.5149    0.3756    1.6083 H   0  0  0  0  0  0  0  0  0  0  0  0
   -4.6488    1.9295   -0.7830 H   0  0  0  0  0  0  0  0  0  0  0  0
   -2.5777   -0.7829    0.6062 H   0  0  0  0  0  0  0  0  0  0  0  0
   -2.2200    2.0172    1.0231 H   0  0  0  0  0  0  0  0  0  0  0  0
   -2.8639   -0.0909   -1.8103 H   0  0  0  0  0  0  0  0  0  0  0  0
   -2.4105    1.5723   -1.3909 H   0  0  0  0  0  0  0  0  0  0  0  0
   -1.3978   -1.8953   -1.5665 H   0  0  0  0  0  0  0  0  0  0  0  0
    0.2651   -1.6697   -0.9888 H   0  0  0  0  0  0  0  0  0  0  0  0
    0.8661   -0.5639   -3.1909 H   0  0  0  0  0  0  0  0  0  0  0  0
    0.2671   -2.2411   -3.4007 H   0  0  0  0  0  0  0  0  0  0  0  0
   -1.7044   -1.4464   -4.0372 H   0  0  0  0  0  0  0  0  0  0  0  0
    1.4039   -0.1361    0.3991 H   0  0  0  0  0  0  0  0  0  0  0  0
    2.0620    0.1568   -1.2549 H   0  0  0  0  0  0  0  0  0  0  0  0
    2.5095    2.5554   -0.6261 H   0  0  0  0  0  0  0  0  0  0  0  0
    1.9165    2.2317    1.0395 H   0  0  0  0  0  0  0  0  0  0  0  0
    4.4384    2.2120    0.7422 H   0  0  0  0  0  0  0  0  0  0  0  0
    4.2806    0.7764   -0.3299 H   0  0  0  0  0  0  0  0  0  0  0  0
    3.3807   -0.5843    1.5344 H   0  0  0  0  0  0  0  0  0  0  0  0
    3.2324    0.8684    2.5777 H   0  0  0  0  0  0  0  0  0  0  0  0
    5.7235    1.1416    2.5969 H   0  0  0  0  0  0  0  0  0  0  0  0
    5.1494   -0.3984    3.2807 H   0  0  0  0  0  0  0  0  0  0  0  0
    6.7506   -1.3711    1.9966 H   0  0  0  0  0  0  0  0  0  0  0  0
    5.5544   -1.2461    0.6726 H   0  0  0  0  0  0  0  0  0  0  0  0
    7.8198    0.7630    1.3372 H   0  0  0  0  0  0  0  0  0  0  0  0
    6.6109    1.0061    0.0276 H   0  0  0  0  0  0  0  0  0  0  0  0
    8.7254    0.0768   -0.8667 H   0  0  0  0  0  0  0  0  0  0  0  0
    7.3755   -1.1004   -1.0845 H   0  0  0  0  0  0  0  0  0  0  0  0
    8.5950   -1.3478    0.2331 H   0  0  0  0  0  0  0  0  0  0  0  0
  1  2  1  0
  1  3  1  0
  3  4  1  0
  1  5  1  0
  5  6  1  0
  5  7  1  0
  7  8  1  0
  7  9  1  0
  9 10  1  0
  9 11  1  0
 11 12  1  0
 12 13  1  0
 13 14  1  0
 14 15  1  0
 12 16  1  0
 16 17  2  0
 16 18  1  0
 18 19  1  0
 19 20  1  0
 20 21  1  0
 21 22  1  0
 22 23  1  0
 23 24  1  0
 24 25  1  0
  1 26  1  6
  2 27  1  0
  3 28  1  0
  3 29  1  0
  4 30  1  0
  5 31  1  6
  6 32  1  0
  7 33  1  1
  8 34  1  0
  9 35  1  1
 10 36  1  0
 11 37  1  0
 11 38  1  0
 13 39  1  0
 13 40  1  0
 14 41  1  0
 14 42  1  0
 15 43  1  0
 18 44  1  0
 18 45  1  0
 19 46  1  0
 19 47  1  0
 20 48  1  0
 20 49  1  0
 21 50  1  0
 21 51  1  0
 22 52  1  0
 22 53  1  0
 23 54  1  0
 23 55  1  0
 24 56  1  0
 24 57  1  0
 25 58  1  0
 25 59  1  0
 25 60  1  0
M  END
$$$$
