
     RDKit          3D

 52 55  0  0  0  0  0  0  0  0999 V2000
    1.7210    3.5309   -1.3106 C   0  0  0  0  0  0  0  0  0  0  0  0
    1.6627    2.0538   -1.3329 N   0  0  0  0  0  0  0  0  0  0  0  0
    2.8080    1.3291   -1.5714 C   0  0  0  0  0  0  0  0  0  0  0  0
    3.9013    1.9316   -1.7694 O   0  0  0  0  0  0  0  0  0  0  0  0
    2.7843   -0.0437   -1.5998 N   0  0  0  0  0  0  0  0  0  0  0  0
    4.0391   -0.7959   -1.8227 C   0  0  0  0  0  0  0  0  0  0  0  0
    4.7876   -0.9711   -0.5257 C   0  0  0  0  0  0  0  0  0  0  0  0
    5.8273   -0.0943   -0.1801 C   0  0  0  0  0  0  0  0  0  0  0  0
    6.5000   -0.2383    1.0368 C   0  0  0  0  0  0  0  0  0  0  0  0
    6.1427   -1.2605    1.9323 C   0  0  0  0  0  0  0  0  0  0  0  0
    5.0992   -2.1364    1.5847 C   0  0  0  0  0  0  0  0  0  0  0  0
    4.4274   -1.9912    0.3676 C   0  0  0  0  0  0  0  0  0  0  0  0
    6.8562   -1.4091    3.2199 C   0  0  0  0  0  0  0  0  0  0  0  0
    7.8884   -0.5365    3.5552 O   0  0  0  0  0  0  0  0  0  0  0  0
    6.5371   -2.3256    4.0249 O   0  0  0  0  0  0  0  0  0  0  0  0
    1.6116   -0.7161   -1.3830 C   0  0  0  0  0  0  0  0  0  0  0  0
    1.5903   -1.9794   -1.4069 O   0  0  0  0  0  0  0  0  0  0  0  0
    0.4272   -0.0107   -1.1358 C   0  0  0  0  0  0  0  0  0  0  0  0
    0.4687    1.4018   -1.1132 C   0  0  0  0  0  0  0  0  0  0  0  0
   -0.7357    2.1053   -0.8611 C   0  0  0  0  0  0  0  0  0  0  0  0
   -1.9331    1.4233   -0.6402 C   0  0  0  0  0  0  0  0  0  0  0  0
   -1.9629    0.0295   -0.6642 C   0  0  0  0  0  0  0  0  0  0  0  0
   -0.7897   -0.6866   -0.9106 C   0  0  0  0  0  0  0  0  0  0  0  0
   -3.2009   -0.6679   -0.4349 C   0  0  0  0  0  0  0  0  0  0  0  0
   -4.2393   -1.2490   -0.2423 C   0  0  0  0  0  0  0  0  0  0  0  0
   -5.5045   -1.9503   -0.0072 C   0  0  0  0  0  0  0  0  0  0  0  0
   -6.5889   -0.9575    0.3033 C   0  0  0  0  0  0  0  0  0  0  0  0
   -6.8183   -0.5488    1.6282 C   0  0  0  0  0  0  0  0  0  0  0  0
   -7.8060    0.3998    1.9115 C   0  0  0  0  0  0  0  0  0  0  0  0
   -8.5637    0.9532    0.8756 C   0  0  0  0  0  0  0  0  0  0  0  0
   -8.3326    0.5617   -0.4460 C   0  0  0  0  0  0  0  0  0  0  0  0
   -7.3460   -0.3866   -0.7340 C   0  0  0  0  0  0  0  0  0  0  0  0
    2.7364    3.9338   -1.5026 H   0  0  0  0  0  0  0  0  0  0  0  0
    1.0558    3.9473   -2.0969 H   0  0  0  0  0  0  0  0  0  0  0  0
    1.4086    3.9063   -0.3128 H   0  0  0  0  0  0  0  0  0  0  0  0
    4.6770   -0.2763   -2.5716 H   0  0  0  0  0  0  0  0  0  0  0  0
    3.8395   -1.7916   -2.2758 H   0  0  0  0  0  0  0  0  0  0  0  0
    6.1219    0.7008   -0.8531 H   0  0  0  0  0  0  0  0  0  0  0  0
    7.2991    0.4523    1.2754 H   0  0  0  0  0  0  0  0  0  0  0  0
    4.8003   -2.9340    2.2534 H   0  0  0  0  0  0  0  0  0  0  0  0
    3.6286   -2.6787    0.1226 H   0  0  0  0  0  0  0  0  0  0  0  0
    8.3833   -0.6293    4.4342 H   0  0  0  0  0  0  0  0  0  0  0  0
   -0.7724    3.1847   -0.8302 H   0  0  0  0  0  0  0  0  0  0  0  0
   -2.8391    1.9867   -0.4495 H   0  0  0  0  0  0  0  0  0  0  0  0
   -0.8304   -1.7701   -0.9255 H   0  0  0  0  0  0  0  0  0  0  0  0
   -5.7655   -2.5413   -0.9108 H   0  0  0  0  0  0  0  0  0  0  0  0
   -5.3745   -2.6608    0.8369 H   0  0  0  0  0  0  0  0  0  0  0  0
   -6.2320   -0.9631    2.4391 H   0  0  0  0  0  0  0  0  0  0  0  0
   -7.9815    0.7086    2.9339 H   0  0  0  0  0  0  0  0  0  0  0  0
   -9.3268    1.6882    1.0966 H   0  0  0  0  0  0  0  0  0  0  0  0
   -8.9158    0.9957   -1.2479 H   0  0  0  0  0  0  0  0  0  0  0  0
   -7.1708   -0.6746   -1.7632 H   0  0  0  0  0  0  0  0  0  0  0  0
  1  2  1  0
  2  3  1  0
  3  4  2  0
  3  5  1  0
  5  6  1  0
  6  7  1  0
  7  8  2  0
  8  9  1  0
  9 10  2  0
 10 11  1  0
 11 12  2  0
 10 13  1  0
 13 14  1  0
 13 15  2  0
  5 16  1  0
 16 17  2  0
 16 18  1  0
 18 19  2  0
 19 20  1  0
 20 21  2  0
 21 22  1  0
 22 23  2  0
 22 24  1  0
 24 25  3  0
 25 26  1  0
 26 27  1  0
 27 28  2  0
 28 29  1  0
 29 30  2  0
 30 31  1  0
 31 32  2  0
 19  2  1  0
 32 27  1  0
 12  7  1  0
 23 18  1  0
  1 33  1  0
  1 34  1  0
  1 35  1  0
  6 36  1  0
  6 37  1  0
  8 38  1  0
  9 39  1  0
 11 40  1  0
 12 41  1  0
 14 42  1  0
 20 43  1  0
 21 44  1  0
 23 45  1  0
 26 46  1  0
 26 47  1  0
 28 48  1  0
 29 49  1  0
 30 50  1  0
 31 51  1  0
 32 52  1  0
M  END
$$$$
