
     RDKit          3D

 40 39  0  0  0  0  0  0  0  0999 V2000
    3.9647   -1.5653   -0.1725 N   0  0  0  0  0  0  0  0  0  0  0  0
    3.7152   -0.1229   -0.0987 C   0  0  1  0  0  0  0  0  0  0  0  0
    3.4539    0.3515    1.3512 C   0  0  0  0  0  0  0  0  0  0  0  0
    2.1594   -0.2046    1.9651 C   0  0  0  0  0  0  0  0  0  0  0  0
    0.9398    0.3142    1.2599 C   0  0  0  0  0  0  0  0  0  0  0  0
    0.5353    1.4834    1.5044 O   0  0  0  0  0  0  0  0  0  0  0  0
    0.2632   -0.4987    0.2891 N   0  0  0  0  0  0  0  0  0  0  0  0
   -0.8738    0.0040   -0.4923 C   0  0  1  0  0  0  0  0  0  0  0  0
   -1.2156   -0.9416   -1.6636 C   0  0  0  0  0  0  0  0  0  0  0  0
   -1.9784   -2.4911   -1.1715 S   0  0  0  0  0  6  0  0  0  0  0  0
   -1.9315   -3.5480   -2.4779 O   0  0  0  0  0  0  0  0  0  0  0  0
   -1.2450   -3.1045   -0.0121 O   0  0  0  0  0  0  0  0  0  0  0  0
   -3.4107   -2.2465   -0.7863 O   0  0  0  0  0  0  0  0  0  0  0  0
   -2.0740    0.2575    0.3862 C   0  0  0  0  0  0  0  0  0  0  0  0
   -2.2132   -0.3818    1.4655 O   0  0  0  0  0  0  0  0  0  0  0  0
   -3.0804    1.1884   -0.0319 N   0  0  0  0  0  0  0  0  0  0  0  0
   -4.2786    1.4256    0.7708 C   0  0  0  0  0  0  0  0  0  0  0  0
   -5.1645    2.4330    0.1096 C   0  0  0  0  0  0  0  0  0  0  0  0
   -4.9896    3.7879    0.3725 O   0  0  0  0  0  0  0  0  0  0  0  0
   -6.0385    2.0587   -0.7173 O   0  0  0  0  0  0  0  0  0  0  0  0
    4.8980    0.6073   -0.6651 C   0  0  0  0  0  0  0  0  0  0  0  0
    6.1755    0.3530   -0.1737 O   0  0  0  0  0  0  0  0  0  0  0  0
    4.7347    1.4676   -1.5715 O   0  0  0  0  0  0  0  0  0  0  0  0
    3.0646   -2.0788   -0.0389 H   0  0  0  0  0  0  0  0  0  0  0  0
    4.6155   -1.8554    0.5937 H   0  0  0  0  0  0  0  0  0  0  0  0
    2.8299    0.1186   -0.7286 H   0  0  0  0  0  0  0  0  0  0  0  0
    3.4047    1.4634    1.3716 H   0  0  0  0  0  0  0  0  0  0  0  0
    4.3079    0.0541    1.9988 H   0  0  0  0  0  0  0  0  0  0  0  0
    2.1101    0.1100    3.0300 H   0  0  0  0  0  0  0  0  0  0  0  0
    2.1685   -1.3146    1.9627 H   0  0  0  0  0  0  0  0  0  0  0  0
    0.6668   -1.4365    0.0694 H   0  0  0  0  0  0  0  0  0  0  0  0
   -0.5692    0.9743   -0.9436 H   0  0  0  0  0  0  0  0  0  0  0  0
   -0.2890   -1.1677   -2.2335 H   0  0  0  0  0  0  0  0  0  0  0  0
   -1.9098   -0.4234   -2.3594 H   0  0  0  0  0  0  0  0  0  0  0  0
   -2.3899   -4.3670   -2.1610 H   0  0  0  0  0  0  0  0  0  0  0  0
   -2.9493    1.6938   -0.9382 H   0  0  0  0  0  0  0  0  0  0  0  0
   -3.9841    1.8015    1.7740 H   0  0  0  0  0  0  0  0  0  0  0  0
   -4.8338    0.4714    0.9007 H   0  0  0  0  0  0  0  0  0  0  0  0
   -5.5696    4.4839   -0.0805 H   0  0  0  0  0  0  0  0  0  0  0  0
    6.9810    0.8453   -0.5410 H   0  0  0  0  0  0  0  0  0  0  0  0
  1  2  1  0
  2  3  1  0
  3  4  1  0
  4  5  1  0
  5  6  2  0
  5  7  1  0
  7  8  1  0
  8  9  1  0
  9 10  1  0
 10 11  1  0
 10 12  2  0
 10 13  2  0
  8 14  1  0
 14 15  2  0
 14 16  1  0
 16 17  1  0
 17 18  1  0
 18 19  1  0
 18 20  2  0
  2 21  1  0
 21 22  1  0
 21 23  2  0
  1 24  1  0
  1 25  1  0
  2 26  1  6
  3 27  1  0
  3 28  1  0
  4 29  1  0
  4 30  1  0
  7 31  1  0
  8 32  1  6
  9 33  1  0
  9 34  1  0
 11 35  1  0
 16 36  1  0
 17 37  1  0
 17 38  1  0
 19 39  1  0
 22 40  1  0
M  END
$$$$
