
     RDKit          3D

 19 18  0  0  0  0  0  0  0  0999 V2000
   -2.6064   -0.5137   -0.1070 C   0  0  0  0  0  0  0  0  0  0  0  0
   -1.1939   -0.0500   -0.4518 C   0  0  0  0  0  0  0  0  0  0  0  0
   -0.3461    0.1268    0.8197 C   0  0  0  0  0  0  0  0  0  0  0  0
    1.1150    0.5427    0.5524 C   0  0  2  0  0  0  0  0  0  0  0  0
    1.1848    1.8583   -0.0926 N   0  0  0  0  0  0  0  0  0  0  0  0
    1.8702   -0.5112   -0.2200 C   0  0  0  0  0  0  0  0  0  0  0  0
    2.4607   -1.5687    0.4648 O   0  0  0  0  0  0  0  0  0  0  0  0
    1.9366   -0.4678   -1.4784 O   0  0  0  0  0  0  0  0  0  0  0  0
   -2.5746   -1.4937    0.4151 H   0  0  0  0  0  0  0  0  0  0  0  0
   -3.1098    0.2328    0.5438 H   0  0  0  0  0  0  0  0  0  0  0  0
   -3.1985   -0.6280   -1.0395 H   0  0  0  0  0  0  0  0  0  0  0  0
   -1.2674    0.9132   -0.9995 H   0  0  0  0  0  0  0  0  0  0  0  0
   -0.7298   -0.8054   -1.1207 H   0  0  0  0  0  0  0  0  0  0  0  0
   -0.3437   -0.8273    1.3923 H   0  0  0  0  0  0  0  0  0  0  0  0
   -0.8199    0.8986    1.4657 H   0  0  0  0  0  0  0  0  0  0  0  0
    1.6058    0.6321    1.5473 H   0  0  0  0  0  0  0  0  0  0  0  0
    0.8752    1.7907   -1.0888 H   0  0  0  0  0  0  0  0  0  0  0  0
    2.1841    2.1680   -0.1045 H   0  0  0  0  0  0  0  0  0  0  0  0
    2.9580   -2.2973   -0.0333 H   0  0  0  0  0  0  0  0  0  0  0  0
  1  2  1  0
  2  3  1  0
  3  4  1  0
  4  5  1  0
  4  6  1  0
  6  7  1  0
  6  8  2  0
  1  9  1  0
  1 10  1  0
  1 11  1  0
  2 12  1  0
  2 13  1  0
  3 14  1  0
  3 15  1  0
  4 16  1  1
  5 17  1  0
  5 18  1  0
  7 19  1  0
M  END
$$$$
