
     RDKit          3D

 43 45  0  0  0  0  0  0  0  0999 V2000
    7.3804   -0.8157   -0.2695 O   0  0  0  0  0  0  0  0  0  0  0  0
    5.7383   -0.7898    0.0857 S   0  0  0  0  0  6  0  0  0  0  0  0
    5.0344   -1.7777   -0.8029 O   0  0  0  0  0  0  0  0  0  0  0  0
    5.5369   -1.1742    1.5248 O   0  0  0  0  0  0  0  0  0  0  0  0
    5.1401    0.7645   -0.1854 O   0  0  0  0  0  0  0  0  0  0  0  0
    3.7909    0.6584   -0.0994 N   0  0  0  0  0  0  0  0  0  0  0  0
    2.9996    1.1506    1.0230 C   0  0  1  0  0  0  0  0  0  0  0  0
    2.0229    2.1004    0.3305 C   0  0  0  0  0  0  0  0  0  0  0  0
    1.6490    1.2966   -0.8338 N   0  0  0  0  0  0  0  0  0  0  0  0
    0.6527    0.2473   -0.5555 C   0  0  1  0  0  0  0  0  0  0  0  0
    0.7920   -0.2896    0.9160 C   0  0  0  0  0  0  0  0  0  0  0  0
    2.1791   -0.0383    1.6078 C   0  0  0  0  0  0  0  0  0  0  0  0
   -0.7434    0.7556   -0.8070 C   0  0  0  0  0  0  0  0  0  0  0  0
   -0.9644    1.9959   -0.8798 O   0  0  0  0  0  0  0  0  0  0  0  0
   -1.8271   -0.1780   -0.9212 N   0  0  0  0  0  0  0  0  0  0  0  0
   -3.2295    0.2513   -1.0014 C   0  0  0  0  0  0  0  0  0  0  0  0
   -3.7131    0.7907    0.3565 C   0  0  0  0  0  0  0  0  0  0  0  0
   -3.8744   -0.3449    1.3766 C   0  0  0  0  0  0  0  0  0  0  0  0
   -4.8022   -1.3733    0.8862 N   0  0  0  0  0  0  0  0  0  0  0  0
   -4.3182   -1.9669   -0.3677 C   0  0  0  0  0  0  0  0  0  0  0  0
   -4.1369   -0.9040   -1.4654 C   0  0  0  0  0  0  0  0  0  0  0  0
    2.9263    0.7943   -1.2081 C   0  0  0  0  0  0  0  0  0  0  0  0
    3.2446    0.4970   -2.3896 O   0  0  0  0  0  0  0  0  0  0  0  0
    7.7629   -0.0612    0.2458 H   0  0  0  0  0  0  0  0  0  0  0  0
    3.6333    1.6522    1.7861 H   0  0  0  0  0  0  0  0  0  0  0  0
    1.1486    2.3741    0.9631 H   0  0  0  0  0  0  0  0  0  0  0  0
    2.5364    3.0377    0.0131 H   0  0  0  0  0  0  0  0  0  0  0  0
    0.8169   -0.6058   -1.2535 H   0  0  0  0  0  0  0  0  0  0  0  0
    0.0185    0.1948    1.5541 H   0  0  0  0  0  0  0  0  0  0  0  0
    0.5648   -1.3777    0.9334 H   0  0  0  0  0  0  0  0  0  0  0  0
    2.7847   -0.9687    1.5512 H   0  0  0  0  0  0  0  0  0  0  0  0
    2.0031    0.1534    2.6886 H   0  0  0  0  0  0  0  0  0  0  0  0
   -1.5906   -1.1945   -0.9741 H   0  0  0  0  0  0  0  0  0  0  0  0
   -3.3079    1.0640   -1.7572 H   0  0  0  0  0  0  0  0  0  0  0  0
   -4.6924    1.3000    0.2204 H   0  0  0  0  0  0  0  0  0  0  0  0
   -3.0005    1.5443    0.7536 H   0  0  0  0  0  0  0  0  0  0  0  0
   -4.2689    0.0756    2.3265 H   0  0  0  0  0  0  0  0  0  0  0  0
   -2.8852   -0.8015    1.6024 H   0  0  0  0  0  0  0  0  0  0  0  0
   -5.7386   -0.9354    0.7162 H   0  0  0  0  0  0  0  0  0  0  0  0
   -3.3640   -2.5063   -0.1841 H   0  0  0  0  0  0  0  0  0  0  0  0
   -5.0543   -2.7223   -0.7177 H   0  0  0  0  0  0  0  0  0  0  0  0
   -5.1348   -0.4953   -1.7382 H   0  0  0  0  0  0  0  0  0  0  0  0
   -3.7101   -1.3778   -2.3759 H   0  0  0  0  0  0  0  0  0  0  0  0
  1  2  1  0
  2  3  2  0
  2  4  2  0
  2  5  1  0
  5  6  1  0
  6  7  1  0
  7  8  1  0
  8  9  1  0
  9 10  1  0
 10 11  1  0
 11 12  1  0
 10 13  1  0
 13 14  2  0
 13 15  1  0
 15 16  1  0
 16 17  1  0
 17 18  1  0
 18 19  1  0
 19 20  1  0
 20 21  1  0
  9 22  1  0
 22 23  2  0
 22  6  1  0
 12  7  1  0
 21 16  1  0
  1 24  1  0
  7 25  1  1
  8 26  1  0
  8 27  1  0
 10 28  1  6
 11 29  1  0
 11 30  1  0
 12 31  1  0
 12 32  1  0
 15 33  1  0
 16 34  1  0
 17 35  1  0
 17 36  1  0
 18 37  1  0
 18 38  1  0
 19 39  1  0
 20 40  1  0
 20 41  1  0
 21 42  1  0
 21 43  1  0
M  END
$$$$
