
     RDKit          3D

 40 42  0  0  0  0  0  0  0  0999 V2000
   -3.2500    2.6108   -0.0493 O   0  0  0  0  0  0  0  0  0  0  0  0
   -3.1306    1.7131   -1.1211 C   0  0  0  0  0  0  0  0  0  0  0  0
   -2.6816    0.3264   -0.6349 C   0  0  1  0  0  0  0  0  0  0  0  0
   -1.4611    0.4669    0.0765 O   0  0  0  0  0  0  0  0  0  0  0  0
   -1.0367   -0.7892    0.5712 C   0  0  1  0  0  0  0  0  0  0  0  0
    0.3131   -0.6862    1.0222 O   0  0  0  0  0  0  0  0  0  0  0  0
    1.4444   -0.3675    0.2479 C   0  0  0  0  0  0  0  0  0  0  0  0
    1.4338   -0.2324   -1.1647 C   0  0  0  0  0  0  0  0  0  0  0  0
    0.2699   -0.4301   -1.9034 O   0  0  0  0  0  0  0  0  0  0  0  0
    2.6178    0.0988   -1.8427 C   0  0  0  0  0  0  0  0  0  0  0  0
    3.8096    0.2886   -1.1416 C   0  0  0  0  0  0  0  0  0  0  0  0
    4.9252    0.6012   -1.7970 O   0  0  0  0  0  0  0  0  0  0  0  0
    6.0884    0.7918   -1.1794 C   0  0  0  0  0  0  0  0  0  0  0  0
    7.1105    1.0859   -1.8528 O   0  0  0  0  0  0  0  0  0  0  0  0
    6.1800    0.6669    0.2109 C   0  0  0  0  0  0  0  0  0  0  0  0
    5.0346    0.3404    0.9362 C   0  0  0  0  0  0  0  0  0  0  0  0
    3.8259    0.1463    0.2597 C   0  0  0  0  0  0  0  0  0  0  0  0
    2.6481   -0.1812    0.9419 C   0  0  0  0  0  0  0  0  0  0  0  0
   -1.9247   -1.2187    1.7642 C   0  0  2  0  0  0  0  0  0  0  0  0
   -2.0151   -2.6202    1.8063 O   0  0  0  0  0  0  0  0  0  0  0  0
   -3.3500   -0.6139    1.6680 C   0  0  1  0  0  0  0  0  0  0  0  0
   -3.4517    0.5831    2.4028 O   0  0  0  0  0  0  0  0  0  0  0  0
   -3.7905   -0.3910    0.2021 C   0  0  2  0  0  0  0  0  0  0  0  0
   -4.0737   -1.6339   -0.3922 O   0  0  0  0  0  0  0  0  0  0  0  0
   -4.1886    2.5606    0.2686 H   0  0  0  0  0  0  0  0  0  0  0  0
   -4.0856    1.6358   -1.6915 H   0  0  0  0  0  0  0  0  0  0  0  0
   -2.3650    2.1099   -1.8217 H   0  0  0  0  0  0  0  0  0  0  0  0
   -2.4887   -0.2624   -1.5624 H   0  0  0  0  0  0  0  0  0  0  0  0
   -1.0851   -1.5769   -0.2176 H   0  0  0  0  0  0  0  0  0  0  0  0
    0.2529   -0.3346   -2.9120 H   0  0  0  0  0  0  0  0  0  0  0  0
    2.6119    0.2048   -2.9206 H   0  0  0  0  0  0  0  0  0  0  0  0
    7.1231    0.8204    0.7209 H   0  0  0  0  0  0  0  0  0  0  0  0
    5.0924    0.2411    2.0135 H   0  0  0  0  0  0  0  0  0  0  0  0
    2.6585   -0.2889    2.0204 H   0  0  0  0  0  0  0  0  0  0  0  0
   -1.4680   -0.8598    2.7175 H   0  0  0  0  0  0  0  0  0  0  0  0
   -1.1329   -2.9551    2.1157 H   0  0  0  0  0  0  0  0  0  0  0  0
   -4.0649   -1.3247    2.1388 H   0  0  0  0  0  0  0  0  0  0  0  0
   -2.7134    1.1838    2.1259 H   0  0  0  0  0  0  0  0  0  0  0  0
   -4.7251    0.2185    0.2078 H   0  0  0  0  0  0  0  0  0  0  0  0
   -4.9573   -1.9284   -0.0473 H   0  0  0  0  0  0  0  0  0  0  0  0
  1  2  1  0
  2  3  1  0
  3  4  1  0
  4  5  1  0
  5  6  1  0
  6  7  1  0
  7  8  2  0
  8  9  1  0
  8 10  1  0
 10 11  2  0
 11 12  1  0
 12 13  1  0
 13 14  2  0
 13 15  1  0
 15 16  2  0
 16 17  1  0
 17 18  2  0
  5 19  1  0
 19 20  1  0
 19 21  1  0
 21 22  1  0
 21 23  1  0
 23 24  1  0
 23  3  1  0
 18  7  1  0
 17 11  1  0
  1 25  1  0
  2 26  1  0
  2 27  1  0
  3 28  1  6
  5 29  1  6
  9 30  1  0
 10 31  1  0
 15 32  1  0
 16 33  1  0
 18 34  1  0
 19 35  1  1
 20 36  1  0
 21 37  1  1
 22 38  1  0
 23 39  1  1
 24 40  1  0
M  END
$$$$
