
     RDKit          3D

 29 32  0  0  0  0  0  0  0  0999 V2000
   -0.4853    1.2047    0.1188 C   0  0  0  0  0  0  0  0  0  0  0  0
   -1.9687    0.9449    0.1959 C   0  0  0  0  0  0  0  0  0  0  0  0
   -2.2638   -0.0614    1.1021 C   0  0  0  0  0  0  0  0  0  0  0  0
   -3.5606   -0.5372    1.2821 C   0  0  0  0  0  0  0  0  0  0  0  0
   -4.5906    0.0580    0.5354 C   0  0  0  0  0  0  0  0  0  0  0  0
   -4.3030    1.0926   -0.3787 C   0  0  0  0  0  0  0  0  0  0  0  0
   -2.9816    1.5379   -0.5590 C   0  0  0  0  0  0  0  0  0  0  0  0
   -1.0196   -0.4965    1.6865 C   0  0  0  0  0  0  0  0  0  0  0  0
   -0.6337   -1.7457    1.9959 N   0  0  0  0  0  0  0  0  0  0  0  0
    0.6625   -1.8153    1.7169 N   0  0  0  0  0  0  0  0  0  0  0  0
    1.0738   -0.6593    1.1393 C   0  0  0  0  0  0  0  0  0  0  0  0
    0.0001    0.2125    1.1369 C   0  0  0  0  0  0  0  0  0  0  0  0
    2.3857   -0.4535    0.4797 C   0  0  0  0  0  0  0  0  0  0  0  0
    3.1757   -1.5470    0.0866 C   0  0  0  0  0  0  0  0  0  0  0  0
    4.4081   -1.3232   -0.5324 C   0  0  0  0  0  0  0  0  0  0  0  0
    4.8423   -0.0544   -0.7512 N   0  0  0  0  0  0  0  0  0  0  0  0
    4.1031    1.0237   -0.3810 C   0  0  0  0  0  0  0  0  0  0  0  0
    2.8647    0.8455    0.2400 C   0  0  0  0  0  0  0  0  0  0  0  0
   -0.2431    2.2432    0.4268 H   0  0  0  0  0  0  0  0  0  0  0  0
   -0.0965    0.9664   -0.8941 H   0  0  0  0  0  0  0  0  0  0  0  0
   -3.7693   -1.3392    1.9782 H   0  0  0  0  0  0  0  0  0  0  0  0
   -5.6101   -0.2838    0.6581 H   0  0  0  0  0  0  0  0  0  0  0  0
   -5.1035    1.5396   -0.9537 H   0  0  0  0  0  0  0  0  0  0  0  0
   -2.7540    2.3164   -1.2755 H   0  0  0  0  0  0  0  0  0  0  0  0
    1.2306   -2.6799    1.8524 H   0  0  0  0  0  0  0  0  0  0  0  0
    2.8429   -2.5651    0.2357 H   0  0  0  0  0  0  0  0  0  0  0  0
    5.0190   -2.1606   -0.8421 H   0  0  0  0  0  0  0  0  0  0  0  0
    4.4783    2.0214   -0.5657 H   0  0  0  0  0  0  0  0  0  0  0  0
    2.2965    1.7154    0.5425 H   0  0  0  0  0  0  0  0  0  0  0  0
  1  2  1  0
  2  3  2  0
  3  4  1  0
  4  5  2  0
  5  6  1  0
  6  7  2  0
  3  8  1  0
  8  9  2  0
  9 10  1  0
 10 11  1  0
 11 12  2  0
 11 13  1  0
 13 14  2  0
 14 15  1  0
 15 16  2  0
 16 17  1  0
 17 18  2  0
 12  1  1  0
 18 13  1  0
  7  2  1  0
 12  8  1  0
  1 19  1  0
  1 20  1  0
  4 21  1  0
  5 22  1  0
  6 23  1  0
  7 24  1  0
 10 25  1  0
 14 26  1  0
 15 27  1  0
 17 28  1  0
 18 29  1  0
M  END
$$$$
