
     RDKit          3D

 34 34  0  0  0  0  0  0  0  0999 V2000
   -0.7816   -1.9370   -2.4711 O   0  0  0  0  0  0  0  0  0  0  0  0
   -0.7749   -2.3018   -1.1111 C   0  0  1  0  0  0  0  0  0  0  0  0
    0.5486   -1.8710   -0.4183 C   0  0  2  0  0  0  0  0  0  0  0  0
    0.9775   -2.8730    0.4689 O   0  0  0  0  0  0  0  0  0  0  0  0
    0.3589   -0.5522    0.3732 C   0  0  1  0  0  0  0  0  0  0  0  0
    1.6873    0.1874    0.5687 C   0  0  0  0  0  0  0  0  0  0  0  0
    2.1716    0.6387   -0.6752 O   0  0  0  0  0  0  0  0  0  0  0  0
    3.6290    1.4806   -0.4074 P   0  0  0  0  0  5  0  0  0  0  0  0
    3.3518    2.8217    0.5886 O   0  0  0  0  0  0  0  0  0  0  0  0
    4.7634    0.4577    0.3227 O   0  0  0  0  0  0  0  0  0  0  0  0
    4.1735    1.9541   -1.7358 O   0  0  0  0  0  0  0  0  0  0  0  0
   -0.5461    0.2955   -0.3066 O   0  0  0  0  0  0  0  0  0  0  0  0
   -1.8855   -0.1796   -0.2048 C   0  0  2  0  0  0  0  0  0  0  0  0
   -2.4583    0.2119    1.0288 O   0  0  0  0  0  0  0  0  0  0  0  0
   -2.7212    1.8996    1.0291 P   0  0  0  0  0  5  0  0  0  0  0  0
   -3.7485    2.3289   -0.2473 O   0  0  0  0  0  0  0  0  0  0  0  0
   -1.2476    2.7211    0.8796 O   0  0  0  0  0  0  0  0  0  0  0  0
   -3.3714    2.2888    2.3373 O   0  0  0  0  0  0  0  0  0  0  0  0
   -2.0115   -1.7244   -0.3874 C   0  0  2  0  0  0  0  0  0  0  0  0
   -2.1541   -2.3495    0.8652 O   0  0  0  0  0  0  0  0  0  0  0  0
   -0.6316   -0.9583   -2.5313 H   0  0  0  0  0  0  0  0  0  0  0  0
   -0.8494   -3.4114   -1.0857 H   0  0  0  0  0  0  0  0  0  0  0  0
    1.3261   -1.7236   -1.2053 H   0  0  0  0  0  0  0  0  0  0  0  0
    1.3791   -3.5943   -0.0830 H   0  0  0  0  0  0  0  0  0  0  0  0
   -0.0253   -0.7840    1.3958 H   0  0  0  0  0  0  0  0  0  0  0  0
    2.4126   -0.5060    1.0525 H   0  0  0  0  0  0  0  0  0  0  0  0
    1.4971    1.0480    1.2502 H   0  0  0  0  0  0  0  0  0  0  0  0
    2.6197    3.3192    0.1441 H   0  0  0  0  0  0  0  0  0  0  0  0
    5.5378    1.0416    0.5234 H   0  0  0  0  0  0  0  0  0  0  0  0
   -2.4542    0.2647   -1.0539 H   0  0  0  0  0  0  0  0  0  0  0  0
   -3.8345    3.3135   -0.1845 H   0  0  0  0  0  0  0  0  0  0  0  0
   -1.4905    3.6811    0.8732 H   0  0  0  0  0  0  0  0  0  0  0  0
   -2.9205   -1.9344   -1.0005 H   0  0  0  0  0  0  0  0  0  0  0  0
   -2.5275   -3.2541    0.6971 H   0  0  0  0  0  0  0  0  0  0  0  0
  1  2  1  0
  2  3  1  0
  3  4  1  0
  3  5  1  0
  5  6  1  0
  6  7  1  0
  7  8  1  0
  8  9  1  0
  8 10  1  0
  8 11  2  0
  5 12  1  0
 12 13  1  0
 13 14  1  0
 14 15  1  0
 15 16  1  0
 15 17  1  0
 15 18  2  0
 13 19  1  0
 19 20  1  0
 19  2  1  0
  1 21  1  0
  2 22  1  6
  3 23  1  6
  4 24  1  0
  5 25  1  1
  6 26  1  0
  6 27  1  0
  9 28  1  0
 10 29  1  0
 13 30  1  6
 16 31  1  0
 17 32  1  0
 19 33  1  6
 20 34  1  0
M  END
$$$$
