
     RDKit          3D

 57 62  0  0  0  0  0  0  0  0999 V2000
    6.6045   -3.2146    2.3983 O   0  0  0  0  0  0  0  0  0  0  0  0
    6.8956   -2.6691    1.1413 C   0  0  0  0  0  0  0  0  0  0  0  0
    7.5697   -1.3386    1.2979 C   0  0  0  0  0  0  0  0  0  0  0  0
    8.8261   -1.1975    1.7579 N   0  0  0  0  0  0  0  0  0  0  0  0
    9.1110    0.0921    1.6685 N   0  0  0  0  0  0  0  0  0  0  0  0
    8.1077    0.7947    1.1665 N   0  0  0  0  0  0  0  0  0  0  0  0
    7.1124   -0.0806    0.9308 C   0  0  0  0  0  0  0  0  0  0  0  0
    5.8098    0.3032    0.3496 C   0  0  0  0  0  0  0  0  0  0  0  0
    5.7647    1.3013   -0.6490 C   0  0  0  0  0  0  0  0  0  0  0  0
    4.5207    1.6545   -1.1646 C   0  0  0  0  0  0  0  0  0  0  0  0
    3.3609    1.0743   -0.7327 C   0  0  0  0  0  0  0  0  0  0  0  0
    3.3587    0.1208    0.2854 C   0  0  0  0  0  0  0  0  0  0  0  0
    4.5992   -0.2651    0.8262 C   0  0  0  0  0  0  0  0  0  0  0  0
    2.3585    1.7068   -1.4537 C   0  0  0  0  0  0  0  0  0  0  0  0
    2.9299    2.6311   -2.2639 N   0  0  0  0  0  0  0  0  0  0  0  0
    4.2448    2.5897   -2.0861 N   0  0  0  0  0  0  0  0  0  0  0  0
    0.9041    1.4749   -1.4015 C   0  0  0  0  0  0  0  0  0  0  0  0
    0.2701    0.2895   -1.0268 C   0  0  0  0  0  0  0  0  0  0  0  0
   -1.0753    0.5399   -1.1861 C   0  0  0  0  0  0  0  0  0  0  0  0
   -1.2053    1.8228   -1.6445 C   0  0  0  0  0  0  0  0  0  0  0  0
   -0.0033    2.4037   -1.7879 N   0  0  0  0  0  0  0  0  0  0  0  0
   -2.4522    2.3797   -1.9187 C   0  0  0  0  0  0  0  0  0  0  0  0
   -3.5905    1.5804   -1.7095 C   0  0  0  0  0  0  0  0  0  0  0  0
   -3.4617    0.2478   -1.2387 C   0  0  0  0  0  0  0  0  0  0  0  0
   -4.6819   -0.6022   -1.0053 C   0  0  0  0  0  0  0  0  0  0  0  0
   -4.8362   -0.8876    0.4377 N   0  0  0  0  0  0  0  0  0  0  0  0
   -5.5900   -2.1349    0.6811 C   0  0  0  0  0  0  0  0  0  0  0  0
   -7.0774   -2.0039    0.2991 C   0  0  0  0  0  0  0  0  0  0  0  0
   -7.6601   -0.6184    0.6296 C   0  0  0  0  0  0  0  0  0  0  0  0
   -6.8218    0.1123    1.6774 C   0  0  0  0  0  0  0  0  0  0  0  0
   -5.3619    0.2742    1.2060 C   0  0  0  0  0  0  0  0  0  0  0  0
   -2.1793   -0.2819   -0.9741 C   0  0  0  0  0  0  0  0  0  0  0  0
    5.8117   -2.7284    2.7442 H   0  0  0  0  0  0  0  0  0  0  0  0
    7.5900   -3.3546    0.6121 H   0  0  0  0  0  0  0  0  0  0  0  0
    5.9779   -2.5965    0.5189 H   0  0  0  0  0  0  0  0  0  0  0  0
   10.0261    0.5062    1.9518 H   0  0  0  0  0  0  0  0  0  0  0  0
    6.6659    1.7802   -1.0120 H   0  0  0  0  0  0  0  0  0  0  0  0
    2.4433   -0.2893    0.6842 H   0  0  0  0  0  0  0  0  0  0  0  0
    4.6099   -0.9761    1.6400 H   0  0  0  0  0  0  0  0  0  0  0  0
    4.9295    3.2017   -2.5829 H   0  0  0  0  0  0  0  0  0  0  0  0
    0.7202   -0.6467   -0.7298 H   0  0  0  0  0  0  0  0  0  0  0  0
    0.1894    3.3719   -2.1297 H   0  0  0  0  0  0  0  0  0  0  0  0
   -2.5438    3.3952   -2.2819 H   0  0  0  0  0  0  0  0  0  0  0  0
   -4.5692    1.9967   -1.9122 H   0  0  0  0  0  0  0  0  0  0  0  0
   -4.5424   -1.5439   -1.5815 H   0  0  0  0  0  0  0  0  0  0  0  0
   -5.5933   -0.1125   -1.4132 H   0  0  0  0  0  0  0  0  0  0  0  0
   -5.5114   -2.3961    1.7596 H   0  0  0  0  0  0  0  0  0  0  0  0
   -5.1311   -2.9833    0.1277 H   0  0  0  0  0  0  0  0  0  0  0  0
   -7.1985   -2.1987   -0.7888 H   0  0  0  0  0  0  0  0  0  0  0  0
   -7.6514   -2.7872    0.8405 H   0  0  0  0  0  0  0  0  0  0  0  0
   -8.7011   -0.7310    1.0027 H   0  0  0  0  0  0  0  0  0  0  0  0
   -7.7057    0.0008   -0.2925 H   0  0  0  0  0  0  0  0  0  0  0  0
   -7.2627    1.1129    1.8770 H   0  0  0  0  0  0  0  0  0  0  0  0
   -6.8464   -0.4611    2.6302 H   0  0  0  0  0  0  0  0  0  0  0  0
   -4.7204    0.4191    2.1010 H   0  0  0  0  0  0  0  0  0  0  0  0
   -5.2851    1.2171    0.6202 H   0  0  0  0  0  0  0  0  0  0  0  0
   -2.0529   -1.2956   -0.6140 H   0  0  0  0  0  0  0  0  0  0  0  0
  1  2  1  0
  2  3  1  0
  3  4  2  0
  4  5  1  0
  5  6  1  0
  6  7  2  0
  7  8  1  0
  8  9  2  0
  9 10  1  0
 10 11  2  0
 11 12  1  0
 12 13  2  0
 11 14  1  0
 14 15  2  0
 15 16  1  0
 14 17  1  0
 17 18  2  0
 18 19  1  0
 19 20  2  0
 20 21  1  0
 20 22  1  0
 22 23  2  0
 23 24  1  0
 24 25  1  0
 25 26  1  0
 26 27  1  0
 27 28  1  0
 28 29  1  0
 29 30  1  0
 30 31  1  0
 24 32  2  0
  7  3  1  0
 13  8  1  0
 21 17  1  0
 31 26  1  0
 16 10  1  0
 32 19  1  0
  1 33  1  0
  2 34  1  0
  2 35  1  0
  5 36  1  0
  9 37  1  0
 12 38  1  0
 13 39  1  0
 16 40  1  0
 18 41  1  0
 21 42  1  0
 22 43  1  0
 23 44  1  0
 25 45  1  0
 25 46  1  0
 27 47  1  0
 27 48  1  0
 28 49  1  0
 28 50  1  0
 29 51  1  0
 29 52  1  0
 30 53  1  0
 30 54  1  0
 31 55  1  0
 31 56  1  0
 32 57  1  0
M  END
$$$$
