
     RDKit          3D

 23 23  0  0  0  0  0  0  0  0999 V2000
    2.3976   -2.0788    0.4197 N   0  0  0  0  0  0  0  0  0  0  0  0
    2.1940   -0.9335   -0.1553 C   0  0  0  0  0  0  0  0  0  0  0  0
    1.1294   -0.8334   -1.2117 C   0  0  0  0  0  0  0  0  0  0  0  0
   -0.1851   -0.4355   -0.5957 C   0  0  0  0  0  0  0  0  0  0  0  0
   -0.5968    0.9073   -0.5995 C   0  0  0  0  0  0  0  0  0  0  0  0
   -1.8085    1.2797    0.0005 C   0  0  0  0  0  0  0  0  0  0  0  0
   -2.2191    2.6116   -0.0069 O   0  0  0  0  0  0  0  0  0  0  0  0
   -2.6120    0.3090    0.6126 C   0  0  0  0  0  0  0  0  0  0  0  0
   -3.8157    0.6827    1.2074 O   0  0  0  0  0  0  0  0  0  0  0  0
   -2.2001   -1.0304    0.6247 C   0  0  0  0  0  0  0  0  0  0  0  0
   -0.9923   -1.4005    0.0272 C   0  0  0  0  0  0  0  0  0  0  0  0
    2.9528    0.2670    0.2589 C   0  0  0  0  0  0  0  0  0  0  0  0
    2.7093    1.4931   -0.3532 O   0  0  0  0  0  0  0  0  0  0  0  0
    3.8243    0.1906    1.1666 O   0  0  0  0  0  0  0  0  0  0  0  0
    3.1065   -2.2155    1.1743 H   0  0  0  0  0  0  0  0  0  0  0  0
    1.0179   -1.8125   -1.7278 H   0  0  0  0  0  0  0  0  0  0  0  0
    1.4331   -0.1034   -1.9932 H   0  0  0  0  0  0  0  0  0  0  0  0
    0.0206    1.6634   -1.0684 H   0  0  0  0  0  0  0  0  0  0  0  0
   -1.6596    3.3365   -0.4408 H   0  0  0  0  0  0  0  0  0  0  0  0
   -4.4175    0.0032    1.6581 H   0  0  0  0  0  0  0  0  0  0  0  0
   -2.8143   -1.7851    1.0992 H   0  0  0  0  0  0  0  0  0  0  0  0
   -0.6847   -2.4387    0.0510 H   0  0  0  0  0  0  0  0  0  0  0  0
    3.2203    2.3232   -0.0774 H   0  0  0  0  0  0  0  0  0  0  0  0
  1  2  2  3
  2  3  1  0
  3  4  1  0
  4  5  2  0
  5  6  1  0
  6  7  1  0
  6  8  2  0
  8  9  1  0
  8 10  1  0
 10 11  2  0
  2 12  1  0
 12 13  1  0
 12 14  2  0
 11  4  1  0
  1 15  1  0
  3 16  1  0
  3 17  1  0
  5 18  1  0
  7 19  1  0
  9 20  1  0
 10 21  1  0
 11 22  1  0
 13 23  1  0
M  END
$$$$
