
     RDKit          3D

 64 63  0  0  0  0  0  0  0  0999 V2000
   -3.7251   -0.0217   -0.3623 C   0  0  0  0  0  0  0  0  0  0  0  0
   -4.1392   -0.7622   -1.2406 O   0  0  0  0  0  0  0  0  0  0  0  0
   -2.3349    0.5505   -0.4321 C   0  0  2  0  0  0  0  0  0  0  0  0
   -2.1745    1.4843   -1.6487 C   0  0  0  0  0  0  0  0  0  0  0  0
   -3.0065    2.7703   -1.5025 C   0  0  0  0  0  0  0  0  0  0  0  0
   -2.6999    3.7982   -2.6021 C   0  0  0  0  0  0  0  0  0  0  0  0
   -3.2009    3.3587   -3.9773 C   0  0  0  0  0  0  0  0  0  0  0  0
   -1.3572   -0.5394   -0.4940 N   0  0  0  0  0  0  0  0  0  0  0  0
   -0.9985   -1.3039    0.6663 C   0  0  0  0  0  0  0  0  0  0  0  0
   -1.5969   -1.1103    1.7602 O   0  0  0  0  0  0  0  0  0  0  0  0
    0.1588   -2.2682    0.6053 C   0  0  2  0  0  0  0  0  0  0  0  0
   -0.1524   -3.6119    1.3077 C   0  0  0  0  0  0  0  0  0  0  0  0
   -0.9812   -4.5986    0.4476 C   0  0  0  0  0  0  0  0  0  0  0  0
   -2.4127   -4.1015    0.1956 C   0  0  0  0  0  0  0  0  0  0  0  0
   -1.0238   -5.9736    1.1284 C   0  0  0  0  0  0  0  0  0  0  0  0
    1.3159   -1.6287    1.2348 N   0  0  0  0  0  0  0  0  0  0  0  0
    2.0821   -0.6307    0.5449 C   0  0  0  0  0  0  0  0  0  0  0  0
    2.1329   -0.6370   -0.7155 O   0  0  0  0  0  0  0  0  0  0  0  0
    2.8029    0.4410    1.3263 C   0  0  2  0  0  0  0  0  0  0  0  0
    2.5804    1.8595    0.7480 C   0  0  0  0  0  0  0  0  0  0  0  0
    1.0897    2.2738    0.6437 C   0  0  0  0  0  0  0  0  0  0  0  0
    0.4118    2.3691    2.0186 C   0  0  0  0  0  0  0  0  0  0  0  0
    0.9656    3.6134   -0.0934 C   0  0  0  0  0  0  0  0  0  0  0  0
    4.2335    0.1296    1.4417 N   0  0  0  0  0  0  0  0  0  0  0  0
    5.1533    0.0364    0.3409 C   0  0  0  0  0  0  0  0  0  0  0  0
    6.5881   -0.2883    0.6016 C   0  0  0  0  0  0  0  0  0  0  0  0
    4.7642    0.2062   -0.8453 O   0  0  0  0  0  0  0  0  0  0  0  0
   -4.3657    0.2194    0.4796 H   0  0  0  0  0  0  0  0  0  0  0  0
   -2.1442    1.1466    0.4879 H   0  0  0  0  0  0  0  0  0  0  0  0
   -1.1026    1.7628   -1.7452 H   0  0  0  0  0  0  0  0  0  0  0  0
   -2.4672    0.9421   -2.5736 H   0  0  0  0  0  0  0  0  0  0  0  0
   -2.7735    3.2418   -0.5226 H   0  0  0  0  0  0  0  0  0  0  0  0
   -4.0911    2.5261   -1.5100 H   0  0  0  0  0  0  0  0  0  0  0  0
   -1.6065    3.9944   -2.6486 H   0  0  0  0  0  0  0  0  0  0  0  0
   -3.2011    4.7545   -2.3378 H   0  0  0  0  0  0  0  0  0  0  0  0
   -3.0591    4.1868   -4.7032 H   0  0  0  0  0  0  0  0  0  0  0  0
   -4.2820    3.1070   -3.9354 H   0  0  0  0  0  0  0  0  0  0  0  0
   -2.6297    2.4797   -4.3411 H   0  0  0  0  0  0  0  0  0  0  0  0
   -0.8689   -0.7406   -1.3964 H   0  0  0  0  0  0  0  0  0  0  0  0
    0.4046   -2.4902   -0.4565 H   0  0  0  0  0  0  0  0  0  0  0  0
   -0.6519   -3.4393    2.2866 H   0  0  0  0  0  0  0  0  0  0  0  0
    0.8215   -4.1011    1.5339 H   0  0  0  0  0  0  0  0  0  0  0  0
   -0.4788   -4.7295   -0.5365 H   0  0  0  0  0  0  0  0  0  0  0  0
   -3.0193   -4.8957   -0.2898 H   0  0  0  0  0  0  0  0  0  0  0  0
   -2.9035   -3.8121    1.1494 H   0  0  0  0  0  0  0  0  0  0  0  0
   -2.4074   -3.2347   -0.4956 H   0  0  0  0  0  0  0  0  0  0  0  0
   -1.5240   -5.9044    2.1185 H   0  0  0  0  0  0  0  0  0  0  0  0
    0.0059   -6.3650    1.2728 H   0  0  0  0  0  0  0  0  0  0  0  0
   -1.5773   -6.7006    0.4964 H   0  0  0  0  0  0  0  0  0  0  0  0
    1.4130   -1.6954    2.2739 H   0  0  0  0  0  0  0  0  0  0  0  0
    2.3911    0.4440    2.3579 H   0  0  0  0  0  0  0  0  0  0  0  0
    3.1213    2.5934    1.3854 H   0  0  0  0  0  0  0  0  0  0  0  0
    3.0311    1.9166   -0.2650 H   0  0  0  0  0  0  0  0  0  0  0  0
    0.5443    1.5181    0.0416 H   0  0  0  0  0  0  0  0  0  0  0  0
   -0.6139    2.7835    1.9150 H   0  0  0  0  0  0  0  0  0  0  0  0
    0.9945    3.0256    2.6996 H   0  0  0  0  0  0  0  0  0  0  0  0
    0.3103    1.3629    2.4749 H   0  0  0  0  0  0  0  0  0  0  0  0
    1.4897    4.4180    0.4659 H   0  0  0  0  0  0  0  0  0  0  0  0
   -0.1037    3.8927   -0.2083 H   0  0  0  0  0  0  0  0  0  0  0  0
    1.4066    3.5350   -1.1100 H   0  0  0  0  0  0  0  0  0  0  0  0
    4.6099   -0.0449    2.4013 H   0  0  0  0  0  0  0  0  0  0  0  0
    6.9987    0.4153    1.3556 H   0  0  0  0  0  0  0  0  0  0  0  0
    7.1853   -0.2022   -0.3311 H   0  0  0  0  0  0  0  0  0  0  0  0
    6.6681   -1.3257    0.9878 H   0  0  0  0  0  0  0  0  0  0  0  0
  1  2  2  0
  1  3  1  0
  3  4  1  0
  4  5  1  0
  5  6  1  0
  6  7  1  0
  3  8  1  0
  8  9  1  0
  9 10  2  0
  9 11  1  0
 11 12  1  0
 12 13  1  0
 13 14  1  0
 13 15  1  0
 11 16  1  0
 16 17  1  0
 17 18  2  0
 17 19  1  0
 19 20  1  0
 20 21  1  0
 21 22  1  0
 21 23  1  0
 19 24  1  0
 24 25  1  0
 25 26  1  0
 25 27  2  0
  1 28  1  0
  3 29  1  1
  4 30  1  0
  4 31  1  0
  5 32  1  0
  5 33  1  0
  6 34  1  0
  6 35  1  0
  7 36  1  0
  7 37  1  0
  7 38  1  0
  8 39  1  0
 11 40  1  6
 12 41  1  0
 12 42  1  0
 13 43  1  0
 14 44  1  0
 14 45  1  0
 14 46  1  0
 15 47  1  0
 15 48  1  0
 15 49  1  0
 16 50  1  0
 19 51  1  1
 20 52  1  0
 20 53  1  0
 21 54  1  0
 22 55  1  0
 22 56  1  0
 22 57  1  0
 23 58  1  0
 23 59  1  0
 23 60  1  0
 24 61  1  0
 26 62  1  0
 26 63  1  0
 26 64  1  0
M  END
$$$$
