
     RDKit          3D

 44 47  0  0  0  0  0  0  0  0999 V2000
   -7.2997   -1.9523   -0.4127 C   0  0  0  0  0  0  0  0  0  0  0  0
   -6.3188   -1.3172    0.5169 C   0  0  0  0  0  0  0  0  0  0  0  0
   -6.6400   -0.8412    1.7356 N   0  0  0  0  0  0  0  0  0  0  0  0
   -5.5330   -0.4395    2.2904 O   0  0  0  0  0  0  0  0  0  0  0  0
   -4.5055   -0.6334    1.4964 C   0  0  0  0  0  0  0  0  0  0  0  0
   -3.1621   -0.3011    1.8714 N   0  0  0  0  0  0  0  0  0  0  0  0
   -1.9014    0.0846    0.7445 S   0  0  0  0  0  6  0  0  0  0  0  0
   -2.5012    0.7202   -0.4784 O   0  0  0  0  0  0  0  0  0  0  0  0
   -0.9691    1.0666    1.3964 O   0  0  0  0  0  0  0  0  0  0  0  0
   -0.9965   -1.3684    0.3175 C   0  0  0  0  0  0  0  0  0  0  0  0
    0.1450   -1.3940   -0.4968 C   0  0  0  0  0  0  0  0  0  0  0  0
    0.6879   -2.9890   -0.5547 S   0  0  0  0  0  0  0  0  0  0  0  0
   -0.4922   -3.6507    0.4353 C   0  0  0  0  0  0  0  0  0  0  0  0
   -1.3372   -2.6281    0.8369 C   0  0  0  0  0  0  0  0  0  0  0  0
    0.7976   -0.2541   -1.1837 C   0  0  0  0  0  0  0  0  0  0  0  0
    0.1637    0.8200   -1.3604 O   0  0  0  0  0  0  0  0  0  0  0  0
    2.2065   -0.3460   -1.7037 C   0  0  0  0  0  0  0  0  0  0  0  0
    3.0750    0.7177   -1.0724 C   0  0  0  0  0  0  0  0  0  0  0  0
    3.2856    1.9246   -1.7796 C   0  0  0  0  0  0  0  0  0  0  0  0
    4.0595    2.9130   -1.1850 C   0  0  0  0  0  0  0  0  0  0  0  0
    4.6056    2.7558    0.0435 C   0  0  0  0  0  0  0  0  0  0  0  0
    5.3170    3.8911    0.3807 O   0  0  0  0  0  0  0  0  0  0  0  0
    5.2096    4.8202   -0.7066 C   0  0  0  0  0  0  0  0  0  0  0  0
    4.3979    4.1558   -1.6847 O   0  0  0  0  0  0  0  0  0  0  0  0
    4.4244    1.5971    0.7882 C   0  0  0  0  0  0  0  0  0  0  0  0
    3.6445    0.5563    0.2329 C   0  0  0  0  0  0  0  0  0  0  0  0
    3.4262   -0.6970    1.0385 C   0  0  0  0  0  0  0  0  0  0  0  0
   -4.9560   -1.2147    0.3213 C   0  0  0  0  0  0  0  0  0  0  0  0
   -4.0563   -1.8434   -1.0510 Cl  0  0  0  0  0  0  0  0  0  0  0  0
   -7.1893   -3.0559   -0.3708 H   0  0  0  0  0  0  0  0  0  0  0  0
   -8.3352   -1.6787   -0.1200 H   0  0  0  0  0  0  0  0  0  0  0  0
   -7.1179   -1.6038   -1.4509 H   0  0  0  0  0  0  0  0  0  0  0  0
   -2.9784   -0.0919    2.8775 H   0  0  0  0  0  0  0  0  0  0  0  0
   -0.5768   -4.6908    0.7194 H   0  0  0  0  0  0  0  0  0  0  0  0
   -2.1788   -2.7965    1.4952 H   0  0  0  0  0  0  0  0  0  0  0  0
    2.1807   -0.2191   -2.8078 H   0  0  0  0  0  0  0  0  0  0  0  0
    2.6509   -1.3453   -1.5280 H   0  0  0  0  0  0  0  0  0  0  0  0
    2.8568    2.0887   -2.7602 H   0  0  0  0  0  0  0  0  0  0  0  0
    6.2144    5.0371   -1.1259 H   0  0  0  0  0  0  0  0  0  0  0  0
    4.7129    5.7528   -0.3661 H   0  0  0  0  0  0  0  0  0  0  0  0
    4.8720    1.5104    1.7702 H   0  0  0  0  0  0  0  0  0  0  0  0
    3.9468   -0.6486    2.0185 H   0  0  0  0  0  0  0  0  0  0  0  0
    3.8209   -1.5768    0.4896 H   0  0  0  0  0  0  0  0  0  0  0  0
    2.3440   -0.8344    1.2372 H   0  0  0  0  0  0  0  0  0  0  0  0
  1  2  1  0
  2  3  2  0
  3  4  1  0
  4  5  1  0
  5  6  1  0
  6  7  1  0
  7  8  2  0
  7  9  2  0
  7 10  1  0
 10 11  2  0
 11 12  1  0
 12 13  1  0
 13 14  2  0
 11 15  1  0
 15 16  2  0
 15 17  1  0
 17 18  1  0
 18 19  2  0
 19 20  1  0
 20 21  2  0
 21 22  1  0
 22 23  1  0
 23 24  1  0
 21 25  1  0
 25 26  2  0
 26 27  1  0
  5 28  2  0
 28 29  1  0
 28  2  1  0
 14 10  1  0
 26 18  1  0
 24 20  1  0
  1 30  1  0
  1 31  1  0
  1 32  1  0
  6 33  1  0
 13 34  1  0
 14 35  1  0
 17 36  1  0
 17 37  1  0
 19 38  1  0
 23 39  1  0
 23 40  1  0
 25 41  1  0
 27 42  1  0
 27 43  1  0
 27 44  1  0
M  END
$$$$
