
     RDKit          3D

 71 75  0  0  0  0  0  0  0  0999 V2000
  -10.1604    0.7177   -3.0634 N   0  0  0  0  0  0  0  0  0  0  0  0
   -9.7339    0.8323   -1.7058 C   0  0  0  0  0  0  0  0  0  0  0  0
   -8.4152    0.6037   -1.3300 C   0  0  0  0  0  0  0  0  0  0  0  0
   -7.3620    0.2329   -2.0825 N   0  0  0  0  0  0  0  0  0  0  0  0
   -6.3585    0.1357   -1.1669 C   0  0  0  0  0  0  0  0  0  0  0  0
   -6.7515    0.4402    0.0983 N   0  0  0  0  0  0  0  0  0  0  0  0
   -5.9727    0.3440    1.3351 C   0  0  2  0  0  0  0  0  0  0  0  0
   -4.6345    0.7251    1.0841 O   0  0  0  0  0  0  0  0  0  0  0  0
   -3.8043   -0.3479    1.4672 C   0  0  2  0  0  0  0  0  0  0  0  0
   -2.6215   -0.4657    0.5030 C   0  0  0  0  0  0  0  0  0  0  0  0
   -1.8575    0.7146    0.5680 O   0  0  0  0  0  0  0  0  0  0  0  0
   -0.6258    0.6330   -0.6107 P   0  0  0  0  0  5  0  0  0  0  0  0
    0.1551   -0.8732   -0.5732 O   0  0  0  0  0  0  0  0  0  0  0  0
   -1.2397    0.8378   -1.9780 O   0  0  0  0  0  0  0  0  0  0  0  0
    0.4928    1.8861   -0.3400 O   0  0  0  0  0  0  0  0  0  0  0  0
    1.3302    1.5281    1.0994 P   0  0  0  0  0  5  0  0  0  0  0  0
    0.2441    1.2501    2.3696 O   0  0  0  0  0  0  0  0  0  0  0  0
    2.1873    2.7184    1.4676 O   0  0  0  0  0  0  0  0  0  0  0  0
    2.3261    0.1566    0.8977 O   0  0  0  0  0  0  0  0  0  0  0  0
    3.2119    0.4014   -0.1698 C   0  0  0  0  0  0  0  0  0  0  0  0
    4.0894   -0.8328   -0.3962 C   0  0  1  0  0  0  0  0  0  0  0  0
    4.9485   -0.6087   -1.4890 O   0  0  0  0  0  0  0  0  0  0  0  0
    6.1548   -1.3058   -1.2374 C   0  0  2  0  0  0  0  0  0  0  0  0
    6.1605   -1.8387    0.2029 C   0  0  2  0  0  0  0  0  0  0  0  0
    6.0160   -3.2374    0.1896 O   0  0  0  0  0  0  0  0  0  0  0  0
    4.9575   -1.1578    0.8183 C   0  0  2  0  0  0  0  0  0  0  0  0
    4.2977   -1.9445    1.7836 O   0  0  0  0  0  0  0  0  0  0  0  0
    7.3079   -0.4156   -1.4666 N   0  0  0  0  0  4  0  0  0  0  0  0
    8.4196   -0.9040   -2.0965 C   0  0  0  0  0  0  0  0  0  0  0  0
    9.5361   -0.0933   -2.2985 C   0  0  0  0  0  0  0  0  0  0  0  0
    9.5214    1.2224   -1.8429 C   0  0  0  0  0  0  0  0  0  0  0  0
    8.3921    1.7231   -1.1804 C   0  0  0  0  0  0  0  0  0  0  0  0
    7.2892    0.8724   -0.9983 C   0  0  0  0  0  0  0  0  0  0  0  0
    8.3606    3.1146   -0.6787 C   0  0  0  0  0  0  0  0  0  0  0  0
    7.2323    3.5986   -0.0215 O   0  0  0  0  0  0  0  0  0  0  0  0
    9.3536    3.8745   -0.8412 O   0  0  0  0  0  0  0  0  0  0  0  0
   -4.6456   -1.6151    1.4932 C   0  0  1  0  0  0  0  0  0  0  0  0
   -4.1437   -2.5352    2.4280 O   0  0  0  0  0  0  0  0  0  0  0  0
   -6.0059   -1.0895    1.8751 C   0  0  1  0  0  0  0  0  0  0  0  0
   -6.1566   -1.0792    3.2726 O   0  0  0  0  0  0  0  0  0  0  0  0
   -8.0541    0.7184   -0.0318 C   0  0  0  0  0  0  0  0  0  0  0  0
   -8.9336    1.0438    0.9465 N   0  0  0  0  0  0  0  0  0  0  0  0
  -10.2329    1.2738    0.5882 C   0  0  0  0  0  0  0  0  0  0  0  0
  -10.6228    1.1683   -0.7233 N   0  0  0  0  0  0  0  0  0  0  0  0
  -11.1581    0.8926   -3.3162 H   0  0  0  0  0  0  0  0  0  0  0  0
   -9.4869    0.4599   -3.8187 H   0  0  0  0  0  0  0  0  0  0  0  0
   -5.3534   -0.1701   -1.4253 H   0  0  0  0  0  0  0  0  0  0  0  0
   -6.3992    1.0487    2.0835 H   0  0  0  0  0  0  0  0  0  0  0  0
   -3.4127   -0.1388    2.4894 H   0  0  0  0  0  0  0  0  0  0  0  0
   -2.0046   -1.3384    0.8149 H   0  0  0  0  0  0  0  0  0  0  0  0
   -3.0148   -0.6313   -0.5267 H   0  0  0  0  0  0  0  0  0  0  0  0
   -0.3866   -1.4634   -1.1556 H   0  0  0  0  0  0  0  0  0  0  0  0
    0.1978    0.2646    2.4569 H   0  0  0  0  0  0  0  0  0  0  0  0
    2.6494    0.5935   -1.1116 H   0  0  0  0  0  0  0  0  0  0  0  0
    3.8666    1.2761    0.0477 H   0  0  0  0  0  0  0  0  0  0  0  0
    3.4304   -1.6942   -0.6495 H   0  0  0  0  0  0  0  0  0  0  0  0
    6.1926   -2.1596   -1.9528 H   0  0  0  0  0  0  0  0  0  0  0  0
    7.0951   -1.5516    0.7423 H   0  0  0  0  0  0  0  0  0  0  0  0
    6.3293   -3.5658    1.0727 H   0  0  0  0  0  0  0  0  0  0  0  0
    5.2995   -0.2168    1.3048 H   0  0  0  0  0  0  0  0  0  0  0  0
    3.8610   -2.7089    1.3254 H   0  0  0  0  0  0  0  0  0  0  0  0
    8.4512   -1.9289   -2.4468 H   0  0  0  0  0  0  0  0  0  0  0  0
   10.4099   -0.4854   -2.8027 H   0  0  0  0  0  0  0  0  0  0  0  0
   10.3936    1.8438   -2.0036 H   0  0  0  0  0  0  0  0  0  0  0  0
    6.4150    1.2426   -0.4774 H   0  0  0  0  0  0  0  0  0  0  0  0
    7.2002    4.5497    0.3259 H   0  0  0  0  0  0  0  0  0  0  0  0
   -4.6948   -2.0745    0.4768 H   0  0  0  0  0  0  0  0  0  0  0  0
   -4.6469   -3.3793    2.2872 H   0  0  0  0  0  0  0  0  0  0  0  0
   -6.8065   -1.7086    1.4051 H   0  0  0  0  0  0  0  0  0  0  0  0
   -7.1200   -0.9176    3.4502 H   0  0  0  0  0  0  0  0  0  0  0  0
  -10.9591    1.5385    1.3443 H   0  0  0  0  0  0  0  0  0  0  0  0
  1  2  1  0
  2  3  2  0
  3  4  1  0
  4  5  2  0
  5  6  1  0
  6  7  1  0
  7  8  1  0
  8  9  1  0
  9 10  1  0
 10 11  1  0
 11 12  1  0
 12 13  1  0
 12 14  2  0
 12 15  1  0
 15 16  1  0
 16 17  1  0
 16 18  2  0
 16 19  1  0
 19 20  1  0
 20 21  1  0
 21 22  1  0
 22 23  1  0
 23 24  1  0
 24 25  1  0
 24 26  1  0
 26 27  1  0
 23 28  1  0
 28 29  2  0
 29 30  1  0
 30 31  2  0
 31 32  1  0
 32 33  2  0
 32 34  1  0
 34 35  1  0
 34 36  2  0
  9 37  1  0
 37 38  1  0
 37 39  1  0
 39 40  1  0
  6 41  1  0
 41 42  2  0
 42 43  1  0
 43 44  2  0
 44  2  1  0
 41  3  1  0
 39  7  1  0
 26 21  1  0
 33 28  1  0
  1 45  1  0
  1 46  1  0
  5 47  1  0
  7 48  1  1
  9 49  1  1
 10 50  1  0
 10 51  1  0
 13 52  1  0
 17 53  1  0
 20 54  1  0
 20 55  1  0
 21 56  1  6
 23 57  1  6
 24 58  1  1
 25 59  1  0
 26 60  1  1
 27 61  1  0
 29 62  1  0
 30 63  1  0
 31 64  1  0
 33 65  1  0
 35 66  1  0
 37 67  1  6
 38 68  1  0
 39 69  1  6
 40 70  1  0
 43 71  1  0
M  CHG  1  28   1
M  END
$$$$
