
     RDKit          3D

 98101  0  0  0  0  0  0  0  0999 V2000
    3.8466   -2.9361   -0.6976 C   0  0  0  0  0  0  0  0  0  0  0  0
    4.4258   -2.1836    0.2521 C   0  0  0  0  0  0  0  0  0  0  0  0
    3.8112   -0.9112    0.7940 C   0  0  2  0  0  0  0  0  0  0  0  0
    4.6862   -0.2773    1.8910 C   0  0  0  0  0  0  0  0  0  0  0  0
    5.9331    0.3446    1.3149 C   0  0  0  0  0  0  0  0  0  0  0  0
    7.1656   -0.3251    1.3858 C   0  0  0  0  0  0  0  0  0  0  0  0
    8.3115    0.2468    0.8248 C   0  0  0  0  0  0  0  0  0  0  0  0
    8.2362    1.4911    0.1841 C   0  0  0  0  0  0  0  0  0  0  0  0
    9.3712    2.0700   -0.3791 O   0  0  0  0  0  0  0  0  0  0  0  0
    7.0099    2.1592    0.1078 C   0  0  0  0  0  0  0  0  0  0  0  0
    5.8629    1.5897    0.6683 C   0  0  0  0  0  0  0  0  0  0  0  0
    2.5043   -1.2534    1.3522 N   0  0  0  0  0  0  0  0  0  0  0  0
    1.4082   -0.5507    1.4084 C   0  0  0  0  0  0  0  0  0  0  0  0
    0.2954   -1.1765    1.9564 O   0  0  0  0  0  0  0  0  0  0  0  0
    1.2981    0.8813    0.8715 C   0  0  1  0  0  0  0  0  0  0  0  0
    1.1557    0.8951   -0.6711 C   0  0  0  0  0  0  0  0  0  0  0  0
    0.9090    2.2759   -1.2253 C   0  0  0  0  0  0  0  0  0  0  0  0
    1.9306    3.2403   -1.1979 C   0  0  0  0  0  0  0  0  0  0  0  0
    1.6960    4.5288   -1.6872 C   0  0  0  0  0  0  0  0  0  0  0  0
    0.4426    4.8632   -2.2073 C   0  0  0  0  0  0  0  0  0  0  0  0
   -0.5771    3.9082   -2.2425 C   0  0  0  0  0  0  0  0  0  0  0  0
   -0.3460    2.6182   -1.7562 C   0  0  0  0  0  0  0  0  0  0  0  0
    0.2049    1.6727    1.4827 N   0  0  0  0  0  0  0  0  0  0  0  0
   -0.6937    1.2374    2.5119 C   0  0  0  0  0  0  0  0  0  0  0  0
   -0.4120    1.4841    3.7147 O   0  0  0  0  0  0  0  0  0  0  0  0
   -1.9543    0.5287    2.1879 C   0  0  0  0  0  0  0  0  0  0  0  0
   -2.6656    0.0883    3.1320 O   0  0  0  0  0  0  0  0  0  0  0  0
   -2.4300    0.3647    0.7627 C   0  0  2  0  0  0  0  0  0  0  0  0
   -3.2494    1.5899    0.3116 C   0  0  0  0  0  0  0  0  0  0  0  0
   -4.5522    1.7885    1.1047 C   0  0  0  0  0  0  0  0  0  0  0  0
   -5.3453    2.9831    0.5636 C   0  0  0  0  0  0  0  0  0  0  0  0
   -6.5819    3.1770    1.3236 N   0  0  0  0  0  0  0  0  0  0  0  0
   -7.5265    4.2248    1.0414 C   0  0  0  0  0  0  0  0  0  0  0  0
   -8.7068    4.3370    1.8368 N   0  0  0  0  0  0  0  0  0  0  0  0
   -7.3326    5.0734    0.0792 N   0  0  0  0  0  0  0  0  0  0  0  0
   -3.2298   -0.8612    0.6224 N   0  0  0  0  0  0  0  0  0  0  0  0
   -3.0270   -1.8825   -0.1693 C   0  0  0  0  0  0  0  0  0  0  0  0
   -3.9762   -2.9026   -0.1881 O   0  0  0  0  0  0  0  0  0  0  0  0
   -1.8370   -1.9887   -1.1087 C   0  0  2  0  0  0  0  0  0  0  0  0
   -2.0547   -1.1201   -2.3498 C   0  0  0  0  0  0  0  0  0  0  0  0
   -2.6330   -2.0547   -3.4044 C   0  0  0  0  0  0  0  0  0  0  0  0
   -2.1464   -3.4445   -3.0220 C   0  0  0  0  0  0  0  0  0  0  0  0
   -1.7118   -3.3490   -1.6363 N   0  0  0  0  0  0  0  0  0  0  0  0
   -1.0942   -4.4717   -0.9682 C   0  0  0  0  0  0  0  0  0  0  0  0
   -1.1977   -5.6213   -1.4781 O   0  0  0  0  0  0  0  0  0  0  0  0
   -0.2399   -4.3049    0.2693 C   0  0  2  0  0  0  0  0  0  0  0  0
    1.2456   -4.1518   -0.0995 C   0  0  0  0  0  0  0  0  0  0  0  0
    1.4467   -3.0883   -1.0843 N   0  0  0  0  0  0  0  0  0  0  0  0
    2.5958   -2.5517   -1.3837 C   0  0  0  0  0  0  0  0  0  0  0  0
    2.6585   -1.5915   -2.3877 O   0  0  0  0  0  0  0  0  0  0  0  0
   -0.3687   -5.4793    1.1373 N   0  0  0  0  0  0  0  0  0  0  0  0
   -1.3654   -5.7637    1.9235 C   0  0  0  0  0  0  0  0  0  0  0  0
   -2.4744   -4.9313    2.0689 O   0  0  0  0  0  0  0  0  0  0  0  0
    4.3077   -3.8759   -0.9734 H   0  0  0  0  0  0  0  0  0  0  0  0
    5.3457   -2.5515    0.6901 H   0  0  0  0  0  0  0  0  0  0  0  0
    3.7178   -0.1998   -0.0437 H   0  0  0  0  0  0  0  0  0  0  0  0
    4.9441   -1.0380    2.6611 H   0  0  0  0  0  0  0  0  0  0  0  0
    4.1081    0.5145    2.4152 H   0  0  0  0  0  0  0  0  0  0  0  0
    7.2400   -1.2888    1.8740 H   0  0  0  0  0  0  0  0  0  0  0  0
    9.2562   -0.2782    0.8867 H   0  0  0  0  0  0  0  0  0  0  0  0
   10.2739    1.6112   -0.3409 H   0  0  0  0  0  0  0  0  0  0  0  0
    6.9453    3.1195   -0.3880 H   0  0  0  0  0  0  0  0  0  0  0  0
    4.9194    2.1164    0.5971 H   0  0  0  0  0  0  0  0  0  0  0  0
    0.3721   -2.0763    2.4150 H   0  0  0  0  0  0  0  0  0  0  0  0
    2.2464    1.4010    1.1253 H   0  0  0  0  0  0  0  0  0  0  0  0
    0.3579    0.2024   -0.9912 H   0  0  0  0  0  0  0  0  0  0  0  0
    2.0731    0.5231   -1.1527 H   0  0  0  0  0  0  0  0  0  0  0  0
    2.9050    2.9943   -0.7950 H   0  0  0  0  0  0  0  0  0  0  0  0
    2.4855    5.2687   -1.6616 H   0  0  0  0  0  0  0  0  0  0  0  0
    0.2621    5.8615   -2.5844 H   0  0  0  0  0  0  0  0  0  0  0  0
   -1.5469    4.1671   -2.6474 H   0  0  0  0  0  0  0  0  0  0  0  0
   -1.1438    1.8892   -1.7967 H   0  0  0  0  0  0  0  0  0  0  0  0
    0.2334    2.7061    1.3314 H   0  0  0  0  0  0  0  0  0  0  0  0
   -1.5479    0.3173    0.1102 H   0  0  0  0  0  0  0  0  0  0  0  0
   -3.4995    1.4737   -0.7645 H   0  0  0  0  0  0  0  0  0  0  0  0
   -2.6192    2.5020    0.4068 H   0  0  0  0  0  0  0  0  0  0  0  0
   -4.3163    1.9731    2.1746 H   0  0  0  0  0  0  0  0  0  0  0  0
   -5.1814    0.8750    1.0305 H   0  0  0  0  0  0  0  0  0  0  0  0
   -5.5976    2.8017   -0.5039 H   0  0  0  0  0  0  0  0  0  0  0  0
   -4.7217    3.9006    0.6401 H   0  0  0  0  0  0  0  0  0  0  0  0
   -6.8011    2.5279    2.1136 H   0  0  0  0  0  0  0  0  0  0  0  0
   -9.4047    5.0907    1.6480 H   0  0  0  0  0  0  0  0  0  0  0  0
   -8.8873    3.6674    2.6172 H   0  0  0  0  0  0  0  0  0  0  0  0
   -6.4966    5.0568   -0.5445 H   0  0  0  0  0  0  0  0  0  0  0  0
   -4.7948   -2.8684    0.4079 H   0  0  0  0  0  0  0  0  0  0  0  0
   -0.8994   -1.6948   -0.5987 H   0  0  0  0  0  0  0  0  0  0  0  0
   -2.7267   -0.2546   -2.1735 H   0  0  0  0  0  0  0  0  0  0  0  0
   -1.0734   -0.7391   -2.7084 H   0  0  0  0  0  0  0  0  0  0  0  0
   -3.7439   -2.0217   -3.3589 H   0  0  0  0  0  0  0  0  0  0  0  0
   -2.2979   -1.7708   -4.4255 H   0  0  0  0  0  0  0  0  0  0  0  0
   -1.2866   -3.7386   -3.6630 H   0  0  0  0  0  0  0  0  0  0  0  0
   -2.9649   -4.1900   -3.1210 H   0  0  0  0  0  0  0  0  0  0  0  0
   -0.5507   -3.4062    0.8303 H   0  0  0  0  0  0  0  0  0  0  0  0
    1.8111   -3.9209    0.8298 H   0  0  0  0  0  0  0  0  0  0  0  0
    1.6347   -5.1068   -0.5163 H   0  0  0  0  0  0  0  0  0  0  0  0
    1.8268   -1.3105   -2.8942 H   0  0  0  0  0  0  0  0  0  0  0  0
   -1.3321   -6.6813    2.4942 H   0  0  0  0  0  0  0  0  0  0  0  0
   -2.5540   -4.0379    1.6074 H   0  0  0  0  0  0  0  0  0  0  0  0
  1  2  2  0
  2  3  1  0
  3  4  1  0
  4  5  1  0
  5  6  2  0
  6  7  1  0
  7  8  2  0
  8  9  1  0
  8 10  1  0
 10 11  2  0
  3 12  1  0
 12 13  2  3
 13 14  1  0
 13 15  1  0
 15 16  1  0
 16 17  1  0
 17 18  2  0
 18 19  1  0
 19 20  2  0
 20 21  1  0
 21 22  2  0
 15 23  1  0
 23 24  1  0
 24 25  2  0
 24 26  1  0
 26 27  2  0
 26 28  1  0
 28 29  1  0
 29 30  1  0
 30 31  1  0
 31 32  1  0
 32 33  1  0
 33 34  1  0
 33 35  2  3
 28 36  1  0
 36 37  2  3
 37 38  1  0
 37 39  1  0
 39 40  1  0
 40 41  1  0
 41 42  1  0
 42 43  1  0
 43 44  1  0
 44 45  2  0
 44 46  1  0
 46 47  1  0
 47 48  1  0
 48 49  2  0
 49 50  1  0
 46 51  1  0
 51 52  2  3
 52 53  1  0
 49  1  1  0
 11  5  1  0
 22 17  1  0
 43 39  1  0
  1 54  1  0
  2 55  1  0
  3 56  1  6
  4 57  1  0
  4 58  1  0
  6 59  1  0
  7 60  1  0
  9 61  1  0
 10 62  1  0
 11 63  1  0
 14 64  1  0
 15 65  1  6
 16 66  1  0
 16 67  1  0
 18 68  1  0
 19 69  1  0
 20 70  1  0
 21 71  1  0
 22 72  1  0
 23 73  1  0
 28 74  1  6
 29 75  1  0
 29 76  1  0
 30 77  1  0
 30 78  1  0
 31 79  1  0
 31 80  1  0
 32 81  1  0
 34 82  1  0
 34 83  1  0
 35 84  1  0
 38 85  1  0
 39 86  1  1
 40 87  1  0
 40 88  1  0
 41 89  1  0
 41 90  1  0
 42 91  1  0
 42 92  1  0
 46 93  1  1
 47 94  1  0
 47 95  1  0
 50 96  1  0
 52 97  1  0
 53 98  1  0
M  END
$$$$
