
     RDKit          3D

 28 29  0  0  0  0  0  0  0  0999 V2000
    4.8957    0.0243    0.8616 N   0  0  0  0  0  0  0  0  0  0  0  0
    3.5487   -0.1326    0.4151 C   0  0  0  0  0  0  0  0  0  0  0  0
    2.5486    0.5440    1.0333 N   0  0  0  0  0  0  0  0  0  0  0  0
    1.2554    0.4202    0.6355 C   0  0  0  0  0  0  0  0  0  0  0  0
    0.3644    1.0617    1.2545 O   0  0  0  0  0  0  0  0  0  0  0  0
    0.9308   -0.3973   -0.4212 N   0  0  0  0  0  0  0  0  0  0  0  0
    1.9197   -1.1030   -1.0506 C   0  0  0  0  0  0  0  0  0  0  0  0
    3.2480   -0.9807   -0.6483 C   0  0  0  0  0  0  0  0  0  0  0  0
   -0.4669   -0.5688   -0.8688 C   0  0  1  0  0  0  0  0  0  0  0  0
   -1.2640   -1.4210    0.1206 C   0  0  0  0  0  0  0  0  0  0  0  0
   -2.4399   -0.5570    0.4837 C   0  0  0  0  0  0  0  0  0  0  0  0
   -2.4227    0.5236   -0.5853 C   0  0  1  0  0  0  0  0  0  0  0  0
   -2.9756    1.8543   -0.0618 C   0  0  0  0  0  0  0  0  0  0  0  0
   -2.9715    2.8190   -1.0791 O   0  0  0  0  0  0  0  0  0  0  0  0
   -1.0930    0.6874   -1.0143 O   0  0  0  0  0  0  0  0  0  0  0  0
    5.1139    0.6598    1.6608 H   0  0  0  0  0  0  0  0  0  0  0  0
    5.6783   -0.4901    0.3992 H   0  0  0  0  0  0  0  0  0  0  0  0
    1.6882   -1.7694   -1.8731 H   0  0  0  0  0  0  0  0  0  0  0  0
    4.0258   -1.5383   -1.1547 H   0  0  0  0  0  0  0  0  0  0  0  0
   -0.4948   -1.0665   -1.8660 H   0  0  0  0  0  0  0  0  0  0  0  0
   -1.6105   -2.3571   -0.3708 H   0  0  0  0  0  0  0  0  0  0  0  0
   -0.6758   -1.6883    1.0263 H   0  0  0  0  0  0  0  0  0  0  0  0
   -3.3927   -1.1301    0.4671 H   0  0  0  0  0  0  0  0  0  0  0  0
   -2.2834   -0.1249    1.4975 H   0  0  0  0  0  0  0  0  0  0  0  0
   -3.0411    0.1911   -1.4508 H   0  0  0  0  0  0  0  0  0  0  0  0
   -2.3410    2.2212    0.7733 H   0  0  0  0  0  0  0  0  0  0  0  0
   -4.0090    1.7126    0.3297 H   0  0  0  0  0  0  0  0  0  0  0  0
   -3.7357    2.6058   -1.6761 H   0  0  0  0  0  0  0  0  0  0  0  0
  1  2  1  0
  2  3  2  0
  3  4  1  0
  4  5  2  0
  4  6  1  0
  6  7  1  0
  7  8  2  0
  6  9  1  0
  9 10  1  0
 10 11  1  0
 11 12  1  0
 12 13  1  0
 13 14  1  0
 12 15  1  0
  8  2  1  0
 15  9  1  0
  1 16  1  0
  1 17  1  0
  7 18  1  0
  8 19  1  0
  9 20  1  6
 10 21  1  0
 10 22  1  0
 11 23  1  0
 11 24  1  0
 12 25  1  6
 13 26  1  0
 13 27  1  0
 14 28  1  0
M  END
$$$$
