
     RDKit          3D

105110  0  0  0  0  0  0  0  0999 V2000
   -3.9477    2.5668    2.5449 C   0  0  0  0  0  0  0  0  0  0  0  0
   -3.4047    1.6072    1.4715 C   0  0  1  0  0  0  0  0  0  0  0  0
   -2.8379    2.4077    0.2681 C   0  0  0  0  0  0  0  0  0  0  0  0
   -3.8269    2.6202   -0.9088 C   0  0  2  0  0  0  0  0  0  0  0  0
   -5.1238    2.8733   -0.4276 O   0  0  0  0  0  0  0  0  0  0  0  0
   -3.8481    1.4312   -1.7859 N   0  0  0  0  0  0  0  0  0  0  0  0
   -2.8211    1.4874   -2.8526 C   0  0  2  0  0  0  0  0  0  0  0  0
   -3.2517    2.3563   -4.0643 C   0  0  0  0  0  0  0  0  0  0  0  0
   -2.5965    1.9582   -5.4073 C   0  0  0  0  0  0  0  0  0  0  0  0
   -1.0533    1.9415   -5.4058 C   0  0  0  0  0  0  0  0  0  0  0  0
   -0.3551    0.9855   -4.4044 C   0  0  0  0  0  0  0  0  0  0  0  0
   -1.1973   -0.1336   -3.9623 N   0  0  0  0  0  0  0  0  0  0  0  0
   -0.6302   -1.3576   -3.8321 O   0  0  0  0  0  0  0  0  0  0  0  0
   -0.4811   -1.5444   -1.9985 Fe  0  0  1  0  0  4  0  0  0  0  0  0
   -0.2990    0.1081   -1.2350 O   0  0  0  0  0  0  0  0  0  0  0  0
    1.0213    0.0043   -0.7723 C   0  0  1  0  0  0  0  0  0  0  0  0
    1.2468    1.0767    0.2644 C   0  0  0  0  0  0  0  0  0  0  0  0
    2.4480    1.6410    0.4480 C   0  0  0  0  0  0  0  0  0  0  0  0
    2.6484    2.6899    1.5091 C   0  0  0  0  0  0  0  0  0  0  0  0
    4.1336    3.0015    1.7366 C   0  0  0  0  0  0  0  0  0  0  0  0
    4.8719    1.8221    2.3956 C   0  0  0  0  0  0  0  0  0  0  0  0
    6.3261    2.1626    2.7561 C   0  0  0  0  0  0  0  0  0  0  0  0
    7.2307    2.2702    1.5194 C   0  0  0  0  0  0  0  0  0  0  0  0
    8.6922    2.4796    1.9267 C   0  0  0  0  0  0  0  0  0  0  0  0
    9.5616    2.5974    0.7151 C   0  0  0  0  0  0  0  0  0  0  0  0
    9.7592    3.8405    0.1224 O   0  0  0  0  0  0  0  0  0  0  0  0
   10.0817    1.5676    0.2081 O   0  0  0  0  0  0  0  0  0  0  0  0
    1.2047   -1.3793   -0.2637 N   0  0  0  0  0  0  0  0  0  0  0  0
    2.4460   -1.6781    0.4634 C   0  0  0  0  0  0  0  0  0  0  0  0
    2.2781   -1.4705    1.9907 C   0  0  0  0  0  0  0  0  0  0  0  0
    0.9328   -1.9663    2.5842 C   0  0  0  0  0  0  0  0  0  0  0  0
   -0.1728   -0.8930    2.5010 C   0  0  0  0  0  0  0  0  0  0  0  0
   -1.4934   -1.2697    3.2026 C   0  0  2  0  0  0  0  0  0  0  0  0
   -2.0502   -2.4972    2.6299 N   0  0  0  0  0  0  0  0  0  0  0  0
   -3.1684   -3.1721    3.2315 C   0  0  0  0  0  0  0  0  0  0  0  0
   -3.3232   -3.1491    4.4822 O   0  0  0  0  0  0  0  0  0  0  0  0
   -4.2052   -3.8395    2.3657 C   0  0  1  0  0  0  0  0  0  0  0  0
   -4.9281   -2.7984    1.4868 C   0  0  0  0  0  0  0  0  0  0  0  0
   -4.3868   -3.0321    0.2005 O   0  0  0  0  0  0  0  0  0  0  0  0
   -3.6339   -4.1883    0.2376 C   0  0  0  0  0  0  0  0  0  0  0  0
   -3.5438   -4.7159    1.4089 N   0  0  0  0  0  0  0  0  0  0  0  0
   -2.9150   -4.7197   -0.9218 C   0  0  0  0  0  0  0  0  0  0  0  0
   -3.0053   -6.0830   -1.2424 C   0  0  0  0  0  0  0  0  0  0  0  0
   -2.2547   -6.6070   -2.2980 C   0  0  0  0  0  0  0  0  0  0  0  0
   -1.3917   -5.7796   -3.0200 C   0  0  0  0  0  0  0  0  0  0  0  0
   -1.2777   -4.4266   -2.6885 C   0  0  0  0  0  0  0  0  0  0  0  0
   -2.0402   -3.8882   -1.6437 C   0  0  0  0  0  0  0  0  0  0  0  0
   -1.8910   -2.5455   -1.2929 O   0  0  0  0  0  0  0  0  0  0  0  0
   -2.5092   -0.1608    3.0333 C   0  0  0  0  0  0  0  0  0  0  0  0
   -3.5289   -0.1479    3.7736 O   0  0  0  0  0  0  0  0  0  0  0  0
   -2.3559    0.7912    2.0096 O   0  0  0  0  0  0  0  0  0  0  0  0
    1.0739   -2.2126   -1.3336 O   0  0  0  0  0  0  0  0  0  0  0  0
   -2.4529    0.0956   -3.2993 C   0  0  0  0  0  0  0  0  0  0  0  0
   -3.2596   -0.8596   -3.1374 O   0  0  0  0  0  0  0  0  0  0  0  0
   -4.5617    2.0222    3.2892 H   0  0  0  0  0  0  0  0  0  0  0  0
   -3.1075    3.0711    3.0682 H   0  0  0  0  0  0  0  0  0  0  0  0
   -4.5991    3.3427    2.0945 H   0  0  0  0  0  0  0  0  0  0  0  0
   -4.2240    0.9398    1.1234 H   0  0  0  0  0  0  0  0  0  0  0  0
   -2.4760    3.4017    0.6135 H   0  0  0  0  0  0  0  0  0  0  0  0
   -1.9353    1.8902   -0.1168 H   0  0  0  0  0  0  0  0  0  0  0  0
   -3.4838    3.5102   -1.4906 H   0  0  0  0  0  0  0  0  0  0  0  0
   -5.1614    3.8360   -0.1873 H   0  0  0  0  0  0  0  0  0  0  0  0
   -4.7963    1.3186   -2.2159 H   0  0  0  0  0  0  0  0  0  0  0  0
   -1.9016    1.9427   -2.4301 H   0  0  0  0  0  0  0  0  0  0  0  0
   -4.3520    2.2915   -4.2056 H   0  0  0  0  0  0  0  0  0  0  0  0
   -3.0144    3.4214   -3.8528 H   0  0  0  0  0  0  0  0  0  0  0  0
   -2.9297    2.6875   -6.1774 H   0  0  0  0  0  0  0  0  0  0  0  0
   -2.9796    0.9685   -5.7392 H   0  0  0  0  0  0  0  0  0  0  0  0
   -0.7275    1.6630   -6.4318 H   0  0  0  0  0  0  0  0  0  0  0  0
   -0.6846    2.9751   -5.2279 H   0  0  0  0  0  0  0  0  0  0  0  0
   -0.0059    1.5604   -3.5215 H   0  0  0  0  0  0  0  0  0  0  0  0
    0.5664    0.5845   -4.8801 H   0  0  0  0  0  0  0  0  0  0  0  0
    1.7015    0.1804   -1.6365 H   0  0  0  0  0  0  0  0  0  0  0  0
    0.4030    1.4253    0.8531 H   0  0  0  0  0  0  0  0  0  0  0  0
    3.2916    1.3199   -0.1572 H   0  0  0  0  0  0  0  0  0  0  0  0
    2.1275    3.6186    1.1912 H   0  0  0  0  0  0  0  0  0  0  0  0
    2.1911    2.3522    2.4655 H   0  0  0  0  0  0  0  0  0  0  0  0
    4.2047    3.8905    2.4004 H   0  0  0  0  0  0  0  0  0  0  0  0
    4.6042    3.2633    0.7650 H   0  0  0  0  0  0  0  0  0  0  0  0
    4.3416    1.5479    3.3338 H   0  0  0  0  0  0  0  0  0  0  0  0
    4.8523    0.9321    1.7299 H   0  0  0  0  0  0  0  0  0  0  0  0
    6.7136    1.3538    3.4140 H   0  0  0  0  0  0  0  0  0  0  0  0
    6.3596    3.1118    3.3347 H   0  0  0  0  0  0  0  0  0  0  0  0
    7.1482    1.3380    0.9176 H   0  0  0  0  0  0  0  0  0  0  0  0
    6.9072    3.1279    0.8917 H   0  0  0  0  0  0  0  0  0  0  0  0
    8.7855    3.4081    2.5307 H   0  0  0  0  0  0  0  0  0  0  0  0
    9.0392    1.6249    2.5478 H   0  0  0  0  0  0  0  0  0  0  0  0
   10.3316    3.9349   -0.7080 H   0  0  0  0  0  0  0  0  0  0  0  0
    3.2940   -1.0725    0.0785 H   0  0  0  0  0  0  0  0  0  0  0  0
    2.7191   -2.7461    0.3064 H   0  0  0  0  0  0  0  0  0  0  0  0
    3.1005   -2.0267    2.4912 H   0  0  0  0  0  0  0  0  0  0  0  0
    2.4403   -0.4064    2.2563 H   0  0  0  0  0  0  0  0  0  0  0  0
    0.6137   -2.8982    2.0698 H   0  0  0  0  0  0  0  0  0  0  0  0
    1.0940   -2.2131    3.6561 H   0  0  0  0  0  0  0  0  0  0  0  0
    0.2056    0.0528    2.9484 H   0  0  0  0  0  0  0  0  0  0  0  0
   -0.4166   -0.7120    1.4407 H   0  0  0  0  0  0  0  0  0  0  0  0
   -1.2887   -1.4206    4.2854 H   0  0  0  0  0  0  0  0  0  0  0  0
   -1.8154   -2.7217    1.6372 H   0  0  0  0  0  0  0  0  0  0  0  0
   -4.9261   -4.4212    2.9810 H   0  0  0  0  0  0  0  0  0  0  0  0
   -4.7491   -1.7462    1.7959 H   0  0  0  0  0  0  0  0  0  0  0  0
   -6.0203   -3.0019    1.4682 H   0  0  0  0  0  0  0  0  0  0  0  0
   -3.6568   -6.7379   -0.6765 H   0  0  0  0  0  0  0  0  0  0  0  0
   -2.3328   -7.6571   -2.5485 H   0  0  0  0  0  0  0  0  0  0  0  0
   -0.8010   -6.1896   -3.8290 H   0  0  0  0  0  0  0  0  0  0  0  0
   -0.5836   -3.8067   -3.2361 H   0  0  0  0  0  0  0  0  0  0  0  0
  1  2  1  0
  2  3  1  0
  3  4  1  0
  4  5  1  0
  4  6  1  0
  6  7  1  0
  7  8  1  0
  8  9  1  0
  9 10  1  0
 10 11  1  0
 11 12  1  0
 12 13  1  0
 14 13  1  6
 14 15  1  0
 15 16  1  0
 16 17  1  0
 17 18  2  0
 18 19  1  0
 19 20  1  0
 20 21  1  0
 21 22  1  0
 22 23  1  0
 23 24  1  0
 24 25  1  0
 25 26  1  0
 25 27  2  0
 16 28  1  0
 28 29  1  6
 29 30  1  0
 30 31  1  0
 31 32  1  0
 32 33  1  0
 33 34  1  0
 34 35  1  0
 35 36  2  0
 35 37  1  0
 37 38  1  0
 38 39  1  0
 39 40  1  0
 40 41  2  0
 40 42  1  0
 42 43  2  0
 43 44  1  0
 44 45  2  0
 45 46  1  0
 46 47  2  0
 47 48  1  0
 33 49  1  0
 49 50  2  0
 49 51  1  0
 28 52  1  0
 12 53  1  0
 53 54  2  0
 51  2  1  0
 53  7  1  0
 48 14  1  0
 52 14  1  0
 41 37  1  0
 47 42  1  0
  1 55  1  0
  1 56  1  0
  1 57  1  0
  2 58  1  6
  3 59  1  0
  3 60  1  0
  4 61  1  6
  5 62  1  0
  6 63  1  0
  7 64  1  1
  8 65  1  0
  8 66  1  0
  9 67  1  0
  9 68  1  0
 10 69  1  0
 10 70  1  0
 11 71  1  0
 11 72  1  0
 16 73  1  6
 17 74  1  0
 18 75  1  0
 19 76  1  0
 19 77  1  0
 20 78  1  0
 20 79  1  0
 21 80  1  0
 21 81  1  0
 22 82  1  0
 22 83  1  0
 23 84  1  0
 23 85  1  0
 24 86  1  0
 24 87  1  0
 26 88  1  0
 29 89  1  0
 29 90  1  0
 30 91  1  0
 30 92  1  0
 31 93  1  0
 31 94  1  0
 32 95  1  0
 32 96  1  0
 33 97  1  1
 34 98  1  0
 37 99  1  1
 38100  1  0
 38101  1  0
 43102  1  0
 44103  1  0
 45104  1  0
 46105  1  0
M  END
$$$$
