
     RDKit          3D

117121  0  0  0  0  0  0  0  0999 V2000
   -5.1674   -3.6235    3.0219 C   0  0  0  0  0  0  0  0  0  0  0  0
   -5.1360   -3.9472    1.6477 O   0  0  0  0  0  0  0  0  0  0  0  0
   -3.9464   -3.4605    1.0443 C   0  0  1  0  0  0  0  0  0  0  0  0
   -2.8442   -4.4871    1.1964 C   0  0  0  0  0  0  0  0  0  0  0  0
   -1.5859   -4.2270    0.8434 C   0  0  0  0  0  0  0  0  0  0  0  0
   -0.5865   -5.1822    1.0561 O   0  0  0  0  0  0  0  0  0  0  0  0
    0.7264   -5.0651    0.5022 C   0  0  1  0  0  0  0  0  0  0  0  0
    1.5942   -6.2389    0.9462 C   0  0  0  0  0  0  0  0  0  0  0  0
    0.6473   -5.0191   -0.9195 O   0  0  0  0  0  0  0  0  0  0  0  0
    1.1106   -3.7991   -1.3973 C   0  0  0  0  0  0  0  0  0  0  0  0
    1.6118   -3.0026   -0.3977 C   0  0  0  0  0  0  0  0  0  0  0  0
    1.3640   -3.7464    0.8432 C   0  0  0  0  0  0  0  0  0  0  0  0
    1.4942   -3.3105    2.0169 O   0  0  0  0  0  0  0  0  0  0  0  0
    2.0663   -1.6901   -0.6573 C   0  0  0  0  0  0  0  0  0  0  0  0
    2.7259   -0.9055    0.3085 C   0  0  0  0  0  0  0  0  0  0  0  0
    3.2095   -1.5159    1.4694 O   0  0  0  0  0  0  0  0  0  0  0  0
    2.9571    0.4652    0.0682 C   0  0  0  0  0  0  0  0  0  0  0  0
    3.6014    1.2895    1.1173 C   0  0  0  0  0  0  0  0  0  0  0  0
    4.4724    2.1989    0.7951 N   0  0  0  0  0  0  0  0  0  0  0  0
    5.1434    3.0322    1.7135 N   0  0  0  0  0  0  0  0  0  0  0  0
    5.1607    2.7556    3.1579 C   0  0  0  0  0  0  0  0  0  0  0  0
    6.4405    3.3026    3.7977 C   0  0  0  0  0  0  0  0  0  0  0  0
    6.6504    4.7106    3.4133 N   0  0  0  0  0  0  0  0  0  0  0  0
    7.8370    5.2451    4.0988 C   0  0  0  0  0  0  0  0  0  0  0  0
    6.8278    4.8091    1.9531 C   0  0  0  0  0  0  0  0  0  0  0  0
    5.5547    4.3540    1.2405 C   0  0  0  0  0  0  0  0  0  0  0  0
    2.5447    1.0563   -1.1507 C   0  0  0  0  0  0  0  0  0  0  0  0
    2.4874    2.5019   -1.2241 N   0  0  0  0  0  0  0  0  0  0  0  0
    2.7770    3.2870   -2.3809 C   0  0  0  0  0  0  0  0  0  0  0  0
    3.6906    2.9027   -3.1617 O   0  0  0  0  0  0  0  0  0  0  0  0
    2.0424    4.5548   -2.6806 C   0  0  0  0  0  0  0  0  0  0  0  0
    2.6560    5.4679   -3.7135 C   0  0  0  0  0  0  0  0  0  0  0  0
    0.8492    4.9264   -2.1454 C   0  0  0  0  0  0  0  0  0  0  0  0
    0.0286    4.2087   -1.1427 C   0  0  0  0  0  0  0  0  0  0  0  0
   -0.3262    2.9216   -1.2501 C   0  0  0  0  0  0  0  0  0  0  0  0
   -1.0861    2.1873   -0.1480 C   0  0  2  0  0  0  0  0  0  0  0  0
   -0.3113    2.3498    1.1829 C   0  0  0  0  0  0  0  0  0  0  0  0
   -1.3112    0.6598   -0.4710 C   0  0  2  0  0  0  0  0  0  0  0  0
   -1.2226    0.4137   -1.8535 O   0  0  0  0  0  0  0  0  0  0  0  0
   -2.6579    0.0508    0.0533 C   0  0  1  0  0  0  0  0  0  0  0  0
   -2.8482    0.2581    1.5658 C   0  0  0  0  0  0  0  0  0  0  0  0
   -3.9515    0.4670   -0.7349 C   0  0  1  0  0  0  0  0  0  0  0  0
   -3.6778    1.5271   -1.6198 O   0  0  0  0  0  0  0  0  0  0  0  0
   -4.6678   -0.6947   -1.5123 C   0  0  1  0  0  0  0  0  0  0  0  0
   -3.9179   -1.1332   -2.7837 C   0  0  0  0  0  0  0  0  0  0  0  0
   -5.2076   -1.8941   -0.6474 C   0  0  2  0  0  0  0  0  0  0  0  0
   -5.6890   -1.4177    0.6134 O   0  0  0  0  0  0  0  0  0  0  0  0
   -6.8843   -0.7099    0.7820 C   0  0  0  0  0  0  0  0  0  0  0  0
   -7.2664   -0.2424    2.1443 C   0  0  0  0  0  0  0  0  0  0  0  0
   -7.6588   -0.5034   -0.1913 O   0  0  0  0  0  0  0  0  0  0  0  0
   -4.2285   -3.1200   -0.4522 C   0  0  2  0  0  0  0  0  0  0  0  0
   -4.7494   -4.3610   -1.2062 C   0  0  0  0  0  0  0  0  0  0  0  0
    2.0417    0.2218   -2.1914 C   0  0  0  0  0  0  0  0  0  0  0  0
    1.6338    0.7363   -3.4282 O   0  0  0  0  0  0  0  0  0  0  0  0
    1.8644   -1.1677   -1.9674 C   0  0  0  0  0  0  0  0  0  0  0  0
    1.4018   -2.0361   -3.0102 C   0  0  0  0  0  0  0  0  0  0  0  0
    1.3091   -1.5634   -4.3244 O   0  0  0  0  0  0  0  0  0  0  0  0
    1.0381   -3.3723   -2.7194 C   0  0  0  0  0  0  0  0  0  0  0  0
    0.5032   -4.2967   -3.7806 C   0  0  0  0  0  0  0  0  0  0  0  0
   -6.0671   -4.0881    3.4743 H   0  0  0  0  0  0  0  0  0  0  0  0
   -4.2757   -4.0214    3.5549 H   0  0  0  0  0  0  0  0  0  0  0  0
   -5.2463   -2.5239    3.1686 H   0  0  0  0  0  0  0  0  0  0  0  0
   -3.5844   -2.5285    1.5322 H   0  0  0  0  0  0  0  0  0  0  0  0
   -3.0755   -5.4462    1.6444 H   0  0  0  0  0  0  0  0  0  0  0  0
   -1.3350   -3.2745    0.3918 H   0  0  0  0  0  0  0  0  0  0  0  0
    2.6083   -6.1626    0.4982 H   0  0  0  0  0  0  0  0  0  0  0  0
    1.1314   -7.1935    0.6178 H   0  0  0  0  0  0  0  0  0  0  0  0
    1.6868   -6.2495    2.0532 H   0  0  0  0  0  0  0  0  0  0  0  0
    3.7906   -1.0531    2.1556 H   0  0  0  0  0  0  0  0  0  0  0  0
    3.3165    1.1352    2.1485 H   0  0  0  0  0  0  0  0  0  0  0  0
    4.2715    3.2247    3.6316 H   0  0  0  0  0  0  0  0  0  0  0  0
    5.1368    1.6614    3.3461 H   0  0  0  0  0  0  0  0  0  0  0  0
    7.3065    2.6734    3.4867 H   0  0  0  0  0  0  0  0  0  0  0  0
    6.3358    3.2208    4.9024 H   0  0  0  0  0  0  0  0  0  0  0  0
    8.7542    4.6772    3.8240 H   0  0  0  0  0  0  0  0  0  0  0  0
    7.9811    6.3150    3.8350 H   0  0  0  0  0  0  0  0  0  0  0  0
    7.6969    5.1958    5.2001 H   0  0  0  0  0  0  0  0  0  0  0  0
    7.0273    5.8644    1.6626 H   0  0  0  0  0  0  0  0  0  0  0  0
    7.6875    4.1873    1.6119 H   0  0  0  0  0  0  0  0  0  0  0  0
    5.7408    4.3266    0.1445 H   0  0  0  0  0  0  0  0  0  0  0  0
    4.7369    5.0806    1.4376 H   0  0  0  0  0  0  0  0  0  0  0  0
    2.2821    3.0357   -0.3505 H   0  0  0  0  0  0  0  0  0  0  0  0
    2.3510    5.1347   -4.7275 H   0  0  0  0  0  0  0  0  0  0  0  0
    3.7644    5.4470   -3.6443 H   0  0  0  0  0  0  0  0  0  0  0  0
    2.3414    6.5245   -3.5717 H   0  0  0  0  0  0  0  0  0  0  0  0
    0.4583    5.9026   -2.4071 H   0  0  0  0  0  0  0  0  0  0  0  0
   -0.3709    4.8014   -0.3304 H   0  0  0  0  0  0  0  0  0  0  0  0
   -0.0151    2.3952   -2.1349 H   0  0  0  0  0  0  0  0  0  0  0  0
   -2.0695    2.6907   -0.0340 H   0  0  0  0  0  0  0  0  0  0  0  0
   -0.2281    3.4169    1.4730 H   0  0  0  0  0  0  0  0  0  0  0  0
    0.7091    1.9275    1.0942 H   0  0  0  0  0  0  0  0  0  0  0  0
   -0.8061    1.8420    2.0272 H   0  0  0  0  0  0  0  0  0  0  0  0
   -0.4842    0.0951    0.0268 H   0  0  0  0  0  0  0  0  0  0  0  0
   -0.9171   -0.5236   -1.9663 H   0  0  0  0  0  0  0  0  0  0  0  0
   -2.5227   -1.0362   -0.0637 H   0  0  0  0  0  0  0  0  0  0  0  0
   -3.7443   -0.2845    1.9263 H   0  0  0  0  0  0  0  0  0  0  0  0
   -3.0076    1.3307    1.8009 H   0  0  0  0  0  0  0  0  0  0  0  0
   -1.9736   -0.1377    2.1241 H   0  0  0  0  0  0  0  0  0  0  0  0
   -4.6935    0.8512    0.0039 H   0  0  0  0  0  0  0  0  0  0  0  0
   -4.5433    1.9610   -1.8417 H   0  0  0  0  0  0  0  0  0  0  0  0
   -5.5918   -0.2144   -1.9085 H   0  0  0  0  0  0  0  0  0  0  0  0
   -4.4940   -1.9198   -3.3143 H   0  0  0  0  0  0  0  0  0  0  0  0
   -3.8072   -0.2749   -3.4796 H   0  0  0  0  0  0  0  0  0  0  0  0
   -2.9070   -1.5202   -2.5620 H   0  0  0  0  0  0  0  0  0  0  0  0
   -6.0954   -2.2816   -1.1993 H   0  0  0  0  0  0  0  0  0  0  0  0
   -7.9166    0.6552    2.0756 H   0  0  0  0  0  0  0  0  0  0  0  0
   -6.3543    0.0193    2.7204 H   0  0  0  0  0  0  0  0  0  0  0  0
   -7.8112   -1.0521    2.6726 H   0  0  0  0  0  0  0  0  0  0  0  0
   -3.2544   -2.8946   -0.9173 H   0  0  0  0  0  0  0  0  0  0  0  0
   -5.7255   -4.6932   -0.7930 H   0  0  0  0  0  0  0  0  0  0  0  0
   -4.0257   -5.2001   -1.1348 H   0  0  0  0  0  0  0  0  0  0  0  0
   -4.8831   -4.1269   -2.2833 H   0  0  0  0  0  0  0  0  0  0  0  0
    1.4975    1.7041   -3.6619 H   0  0  0  0  0  0  0  0  0  0  0  0
    0.9792   -2.1205   -5.1016 H   0  0  0  0  0  0  0  0  0  0  0  0
    1.2473   -4.4032   -4.5976 H   0  0  0  0  0  0  0  0  0  0  0  0
    0.2973   -5.3124   -3.3825 H   0  0  0  0  0  0  0  0  0  0  0  0
   -0.4450   -3.8882   -4.1893 H   0  0  0  0  0  0  0  0  0  0  0  0
  1  2  1  0
  2  3  1  0
  3  4  1  0
  4  5  2  0
  5  6  1  0
  6  7  1  0
  7  8  1  6
  7  9  1  0
  9 10  1  0
 10 11  2  0
 11 12  1  0
 12 13  2  0
 11 14  1  0
 14 15  2  0
 15 16  1  0
 15 17  1  0
 17 18  1  0
 18 19  2  0
 19 20  1  0
 20 21  1  0
 21 22  1  0
 22 23  1  0
 23 24  1  0
 23 25  1  0
 25 26  1  0
 17 27  2  0
 27 28  1  0
 28 29  1  0
 29 30  2  0
 29 31  1  0
 31 32  1  0
 31 33  2  0
 33 34  1  0
 34 35  2  0
 35 36  1  0
 36 37  1  0
 36 38  1  0
 38 39  1  0
 38 40  1  0
 40 41  1  0
 40 42  1  0
 42 43  1  0
 42 44  1  0
 44 45  1  0
 44 46  1  0
 46 47  1  0
 47 48  1  0
 48 49  1  0
 48 50  2  0
 46 51  1  0
 51 52  1  0
 27 53  1  0
 53 54  1  0
 53 55  2  0
 55 56  1  0
 56 57  1  0
 56 58  2  0
 58 59  1  0
 51  3  1  0
 12  7  1  0
 55 14  1  0
 58 10  1  0
 26 20  1  0
  1 60  1  0
  1 61  1  0
  1 62  1  0
  3 63  1  1
  4 64  1  0
  5 65  1  0
  8 66  1  0
  8 67  1  0
  8 68  1  0
 16 69  1  0
 18 70  1  0
 21 71  1  0
 21 72  1  0
 22 73  1  0
 22 74  1  0
 24 75  1  0
 24 76  1  0
 24 77  1  0
 25 78  1  0
 25 79  1  0
 26 80  1  0
 26 81  1  0
 28 82  1  0
 32 83  1  0
 32 84  1  0
 32 85  1  0
 33 86  1  0
 34 87  1  0
 35 88  1  0
 36 89  1  1
 37 90  1  0
 37 91  1  0
 37 92  1  0
 38 93  1  1
 39 94  1  0
 40 95  1  1
 41 96  1  0
 41 97  1  0
 41 98  1  0
 42 99  1  1
 43100  1  0
 44101  1  6
 45102  1  0
 45103  1  0
 45104  1  0
 46105  1  6
 49106  1  0
 49107  1  0
 49108  1  0
 51109  1  6
 52110  1  0
 52111  1  0
 52112  1  0
 54113  1  0
 57114  1  0
 59115  1  0
 59116  1  0
 59117  1  0
M  END
$$$$
