
     RDKit          3D

 49 51  0  0  0  0  0  0  0  0999 V2000
   -3.4221   -2.6778    0.2533 O   0  0  0  0  0  0  0  0  0  0  0  0
   -3.1685   -1.2932    0.1313 C   0  0  0  0  0  0  0  0  0  0  0  0
   -2.2661   -1.1124   -1.1276 C   0  0  0  0  0  0  0  0  0  0  0  0
   -1.1159   -0.1118   -0.9156 C   0  0  0  0  0  0  0  0  0  0  0  0
   -0.2493   -0.4537    0.2444 N   0  0  0  0  0  0  0  0  0  0  0  0
    0.9982   -1.1370   -0.1618 C   0  0  0  0  0  0  0  0  0  0  0  0
    2.0603   -0.1243   -0.6128 C   0  0  0  0  0  0  0  0  0  0  0  0
    2.4514    0.8333    0.5211 C   0  0  0  0  0  0  0  0  0  0  0  0
    3.5543    1.7589    0.0816 C   0  0  0  0  0  0  0  0  0  0  0  0
    3.2279    2.8816   -0.3920 O   0  0  0  0  0  0  0  0  0  0  0  0
    4.9960    1.3875    0.1550 C   0  0  0  0  0  0  0  0  0  0  0  0
    5.4122    0.0917    0.5270 C   0  0  0  0  0  0  0  0  0  0  0  0
    6.7720   -0.2289    0.5853 C   0  0  0  0  0  0  0  0  0  0  0  0
    7.7346    0.7330    0.2743 C   0  0  0  0  0  0  0  0  0  0  0  0
    9.0521    0.4181    0.3318 F   0  0  0  0  0  0  0  0  0  0  0  0
    7.3391    2.0188   -0.0976 C   0  0  0  0  0  0  0  0  0  0  0  0
    5.9812    2.3457   -0.1584 C   0  0  0  0  0  0  0  0  0  0  0  0
   -0.9383   -1.1982    1.3255 C   0  0  0  0  0  0  0  0  0  0  0  0
   -2.4198   -0.8219    1.4159 C   0  0  0  0  0  0  0  0  0  0  0  0
   -4.4895   -0.5248   -0.0617 C   0  0  0  0  0  0  0  0  0  0  0  0
   -4.5098    0.8877   -0.0838 C   0  0  0  0  0  0  0  0  0  0  0  0
   -5.7017    1.5857   -0.2968 C   0  0  0  0  0  0  0  0  0  0  0  0
   -6.8929    0.8921   -0.5130 C   0  0  0  0  0  0  0  0  0  0  0  0
   -8.3862    1.7718   -0.7838 Cl  0  0  0  0  0  0  0  0  0  0  0  0
   -6.8902   -0.5032   -0.5284 C   0  0  0  0  0  0  0  0  0  0  0  0
   -5.7014   -1.2072   -0.3163 C   0  0  0  0  0  0  0  0  0  0  0  0
   -3.9498   -2.8303    1.0813 H   0  0  0  0  0  0  0  0  0  0  0  0
   -2.8667   -0.7956   -2.0090 H   0  0  0  0  0  0  0  0  0  0  0  0
   -1.8048   -2.0865   -1.4052 H   0  0  0  0  0  0  0  0  0  0  0  0
   -0.5328   -0.0433   -1.8597 H   0  0  0  0  0  0  0  0  0  0  0  0
   -1.5344    0.9015   -0.7527 H   0  0  0  0  0  0  0  0  0  0  0  0
    0.8007   -1.8647   -0.9807 H   0  0  0  0  0  0  0  0  0  0  0  0
    1.4310   -1.7175    0.6854 H   0  0  0  0  0  0  0  0  0  0  0  0
    2.9560   -0.6881   -0.9517 H   0  0  0  0  0  0  0  0  0  0  0  0
    1.6894    0.4610   -1.4809 H   0  0  0  0  0  0  0  0  0  0  0  0
    1.5658    1.4418    0.8080 H   0  0  0  0  0  0  0  0  0  0  0  0
    2.7566    0.2702    1.4281 H   0  0  0  0  0  0  0  0  0  0  0  0
    4.6990   -0.6839    0.7663 H   0  0  0  0  0  0  0  0  0  0  0  0
    7.0786   -1.2271    0.8707 H   0  0  0  0  0  0  0  0  0  0  0  0
    8.0848    2.7653   -0.3395 H   0  0  0  0  0  0  0  0  0  0  0  0
    5.7040    3.3516   -0.4478 H   0  0  0  0  0  0  0  0  0  0  0  0
   -0.4485   -0.9563    2.2933 H   0  0  0  0  0  0  0  0  0  0  0  0
   -0.8580   -2.2990    1.1696 H   0  0  0  0  0  0  0  0  0  0  0  0
   -2.8647   -1.2845    2.3235 H   0  0  0  0  0  0  0  0  0  0  0  0
   -2.4816    0.2753    1.5643 H   0  0  0  0  0  0  0  0  0  0  0  0
   -3.6071    1.4632    0.0532 H   0  0  0  0  0  0  0  0  0  0  0  0
   -5.6953    2.6684   -0.3012 H   0  0  0  0  0  0  0  0  0  0  0  0
   -7.8088   -1.0458   -0.7130 H   0  0  0  0  0  0  0  0  0  0  0  0
   -5.7411   -2.2869   -0.3627 H   0  0  0  0  0  0  0  0  0  0  0  0
  1  2  1  0
  2  3  1  0
  3  4  1  0
  4  5  1  0
  5  6  1  0
  6  7  1  0
  7  8  1  0
  8  9  1  0
  9 10  2  0
  9 11  1  0
 11 12  2  0
 12 13  1  0
 13 14  2  0
 14 15  1  0
 14 16  1  0
 16 17  2  0
  5 18  1  0
 18 19  1  0
  2 20  1  0
 20 21  2  0
 21 22  1  0
 22 23  2  0
 23 24  1  0
 23 25  1  0
 25 26  2  0
 19  2  1  0
 26 20  1  0
 17 11  1  0
  1 27  1  0
  3 28  1  0
  3 29  1  0
  4 30  1  0
  4 31  1  0
  6 32  1  0
  6 33  1  0
  7 34  1  0
  7 35  1  0
  8 36  1  0
  8 37  1  0
 12 38  1  0
 13 39  1  0
 16 40  1  0
 17 41  1  0
 18 42  1  0
 18 43  1  0
 19 44  1  0
 19 45  1  0
 21 46  1  0
 22 47  1  0
 25 48  1  0
 26 49  1  0
M  END
$$$$
