
     RDKit          3D

 43 44  0  0  0  0  0  0  0  0999 V2000
    1.8909   -1.5681    1.7302 C   0  0  0  0  0  0  0  0  0  0  0  0
    0.7253   -0.5882    1.4996 C   0  0  0  0  0  0  0  0  0  0  0  0
    0.8141    0.1339    0.1362 C   0  0  0  0  0  0  0  0  0  0  0  0
    1.9518    1.1224    0.0980 C   0  0  0  0  0  0  0  0  0  0  0  0
    1.7967    2.3997    0.6610 C   0  0  0  0  0  0  0  0  0  0  0  0
    2.8579    3.3099    0.6475 C   0  0  0  0  0  0  0  0  0  0  0  0
    4.0844    2.9526    0.0782 C   0  0  0  0  0  0  0  0  0  0  0  0
    5.1332    3.8694    0.0722 O   0  0  0  0  0  0  0  0  0  0  0  0
    4.2471    1.6768   -0.4786 C   0  0  0  0  0  0  0  0  0  0  0  0
    3.1873    0.7650   -0.4668 C   0  0  0  0  0  0  0  0  0  0  0  0
   -0.5932   -1.2313    1.6655 N   0  0  0  0  0  0  0  0  0  0  0  0
   -0.7998   -2.4432    0.8525 C   0  0  0  0  0  0  0  0  0  0  0  0
   -2.2745   -2.5426    0.4369 C   0  0  0  0  0  0  0  0  0  0  0  0
   -2.4911   -3.7243   -0.2908 O   0  0  0  0  0  0  0  0  0  0  0  0
   -2.6601   -1.3506   -0.4115 C   0  0  0  0  0  0  0  0  0  0  0  0
   -3.3966   -0.2928    0.1490 C   0  0  0  0  0  0  0  0  0  0  0  0
   -3.6995    0.8420   -0.6106 C   0  0  0  0  0  0  0  0  0  0  0  0
   -4.4329    1.8774   -0.0356 O   0  0  0  0  0  0  0  0  0  0  0  0
   -3.2606    0.9304   -1.9379 C   0  0  0  0  0  0  0  0  0  0  0  0
   -2.5158   -0.1123   -2.5037 C   0  0  0  0  0  0  0  0  0  0  0  0
   -2.0657   -0.0301   -3.8194 O   0  0  0  0  0  0  0  0  0  0  0  0
   -2.2157   -1.2461   -1.7420 C   0  0  0  0  0  0  0  0  0  0  0  0
    2.8448   -1.0087    1.8292 H   0  0  0  0  0  0  0  0  0  0  0  0
    1.9916   -2.2833    0.8873 H   0  0  0  0  0  0  0  0  0  0  0  0
    1.7293   -2.1375    2.6699 H   0  0  0  0  0  0  0  0  0  0  0  0
    0.8022    0.1923    2.2907 H   0  0  0  0  0  0  0  0  0  0  0  0
    0.9272   -0.5965   -0.6929 H   0  0  0  0  0  0  0  0  0  0  0  0
   -0.1383    0.6780   -0.0501 H   0  0  0  0  0  0  0  0  0  0  0  0
    0.8548    2.6886    1.1109 H   0  0  0  0  0  0  0  0  0  0  0  0
    2.7278    4.2929    1.0820 H   0  0  0  0  0  0  0  0  0  0  0  0
    6.0338    3.6407   -0.3320 H   0  0  0  0  0  0  0  0  0  0  0  0
    5.1941    1.3903   -0.9179 H   0  0  0  0  0  0  0  0  0  0  0  0
    3.3306   -0.2198   -0.8940 H   0  0  0  0  0  0  0  0  0  0  0  0
   -0.7259   -1.4791    2.6746 H   0  0  0  0  0  0  0  0  0  0  0  0
   -0.5201   -3.3441    1.4437 H   0  0  0  0  0  0  0  0  0  0  0  0
   -0.1751   -2.4464   -0.0651 H   0  0  0  0  0  0  0  0  0  0  0  0
   -2.9046   -2.5637    1.3576 H   0  0  0  0  0  0  0  0  0  0  0  0
   -2.4773   -4.4722    0.3624 H   0  0  0  0  0  0  0  0  0  0  0  0
   -3.7278   -0.3430    1.1791 H   0  0  0  0  0  0  0  0  0  0  0  0
   -4.6674    2.7138   -0.5575 H   0  0  0  0  0  0  0  0  0  0  0  0
   -3.4928    1.8092   -2.5262 H   0  0  0  0  0  0  0  0  0  0  0  0
   -2.2638    0.7783   -4.3974 H   0  0  0  0  0  0  0  0  0  0  0  0
   -1.6262   -2.0398   -2.1843 H   0  0  0  0  0  0  0  0  0  0  0  0
  1  2  1  0
  2  3  1  0
  3  4  1  0
  4  5  2  0
  5  6  1  0
  6  7  2  0
  7  8  1  0
  7  9  1  0
  9 10  2  0
  2 11  1  0
 11 12  1  0
 12 13  1  0
 13 14  1  0
 13 15  1  0
 15 16  2  0
 16 17  1  0
 17 18  1  0
 17 19  2  0
 19 20  1  0
 20 21  1  0
 20 22  2  0
 10  4  1  0
 22 15  1  0
  1 23  1  0
  1 24  1  0
  1 25  1  0
  2 26  1  0
  3 27  1  0
  3 28  1  0
  5 29  1  0
  6 30  1  0
  8 31  1  0
  9 32  1  0
 10 33  1  0
 11 34  1  0
 12 35  1  0
 12 36  1  0
 13 37  1  0
 14 38  1  0
 16 39  1  0
 18 40  1  0
 19 41  1  0
 21 42  1  0
 22 43  1  0
M  END
$$$$
