
     RDKit          3D

 64 64  0  0  0  0  0  0  0  0999 V2000
    1.8913    0.4601   -0.2765 C   0  0  2  0  0  0  0  0  0  0  0  0
    2.8899    1.3633   -1.0314 C   0  0  0  0  0  0  0  0  0  0  0  0
    4.2551    1.1680   -0.5422 N   0  0  0  0  0  0  0  0  0  0  0  0
    4.7069    1.6907    0.7161 C   0  0  0  0  0  0  0  0  0  0  0  0
    3.9554    2.4392    1.3977 O   0  0  0  0  0  0  0  0  0  0  0  0
    6.0456    1.3571    1.2225 C   0  0  0  0  0  0  0  0  0  0  0  0
    6.9130    0.5474    0.5762 N   0  0  0  0  0  0  0  0  0  0  0  0
    8.0762    0.3954    1.2639 C   0  0  0  0  0  0  0  0  0  0  0  0
    8.1441    1.0841    2.4690 C   0  0  0  0  0  0  0  0  0  0  0  0
    6.6936    1.9095    2.6737 S   0  0  0  0  0  0  0  0  0  0  0  0
    2.2708   -1.0005   -0.4255 C   0  0  0  0  0  0  0  0  0  0  0  0
    1.8311   -1.6914   -1.3781 O   0  0  0  0  0  0  0  0  0  0  0  0
    3.1733   -1.6010    0.5101 N   0  0  0  0  0  0  0  0  0  0  0  0
    3.5437   -2.8967    0.3744 O   0  0  0  0  0  0  0  0  0  0  0  0
    0.3880    0.8382   -0.5511 C   0  0  1  0  0  0  0  0  0  0  0  0
   -0.0325    1.3290   -1.9796 C   0  0  0  0  0  0  0  0  0  0  0  0
   -0.2716    0.3479   -3.1639 C   0  0  0  0  0  0  0  0  0  0  0  0
    0.9934    0.0495   -3.9785 C   0  0  0  0  0  0  0  0  0  0  0  0
   -1.0582   -0.9206   -2.8162 C   0  0  0  0  0  0  0  0  0  0  0  0
   -0.6427   -0.0608    0.1066 C   0  0  0  0  0  0  0  0  0  0  0  0
   -0.3512   -1.2406    0.4416 O   0  0  0  0  0  0  0  0  0  0  0  0
   -1.9652    0.4440    0.3559 N   0  0  0  0  0  0  0  0  0  0  0  0
   -3.0773   -0.4048    0.8078 C   0  0  2  0  0  0  0  0  0  0  0  0
   -4.2335   -0.2732   -0.1592 C   0  0  0  0  0  0  0  0  0  0  0  0
   -4.5365    0.8575   -0.6307 O   0  0  0  0  0  0  0  0  0  0  0  0
   -4.9972   -1.4290   -0.5299 N   0  0  0  0  0  0  0  0  0  0  0  0
   -6.1200   -1.3411   -1.4544 C   0  0  0  0  0  0  0  0  0  0  0  0
   -3.4725   -0.0897    2.2922 C   0  0  0  0  0  0  0  0  0  0  0  0
   -3.9743    1.3622    2.4650 C   0  0  0  0  0  0  0  0  0  0  0  0
   -2.2433   -0.2974    3.2052 C   0  0  0  0  0  0  0  0  0  0  0  0
   -4.5838   -1.0566    2.7606 C   0  0  0  0  0  0  0  0  0  0  0  0
    2.0348    0.6838    0.8050 H   0  0  0  0  0  0  0  0  0  0  0  0
    2.8647    1.1287   -2.1147 H   0  0  0  0  0  0  0  0  0  0  0  0
    2.6103    2.4328   -0.9127 H   0  0  0  0  0  0  0  0  0  0  0  0
    4.9260    0.6481   -1.1517 H   0  0  0  0  0  0  0  0  0  0  0  0
    8.8846   -0.2199    0.8928 H   0  0  0  0  0  0  0  0  0  0  0  0
    8.9822    1.0861    3.1525 H   0  0  0  0  0  0  0  0  0  0  0  0
    3.5441   -1.0505    1.3166 H   0  0  0  0  0  0  0  0  0  0  0  0
    4.3695   -2.8682   -0.1733 H   0  0  0  0  0  0  0  0  0  0  0  0
    0.2873    1.7798    0.0382 H   0  0  0  0  0  0  0  0  0  0  0  0
    0.6641    2.1254   -2.3153 H   0  0  0  0  0  0  0  0  0  0  0  0
   -0.9928    1.8762   -1.8479 H   0  0  0  0  0  0  0  0  0  0  0  0
   -0.9273    0.9040   -3.8727 H   0  0  0  0  0  0  0  0  0  0  0  0
    0.7336   -0.5491   -4.8777 H   0  0  0  0  0  0  0  0  0  0  0  0
    1.4548    0.9980   -4.3268 H   0  0  0  0  0  0  0  0  0  0  0  0
    1.7448   -0.5095   -3.4013 H   0  0  0  0  0  0  0  0  0  0  0  0
   -0.4680   -1.6125   -2.1900 H   0  0  0  0  0  0  0  0  0  0  0  0
   -1.9992   -0.6555   -2.2902 H   0  0  0  0  0  0  0  0  0  0  0  0
   -1.3353   -1.4590   -3.7475 H   0  0  0  0  0  0  0  0  0  0  0  0
   -2.1415    1.4623    0.2029 H   0  0  0  0  0  0  0  0  0  0  0  0
   -2.7548   -1.4687    0.7697 H   0  0  0  0  0  0  0  0  0  0  0  0
   -4.7512   -2.3616   -0.1279 H   0  0  0  0  0  0  0  0  0  0  0  0
   -5.7700   -0.9577   -2.4360 H   0  0  0  0  0  0  0  0  0  0  0  0
   -6.8938   -0.6593   -1.0428 H   0  0  0  0  0  0  0  0  0  0  0  0
   -6.5683   -2.3464   -1.6005 H   0  0  0  0  0  0  0  0  0  0  0  0
   -3.1943    2.0957    2.1733 H   0  0  0  0  0  0  0  0  0  0  0  0
   -4.8842    1.5476    1.8573 H   0  0  0  0  0  0  0  0  0  0  0  0
   -4.2369    1.5573    3.5274 H   0  0  0  0  0  0  0  0  0  0  0  0
   -1.4328    0.4191    2.9522 H   0  0  0  0  0  0  0  0  0  0  0  0
   -2.5122   -0.1394    4.2723 H   0  0  0  0  0  0  0  0  0  0  0  0
   -1.8448   -1.3294    3.0977 H   0  0  0  0  0  0  0  0  0  0  0  0
   -4.2662   -2.1134    2.6284 H   0  0  0  0  0  0  0  0  0  0  0  0
   -5.5208   -0.8966    2.1860 H   0  0  0  0  0  0  0  0  0  0  0  0
   -4.8181   -0.8972    3.8355 H   0  0  0  0  0  0  0  0  0  0  0  0
  1  2  1  0
  2  3  1  0
  3  4  1  0
  4  5  2  0
  4  6  1  0
  6  7  2  0
  7  8  1  0
  8  9  2  0
  9 10  1  0
  1 11  1  0
 11 12  2  0
 11 13  1  0
 13 14  1  0
  1 15  1  0
 15 16  1  0
 16 17  1  0
 17 18  1  0
 17 19  1  0
 15 20  1  0
 20 21  2  0
 20 22  1  0
 22 23  1  0
 23 24  1  0
 24 25  2  0
 24 26  1  0
 26 27  1  0
 23 28  1  0
 28 29  1  0
 28 30  1  0
 28 31  1  0
 10  6  1  0
  1 32  1  1
  2 33  1  0
  2 34  1  0
  3 35  1  0
  8 36  1  0
  9 37  1  0
 13 38  1  0
 14 39  1  0
 15 40  1  1
 16 41  1  0
 16 42  1  0
 17 43  1  0
 18 44  1  0
 18 45  1  0
 18 46  1  0
 19 47  1  0
 19 48  1  0
 19 49  1  0
 22 50  1  0
 23 51  1  1
 26 52  1  0
 27 53  1  0
 27 54  1  0
 27 55  1  0
 29 56  1  0
 29 57  1  0
 29 58  1  0
 30 59  1  0
 30 60  1  0
 30 61  1  0
 31 62  1  0
 31 63  1  0
 31 64  1  0
M  END
$$$$
