
     RDKit          3D

 44 46  0  0  0  0  0  0  0  0999 V2000
    1.6559   -2.9525    0.3748 C   0  0  0  0  0  0  0  0  0  0  0  0
    2.1642   -2.0599   -0.7547 C   0  0  0  0  0  0  0  0  0  0  0  0
    2.5800   -0.7412   -0.2332 N   0  0  0  0  0  0  0  0  0  0  0  0
    3.9084   -0.5790    0.0546 C   0  0  0  0  0  0  0  0  0  0  0  0
    4.4193    0.6335    0.5404 C   0  0  0  0  0  0  0  0  0  0  0  0
    5.8763    0.7556    0.8244 C   0  0  0  0  0  0  0  0  0  0  0  0
    6.4119    1.9416    1.3201 O   0  0  0  0  0  0  0  0  0  0  0  0
    6.6479   -0.2205    0.6185 O   0  0  0  0  0  0  0  0  0  0  0  0
    3.5297    1.7020    0.7444 C   0  0  0  0  0  0  0  0  0  0  0  0
    3.9570    2.8105    1.1717 O   0  0  0  0  0  0  0  0  0  0  0  0
    2.1590    1.5362    0.4776 C   0  0  0  0  0  0  0  0  0  0  0  0
    1.2533    2.5927    0.6940 C   0  0  0  0  0  0  0  0  0  0  0  0
   -0.1079    2.4273    0.4488 C   0  0  0  0  0  0  0  0  0  0  0  0
   -0.9462    3.4754    0.6453 F   0  0  0  0  0  0  0  0  0  0  0  0
   -0.5959    1.2007   -0.0165 C   0  0  0  0  0  0  0  0  0  0  0  0
    0.2966    0.1421   -0.2378 C   0  0  0  0  0  0  0  0  0  0  0  0
    1.6863    0.2885   -0.0079 C   0  0  0  0  0  0  0  0  0  0  0  0
   -2.0041    1.0106   -0.2472 N   0  0  0  0  0  0  0  0  0  0  0  0
   -2.9707    1.2737    0.8269 C   0  0  0  0  0  0  0  0  0  0  0  0
   -4.2588    0.4747    0.6008 C   0  0  0  0  0  0  0  0  0  0  0  0
   -3.9128   -0.8540    0.0656 N   0  0  0  0  0  0  0  0  0  0  0  0
   -5.0824   -1.7444    0.0986 C   0  0  0  0  0  0  0  0  0  0  0  0
   -3.3694   -0.7633   -1.3112 C   0  0  0  0  0  0  0  0  0  0  0  0
   -2.4874    0.4842   -1.5286 C   0  0  0  0  0  0  0  0  0  0  0  0
    1.3422   -3.9343   -0.0380 H   0  0  0  0  0  0  0  0  0  0  0  0
    0.7879   -2.4870    0.8855 H   0  0  0  0  0  0  0  0  0  0  0  0
    2.4640   -3.1186    1.1182 H   0  0  0  0  0  0  0  0  0  0  0  0
    3.0163   -2.5764   -1.2510 H   0  0  0  0  0  0  0  0  0  0  0  0
    1.4013   -1.9568   -1.5537 H   0  0  0  0  0  0  0  0  0  0  0  0
    4.5913   -1.4073   -0.0987 H   0  0  0  0  0  0  0  0  0  0  0  0
    7.4029    2.0250    1.5137 H   0  0  0  0  0  0  0  0  0  0  0  0
    1.5960    3.5548    1.0553 H   0  0  0  0  0  0  0  0  0  0  0  0
   -0.1269   -0.7956   -0.5619 H   0  0  0  0  0  0  0  0  0  0  0  0
   -3.2062    2.3577    0.8721 H   0  0  0  0  0  0  0  0  0  0  0  0
   -2.5304    0.9640    1.8005 H   0  0  0  0  0  0  0  0  0  0  0  0
   -4.7902    0.3819    1.5744 H   0  0  0  0  0  0  0  0  0  0  0  0
   -4.9260    1.0199   -0.1059 H   0  0  0  0  0  0  0  0  0  0  0  0
   -5.4060   -1.9076    1.1489 H   0  0  0  0  0  0  0  0  0  0  0  0
   -5.9310   -1.3158   -0.4801 H   0  0  0  0  0  0  0  0  0  0  0  0
   -4.8191   -2.7381   -0.3244 H   0  0  0  0  0  0  0  0  0  0  0  0
   -2.7527   -1.6684   -1.5017 H   0  0  0  0  0  0  0  0  0  0  0  0
   -4.1867   -0.7493   -2.0686 H   0  0  0  0  0  0  0  0  0  0  0  0
   -3.0912    1.2749   -2.0248 H   0  0  0  0  0  0  0  0  0  0  0  0
   -1.6457    0.2424   -2.2139 H   0  0  0  0  0  0  0  0  0  0  0  0
  1  2  1  0
  2  3  1  0
  3  4  1  0
  4  5  2  0
  5  6  1  0
  6  7  1  0
  6  8  2  0
  5  9  1  0
  9 10  2  0
  9 11  1  0
 11 12  2  0
 12 13  1  0
 13 14  1  0
 13 15  2  0
 15 16  1  0
 16 17  2  0
 15 18  1  0
 18 19  1  0
 19 20  1  0
 20 21  1  0
 21 22  1  0
 21 23  1  0
 23 24  1  0
 17  3  1  0
 24 18  1  0
 17 11  1  0
  1 25  1  0
  1 26  1  0
  1 27  1  0
  2 28  1  0
  2 29  1  0
  4 30  1  0
  7 31  1  0
 12 32  1  0
 16 33  1  0
 19 34  1  0
 19 35  1  0
 20 36  1  0
 20 37  1  0
 22 38  1  0
 22 39  1  0
 22 40  1  0
 23 41  1  0
 23 42  1  0
 24 43  1  0
 24 44  1  0
M  END
$$$$
