
     RDKit          3D

 29 30  0  0  0  0  0  0  0  0999 V2000
   -2.2493    2.5768    1.5279 C   0  0  0  0  0  0  0  0  0  0  0  0
   -2.6011    1.4470    0.7356 O   0  0  0  0  0  0  0  0  0  0  0  0
   -1.6806    0.5368    0.1912 C   0  0  0  0  0  0  0  0  0  0  0  0
   -0.2913    0.6727    0.3837 C   0  0  0  0  0  0  0  0  0  0  0  0
    0.6071   -0.2575   -0.1713 C   0  0  0  0  0  0  0  0  0  0  0  0
    0.0971   -1.3153   -0.9402 C   0  0  0  0  0  0  0  0  0  0  0  0
   -1.2776   -1.4560   -1.1342 C   0  0  0  0  0  0  0  0  0  0  0  0
   -2.1760   -0.5339   -0.5676 C   0  0  0  0  0  0  0  0  0  0  0  0
   -3.5660   -0.6422   -0.7386 O   0  0  0  0  0  0  0  0  0  0  0  0
   -4.2202   -1.6849   -1.4563 C   0  0  0  0  0  0  0  0  0  0  0  0
   -5.5761   -1.4239   -1.4956 F   0  0  0  0  0  0  0  0  0  0  0  0
   -4.0141   -2.8963   -0.8212 F   0  0  0  0  0  0  0  0  0  0  0  0
    2.0746   -0.1247    0.0185 C   0  0  0  0  0  0  0  0  0  0  0  0
    2.9203   -0.6009   -0.9377 N   0  0  0  0  0  0  0  0  0  0  0  0
    4.2467   -0.5134   -0.8187 N   0  0  0  0  0  0  0  0  0  0  0  0
    4.8196    0.0564    0.2753 C   0  0  0  0  0  0  0  0  0  0  0  0
    6.0737    0.1308    0.3695 O   0  0  0  0  0  0  0  0  0  0  0  0
    4.0092    0.5542    1.2938 C   0  0  0  0  0  0  0  0  0  0  0  0
    2.6251    0.4614    1.1690 C   0  0  0  0  0  0  0  0  0  0  0  0
   -1.7159    2.2490    2.4451 H   0  0  0  0  0  0  0  0  0  0  0  0
   -3.1740    3.1113    1.8271 H   0  0  0  0  0  0  0  0  0  0  0  0
   -1.6119    3.2714    0.9410 H   0  0  0  0  0  0  0  0  0  0  0  0
    0.0905    1.5145    0.9426 H   0  0  0  0  0  0  0  0  0  0  0  0
    0.7631   -2.0456   -1.3833 H   0  0  0  0  0  0  0  0  0  0  0  0
   -1.6306   -2.2877   -1.7278 H   0  0  0  0  0  0  0  0  0  0  0  0
   -3.8376   -1.7327   -2.4976 H   0  0  0  0  0  0  0  0  0  0  0  0
    4.8491   -0.8922   -1.5833 H   0  0  0  0  0  0  0  0  0  0  0  0
    4.4459    1.0026    2.1778 H   0  0  0  0  0  0  0  0  0  0  0  0
    2.0002    0.8222    1.9750 H   0  0  0  0  0  0  0  0  0  0  0  0
  1  2  1  0
  2  3  1  0
  3  4  2  0
  4  5  1  0
  5  6  2  0
  6  7  1  0
  7  8  2  0
  8  9  1  0
  9 10  1  0
 10 11  1  0
 10 12  1  0
  5 13  1  0
 13 14  2  0
 14 15  1  0
 15 16  1  0
 16 17  2  0
 16 18  1  0
 18 19  2  0
  8  3  1  0
 19 13  1  0
  1 20  1  0
  1 21  1  0
  1 22  1  0
  4 23  1  0
  6 24  1  0
  7 25  1  0
 10 26  1  0
 15 27  1  0
 18 28  1  0
 19 29  1  0
M  END
$$$$
