
     RDKit          3D

 47 49  0  0  0  0  0  0  0  0999 V2000
    2.2585    4.3662   -1.4049 C   0  0  0  0  0  0  0  0  0  0  0  0
    1.9350    3.1764   -0.5052 C   0  0  0  0  0  0  0  0  0  0  0  0
    1.0050    2.1800   -1.2094 C   0  0  0  0  0  0  0  0  0  0  0  0
    0.7043    1.0407   -0.3045 N   0  0  0  0  0  0  0  0  0  0  0  0
    1.7292   -0.0293   -0.4645 C   0  0  0  0  0  0  0  0  0  0  0  0
    1.8357   -0.9344    0.7690 C   0  0  0  0  0  0  0  0  0  0  0  0
    3.1208   -1.7035    0.7535 C   0  0  0  0  0  0  0  0  0  0  0  0
    3.3553   -2.8810    0.0554 C   0  0  0  0  0  0  0  0  0  0  0  0
    4.6756   -3.3326    0.1675 C   0  0  0  0  0  0  0  0  0  0  0  0
    5.4838   -2.5072    0.9394 C   0  0  0  0  0  0  0  0  0  0  0  0
    4.5555   -1.2127    1.4800 S   0  0  0  0  0  0  0  0  0  0  0  0
   -0.7332    0.6195   -0.3674 C   0  0  1  0  0  0  0  0  0  0  0  0
   -1.0264   -0.5471   -1.3269 C   0  0  0  0  0  0  0  0  0  0  0  0
   -2.5378   -0.7467   -1.4882 C   0  0  0  0  0  0  0  0  0  0  0  0
   -3.3023   -0.7091   -0.1772 C   0  0  0  0  0  0  0  0  0  0  0  0
   -4.6544   -1.1348   -0.1332 C   0  0  0  0  0  0  0  0  0  0  0  0
   -5.3286   -1.5976   -1.2662 O   0  0  0  0  0  0  0  0  0  0  0  0
   -5.3624   -1.0891    1.0717 C   0  0  0  0  0  0  0  0  0  0  0  0
   -4.7620   -0.5997    2.2290 C   0  0  0  0  0  0  0  0  0  0  0  0
   -3.4474   -0.1409    2.1935 C   0  0  0  0  0  0  0  0  0  0  0  0
   -2.7130   -0.1693    0.9982 C   0  0  0  0  0  0  0  0  0  0  0  0
   -1.2766    0.3004    1.0334 C   0  0  0  0  0  0  0  0  0  0  0  0
    2.7685    4.0221   -2.3298 H   0  0  0  0  0  0  0  0  0  0  0  0
    2.9321    5.0663   -0.8673 H   0  0  0  0  0  0  0  0  0  0  0  0
    1.3285    4.9087   -1.6784 H   0  0  0  0  0  0  0  0  0  0  0  0
    1.4422    3.5461    0.4202 H   0  0  0  0  0  0  0  0  0  0  0  0
    2.8863    2.6828   -0.2155 H   0  0  0  0  0  0  0  0  0  0  0  0
    0.0941    2.7446   -1.5034 H   0  0  0  0  0  0  0  0  0  0  0  0
    1.4674    1.8259   -2.1595 H   0  0  0  0  0  0  0  0  0  0  0  0
    2.7304    0.4360   -0.6063 H   0  0  0  0  0  0  0  0  0  0  0  0
    1.5594   -0.6345   -1.3794 H   0  0  0  0  0  0  0  0  0  0  0  0
    1.7920   -0.3197    1.6937 H   0  0  0  0  0  0  0  0  0  0  0  0
    1.0045   -1.6672    0.7806 H   0  0  0  0  0  0  0  0  0  0  0  0
    2.5989   -3.3942   -0.5239 H   0  0  0  0  0  0  0  0  0  0  0  0
    5.0354   -4.2344   -0.3096 H   0  0  0  0  0  0  0  0  0  0  0  0
    6.5331   -2.6667    1.1471 H   0  0  0  0  0  0  0  0  0  0  0  0
   -1.3641    1.4712   -0.7093 H   0  0  0  0  0  0  0  0  0  0  0  0
   -0.5879   -1.4919   -0.9407 H   0  0  0  0  0  0  0  0  0  0  0  0
   -0.5887   -0.3329   -2.3261 H   0  0  0  0  0  0  0  0  0  0  0  0
   -2.9398    0.0483   -2.1534 H   0  0  0  0  0  0  0  0  0  0  0  0
   -2.6896   -1.7282   -1.9860 H   0  0  0  0  0  0  0  0  0  0  0  0
   -4.9241   -1.6058   -2.1931 H   0  0  0  0  0  0  0  0  0  0  0  0
   -6.3906   -1.4266    1.1070 H   0  0  0  0  0  0  0  0  0  0  0  0
   -5.3201   -0.5698    3.1560 H   0  0  0  0  0  0  0  0  0  0  0  0
   -2.9974    0.2375    3.1034 H   0  0  0  0  0  0  0  0  0  0  0  0
   -1.2007    1.2192    1.6561 H   0  0  0  0  0  0  0  0  0  0  0  0
   -0.6845   -0.4853    1.5333 H   0  0  0  0  0  0  0  0  0  0  0  0
  1  2  1  0
  2  3  1  0
  3  4  1  0
  4  5  1  0
  5  6  1  0
  6  7  1  0
  7  8  2  0
  8  9  1  0
  9 10  2  0
 10 11  1  0
  4 12  1  0
 12 13  1  0
 13 14  1  0
 14 15  1  0
 15 16  2  0
 16 17  1  0
 16 18  1  0
 18 19  2  0
 19 20  1  0
 20 21  2  0
 21 22  1  0
 11  7  1  0
 22 12  1  0
 21 15  1  0
  1 23  1  0
  1 24  1  0
  1 25  1  0
  2 26  1  0
  2 27  1  0
  3 28  1  0
  3 29  1  0
  5 30  1  0
  5 31  1  0
  6 32  1  0
  6 33  1  0
  8 34  1  0
  9 35  1  0
 10 36  1  0
 12 37  1  6
 13 38  1  0
 13 39  1  0
 14 40  1  0
 14 41  1  0
 17 42  1  0
 18 43  1  0
 19 44  1  0
 20 45  1  0
 22 46  1  0
 22 47  1  0
M  END
$$$$
