
     RDKit          3D

 75 78  0  0  0  0  0  0  0  0999 V2000
    1.5590   -4.4617    1.6803 C   0  0  0  0  0  0  0  0  0  0  0  0
    1.6351   -3.3018    0.6833 C   0  0  2  0  0  0  0  0  0  0  0  0
    1.4242   -1.9448    1.3429 C   0  0  0  0  0  0  0  0  0  0  0  0
    0.8004   -1.1124    0.3223 N   0  0  0  0  0  0  0  0  0  0  0  0
    0.5264    0.2885    0.5504 C   0  0  0  0  0  0  0  0  0  0  0  0
   -0.7654    0.7155    0.5483 N   0  0  0  0  0  0  0  0  0  0  0  0
   -1.1345    1.9895    0.8474 C   0  0  0  0  0  0  0  0  0  0  0  0
   -0.1460    2.9168    1.2059 C   0  0  0  0  0  0  0  0  0  0  0  0
    1.1895    2.5192    1.2297 C   0  0  0  0  0  0  0  0  0  0  0  0
    1.5493    1.2084    0.8876 C   0  0  0  0  0  0  0  0  0  0  0  0
    2.9801    0.8520    0.8654 C   0  0  0  0  0  0  0  0  0  0  0  0
    3.7173    1.1779    1.8349 O   0  0  0  0  0  0  0  0  0  0  0  0
    3.5386    0.1721   -0.2617 N   0  0  0  0  0  0  0  0  0  0  0  0
    5.0987   -0.5754   -0.1980 S   0  0  0  0  0  6  0  0  0  0  0  0
    5.1926   -1.4199    1.0416 O   0  0  0  0  0  0  0  0  0  0  0  0
    5.2731   -1.4498   -1.4072 O   0  0  0  0  0  0  0  0  0  0  0  0
    6.3478    0.6580   -0.1849 C   0  0  0  0  0  0  0  0  0  0  0  0
    6.1805    2.0062   -0.4097 C   0  0  0  0  0  0  0  0  0  0  0  0
    7.3839    2.5973   -0.2821 N   0  0  0  0  0  0  0  0  0  0  0  0
    7.6401    4.0284   -0.3626 C   0  0  0  0  0  0  0  0  0  0  0  0
    8.3057    1.6992    0.0330 N   0  0  0  0  0  0  0  0  0  0  0  0
    7.6960    0.4980    0.0791 C   0  0  0  0  0  0  0  0  0  0  0  0
    8.3866   -0.7733    0.4493 C   0  0  0  0  0  0  0  0  0  0  0  0
   -2.5285    2.3403    0.7953 N   0  0  0  0  0  0  0  0  0  0  0  0
   -3.0960    3.5347    1.0795 C   0  0  0  0  0  0  0  0  0  0  0  0
   -4.4595    3.4325    0.8956 C   0  0  0  0  0  0  0  0  0  0  0  0
   -4.6459    2.1284    0.4938 C   0  0  0  0  0  0  0  0  0  0  0  0
   -5.8799    1.5554    0.1852 O   0  0  0  0  0  0  0  0  0  0  0  0
   -6.0049    0.1971   -0.2286 C   0  0  0  0  0  0  0  0  0  0  0  0
   -7.4844   -0.1670   -0.5100 C   0  0  0  0  0  0  0  0  0  0  0  0
   -7.5540   -1.6587   -0.9036 C   0  0  0  0  0  0  0  0  0  0  0  0
   -8.3223    0.0451    0.7698 C   0  0  0  0  0  0  0  0  0  0  0  0
   -8.0532    0.7009   -1.6672 C   0  0  0  0  0  0  0  0  0  0  0  0
   -7.2920    0.5403   -2.8129 F   0  0  0  0  0  0  0  0  0  0  0  0
   -9.3567    0.3310   -1.9541 F   0  0  0  0  0  0  0  0  0  0  0  0
   -8.0510    2.0426   -1.3252 F   0  0  0  0  0  0  0  0  0  0  0  0
   -3.4685    1.4786    0.4377 N   0  0  0  0  0  0  0  0  0  0  0  0
    0.2720   -1.9129   -0.7957 C   0  0  0  0  0  0  0  0  0  0  0  0
    1.0111   -1.5499   -2.0944 C   0  0  0  0  0  0  0  0  0  0  0  0
   -1.2470   -1.7180   -0.9897 C   0  0  0  0  0  0  0  0  0  0  0  0
    0.5647   -3.3792   -0.4048 C   0  0  0  0  0  0  0  0  0  0  0  0
    2.3569   -4.3533    2.4452 H   0  0  0  0  0  0  0  0  0  0  0  0
    0.5724   -4.4822    2.1913 H   0  0  0  0  0  0  0  0  0  0  0  0
    1.7083   -5.4254    1.1487 H   0  0  0  0  0  0  0  0  0  0  0  0
    2.6367   -3.3094    0.1961 H   0  0  0  0  0  0  0  0  0  0  0  0
    2.3970   -1.5348    1.6770 H   0  0  0  0  0  0  0  0  0  0  0  0
    0.7399   -2.0167    2.2168 H   0  0  0  0  0  0  0  0  0  0  0  0
   -0.3895    3.9383    1.4589 H   0  0  0  0  0  0  0  0  0  0  0  0
    1.9495    3.2454    1.4927 H   0  0  0  0  0  0  0  0  0  0  0  0
    3.0234    0.1735   -1.1672 H   0  0  0  0  0  0  0  0  0  0  0  0
    5.2536    2.5200   -0.6308 H   0  0  0  0  0  0  0  0  0  0  0  0
    7.0149    4.4834   -1.1600 H   0  0  0  0  0  0  0  0  0  0  0  0
    8.7094    4.2103   -0.6013 H   0  0  0  0  0  0  0  0  0  0  0  0
    7.3976    4.5041    0.6105 H   0  0  0  0  0  0  0  0  0  0  0  0
    8.1285   -1.0448    1.4939 H   0  0  0  0  0  0  0  0  0  0  0  0
    8.0688   -1.5896   -0.2324 H   0  0  0  0  0  0  0  0  0  0  0  0
    9.4866   -0.6475    0.3677 H   0  0  0  0  0  0  0  0  0  0  0  0
   -2.5736    4.4252    1.3990 H   0  0  0  0  0  0  0  0  0  0  0  0
   -5.2089    4.2000    1.0344 H   0  0  0  0  0  0  0  0  0  0  0  0
   -5.6003   -0.4620    0.5718 H   0  0  0  0  0  0  0  0  0  0  0  0
   -5.3915    0.0350   -1.1427 H   0  0  0  0  0  0  0  0  0  0  0  0
   -6.9571   -1.8536   -1.8205 H   0  0  0  0  0  0  0  0  0  0  0  0
   -8.6029   -1.9703   -1.0976 H   0  0  0  0  0  0  0  0  0  0  0  0
   -7.1522   -2.2989   -0.0884 H   0  0  0  0  0  0  0  0  0  0  0  0
   -7.9189   -0.5648    1.6069 H   0  0  0  0  0  0  0  0  0  0  0  0
   -8.3107    1.1109    1.0828 H   0  0  0  0  0  0  0  0  0  0  0  0
   -9.3795   -0.2539    0.6028 H   0  0  0  0  0  0  0  0  0  0  0  0
    2.0920   -1.7894   -2.0067 H   0  0  0  0  0  0  0  0  0  0  0  0
    0.5999   -2.1275   -2.9502 H   0  0  0  0  0  0  0  0  0  0  0  0
    0.8979   -0.4669   -2.3148 H   0  0  0  0  0  0  0  0  0  0  0  0
   -1.6465   -2.4834   -1.6897 H   0  0  0  0  0  0  0  0  0  0  0  0
   -1.7796   -1.8185   -0.0195 H   0  0  0  0  0  0  0  0  0  0  0  0
   -1.4719   -0.7225   -1.4271 H   0  0  0  0  0  0  0  0  0  0  0  0
    0.9152   -3.9945   -1.2631 H   0  0  0  0  0  0  0  0  0  0  0  0
   -0.3484   -3.8656    0.0085 H   0  0  0  0  0  0  0  0  0  0  0  0
  1  2  1  0
  2  3  1  0
  3  4  1  0
  4  5  1  0
  5  6  2  0
  6  7  1  0
  7  8  2  0
  8  9  1  0
  9 10  2  0
 10 11  1  0
 11 12  2  0
 11 13  1  0
 13 14  1  0
 14 15  2  0
 14 16  2  0
 14 17  1  0
 17 18  2  0
 18 19  1  0
 19 20  1  0
 19 21  1  0
 21 22  2  0
 22 23  1  0
  7 24  1  0
 24 25  1  0
 25 26  2  0
 26 27  1  0
 27 28  1  0
 28 29  1  0
 29 30  1  0
 30 31  1  0
 30 32  1  0
 30 33  1  0
 33 34  1  0
 33 35  1  0
 33 36  1  0
 27 37  2  0
  4 38  1  0
 38 39  1  0
 38 40  1  0
 38 41  1  0
 41  2  1  0
 10  5  1  0
 22 17  1  0
 37 24  1  0
  1 42  1  0
  1 43  1  0
  1 44  1  0
  2 45  1  6
  3 46  1  0
  3 47  1  0
  8 48  1  0
  9 49  1  0
 13 50  1  0
 18 51  1  0
 20 52  1  0
 20 53  1  0
 20 54  1  0
 23 55  1  0
 23 56  1  0
 23 57  1  0
 25 58  1  0
 26 59  1  0
 29 60  1  0
 29 61  1  0
 31 62  1  0
 31 63  1  0
 31 64  1  0
 32 65  1  0
 32 66  1  0
 32 67  1  0
 39 68  1  0
 39 69  1  0
 39 70  1  0
 40 71  1  0
 40 72  1  0
 40 73  1  0
 41 74  1  0
 41 75  1  0
M  END
$$$$
