
     RDKit          3D

 47 50  0  0  0  0  0  0  0  0999 V2000
    6.9684   -0.8808    0.8064 C   0  0  0  0  0  0  0  0  0  0  0  0
    7.2162   -1.3718   -0.5472 N   0  0  0  0  0  0  0  0  0  0  0  0
    6.4851   -0.3007   -1.7037 S   0  0  0  0  0  6  0  0  0  0  0  0
    7.0765    1.0750   -1.5651 O   0  0  0  0  0  0  0  0  0  0  0  0
    6.7718   -0.8023   -3.0911 O   0  0  0  0  0  0  0  0  0  0  0  0
    4.7397   -0.2368   -1.4655 C   0  0  0  0  0  0  0  0  0  0  0  0
    4.1474    0.8598   -0.8252 C   0  0  0  0  0  0  0  0  0  0  0  0
    2.7643    0.8952   -0.6248 C   0  0  0  0  0  0  0  0  0  0  0  0
    1.9577   -0.1763   -1.0476 C   0  0  0  0  0  0  0  0  0  0  0  0
    0.5309   -0.1539   -0.8747 N   0  0  0  0  0  0  0  0  0  0  0  0
   -0.1344    0.3982    0.2701 C   0  0  0  0  0  0  0  0  0  0  0  0
   -1.4830    0.5654    0.2433 N   0  0  0  0  0  0  0  0  0  0  0  0
   -2.1652    1.0479    1.3166 C   0  0  0  0  0  0  0  0  0  0  0  0
   -1.4559    1.3848    2.4778 C   0  0  0  0  0  0  0  0  0  0  0  0
   -0.0747    1.1977    2.4956 C   0  0  0  0  0  0  0  0  0  0  0  0
    0.5577    0.7050    1.4004 N   0  0  0  0  0  0  0  0  0  0  0  0
   -3.6339    1.2287    1.2373 C   0  0  0  0  0  0  0  0  0  0  0  0
   -4.3740    2.1433    1.9618 C   0  0  0  0  0  0  0  0  0  0  0  0
   -5.6572    2.1088    1.5539 N   0  0  0  0  0  0  0  0  0  0  0  0
   -5.6780    1.1682    0.5865 C   0  0  0  0  0  0  0  0  0  0  0  0
   -6.9254    0.8190   -0.1644 C   0  0  0  0  0  0  0  0  0  0  0  0
   -4.4707    0.5864    0.3910 N   0  0  0  0  0  0  0  0  0  0  0  0
   -4.1356   -0.4372   -0.6065 C   0  0  0  0  0  0  0  0  0  0  0  0
   -3.4891   -1.6891   -0.0268 C   0  0  0  0  0  0  0  0  0  0  0  0
   -4.9376   -1.7256   -0.4722 C   0  0  0  0  0  0  0  0  0  0  0  0
    2.5540   -1.2620   -1.7057 C   0  0  0  0  0  0  0  0  0  0  0  0
    3.9372   -1.2971   -1.9043 C   0  0  0  0  0  0  0  0  0  0  0  0
    5.8792   -0.8542    1.0273 H   0  0  0  0  0  0  0  0  0  0  0  0
    7.4041    0.1325    0.9367 H   0  0  0  0  0  0  0  0  0  0  0  0
    7.4562   -1.5602    1.5365 H   0  0  0  0  0  0  0  0  0  0  0  0
    6.7410   -2.2986   -0.6427 H   0  0  0  0  0  0  0  0  0  0  0  0
    4.7528    1.6892   -0.4831 H   0  0  0  0  0  0  0  0  0  0  0  0
    2.3258    1.7688   -0.1613 H   0  0  0  0  0  0  0  0  0  0  0  0
   -0.0594   -0.6444   -1.5845 H   0  0  0  0  0  0  0  0  0  0  0  0
   -1.9567    1.7657    3.3582 H   0  0  0  0  0  0  0  0  0  0  0  0
    0.4951    1.4387    3.3830 H   0  0  0  0  0  0  0  0  0  0  0  0
   -4.0008    2.8267    2.7126 H   0  0  0  0  0  0  0  0  0  0  0  0
   -7.4089   -0.0628    0.3037 H   0  0  0  0  0  0  0  0  0  0  0  0
   -6.6876    0.5949   -1.2250 H   0  0  0  0  0  0  0  0  0  0  0  0
   -7.6348    1.6726   -0.1370 H   0  0  0  0  0  0  0  0  0  0  0  0
   -3.8336   -0.1195   -1.6267 H   0  0  0  0  0  0  0  0  0  0  0  0
   -2.7878   -2.2023   -0.7180 H   0  0  0  0  0  0  0  0  0  0  0  0
   -3.3581   -1.7007    1.0765 H   0  0  0  0  0  0  0  0  0  0  0  0
   -5.6490   -1.7842    0.3785 H   0  0  0  0  0  0  0  0  0  0  0  0
   -5.0980   -2.2728   -1.4248 H   0  0  0  0  0  0  0  0  0  0  0  0
    1.9462   -2.0880   -2.0532 H   0  0  0  0  0  0  0  0  0  0  0  0
    4.3824   -2.1511   -2.3989 H   0  0  0  0  0  0  0  0  0  0  0  0
  1  2  1  0
  2  3  1  0
  3  4  2  0
  3  5  2  0
  3  6  1  0
  6  7  2  0
  7  8  1  0
  8  9  2  0
  9 10  1  0
 10 11  1  0
 11 12  2  0
 12 13  1  0
 13 14  2  0
 14 15  1  0
 15 16  2  0
 13 17  1  0
 17 18  2  0
 18 19  1  0
 19 20  2  0
 20 21  1  0
 20 22  1  0
 22 23  1  0
 23 24  1  0
 24 25  1  0
  9 26  1  0
 26 27  2  0
 27  6  1  0
 16 11  1  0
 22 17  1  0
 25 23  1  0
  1 28  1  0
  1 29  1  0
  1 30  1  0
  2 31  1  0
  7 32  1  0
  8 33  1  0
 10 34  1  0
 14 35  1  0
 15 36  1  0
 18 37  1  0
 21 38  1  0
 21 39  1  0
 21 40  1  0
 23 41  1  0
 24 42  1  0
 24 43  1  0
 25 44  1  0
 25 45  1  0
 26 46  1  0
 27 47  1  0
M  END
$$$$
