
     RDKit          3D

 54 57  0  0  0  0  0  0  0  0999 V2000
   -1.8395   -1.4471    2.3362 C   0  0  0  0  0  0  0  0  0  0  0  0
   -2.2879   -0.6780    1.0480 C   0  0  2  0  0  0  0  0  0  0  0  0
   -1.9750   -1.5436   -0.1978 C   0  0  0  0  0  0  0  0  0  0  0  0
   -0.4530   -1.7347   -0.3877 C   0  0  0  0  0  0  0  0  0  0  0  0
    0.3511   -0.3888   -0.3984 C   0  0  1  0  0  0  0  0  0  0  0  0
   -0.0278    0.5361    0.8093 C   0  0  2  0  0  0  0  0  0  0  0  0
   -1.5699    0.6685    0.8724 C   0  0  2  0  0  0  0  0  0  0  0  0
   -2.1890    1.5773    1.9319 C   0  0  0  0  0  0  0  0  0  0  0  0
   -3.6470    1.0963    2.0653 C   0  0  0  0  0  0  0  0  0  0  0  0
   -3.7704   -0.2072    1.2172 C   0  0  2  0  0  0  0  0  0  0  0  0
   -4.5849   -1.1863    1.8258 O   0  0  0  0  0  0  0  0  0  0  0  0
   -4.4022    0.1311   -0.0784 C   0  0  0  0  0  0  0  0  0  0  0  0
   -4.9192    0.4092   -1.1318 C   0  0  0  0  0  0  0  0  0  0  0  0
    0.6357    1.9286    0.6538 C   0  0  1  0  0  0  0  0  0  0  0  0
    0.6091    2.6367    1.8676 O   0  0  0  0  0  0  0  0  0  0  0  0
    2.0480    1.8865    0.1247 C   0  0  0  0  0  0  0  0  0  0  0  0
    2.5943    0.8116   -0.4782 C   0  0  0  0  0  0  0  0  0  0  0  0
    3.8664    0.9821   -1.2782 C   0  0  0  0  0  0  0  0  0  0  0  0
    3.5855    0.7361   -2.7755 C   0  0  1  0  0  0  0  0  0  0  0  0
    4.7779    0.3333   -3.3988 O   0  0  0  0  0  0  0  0  0  0  0  0
    2.4729   -0.3200   -3.0167 C   0  0  0  0  0  0  0  0  0  0  0  0
    2.3351   -1.2919   -1.8331 C   0  0  0  0  0  0  0  0  0  0  0  0
    1.9173   -0.5655   -0.5032 C   0  0  2  0  0  0  0  0  0  0  0  0
    2.4879   -1.3838    0.6839 C   0  0  0  0  0  0  0  0  0  0  0  0
   -2.3760   -2.4171    2.4065 H   0  0  0  0  0  0  0  0  0  0  0  0
   -2.0566   -0.8707    3.2591 H   0  0  0  0  0  0  0  0  0  0  0  0
   -0.7612   -1.6880    2.3571 H   0  0  0  0  0  0  0  0  0  0  0  0
   -2.4665   -2.5363   -0.1027 H   0  0  0  0  0  0  0  0  0  0  0  0
   -2.3685   -1.0693   -1.1223 H   0  0  0  0  0  0  0  0  0  0  0  0
   -0.0743   -2.4236    0.3899 H   0  0  0  0  0  0  0  0  0  0  0  0
   -0.3352   -2.2599   -1.3549 H   0  0  0  0  0  0  0  0  0  0  0  0
    0.0254    0.1452   -1.3198 H   0  0  0  0  0  0  0  0  0  0  0  0
    0.3312    0.0979    1.7580 H   0  0  0  0  0  0  0  0  0  0  0  0
   -1.8798    1.1030   -0.1095 H   0  0  0  0  0  0  0  0  0  0  0  0
   -2.1509    2.6425    1.6152 H   0  0  0  0  0  0  0  0  0  0  0  0
   -1.6548    1.4672    2.9009 H   0  0  0  0  0  0  0  0  0  0  0  0
   -3.8658    0.9141    3.1397 H   0  0  0  0  0  0  0  0  0  0  0  0
   -4.3491    1.8899    1.7228 H   0  0  0  0  0  0  0  0  0  0  0  0
   -4.4305   -1.1856    2.8051 H   0  0  0  0  0  0  0  0  0  0  0  0
   -5.3719    0.6533   -2.0566 H   0  0  0  0  0  0  0  0  0  0  0  0
    0.0538    2.5151   -0.0902 H   0  0  0  0  0  0  0  0  0  0  0  0
    1.1801    2.1442    2.5144 H   0  0  0  0  0  0  0  0  0  0  0  0
    2.5706    2.8386    0.0840 H   0  0  0  0  0  0  0  0  0  0  0  0
    4.3176    1.9904   -1.1461 H   0  0  0  0  0  0  0  0  0  0  0  0
    4.6130    0.2464   -0.9079 H   0  0  0  0  0  0  0  0  0  0  0  0
    3.2463    1.7025   -3.2186 H   0  0  0  0  0  0  0  0  0  0  0  0
    4.6661    0.5021   -4.3709 H   0  0  0  0  0  0  0  0  0  0  0  0
    1.5021    0.1969   -3.1757 H   0  0  0  0  0  0  0  0  0  0  0  0
    2.6843   -0.8969   -3.9434 H   0  0  0  0  0  0  0  0  0  0  0  0
    1.6441   -2.1069   -2.1109 H   0  0  0  0  0  0  0  0  0  0  0  0
    3.3230   -1.7900   -1.7084 H   0  0  0  0  0  0  0  0  0  0  0  0
    2.1248   -2.4311    0.6677 H   0  0  0  0  0  0  0  0  0  0  0  0
    3.5968   -1.4305    0.6251 H   0  0  0  0  0  0  0  0  0  0  0  0
    2.2466   -0.9302    1.6646 H   0  0  0  0  0  0  0  0  0  0  0  0
  2  1  1  1
  2  3  1  0
  3  4  1  0
  4  5  1  0
  5  6  1  0
  6  7  1  0
  7  8  1  0
  8  9  1  0
  9 10  1  0
 10 11  1  0
 10 12  1  6
 12 13  3  0
  6 14  1  0
 14 15  1  0
 14 16  1  0
 16 17  2  0
 17 18  1  0
 18 19  1  0
 19 20  1  0
 19 21  1  0
 21 22  1  0
 22 23  1  0
 23 24  1  1
  7  2  1  0
 23 17  1  0
 10  2  1  0
 23  5  1  0
  1 25  1  0
  1 26  1  0
  1 27  1  0
  3 28  1  0
  3 29  1  0
  4 30  1  0
  4 31  1  0
  5 32  1  6
  6 33  1  1
  7 34  1  6
  8 35  1  0
  8 36  1  0
  9 37  1  0
  9 38  1  0
 11 39  1  0
 13 40  1  0
 14 41  1  6
 15 42  1  0
 16 43  1  0
 18 44  1  0
 18 45  1  0
 19 46  1  6
 20 47  1  0
 21 48  1  0
 21 49  1  0
 22 50  1  0
 22 51  1  0
 24 52  1  0
 24 53  1  0
 24 54  1  0
M  END
$$$$
