
     RDKit          3D

 28 29  0  0  0  0  0  0  0  0999 V2000
    3.5150    0.6961    1.2925 C   0  0  0  0  0  0  0  0  0  0  0  0
    2.3334    0.4139    0.4856 N   0  0  0  0  0  0  0  0  0  0  0  0
    2.3208    0.2641   -0.9210 C   0  0  0  0  0  0  0  0  0  0  0  0
    3.2740    0.6316   -1.6582 O   0  0  0  0  0  0  0  0  0  0  0  0
    1.0815   -0.3851   -1.4372 C   0  0  0  0  0  0  0  0  0  0  0  0
    0.2508   -0.7065   -0.1538 C   0  0  0  0  0  0  0  0  0  0  0  0
    0.0624   -2.2284    0.0168 C   0  0  0  0  0  0  0  0  0  0  0  0
    1.1523   -0.2119    0.9540 C   0  0  0  0  0  0  0  0  0  0  0  0
    0.9202   -0.3903    2.1811 O   0  0  0  0  0  0  0  0  0  0  0  0
   -1.1098    0.0052   -0.2045 C   0  0  0  0  0  0  0  0  0  0  0  0
   -1.4636    1.0442    0.6880 C   0  0  0  0  0  0  0  0  0  0  0  0
   -2.7096    1.6717    0.5951 C   0  0  0  0  0  0  0  0  0  0  0  0
   -3.6185    1.2872   -0.3906 C   0  0  0  0  0  0  0  0  0  0  0  0
   -3.2814    0.2785   -1.2925 C   0  0  0  0  0  0  0  0  0  0  0  0
   -2.0382   -0.3538   -1.2058 C   0  0  0  0  0  0  0  0  0  0  0  0
    4.1052   -0.2343    1.4275 H   0  0  0  0  0  0  0  0  0  0  0  0
    4.1442    1.4613    0.7912 H   0  0  0  0  0  0  0  0  0  0  0  0
    3.2118    1.0867    2.2867 H   0  0  0  0  0  0  0  0  0  0  0  0
    1.3519   -1.3000   -2.0082 H   0  0  0  0  0  0  0  0  0  0  0  0
    0.5604    0.3232   -2.1178 H   0  0  0  0  0  0  0  0  0  0  0  0
    1.0460   -2.7352    0.1281 H   0  0  0  0  0  0  0  0  0  0  0  0
   -0.5475   -2.4432    0.9209 H   0  0  0  0  0  0  0  0  0  0  0  0
   -0.4460   -2.6732   -0.8637 H   0  0  0  0  0  0  0  0  0  0  0  0
   -0.7866    1.3879    1.4565 H   0  0  0  0  0  0  0  0  0  0  0  0
   -2.9687    2.4625    1.2873 H   0  0  0  0  0  0  0  0  0  0  0  0
   -4.5812    1.7769   -0.4604 H   0  0  0  0  0  0  0  0  0  0  0  0
   -3.9822   -0.0112   -2.0648 H   0  0  0  0  0  0  0  0  0  0  0  0
   -1.7964   -1.1179   -1.9329 H   0  0  0  0  0  0  0  0  0  0  0  0
  1  2  1  0
  2  3  1  0
  3  4  2  0
  3  5  1  0
  5  6  1  0
  6  7  1  0
  6  8  1  0
  8  9  2  0
  6 10  1  0
 10 11  2  0
 11 12  1  0
 12 13  2  0
 13 14  1  0
 14 15  2  0
  8  2  1  0
 15 10  1  0
  1 16  1  0
  1 17  1  0
  1 18  1  0
  5 19  1  0
  5 20  1  0
  7 21  1  0
  7 22  1  0
  7 23  1  0
 11 24  1  0
 12 25  1  0
 13 26  1  0
 14 27  1  0
 15 28  1  0
M  END
$$$$
