
     RDKit          3D

 55 57  0  0  0  0  0  0  0  0999 V2000
    1.7478    3.5819    3.7300 C   0  0  0  0  0  0  0  0  0  0  0  0
    1.2965    3.1787    2.3961 N   0  0  0  0  0  0  0  0  0  0  0  0
    1.7826    3.9236    1.2250 C   0  0  0  0  0  0  0  0  0  0  0  0
    2.6782    3.0537    0.3897 C   0  0  0  0  0  0  0  0  0  0  0  0
    4.0691    3.0521    0.5758 C   0  0  0  0  0  0  0  0  0  0  0  0
    4.8433    2.2003   -0.1488 N   0  0  0  0  0  0  0  0  0  0  0  0
    4.2905    1.3379   -1.0410 C   0  0  0  0  0  0  0  0  0  0  0  0
    5.0720    0.4858   -1.7514 N   0  0  0  0  0  0  0  0  0  0  0  0
    4.5209   -0.3917   -2.6328 C   0  0  0  0  0  0  0  0  0  0  0  0
    5.3572   -1.2791   -3.3712 N   0  0  0  0  0  0  0  0  0  0  0  0
    3.1710   -0.4277   -2.8058 N   0  0  0  0  0  0  0  0  0  0  0  0
    2.3443    0.4056   -2.1183 C   0  0  0  0  0  0  0  0  0  0  0  0
    0.9308    0.3206   -2.3198 N   0  0  0  0  0  0  0  0  0  0  0  0
    2.8974    1.3232   -1.2156 C   0  0  0  0  0  0  0  0  0  0  0  0
    2.1272    2.1817   -0.4981 N   0  0  0  0  0  0  0  0  0  0  0  0
    0.5702    1.9429    2.2183 C   0  0  0  0  0  0  0  0  0  0  0  0
   -0.4847    1.8636    1.2945 C   0  0  0  0  0  0  0  0  0  0  0  0
   -1.1230    0.6458    1.0481 C   0  0  0  0  0  0  0  0  0  0  0  0
   -0.7204   -0.5190    1.7230 C   0  0  0  0  0  0  0  0  0  0  0  0
    0.3077   -0.4319    2.6764 C   0  0  0  0  0  0  0  0  0  0  0  0
    0.9508    0.7853    2.9171 C   0  0  0  0  0  0  0  0  0  0  0  0
   -1.3690   -1.8210    1.4475 C   0  0  0  0  0  0  0  0  0  0  0  0
   -1.4088   -2.6966    2.3549 O   0  0  0  0  0  0  0  0  0  0  0  0
   -1.9284   -2.1073    0.1548 N   0  0  0  0  0  0  0  0  0  0  0  0
   -2.8062   -3.2614   -0.0788 C   0  0  1  0  0  0  0  0  0  0  0  0
   -4.2392   -2.9612    0.4233 C   0  0  0  0  0  0  0  0  0  0  0  0
   -4.8393   -1.6341   -0.0782 C   0  0  0  0  0  0  0  0  0  0  0  0
   -5.1015   -1.6432   -1.5516 C   0  0  0  0  0  0  0  0  0  0  0  0
   -4.2499   -0.9570   -2.4117 O   0  0  0  0  0  0  0  0  0  0  0  0
   -6.0797   -2.2883   -2.0151 O   0  0  0  0  0  0  0  0  0  0  0  0
   -2.7776   -3.6948   -1.5257 C   0  0  0  0  0  0  0  0  0  0  0  0
   -3.7457   -4.5722   -2.0068 O   0  0  0  0  0  0  0  0  0  0  0  0
   -1.8404   -3.3307   -2.2868 O   0  0  0  0  0  0  0  0  0  0  0  0
    2.7928    3.2421    3.8888 H   0  0  0  0  0  0  0  0  0  0  0  0
    1.7023    4.6868    3.8326 H   0  0  0  0  0  0  0  0  0  0  0  0
    1.0945    3.1434    4.5145 H   0  0  0  0  0  0  0  0  0  0  0  0
    0.9243    4.2755    0.6157 H   0  0  0  0  0  0  0  0  0  0  0  0
    2.3372    4.8352    1.5399 H   0  0  0  0  0  0  0  0  0  0  0  0
    4.5325    3.7167    1.2934 H   0  0  0  0  0  0  0  0  0  0  0  0
    6.3932   -1.2592   -3.2423 H   0  0  0  0  0  0  0  0  0  0  0  0
    4.9414   -1.9571   -4.0477 H   0  0  0  0  0  0  0  0  0  0  0  0
    0.2665    0.9367   -1.8007 H   0  0  0  0  0  0  0  0  0  0  0  0
    0.5393   -0.3777   -2.9901 H   0  0  0  0  0  0  0  0  0  0  0  0
   -0.8136    2.7436    0.7585 H   0  0  0  0  0  0  0  0  0  0  0  0
   -1.9393    0.6245    0.3384 H   0  0  0  0  0  0  0  0  0  0  0  0
    0.6360   -1.3129    3.2140 H   0  0  0  0  0  0  0  0  0  0  0  0
    1.7698    0.8156    3.6241 H   0  0  0  0  0  0  0  0  0  0  0  0
   -1.7624   -1.4337   -0.6267 H   0  0  0  0  0  0  0  0  0  0  0  0
   -2.4202   -4.1296    0.4988 H   0  0  0  0  0  0  0  0  0  0  0  0
   -4.9213   -3.8022    0.1705 H   0  0  0  0  0  0  0  0  0  0  0  0
   -4.2073   -2.9134    1.5336 H   0  0  0  0  0  0  0  0  0  0  0  0
   -4.1739   -0.7835    0.1807 H   0  0  0  0  0  0  0  0  0  0  0  0
   -5.8026   -1.4601    0.4480 H   0  0  0  0  0  0  0  0  0  0  0  0
   -4.4052   -0.9657   -3.4126 H   0  0  0  0  0  0  0  0  0  0  0  0
   -3.7272   -4.8905   -2.9682 H   0  0  0  0  0  0  0  0  0  0  0  0
  1  2  1  0
  2  3  1  0
  3  4  1  0
  4  5  2  0
  5  6  1  0
  6  7  2  0
  7  8  1  0
  8  9  2  0
  9 10  1  0
  9 11  1  0
 11 12  2  0
 12 13  1  0
 12 14  1  0
 14 15  2  0
  2 16  1  0
 16 17  2  0
 17 18  1  0
 18 19  2  0
 19 20  1  0
 20 21  2  0
 19 22  1  0
 22 23  2  0
 22 24  1  0
 24 25  1  0
 25 26  1  0
 26 27  1  0
 27 28  1  0
 28 29  1  0
 28 30  2  0
 25 31  1  0
 31 32  1  0
 31 33  2  0
 15  4  1  0
 21 16  1  0
 14  7  1  0
  1 34  1  0
  1 35  1  0
  1 36  1  0
  3 37  1  0
  3 38  1  0
  5 39  1  0
 10 40  1  0
 10 41  1  0
 13 42  1  0
 13 43  1  0
 17 44  1  0
 18 45  1  0
 20 46  1  0
 21 47  1  0
 24 48  1  0
 25 49  1  1
 26 50  1  0
 26 51  1  0
 27 52  1  0
 27 53  1  0
 29 54  1  0
 32 55  1  0
M  END
$$$$
