
     RDKit          2D

132137  0  0  0  0  0  0  0  0999 V2000
    6.2626    1.8326    0.0000 C   0  0  0  0  0  0  0  0  0  0  0  0
    5.5126    0.5336    0.0000 O   0  0  0  0  0  0  0  0  0  0  0  0
    4.0126    0.5336    0.0000 C   0  0  0  0  0  0  0  0  0  0  0  0
    3.2626    1.8326    0.0000 O   0  0  0  0  0  0  0  0  0  0  0  0
    3.2626   -0.7654    0.0000 N   0  0  0  0  0  0  0  0  0  0  0  0
    4.0126   -2.0645    0.0000 C   0  0  0  0  0  0  0  0  0  0  0  0
    5.3116   -1.3145    0.0000 C   0  0  0  0  0  0  0  0  0  0  0  0
    6.6106   -0.5645    0.0000 C   0  0  0  0  0  0  0  0  0  0  0  0
    6.0616   -2.6135    0.0000 C   0  0  0  0  0  0  0  0  0  0  0  0
    2.7135   -2.8145    0.0000 C   0  0  0  0  0  0  0  0  0  0  0  0
    2.1401   -2.2607    0.0000 O   0  0  0  0  0  0  0  0  0  0  0  0
    2.7135   -4.3145    0.0000 N   0  0  0  0  0  0  0  0  0  0  0  0
    3.9271   -5.1962    0.0000 C   0  0  0  0  0  0  0  0  0  0  0  0
    3.4635   -6.6227    0.0000 C   0  0  0  0  0  0  0  0  0  0  0  0
    1.9635   -6.6227    0.0000 C   0  0  0  0  0  0  0  0  0  0  0  0
    1.5000   -5.1962    0.0000 C   0  0  0  0  0  0  0  0  0  0  0  0
    0.7500   -3.8971    0.0000 C   0  0  0  0  0  0  0  0  0  0  0  0
   -0.7054   -4.2601    0.0000 O   0  0  0  0  0  0  0  0  0  0  0  0
    1.5000   -2.5981    0.0000 N   0  0  0  0  0  0  0  0  0  0  0  0
    0.7500   -1.2990    0.0000 C   0  0  0  0  0  0  0  0  0  0  0  0
    1.5000    0.0000    0.0000 C   0  0  0  0  0  0  0  0  0  0  0  0
    0.7500    1.2990    0.0000 C   0  0  0  0  0  0  0  0  0  0  0  0
   -0.7500    1.2990    0.0000 C   0  0  0  0  0  0  0  0  0  0  0  0
   -1.5000    0.0000    0.0000 C   0  0  0  0  0  0  0  0  0  0  0  0
   -0.7500   -1.2990    0.0000 C   0  0  0  0  0  0  0  0  0  0  0  0
   -1.5000    2.5981    0.0000 C   0  0  0  0  0  0  0  0  0  0  0  0
   -1.9635    4.0247    0.0000 C   0  0  0  0  0  0  0  0  0  0  0  0
   -3.4635    4.0247    0.0000 C   0  0  0  0  0  0  0  0  0  0  0  0
   -3.9271    2.5981    0.0000 C   0  0  0  0  0  0  0  0  0  0  0  0
   -2.7135    1.7164    0.0000 N   0  0  0  0  0  0  0  0  0  0  0  0
   -2.7135    0.2164    0.0000 C   0  0  0  0  0  0  0  0  0  0  0  0
   -4.0126   -0.5336    0.0000 C   0  0  0  0  0  0  0  0  0  0  0  0
   -4.0126   -2.0336    0.0000 C   0  0  0  0  0  0  0  0  0  0  0  0
   -2.7135   -2.7836    0.0000 C   0  0  0  0  0  0  0  0  0  0  0  0
   -1.4145   -2.0336    0.0000 C   0  0  0  0  0  0  0  0  0  0  0  0
   -1.4145   -0.5336    0.0000 C   0  0  0  0  0  0  0  0  0  0  0  0
   -2.7135   -4.2836    0.0000 C   0  0  0  0  0  0  0  0  0  0  0  0
   -2.7135   -5.7836    0.0000 C   0  0  0  0  0  0  0  0  0  0  0  0
   -4.2135   -4.2836    0.0000 C   0  0  0  0  0  0  0  0  0  0  0  0
   -1.2135   -4.2836    0.0000 C   0  0  0  0  0  0  0  0  0  0  0  0
   -5.2974    3.2082    0.0000 C   0  0  0  0  0  0  0  0  0  0  0  0
   -5.4542    4.7000    0.0000 C   0  0  0  0  0  0  0  0  0  0  0  0
   -6.8245    5.3101    0.0000 C   0  0  0  0  0  0  0  0  0  0  0  0
   -8.0380    4.4284    0.0000 C   0  0  0  0  0  0  0  0  0  0  0  0
   -9.4083    5.0385    0.0000 N   0  0  0  0  0  0  0  0  0  0  0  0
  -10.6218    4.1568    0.0000 C   0  0  0  0  0  0  0  0  0  0  0  0
  -10.2844    2.6953    0.0000 O   0  0  0  0  0  0  0  0  0  0  0  0
  -11.9922    4.7669    0.0000 C   0  0  0  0  0  0  0  0  0  0  0  0
  -13.2057    5.6486    0.0000 C   0  0  0  0  0  0  0  0  0  0  0  0
  -14.4192    4.7669    0.0000 C   0  0  0  0  0  0  0  0  0  0  0  0
  -13.9557    3.3403    0.0000 C   0  0  0  0  0  0  0  0  0  0  0  0
  -12.4557    3.3403    0.0000 N   0  0  0  0  0  0  0  0  0  0  0  0
  -11.5740    2.1268    0.0000 C   0  0  0  0  0  0  0  0  0  0  0  0
  -10.0742    2.1006    0.0000 O   0  0  0  0  0  0  0  0  0  0  0  0
  -12.1841    0.7565    0.0000 C   0  0  0  0  0  0  0  0  0  0  0  0
  -10.8138    0.1464    0.0000 N   0  0  0  0  0  0  0  0  0  0  0  0
  -10.6570   -1.3454    0.0000 C   0  0  0  0  0  0  0  0  0  0  0  0
   -9.2867   -1.9555    0.0000 O   0  0  0  0  0  0  0  0  0  0  0  0
  -11.8705   -2.2271    0.0000 O   0  0  0  0  0  0  0  0  0  0  0  0
  -11.7137   -3.7189    0.0000 C   0  0  0  0  0  0  0  0  0  0  0  0
  -12.7942   -0.6138    0.0000 C   0  0  0  0  0  0  0  0  0  0  0  0
  -13.4043   -1.9841    0.0000 C   0  0  0  0  0  0  0  0  0  0  0  0
  -14.1645   -0.0037    0.0000 C   0  0  0  0  0  0  0  0  0  0  0  0
   -7.8812    2.9366    0.0000 C   0  0  0  0  0  0  0  0  0  0  0  0
   -6.5109    2.3265    0.0000 C   0  0  0  0  0  0  0  0  0  0  0  0
    7.0126    3.1317    0.0000 H   0  0  0  0  0  0  0  0  0  0  0  0
    7.5616    1.0826    0.0000 H   0  0  0  0  0  0  0  0  0  0  0  0
    4.9635    2.5826    0.0000 H   0  0  0  0  0  0  0  0  0  0  0  0
    1.7626   -0.7654    0.0000 H   0  0  0  0  0  0  0  0  0  0  0  0
    4.7626   -3.3635    0.0000 H   0  0  0  0  0  0  0  0  0  0  0  0
    4.8982    0.1274    0.0000 H   0  0  0  0  0  0  0  0  0  0  0  0
    7.9097    0.1855    0.0000 H   0  0  0  0  0  0  0  0  0  0  0  0
    7.5134   -1.7624    0.0000 H   0  0  0  0  0  0  0  0  0  0  0  0
    6.1973    0.8774    0.0000 H   0  0  0  0  0  0  0  0  0  0  0  0
    6.8116   -3.9126    0.0000 H   0  0  0  0  0  0  0  0  0  0  0  0
    7.4424   -2.0275    0.0000 H   0  0  0  0  0  0  0  0  0  0  0  0
    4.7626   -3.3635    0.0000 H   0  0  0  0  0  0  0  0  0  0  0  0
    5.2974   -5.8063    0.0000 H   0  0  0  0  0  0  0  0  0  0  0  0
    4.6771   -3.8971    0.0000 H   0  0  0  0  0  0  0  0  0  0  0  0
    3.3067   -8.1145    0.0000 H   0  0  0  0  0  0  0  0  0  0  0  0
    4.9307   -6.9346    0.0000 H   0  0  0  0  0  0  0  0  0  0  0  0
    0.4963   -6.9346    0.0000 H   0  0  0  0  0  0  0  0  0  0  0  0
    2.1203   -8.1145    0.0000 H   0  0  0  0  0  0  0  0  0  0  0  0
    0.1297   -5.8063    0.0000 H   0  0  0  0  0  0  0  0  0  0  0  0
    2.9554   -2.2351    0.0000 H   0  0  0  0  0  0  0  0  0  0  0  0
    2.9554    0.3630    0.0000 H   0  0  0  0  0  0  0  0  0  0  0  0
    1.5000    2.5981    0.0000 H   0  0  0  0  0  0  0  0  0  0  0  0
   -2.9554   -0.3630    0.0000 H   0  0  0  0  0  0  0  0  0  0  0  0
   -0.9845   -2.7806    0.0000 H   0  0  0  0  0  0  0  0  0  0  0  0
   -0.1297    3.2082    0.0000 H   0  0  0  0  0  0  0  0  0  0  0  0
   -0.4963    4.3365    0.0000 H   0  0  0  0  0  0  0  0  0  0  0  0
   -2.1203    5.5164    0.0000 H   0  0  0  0  0  0  0  0  0  0  0  0
   -3.3067    5.5164    0.0000 H   0  0  0  0  0  0  0  0  0  0  0  0
   -4.8117    4.6823    0.0000 H   0  0  0  0  0  0  0  0  0  0  0  0
   -4.6771    1.2990    0.0000 H   0  0  0  0  0  0  0  0  0  0  0  0
   -5.3116    0.2164    0.0000 H   0  0  0  0  0  0  0  0  0  0  0  0
   -5.3116   -2.7836    0.0000 H   0  0  0  0  0  0  0  0  0  0  0  0
   -0.1154   -2.7836    0.0000 H   0  0  0  0  0  0  0  0  0  0  0  0
   -0.1154    0.2164    0.0000 H   0  0  0  0  0  0  0  0  0  0  0  0
   -2.7135   -7.2836    0.0000 H   0  0  0  0  0  0  0  0  0  0  0  0
   -4.2023   -5.9664    0.0000 H   0  0  0  0  0  0  0  0  0  0  0  0
   -1.2247   -5.9664    0.0000 H   0  0  0  0  0  0  0  0  0  0  0  0
   -5.7135   -4.2836    0.0000 H   0  0  0  0  0  0  0  0  0  0  0  0
   -4.3964   -5.7724    0.0000 H   0  0  0  0  0  0  0  0  0  0  0  0
   -4.5765   -2.8282    0.0000 H   0  0  0  0  0  0  0  0  0  0  0  0
    0.2419   -4.6466    0.0000 H   0  0  0  0  0  0  0  0  0  0  0  0
   -1.0307   -5.7724    0.0000 H   0  0  0  0  0  0  0  0  0  0  0  0
   -0.6759   -2.8833    0.0000 H   0  0  0  0  0  0  0  0  0  0  0  0
   -4.2406    5.5816    0.0000 H   0  0  0  0  0  0  0  0  0  0  0  0
   -6.9813    6.8019    0.0000 H   0  0  0  0  0  0  0  0  0  0  0  0
   -9.5651    6.5303    0.0000 H   0  0  0  0  0  0  0  0  0  0  0  0
  -11.2422    6.0660    0.0000 H   0  0  0  0  0  0  0  0  0  0  0  0
  -12.2020    6.7633    0.0000 H   0  0  0  0  0  0  0  0  0  0  0  0
  -14.2094    6.7633    0.0000 H   0  0  0  0  0  0  0  0  0  0  0  0
  -15.1692    6.0660    0.0000 H   0  0  0  0  0  0  0  0  0  0  0  0
  -15.7895    4.1568    0.0000 H   0  0  0  0  0  0  0  0  0  0  0  0
  -15.4229    3.0285    0.0000 H   0  0  0  0  0  0  0  0  0  0  0  0
  -13.7989    1.8486    0.0000 H   0  0  0  0  0  0  0  0  0  0  0  0
  -13.5544    1.3666    0.0000 H   0  0  0  0  0  0  0  0  0  0  0  0
   -9.6003    1.0281    0.0000 H   0  0  0  0  0  0  0  0  0  0  0  0
  -11.5569   -5.2106    0.0000 H   0  0  0  0  0  0  0  0  0  0  0  0
  -13.2055   -3.8756    0.0000 H   0  0  0  0  0  0  0  0  0  0  0  0
  -10.2220   -3.5621    0.0000 H   0  0  0  0  0  0  0  0  0  0  0  0
  -11.6123   -1.5374    0.0000 H   0  0  0  0  0  0  0  0  0  0  0  0
  -14.0144   -3.3545    0.0000 H   0  0  0  0  0  0  0  0  0  0  0  0
  -14.8388   -1.5456    0.0000 H   0  0  0  0  0  0  0  0  0  0  0  0
  -12.2224   -2.9077    0.0000 H   0  0  0  0  0  0  0  0  0  0  0  0
  -15.5349    0.6064    0.0000 H   0  0  0  0  0  0  0  0  0  0  0  0
  -14.9371   -1.2894    0.0000 H   0  0  0  0  0  0  0  0  0  0  0  0
  -13.5544    1.3666    0.0000 H   0  0  0  0  0  0  0  0  0  0  0  0
   -9.0947    2.0549    0.0000 H   0  0  0  0  0  0  0  0  0  0  0  0
   -6.3541    0.8347    0.0000 H   0  0  0  0  0  0  0  0  0  0  0  0
  1  2  1  0
  2  3  1  0
  3  4  2  0
  3  5  1  0
  5  6  1  0
  6  7  1  0
  7  8  1  0
  7  9  1  0
  6 10  1  0
 10 11  2  0
 10 12  1  0
 12 13  1  0
 13 14  1  0
 14 15  1  0
 15 16  1  0
 16 17  1  0
 17 18  2  0
 17 19  1  0
 19 20  1  0
 20 21  2  0
 21 22  1  0
 22 23  2  0
 23 24  1  0
 24 25  2  0
 23 26  1  0
 26 27  1  0
 27 28  1  0
 28 29  1  0
 29 30  1  0
 30 31  1  0
 31 32  2  0
 32 33  1  0
 33 34  2  0
 34 35  1  0
 35 36  2  0
 34 37  1  0
 37 38  1  0
 37 39  1  0
 37 40  1  0
 29 41  1  0
 41 42  2  0
 42 43  1  0
 43 44  2  0
 44 45  1  0
 45 46  1  0
 46 47  2  0
 46 48  1  0
 48 49  1  0
 49 50  1  0
 50 51  1  0
 51 52  1  0
 52 53  1  0
 53 54  2  0
 53 55  1  0
 55 56  1  0
 56 57  1  0
 57 58  2  0
 57 59  1  0
 59 60  1  0
 55 61  1  0
 61 62  1  0
 61 63  1  0
 44 64  1  0
 64 65  2  0
 16 12  1  0
 25 20  1  0
 30 26  1  0
 36 31  1  0
 65 41  1  0
 52 48  1  0
  1 66  1  0
  1 67  1  0
  1 68  1  0
  5 69  1  0
  6 70  1  6
  7 71  1  0
  8 72  1  0
  8 73  1  0
  8 74  1  0
  9 75  1  0
  9 76  1  0
  9 77  1  0
 13 78  1  0
 13 79  1  0
 14 80  1  0
 14 81  1  0
 15 82  1  0
 15 83  1  0
 16 84  1  6
 19 85  1  0
 21 86  1  0
 22 87  1  0
 24 88  1  0
 25 89  1  0
 26 90  1  6
 27 91  1  0
 27 92  1  0
 28 93  1  0
 28 94  1  0
 29 95  1  1
 32 96  1  0
 33 97  1  0
 35 98  1  0
 36 99  1  0
 38100  1  0
 38101  1  0
 38102  1  0
 39103  1  0
 39104  1  0
 39105  1  0
 40106  1  0
 40107  1  0
 40108  1  0
 42109  1  0
 43110  1  0
 45111  1  0
 48112  1  6
 49113  1  0
 49114  1  0
 50115  1  0
 50116  1  0
 51117  1  0
 51118  1  0
 55119  1  6
 56120  1  0
 60121  1  0
 60122  1  0
 60123  1  0
 61124  1  0
 62125  1  0
 62126  1  0
 62127  1  0
 63128  1  0
 63129  1  0
 63130  1  0
 64131  1  0
 65132  1  0
M  END
$$$$
