
     RDKit          3D

 34 36  0  0  0  0  0  0  0  0999 V2000
   -6.5338    0.0200   -0.1344 N   0  0  0  0  0  0  0  0  0  0  0  0
   -5.5283   -0.3836    1.2123 S   0  0  0  0  0  6  0  0  0  0  0  0
   -5.8951   -1.7503    1.7193 O   0  0  0  0  0  0  0  0  0  0  0  0
   -5.7386    0.6131    2.3179 O   0  0  0  0  0  0  0  0  0  0  0  0
   -3.8415   -0.3660    0.7088 C   0  0  0  0  0  0  0  0  0  0  0  0
   -3.2270   -1.5399    0.2544 C   0  0  0  0  0  0  0  0  0  0  0  0
   -1.8905   -1.5214   -0.1549 C   0  0  0  0  0  0  0  0  0  0  0  0
   -1.1557   -0.3262   -0.1336 C   0  0  0  0  0  0  0  0  0  0  0  0
    0.2241   -0.3378   -0.5390 N   0  0  0  0  0  0  0  0  0  0  0  0
    0.9017    0.7972   -1.0979 C   0  0  0  0  0  0  0  0  0  0  0  0
    0.2457    1.6940   -1.6933 O   0  0  0  0  0  0  0  0  0  0  0  0
    2.3704    0.8944   -1.0602 C   0  0  0  0  0  0  0  0  0  0  0  0
    3.0894    1.6399   -1.9351 N   0  0  0  0  0  0  0  0  0  0  0  0
    4.3763    1.5175   -1.6319 N   0  0  0  0  0  0  0  0  0  0  0  0
    4.4879    0.7097   -0.5662 C   0  0  0  0  0  0  0  0  0  0  0  0
    3.2463    0.2964   -0.1671 C   0  0  0  0  0  0  0  0  0  0  0  0
    3.0700   -0.5042    0.9639 C   0  0  0  0  0  0  0  0  0  0  0  0
    4.2222   -0.9071    1.6655 C   0  0  0  0  0  0  0  0  0  0  0  0
    5.5045   -0.4942    1.2376 C   0  0  0  0  0  0  0  0  0  0  0  0
    5.6470    0.3330    0.1084 C   0  0  0  0  0  0  0  0  0  0  0  0
   -1.7732    0.8479    0.3349 C   0  0  0  0  0  0  0  0  0  0  0  0
   -3.1097    0.8277    0.7449 C   0  0  0  0  0  0  0  0  0  0  0  0
   -7.5160    0.0615    0.2190 H   0  0  0  0  0  0  0  0  0  0  0  0
   -6.2773    0.9896   -0.4267 H   0  0  0  0  0  0  0  0  0  0  0  0
   -3.7805   -2.4694    0.2159 H   0  0  0  0  0  0  0  0  0  0  0  0
   -1.4289   -2.4382   -0.4995 H   0  0  0  0  0  0  0  0  0  0  0  0
    0.7314   -1.2513   -0.5352 H   0  0  0  0  0  0  0  0  0  0  0  0
    5.1535    1.9911   -2.1436 H   0  0  0  0  0  0  0  0  0  0  0  0
    2.0895   -0.7947    1.3132 H   0  0  0  0  0  0  0  0  0  0  0  0
    4.1244   -1.5298    2.5452 H   0  0  0  0  0  0  0  0  0  0  0  0
    6.3818   -0.8068    1.7887 H   0  0  0  0  0  0  0  0  0  0  0  0
    6.6221    0.6701   -0.2187 H   0  0  0  0  0  0  0  0  0  0  0  0
   -1.2207    1.7753    0.4041 H   0  0  0  0  0  0  0  0  0  0  0  0
   -3.5713    1.7422    1.0952 H   0  0  0  0  0  0  0  0  0  0  0  0
  1  2  1  0
  2  3  2  0
  2  4  2  0
  2  5  1  0
  5  6  2  0
  6  7  1  0
  7  8  2  0
  8  9  1  0
  9 10  1  0
 10 11  2  0
 10 12  1  0
 12 13  2  0
 13 14  1  0
 14 15  1  0
 15 16  2  0
 16 17  1  0
 17 18  2  0
 18 19  1  0
 19 20  2  0
  8 21  1  0
 21 22  2  0
 22  5  1  0
 16 12  1  0
 20 15  1  0
  1 23  1  0
  1 24  1  0
  6 25  1  0
  7 26  1  0
  9 27  1  0
 14 28  1  0
 17 29  1  0
 18 30  1  0
 19 31  1  0
 20 32  1  0
 21 33  1  0
 22 34  1  0
M  END
$$$$
