
     RDKit          3D

 50 54  0  0  0  0  0  0  0  0999 V2000
    2.2001    1.0016    0.6742 C   0  0  0  0  0  0  0  0  0  0  0  0
    1.5326   -0.0737    0.0201 O   0  0  0  0  0  0  0  0  0  0  0  0
    0.3559    0.0629   -0.7305 C   0  0  0  0  0  0  0  0  0  0  0  0
   -0.2777    1.3051   -0.9231 C   0  0  0  0  0  0  0  0  0  0  0  0
   -1.4554    1.3868   -1.6718 C   0  0  0  0  0  0  0  0  0  0  0  0
   -2.0242    0.2309   -2.2270 C   0  0  0  0  0  0  0  0  0  0  0  0
   -1.3780   -1.0018   -2.0571 C   0  0  0  0  0  0  0  0  0  0  0  0
   -0.2009   -1.0837   -1.3081 C   0  0  0  0  0  0  0  0  0  0  0  0
   -3.2766    0.3005   -3.0013 C   0  0  0  0  0  0  0  0  0  0  0  0
   -3.4568   -0.3405   -4.1735 N   0  0  0  0  0  0  0  0  0  0  0  0
   -4.7038   -0.1285   -4.5621 N   0  0  0  0  0  0  0  0  0  0  0  0
   -5.3442    0.6245   -3.6510 C   0  0  0  0  0  0  0  0  0  0  0  0
   -4.4622    0.9266   -2.6338 C   0  0  0  0  0  0  0  0  0  0  0  0
   -4.8122    1.5906   -1.3312 C   0  0  0  0  0  0  0  0  0  0  0  0
   -4.7897    0.5929   -0.2032 C   0  0  0  0  0  0  0  0  0  0  0  0
   -3.7842    0.6390    0.7746 C   0  0  0  0  0  0  0  0  0  0  0  0
   -3.7680   -0.3187    1.7911 C   0  0  0  0  0  0  0  0  0  0  0  0
   -4.7230   -1.2852    1.8334 N   0  0  0  0  0  0  0  0  0  0  0  0
   -5.7112   -1.3517    0.9022 C   0  0  0  0  0  0  0  0  0  0  0  0
   -5.7632   -0.4150   -0.1328 C   0  0  0  0  0  0  0  0  0  0  0  0
    3.4029    0.4720    1.3888 C   0  0  0  0  0  0  0  0  0  0  0  0
    4.6305    0.5740    0.8087 N   0  0  0  0  0  0  0  0  0  0  0  0
    5.7499    0.0806    1.4033 C   0  0  0  0  0  0  0  0  0  0  0  0
    6.9948    0.2117    0.7775 C   0  0  0  0  0  0  0  0  0  0  0  0
    8.1434   -0.2974    1.3921 C   0  0  0  0  0  0  0  0  0  0  0  0
    8.0526   -0.9391    2.6317 C   0  0  0  0  0  0  0  0  0  0  0  0
    6.8126   -1.0761    3.2645 C   0  0  0  0  0  0  0  0  0  0  0  0
    5.6556   -0.5681    2.6551 C   0  0  0  0  0  0  0  0  0  0  0  0
    4.3991   -0.6926    3.2603 C   0  0  0  0  0  0  0  0  0  0  0  0
    3.2680   -0.1763    2.6249 C   0  0  0  0  0  0  0  0  0  0  0  0
    1.5145    1.4846    1.4044 H   0  0  0  0  0  0  0  0  0  0  0  0
    2.5149    1.7594   -0.0760 H   0  0  0  0  0  0  0  0  0  0  0  0
    0.1327    2.2129   -0.5028 H   0  0  0  0  0  0  0  0  0  0  0  0
   -1.9110    2.3552   -1.8295 H   0  0  0  0  0  0  0  0  0  0  0  0
   -1.7958   -1.9040   -2.4871 H   0  0  0  0  0  0  0  0  0  0  0  0
    0.2798   -2.0442   -1.1722 H   0  0  0  0  0  0  0  0  0  0  0  0
   -5.1203   -0.5196   -5.4356 H   0  0  0  0  0  0  0  0  0  0  0  0
   -6.3898    0.8986   -3.7047 H   0  0  0  0  0  0  0  0  0  0  0  0
   -4.1141    2.4302   -1.1374 H   0  0  0  0  0  0  0  0  0  0  0  0
   -5.8285    2.0356   -1.4006 H   0  0  0  0  0  0  0  0  0  0  0  0
   -3.0201    1.4053    0.7518 H   0  0  0  0  0  0  0  0  0  0  0  0
   -2.9947   -0.2933    2.5473 H   0  0  0  0  0  0  0  0  0  0  0  0
   -6.4559   -2.1339    0.9635 H   0  0  0  0  0  0  0  0  0  0  0  0
   -6.5490   -0.4772   -0.8754 H   0  0  0  0  0  0  0  0  0  0  0  0
    7.0747    0.7069   -0.1824 H   0  0  0  0  0  0  0  0  0  0  0  0
    9.1054   -0.1948    0.9069 H   0  0  0  0  0  0  0  0  0  0  0  0
    8.9448   -1.3314    3.1025 H   0  0  0  0  0  0  0  0  0  0  0  0
    6.7580   -1.5766    4.2239 H   0  0  0  0  0  0  0  0  0  0  0  0
    4.2921   -1.1894    4.2172 H   0  0  0  0  0  0  0  0  0  0  0  0
    2.2955   -0.2809    3.0900 H   0  0  0  0  0  0  0  0  0  0  0  0
  1  2  1  0
  2  3  1  0
  3  4  2  0
  4  5  1  0
  5  6  2  0
  6  7  1  0
  7  8  2  0
  6  9  1  0
  9 10  2  0
 10 11  1  0
 11 12  1  0
 12 13  2  0
 13 14  1  0
 14 15  1  0
 15 16  2  0
 16 17  1  0
 17 18  2  0
 18 19  1  0
 19 20  2  0
  1 21  1  0
 21 22  2  0
 22 23  1  0
 23 24  2  0
 24 25  1  0
 25 26  2  0
 26 27  1  0
 27 28  2  0
 28 29  1  0
 29 30  2  0
  8  3  1  0
 13  9  1  0
 20 15  1  0
 30 21  1  0
 28 23  1  0
  1 31  1  0
  1 32  1  0
  4 33  1  0
  5 34  1  0
  7 35  1  0
  8 36  1  0
 11 37  1  0
 12 38  1  0
 14 39  1  0
 14 40  1  0
 16 41  1  0
 17 42  1  0
 19 43  1  0
 20 44  1  0
 24 45  1  0
 25 46  1  0
 26 47  1  0
 27 48  1  0
 29 49  1  0
 30 50  1  0
M  END
$$$$
