
     RDKit          3D

 31 32  0  0  0  0  0  0  0  0999 V2000
   -2.2821   -0.8151   -0.2014 C   0  0  1  0  0  0  0  0  0  0  0  0
   -2.7866   -1.0751   -1.4861 O   0  0  0  0  0  0  0  0  0  0  0  0
   -1.1499   -1.7903    0.1264 C   0  0  2  0  0  0  0  0  0  0  0  0
   -1.6306   -2.9986    0.6626 O   0  0  0  0  0  0  0  0  0  0  0  0
   -0.2314   -1.0467    1.1051 C   0  0  1  0  0  0  0  0  0  0  0  0
    1.1710   -1.1741    0.7238 N   0  0  0  0  0  0  0  0  0  0  0  0
    1.6216   -0.0088    0.4058 C   0  0  0  0  0  0  0  0  0  0  0  0
    0.6852    1.0019    0.5094 O   0  0  0  0  0  0  0  0  0  0  0  0
   -0.5442    0.4484    0.9484 C   0  0  1  0  0  0  0  0  0  0  0  0
   -1.6303    0.5712   -0.1304 C   0  0  2  0  0  0  0  0  0  0  0  0
   -2.6331    1.6924    0.1970 C   0  0  0  0  0  0  0  0  0  0  0  0
   -3.5762    1.8352   -0.8304 O   0  0  0  0  0  0  0  0  0  0  0  0
    2.9739    0.2164   -0.0220 N   0  0  0  0  0  0  0  0  0  0  0  0
    3.9109   -0.9066   -0.1111 C   0  0  0  0  0  0  0  0  0  0  0  0
    3.3912    1.5762   -0.3675 C   0  0  0  0  0  0  0  0  0  0  0  0
   -3.0865   -0.9049    0.5683 H   0  0  0  0  0  0  0  0  0  0  0  0
   -3.7103   -0.7139   -1.5105 H   0  0  0  0  0  0  0  0  0  0  0  0
   -0.5906   -2.0195   -0.8094 H   0  0  0  0  0  0  0  0  0  0  0  0
   -2.1202   -2.7893    1.5009 H   0  0  0  0  0  0  0  0  0  0  0  0
   -0.3744   -1.3730    2.1591 H   0  0  0  0  0  0  0  0  0  0  0  0
   -0.8444    0.8926    1.9238 H   0  0  0  0  0  0  0  0  0  0  0  0
   -1.1460    0.7935   -1.1095 H   0  0  0  0  0  0  0  0  0  0  0  0
   -2.0889    2.6530    0.3465 H   0  0  0  0  0  0  0  0  0  0  0  0
   -3.1689    1.4616    1.1428 H   0  0  0  0  0  0  0  0  0  0  0  0
   -3.1094    2.2805   -1.5850 H   0  0  0  0  0  0  0  0  0  0  0  0
    4.9135   -0.5776   -0.4561 H   0  0  0  0  0  0  0  0  0  0  0  0
    4.0239   -1.3793    0.8874 H   0  0  0  0  0  0  0  0  0  0  0  0
    3.5247   -1.6596   -0.8301 H   0  0  0  0  0  0  0  0  0  0  0  0
    4.4550    1.6112   -0.6828 H   0  0  0  0  0  0  0  0  0  0  0  0
    3.2662    2.2406    0.5135 H   0  0  0  0  0  0  0  0  0  0  0  0
    2.7669    1.9576   -1.2031 H   0  0  0  0  0  0  0  0  0  0  0  0
  1  2  1  0
  1  3  1  0
  3  4  1  0
  3  5  1  0
  5  6  1  0
  6  7  2  0
  7  8  1  0
  8  9  1  0
  9 10  1  0
 10 11  1  0
 11 12  1  0
  7 13  1  0
 13 14  1  0
 13 15  1  0
 10  1  1  0
  9  5  1  0
  1 16  1  1
  2 17  1  0
  3 18  1  6
  4 19  1  0
  5 20  1  1
  9 21  1  1
 10 22  1  6
 11 23  1  0
 11 24  1  0
 12 25  1  0
 14 26  1  0
 14 27  1  0
 14 28  1  0
 15 29  1  0
 15 30  1  0
 15 31  1  0
M  END
$$$$
