
     RDKit          3D

 38 42  0  0  0  0  0  0  0  0999 V2000
    4.7096    0.0500   -2.0082 N   0  0  0  0  0  0  0  0  0  0  0  0
    4.1792   -0.8272   -1.0168 C   0  0  0  0  0  0  0  0  0  0  0  0
    4.8408   -1.9016   -0.5199 N   0  0  0  0  0  0  0  0  0  0  0  0
    4.0487   -2.4847    0.3756 N   0  0  0  0  0  0  0  0  0  0  0  0
    2.9068   -1.7827    0.4372 C   0  0  0  0  0  0  0  0  0  0  0  0
    2.9419   -0.7329   -0.4182 C   0  0  0  0  0  0  0  0  0  0  0  0
    1.8666    0.1347   -0.5387 C   0  0  0  0  0  0  0  0  0  0  0  0
    0.7468   -0.1340    0.2775 C   0  0  0  0  0  0  0  0  0  0  0  0
    0.7676   -1.2183    1.1227 N   0  0  0  0  0  0  0  0  0  0  0  0
    1.8260   -2.0359    1.2093 N   0  0  0  0  0  0  0  0  0  0  0  0
   -0.4545    0.7195    0.2191 C   0  0  0  0  0  0  0  0  0  0  0  0
   -0.5155    2.1017    0.2614 C   0  0  0  0  0  0  0  0  0  0  0  0
    0.5081    3.0512    0.3224 C   0  0  0  0  0  0  0  0  0  0  0  0
    0.1381    4.4034    0.3943 C   0  0  0  0  0  0  0  0  0  0  0  0
   -1.2209    4.7684    0.4197 C   0  0  0  0  0  0  0  0  0  0  0  0
   -2.2042    3.7697    0.3817 C   0  0  0  0  0  0  0  0  0  0  0  0
   -1.8051    2.4747    0.3088 N   0  0  0  0  0  0  0  0  0  0  0  0
   -2.5967    1.4166    0.3092 N   0  0  0  0  0  0  0  0  0  0  0  0
   -1.7982    0.3243    0.2537 C   0  0  0  0  0  0  0  0  0  0  0  0
   -2.3325   -1.0541    0.2111 C   0  0  0  0  0  0  0  0  0  0  0  0
   -1.7165   -2.0498   -0.5687 C   0  0  0  0  0  0  0  0  0  0  0  0
   -2.2454   -3.3435   -0.6081 C   0  0  0  0  0  0  0  0  0  0  0  0
   -3.3986   -3.6516    0.1176 C   0  0  0  0  0  0  0  0  0  0  0  0
   -4.0295   -2.6642    0.8782 C   0  0  0  0  0  0  0  0  0  0  0  0
   -3.5040   -1.3690    0.9206 C   0  0  0  0  0  0  0  0  0  0  0  0
    4.1533    0.8632   -2.3531 H   0  0  0  0  0  0  0  0  0  0  0  0
    5.6639   -0.1156   -2.3973 H   0  0  0  0  0  0  0  0  0  0  0  0
    4.2924   -3.3407    0.9212 H   0  0  0  0  0  0  0  0  0  0  0  0
    1.8836    0.9575   -1.2415 H   0  0  0  0  0  0  0  0  0  0  0  0
    1.5515    2.7680    0.3281 H   0  0  0  0  0  0  0  0  0  0  0  0
    0.9020    5.1687    0.4383 H   0  0  0  0  0  0  0  0  0  0  0  0
   -1.5047    5.8110    0.4797 H   0  0  0  0  0  0  0  0  0  0  0  0
   -3.2556    4.0255    0.4187 H   0  0  0  0  0  0  0  0  0  0  0  0
   -0.8411   -1.8253   -1.1639 H   0  0  0  0  0  0  0  0  0  0  0  0
   -1.7651   -4.1056   -1.2082 H   0  0  0  0  0  0  0  0  0  0  0  0
   -3.8074   -4.6533    0.0847 H   0  0  0  0  0  0  0  0  0  0  0  0
   -4.9268   -2.9019    1.4348 H   0  0  0  0  0  0  0  0  0  0  0  0
   -4.0046   -0.6161    1.5171 H   0  0  0  0  0  0  0  0  0  0  0  0
  1  2  1  0
  2  3  2  0
  3  4  1  0
  4  5  1  0
  5  6  2  0
  6  7  1  0
  7  8  2  0
  8  9  1  0
  9 10  2  0
  8 11  1  0
 11 12  2  0
 12 13  1  0
 13 14  2  0
 14 15  1  0
 15 16  2  0
 16 17  1  0
 17 18  1  0
 18 19  2  0
 19 20  1  0
 20 21  2  0
 21 22  1  0
 22 23  2  0
 23 24  1  0
 24 25  2  0
  6  2  1  0
 19 11  1  0
 25 20  1  0
 10  5  1  0
 17 12  1  0
  1 26  1  0
  1 27  1  0
  4 28  1  0
  7 29  1  0
 13 30  1  0
 14 31  1  0
 15 32  1  0
 16 33  1  0
 21 34  1  0
 22 35  1  0
 23 36  1  0
 24 37  1  0
 25 38  1  0
M  END
$$$$
