
     RDKit          3D

 67 71  0  0  0  0  0  0  0  0999 V2000
   -2.6077   -0.5811    0.4678 C   0  0  2  0  0  0  0  0  0  0  0  0
   -3.6699   -0.8451    1.5340 C   0  0  0  0  0  0  0  0  0  0  0  0
   -3.6167   -2.3612    1.7888 C   0  0  0  0  0  0  0  0  0  0  0  0
   -2.4236   -2.9158    0.9722 C   0  0  1  0  0  0  0  0  0  0  0  0
   -1.7480   -3.8985    1.7208 O   0  0  0  0  0  0  0  0  0  0  0  0
   -2.9449   -3.5359   -0.2717 C   0  0  0  0  0  0  0  0  0  0  0  0
   -3.3696   -4.0378   -1.2824 C   0  0  0  0  0  0  0  0  0  0  0  0
   -3.8833   -4.6430   -2.5104 C   0  0  0  0  0  0  0  0  0  0  0  0
   -1.5408   -1.6492    0.7099 C   0  0  2  0  0  0  0  0  0  0  0  0
   -0.6683   -1.3724    1.9752 C   0  0  0  0  0  0  0  0  0  0  0  0
   -0.6440   -1.6958   -0.5476 C   0  0  0  0  0  0  0  0  0  0  0  0
   -0.0059   -0.3206   -0.9213 C   0  0  2  0  0  0  0  0  0  0  0  0
    1.4086   -0.1968   -0.3501 C   0  0  0  0  0  0  0  0  0  0  0  0
    1.7570    0.7534    0.6302 C   0  0  0  0  0  0  0  0  0  0  0  0
    3.0679    0.8452    1.1030 C   0  0  0  0  0  0  0  0  0  0  0  0
    4.0770   -0.0038    0.6079 C   0  0  0  0  0  0  0  0  0  0  0  0
    3.7287   -0.9445   -0.3807 C   0  0  0  0  0  0  0  0  0  0  0  0
    2.4176   -1.0342   -0.8537 C   0  0  0  0  0  0  0  0  0  0  0  0
    5.4398    0.0917    1.0994 N   0  0  0  0  0  0  0  0  0  0  0  0
    5.9136    1.3183    1.7524 C   0  0  0  0  0  0  0  0  0  0  0  0
    6.3670   -1.0371    0.9519 C   0  0  0  0  0  0  0  0  0  0  0  0
   -0.8925    0.9212   -0.6539 C   0  0  0  0  0  0  0  0  0  0  0  0
   -0.6004    2.1249   -1.2408 C   0  0  0  0  0  0  0  0  0  0  0  0
    0.4561    2.2758   -2.3330 C   0  0  0  0  0  0  0  0  0  0  0  0
    1.1774    3.6221   -2.2412 C   0  0  0  0  0  0  0  0  0  0  0  0
    0.1947    4.7442   -2.1312 C   0  0  0  0  0  0  0  0  0  0  0  0
    0.4679    5.8733   -2.6178 O   0  0  0  0  0  0  0  0  0  0  0  0
   -1.0495    4.5538   -1.3757 C   0  0  0  0  0  0  0  0  0  0  0  0
   -1.4236    3.3418   -0.9348 C   0  0  0  0  0  0  0  0  0  0  0  0
   -2.6423    3.2482   -0.0585 C   0  0  0  0  0  0  0  0  0  0  0  0
   -3.1691    1.8225   -0.0099 C   0  0  0  0  0  0  0  0  0  0  0  0
   -2.0391    0.8493    0.3725 C   0  0  1  0  0  0  0  0  0  0  0  0
   -3.0967   -0.7932   -0.5146 H   0  0  0  0  0  0  0  0  0  0  0  0
   -4.6775   -0.5412    1.1756 H   0  0  0  0  0  0  0  0  0  0  0  0
   -3.4336   -0.2886    2.4676 H   0  0  0  0  0  0  0  0  0  0  0  0
   -3.4619   -2.5427    2.8756 H   0  0  0  0  0  0  0  0  0  0  0  0
   -4.5834   -2.8388    1.5103 H   0  0  0  0  0  0  0  0  0  0  0  0
   -0.9617   -4.1897    1.1876 H   0  0  0  0  0  0  0  0  0  0  0  0
   -3.6596   -5.7296   -2.5090 H   0  0  0  0  0  0  0  0  0  0  0  0
   -4.9808   -4.4910   -2.5665 H   0  0  0  0  0  0  0  0  0  0  0  0
   -3.3986   -4.1667   -3.3874 H   0  0  0  0  0  0  0  0  0  0  0  0
   -1.2670   -1.4203    2.9082 H   0  0  0  0  0  0  0  0  0  0  0  0
   -0.1899   -0.3822    1.9589 H   0  0  0  0  0  0  0  0  0  0  0  0
    0.1449   -2.1247    2.0553 H   0  0  0  0  0  0  0  0  0  0  0  0
   -1.2482   -2.0157   -1.4242 H   0  0  0  0  0  0  0  0  0  0  0  0
    0.1311   -2.4823   -0.4212 H   0  0  0  0  0  0  0  0  0  0  0  0
    0.1082   -0.3810   -2.0268 H   0  0  0  0  0  0  0  0  0  0  0  0
    1.0213    1.4327    1.0388 H   0  0  0  0  0  0  0  0  0  0  0  0
    3.2820    1.5811    1.8654 H   0  0  0  0  0  0  0  0  0  0  0  0
    4.4688   -1.6075   -0.8065 H   0  0  0  0  0  0  0  0  0  0  0  0
    2.1889   -1.7595   -1.6250 H   0  0  0  0  0  0  0  0  0  0  0  0
    7.0176    1.3171    1.8735 H   0  0  0  0  0  0  0  0  0  0  0  0
    5.6470    2.2022    1.1348 H   0  0  0  0  0  0  0  0  0  0  0  0
    5.4544    1.4117    2.7586 H   0  0  0  0  0  0  0  0  0  0  0  0
    7.2841   -0.8954    1.5619 H   0  0  0  0  0  0  0  0  0  0  0  0
    6.6697   -1.1403   -0.1110 H   0  0  0  0  0  0  0  0  0  0  0  0
    5.8793   -1.9739    1.2957 H   0  0  0  0  0  0  0  0  0  0  0  0
    1.2432    1.5009   -2.3040 H   0  0  0  0  0  0  0  0  0  0  0  0
   -0.0495    2.1977   -3.3197 H   0  0  0  0  0  0  0  0  0  0  0  0
    1.8142    3.7608   -3.1419 H   0  0  0  0  0  0  0  0  0  0  0  0
    1.8328    3.6309   -1.3433 H   0  0  0  0  0  0  0  0  0  0  0  0
   -1.6564    5.4250   -1.1562 H   0  0  0  0  0  0  0  0  0  0  0  0
   -2.3759    3.5824    0.9680 H   0  0  0  0  0  0  0  0  0  0  0  0
   -3.4489    3.9111   -0.4428 H   0  0  0  0  0  0  0  0  0  0  0  0
   -3.5919    1.5505   -1.0031 H   0  0  0  0  0  0  0  0  0  0  0  0
   -3.9886    1.7810    0.7394 H   0  0  0  0  0  0  0  0  0  0  0  0
   -1.6515    1.1661    1.3642 H   0  0  0  0  0  0  0  0  0  0  0  0
  1  2  1  0
  2  3  1  0
  3  4  1  0
  4  5  1  0
  4  6  1  6
  6  7  3  0
  7  8  1  0
  4  9  1  0
  9 10  1  1
  9 11  1  0
 11 12  1  0
 12 13  1  0
 13 14  2  0
 14 15  1  0
 15 16  2  0
 16 17  1  0
 17 18  2  0
 16 19  1  0
 19 20  1  0
 19 21  1  0
 12 22  1  0
 22 23  2  0
 23 24  1  0
 24 25  1  0
 25 26  1  0
 26 27  2  0
 26 28  1  0
 28 29  2  0
 29 30  1  0
 30 31  1  0
 31 32  1  0
  9  1  1  0
 18 13  1  0
 32 22  1  0
 32  1  1  0
 29 23  1  0
  1 33  1  6
  2 34  1  0
  2 35  1  0
  3 36  1  0
  3 37  1  0
  5 38  1  0
  8 39  1  0
  8 40  1  0
  8 41  1  0
 10 42  1  0
 10 43  1  0
 10 44  1  0
 11 45  1  0
 11 46  1  0
 12 47  1  6
 14 48  1  0
 15 49  1  0
 17 50  1  0
 18 51  1  0
 20 52  1  0
 20 53  1  0
 20 54  1  0
 21 55  1  0
 21 56  1  0
 21 57  1  0
 24 58  1  0
 24 59  1  0
 25 60  1  0
 25 61  1  0
 28 62  1  0
 30 63  1  0
 30 64  1  0
 31 65  1  0
 31 66  1  0
 32 67  1  1
M  END
$$$$
