
     RDKit          3D

 42 44  0  0  0  0  0  0  0  0999 V2000
    6.2712   -1.6479    0.9439 Cl  0  0  0  0  0  0  0  0  0  0  0  0
    5.7919   -0.4245   -0.2296 C   0  0  0  0  0  0  0  0  0  0  0  0
    6.6805   -0.1179   -1.2662 C   0  0  0  0  0  0  0  0  0  0  0  0
    6.3342    0.8223   -2.2366 C   0  0  0  0  0  0  0  0  0  0  0  0
    5.0984    1.4667   -2.1762 C   0  0  0  0  0  0  0  0  0  0  0  0
    4.1967    1.1731   -1.1471 C   0  0  0  0  0  0  0  0  0  0  0  0
    2.6832    2.0734   -1.0888 Cl  0  0  0  0  0  0  0  0  0  0  0  0
    4.5344    0.2155   -0.1641 C   0  0  0  0  0  0  0  0  0  0  0  0
    3.5905   -0.1089    0.9250 C   0  0  0  0  0  0  0  0  0  0  0  0
    3.9567    0.0414    2.1218 O   0  0  0  0  0  0  0  0  0  0  0  0
    2.2678   -0.5776    0.6183 N   0  0  0  0  0  0  0  0  0  0  0  0
    1.3106   -0.9697    1.6146 C   0  0  0  0  0  0  0  0  0  0  0  0
    1.5746   -1.5200    2.8527 C   0  0  0  0  0  0  0  0  0  0  0  0
    0.3995   -1.8417    3.4220 N   0  0  0  0  0  0  0  0  0  0  0  0
   -0.5978   -1.5330    2.6071 N   0  0  0  0  0  0  0  0  0  0  0  0
   -0.0706   -1.0014    1.4852 C   0  0  0  0  0  0  0  0  0  0  0  0
   -0.8865   -0.5127    0.3562 C   0  0  0  0  0  0  0  0  0  0  0  0
   -0.3409    0.1191   -0.5881 O   0  0  0  0  0  0  0  0  0  0  0  0
   -2.3046   -0.7395    0.3395 N   0  0  0  0  0  0  0  0  0  0  0  0
   -3.1648   -0.2192   -0.7303 C   0  0  0  0  0  0  0  0  0  0  0  0
   -3.3174    1.3120   -0.5788 C   0  0  0  0  0  0  0  0  0  0  0  0
   -4.6684    1.7956   -1.1218 C   0  0  0  0  0  0  0  0  0  0  0  0
   -5.8119    1.1874   -0.4115 N   0  0  0  0  0  0  0  0  0  0  0  0
   -5.5593   -0.1702    0.1134 C   0  0  0  0  0  0  0  0  0  0  0  0
   -4.5350   -0.9378   -0.7310 C   0  0  0  0  0  0  0  0  0  0  0  0
    7.6416   -0.6132   -1.3232 H   0  0  0  0  0  0  0  0  0  0  0  0
    7.0267    1.0551   -3.0352 H   0  0  0  0  0  0  0  0  0  0  0  0
    4.8450    2.2039   -2.9276 H   0  0  0  0  0  0  0  0  0  0  0  0
    1.9955   -0.6534   -0.3862 H   0  0  0  0  0  0  0  0  0  0  0  0
    2.5416   -1.7143    3.2962 H   0  0  0  0  0  0  0  0  0  0  0  0
    0.2745   -2.2841    4.3591 H   0  0  0  0  0  0  0  0  0  0  0  0
   -2.7329   -1.2921    1.1167 H   0  0  0  0  0  0  0  0  0  0  0  0
   -2.6841   -0.4380   -1.7103 H   0  0  0  0  0  0  0  0  0  0  0  0
   -2.4950    1.8263   -1.1216 H   0  0  0  0  0  0  0  0  0  0  0  0
   -3.2479    1.6019    0.4933 H   0  0  0  0  0  0  0  0  0  0  0  0
   -4.7206    2.9035   -1.0371 H   0  0  0  0  0  0  0  0  0  0  0  0
   -4.7407    1.5480   -2.2030 H   0  0  0  0  0  0  0  0  0  0  0  0
   -6.0680    1.8034    0.3957 H   0  0  0  0  0  0  0  0  0  0  0  0
   -6.5169   -0.7328    0.1184 H   0  0  0  0  0  0  0  0  0  0  0  0
   -5.1970   -0.1148    1.1651 H   0  0  0  0  0  0  0  0  0  0  0  0
   -4.9172   -1.0039   -1.7737 H   0  0  0  0  0  0  0  0  0  0  0  0
   -4.4377   -1.9800   -0.3563 H   0  0  0  0  0  0  0  0  0  0  0  0
  1  2  1  0
  2  3  2  0
  3  4  1  0
  4  5  2  0
  5  6  1  0
  6  7  1  0
  6  8  2  0
  8  9  1  0
  9 10  2  0
  9 11  1  0
 11 12  1  0
 12 13  2  0
 13 14  1  0
 14 15  1  0
 15 16  2  0
 16 17  1  0
 17 18  2  0
 17 19  1  0
 19 20  1  0
 20 21  1  0
 21 22  1  0
 22 23  1  0
 23 24  1  0
 24 25  1  0
  8  2  1  0
 16 12  1  0
 25 20  1  0
  3 26  1  0
  4 27  1  0
  5 28  1  0
 11 29  1  0
 13 30  1  0
 14 31  1  0
 19 32  1  0
 20 33  1  0
 21 34  1  0
 21 35  1  0
 22 36  1  0
 22 37  1  0
 23 38  1  0
 24 39  1  0
 24 40  1  0
 25 41  1  0
 25 42  1  0
M  END
$$$$
