
     RDKit          3D

 85 91  0  0  0  0  0  0  0  0999 V2000
   -3.7117   -0.9561   -1.9297 C   0  0  2  0  0  0  0  0  0  0  0  0
   -3.4796   -0.5234   -3.3800 C   0  0  0  0  0  0  0  0  0  0  0  0
   -4.8594   -0.5738   -4.0396 C   0  0  0  0  0  0  0  0  0  0  0  0
   -5.8744   -0.4762   -2.9041 C   0  0  0  0  0  0  0  0  0  0  0  0
   -5.1293   -0.7756   -1.6965 N   0  0  0  0  0  0  0  0  0  0  0  0
   -5.6961   -0.7957   -0.3792 C   0  0  0  0  0  0  0  0  0  0  0  0
   -6.9473   -0.8609   -0.2366 O   0  0  0  0  0  0  0  0  0  0  0  0
   -4.7948   -0.7602    0.8411 C   0  0  2  0  0  0  0  0  0  0  0  0
   -5.2531    0.3370    1.8512 C   0  0  2  0  0  0  0  0  0  0  0  0
   -5.0759    1.7587    1.2868 C   0  0  0  0  0  0  0  0  0  0  0  0
   -4.5415    0.1862    3.2165 C   0  0  0  0  0  0  0  0  0  0  0  0
   -5.2109    0.9947    4.3292 C   0  0  0  0  0  0  0  0  0  0  0  0
   -3.3817   -0.5862    0.4450 N   0  0  0  0  0  0  0  0  0  0  0  0
   -2.2721   -1.1374    1.0963 C   0  0  0  0  0  0  0  0  0  0  0  0
   -2.3244   -1.6823    2.2309 O   0  0  0  0  0  0  0  0  0  0  0  0
   -1.0493   -0.9577    0.2796 C   0  0  2  0  0  0  0  0  0  0  0  0
   -0.2108    0.0904    0.8815 N   0  0  0  0  0  0  0  0  0  0  0  0
    0.9033    0.6892    0.1997 C   0  0  0  0  0  0  0  0  0  0  0  0
    1.0547    0.5013   -1.0390 O   0  0  0  0  0  0  0  0  0  0  0  0
    1.8835    1.5468    0.9782 C   0  0  1  0  0  0  0  0  0  0  0  0
    2.5913    0.7204    2.0682 C   0  0  0  0  0  0  0  0  0  0  0  0
    3.4472   -0.3598    1.5140 N   0  0  0  0  0  0  0  0  0  0  0  0
    4.3737   -0.8254    2.5627 C   0  0  0  0  0  0  0  0  0  0  0  0
    4.0979   -0.0114    0.2102 C   0  0  2  0  0  0  0  0  0  0  0  0
    5.3821   -0.8491   -0.1190 C   0  0  0  0  0  0  0  0  0  0  0  0
    5.9551   -0.3840   -1.4184 C   0  0  0  0  0  0  0  0  0  0  0  0
    6.8960   -0.9546   -2.2700 C   0  0  0  0  0  0  0  0  0  0  0  0
    7.2782   -0.0477   -3.2089 N   0  0  0  0  0  0  0  0  0  0  0  0
    6.6032    1.0840   -2.9253 C   0  0  0  0  0  0  0  0  0  0  0  0
    6.7145    2.3415   -3.5168 C   0  0  0  0  0  0  0  0  0  0  0  0
    5.9764    3.4007   -2.9413 C   0  0  0  0  0  0  0  0  0  0  0  0
    5.1645    3.1806   -1.7978 C   0  0  0  0  0  0  0  0  0  0  0  0
    5.0582    1.8849   -1.2404 C   0  0  0  0  0  0  0  0  0  0  0  0
    5.8043    0.8925   -1.8449 C   0  0  0  0  0  0  0  0  0  0  0  0
    4.3015    1.5418    0.0389 C   0  0  1  0  0  0  0  0  0  0  0  0
    2.9336    2.2724    0.0951 C   0  0  0  0  0  0  0  0  0  0  0  0
   -1.5194   -0.5033   -0.9835 O   0  0  0  0  0  0  0  0  0  0  0  0
   -2.9086   -0.1773   -0.8727 C   0  0  1  0  0  0  0  0  0  0  0  0
   -3.1049    1.2094   -1.0179 O   0  0  0  0  0  0  0  0  0  0  0  0
   -0.2286   -2.2738    0.0865 C   0  0  0  0  0  0  0  0  0  0  0  0
    0.4062   -2.7955    1.3880 C   0  0  0  0  0  0  0  0  0  0  0  0
   -1.0472   -3.3867   -0.5867 C   0  0  0  0  0  0  0  0  0  0  0  0
   -3.4861   -2.0405   -1.8334 H   0  0  0  0  0  0  0  0  0  0  0  0
   -3.0883    0.5131   -3.4471 H   0  0  0  0  0  0  0  0  0  0  0  0
   -2.7659   -1.2056   -3.8909 H   0  0  0  0  0  0  0  0  0  0  0  0
   -4.9893    0.2539   -4.7702 H   0  0  0  0  0  0  0  0  0  0  0  0
   -4.9823   -1.5462   -4.5655 H   0  0  0  0  0  0  0  0  0  0  0  0
   -6.6969   -1.2104   -3.0446 H   0  0  0  0  0  0  0  0  0  0  0  0
   -6.2891    0.5531   -2.8396 H   0  0  0  0  0  0  0  0  0  0  0  0
   -4.9047   -1.7560    1.3247 H   0  0  0  0  0  0  0  0  0  0  0  0
   -6.3407    0.1838    2.0323 H   0  0  0  0  0  0  0  0  0  0  0  0
   -5.4901    1.8317    0.2596 H   0  0  0  0  0  0  0  0  0  0  0  0
   -5.6248    2.4933    1.9114 H   0  0  0  0  0  0  0  0  0  0  0  0
   -4.0033    2.0447    1.2681 H   0  0  0  0  0  0  0  0  0  0  0  0
   -4.5597   -0.8816    3.5255 H   0  0  0  0  0  0  0  0  0  0  0  0
   -3.4799    0.5045    3.1357 H   0  0  0  0  0  0  0  0  0  0  0  0
   -6.2893    0.7396    4.4026 H   0  0  0  0  0  0  0  0  0  0  0  0
   -4.7267    0.7564    5.2997 H   0  0  0  0  0  0  0  0  0  0  0  0
   -5.0983    2.0835    4.1484 H   0  0  0  0  0  0  0  0  0  0  0  0
   -0.3953    0.3868    1.8677 H   0  0  0  0  0  0  0  0  0  0  0  0
    1.2786    2.3295    1.4876 H   0  0  0  0  0  0  0  0  0  0  0  0
    3.1964    1.4227    2.6880 H   0  0  0  0  0  0  0  0  0  0  0  0
    1.8344    0.2720    2.7472 H   0  0  0  0  0  0  0  0  0  0  0  0
    5.1831   -0.0828    2.7367 H   0  0  0  0  0  0  0  0  0  0  0  0
    3.8311   -0.9905    3.5194 H   0  0  0  0  0  0  0  0  0  0  0  0
    4.8073   -1.8088    2.2858 H   0  0  0  0  0  0  0  0  0  0  0  0
    3.3819   -0.3177   -0.5822 H   0  0  0  0  0  0  0  0  0  0  0  0
    5.1305   -1.9292   -0.1869 H   0  0  0  0  0  0  0  0  0  0  0  0
    6.1656   -0.6975    0.6521 H   0  0  0  0  0  0  0  0  0  0  0  0
    7.3105   -1.9501   -2.1815 H   0  0  0  0  0  0  0  0  0  0  0  0
    7.9937   -0.1847   -3.9570 H   0  0  0  0  0  0  0  0  0  0  0  0
    7.3626    2.5073   -4.3674 H   0  0  0  0  0  0  0  0  0  0  0  0
    6.0499    4.3947   -3.3627 H   0  0  0  0  0  0  0  0  0  0  0  0
    4.6388    4.0146   -1.3520 H   0  0  0  0  0  0  0  0  0  0  0  0
    4.9262    1.8920    0.8904 H   0  0  0  0  0  0  0  0  0  0  0  0
    3.1090    3.2853    0.5208 H   0  0  0  0  0  0  0  0  0  0  0  0
    2.5301    2.4420   -0.9270 H   0  0  0  0  0  0  0  0  0  0  0  0
   -2.3344    1.5841   -1.5186 H   0  0  0  0  0  0  0  0  0  0  0  0
    0.6131   -2.0441   -0.6031 H   0  0  0  0  0  0  0  0  0  0  0  0
    0.9680   -1.9926    1.9073 H   0  0  0  0  0  0  0  0  0  0  0  0
   -0.3595   -3.2074    2.0762 H   0  0  0  0  0  0  0  0  0  0  0  0
    1.1262   -3.6085    1.1537 H   0  0  0  0  0  0  0  0  0  0  0  0
   -0.4268   -4.3006   -0.7056 H   0  0  0  0  0  0  0  0  0  0  0  0
   -1.9435   -3.6446    0.0163 H   0  0  0  0  0  0  0  0  0  0  0  0
   -1.3665   -3.0681   -1.6002 H   0  0  0  0  0  0  0  0  0  0  0  0
  1  2  1  0
  2  3  1  0
  3  4  1  0
  4  5  1  0
  5  6  1  0
  6  7  2  0
  6  8  1  0
  8  9  1  0
  9 10  1  0
  9 11  1  0
 11 12  1  0
  8 13  1  0
 13 14  1  0
 14 15  2  0
 14 16  1  0
 16 17  1  1
 17 18  1  0
 18 19  2  0
 18 20  1  0
 20 21  1  0
 21 22  1  0
 22 23  1  0
 22 24  1  0
 24 25  1  0
 25 26  1  0
 26 27  2  0
 27 28  1  0
 28 29  1  0
 29 30  2  0
 30 31  1  0
 31 32  2  0
 32 33  1  0
 33 34  2  0
 33 35  1  0
 35 36  1  0
 16 37  1  0
 37 38  1  0
 38 39  1  6
 16 40  1  0
 40 41  1  0
 40 42  1  0
  5  1  1  0
 38 13  1  0
 38  1  1  0
 36 20  1  0
 35 24  1  0
 34 26  1  0
 34 29  1  0
  1 43  1  6
  2 44  1  0
  2 45  1  0
  3 46  1  0
  3 47  1  0
  4 48  1  0
  4 49  1  0
  8 50  1  1
  9 51  1  1
 10 52  1  0
 10 53  1  0
 10 54  1  0
 11 55  1  0
 11 56  1  0
 12 57  1  0
 12 58  1  0
 12 59  1  0
 17 60  1  0
 20 61  1  1
 21 62  1  0
 21 63  1  0
 23 64  1  0
 23 65  1  0
 23 66  1  0
 24 67  1  6
 25 68  1  0
 25 69  1  0
 27 70  1  0
 28 71  1  0
 30 72  1  0
 31 73  1  0
 32 74  1  0
 35 75  1  1
 36 76  1  0
 36 77  1  0
 39 78  1  0
 40 79  1  0
 41 80  1  0
 41 81  1  0
 41 82  1  0
 42 83  1  0
 42 84  1  0
 42 85  1  0
M  END
$$$$
