
     RDKit          3D

 42 44  0  0  0  0  0  0  0  0999 V2000
   -3.8842   -1.2479    0.7700 C   0  0  0  0  0  0  0  0  0  0  0  0
   -3.0549   -0.1659    0.2172 N   0  0  0  0  0  0  0  0  0  0  0  0
   -3.1282    1.0118    1.0992 C   0  0  0  0  0  0  0  0  0  0  0  0
   -3.4867    0.1715   -1.1579 C   0  0  0  0  0  0  0  0  0  0  0  0
   -2.3040    0.6768   -1.9931 C   0  0  0  0  0  0  0  0  0  0  0  0
   -1.2567   -0.3878   -2.1490 C   0  0  0  0  0  0  0  0  0  0  0  0
   -1.2478   -1.4028   -3.1010 C   0  0  0  0  0  0  0  0  0  0  0  0
   -0.2049   -2.2377   -2.8910 N   0  0  0  0  0  0  0  0  0  0  0  0
    0.4360   -1.7665   -1.8072 C   0  0  0  0  0  0  0  0  0  0  0  0
    1.5639   -2.3064   -1.1937 C   0  0  0  0  0  0  0  0  0  0  0  0
    2.0630   -1.6621   -0.0478 C   0  0  0  0  0  0  0  0  0  0  0  0
    1.4262   -0.5031    0.4658 C   0  0  0  0  0  0  0  0  0  0  0  0
    1.9803    0.1940    1.6804 C   0  0  0  0  0  0  0  0  0  0  0  0
    2.8336    1.4113    1.2876 C   0  0  1  0  0  0  0  0  0  0  0  0
    3.3531    2.1839    2.5359 C   0  0  0  0  0  0  0  0  0  0  0  0
    4.7725    2.1650    2.4336 O   0  0  0  0  0  0  0  0  0  0  0  0
    5.1409    1.4778    1.3020 C   0  0  0  0  0  0  0  0  0  0  0  0
    6.3360    1.3062    0.9475 O   0  0  0  0  0  0  0  0  0  0  0  0
    4.0364    0.9928    0.5775 N   0  0  0  0  0  0  0  0  0  0  0  0
    0.2889    0.0200   -0.1877 C   0  0  0  0  0  0  0  0  0  0  0  0
   -0.1787   -0.6415   -1.3227 C   0  0  0  0  0  0  0  0  0  0  0  0
   -3.5663   -1.4867    1.8081 H   0  0  0  0  0  0  0  0  0  0  0  0
   -4.9613   -0.9672    0.7733 H   0  0  0  0  0  0  0  0  0  0  0  0
   -3.7502   -2.1731    0.1692 H   0  0  0  0  0  0  0  0  0  0  0  0
   -2.7087    0.7642    2.0979 H   0  0  0  0  0  0  0  0  0  0  0  0
   -4.1782    1.3596    1.2237 H   0  0  0  0  0  0  0  0  0  0  0  0
   -2.5216    1.8462    0.6901 H   0  0  0  0  0  0  0  0  0  0  0  0
   -3.9059   -0.7199   -1.6795 H   0  0  0  0  0  0  0  0  0  0  0  0
   -4.2924    0.9406   -1.1532 H   0  0  0  0  0  0  0  0  0  0  0  0
   -1.8592    1.5844   -1.5351 H   0  0  0  0  0  0  0  0  0  0  0  0
   -2.6737    0.9672   -3.0001 H   0  0  0  0  0  0  0  0  0  0  0  0
   -1.9741   -1.5310   -3.8931 H   0  0  0  0  0  0  0  0  0  0  0  0
    0.0392   -3.0856   -3.4496 H   0  0  0  0  0  0  0  0  0  0  0  0
    2.0420   -3.1951   -1.5850 H   0  0  0  0  0  0  0  0  0  0  0  0
    2.9434   -2.0620    0.4395 H   0  0  0  0  0  0  0  0  0  0  0  0
    2.5889   -0.5128    2.2871 H   0  0  0  0  0  0  0  0  0  0  0  0
    1.1349    0.5301    2.3203 H   0  0  0  0  0  0  0  0  0  0  0  0
    2.2454    2.1003    0.6417 H   0  0  0  0  0  0  0  0  0  0  0  0
    3.0466    1.7060    3.4916 H   0  0  0  0  0  0  0  0  0  0  0  0
    2.9942    3.2351    2.5212 H   0  0  0  0  0  0  0  0  0  0  0  0
    4.0760    0.4996   -0.3422 H   0  0  0  0  0  0  0  0  0  0  0  0
   -0.2039    0.9105    0.1797 H   0  0  0  0  0  0  0  0  0  0  0  0
  1  2  1  0
  2  3  1  0
  2  4  1  0
  4  5  1  0
  5  6  1  0
  6  7  2  0
  7  8  1  0
  8  9  1  0
  9 10  2  0
 10 11  1  0
 11 12  2  0
 12 13  1  0
 13 14  1  0
 14 15  1  0
 15 16  1  0
 16 17  1  0
 17 18  2  0
 17 19  1  0
 12 20  1  0
 20 21  2  0
 21  6  1  0
 21  9  1  0
 19 14  1  0
  1 22  1  0
  1 23  1  0
  1 24  1  0
  3 25  1  0
  3 26  1  0
  3 27  1  0
  4 28  1  0
  4 29  1  0
  5 30  1  0
  5 31  1  0
  7 32  1  0
  8 33  1  0
 10 34  1  0
 11 35  1  0
 13 36  1  0
 13 37  1  0
 14 38  1  6
 15 39  1  0
 15 40  1  0
 19 41  1  0
 20 42  1  0
M  END
$$$$
