
     RDKit          3D

 58 61  0  0  0  0  0  0  0  0999 V2000
    1.3440    0.2868    0.9217 C   0  0  1  0  0  0  0  0  0  0  0  0
    1.5037   -0.4029   -0.4518 C   0  0  0  0  0  0  0  0  0  0  0  0
    2.9304   -0.9402   -0.6280 C   0  0  0  0  0  0  0  0  0  0  0  0
    3.9669    0.1895   -0.4575 C   0  0  1  0  0  0  0  0  0  0  0  0
    3.8022    0.8900    0.9071 C   0  0  0  0  0  0  0  0  0  0  0  0
    2.3734    1.4221    1.0818 C   0  0  0  0  0  0  0  0  0  0  0  0
    5.3800   -0.3320   -0.6384 C   0  0  0  0  0  0  0  0  0  0  0  0
    6.1873    0.1559   -1.6793 C   0  0  0  0  0  0  0  0  0  0  0  0
    7.4871   -0.3248   -1.8447 C   0  0  0  0  0  0  0  0  0  0  0  0
    7.9754   -1.2931   -0.9673 C   0  0  0  0  0  0  0  0  0  0  0  0
    7.1881   -1.7599    0.0369 N   0  0  0  0  0  0  0  0  0  0  0  0
    5.9186   -1.3087    0.2203 C   0  0  0  0  0  0  0  0  0  0  0  0
   -0.0351    0.7904    1.1288 N   0  0  0  0  0  0  0  0  0  0  0  0
   -0.7180    0.8312    2.4417 C   0  0  0  0  0  0  0  0  0  0  0  0
   -0.8451   -0.5281    3.1125 C   0  0  0  0  0  0  0  0  0  0  0  0
    0.0816    0.5267    3.7047 C   0  0  0  0  0  0  0  0  0  0  0  0
   -0.7313    1.4440    0.0498 C   0  0  0  0  0  0  0  0  0  0  0  0
   -0.1855    2.4124   -0.5453 O   0  0  0  0  0  0  0  0  0  0  0  0
   -2.0839    1.0002   -0.3629 C   0  0  0  0  0  0  0  0  0  0  0  0
   -2.9221    1.8579   -1.0904 C   0  0  0  0  0  0  0  0  0  0  0  0
   -4.1968    1.4423   -1.4843 C   0  0  0  0  0  0  0  0  0  0  0  0
   -4.6734    0.1546   -1.1563 C   0  0  0  0  0  0  0  0  0  0  0  0
   -3.8090   -0.7109   -0.4540 C   0  0  0  0  0  0  0  0  0  0  0  0
   -2.5355   -0.2928   -0.0613 C   0  0  0  0  0  0  0  0  0  0  0  0
   -6.0703   -0.3181   -1.5934 C   0  0  2  0  0  0  0  0  0  0  0  0
   -5.9189   -1.4652   -2.6079 C   0  0  0  0  0  0  0  0  0  0  0  0
   -6.7623    0.7180   -2.2559 O   0  0  0  0  0  0  0  0  0  0  0  0
   -6.9214   -0.7903   -0.3783 C   0  0  0  0  0  0  0  0  0  0  0  0
   -6.4606   -1.9886    0.1382 F   0  0  0  0  0  0  0  0  0  0  0  0
   -8.2374   -0.9696   -0.7695 F   0  0  0  0  0  0  0  0  0  0  0  0
   -6.8904    0.1630    0.6256 F   0  0  0  0  0  0  0  0  0  0  0  0
    1.5738   -0.4987    1.6688 H   0  0  0  0  0  0  0  0  0  0  0  0
    1.2888    0.3077   -1.2789 H   0  0  0  0  0  0  0  0  0  0  0  0
    0.7837   -1.2466   -0.5275 H   0  0  0  0  0  0  0  0  0  0  0  0
    3.1067   -1.7486    0.1148 H   0  0  0  0  0  0  0  0  0  0  0  0
    3.0266   -1.3825   -1.6436 H   0  0  0  0  0  0  0  0  0  0  0  0
    3.7609    0.9492   -1.2460 H   0  0  0  0  0  0  0  0  0  0  0  0
    4.0286    0.1863    1.7377 H   0  0  0  0  0  0  0  0  0  0  0  0
    4.5148    1.7407    0.9760 H   0  0  0  0  0  0  0  0  0  0  0  0
    2.1912    2.2212    0.3325 H   0  0  0  0  0  0  0  0  0  0  0  0
    2.2771    1.8763    2.0910 H   0  0  0  0  0  0  0  0  0  0  0  0
    5.8132    0.9075   -2.3632 H   0  0  0  0  0  0  0  0  0  0  0  0
    8.1106    0.0500   -2.6462 H   0  0  0  0  0  0  0  0  0  0  0  0
    8.9810   -1.6743   -1.0843 H   0  0  0  0  0  0  0  0  0  0  0  0
    5.3326   -1.7124    1.0348 H   0  0  0  0  0  0  0  0  0  0  0  0
   -1.6065    1.4909    2.5532 H   0  0  0  0  0  0  0  0  0  0  0  0
   -1.7900   -0.6696    3.6785 H   0  0  0  0  0  0  0  0  0  0  0  0
   -0.3284   -1.3728    2.6115 H   0  0  0  0  0  0  0  0  0  0  0  0
   -0.3259    0.9957    4.6249 H   0  0  0  0  0  0  0  0  0  0  0  0
    1.1577    0.2844    3.6262 H   0  0  0  0  0  0  0  0  0  0  0  0
   -2.5946    2.8568   -1.3511 H   0  0  0  0  0  0  0  0  0  0  0  0
   -4.7997    2.1385   -2.0509 H   0  0  0  0  0  0  0  0  0  0  0  0
   -4.1045   -1.7229   -0.2189 H   0  0  0  0  0  0  0  0  0  0  0  0
   -1.8961   -0.9932    0.4596 H   0  0  0  0  0  0  0  0  0  0  0  0
   -6.9164   -1.7924   -2.9723 H   0  0  0  0  0  0  0  0  0  0  0  0
   -5.4062   -2.3434   -2.1619 H   0  0  0  0  0  0  0  0  0  0  0  0
   -5.3270   -1.1236   -3.4845 H   0  0  0  0  0  0  0  0  0  0  0  0
   -6.9937    1.4159   -1.5875 H   0  0  0  0  0  0  0  0  0  0  0  0
  1  2  1  0
  2  3  1  0
  3  4  1  0
  4  5  1  0
  5  6  1  0
  4  7  1  0
  7  8  2  0
  8  9  1  0
  9 10  2  0
 10 11  1  0
 11 12  2  0
  1 13  1  0
 13 14  1  0
 14 15  1  0
 15 16  1  0
 13 17  1  0
 17 18  2  0
 17 19  1  0
 19 20  2  0
 20 21  1  0
 21 22  2  0
 22 23  1  0
 23 24  2  0
 22 25  1  0
 25 26  1  0
 25 27  1  6
 25 28  1  0
 28 29  1  0
 28 30  1  0
 28 31  1  0
  6  1  1  0
 12  7  1  0
 16 14  1  0
 24 19  1  0
  1 32  1  1
  2 33  1  0
  2 34  1  0
  3 35  1  0
  3 36  1  0
  4 37  1  6
  5 38  1  0
  5 39  1  0
  6 40  1  0
  6 41  1  0
  8 42  1  0
  9 43  1  0
 10 44  1  0
 12 45  1  0
 14 46  1  0
 15 47  1  0
 15 48  1  0
 16 49  1  0
 16 50  1  0
 20 51  1  0
 21 52  1  0
 23 53  1  0
 24 54  1  0
 26 55  1  0
 26 56  1  0
 26 57  1  0
 27 58  1  0
M  END
$$$$
