
     RDKit          3D

 52 54  0  0  0  0  0  0  0  0999 V2000
   -6.5372   -1.0162    0.2661 C   0  0  0  0  0  0  0  0  0  0  0  0
   -5.1113   -0.7141    0.3281 N   0  0  0  0  0  4  0  0  0  0  0  0
   -4.0833   -1.5822    0.1374 C   0  0  0  0  0  0  0  0  0  0  0  0
   -2.8733   -0.9702    0.2178 N   0  0  0  0  0  0  0  0  0  0  0  0
   -1.5618   -1.5751   -0.0262 C   0  0  2  0  0  0  0  0  0  0  0  0
   -0.6240   -1.0655    0.9004 O   0  0  0  0  0  0  0  0  0  0  0  0
    0.5271   -0.6967    0.1765 C   0  0  2  0  0  0  0  0  0  0  0  0
    1.2214    0.4882    0.8617 C   0  0  0  0  0  0  0  0  0  0  0  0
    1.6522    0.1199    2.1555 O   0  0  0  0  0  0  0  0  0  0  0  0
    3.3210   -0.2480    2.1362 P   0  0  0  0  0  5  0  0  0  0  0  0
    4.2029    1.1980    2.1953 O   0  0  0  0  0  0  0  0  0  0  0  0
    3.6338   -1.0637    3.3704 O   0  0  0  0  0  0  0  0  0  0  0  0
    3.7053   -1.1534    0.7426 O   0  0  0  0  0  0  0  0  0  0  0  0
    5.4011   -1.3000    0.6569 P   0  0  0  0  0  5  0  0  0  0  0  0
    5.7898   -2.3769   -0.5911 O   0  0  0  0  0  0  0  0  0  0  0  0
    5.9452   -1.8675    1.9496 O   0  0  0  0  0  0  0  0  0  0  0  0
    6.1254    0.2142    0.3737 O   0  0  0  0  0  0  0  0  0  0  0  0
    5.7446    0.6763   -1.2190 P   0  0  0  0  0  5  0  0  0  0  0  0
    4.0867    0.5080   -1.5234 O   0  0  0  0  0  0  0  0  0  0  0  0
    6.6258   -0.2674   -2.3145 O   0  0  0  0  0  0  0  0  0  0  0  0
    6.1296    2.1266   -1.4032 O   0  0  0  0  0  0  0  0  0  0  0  0
    0.1022   -0.3591   -1.2446 C   0  0  1  0  0  0  0  0  0  0  0  0
    1.1438   -0.6063   -2.1535 O   0  0  0  0  0  0  0  0  0  0  0  0
   -1.0853   -1.2749   -1.4562 C   0  0  1  0  0  0  0  0  0  0  0  0
   -0.7354   -2.4576   -2.1387 O   0  0  0  0  0  0  0  0  0  0  0  0
   -3.1730    0.3227    0.4416 C   0  0  0  0  0  0  0  0  0  0  0  0
   -4.5172    0.4821    0.5113 C   0  0  0  0  0  0  0  0  0  0  0  0
   -5.0555    1.7513    0.7018 C   0  0  0  0  0  0  0  0  0  0  0  0
   -6.3001    1.9367    0.7620 O   0  0  0  0  0  0  0  0  0  0  0  0
   -4.1873    2.8022    0.8191 N   0  0  0  0  0  0  0  0  0  0  0  0
   -2.8264    2.6147    0.7409 C   0  0  0  0  0  0  0  0  0  0  0  0
   -1.9408    3.7280    0.8575 N   0  0  0  0  0  0  0  0  0  0  0  0
   -2.3123    1.3626    0.5451 N   0  0  0  0  0  0  0  0  0  0  0  0
   -6.9899   -0.5036   -0.6084 H   0  0  0  0  0  0  0  0  0  0  0  0
   -6.6976   -2.1106    0.1636 H   0  0  0  0  0  0  0  0  0  0  0  0
   -7.0348   -0.6716    1.1967 H   0  0  0  0  0  0  0  0  0  0  0  0
   -4.2135   -2.6359   -0.0769 H   0  0  0  0  0  0  0  0  0  0  0  0
   -1.6409   -2.6740    0.1327 H   0  0  0  0  0  0  0  0  0  0  0  0
    1.2212   -1.5665    0.1595 H   0  0  0  0  0  0  0  0  0  0  0  0
    2.0275    0.8963    0.2100 H   0  0  0  0  0  0  0  0  0  0  0  0
    0.4861    1.3123    0.9762 H   0  0  0  0  0  0  0  0  0  0  0  0
    3.9332    1.6998    1.3859 H   0  0  0  0  0  0  0  0  0  0  0  0
    5.2334   -3.1773   -0.4165 H   0  0  0  0  0  0  0  0  0  0  0  0
    3.9692    0.7937   -2.4642 H   0  0  0  0  0  0  0  0  0  0  0  0
    6.3353    0.0430   -3.2089 H   0  0  0  0  0  0  0  0  0  0  0  0
   -0.2299    0.7046   -1.3093 H   0  0  0  0  0  0  0  0  0  0  0  0
    0.8551   -0.2206   -3.0214 H   0  0  0  0  0  0  0  0  0  0  0  0
   -1.8662   -0.7488   -2.0490 H   0  0  0  0  0  0  0  0  0  0  0  0
   -0.0337   -2.9235   -1.6118 H   0  0  0  0  0  0  0  0  0  0  0  0
   -4.5673    3.7650    0.9651 H   0  0  0  0  0  0  0  0  0  0  0  0
   -0.9080    3.5886    0.7935 H   0  0  0  0  0  0  0  0  0  0  0  0
   -2.3126    4.6923    1.0063 H   0  0  0  0  0  0  0  0  0  0  0  0
  1  2  1  0
  2  3  2  0
  3  4  1  0
  4  5  1  0
  5  6  1  0
  6  7  1  0
  7  8  1  0
  8  9  1  0
  9 10  1  0
 10 11  1  0
 10 12  2  0
 10 13  1  0
 13 14  1  0
 14 15  1  0
 14 16  2  0
 14 17  1  0
 17 18  1  0
 18 19  1  0
 18 20  1  0
 18 21  2  0
  7 22  1  0
 22 23  1  0
 22 24  1  0
 24 25  1  0
  4 26  1  0
 26 27  2  0
 27 28  1  0
 28 29  2  0
 28 30  1  0
 30 31  1  0
 31 32  1  0
 31 33  2  0
 27  2  1  0
 24  5  1  0
 33 26  1  0
  1 34  1  0
  1 35  1  0
  1 36  1  0
  3 37  1  0
  5 38  1  6
  7 39  1  6
  8 40  1  0
  8 41  1  0
 11 42  1  0
 15 43  1  0
 19 44  1  0
 20 45  1  0
 22 46  1  1
 23 47  1  0
 24 48  1  6
 25 49  1  0
 30 50  1  0
 32 51  1  0
 32 52  1  0
M  CHG  1   2   1
M  END
$$$$
