
     RDKit          3D

 55 56  0  0  0  0  0  0  0  0999 V2000
    1.2977   -1.9318   -2.3233 C   0  0  2  0  0  0  0  0  0  0  0  0
    0.6339   -2.5442   -1.0773 C   0  0  0  0  0  0  0  0  0  0  0  0
    1.3255   -2.1292    0.0954 O   0  0  0  0  0  0  0  0  0  0  0  0
    0.8609   -2.3864    1.3874 C   0  0  0  0  0  0  0  0  0  0  0  0
   -0.1299   -3.1435    1.5755 O   0  0  0  0  0  0  0  0  0  0  0  0
    1.5645   -1.7755    2.5600 C   0  0  0  0  0  0  0  0  0  0  0  0
    2.1007   -0.4131    2.2047 C   0  0  0  0  0  0  0  0  0  0  0  0
    1.2146    0.6546    1.9849 C   0  0  0  0  0  0  0  0  0  0  0  0
    1.7001    1.9076    1.5966 C   0  0  0  0  0  0  0  0  0  0  0  0
    0.5828    3.2263    1.2995 Cl  0  0  0  0  0  0  0  0  0  0  0  0
    3.0752    2.1039    1.4339 C   0  0  0  0  0  0  0  0  0  0  0  0
    3.9631    1.0462    1.6497 C   0  0  0  0  0  0  0  0  0  0  0  0
    3.4794   -0.2107    2.0260 C   0  0  0  0  0  0  0  0  0  0  0  0
    2.7183   -2.4700   -2.5234 C   0  0  0  0  0  0  0  0  0  0  0  0
    3.6487   -1.4005   -1.9597 C   0  0  0  0  0  0  0  0  0  0  0  0
    2.8545   -0.1025   -2.0010 C   0  0  0  0  0  0  0  0  0  0  0  0
    1.4616   -0.4891   -2.1637 N   0  0  0  0  0  0  0  0  0  0  0  0
    0.4101    0.4933   -2.2500 C   0  0  0  0  0  0  0  0  0  0  0  0
    0.6581    1.6890   -1.9330 O   0  0  0  0  0  0  0  0  0  0  0  0
   -0.9474    0.1629   -2.8125 C   0  0  0  0  0  0  0  0  0  0  0  0
   -1.9830    0.9861   -2.1901 N   0  0  0  0  0  0  0  0  0  0  0  0
   -2.4009    0.8075   -0.8322 C   0  0  0  0  0  0  0  0  0  0  0  0
   -1.8239   -0.0415   -0.1001 O   0  0  0  0  0  0  0  0  0  0  0  0
   -3.4573    1.5887   -0.3405 O   0  0  0  0  0  0  0  0  0  0  0  0
   -4.0307    1.5152    0.9735 C   0  0  0  0  0  0  0  0  0  0  0  0
   -2.9823    1.8694    2.0444 C   0  0  0  0  0  0  0  0  0  0  0  0
   -4.6178    0.1142    1.2318 C   0  0  0  0  0  0  0  0  0  0  0  0
   -5.1666    2.5478    1.0315 C   0  0  0  0  0  0  0  0  0  0  0  0
    0.6916   -2.1597   -3.2271 H   0  0  0  0  0  0  0  0  0  0  0  0
    0.6417   -3.6537   -1.1459 H   0  0  0  0  0  0  0  0  0  0  0  0
   -0.4233   -2.2165   -1.0140 H   0  0  0  0  0  0  0  0  0  0  0  0
    0.8575   -1.6770    3.4124 H   0  0  0  0  0  0  0  0  0  0  0  0
    2.3837   -2.4548    2.8794 H   0  0  0  0  0  0  0  0  0  0  0  0
    0.1494    0.5051    2.1009 H   0  0  0  0  0  0  0  0  0  0  0  0
    3.4556    3.0714    1.1323 H   0  0  0  0  0  0  0  0  0  0  0  0
    5.0261    1.1972    1.5136 H   0  0  0  0  0  0  0  0  0  0  0  0
    4.1784   -1.0248    2.1709 H   0  0  0  0  0  0  0  0  0  0  0  0
    2.8887   -3.4531   -2.0319 H   0  0  0  0  0  0  0  0  0  0  0  0
    2.9166   -2.5833   -3.6123 H   0  0  0  0  0  0  0  0  0  0  0  0
    3.9055   -1.6484   -0.9061 H   0  0  0  0  0  0  0  0  0  0  0  0
    4.5846   -1.3235   -2.5545 H   0  0  0  0  0  0  0  0  0  0  0  0
    2.9895    0.4694   -1.0591 H   0  0  0  0  0  0  0  0  0  0  0  0
    3.1729    0.5175   -2.8671 H   0  0  0  0  0  0  0  0  0  0  0  0
   -0.9259    0.3665   -3.9042 H   0  0  0  0  0  0  0  0  0  0  0  0
   -1.2091   -0.9040   -2.6815 H   0  0  0  0  0  0  0  0  0  0  0  0
   -2.4690    1.7060   -2.7707 H   0  0  0  0  0  0  0  0  0  0  0  0
   -2.1933    1.0943    2.1067 H   0  0  0  0  0  0  0  0  0  0  0  0
   -3.4569    1.9461    3.0465 H   0  0  0  0  0  0  0  0  0  0  0  0
   -2.5024    2.8420    1.8041 H   0  0  0  0  0  0  0  0  0  0  0  0
   -5.3172   -0.1648    0.4148 H   0  0  0  0  0  0  0  0  0  0  0  0
   -5.1718    0.0943    2.1952 H   0  0  0  0  0  0  0  0  0  0  0  0
   -3.8208   -0.6552    1.2865 H   0  0  0  0  0  0  0  0  0  0  0  0
   -4.7703    3.5677    0.8368 H   0  0  0  0  0  0  0  0  0  0  0  0
   -5.6593    2.5441    2.0281 H   0  0  0  0  0  0  0  0  0  0  0  0
   -5.9321    2.3223    0.2579 H   0  0  0  0  0  0  0  0  0  0  0  0
  1  2  1  0
  2  3  1  0
  3  4  1  0
  4  5  2  0
  4  6  1  0
  6  7  1  0
  7  8  2  0
  8  9  1  0
  9 10  1  0
  9 11  2  0
 11 12  1  0
 12 13  2  0
  1 14  1  0
 14 15  1  0
 15 16  1  0
 16 17  1  0
 17 18  1  0
 18 19  2  0
 18 20  1  0
 20 21  1  0
 21 22  1  0
 22 23  2  0
 22 24  1  0
 24 25  1  0
 25 26  1  0
 25 27  1  0
 25 28  1  0
 17  1  1  0
 13  7  1  0
  1 29  1  6
  2 30  1  0
  2 31  1  0
  6 32  1  0
  6 33  1  0
  8 34  1  0
 11 35  1  0
 12 36  1  0
 13 37  1  0
 14 38  1  0
 14 39  1  0
 15 40  1  0
 15 41  1  0
 16 42  1  0
 16 43  1  0
 20 44  1  0
 20 45  1  0
 21 46  1  0
 26 47  1  0
 26 48  1  0
 26 49  1  0
 27 50  1  0
 27 51  1  0
 27 52  1  0
 28 53  1  0
 28 54  1  0
 28 55  1  0
M  END
$$$$
