
     RDKit          3D

 45 47  0  0  0  0  0  0  0  0999 V2000
    1.6218   -1.1359    0.5998 C   0  0  1  0  0  0  0  0  0  0  0  0
    1.0444   -0.5297   -1.0189 S   0  0  0  0  0  0  0  0  0  0  0  0
    2.7143    0.0686   -1.4948 C   0  0  0  0  0  0  0  0  0  0  0  0
    3.2848    1.1223   -0.5493 C   0  0  0  0  0  0  0  0  0  0  0  0
    4.0198    2.2738   -1.1344 C   0  0  0  0  0  0  0  0  0  0  0  0
    4.7664    2.1691   -2.2328 C   0  0  0  0  0  0  0  0  0  0  0  0
    3.1136    1.0058    0.7935 C   0  0  0  0  0  0  0  0  0  0  0  0
    2.2663   -0.0404    1.2763 N   0  0  0  0  0  0  0  0  0  0  0  0
    1.3978   -0.2961    2.4498 C   0  0  0  0  0  0  0  0  0  0  0  0
    1.2897    0.1852    3.6077 O   0  0  0  0  0  0  0  0  0  0  0  0
    0.6559   -1.3346    1.6620 C   0  0  1  0  0  0  0  0  0  0  0  0
   -0.7043   -0.8884    1.3460 N   0  0  0  0  0  0  0  0  0  0  0  0
   -1.6167   -1.6989    0.5909 C   0  0  0  0  0  0  0  0  0  0  0  0
   -1.3419   -2.9090    0.3665 O   0  0  0  0  0  0  0  0  0  0  0  0
   -2.8848   -1.1269    0.0754 C   0  0  0  0  0  0  0  0  0  0  0  0
   -2.9289    0.0848   -0.3968 N   0  0  0  0  0  0  0  0  0  0  0  0
   -1.8110    0.8852   -0.4789 O   0  0  0  0  0  0  0  0  0  0  0  0
   -1.8938    2.2041   -0.9893 C   0  0  0  0  0  0  0  0  0  0  0  0
   -0.5344    2.8189   -0.9679 C   0  0  0  0  0  0  0  0  0  0  0  0
    0.2532    2.8022   -2.1146 O   0  0  0  0  0  0  0  0  0  0  0  0
   -0.0796    3.3051    0.1018 O   0  0  0  0  0  0  0  0  0  0  0  0
   -4.1176   -1.9452    0.0662 C   0  0  0  0  0  0  0  0  0  0  0  0
   -5.3223   -1.5133   -0.4958 C   0  0  0  0  0  0  0  0  0  0  0  0
   -6.4686   -2.7277   -0.2847 S   0  0  0  0  0  0  0  0  0  0  0  0
   -5.3894   -3.7390    0.5087 C   0  0  0  0  0  0  0  0  0  0  0  0
   -5.7133   -5.0333    1.0080 N   0  0  0  0  0  0  0  0  0  0  0  0
   -4.1649   -3.1860    0.6263 N   0  0  0  0  0  0  0  0  0  0  0  0
    3.7293    1.9328    1.7723 C   0  0  0  0  0  0  0  0  0  0  0  0
    4.9832    2.4897    1.5344 O   0  0  0  0  0  0  0  0  0  0  0  0
    3.1384    2.1882    2.8545 O   0  0  0  0  0  0  0  0  0  0  0  0
    2.3195   -1.9969    0.4932 H   0  0  0  0  0  0  0  0  0  0  0  0
    2.6168    0.4848   -2.5193 H   0  0  0  0  0  0  0  0  0  0  0  0
    3.4135   -0.7928   -1.5447 H   0  0  0  0  0  0  0  0  0  0  0  0
    3.9590    3.2412   -0.6516 H   0  0  0  0  0  0  0  0  0  0  0  0
    5.2819    3.0389   -2.6187 H   0  0  0  0  0  0  0  0  0  0  0  0
    4.8937    1.2242   -2.7449 H   0  0  0  0  0  0  0  0  0  0  0  0
    0.6893   -2.3369    2.1421 H   0  0  0  0  0  0  0  0  0  0  0  0
   -1.0533    0.0105    1.7508 H   0  0  0  0  0  0  0  0  0  0  0  0
   -2.5891    2.8041   -0.3639 H   0  0  0  0  0  0  0  0  0  0  0  0
   -2.2778    2.1772   -2.0314 H   0  0  0  0  0  0  0  0  0  0  0  0
    1.1888    3.1903   -2.1077 H   0  0  0  0  0  0  0  0  0  0  0  0
   -5.4969   -0.5639   -0.9846 H   0  0  0  0  0  0  0  0  0  0  0  0
   -4.9883   -5.6069    1.4929 H   0  0  0  0  0  0  0  0  0  0  0  0
   -6.6772   -5.4171    0.8926 H   0  0  0  0  0  0  0  0  0  0  0  0
    5.4129    3.1118    2.2086 H   0  0  0  0  0  0  0  0  0  0  0  0
  1  2  1  0
  2  3  1  0
  3  4  1  0
  4  5  1  0
  5  6  2  3
  4  7  2  0
  7  8  1  0
  8  9  1  0
  9 10  2  0
  9 11  1  0
 11 12  1  0
 12 13  1  0
 13 14  2  0
 13 15  1  0
 15 16  2  0
 16 17  1  0
 17 18  1  0
 18 19  1  0
 19 20  1  0
 19 21  2  0
 15 22  1  0
 22 23  2  0
 23 24  1  0
 24 25  1  0
 25 26  1  0
 25 27  2  0
  7 28  1  0
 28 29  1  0
 28 30  2  0
  8  1  1  0
 27 22  1  0
 11  1  1  0
  1 31  1  6
  3 32  1  0
  3 33  1  0
  5 34  1  0
  6 35  1  0
  6 36  1  0
 11 37  1  1
 12 38  1  0
 18 39  1  0
 18 40  1  0
 20 41  1  0
 23 42  1  0
 26 43  1  0
 26 44  1  0
 29 45  1  0
M  END
$$$$
