
     RDKit          3D

 80 85  0  0  0  0  0  0  0  0999 V2000
   -4.2019   -2.5889   -0.9692 C   0  0  0  0  0  0  0  0  0  0  0  0
   -4.7109   -1.2908   -0.6804 O   0  0  0  0  0  0  0  0  0  0  0  0
   -3.9332   -0.2103   -0.2334 C   0  0  0  0  0  0  0  0  0  0  0  0
   -4.5769    1.0122    0.0127 C   0  0  0  0  0  0  0  0  0  0  0  0
   -5.9618    1.0873   -0.2017 O   0  0  0  0  0  0  0  0  0  0  0  0
   -6.7563    2.2498    0.0238 C   0  0  0  0  0  0  0  0  0  0  0  0
   -8.2183    1.9530   -0.3102 C   0  0  0  0  0  0  0  0  0  0  0  0
   -8.8019    0.8646    0.6065 C   0  0  0  0  0  0  0  0  0  0  0  0
  -10.2563    0.6987    0.3897 N   0  0  0  0  0  0  0  0  0  0  0  0
  -10.5518    0.1684   -0.9638 C   0  0  0  0  0  0  0  0  0  0  0  0
  -11.8915   -0.5861   -0.9895 C   0  0  0  0  0  0  0  0  0  0  0  0
  -11.9251   -1.7118   -0.1227 O   0  0  0  0  0  0  0  0  0  0  0  0
  -11.0887   -1.5779    1.0190 C   0  0  0  0  0  0  0  0  0  0  0  0
  -10.8743   -0.1190    1.4626 C   0  0  0  0  0  0  0  0  0  0  0  0
   -3.8300    2.1171    0.4621 C   0  0  0  0  0  0  0  0  0  0  0  0
   -2.4522    2.0047    0.6653 C   0  0  0  0  0  0  0  0  0  0  0  0
   -1.7442    3.0803    1.1019 N   0  0  0  0  0  0  0  0  0  0  0  0
   -0.4053    3.0156    1.3181 C   0  0  0  0  0  0  0  0  0  0  0  0
    0.2857    1.8252    1.0910 C   0  0  0  0  0  0  0  0  0  0  0  0
   -0.4057    0.6938    0.6247 C   0  0  0  0  0  0  0  0  0  0  0  0
    0.2590   -0.5240    0.4038 O   0  0  0  0  0  0  0  0  0  0  0  0
    1.6082   -0.6565    0.0469 C   0  0  0  0  0  0  0  0  0  0  0  0
    2.3501   -1.7021    0.6059 C   0  0  0  0  0  0  0  0  0  0  0  0
    3.6973   -1.8722    0.2752 C   0  0  0  0  0  0  0  0  0  0  0  0
    4.3232   -0.9933   -0.6260 C   0  0  0  0  0  0  0  0  0  0  0  0
    5.7009   -1.1596   -1.0018 N   0  0  0  0  0  0  0  0  0  0  0  0
    6.7232   -1.6438   -0.1179 C   0  0  0  0  0  0  0  0  0  0  0  0
    6.5206   -1.7136    1.1244 O   0  0  0  0  0  0  0  0  0  0  0  0
    8.0778   -1.9812   -0.6603 C   0  0  0  0  0  0  0  0  0  0  0  0
    8.1223   -3.0685   -1.7266 C   0  0  0  0  0  0  0  0  0  0  0  0
    8.6168   -3.3640   -0.3175 C   0  0  0  0  0  0  0  0  0  0  0  0
    9.0929   -0.8847   -0.7771 C   0  0  0  0  0  0  0  0  0  0  0  0
    9.2473   -0.2993   -1.8829 O   0  0  0  0  0  0  0  0  0  0  0  0
    9.8722   -0.5082    0.3688 N   0  0  0  0  0  0  0  0  0  0  0  0
   10.7135    0.6562    0.4250 C   0  0  0  0  0  0  0  0  0  0  0  0
   10.3481    1.8583   -0.2095 C   0  0  0  0  0  0  0  0  0  0  0  0
   11.1736    2.9834   -0.1171 C   0  0  0  0  0  0  0  0  0  0  0  0
   12.3606    2.9241    0.6181 C   0  0  0  0  0  0  0  0  0  0  0  0
   13.1583    4.0167    0.7079 F   0  0  0  0  0  0  0  0  0  0  0  0
   12.7191    1.7412    1.2701 C   0  0  0  0  0  0  0  0  0  0  0  0
   11.8957    0.6146    1.1808 C   0  0  0  0  0  0  0  0  0  0  0  0
    3.5659    0.0252   -1.2226 C   0  0  0  0  0  0  0  0  0  0  0  0
    2.2184    0.1974   -0.8910 C   0  0  0  0  0  0  0  0  0  0  0  0
    1.5023    1.1636   -1.5187 F   0  0  0  0  0  0  0  0  0  0  0  0
   -1.7969    0.7780    0.4202 C   0  0  0  0  0  0  0  0  0  0  0  0
   -2.5438   -0.3235   -0.0292 C   0  0  0  0  0  0  0  0  0  0  0  0
   -3.4509   -2.5319   -1.7852 H   0  0  0  0  0  0  0  0  0  0  0  0
   -3.7460   -3.0316   -0.0585 H   0  0  0  0  0  0  0  0  0  0  0  0
   -5.0369   -3.2397   -1.3002 H   0  0  0  0  0  0  0  0  0  0  0  0
   -6.4004    3.0744   -0.6311 H   0  0  0  0  0  0  0  0  0  0  0  0
   -6.6706    2.5692    1.0855 H   0  0  0  0  0  0  0  0  0  0  0  0
   -8.8099    2.8867   -0.1917 H   0  0  0  0  0  0  0  0  0  0  0  0
   -8.2786    1.6343   -1.3728 H   0  0  0  0  0  0  0  0  0  0  0  0
   -8.2696   -0.1009    0.4497 H   0  0  0  0  0  0  0  0  0  0  0  0
   -8.6164    1.1866    1.6558 H   0  0  0  0  0  0  0  0  0  0  0  0
   -9.7555   -0.5276   -1.3137 H   0  0  0  0  0  0  0  0  0  0  0  0
  -10.6114    1.0153   -1.6804 H   0  0  0  0  0  0  0  0  0  0  0  0
  -12.0829   -0.9360   -2.0258 H   0  0  0  0  0  0  0  0  0  0  0  0
  -12.7159    0.1087   -0.7181 H   0  0  0  0  0  0  0  0  0  0  0  0
  -10.1048   -2.0497    0.8075 H   0  0  0  0  0  0  0  0  0  0  0  0
  -11.5500   -2.1398    1.8583 H   0  0  0  0  0  0  0  0  0  0  0  0
  -10.2782   -0.1079    2.4022 H   0  0  0  0  0  0  0  0  0  0  0  0
  -11.8618    0.3224    1.7172 H   0  0  0  0  0  0  0  0  0  0  0  0
   -4.3101    3.0671    0.6563 H   0  0  0  0  0  0  0  0  0  0  0  0
    0.1238    3.8895    1.6740 H   0  0  0  0  0  0  0  0  0  0  0  0
    1.3482    1.7836    1.2917 H   0  0  0  0  0  0  0  0  0  0  0  0
    1.8802   -2.3847    1.3027 H   0  0  0  0  0  0  0  0  0  0  0  0
    4.2383   -2.7050    0.7040 H   0  0  0  0  0  0  0  0  0  0  0  0
    5.9957   -0.8355   -1.9509 H   0  0  0  0  0  0  0  0  0  0  0  0
    8.9417   -2.9893   -2.4730 H   0  0  0  0  0  0  0  0  0  0  0  0
    7.1526   -3.5563   -1.9653 H   0  0  0  0  0  0  0  0  0  0  0  0
    7.9347   -4.0242    0.2602 H   0  0  0  0  0  0  0  0  0  0  0  0
    9.7225   -3.4526   -0.2478 H   0  0  0  0  0  0  0  0  0  0  0  0
    9.8884   -1.1645    1.1822 H   0  0  0  0  0  0  0  0  0  0  0  0
    9.4159    1.9385   -0.7522 H   0  0  0  0  0  0  0  0  0  0  0  0
   10.8870    3.9044   -0.6085 H   0  0  0  0  0  0  0  0  0  0  0  0
   13.6338    1.6966    1.8471 H   0  0  0  0  0  0  0  0  0  0  0  0
   12.1831   -0.2955    1.6923 H   0  0  0  0  0  0  0  0  0  0  0  0
    4.0236    0.6875   -1.9469 H   0  0  0  0  0  0  0  0  0  0  0  0
   -2.0459   -1.2643   -0.2205 H   0  0  0  0  0  0  0  0  0  0  0  0
  1  2  1  0
  2  3  1  0
  3  4  2  0
  4  5  1  0
  5  6  1  0
  6  7  1  0
  7  8  1  0
  8  9  1  0
  9 10  1  0
 10 11  1  0
 11 12  1  0
 12 13  1  0
 13 14  1  0
  4 15  1  0
 15 16  2  0
 16 17  1  0
 17 18  2  0
 18 19  1  0
 19 20  2  0
 20 21  1  0
 21 22  1  0
 22 23  2  0
 23 24  1  0
 24 25  2  0
 25 26  1  0
 26 27  1  0
 27 28  2  0
 27 29  1  0
 29 30  1  0
 30 31  1  0
 29 32  1  0
 32 33  2  0
 32 34  1  0
 34 35  1  0
 35 36  2  0
 36 37  1  0
 37 38  2  0
 38 39  1  0
 38 40  1  0
 40 41  2  0
 25 42  1  0
 42 43  2  0
 43 44  1  0
 20 45  1  0
 45 46  2  0
 46  3  1  0
 14  9  1  0
 45 16  1  0
 43 22  1  0
 31 29  1  0
 41 35  1  0
  1 47  1  0
  1 48  1  0
  1 49  1  0
  6 50  1  0
  6 51  1  0
  7 52  1  0
  7 53  1  0
  8 54  1  0
  8 55  1  0
 10 56  1  0
 10 57  1  0
 11 58  1  0
 11 59  1  0
 13 60  1  0
 13 61  1  0
 14 62  1  0
 14 63  1  0
 15 64  1  0
 18 65  1  0
 19 66  1  0
 23 67  1  0
 24 68  1  0
 26 69  1  0
 30 70  1  0
 30 71  1  0
 31 72  1  0
 31 73  1  0
 34 74  1  0
 36 75  1  0
 37 76  1  0
 40 77  1  0
 41 78  1  0
 42 79  1  0
 46 80  1  0
M  END
$$$$
