
     RDKit          3D

 92 94  0  0  0  0  0  0  0  0999 V2000
  -12.8221   -0.0295    3.1688 N   0  0  0  0  0  0  0  0  0  0  0  0
  -12.2211   -0.6157    2.0142 C   0  0  0  0  0  0  0  0  0  0  0  0
  -10.8569   -0.5144    1.7667 C   0  0  0  0  0  0  0  0  0  0  0  0
   -9.9028    0.1198    2.4741 N   0  0  0  0  0  0  0  0  0  0  0  0
   -8.7826   -0.1001    1.7313 C   0  0  0  0  0  0  0  0  0  0  0  0
   -9.0118   -0.8448    0.6174 N   0  0  0  0  0  0  0  0  0  0  0  0
   -8.0702   -1.1810   -0.4529 C   0  0  2  0  0  0  0  0  0  0  0  0
   -6.7992   -1.4480    0.1043 O   0  0  0  0  0  0  0  0  0  0  0  0
   -5.8662   -0.5936   -0.5186 C   0  0  2  0  0  0  0  0  0  0  0  0
   -4.8057   -0.1495    0.4923 C   0  0  0  0  0  0  0  0  0  0  0  0
   -4.1079   -1.2825    0.9532 O   0  0  0  0  0  0  0  0  0  0  0  0
   -2.8984   -0.7716    2.0447 P   0  0  0  0  0  5  0  0  0  0  0  0
   -1.8061    0.2757    1.2797 O   0  0  0  0  0  0  0  0  0  0  0  0
   -3.5416   -0.0359    3.1990 O   0  0  0  0  0  0  0  0  0  0  0  0
   -2.0922   -2.1315    2.6762 O   0  0  0  0  0  0  0  0  0  0  0  0
   -1.1948   -2.8392    1.4137 P   0  0  0  0  0  5  0  0  0  0  0  0
   -2.1691   -3.0808    0.0498 O   0  0  0  0  0  0  0  0  0  0  0  0
   -0.6862   -4.1861    1.8773 O   0  0  0  0  0  0  0  0  0  0  0  0
    0.1293   -1.8515    0.9854 O   0  0  0  0  0  0  0  0  0  0  0  0
    0.9126   -1.6224    2.1357 C   0  0  0  0  0  0  0  0  0  0  0  0
    2.1362   -0.7268    1.7970 C   0  0  0  0  0  0  0  0  0  0  0  0
    1.6397    0.6112    1.2006 C   0  0  0  0  0  0  0  0  0  0  0  0
    2.8795   -0.4282    3.1210 C   0  0  0  0  0  0  0  0  0  0  0  0
    3.0885   -1.4790    0.8047 C   0  0  1  0  0  0  0  0  0  0  0  0
    2.4228   -1.7620   -0.4010 O   0  0  0  0  0  0  0  0  0  0  0  0
    4.3623   -0.7176    0.5102 C   0  0  0  0  0  0  0  0  0  0  0  0
    5.3869   -0.9383    1.2121 O   0  0  0  0  0  0  0  0  0  0  0  0
    4.4076    0.2604   -0.5410 N   0  0  0  0  0  0  0  0  0  0  0  0
    5.6095    1.0358   -0.8392 C   0  0  0  0  0  0  0  0  0  0  0  0
    6.6287    0.1750   -1.5883 C   0  0  0  0  0  0  0  0  0  0  0  0
    7.8543    0.9749   -1.9100 C   0  0  0  0  0  0  0  0  0  0  0  0
    7.9689    1.5071   -3.0475 O   0  0  0  0  0  0  0  0  0  0  0  0
    8.8683    1.1676   -0.9156 N   0  0  0  0  0  0  0  0  0  0  0  0
   10.0683    1.9557   -1.1934 C   0  0  0  0  0  0  0  0  0  0  0  0
   10.9889    1.9953    0.0267 C   0  0  0  0  0  0  0  0  0  0  0  0
   12.4809    2.9934   -0.3296 S   0  0  0  0  0  0  0  0  0  0  0  0
   13.6178    1.6067   -0.6984 C   0  0  0  0  0  0  0  0  0  0  0  0
   13.3508    1.0280   -2.0598 C   0  0  0  0  0  0  0  0  0  0  0  0
   13.3963    1.7563   -3.0404 O   0  0  0  0  0  0  0  0  0  0  0  0
   13.0854   -0.4426   -2.2312 C   0  0  0  0  0  0  0  0  0  0  0  0
   12.8008   -0.7331   -3.5542 F   0  0  0  0  0  0  0  0  0  0  0  0
   14.2025   -1.1593   -1.8447 F   0  0  0  0  0  0  0  0  0  0  0  0
   12.0101   -0.8228   -1.4503 F   0  0  0  0  0  0  0  0  0  0  0  0
   -6.6148    0.5926   -1.1158 C   0  0  1  0  0  0  0  0  0  0  0  0
   -5.9374    1.0653   -2.2652 O   0  0  0  0  0  0  0  0  0  0  0  0
   -6.2600    2.7282   -2.4793 P   0  0  0  0  0  5  0  0  0  0  0  0
   -7.9281    3.0170   -2.4821 O   0  0  0  0  0  0  0  0  0  0  0  0
   -5.6074    3.2294   -3.9574 O   0  0  0  0  0  0  0  0  0  0  0  0
   -5.6149    3.5209   -1.3648 O   0  0  0  0  0  0  0  0  0  0  0  0
   -7.9580   -0.0204   -1.4491 C   0  0  1  0  0  0  0  0  0  0  0  0
   -8.0215   -0.4780   -2.7810 O   0  0  0  0  0  0  0  0  0  0  0  0
  -10.3286   -1.0804    0.6578 C   0  0  0  0  0  0  0  0  0  0  0  0
  -11.0790   -1.7494   -0.2508 N   0  0  0  0  0  0  0  0  0  0  0  0
  -12.4217   -1.8580   -0.0162 C   0  0  0  0  0  0  0  0  0  0  0  0
  -12.9806   -1.2965    1.1042 N   0  0  0  0  0  0  0  0  0  0  0  0
  -12.2481    0.4933    3.8672 H   0  0  0  0  0  0  0  0  0  0  0  0
  -13.8501   -0.1191    3.3276 H   0  0  0  0  0  0  0  0  0  0  0  0
   -7.8118    0.2964    1.9978 H   0  0  0  0  0  0  0  0  0  0  0  0
   -8.4255   -2.1009   -0.9685 H   0  0  0  0  0  0  0  0  0  0  0  0
   -5.3603   -1.1647   -1.3309 H   0  0  0  0  0  0  0  0  0  0  0  0
   -5.3127    0.3681    1.3381 H   0  0  0  0  0  0  0  0  0  0  0  0
   -4.1154    0.5595   -0.0187 H   0  0  0  0  0  0  0  0  0  0  0  0
   -1.7630   -0.0336    0.3400 H   0  0  0  0  0  0  0  0  0  0  0  0
   -1.5397   -3.3510   -0.6655 H   0  0  0  0  0  0  0  0  0  0  0  0
    1.2819   -2.5871    2.5545 H   0  0  0  0  0  0  0  0  0  0  0  0
    0.3019   -1.1122    2.9161 H   0  0  0  0  0  0  0  0  0  0  0  0
    2.4805    1.3230    1.0626 H   0  0  0  0  0  0  0  0  0  0  0  0
    0.9040    1.0914    1.8813 H   0  0  0  0  0  0  0  0  0  0  0  0
    1.1488    0.4537    0.2169 H   0  0  0  0  0  0  0  0  0  0  0  0
    3.2870   -1.3638    3.5612 H   0  0  0  0  0  0  0  0  0  0  0  0
    2.1937    0.0352    3.8630 H   0  0  0  0  0  0  0  0  0  0  0  0
    3.7201    0.2797    2.9607 H   0  0  0  0  0  0  0  0  0  0  0  0
    3.3771   -2.4456    1.2833 H   0  0  0  0  0  0  0  0  0  0  0  0
    2.9460   -2.4690   -0.8626 H   0  0  0  0  0  0  0  0  0  0  0  0
    3.5389    0.4724   -1.0812 H   0  0  0  0  0  0  0  0  0  0  0  0
    5.3310    1.9054   -1.4744 H   0  0  0  0  0  0  0  0  0  0  0  0
    6.0468    1.4285    0.1050 H   0  0  0  0  0  0  0  0  0  0  0  0
    6.1728   -0.2058   -2.5284 H   0  0  0  0  0  0  0  0  0  0  0  0
    6.9183   -0.7014   -0.9706 H   0  0  0  0  0  0  0  0  0  0  0  0
    8.7362    0.7291    0.0246 H   0  0  0  0  0  0  0  0  0  0  0  0
    9.7711    2.9927   -1.4618 H   0  0  0  0  0  0  0  0  0  0  0  0
   10.6052    1.5072   -2.0548 H   0  0  0  0  0  0  0  0  0  0  0  0
   10.4495    2.4801    0.8679 H   0  0  0  0  0  0  0  0  0  0  0  0
   11.2526    0.9657    0.3460 H   0  0  0  0  0  0  0  0  0  0  0  0
   13.5509    0.8288    0.0916 H   0  0  0  0  0  0  0  0  0  0  0  0
   14.6549    2.0018   -0.6838 H   0  0  0  0  0  0  0  0  0  0  0  0
   -6.7525    1.3668   -0.3210 H   0  0  0  0  0  0  0  0  0  0  0  0
   -8.2690    2.5184   -3.2669 H   0  0  0  0  0  0  0  0  0  0  0  0
   -6.0038    2.6177   -4.6278 H   0  0  0  0  0  0  0  0  0  0  0  0
   -8.7693    0.7254   -1.2980 H   0  0  0  0  0  0  0  0  0  0  0  0
   -7.3095   -1.1583   -2.9105 H   0  0  0  0  0  0  0  0  0  0  0  0
  -13.0481   -2.3883   -0.7201 H   0  0  0  0  0  0  0  0  0  0  0  0
  1  2  1  0
  2  3  2  0
  3  4  1  0
  4  5  2  0
  5  6  1  0
  6  7  1  0
  7  8  1  0
  8  9  1  0
  9 10  1  0
 10 11  1  0
 11 12  1  0
 12 13  1  0
 12 14  2  0
 12 15  1  0
 15 16  1  0
 16 17  1  0
 16 18  2  0
 16 19  1  0
 19 20  1  0
 20 21  1  0
 21 22  1  0
 21 23  1  0
 21 24  1  0
 24 25  1  0
 24 26  1  0
 26 27  2  0
 26 28  1  0
 28 29  1  0
 29 30  1  0
 30 31  1  0
 31 32  2  0
 31 33  1  0
 33 34  1  0
 34 35  1  0
 35 36  1  0
 36 37  1  0
 37 38  1  0
 38 39  2  0
 38 40  1  0
 40 41  1  0
 40 42  1  0
 40 43  1  0
  9 44  1  0
 44 45  1  0
 45 46  1  0
 46 47  1  0
 46 48  1  0
 46 49  2  0
 44 50  1  0
 50 51  1  0
  6 52  1  0
 52 53  2  0
 53 54  1  0
 54 55  2  0
 55  2  1  0
 52  3  1  0
 50  7  1  0
  1 56  1  0
  1 57  1  0
  5 58  1  0
  7 59  1  6
  9 60  1  6
 10 61  1  0
 10 62  1  0
 13 63  1  0
 17 64  1  0
 20 65  1  0
 20 66  1  0
 22 67  1  0
 22 68  1  0
 22 69  1  0
 23 70  1  0
 23 71  1  0
 23 72  1  0
 24 73  1  1
 25 74  1  0
 28 75  1  0
 29 76  1  0
 29 77  1  0
 30 78  1  0
 30 79  1  0
 33 80  1  0
 34 81  1  0
 34 82  1  0
 35 83  1  0
 35 84  1  0
 37 85  1  0
 37 86  1  0
 44 87  1  1
 47 88  1  0
 48 89  1  0
 50 90  1  1
 51 91  1  0
 54 92  1  0
M  END
$$$$
