
     RDKit          3D

 34 36  0  0  0  0  0  0  0  0999 V2000
   -1.9432    2.9128    1.3158 C   0  0  0  0  0  0  0  0  0  0  0  0
   -2.6129    2.4165    0.0391 C   0  0  0  0  0  0  0  0  0  0  0  0
   -2.3054    0.9676   -0.1952 C   0  0  0  0  0  0  0  0  0  0  0  0
   -1.0955    0.4327   -0.6479 C   0  0  0  0  0  0  0  0  0  0  0  0
    0.1281    1.1679   -1.0310 C   0  0  0  0  0  0  0  0  0  0  0  0
    0.0154    2.2241   -1.7096 O   0  0  0  0  0  0  0  0  0  0  0  0
    1.4773    0.7021   -0.6327 C   0  0  0  0  0  0  0  0  0  0  0  0
    1.6651   -0.0387    0.5462 C   0  0  0  0  0  0  0  0  0  0  0  0
    2.9409   -0.4719    0.9177 C   0  0  0  0  0  0  0  0  0  0  0  0
    3.1459   -1.4909    2.5246 Br  0  0  0  0  0  0  0  0  0  0  0  0
    4.0534   -0.1599    0.1231 C   0  0  0  0  0  0  0  0  0  0  0  0
    5.3150   -0.6078    0.5191 O   0  0  0  0  0  0  0  0  0  0  0  0
    3.8758    0.5974   -1.0516 C   0  0  0  0  0  0  0  0  0  0  0  0
    5.3469    1.0688   -2.1859 Br  0  0  0  0  0  0  0  0  0  0  0  0
    2.5950    1.0261   -1.4184 C   0  0  0  0  0  0  0  0  0  0  0  0
   -1.3016   -0.9343   -0.6629 C   0  0  0  0  0  0  0  0  0  0  0  0
   -0.4849   -1.9963   -1.0581 C   0  0  0  0  0  0  0  0  0  0  0  0
   -1.0077   -3.2985   -0.9609 C   0  0  0  0  0  0  0  0  0  0  0  0
   -2.3217   -3.5087   -0.4880 C   0  0  0  0  0  0  0  0  0  0  0  0
   -3.1272   -2.4179   -0.1141 C   0  0  0  0  0  0  0  0  0  0  0  0
   -2.5835   -1.1398   -0.2203 C   0  0  0  0  0  0  0  0  0  0  0  0
   -3.1684   -0.0000    0.0574 O   0  0  0  0  0  0  0  0  0  0  0  0
   -0.8387    2.8266    1.2341 H   0  0  0  0  0  0  0  0  0  0  0  0
   -2.2037    3.9792    1.4814 H   0  0  0  0  0  0  0  0  0  0  0  0
   -2.2927    2.3209    2.1888 H   0  0  0  0  0  0  0  0  0  0  0  0
   -2.2743    3.0243   -0.8256 H   0  0  0  0  0  0  0  0  0  0  0  0
   -3.7125    2.5455    0.1329 H   0  0  0  0  0  0  0  0  0  0  0  0
    0.8235   -0.2757    1.1849 H   0  0  0  0  0  0  0  0  0  0  0  0
    6.1570   -0.4172   -0.0083 H   0  0  0  0  0  0  0  0  0  0  0  0
    2.4720    1.6028   -2.3271 H   0  0  0  0  0  0  0  0  0  0  0  0
    0.5156   -1.8322   -1.4350 H   0  0  0  0  0  0  0  0  0  0  0  0
   -0.4001   -4.1444   -1.2547 H   0  0  0  0  0  0  0  0  0  0  0  0
   -2.7140   -4.5150   -0.4191 H   0  0  0  0  0  0  0  0  0  0  0  0
   -4.1388   -2.5665    0.2401 H   0  0  0  0  0  0  0  0  0  0  0  0
  1  2  1  0
  2  3  1  0
  3  4  2  0
  4  5  1  0
  5  6  2  0
  5  7  1  0
  7  8  2  0
  8  9  1  0
  9 10  1  0
  9 11  2  0
 11 12  1  0
 11 13  1  0
 13 14  1  0
 13 15  2  0
  4 16  1  0
 16 17  2  0
 17 18  1  0
 18 19  2  0
 19 20  1  0
 20 21  2  0
 21 22  1  0
 22  3  1  0
 15  7  1  0
 21 16  1  0
  1 23  1  0
  1 24  1  0
  1 25  1  0
  2 26  1  0
  2 27  1  0
  8 28  1  0
 12 29  1  0
 15 30  1  0
 17 31  1  0
 18 32  1  0
 19 33  1  0
 20 34  1  0
M  END
$$$$
