
     RDKit          3D

 55 58  0  0  0  0  0  0  0  0999 V2000
   -5.9534   -0.0409   -0.3903 C   0  0  1  0  0  0  0  0  0  0  0  0
   -4.9348   -0.8659    0.3972 C   0  0  0  0  0  0  0  0  0  0  0  0
   -4.4585    0.2903   -0.4782 C   0  0  1  0  0  0  0  0  0  0  0  0
   -3.6573   -0.1024   -1.7381 C   0  0  0  0  0  0  0  0  0  0  0  0
   -2.1862   -0.2014   -1.4289 C   0  0  0  0  0  0  0  0  0  0  0  0
   -1.3490    0.9123   -1.6002 C   0  0  0  0  0  0  0  0  0  0  0  0
    0.0038    0.8393   -1.2564 C   0  0  0  0  0  0  0  0  0  0  0  0
    0.5383   -0.3515   -0.7288 C   0  0  0  0  0  0  0  0  0  0  0  0
    1.8856   -0.4733   -0.3600 O   0  0  0  0  0  0  0  0  0  0  0  0
    2.8451    0.5768   -0.4492 C   0  0  0  0  0  0  0  0  0  0  0  0
    4.1637    0.0967    0.1045 C   0  0  0  0  0  0  0  0  0  0  0  0
    5.2321   -0.1188   -0.7809 C   0  0  0  0  0  0  0  0  0  0  0  0
    6.4646   -0.5705   -0.2984 C   0  0  0  0  0  0  0  0  0  0  0  0
    7.6047   -0.8013   -1.2386 C   0  0  0  0  0  0  0  0  0  0  0  0
    6.6247   -0.8123    1.0284 N   0  0  0  0  0  0  0  0  0  0  0  0
    5.6183   -0.6283    1.9221 C   0  0  0  0  0  0  0  0  0  0  0  0
    4.3504   -0.1697    1.4844 C   0  0  0  0  0  0  0  0  0  0  0  0
    3.3242   -0.0005    2.4386 C   0  0  0  0  0  0  0  0  0  0  0  0
    3.5612   -0.2761    3.7884 C   0  0  0  0  0  0  0  0  0  0  0  0
    4.8157   -0.7228    4.2066 C   0  0  0  0  0  0  0  0  0  0  0  0
    5.8418   -0.8994    3.2769 C   0  0  0  0  0  0  0  0  0  0  0  0
   -0.2998   -1.4590   -0.5574 C   0  0  0  0  0  0  0  0  0  0  0  0
   -1.6528   -1.3861   -0.8993 C   0  0  0  0  0  0  0  0  0  0  0  0
   -4.0466    1.5259    0.2649 C   0  0  0  0  0  0  0  0  0  0  0  0
   -4.5436    2.6408   -0.0522 O   0  0  0  0  0  0  0  0  0  0  0  0
   -3.0737    1.4349    1.2643 O   0  0  0  0  0  0  0  0  0  0  0  0
   -2.5750    2.5739    1.9537 C   0  0  0  0  0  0  0  0  0  0  0  0
   -6.5724   -0.7491   -1.5611 C   0  0  0  0  0  0  0  0  0  0  0  0
   -6.9958   -1.9292   -1.4321 O   0  0  0  0  0  0  0  0  0  0  0  0
   -6.7360   -0.0641   -2.8046 N   0  0  0  0  0  0  0  0  0  0  0  0
   -7.2928   -0.6897   -3.8689 O   0  0  0  0  0  0  0  0  0  0  0  0
   -6.5898    0.6209    0.2359 H   0  0  0  0  0  0  0  0  0  0  0  0
   -4.9505   -0.6661    1.4902 H   0  0  0  0  0  0  0  0  0  0  0  0
   -4.7325   -1.8840   -0.0001 H   0  0  0  0  0  0  0  0  0  0  0  0
   -4.0021   -1.0715   -2.1602 H   0  0  0  0  0  0  0  0  0  0  0  0
   -3.8289    0.6659   -2.5225 H   0  0  0  0  0  0  0  0  0  0  0  0
   -1.7468    1.8415   -1.9891 H   0  0  0  0  0  0  0  0  0  0  0  0
    0.6222    1.7147   -1.3992 H   0  0  0  0  0  0  0  0  0  0  0  0
    2.9496    0.8884   -1.5115 H   0  0  0  0  0  0  0  0  0  0  0  0
    2.5022    1.4625    0.1276 H   0  0  0  0  0  0  0  0  0  0  0  0
    5.1103    0.0642   -1.8422 H   0  0  0  0  0  0  0  0  0  0  0  0
    8.5150   -1.1083   -0.6810 H   0  0  0  0  0  0  0  0  0  0  0  0
    7.8275    0.1327   -1.7964 H   0  0  0  0  0  0  0  0  0  0  0  0
    7.3391   -1.6036   -1.9586 H   0  0  0  0  0  0  0  0  0  0  0  0
    2.3372    0.3394    2.1566 H   0  0  0  0  0  0  0  0  0  0  0  0
    2.7681   -0.1434    4.5131 H   0  0  0  0  0  0  0  0  0  0  0  0
    4.9925   -0.9344    5.2532 H   0  0  0  0  0  0  0  0  0  0  0  0
    6.8109   -1.2492    3.6109 H   0  0  0  0  0  0  0  0  0  0  0  0
    0.0989   -2.3791   -0.1490 H   0  0  0  0  0  0  0  0  0  0  0  0
   -2.2854   -2.2513   -0.7458 H   0  0  0  0  0  0  0  0  0  0  0  0
   -3.4019    3.0872    2.4885 H   0  0  0  0  0  0  0  0  0  0  0  0
   -2.0998    3.2741    1.2344 H   0  0  0  0  0  0  0  0  0  0  0  0
   -1.8148    2.2480    2.6929 H   0  0  0  0  0  0  0  0  0  0  0  0
   -6.4399    0.9337   -2.8948 H   0  0  0  0  0  0  0  0  0  0  0  0
   -6.5274   -1.0848   -4.3595 H   0  0  0  0  0  0  0  0  0  0  0  0
  1  2  1  0
  2  3  1  0
  3  4  1  6
  4  5  1  0
  5  6  2  0
  6  7  1  0
  7  8  2  0
  8  9  1  0
  9 10  1  0
 10 11  1  0
 11 12  2  0
 12 13  1  0
 13 14  1  0
 13 15  2  0
 15 16  1  0
 16 17  2  0
 17 18  1  0
 18 19  2  0
 19 20  1  0
 20 21  2  0
  8 22  1  0
 22 23  2  0
  3 24  1  0
 24 25  2  0
 24 26  1  0
 26 27  1  0
  1 28  1  0
 28 29  2  0
 28 30  1  0
 30 31  1  0
  3  1  1  0
 23  5  1  0
 17 11  1  0
 21 16  1  0
  1 32  1  1
  2 33  1  0
  2 34  1  0
  4 35  1  0
  4 36  1  0
  6 37  1  0
  7 38  1  0
 10 39  1  0
 10 40  1  0
 12 41  1  0
 14 42  1  0
 14 43  1  0
 14 44  1  0
 18 45  1  0
 19 46  1  0
 20 47  1  0
 21 48  1  0
 22 49  1  0
 23 50  1  0
 27 51  1  0
 27 52  1  0
 27 53  1  0
 30 54  1  0
 31 55  1  0
M  END
$$$$
