
     RDKit          3D

203206  0  0  0  0  0  0  0  0999 V2000
    8.4934    4.3103    5.1850 C   0  0  0  0  0  0  0  0  0  0  0  0
    9.0744    2.9631    5.6180 C   0  0  0  0  0  0  0  0  0  0  0  0
   10.1797    2.3896    4.6946 C   0  0  2  0  0  0  0  0  0  0  0  0
   11.4912    3.1874    4.8082 C   0  0  0  0  0  0  0  0  0  0  0  0
    9.7054    2.1306    3.2301 C   0  0  2  0  0  0  0  0  0  0  0  0
   10.4529    1.0148    2.6415 N   0  0  0  0  0  0  0  0  0  0  0  0
    9.7597    3.3492    2.3242 C   0  0  0  0  0  0  0  0  0  0  0  0
    8.6852    3.9055    1.9085 N   0  0  0  0  0  0  0  0  0  0  0  0
    8.8589    4.9701    0.9608 C   0  0  1  0  0  0  0  0  0  0  0  0
   10.2341    4.7700    0.3208 C   0  0  0  0  0  0  0  0  0  0  0  0
   11.2713    3.9559    1.5735 S   0  0  0  0  0  0  0  0  0  0  0  0
    7.7528    4.9587   -0.0563 C   0  0  0  0  0  0  0  0  0  0  0  0
    7.1659    6.0379   -0.3400 O   0  0  0  0  0  0  0  0  0  0  0  0
    7.3865    3.7394   -0.7211 N   0  0  0  0  0  0  0  0  0  0  0  0
    6.3249    3.6841   -1.7309 C   0  0  1  0  0  0  0  0  0  0  0  0
    6.5708    2.5326   -2.7368 C   0  0  0  0  0  0  0  0  0  0  0  0
    7.6394    2.8103   -3.8237 C   0  0  0  0  0  0  0  0  0  0  0  0
    7.1972    3.8917   -4.8203 C   0  0  0  0  0  0  0  0  0  0  0  0
    9.0196    3.1372   -3.2422 C   0  0  0  0  0  0  0  0  0  0  0  0
    4.9965    3.4906   -1.0494 C   0  0  0  0  0  0  0  0  0  0  0  0
    4.0559    4.2937   -1.2928 O   0  0  0  0  0  0  0  0  0  0  0  0
    4.7824    2.3713   -0.1749 N   0  0  0  0  0  0  0  0  0  0  0  0
    3.4371    1.9736    0.2603 C   0  0  2  0  0  0  0  0  0  0  0  0
    2.9131    2.8732    1.4025 C   0  0  0  0  0  0  0  0  0  0  0  0
    3.6587    2.7339    2.7408 C   0  0  0  0  0  0  0  0  0  0  0  0
    5.0400    3.3047    2.6813 C   0  0  0  0  0  0  0  0  0  0  0  0
    5.2158    4.6788    2.5519 O   0  0  0  0  0  0  0  0  0  0  0  0
    6.0412    2.5424    2.7443 O   0  0  0  0  0  0  0  0  0  0  0  0
    3.3750    0.5095    0.6307 C   0  0  0  0  0  0  0  0  0  0  0  0
    4.3781   -0.0678    1.1327 O   0  0  0  0  0  0  0  0  0  0  0  0
    2.1446   -0.2061    0.4596 N   0  0  0  0  0  0  0  0  0  0  0  0
    1.9638   -1.6061    0.8554 C   0  0  1  0  0  0  0  0  0  0  0  0
    1.9448   -1.7663    2.4096 C   0  0  1  0  0  0  0  0  0  0  0  0
    1.0058   -0.7649    3.1088 C   0  0  0  0  0  0  0  0  0  0  0  0
    1.6076   -3.2067    2.8704 C   0  0  0  0  0  0  0  0  0  0  0  0
    2.6076   -4.2471    2.3657 C   0  0  0  0  0  0  0  0  0  0  0  0
    0.7227   -2.1516    0.1889 C   0  0  0  0  0  0  0  0  0  0  0  0
   -0.4082   -1.7167    0.5314 O   0  0  0  0  0  0  0  0  0  0  0  0
    0.8335   -3.1072   -0.8755 N   0  0  0  0  0  0  0  0  0  0  0  0
   -0.3324   -3.7785   -1.4600 C   0  0  1  0  0  0  0  0  0  0  0  0
   -0.1745   -3.8836   -2.9878 C   0  0  0  0  0  0  0  0  0  0  0  0
   -0.1197   -2.5093   -3.6812 C   0  0  0  0  0  0  0  0  0  0  0  0
   -1.4849   -1.7857   -3.7037 C   0  0  0  0  0  0  0  0  0  0  0  0
   -1.5107   -0.5093   -2.8518 C   0  0  0  0  0  0  0  0  0  0  0  0
   -0.6421    0.5320   -3.4091 N   0  0  0  0  0  0  0  0  0  0  0  0
   -0.4718    1.8291   -2.8110 C   0  0  0  0  0  0  0  0  0  0  0  0
    0.4851    2.5498   -3.2028 O   0  0  0  0  0  0  0  0  0  0  0  0
   -1.3687    2.3217   -1.6917 C   0  0  2  0  0  0  0  0  0  0  0  0
   -1.6609    3.8379   -1.7715 C   0  0  0  0  0  0  0  0  0  0  0  0
   -0.4964    4.7058   -1.3745 C   0  0  0  0  0  0  0  0  0  0  0  0
   -0.2231    4.9663    0.0028 N   0  0  0  0  0  0  0  0  0  0  0  0
    0.2480    5.2030   -2.2609 O   0  0  0  0  0  0  0  0  0  0  0  0
   -0.7786    1.9696   -0.3978 N   0  0  0  0  0  0  0  0  0  0  0  0
   -1.5188    1.5612    0.7659 C   0  0  0  0  0  0  0  0  0  0  0  0
   -0.9789    1.7056    1.8958 O   0  0  0  0  0  0  0  0  0  0  0  0
   -2.9329    1.0152    0.6761 C   0  0  1  0  0  0  0  0  0  0  0  0
   -3.2624    0.0344    1.8284 C   0  0  0  0  0  0  0  0  0  0  0  0
   -3.3887    0.6916    3.1719 C   0  0  0  0  0  0  0  0  0  0  0  0
   -2.4126    0.4799    4.1402 O   0  0  0  0  0  0  0  0  0  0  0  0
   -4.3845    1.4184    3.4322 O   0  0  0  0  0  0  0  0  0  0  0  0
   -3.8930    2.1278    0.6342 N   0  0  0  0  0  0  0  0  0  0  0  0
   -5.2218    2.0753    0.0781 C   0  0  0  0  0  0  0  0  0  0  0  0
   -5.9519    3.0982    0.1844 O   0  0  0  0  0  0  0  0  0  0  0  0
   -5.7502    0.8729   -0.6849 C   0  0  2  0  0  0  0  0  0  0  0  0
   -5.5137    1.0176   -2.2002 C   0  0  0  0  0  0  0  0  0  0  0  0
   -6.2530    2.1771   -2.7994 C   0  0  0  0  0  0  0  0  0  0  0  0
   -7.5484    2.1583   -3.2658 C   0  0  0  0  0  0  0  0  0  0  0  0
   -7.8530    3.3974   -3.6785 N   0  0  0  0  0  0  0  0  0  0  0  0
   -6.7495    4.1361   -3.4528 C   0  0  0  0  0  0  0  0  0  0  0  0
   -5.7430    3.4208   -2.9082 N   0  0  0  0  0  0  0  0  0  0  0  0
   -7.1811    0.6603   -0.4151 N   0  0  0  0  0  0  0  0  0  0  0  0
   -7.8648   -0.5925   -0.6100 C   0  0  0  0  0  0  0  0  0  0  0  0
   -9.1209   -0.5776   -0.7214 O   0  0  0  0  0  0  0  0  0  0  0  0
   -7.1344   -1.9240   -0.5593 C   0  0  1  0  0  0  0  0  0  0  0  0
   -6.8936   -2.3594    0.9015 C   0  0  0  0  0  0  0  0  0  0  0  0
   -8.1717   -2.5278    1.6860 C   0  0  0  0  0  0  0  0  0  0  0  0
   -8.6852   -1.4602    2.4416 C   0  0  0  0  0  0  0  0  0  0  0  0
   -9.8808   -1.6097    3.1504 C   0  0  0  0  0  0  0  0  0  0  0  0
  -10.5730   -2.8229    3.1078 C   0  0  0  0  0  0  0  0  0  0  0  0
  -10.0709   -3.8885    2.3559 C   0  0  0  0  0  0  0  0  0  0  0  0
   -8.8745   -3.7440    1.6476 C   0  0  0  0  0  0  0  0  0  0  0  0
   -7.8505   -2.9770   -1.2949 N   0  0  0  0  0  0  0  0  0  0  0  0
   -7.2673   -4.2355   -1.6877 C   0  0  0  0  0  0  0  0  0  0  0  0
   -8.0449   -5.1854   -1.9768 O   0  0  0  0  0  0  0  0  0  0  0  0
   -5.7631   -4.4484   -1.8290 C   0  0  1  0  0  0  0  0  0  0  0  0
   -5.3824   -5.7561   -1.2741 N   0  0  0  0  0  0  0  0  0  0  0  0
   -4.1767   -6.0215   -0.5303 C   0  0  0  0  0  0  0  0  0  0  0  0
   -4.0981   -7.1072    0.1062 O   0  0  0  0  0  0  0  0  0  0  0  0
   -3.0144   -5.0420   -0.4667 C   0  0  1  0  0  0  0  0  0  0  0  0
   -3.1018   -4.1451    0.7892 C   0  0  0  0  0  0  0  0  0  0  0  0
   -2.8915   -4.9007    2.1133 C   0  0  0  0  0  0  0  0  0  0  0  0
   -2.8295   -3.9503    3.3162 C   0  0  0  0  0  0  0  0  0  0  0  0
   -4.1442   -3.3820    3.6023 N   0  0  0  0  0  0  0  0  0  0  0  0
   -1.7267   -5.7533   -0.5122 N   0  0  0  0  0  0  0  0  0  0  0  0
   -0.4616   -5.1615   -0.8618 C   0  0  0  0  0  0  0  0  0  0  0  0
    0.5836   -5.8524   -0.7168 O   0  0  0  0  0  0  0  0  0  0  0  0
   -5.2875   -4.3221   -3.3069 C   0  0  1  0  0  0  0  0  0  0  0  0
   -6.0291   -5.2872   -4.2525 C   0  0  0  0  0  0  0  0  0  0  0  0
   -5.3886   -2.8547   -3.7894 C   0  0  0  0  0  0  0  0  0  0  0  0
   -4.7956   -2.6359   -5.1821 C   0  0  0  0  0  0  0  0  0  0  0  0
    7.8227    4.1784    4.3142 H   0  0  0  0  0  0  0  0  0  0  0  0
    7.8835    4.7284    6.0133 H   0  0  0  0  0  0  0  0  0  0  0  0
    9.2897    5.0417    4.9414 H   0  0  0  0  0  0  0  0  0  0  0  0
    9.4859    3.0728    6.6451 H   0  0  0  0  0  0  0  0  0  0  0  0
    8.2415    2.2299    5.6885 H   0  0  0  0  0  0  0  0  0  0  0  0
   10.4078    1.3881    5.1258 H   0  0  0  0  0  0  0  0  0  0  0  0
   11.3709    4.2287    4.4485 H   0  0  0  0  0  0  0  0  0  0  0  0
   12.2961    2.6960    4.2244 H   0  0  0  0  0  0  0  0  0  0  0  0
   11.8218    3.2247    5.8682 H   0  0  0  0  0  0  0  0  0  0  0  0
    8.6440    1.7995    3.2881 H   0  0  0  0  0  0  0  0  0  0  0  0
   11.4574    1.2763    2.5227 H   0  0  0  0  0  0  0  0  0  0  0  0
   10.0657    0.8136    1.6902 H   0  0  0  0  0  0  0  0  0  0  0  0
    8.8553    5.9360    1.5143 H   0  0  0  0  0  0  0  0  0  0  0  0
   10.6796    5.7418    0.0200 H   0  0  0  0  0  0  0  0  0  0  0  0
   10.1777    4.1005   -0.5638 H   0  0  0  0  0  0  0  0  0  0  0  0
    7.8419    2.8502   -0.4124 H   0  0  0  0  0  0  0  0  0  0  0  0
    6.2929    4.6443   -2.2874 H   0  0  0  0  0  0  0  0  0  0  0  0
    6.8527    1.6097   -2.1838 H   0  0  0  0  0  0  0  0  0  0  0  0
    5.6165    2.2945   -3.2585 H   0  0  0  0  0  0  0  0  0  0  0  0
    7.7486    1.8666   -4.4036 H   0  0  0  0  0  0  0  0  0  0  0  0
    7.8945    3.9134   -5.6848 H   0  0  0  0  0  0  0  0  0  0  0  0
    6.1791    3.6714   -5.2064 H   0  0  0  0  0  0  0  0  0  0  0  0
    7.1982    4.8989   -4.3546 H   0  0  0  0  0  0  0  0  0  0  0  0
    9.3113    2.3769   -2.4878 H   0  0  0  0  0  0  0  0  0  0  0  0
    9.7813    3.1288   -4.0513 H   0  0  0  0  0  0  0  0  0  0  0  0
    9.0242    4.1437   -2.7742 H   0  0  0  0  0  0  0  0  0  0  0  0
    5.6074    1.7803    0.0725 H   0  0  0  0  0  0  0  0  0  0  0  0
    2.7518    2.1089   -0.6062 H   0  0  0  0  0  0  0  0  0  0  0  0
    2.9265    3.9363    1.0794 H   0  0  0  0  0  0  0  0  0  0  0  0
    1.8463    2.6176    1.5825 H   0  0  0  0  0  0  0  0  0  0  0  0
    3.6891    1.6720    3.0663 H   0  0  0  0  0  0  0  0  0  0  0  0
    3.0923    3.2909    3.5178 H   0  0  0  0  0  0  0  0  0  0  0  0
    6.1422    5.0853    2.5166 H   0  0  0  0  0  0  0  0  0  0  0  0
    1.3511    0.2920    0.0012 H   0  0  0  0  0  0  0  0  0  0  0  0
    2.8370   -2.1750    0.4686 H   0  0  0  0  0  0  0  0  0  0  0  0
    2.9688   -1.5374    2.7788 H   0  0  0  0  0  0  0  0  0  0  0  0
    1.1285   -0.8394    4.2101 H   0  0  0  0  0  0  0  0  0  0  0  0
   -0.0578   -0.9684    2.8710 H   0  0  0  0  0  0  0  0  0  0  0  0
    1.2516    0.2785    2.8214 H   0  0  0  0  0  0  0  0  0  0  0  0
    0.5848   -3.4939    2.5429 H   0  0  0  0  0  0  0  0  0  0  0  0
    1.6178   -3.2421    3.9820 H   0  0  0  0  0  0  0  0  0  0  0  0
    3.6458   -3.9447    2.6194 H   0  0  0  0  0  0  0  0  0  0  0  0
    2.3958   -5.2254    2.8475 H   0  0  0  0  0  0  0  0  0  0  0  0
    2.5168   -4.3803    1.2679 H   0  0  0  0  0  0  0  0  0  0  0  0
    1.7863   -3.4239   -1.1678 H   0  0  0  0  0  0  0  0  0  0  0  0
   -1.2383   -3.1814   -1.2567 H   0  0  0  0  0  0  0  0  0  0  0  0
   -1.0145   -4.4768   -3.4136 H   0  0  0  0  0  0  0  0  0  0  0  0
    0.7638   -4.4333   -3.2214 H   0  0  0  0  0  0  0  0  0  0  0  0
    0.1995   -2.6780   -4.7327 H   0  0  0  0  0  0  0  0  0  0  0  0
    0.6704   -1.8805   -3.2168 H   0  0  0  0  0  0  0  0  0  0  0  0
   -1.7420   -1.5152   -4.7515 H   0  0  0  0  0  0  0  0  0  0  0  0
   -2.2927   -2.4604   -3.3471 H   0  0  0  0  0  0  0  0  0  0  0  0
   -2.5570   -0.1472   -2.8396 H   0  0  0  0  0  0  0  0  0  0  0  0
   -1.2024   -0.7372   -1.8110 H   0  0  0  0  0  0  0  0  0  0  0  0
   -0.0639    0.3153   -4.2531 H   0  0  0  0  0  0  0  0  0  0  0  0
   -2.3472    1.8351   -1.8116 H   0  0  0  0  0  0  0  0  0  0  0  0
   -2.5160    4.0729   -1.1012 H   0  0  0  0  0  0  0  0  0  0  0  0
   -1.9863    4.0982   -2.8025 H   0  0  0  0  0  0  0  0  0  0  0  0
    0.6049    5.5395    0.2766 H   0  0  0  0  0  0  0  0  0  0  0  0
   -0.8480    4.5901    0.7503 H   0  0  0  0  0  0  0  0  0  0  0  0
    0.2167    2.2466   -0.2464 H   0  0  0  0  0  0  0  0  0  0  0  0
   -2.9943    0.4265   -0.2616 H   0  0  0  0  0  0  0  0  0  0  0  0
   -4.2140   -0.4875    1.6161 H   0  0  0  0  0  0  0  0  0  0  0  0
   -2.4806   -0.7524    1.8779 H   0  0  0  0  0  0  0  0  0  0  0  0
   -2.4866    0.9094    5.0548 H   0  0  0  0  0  0  0  0  0  0  0  0
   -3.6202    3.0200    1.1077 H   0  0  0  0  0  0  0  0  0  0  0  0
   -5.1923   -0.0097   -0.3392 H   0  0  0  0  0  0  0  0  0  0  0  0
   -5.8308    0.0854   -2.7140 H   0  0  0  0  0  0  0  0  0  0  0  0
   -4.4339    1.1451   -2.3992 H   0  0  0  0  0  0  0  0  0  0  0  0
   -8.2206    1.3105   -3.2958 H   0  0  0  0  0  0  0  0  0  0  0  0
   -8.7577    3.7222   -4.0856 H   0  0  0  0  0  0  0  0  0  0  0  0
   -6.6775    5.1919   -3.6793 H   0  0  0  0  0  0  0  0  0  0  0  0
   -7.7903    1.5008   -0.2925 H   0  0  0  0  0  0  0  0  0  0  0  0
   -6.1638   -1.7740   -1.0572 H   0  0  0  0  0  0  0  0  0  0  0  0
   -6.3382   -3.3191    0.9168 H   0  0  0  0  0  0  0  0  0  0  0  0
   -6.2452   -1.6129    1.4044 H   0  0  0  0  0  0  0  0  0  0  0  0
   -8.1618   -0.5123    2.4781 H   0  0  0  0  0  0  0  0  0  0  0  0
  -10.2714   -0.7840    3.7312 H   0  0  0  0  0  0  0  0  0  0  0  0
  -11.4987   -2.9371    3.6563 H   0  0  0  0  0  0  0  0  0  0  0  0
  -10.6088   -4.8271    2.3227 H   0  0  0  0  0  0  0  0  0  0  0  0
   -8.4965   -4.5782    1.0699 H   0  0  0  0  0  0  0  0  0  0  0  0
   -8.8899   -2.9084   -1.3829 H   0  0  0  0  0  0  0  0  0  0  0  0
   -5.2388   -3.6801   -1.2390 H   0  0  0  0  0  0  0  0  0  0  0  0
   -6.0291   -6.5658   -1.4137 H   0  0  0  0  0  0  0  0  0  0  0  0
   -3.0765   -4.3956   -1.3621 H   0  0  0  0  0  0  0  0  0  0  0  0
   -2.3406   -3.3461    0.7163 H   0  0  0  0  0  0  0  0  0  0  0  0
   -4.0850   -3.6391    0.8048 H   0  0  0  0  0  0  0  0  0  0  0  0
   -1.9315   -5.4584    2.0724 H   0  0  0  0  0  0  0  0  0  0  0  0
   -3.7103   -5.6347    2.2707 H   0  0  0  0  0  0  0  0  0  0  0  0
   -2.4885   -4.5318    4.2007 H   0  0  0  0  0  0  0  0  0  0  0  0
   -2.0871   -3.1398    3.1385 H   0  0  0  0  0  0  0  0  0  0  0  0
   -4.0919   -2.9153    4.5365 H   0  0  0  0  0  0  0  0  0  0  0  0
   -4.3328   -2.6210    2.9121 H   0  0  0  0  0  0  0  0  0  0  0  0
   -1.6881   -6.7421   -0.1759 H   0  0  0  0  0  0  0  0  0  0  0  0
   -4.2133   -4.6063   -3.3385 H   0  0  0  0  0  0  0  0  0  0  0  0
   -5.5071   -5.3453   -5.2298 H   0  0  0  0  0  0  0  0  0  0  0  0
   -6.0471   -6.3142   -3.8333 H   0  0  0  0  0  0  0  0  0  0  0  0
   -7.0709   -4.9478   -4.4306 H   0  0  0  0  0  0  0  0  0  0  0  0
   -6.4488   -2.5212   -3.7934 H   0  0  0  0  0  0  0  0  0  0  0  0
   -4.8299   -2.2040   -3.0817 H   0  0  0  0  0  0  0  0  0  0  0  0
   -5.4572   -3.0735   -5.9590 H   0  0  0  0  0  0  0  0  0  0  0  0
   -3.7877   -3.0954   -5.2576 H   0  0  0  0  0  0  0  0  0  0  0  0
   -4.7057   -1.5471   -5.3791 H   0  0  0  0  0  0  0  0  0  0  0  0
  1  2  1  0
  2  3  1  0
  3  4  1  0
  3  5  1  0
  5  6  1  0
  5  7  1  0
  7  8  2  0
  8  9  1  0
  9 10  1  0
 10 11  1  0
  9 12  1  0
 12 13  2  0
 12 14  1  0
 14 15  1  0
 15 16  1  0
 16 17  1  0
 17 18  1  0
 17 19  1  0
 15 20  1  0
 20 21  2  0
 20 22  1  0
 22 23  1  0
 23 24  1  0
 24 25  1  0
 25 26  1  0
 26 27  1  0
 26 28  2  0
 23 29  1  0
 29 30  2  0
 29 31  1  0
 31 32  1  0
 32 33  1  0
 33 34  1  0
 33 35  1  0
 35 36  1  0
 32 37  1  0
 37 38  2  0
 37 39  1  0
 39 40  1  0
 40 41  1  0
 41 42  1  0
 42 43  1  0
 43 44  1  0
 44 45  1  0
 45 46  1  0
 46 47  2  0
 46 48  1  0
 48 49  1  0
 49 50  1  0
 50 51  1  0
 50 52  2  0
 48 53  1  0
 53 54  1  0
 54 55  2  0
 54 56  1  0
 56 57  1  0
 57 58  1  0
 58 59  1  0
 58 60  2  0
 56 61  1  0
 61 62  1  0
 62 63  2  0
 62 64  1  0
 64 65  1  0
 65 66  1  0
 66 67  2  0
 67 68  1  0
 68 69  1  0
 69 70  2  0
 64 71  1  0
 71 72  1  0
 72 73  2  0
 72 74  1  0
 74 75  1  0
 75 76  1  0
 76 77  2  0
 77 78  1  0
 78 79  2  0
 79 80  1  0
 80 81  2  0
 74 82  1  0
 82 83  1  0
 83 84  2  0
 83 85  1  0
 85 86  1  0
 86 87  1  0
 87 88  2  0
 87 89  1  0
 89 90  1  0
 90 91  1  0
 91 92  1  0
 92 93  1  0
 89 94  1  0
 94 95  1  0
 95 96  2  0
 85 97  1  0
 97 98  1  0
 97 99  1  0
 99100  1  0
 11  7  1  0
 95 40  1  0
 70 66  1  0
 81 76  1  0
  1101  1  0
  1102  1  0
  1103  1  0
  2104  1  0
  2105  1  0
  3106  1  1
  4107  1  0
  4108  1  0
  4109  1  0
  5110  1  1
  6111  1  0
  6112  1  0
  9113  1  1
 10114  1  0
 10115  1  0
 14116  1  0
 15117  1  6
 16118  1  0
 16119  1  0
 17120  1  0
 18121  1  0
 18122  1  0
 18123  1  0
 19124  1  0
 19125  1  0
 19126  1  0
 22127  1  0
 23128  1  6
 24129  1  0
 24130  1  0
 25131  1  0
 25132  1  0
 27133  1  0
 31134  1  0
 32135  1  6
 33136  1  1
 34137  1  0
 34138  1  0
 34139  1  0
 35140  1  0
 35141  1  0
 36142  1  0
 36143  1  0
 36144  1  0
 39145  1  0
 40146  1  6
 41147  1  0
 41148  1  0
 42149  1  0
 42150  1  0
 43151  1  0
 43152  1  0
 44153  1  0
 44154  1  0
 45155  1  0
 48156  1  6
 49157  1  0
 49158  1  0
 51159  1  0
 51160  1  0
 53161  1  0
 56162  1  6
 57163  1  0
 57164  1  0
 59165  1  0
 61166  1  0
 64167  1  1
 65168  1  0
 65169  1  0
 67170  1  0
 68171  1  0
 69172  1  0
 71173  1  0
 74174  1  6
 75175  1  0
 75176  1  0
 77177  1  0
 78178  1  0
 79179  1  0
 80180  1  0
 81181  1  0
 82182  1  0
 85183  1  1
 86184  1  0
 89185  1  6
 90186  1  0
 90187  1  0
 91188  1  0
 91189  1  0
 92190  1  0
 92191  1  0
 93192  1  0
 93193  1  0
 94194  1  0
 97195  1  1
 98196  1  0
 98197  1  0
 98198  1  0
 99199  1  0
 99200  1  0
100201  1  0
100202  1  0
100203  1  0
M  END
$$$$
