
     RDKit          3D

 37 38  0  0  0  0  0  0  0  0999 V2000
    4.4887    1.7441    1.5284 C   0  0  0  0  0  0  0  0  0  0  0  0
    4.9984    0.9611    0.3196 C   0  0  0  0  0  0  0  0  0  0  0  0
    4.5581   -0.5109    0.3424 C   0  0  0  0  0  0  0  0  0  0  0  0
    3.0606   -0.6686    0.2034 C   0  0  0  0  0  0  0  0  0  0  0  0
    2.4840   -0.4271   -0.9893 C   0  0  0  0  0  0  0  0  0  0  0  0
    1.0287   -0.3818   -1.2216 C   0  0  0  0  0  0  0  0  0  0  0  0
    0.4287   -0.3599   -2.4637 C   0  0  0  0  0  0  0  0  0  0  0  0
   -0.9274   -0.2868   -2.2269 C   0  0  0  0  0  0  0  0  0  0  0  0
   -1.0725   -0.2620   -0.8478 C   0  0  0  0  0  0  0  0  0  0  0  0
    0.1133   -0.3156   -0.2829 O   0  0  0  0  0  0  0  0  0  0  0  0
   -2.3377   -0.1871   -0.0800 C   0  0  0  0  0  0  0  0  0  0  0  0
   -3.5881   -0.1119   -0.7237 C   0  0  0  0  0  0  0  0  0  0  0  0
   -4.7788   -0.0421    0.0228 C   0  0  0  0  0  0  0  0  0  0  0  0
   -4.7072   -0.0482    1.4264 C   0  0  0  0  0  0  0  0  0  0  0  0
   -3.4709   -0.1225    2.0696 C   0  0  0  0  0  0  0  0  0  0  0  0
   -2.2933   -0.1915    1.3238 C   0  0  0  0  0  0  0  0  0  0  0  0
   -6.0881    0.0368   -0.6633 C   0  0  0  0  0  0  0  0  0  0  0  0
   -6.1533    0.0424   -2.0544 O   0  0  0  0  0  0  0  0  0  0  0  0
   -7.1560    0.0996    0.0041 O   0  0  0  0  0  0  0  0  0  0  0  0
    2.2957   -1.1096    1.3373 N   0  0  0  0  0  4  0  0  0  0  0  0
    1.4086   -2.1527    1.2011 O   0  0  0  0  0  1  0  0  0  0  0  0
    2.6148   -0.7395    2.4857 O   0  0  0  0  0  0  0  0  0  0  0  0
    3.3801    1.8050    1.5131 H   0  0  0  0  0  0  0  0  0  0  0  0
    4.8956    2.7767    1.4988 H   0  0  0  0  0  0  0  0  0  0  0  0
    4.8201    1.2595    2.4713 H   0  0  0  0  0  0  0  0  0  0  0  0
    6.1092    0.9974    0.3196 H   0  0  0  0  0  0  0  0  0  0  0  0
    4.6469    1.4523   -0.6135 H   0  0  0  0  0  0  0  0  0  0  0  0
    5.0592   -1.0474   -0.4929 H   0  0  0  0  0  0  0  0  0  0  0  0
    4.9111   -0.9901    1.2812 H   0  0  0  0  0  0  0  0  0  0  0  0
    3.1177   -0.1919   -1.8370 H   0  0  0  0  0  0  0  0  0  0  0  0
    0.9186   -0.3915   -3.4281 H   0  0  0  0  0  0  0  0  0  0  0  0
   -1.7018   -0.2543   -2.9804 H   0  0  0  0  0  0  0  0  0  0  0  0
   -3.6407   -0.1066   -1.8032 H   0  0  0  0  0  0  0  0  0  0  0  0
   -5.6061    0.0044    2.0278 H   0  0  0  0  0  0  0  0  0  0  0  0
   -3.4252   -0.1268    3.1511 H   0  0  0  0  0  0  0  0  0  0  0  0
   -1.3465   -0.2492    1.8467 H   0  0  0  0  0  0  0  0  0  0  0  0
   -7.0444    0.0961   -2.5333 H   0  0  0  0  0  0  0  0  0  0  0  0
  1  2  1  0
  2  3  1  0
  3  4  1  0
  4  5  2  0
  5  6  1  0
  6  7  2  0
  7  8  1  0
  8  9  2  0
  9 10  1  0
  9 11  1  0
 11 12  2  0
 12 13  1  0
 13 14  2  0
 14 15  1  0
 15 16  2  0
 13 17  1  0
 17 18  1  0
 17 19  2  0
  4 20  1  0
 20 21  1  0
 20 22  2  0
 10  6  1  0
 16 11  1  0
  1 23  1  0
  1 24  1  0
  1 25  1  0
  2 26  1  0
  2 27  1  0
  3 28  1  0
  3 29  1  0
  5 30  1  0
  7 31  1  0
  8 32  1  0
 12 33  1  0
 14 34  1  0
 15 35  1  0
 16 36  1  0
 18 37  1  0
M  CHG  2  20   1  21  -1
M  END
$$$$
