
     RDKit          3D

 84 88  0  0  0  0  0  0  0  0999 V2000
   -5.2429   -0.7579   -3.0831 N   0  0  0  0  0  0  0  0  0  0  0  0
   -6.2031   -1.5011   -2.3169 C   0  0  0  0  0  0  0  0  0  0  0  0
   -7.5341   -1.8027   -2.9562 C   0  0  0  0  0  0  0  0  0  0  0  0
   -5.8807   -1.9129   -1.0674 C   0  0  0  0  0  0  0  0  0  0  0  0
   -4.5943   -1.4171   -0.4252 C   0  0  2  0  0  0  0  0  0  0  0  0
   -4.8897   -0.2743    0.5309 C   0  0  0  0  0  0  0  0  0  0  0  0
   -5.4260    0.9406    0.0626 C   0  0  0  0  0  0  0  0  0  0  0  0
   -5.6878    2.0029    0.9477 C   0  0  0  0  0  0  0  0  0  0  0  0
   -5.4058    1.8362    2.3139 C   0  0  0  0  0  0  0  0  0  0  0  0
   -4.8746    0.6344    2.7851 C   0  0  0  0  0  0  0  0  0  0  0  0
   -4.6178   -0.4150    1.9022 C   0  0  0  0  0  0  0  0  0  0  0  0
   -6.2349    3.2437    0.4645 N   0  0  0  0  0  4  0  0  0  0  0  0
   -6.4889    4.2810    1.3325 O   0  0  0  0  0  1  0  0  0  0  0  0
   -6.4875    3.3995   -0.7484 O   0  0  0  0  0  0  0  0  0  0  0  0
   -3.5182   -1.0021   -1.4173 C   0  0  0  0  0  0  0  0  0  0  0  0
   -2.1150   -0.9594   -0.9146 C   0  0  0  0  0  0  0  0  0  0  0  0
   -1.1357   -0.9372   -1.7093 O   0  0  0  0  0  0  0  0  0  0  0  0
   -1.8863   -0.9915    0.4666 O   0  0  0  0  0  0  0  0  0  0  0  0
   -0.5996   -0.8240    1.0558 C   0  0  0  0  0  0  0  0  0  0  0  0
   -0.1866    0.6514    1.0149 C   0  0  0  0  0  0  0  0  0  0  0  0
    1.1733    0.8825    1.6880 C   0  0  0  0  0  0  0  0  0  0  0  0
    2.2461    0.1500    0.9808 N   0  0  0  0  0  0  0  0  0  0  0  0
    3.3246   -0.2424    1.9178 C   0  0  0  0  0  0  0  0  0  0  0  0
    4.5998   -0.6435    1.1616 C   0  0  0  0  0  0  0  0  0  0  0  0
    5.2218    0.5599    0.3727 C   0  0  0  0  0  0  0  0  0  0  0  0
    4.0836    1.5687   -0.0038 C   0  0  0  0  0  0  0  0  0  0  0  0
    2.7285    0.8724   -0.2275 C   0  0  0  0  0  0  0  0  0  0  0  0
    5.9461   -0.0526   -0.8486 C   0  0  0  0  0  0  0  0  0  0  0  0
    7.1038   -0.8330   -0.6268 C   0  0  0  0  0  0  0  0  0  0  0  0
    7.7854   -1.4304   -1.6896 C   0  0  0  0  0  0  0  0  0  0  0  0
    7.3207   -1.2743   -2.9944 C   0  0  0  0  0  0  0  0  0  0  0  0
    6.1701   -0.5254   -3.2378 C   0  0  0  0  0  0  0  0  0  0  0  0
    5.4820    0.0762   -2.1795 C   0  0  0  0  0  0  0  0  0  0  0  0
    6.2579    1.3679    1.1874 C   0  0  0  0  0  0  0  0  0  0  0  0
    6.3904    1.2691    2.5931 C   0  0  0  0  0  0  0  0  0  0  0  0
    7.3202    2.0550    3.2809 C   0  0  0  0  0  0  0  0  0  0  0  0
    8.1201    2.9649    2.5909 C   0  0  0  0  0  0  0  0  0  0  0  0
    7.9869    3.1000    1.2101 C   0  0  0  0  0  0  0  0  0  0  0  0
    7.0604    2.3187    0.5156 C   0  0  0  0  0  0  0  0  0  0  0  0
   -3.8785   -0.6051   -2.6623 C   0  0  0  0  0  0  0  0  0  0  0  0
   -2.9020   -0.0107   -3.6445 C   0  0  0  0  0  0  0  0  0  0  0  0
   -6.7680   -2.7741   -0.2358 C   0  0  0  0  0  0  0  0  0  0  0  0
   -7.6171   -3.5400   -0.7685 O   0  0  0  0  0  0  0  0  0  0  0  0
   -6.6182   -2.7669    1.1550 O   0  0  0  0  0  0  0  0  0  0  0  0
   -7.4142   -3.5673    2.0199 C   0  0  0  0  0  0  0  0  0  0  0  0
   -5.5223   -0.3973   -4.0231 H   0  0  0  0  0  0  0  0  0  0  0  0
   -8.3642   -1.5656   -2.2576 H   0  0  0  0  0  0  0  0  0  0  0  0
   -7.6843   -1.1845   -3.8656 H   0  0  0  0  0  0  0  0  0  0  0  0
   -7.5766   -2.8704   -3.2567 H   0  0  0  0  0  0  0  0  0  0  0  0
   -4.1789   -2.2795    0.1439 H   0  0  0  0  0  0  0  0  0  0  0  0
   -5.6368    1.0581   -0.9917 H   0  0  0  0  0  0  0  0  0  0  0  0
   -5.5955    2.6349    3.0191 H   0  0  0  0  0  0  0  0  0  0  0  0
   -4.6601    0.5161    3.8394 H   0  0  0  0  0  0  0  0  0  0  0  0
   -4.2038   -1.3374    2.2901 H   0  0  0  0  0  0  0  0  0  0  0  0
   -0.6549   -1.1586    2.1134 H   0  0  0  0  0  0  0  0  0  0  0  0
    0.1452   -1.4615    0.5311 H   0  0  0  0  0  0  0  0  0  0  0  0
   -0.9548    1.2525    1.5483 H   0  0  0  0  0  0  0  0  0  0  0  0
   -0.1587    1.0042   -0.0369 H   0  0  0  0  0  0  0  0  0  0  0  0
    1.3964    1.9728    1.7214 H   0  0  0  0  0  0  0  0  0  0  0  0
    1.0861    0.5403    2.7450 H   0  0  0  0  0  0  0  0  0  0  0  0
    2.9802   -1.1128    2.5171 H   0  0  0  0  0  0  0  0  0  0  0  0
    3.5528    0.5864    2.6240 H   0  0  0  0  0  0  0  0  0  0  0  0
    4.3039   -1.4527    0.4551 H   0  0  0  0  0  0  0  0  0  0  0  0
    5.3350   -1.1151    1.8468 H   0  0  0  0  0  0  0  0  0  0  0  0
    3.9303    2.2962    0.8256 H   0  0  0  0  0  0  0  0  0  0  0  0
    4.3581    2.1915   -0.8808 H   0  0  0  0  0  0  0  0  0  0  0  0
    1.9976    1.6339   -0.5772 H   0  0  0  0  0  0  0  0  0  0  0  0
    2.8182    0.1362   -1.0521 H   0  0  0  0  0  0  0  0  0  0  0  0
    7.4815   -0.9791    0.3776 H   0  0  0  0  0  0  0  0  0  0  0  0
    8.6738   -2.0187   -1.4996 H   0  0  0  0  0  0  0  0  0  0  0  0
    7.8490   -1.7389   -3.8169 H   0  0  0  0  0  0  0  0  0  0  0  0
    5.8062   -0.4130   -4.2511 H   0  0  0  0  0  0  0  0  0  0  0  0
    4.5929    0.6332   -2.4274 H   0  0  0  0  0  0  0  0  0  0  0  0
    5.7863    0.5966    3.1807 H   0  0  0  0  0  0  0  0  0  0  0  0
    7.4157    1.9616    4.3551 H   0  0  0  0  0  0  0  0  0  0  0  0
    8.8370    3.5725    3.1281 H   0  0  0  0  0  0  0  0  0  0  0  0
    8.5985    3.8157    0.6761 H   0  0  0  0  0  0  0  0  0  0  0  0
    6.9672    2.4572   -0.5544 H   0  0  0  0  0  0  0  0  0  0  0  0
   -2.2200   -0.7991   -4.0259 H   0  0  0  0  0  0  0  0  0  0  0  0
   -3.4333    0.4297   -4.5137 H   0  0  0  0  0  0  0  0  0  0  0  0
   -2.3205    0.8064   -3.1675 H   0  0  0  0  0  0  0  0  0  0  0  0
   -7.2661   -4.6427    1.7859 H   0  0  0  0  0  0  0  0  0  0  0  0
   -7.1088   -3.3821    3.0701 H   0  0  0  0  0  0  0  0  0  0  0  0
   -8.4862   -3.3011    1.9042 H   0  0  0  0  0  0  0  0  0  0  0  0
  1  2  1  0
  2  3  1  0
  2  4  2  0
  4  5  1  0
  5  6  1  0
  6  7  2  0
  7  8  1  0
  8  9  2  0
  9 10  1  0
 10 11  2  0
  8 12  1  0
 12 13  1  0
 12 14  2  0
  5 15  1  0
 15 16  1  0
 16 17  2  0
 16 18  1  0
 18 19  1  0
 19 20  1  0
 20 21  1  0
 21 22  1  0
 22 23  1  0
 23 24  1  0
 24 25  1  0
 25 26  1  0
 26 27  1  0
 25 28  1  0
 28 29  2  0
 29 30  1  0
 30 31  2  0
 31 32  1  0
 32 33  2  0
 25 34  1  0
 34 35  2  0
 35 36  1  0
 36 37  2  0
 37 38  1  0
 38 39  2  0
 15 40  2  0
 40 41  1  0
  4 42  1  0
 42 43  2  0
 42 44  1  0
 44 45  1  0
 40  1  1  0
 11  6  1  0
 27 22  1  0
 33 28  1  0
 39 34  1  0
  1 46  1  0
  3 47  1  0
  3 48  1  0
  3 49  1  0
  5 50  1  1
  7 51  1  0
  9 52  1  0
 10 53  1  0
 11 54  1  0
 19 55  1  0
 19 56  1  0
 20 57  1  0
 20 58  1  0
 21 59  1  0
 21 60  1  0
 23 61  1  0
 23 62  1  0
 24 63  1  0
 24 64  1  0
 26 65  1  0
 26 66  1  0
 27 67  1  0
 27 68  1  0
 29 69  1  0
 30 70  1  0
 31 71  1  0
 32 72  1  0
 33 73  1  0
 35 74  1  0
 36 75  1  0
 37 76  1  0
 38 77  1  0
 39 78  1  0
 41 79  1  0
 41 80  1  0
 41 81  1  0
 45 82  1  0
 45 83  1  0
 45 84  1  0
M  CHG  2  12   1  13  -1
M  END
$$$$
