
     RDKit          3D

 27 26  0  0  0  0  0  0  0  0999 V2000
    4.3112    1.5924   -0.5564 N   0  0  0  0  0  0  0  0  0  0  0  0
    3.9407    0.1921   -0.7555 C   0  0  0  0  0  0  0  0  0  0  0  0
    3.3479   -0.4299    0.5168 C   0  0  0  0  0  0  0  0  0  0  0  0
    2.1743    0.2543    0.9076 O   0  0  0  0  0  0  0  0  0  0  0  0
    0.7913   -0.6329    0.4405 P   0  0  1  0  0  5  0  0  0  0  0  0
    0.8434   -0.9702   -1.2206 O   0  0  0  0  0  0  0  0  0  0  0  0
    0.7321   -1.9243    1.2288 O   0  0  0  0  0  0  0  0  0  0  0  0
   -0.5855    0.3110    0.7902 O   0  0  0  0  0  0  0  0  0  0  0  0
   -1.7272   -0.3785    0.3371 C   0  0  0  0  0  0  0  0  0  0  0  0
   -2.9779    0.4516    0.6604 C   0  0  1  0  0  0  0  0  0  0  0  0
   -2.8920    1.7264    0.0727 O   0  0  0  0  0  0  0  0  0  0  0  0
   -4.2590   -0.2717    0.2111 C   0  0  0  0  0  0  0  0  0  0  0  0
   -5.3930    0.4591    0.5934 O   0  0  0  0  0  0  0  0  0  0  0  0
    4.9736    1.6584    0.2505 H   0  0  0  0  0  0  0  0  0  0  0  0
    3.4546    2.1411   -0.3141 H   0  0  0  0  0  0  0  0  0  0  0  0
    3.2120    0.1214   -1.5899 H   0  0  0  0  0  0  0  0  0  0  0  0
    4.8458   -0.3812   -1.0507 H   0  0  0  0  0  0  0  0  0  0  0  0
    3.2154   -1.5271    0.3713 H   0  0  0  0  0  0  0  0  0  0  0  0
    4.0903   -0.3300    1.3368 H   0  0  0  0  0  0  0  0  0  0  0  0
    1.3570   -1.8132   -1.2999 H   0  0  0  0  0  0  0  0  0  0  0  0
   -1.6802   -0.5393   -0.7642 H   0  0  0  0  0  0  0  0  0  0  0  0
   -1.8183   -1.3629    0.8512 H   0  0  0  0  0  0  0  0  0  0  0  0
   -3.0267    0.5841    1.7636 H   0  0  0  0  0  0  0  0  0  0  0  0
   -2.8531    1.6012   -0.9119 H   0  0  0  0  0  0  0  0  0  0  0  0
   -4.3086   -1.2690    0.6981 H   0  0  0  0  0  0  0  0  0  0  0  0
   -4.2523   -0.4353   -0.8915 H   0  0  0  0  0  0  0  0  0  0  0  0
   -5.5159    1.1725   -0.0859 H   0  0  0  0  0  0  0  0  0  0  0  0
  1  2  1  0
  2  3  1  0
  3  4  1  0
  5  4  1  1
  5  6  1  0
  5  7  2  0
  5  8  1  0
  8  9  1  0
  9 10  1  0
 10 11  1  0
 10 12  1  0
 12 13  1  0
  1 14  1  0
  1 15  1  0
  2 16  1  0
  2 17  1  0
  3 18  1  0
  3 19  1  0
  6 20  1  0
  9 21  1  0
  9 22  1  0
 10 23  1  1
 11 24  1  0
 12 25  1  0
 12 26  1  0
 13 27  1  0
M  END
$$$$
