
     RDKit          3D

 33 34  0  0  0  0  0  0  0  0999 V2000
   -3.8734    0.5291   -0.4526 C   0  0  1  0  0  0  0  0  0  0  0  0
   -5.2975    0.9678   -0.1260 C   0  0  0  0  0  0  0  0  0  0  0  0
   -3.1731    0.2789    0.7676 O   0  0  0  0  0  0  0  0  0  0  0  0
   -1.7890    0.0680    0.8828 C   0  0  0  0  0  0  0  0  0  0  0  0
   -1.2659   -0.2094    2.1509 C   0  0  0  0  0  0  0  0  0  0  0  0
    0.1040   -0.4261    2.3234 C   0  0  0  0  0  0  0  0  0  0  0  0
    0.9752   -0.3598    1.2314 C   0  0  0  0  0  0  0  0  0  0  0  0
    2.3424   -0.5896    1.4474 O   0  0  0  0  0  0  0  0  0  0  0  0
    3.3576   -0.2509    0.5443 C   0  0  0  0  0  0  0  0  0  0  0  0
    4.2129   -1.2595    0.0848 C   0  0  0  0  0  0  0  0  0  0  0  0
    5.2335   -0.9621   -0.8222 C   0  0  0  0  0  0  0  0  0  0  0  0
    5.4152    0.3510   -1.2660 C   0  0  0  0  0  0  0  0  0  0  0  0
    6.6981    0.7236   -2.4028 Cl  0  0  0  0  0  0  0  0  0  0  0  0
    4.5815    1.3695   -0.7928 C   0  0  0  0  0  0  0  0  0  0  0  0
    3.5567    1.0780    0.1158 C   0  0  0  0  0  0  0  0  0  0  0  0
    2.5882    2.4014    0.7510 Cl  0  0  0  0  0  0  0  0  0  0  0  0
    0.4541   -0.0926   -0.0478 C   0  0  0  0  0  0  0  0  0  0  0  0
   -0.9160    0.1248   -0.2207 C   0  0  0  0  0  0  0  0  0  0  0  0
   -3.9068   -0.7103   -1.2993 C   0  0  0  0  0  0  0  0  0  0  0  0
   -4.1084   -1.9534   -0.7069 O   0  0  0  0  0  0  0  0  0  0  0  0
   -3.7876   -0.6221   -2.5507 O   0  0  0  0  0  0  0  0  0  0  0  0
   -3.3784    1.3592   -1.0038 H   0  0  0  0  0  0  0  0  0  0  0  0
   -5.8582    1.1847   -1.0607 H   0  0  0  0  0  0  0  0  0  0  0  0
   -5.8291    0.1740    0.4420 H   0  0  0  0  0  0  0  0  0  0  0  0
   -5.2728    1.8906    0.4916 H   0  0  0  0  0  0  0  0  0  0  0  0
   -1.9259   -0.2587    3.0078 H   0  0  0  0  0  0  0  0  0  0  0  0
    0.4914   -0.6407    3.3112 H   0  0  0  0  0  0  0  0  0  0  0  0
    4.0764   -2.2792    0.4219 H   0  0  0  0  0  0  0  0  0  0  0  0
    5.8819   -1.7524   -1.1788 H   0  0  0  0  0  0  0  0  0  0  0  0
    4.7374    2.3892   -1.1223 H   0  0  0  0  0  0  0  0  0  0  0  0
    1.1028   -0.0591   -0.9132 H   0  0  0  0  0  0  0  0  0  0  0  0
   -1.2825    0.3322   -1.2160 H   0  0  0  0  0  0  0  0  0  0  0  0
   -4.1449   -2.7962   -1.2677 H   0  0  0  0  0  0  0  0  0  0  0  0
  1  2  1  0
  1  3  1  0
  3  4  1  0
  4  5  2  0
  5  6  1  0
  6  7  2  0
  7  8  1  0
  8  9  1  0
  9 10  2  0
 10 11  1  0
 11 12  2  0
 12 13  1  0
 12 14  1  0
 14 15  2  0
 15 16  1  0
  7 17  1  0
 17 18  2  0
  1 19  1  0
 19 20  1  0
 19 21  2  0
 18  4  1  0
 15  9  1  0
  1 22  1  6
  2 23  1  0
  2 24  1  0
  2 25  1  0
  5 26  1  0
  6 27  1  0
 10 28  1  0
 11 29  1  0
 14 30  1  0
 17 31  1  0
 18 32  1  0
 20 33  1  0
M  END
$$$$
