
     RDKit          3D

 43 46  0  0  0  0  0  0  0  0999 V2000
    5.1831   -1.9061    0.5161 C   0  0  0  0  0  0  0  0  0  0  0  0
    4.2094   -2.1607    1.6639 C   0  0  0  0  0  0  0  0  0  0  0  0
    2.6547   -2.8974    1.1221 S   0  0  0  0  0  6  0  0  0  0  0  0
    2.9145   -3.7448   -0.0923 O   0  0  0  0  0  0  0  0  0  0  0  0
    2.1940   -3.8058    2.2270 O   0  0  0  0  0  0  0  0  0  0  0  0
    1.3283   -1.8087    0.7554 N   0  0  0  0  0  0  0  0  0  0  0  0
    1.1927   -0.6932    1.7008 C   0  0  0  0  0  0  0  0  0  0  0  0
    1.4156    0.3554    0.6084 C   0  0  0  0  0  0  0  0  0  0  0  0
    2.6625    1.2449    0.8115 C   0  0  0  0  0  0  0  0  0  0  0  0
    2.9843    1.9913   -0.4119 C   0  0  0  0  0  0  0  0  0  0  0  0
    3.2374    2.5787   -1.3762 N   0  0  0  0  0  0  0  0  0  0  0  0
    1.6374   -0.8506   -0.3114 C   0  0  0  0  0  0  0  0  0  0  0  0
    0.1828    1.1154    0.3089 N   0  0  0  0  0  0  0  0  0  0  0  0
   -1.0157    0.6053   -0.0524 C   0  0  0  0  0  0  0  0  0  0  0  0
   -1.9176    1.6449   -0.1571 C   0  0  0  0  0  0  0  0  0  0  0  0
   -1.2030    2.7736    0.1931 C   0  0  0  0  0  0  0  0  0  0  0  0
    0.0671    2.4261    0.4732 N   0  0  0  0  0  0  0  0  0  0  0  0
   -3.3607    1.5806   -0.4560 C   0  0  0  0  0  0  0  0  0  0  0  0
   -3.9392    0.5866   -1.2530 C   0  0  0  0  0  0  0  0  0  0  0  0
   -3.4218   -0.4611   -1.9926 C   0  0  0  0  0  0  0  0  0  0  0  0
   -4.5207   -1.0518   -2.6111 C   0  0  0  0  0  0  0  0  0  0  0  0
   -5.6620   -0.4036   -2.2864 N   0  0  0  0  0  0  0  0  0  0  0  0
   -5.2871    0.5905   -1.4686 C   0  0  0  0  0  0  0  0  0  0  0  0
   -6.1005    1.5385   -0.9458 N   0  0  0  0  0  0  0  0  0  0  0  0
   -5.5439    2.5170   -0.1745 C   0  0  0  0  0  0  0  0  0  0  0  0
   -4.1947    2.5337    0.0587 N   0  0  0  0  0  0  0  0  0  0  0  0
    4.8073   -1.1198   -0.1651 H   0  0  0  0  0  0  0  0  0  0  0  0
    5.3661   -2.8393   -0.0565 H   0  0  0  0  0  0  0  0  0  0  0  0
    6.1529   -1.5590    0.9308 H   0  0  0  0  0  0  0  0  0  0  0  0
    4.6932   -2.8775    2.3609 H   0  0  0  0  0  0  0  0  0  0  0  0
    4.0480   -1.2307    2.2368 H   0  0  0  0  0  0  0  0  0  0  0  0
    1.9513   -0.6803    2.5090 H   0  0  0  0  0  0  0  0  0  0  0  0
    0.1663   -0.6711    2.1271 H   0  0  0  0  0  0  0  0  0  0  0  0
    3.5476    0.6402    1.0823 H   0  0  0  0  0  0  0  0  0  0  0  0
    2.4793    1.9636    1.6377 H   0  0  0  0  0  0  0  0  0  0  0  0
    0.9010   -0.9300   -1.1387 H   0  0  0  0  0  0  0  0  0  0  0  0
    2.6709   -0.9339   -0.7010 H   0  0  0  0  0  0  0  0  0  0  0  0
   -1.2301   -0.4491   -0.1578 H   0  0  0  0  0  0  0  0  0  0  0  0
   -1.5849    3.7840    0.2544 H   0  0  0  0  0  0  0  0  0  0  0  0
   -2.3877   -0.7483   -2.1155 H   0  0  0  0  0  0  0  0  0  0  0  0
   -4.4794   -1.8996   -3.2822 H   0  0  0  0  0  0  0  0  0  0  0  0
   -6.6266   -0.6169   -2.6245 H   0  0  0  0  0  0  0  0  0  0  0  0
   -6.1720    3.2867    0.2524 H   0  0  0  0  0  0  0  0  0  0  0  0
  1  2  1  0
  2  3  1  0
  3  4  2  0
  3  5  2  0
  3  6  1  0
  6  7  1  0
  7  8  1  0
  8  9  1  0
  9 10  1  0
 10 11  3  0
  8 12  1  0
  8 13  1  0
 13 14  1  0
 14 15  2  0
 15 16  1  0
 16 17  2  0
 15 18  1  0
 18 19  2  0
 19 20  1  0
 20 21  2  0
 21 22  1  0
 22 23  1  0
 23 24  2  0
 24 25  1  0
 25 26  2  0
 12  6  1  0
 17 13  1  0
 26 18  1  0
 23 19  1  0
  1 27  1  0
  1 28  1  0
  1 29  1  0
  2 30  1  0
  2 31  1  0
  7 32  1  0
  7 33  1  0
  9 34  1  0
  9 35  1  0
 12 36  1  0
 12 37  1  0
 14 38  1  0
 16 39  1  0
 20 40  1  0
 21 41  1  0
 22 42  1  0
 25 43  1  0
M  END
$$$$
