
     RDKit          3D

 26 26  0  0  0  0  0  0  0  0999 V2000
    1.8444   -1.2096   -0.8496 N   0  0  0  0  0  0  0  0  0  0  0  0
    1.9643    0.1493   -0.3109 C   0  0  1  0  0  0  0  0  0  0  0  0
    1.0445    0.3498    0.9134 C   0  0  2  0  0  0  0  0  0  0  0  0
    1.3697   -0.5705    1.9256 O   0  0  0  0  0  0  0  0  0  0  0  0
   -0.4134    0.2182    0.5170 C   0  0  0  0  0  0  0  0  0  0  0  0
   -1.0411   -1.0399    0.4683 C   0  0  0  0  0  0  0  0  0  0  0  0
   -2.3772   -1.1554    0.0680 C   0  0  0  0  0  0  0  0  0  0  0  0
   -2.9687   -2.4179    0.0392 O   0  0  0  0  0  0  0  0  0  0  0  0
   -3.0988   -0.0071   -0.2990 C   0  0  0  0  0  0  0  0  0  0  0  0
   -4.4303   -0.1153   -0.6971 O   0  0  0  0  0  0  0  0  0  0  0  0
   -2.4730    1.2461   -0.2660 C   0  0  0  0  0  0  0  0  0  0  0  0
   -1.1390    1.3578    0.1333 C   0  0  0  0  0  0  0  0  0  0  0  0
    3.3965    0.4716    0.0325 C   0  0  0  0  0  0  0  0  0  0  0  0
    3.9720    1.6454   -0.4440 O   0  0  0  0  0  0  0  0  0  0  0  0
    4.0682   -0.3010    0.7684 O   0  0  0  0  0  0  0  0  0  0  0  0
    2.2249   -1.9001   -0.1619 H   0  0  0  0  0  0  0  0  0  0  0  0
    2.4272   -1.2785   -1.7157 H   0  0  0  0  0  0  0  0  0  0  0  0
    1.6393    0.8627   -1.1017 H   0  0  0  0  0  0  0  0  0  0  0  0
    1.2191    1.3818    1.3021 H   0  0  0  0  0  0  0  0  0  0  0  0
    0.9287   -0.2506    2.7560 H   0  0  0  0  0  0  0  0  0  0  0  0
   -0.4937   -1.9343    0.7389 H   0  0  0  0  0  0  0  0  0  0  0  0
   -3.9317   -2.5546   -0.2438 H   0  0  0  0  0  0  0  0  0  0  0  0
   -4.9712    0.6980   -0.9673 H   0  0  0  0  0  0  0  0  0  0  0  0
   -3.0195    2.1353   -0.5535 H   0  0  0  0  0  0  0  0  0  0  0  0
   -0.6708    2.3344    0.1417 H   0  0  0  0  0  0  0  0  0  0  0  0
    4.9296    1.8845   -0.2158 H   0  0  0  0  0  0  0  0  0  0  0  0
  1  2  1  0
  2  3  1  0
  3  4  1  0
  3  5  1  0
  5  6  2  0
  6  7  1  0
  7  8  1  0
  7  9  2  0
  9 10  1  0
  9 11  1  0
 11 12  2  0
  2 13  1  0
 13 14  1  0
 13 15  2  0
 12  5  1  0
  1 16  1  0
  1 17  1  0
  2 18  1  6
  3 19  1  1
  4 20  1  0
  6 21  1  0
  8 22  1  0
 10 23  1  0
 11 24  1  0
 12 25  1  0
 14 26  1  0
M  END
$$$$
