
     RDKit          3D

 28 29  0  0  0  0  0  0  0  0999 V2000
   -3.0079   -2.1506    0.3303 C   0  0  0  0  0  0  0  0  0  0  0  0
   -1.9075   -1.1943    0.2564 N   0  0  0  0  0  0  0  0  0  0  0  0
   -0.5864   -1.4878    0.2927 C   0  0  0  0  0  0  0  0  0  0  0  0
    0.1707   -0.3178    0.1977 C   0  0  0  0  0  0  0  0  0  0  0  0
    1.6427   -0.1795    0.1978 C   0  0  0  0  0  0  0  0  0  0  0  0
    2.4701   -1.2290    0.2961 C   0  0  0  0  0  0  0  0  0  0  0  0
    3.9424   -1.1015    0.2972 C   0  0  0  0  0  0  0  0  0  0  0  0
    4.6373    0.2228    0.1871 C   0  0  0  0  0  0  0  0  0  0  0  0
    4.6383   -2.1473    0.3944 O   0  0  0  0  0  0  0  0  0  0  0  0
   -0.7501    0.7123    0.1009 C   0  0  0  0  0  0  0  0  0  0  0  0
   -0.5767    2.0932   -0.0171 C   0  0  0  0  0  0  0  0  0  0  0  0
   -1.7275    2.8975   -0.0962 C   0  0  0  0  0  0  0  0  0  0  0  0
   -3.0123    2.3145   -0.0563 C   0  0  0  0  0  0  0  0  0  0  0  0
   -3.1592    0.9213    0.0630 C   0  0  0  0  0  0  0  0  0  0  0  0
   -2.0001    0.1446    0.1398 C   0  0  0  0  0  0  0  0  0  0  0  0
   -2.6193   -3.1872    0.4226 H   0  0  0  0  0  0  0  0  0  0  0  0
   -3.6256   -2.0816   -0.5898 H   0  0  0  0  0  0  0  0  0  0  0  0
   -3.6396   -1.9260    1.2152 H   0  0  0  0  0  0  0  0  0  0  0  0
   -0.1996   -2.4940    0.3830 H   0  0  0  0  0  0  0  0  0  0  0  0
    2.0492    0.8188    0.1142 H   0  0  0  0  0  0  0  0  0  0  0  0
    2.0657   -2.2287    0.3800 H   0  0  0  0  0  0  0  0  0  0  0  0
    4.3614    0.7147   -0.7692 H   0  0  0  0  0  0  0  0  0  0  0  0
    4.3468    0.8727    1.0389 H   0  0  0  0  0  0  0  0  0  0  0  0
    5.7396    0.0869    0.2078 H   0  0  0  0  0  0  0  0  0  0  0  0
    0.4081    2.5397   -0.0477 H   0  0  0  0  0  0  0  0  0  0  0  0
   -1.6271    3.9711   -0.1883 H   0  0  0  0  0  0  0  0  0  0  0  0
   -3.8905    2.9440   -0.1180 H   0  0  0  0  0  0  0  0  0  0  0  0
   -4.1428    0.4711    0.0939 H   0  0  0  0  0  0  0  0  0  0  0  0
  1  2  1  0
  2  3  1  0
  3  4  2  0
  4  5  1  0
  5  6  2  0
  6  7  1  0
  7  8  1  0
  7  9  2  0
  4 10  1  0
 10 11  2  0
 11 12  1  0
 12 13  2  0
 13 14  1  0
 14 15  2  0
 15  2  1  0
 15 10  1  0
  1 16  1  0
  1 17  1  0
  1 18  1  0
  3 19  1  0
  5 20  1  0
  6 21  1  0
  8 22  1  0
  8 23  1  0
  8 24  1  0
 11 25  1  0
 12 26  1  0
 13 27  1  0
 14 28  1  0
M  END
$$$$
