
     RDKit          3D

115124  0  0  0  0  0  0  0  0999 V2000
    4.3707    0.5332   -1.2493 C   0  0  2  0  0  0  0  0  0  0  0  0
    3.5990    1.7460   -1.5447 N   0  0  0  0  0  0  0  0  0  0  0  0
    4.1566    3.0690   -1.8114 C   0  0  0  0  0  0  0  0  0  0  0  0
    2.2267    1.4091   -1.6138 C   0  0  0  0  0  0  0  0  0  0  0  0
    1.1602    2.2935   -1.7162 C   0  0  0  0  0  0  0  0  0  0  0  0
   -0.1590    1.7893   -1.6839 C   0  0  0  0  0  0  0  0  0  0  0  0
   -1.2487    2.6521   -1.8879 O   0  0  0  0  0  0  0  0  0  0  0  0
   -1.1598    4.0626   -2.0574 C   0  0  0  0  0  0  0  0  0  0  0  0
   -0.3867    0.3861   -1.4633 C   0  0  0  0  0  0  0  0  0  0  0  0
    0.7478   -0.4717   -1.4875 C   0  0  0  0  0  0  0  0  0  0  0  0
    2.0365    0.0639   -1.5249 C   0  0  0  0  0  0  0  0  0  0  0  0
    3.3725   -0.6567   -1.4778 C   0  0  1  0  0  0  0  0  0  0  0  0
    3.6277   -1.3320   -2.8199 C   0  0  0  0  0  0  0  0  0  0  0  0
    2.9858   -2.6943   -2.6917 C   0  0  0  0  0  0  0  0  0  0  0  0
    2.9074   -3.0260   -1.2553 N   0  0  0  0  0  0  0  0  0  0  0  0
    3.5569   -4.3167   -0.9635 C   0  0  0  0  0  0  0  0  0  0  0  0
    5.0441   -4.1671   -0.9585 C   0  0  0  0  0  0  0  0  0  0  0  0
    5.5911   -3.0901   -0.3941 C   0  0  0  0  0  0  0  0  0  0  0  0
    4.7338   -2.0668    0.3473 C   0  0  1  0  0  0  0  0  0  0  0  0
    4.4811   -2.7012    1.7685 C   0  0  0  0  0  0  0  0  0  0  0  0
    3.7332   -1.8530    2.8024 C   0  0  0  0  0  0  0  0  0  0  0  0
    5.5956   -0.7614    0.5278 C   0  0  0  0  0  0  0  0  0  0  0  0
    4.9234    0.5766    0.1859 C   0  0  1  0  0  0  0  0  0  0  0  0
    5.9234    1.5971    0.2775 O   0  0  0  0  0  0  0  0  0  0  0  0
    5.6147    2.4880    1.2941 C   0  0  0  0  0  0  0  0  0  0  0  0
    6.3264    3.4867    1.5783 O   0  0  0  0  0  0  0  0  0  0  0  0
    4.4031    2.1718    1.9535 N   0  0  0  0  0  0  0  0  0  0  0  0
    3.6068    3.0730    2.7861 C   0  0  0  0  0  0  0  0  0  0  0  0
    3.1262    2.3651    4.0523 C   0  0  0  0  0  0  0  0  0  0  0  0
    4.5086    1.8096    5.0329 Cl  0  0  0  0  0  0  0  0  0  0  0  0
    3.9222    1.0500    1.2238 C   0  0  0  0  0  0  0  0  0  0  0  0
    2.7499    0.6106    1.3545 O   0  0  0  0  0  0  0  0  0  0  0  0
    3.3736   -1.8431   -0.4641 C   0  0  1  0  0  0  0  0  0  0  0  0
   -1.8221   -0.2138   -1.3264 C   0  0  1  0  0  0  0  0  0  0  0  0
   -1.7764   -1.6081   -0.5573 C   0  0  0  0  0  0  0  0  0  0  0  0
   -2.9986   -2.2432    0.2122 C   0  0  1  0  0  0  0  0  0  0  0  0
   -2.8454   -2.0397    1.7171 C   0  0  0  0  0  0  0  0  0  0  0  0
   -3.3818   -0.7245    1.9878 N   0  0  0  0  0  0  0  0  0  0  0  0
   -4.8385   -0.6792    2.0608 C   0  0  0  0  0  0  0  0  0  0  0  0
   -5.4807   -1.3000    0.7611 C   0  0  2  0  0  0  0  0  0  0  0  0
   -6.1836   -0.2719    0.0941 O   0  0  0  0  0  0  0  0  0  0  0  0
   -6.5259   -2.4025    1.1279 C   0  0  0  0  0  0  0  0  0  0  0  0
   -5.9582   -3.6730    1.7675 C   0  0  0  0  0  0  0  0  0  0  0  0
   -4.4340   -1.8621   -0.2901 C   0  0  0  0  0  0  0  0  0  0  0  0
   -2.5612    0.2139    2.7599 C   0  0  0  0  0  0  0  0  0  0  0  0
   -1.6722    0.9916    1.7746 C   0  0  0  0  0  0  0  0  0  0  0  0
   -2.5076    1.4635    0.6119 C   0  0  0  0  0  0  0  0  0  0  0  0
   -2.7384    0.8124   -0.6235 C   0  0  0  0  0  0  0  0  0  0  0  0
   -3.7975    1.4041   -1.2447 N   0  0  0  0  0  0  0  0  0  0  0  0
   -4.2318    2.3800   -0.4353 C   0  0  0  0  0  0  0  0  0  0  0  0
   -5.3170    3.2286   -0.6496 C   0  0  0  0  0  0  0  0  0  0  0  0
   -5.6272    4.1657    0.3515 C   0  0  0  0  0  0  0  0  0  0  0  0
   -4.8567    4.2290    1.5325 C   0  0  0  0  0  0  0  0  0  0  0  0
   -3.7682    3.3583    1.7190 C   0  0  0  0  0  0  0  0  0  0  0  0
   -3.4771    2.4472    0.7012 C   0  0  0  0  0  0  0  0  0  0  0  0
   -2.2960   -0.4439   -2.7616 C   0  0  0  0  0  0  0  0  0  0  0  0
   -2.8698   -1.5188   -3.0947 O   0  0  0  0  0  0  0  0  0  0  0  0
   -2.1182    0.5667   -3.7147 O   0  0  0  0  0  0  0  0  0  0  0  0
   -2.5569    0.4404   -5.0611 C   0  0  0  0  0  0  0  0  0  0  0  0
    5.2318    0.4760   -1.9528 H   0  0  0  0  0  0  0  0  0  0  0  0
    3.8101    3.4275   -2.8032 H   0  0  0  0  0  0  0  0  0  0  0  0
    5.2655    3.0304   -1.8205 H   0  0  0  0  0  0  0  0  0  0  0  0
    3.8245    3.7783   -1.0247 H   0  0  0  0  0  0  0  0  0  0  0  0
    1.3580    3.3506   -1.8212 H   0  0  0  0  0  0  0  0  0  0  0  0
   -0.6941    4.5253   -1.1618 H   0  0  0  0  0  0  0  0  0  0  0  0
   -0.5704    4.3021   -2.9673 H   0  0  0  0  0  0  0  0  0  0  0  0
   -2.1823    4.4756   -2.1772 H   0  0  0  0  0  0  0  0  0  0  0  0
    0.6480   -1.5432   -1.4516 H   0  0  0  0  0  0  0  0  0  0  0  0
    3.2149   -0.7617   -3.6821 H   0  0  0  0  0  0  0  0  0  0  0  0
    4.7195   -1.4784   -2.9790 H   0  0  0  0  0  0  0  0  0  0  0  0
    1.9570   -2.6647   -3.1089 H   0  0  0  0  0  0  0  0  0  0  0  0
    3.5651   -3.4343   -3.2905 H   0  0  0  0  0  0  0  0  0  0  0  0
    3.2631   -5.0837   -1.7140 H   0  0  0  0  0  0  0  0  0  0  0  0
    3.1915   -4.7115    0.0023 H   0  0  0  0  0  0  0  0  0  0  0  0
    5.6673   -4.8870   -1.4802 H   0  0  0  0  0  0  0  0  0  0  0  0
    6.6729   -2.9935   -0.4296 H   0  0  0  0  0  0  0  0  0  0  0  0
    5.4645   -2.9637    2.2206 H   0  0  0  0  0  0  0  0  0  0  0  0
    3.9308   -3.6547    1.6931 H   0  0  0  0  0  0  0  0  0  0  0  0
    2.6890   -1.6566    2.4919 H   0  0  0  0  0  0  0  0  0  0  0  0
    3.6820   -2.4184    3.7569 H   0  0  0  0  0  0  0  0  0  0  0  0
    4.2650   -0.9069    3.0194 H   0  0  0  0  0  0  0  0  0  0  0  0
    6.0292   -0.6968    1.5498 H   0  0  0  0  0  0  0  0  0  0  0  0
    6.4942   -0.8038   -0.1284 H   0  0  0  0  0  0  0  0  0  0  0  0
    2.7312    3.4334    2.2045 H   0  0  0  0  0  0  0  0  0  0  0  0
    4.2120    3.9582    3.0783 H   0  0  0  0  0  0  0  0  0  0  0  0
    2.5218    3.0708    4.6601 H   0  0  0  0  0  0  0  0  0  0  0  0
    2.4884    1.4942    3.7954 H   0  0  0  0  0  0  0  0  0  0  0  0
    2.5824   -1.6431    0.2818 H   0  0  0  0  0  0  0  0  0  0  0  0
   -1.4391   -2.3840   -1.2805 H   0  0  0  0  0  0  0  0  0  0  0  0
   -0.9293   -1.5703    0.1560 H   0  0  0  0  0  0  0  0  0  0  0  0
   -2.9014   -3.3443    0.0708 H   0  0  0  0  0  0  0  0  0  0  0  0
   -3.3992   -2.8150    2.2841 H   0  0  0  0  0  0  0  0  0  0  0  0
   -1.7885   -2.1365    2.0497 H   0  0  0  0  0  0  0  0  0  0  0  0
   -5.1735   -1.1967    2.9847 H   0  0  0  0  0  0  0  0  0  0  0  0
   -5.1616    0.3791    2.1735 H   0  0  0  0  0  0  0  0  0  0  0  0
   -6.9005    0.0660    0.6937 H   0  0  0  0  0  0  0  0  0  0  0  0
   -7.2836   -1.9786    1.8233 H   0  0  0  0  0  0  0  0  0  0  0  0
   -7.0733   -2.6980    0.2057 H   0  0  0  0  0  0  0  0  0  0  0  0
   -6.7738   -4.4185    1.8765 H   0  0  0  0  0  0  0  0  0  0  0  0
   -5.1674   -4.1265    1.1366 H   0  0  0  0  0  0  0  0  0  0  0  0
   -5.5620   -3.4652    2.7816 H   0  0  0  0  0  0  0  0  0  0  0  0
   -4.8648   -2.7498   -0.8033 H   0  0  0  0  0  0  0  0  0  0  0  0
   -4.3580   -1.1442   -1.1198 H   0  0  0  0  0  0  0  0  0  0  0  0
   -1.9324   -0.3210    3.5047 H   0  0  0  0  0  0  0  0  0  0  0  0
   -3.2030    0.9261    3.3227 H   0  0  0  0  0  0  0  0  0  0  0  0
   -1.2186    1.8641    2.2909 H   0  0  0  0  0  0  0  0  0  0  0  0
   -0.8405    0.3516    1.4191 H   0  0  0  0  0  0  0  0  0  0  0  0
   -4.2070    1.1728   -2.1767 H   0  0  0  0  0  0  0  0  0  0  0  0
   -5.9082    3.1634   -1.5538 H   0  0  0  0  0  0  0  0  0  0  0  0
   -6.4645    4.8382    0.2181 H   0  0  0  0  0  0  0  0  0  0  0  0
   -5.1061    4.9500    2.3000 H   0  0  0  0  0  0  0  0  0  0  0  0
   -3.1766    3.4018    2.6238 H   0  0  0  0  0  0  0  0  0  0  0  0
   -3.6574    0.2942   -5.0894 H   0  0  0  0  0  0  0  0  0  0  0  0
   -2.3027    1.3673   -5.6148 H   0  0  0  0  0  0  0  0  0  0  0  0
   -2.0500   -0.4202   -5.5467 H   0  0  0  0  0  0  0  0  0  0  0  0
  1  2  1  0
  2  3  1  0
  2  4  1  0
  4  5  2  0
  5  6  1  0
  6  7  1  0
  7  8  1  0
  6  9  2  0
  9 10  1  0
 10 11  2  0
 11 12  1  0
 12 13  1  6
 13 14  1  0
 14 15  1  0
 15 16  1  0
 16 17  1  0
 17 18  2  0
 18 19  1  0
 19 20  1  1
 20 21  1  0
 19 22  1  0
 22 23  1  0
 23 24  1  6
 24 25  1  0
 25 26  2  0
 25 27  1  0
 27 28  1  0
 28 29  1  0
 29 30  1  0
 27 31  1  0
 31 32  2  0
 19 33  1  0
  9 34  1  0
 34 35  1  0
 35 36  1  0
 36 37  1  0
 37 38  1  0
 38 39  1  0
 39 40  1  0
 40 41  1  6
 40 42  1  0
 42 43  1  0
 40 44  1  0
 38 45  1  0
 45 46  1  0
 46 47  1  0
 47 48  2  0
 48 49  1  0
 49 50  1  0
 50 51  2  0
 51 52  1  0
 52 53  2  0
 53 54  1  0
 54 55  2  0
 34 56  1  6
 56 57  2  0
 56 58  1  0
 58 59  1  0
 12  1  1  0
 33 12  1  0
 48 34  1  0
 55 50  1  0
 23  1  1  0
 31 23  1  0
 44 36  1  0
 55 47  1  0
 11  4  1  0
 33 15  1  0
  1 60  1  6
  3 61  1  0
  3 62  1  0
  3 63  1  0
  5 64  1  0
  8 65  1  0
  8 66  1  0
  8 67  1  0
 10 68  1  0
 13 69  1  0
 13 70  1  0
 14 71  1  0
 14 72  1  0
 16 73  1  0
 16 74  1  0
 17 75  1  0
 18 76  1  0
 20 77  1  0
 20 78  1  0
 21 79  1  0
 21 80  1  0
 21 81  1  0
 22 82  1  0
 22 83  1  0
 28 84  1  0
 28 85  1  0
 29 86  1  0
 29 87  1  0
 33 88  1  1
 35 89  1  0
 35 90  1  0
 36 91  1  1
 37 92  1  0
 37 93  1  0
 39 94  1  0
 39 95  1  0
 41 96  1  0
 42 97  1  0
 42 98  1  0
 43 99  1  0
 43100  1  0
 43101  1  0
 44102  1  0
 44103  1  0
 45104  1  0
 45105  1  0
 46106  1  0
 46107  1  0
 49108  1  0
 51109  1  0
 52110  1  0
 53111  1  0
 54112  1  0
 59113  1  0
 59114  1  0
 59115  1  0
M  END
$$$$
