
     RDKit          3D

 49 52  0  0  0  0  0  0  0  0999 V2000
   -8.4762    0.1060   -0.5095 C   0  0  0  0  0  0  0  0  0  0  0  0
   -7.4344    0.2774    0.4462 O   0  0  0  0  0  0  0  0  0  0  0  0
   -6.0641    0.3299    0.1375 C   0  0  0  0  0  0  0  0  0  0  0  0
   -5.1290    0.5078    1.1826 C   0  0  0  0  0  0  0  0  0  0  0  0
   -3.7563    0.5751    0.8811 C   0  0  0  0  0  0  0  0  0  0  0  0
   -3.3048    0.4749   -0.4444 C   0  0  0  0  0  0  0  0  0  0  0  0
   -1.9341    0.5315   -0.7646 C   0  0  0  0  0  0  0  0  0  0  0  0
   -0.9870    0.7255    0.2547 O   0  0  0  0  0  0  0  0  0  0  0  0
    0.3194    0.2151    0.2596 C   0  0  0  0  0  0  0  0  0  0  0  0
    1.3110    0.9161    0.9507 C   0  0  0  0  0  0  0  0  0  0  0  0
    2.6220    0.4355    0.9898 C   0  0  0  0  0  0  0  0  0  0  0  0
    2.9633   -0.7617    0.3366 C   0  0  0  0  0  0  0  0  0  0  0  0
    4.3074   -1.2712    0.3998 N   0  0  0  0  0  0  0  0  0  0  0  0
    5.4763   -0.4444    0.2985 C   0  0  0  0  0  0  0  0  0  0  0  0
    5.3742    0.7666   -0.0405 O   0  0  0  0  0  0  0  0  0  0  0  0
    6.7682   -1.0099    0.5484 N   0  0  0  0  0  0  0  0  0  0  0  0
    7.9813   -0.1999    0.4903 C   0  0  0  0  0  0  0  0  0  0  0  0
    9.1883   -0.9363   -0.0646 C   0  0  0  0  0  0  0  0  0  0  0  0
    8.4508    0.0750   -0.9282 C   0  0  0  0  0  0  0  0  0  0  0  0
    1.9566   -1.4890   -0.3290 C   0  0  0  0  0  0  0  0  0  0  0  0
    2.3135   -3.0023   -1.1522 Cl  0  0  0  0  0  0  0  0  0  0  0  0
    0.6452   -1.0008   -0.3650 C   0  0  0  0  0  0  0  0  0  0  0  0
   -1.5430    0.4415   -2.1112 C   0  0  0  0  0  0  0  0  0  0  0  0
   -2.5081    0.2677   -3.1033 C   0  0  0  0  0  0  0  0  0  0  0  0
   -3.8230    0.1984   -2.7721 N   0  0  0  0  0  0  0  0  0  0  0  0
   -4.2436    0.2979   -1.4828 C   0  0  0  0  0  0  0  0  0  0  0  0
   -5.6071    0.2244   -1.1906 C   0  0  0  0  0  0  0  0  0  0  0  0
   -5.5746    0.6049    2.5954 C   0  0  0  0  0  0  0  0  0  0  0  0
   -4.8593    1.4039    3.5412 N   0  0  0  0  0  0  0  0  0  0  0  0
   -6.5977   -0.0236    2.9784 O   0  0  0  0  0  0  0  0  0  0  0  0
   -9.4526    0.0996    0.0167 H   0  0  0  0  0  0  0  0  0  0  0  0
   -8.4702    0.9458   -1.2360 H   0  0  0  0  0  0  0  0  0  0  0  0
   -8.3526   -0.8617   -1.0399 H   0  0  0  0  0  0  0  0  0  0  0  0
   -3.0373    0.6789    1.6840 H   0  0  0  0  0  0  0  0  0  0  0  0
    1.0641    1.8391    1.4600 H   0  0  0  0  0  0  0  0  0  0  0  0
    3.3641    0.9875    1.5515 H   0  0  0  0  0  0  0  0  0  0  0  0
    4.4487   -2.3041    0.4639 H   0  0  0  0  0  0  0  0  0  0  0  0
    6.8350   -1.9988    0.8792 H   0  0  0  0  0  0  0  0  0  0  0  0
    8.1389    0.6023    1.2419 H   0  0  0  0  0  0  0  0  0  0  0  0
   10.1636   -0.5736    0.3227 H   0  0  0  0  0  0  0  0  0  0  0  0
    9.0164   -1.9932   -0.3616 H   0  0  0  0  0  0  0  0  0  0  0  0
    8.9881    1.0384   -1.0550 H   0  0  0  0  0  0  0  0  0  0  0  0
    7.8377   -0.3811   -1.7352 H   0  0  0  0  0  0  0  0  0  0  0  0
   -0.1211   -1.5792   -0.8646 H   0  0  0  0  0  0  0  0  0  0  0  0
   -0.5018    0.5237   -2.3939 H   0  0  0  0  0  0  0  0  0  0  0  0
   -2.2113    0.1947   -4.1409 H   0  0  0  0  0  0  0  0  0  0  0  0
   -6.3050    0.0896   -2.0063 H   0  0  0  0  0  0  0  0  0  0  0  0
   -5.1566    1.4200    4.5420 H   0  0  0  0  0  0  0  0  0  0  0  0
   -4.0838    2.0361    3.2442 H   0  0  0  0  0  0  0  0  0  0  0  0
  1  2  1  0
  2  3  1  0
  3  4  2  0
  4  5  1  0
  5  6  2  0
  6  7  1  0
  7  8  1  0
  8  9  1  0
  9 10  2  0
 10 11  1  0
 11 12  2  0
 12 13  1  0
 13 14  1  0
 14 15  2  0
 14 16  1  0
 16 17  1  0
 17 18  1  0
 18 19  1  0
 12 20  1  0
 20 21  1  0
 20 22  2  0
  7 23  2  0
 23 24  1  0
 24 25  2  0
 25 26  1  0
 26 27  2  0
  4 28  1  0
 28 29  1  0
 28 30  2  0
 27  3  1  0
 26  6  1  0
 22  9  1  0
 19 17  1  0
  1 31  1  0
  1 32  1  0
  1 33  1  0
  5 34  1  0
 10 35  1  0
 11 36  1  0
 13 37  1  0
 16 38  1  0
 17 39  1  0
 18 40  1  0
 18 41  1  0
 19 42  1  0
 19 43  1  0
 22 44  1  0
 23 45  1  0
 24 46  1  0
 27 47  1  0
 29 48  1  0
 29 49  1  0
M  END
$$$$
