
     RDKit          3D

 50 52  0  0  0  0  0  0  0  0999 V2000
   -4.2814    1.4238   -0.4087 C   0  0  0  0  0  0  0  0  0  0  0  0
   -3.3761    1.7144    0.7501 C   0  0  0  0  0  0  0  0  0  0  0  0
   -2.4392    0.8118    1.2587 C   0  0  0  0  0  0  0  0  0  0  0  0
   -1.6866    1.5284    2.5833 S   0  0  0  0  0  0  0  0  0  0  0  0
   -2.5227    2.9842    2.5185 C   0  0  0  0  0  0  0  0  0  0  0  0
   -3.4194    2.9244    1.4605 C   0  0  0  0  0  0  0  0  0  0  0  0
   -2.2189   -0.5773    0.7988 C   0  0  0  0  0  0  0  0  0  0  0  0
   -0.9998   -1.0302    0.4533 C   0  0  0  0  0  0  0  0  0  0  0  0
    0.2237   -0.1528    0.3869 C   0  0  0  0  0  0  0  0  0  0  0  0
    1.4051   -0.8905   -0.2544 C   0  0  0  0  0  0  0  0  0  0  0  0
    2.6085   -0.0291   -0.2545 N   0  0  0  0  0  0  0  0  0  0  0  0
    2.6407    0.8326   -1.4562 C   0  0  0  0  0  0  0  0  0  0  0  0
    3.8149    1.8116   -1.3786 C   0  0  0  0  0  0  0  0  0  0  0  0
    5.1389    1.0537   -1.2395 C   0  0  0  0  0  0  0  0  0  0  0  0
    5.0960    0.0355   -0.0867 C   0  0  2  0  0  0  0  0  0  0  0  0
    3.8370   -0.8504   -0.1853 C   0  0  0  0  0  0  0  0  0  0  0  0
    5.2093    0.7192    1.2532 C   0  0  0  0  0  0  0  0  0  0  0  0
    6.4580    0.8422    1.8546 O   0  0  0  0  0  0  0  0  0  0  0  0
    4.1951    1.2147    1.8153 O   0  0  0  0  0  0  0  0  0  0  0  0
   -3.3844   -1.4865    0.7566 C   0  0  0  0  0  0  0  0  0  0  0  0
   -3.7673   -2.3451   -0.2811 C   0  0  0  0  0  0  0  0  0  0  0  0
   -3.0302   -2.5029   -1.5775 C   0  0  0  0  0  0  0  0  0  0  0  0
   -4.9442   -3.0573    0.0009 C   0  0  0  0  0  0  0  0  0  0  0  0
   -5.5071   -2.7470    1.2309 C   0  0  0  0  0  0  0  0  0  0  0  0
   -4.5396   -1.5943    1.9760 S   0  0  0  0  0  0  0  0  0  0  0  0
   -3.7324    0.8610   -1.1927 H   0  0  0  0  0  0  0  0  0  0  0  0
   -4.6563    2.3681   -0.8569 H   0  0  0  0  0  0  0  0  0  0  0  0
   -5.1469    0.8215   -0.0627 H   0  0  0  0  0  0  0  0  0  0  0  0
   -2.3958    3.8205    3.1924 H   0  0  0  0  0  0  0  0  0  0  0  0
   -4.0903    3.7373    1.2146 H   0  0  0  0  0  0  0  0  0  0  0  0
   -0.8908   -2.0715    0.1734 H   0  0  0  0  0  0  0  0  0  0  0  0
   -0.0176    0.7548   -0.2050 H   0  0  0  0  0  0  0  0  0  0  0  0
    0.5132    0.1531    1.4143 H   0  0  0  0  0  0  0  0  0  0  0  0
    1.5801   -1.8136    0.3447 H   0  0  0  0  0  0  0  0  0  0  0  0
    1.1397   -1.2175   -1.2863 H   0  0  0  0  0  0  0  0  0  0  0  0
    1.7083    1.4311   -1.5297 H   0  0  0  0  0  0  0  0  0  0  0  0
    2.7261    0.2200   -2.3832 H   0  0  0  0  0  0  0  0  0  0  0  0
    3.8413    2.4310   -2.3009 H   0  0  0  0  0  0  0  0  0  0  0  0
    3.6752    2.4943   -0.5128 H   0  0  0  0  0  0  0  0  0  0  0  0
    5.3434    0.5135   -2.1904 H   0  0  0  0  0  0  0  0  0  0  0  0
    5.9694    1.7771   -1.0854 H   0  0  0  0  0  0  0  0  0  0  0  0
    5.9807   -0.6307   -0.1925 H   0  0  0  0  0  0  0  0  0  0  0  0
    3.8080   -1.5108    0.7105 H   0  0  0  0  0  0  0  0  0  0  0  0
    3.9151   -1.5072   -1.0823 H   0  0  0  0  0  0  0  0  0  0  0  0
    6.5613    1.3112    2.7465 H   0  0  0  0  0  0  0  0  0  0  0  0
   -2.2351   -3.2683   -1.4641 H   0  0  0  0  0  0  0  0  0  0  0  0
   -3.7258   -2.8279   -2.3799 H   0  0  0  0  0  0  0  0  0  0  0  0
   -2.5773   -1.5381   -1.8882 H   0  0  0  0  0  0  0  0  0  0  0  0
   -5.3872   -3.7711   -0.6816 H   0  0  0  0  0  0  0  0  0  0  0  0
   -6.4167   -3.1706    1.6344 H   0  0  0  0  0  0  0  0  0  0  0  0
  1  2  1  0
  2  3  2  0
  3  4  1  0
  4  5  1  0
  5  6  2  0
  3  7  1  0
  7  8  2  3
  8  9  1  0
  9 10  1  0
 10 11  1  0
 11 12  1  0
 12 13  1  0
 13 14  1  0
 14 15  1  0
 15 16  1  0
 15 17  1  0
 17 18  1  0
 17 19  2  0
  7 20  1  0
 20 21  2  0
 21 22  1  0
 21 23  1  0
 23 24  2  0
 24 25  1  0
  6  2  1  0
 16 11  1  0
 25 20  1  0
  1 26  1  0
  1 27  1  0
  1 28  1  0
  5 29  1  0
  6 30  1  0
  8 31  1  0
  9 32  1  0
  9 33  1  0
 10 34  1  0
 10 35  1  0
 12 36  1  0
 12 37  1  0
 13 38  1  0
 13 39  1  0
 14 40  1  0
 14 41  1  0
 15 42  1  6
 16 43  1  0
 16 44  1  0
 18 45  1  0
 22 46  1  0
 22 47  1  0
 22 48  1  0
 23 49  1  0
 24 50  1  0
M  END
$$$$
