
     RDKit          3D

 35 36  0  0  0  0  0  0  0  0999 V2000
   -2.1240   -2.3471    0.5630 O   0  0  0  0  0  0  0  0  0  0  0  0
   -1.9511   -1.4745   -0.5261 C   0  0  2  0  0  0  0  0  0  0  0  0
   -1.8964   -0.0006   -0.0311 C   0  0  1  0  0  0  0  0  0  0  0  0
   -2.9504    0.3258    1.0375 C   0  0  0  0  0  0  0  0  0  0  0  0
   -2.2170    0.2972    2.3712 C   0  0  0  0  0  0  0  0  0  0  0  0
   -0.7459    0.4988    2.0417 C   0  0  0  0  0  0  0  0  0  0  0  0
   -0.6075    0.2708    0.6079 N   0  0  0  0  0  0  0  0  0  0  0  0
    0.6489    0.4405   -0.1024 C   0  0  0  0  0  0  0  0  0  0  0  0
    0.6916    0.4648   -1.5094 C   0  0  0  0  0  0  0  0  0  0  0  0
    1.9000    0.6288   -2.1849 C   0  0  0  0  0  0  0  0  0  0  0  0
    3.0967    0.7752   -1.4782 C   0  0  0  0  0  0  0  0  0  0  0  0
    4.3205    0.9418   -2.2267 C   0  0  0  0  0  0  0  0  0  0  0  0
    5.3009    1.0753   -2.8269 N   0  0  0  0  0  0  0  0  0  0  0  0
    3.0883    0.7579   -0.0651 C   0  0  0  0  0  0  0  0  0  0  0  0
    1.8597    0.5904    0.6056 C   0  0  0  0  0  0  0  0  0  0  0  0
    4.3769    0.9152    0.7199 C   0  0  0  0  0  0  0  0  0  0  0  0
    4.1605    0.8739    2.0867 F   0  0  0  0  0  0  0  0  0  0  0  0
    5.2490   -0.1060    0.3883 F   0  0  0  0  0  0  0  0  0  0  0  0
    4.9625    2.1297    0.4109 F   0  0  0  0  0  0  0  0  0  0  0  0
   -3.0530   -1.7076   -1.5776 C   0  0  0  0  0  0  0  0  0  0  0  0
   -2.9888   -3.0126   -2.0325 F   0  0  0  0  0  0  0  0  0  0  0  0
   -4.3085   -1.4898   -1.0416 F   0  0  0  0  0  0  0  0  0  0  0  0
   -2.8698   -0.8611   -2.6568 F   0  0  0  0  0  0  0  0  0  0  0  0
   -1.7908   -3.2386    0.2800 H   0  0  0  0  0  0  0  0  0  0  0  0
   -0.9811   -1.7053   -1.0242 H   0  0  0  0  0  0  0  0  0  0  0  0
   -2.0442    0.7019   -0.8795 H   0  0  0  0  0  0  0  0  0  0  0  0
   -3.8100   -0.3756    1.0498 H   0  0  0  0  0  0  0  0  0  0  0  0
   -3.3433    1.3523    0.8645 H   0  0  0  0  0  0  0  0  0  0  0  0
   -2.3608   -0.6947    2.8537 H   0  0  0  0  0  0  0  0  0  0  0  0
   -2.5917    1.0899    3.0548 H   0  0  0  0  0  0  0  0  0  0  0  0
   -0.4374    1.5385    2.2869 H   0  0  0  0  0  0  0  0  0  0  0  0
   -0.1278   -0.2281    2.6118 H   0  0  0  0  0  0  0  0  0  0  0  0
   -0.2040    0.3574   -2.1031 H   0  0  0  0  0  0  0  0  0  0  0  0
    1.8999    0.6420   -3.2688 H   0  0  0  0  0  0  0  0  0  0  0  0
    1.8485    0.5735    1.6851 H   0  0  0  0  0  0  0  0  0  0  0  0
  1  2  1  0
  2  3  1  0
  3  4  1  0
  4  5  1  0
  5  6  1  0
  6  7  1  0
  7  8  1  0
  8  9  2  0
  9 10  1  0
 10 11  2  0
 11 12  1  0
 12 13  3  0
 11 14  1  0
 14 15  2  0
 14 16  1  0
 16 17  1  0
 16 18  1  0
 16 19  1  0
  2 20  1  0
 20 21  1  0
 20 22  1  0
 20 23  1  0
  7  3  1  0
 15  8  1  0
  1 24  1  0
  2 25  1  6
  3 26  1  6
  4 27  1  0
  4 28  1  0
  5 29  1  0
  5 30  1  0
  6 31  1  0
  6 32  1  0
  9 33  1  0
 10 34  1  0
 15 35  1  0
M  END
$$$$
