
     RDKit          3D

 40 42  0  0  0  0  0  0  0  0999 V2000
    5.1453    2.2865   -1.6763 C   0  0  0  0  0  0  0  0  0  0  0  0
    4.6587    2.6047   -0.2666 C   0  0  0  0  0  0  0  0  0  0  0  0
    4.0857    1.4485    0.3445 O   0  0  0  0  0  0  0  0  0  0  0  0
    2.8194    0.9138    0.0553 C   0  0  0  0  0  0  0  0  0  0  0  0
    2.4582   -0.2928    0.6672 C   0  0  0  0  0  0  0  0  0  0  0  0
    1.2110   -0.8718    0.4184 C   0  0  0  0  0  0  0  0  0  0  0  0
    0.3009   -0.2421   -0.4420 C   0  0  0  0  0  0  0  0  0  0  0  0
    0.6568    0.9641   -1.0616 C   0  0  0  0  0  0  0  0  0  0  0  0
    1.9049    1.5426   -0.8131 C   0  0  0  0  0  0  0  0  0  0  0  0
   -1.0139   -0.8624   -0.7153 C   0  0  0  0  0  0  0  0  0  0  0  0
   -1.2597   -1.4717   -1.9760 C   0  0  0  0  0  0  0  0  0  0  0  0
   -0.2552   -1.4264   -3.0174 C   0  0  0  0  0  0  0  0  0  0  0  0
    0.5491   -1.3891   -3.8487 N   0  0  0  0  0  0  0  0  0  0  0  0
   -2.4806   -2.1603   -2.1985 C   0  0  0  0  0  0  0  0  0  0  0  0
   -2.7676   -2.7903   -3.4523 N   0  0  0  0  0  0  0  0  0  0  0  0
   -3.4018   -2.2462   -1.2008 N   0  0  0  0  0  0  0  0  0  0  0  0
   -3.1720   -1.6602   -0.0048 C   0  0  0  0  0  0  0  0  0  0  0  0
   -2.0208   -0.9426    0.2757 C   0  0  0  0  0  0  0  0  0  0  0  0
   -2.0429   -0.4073    1.5904 C   0  0  0  0  0  0  0  0  0  0  0  0
   -1.0236    0.4399    2.1319 N   0  0  0  0  0  0  0  0  0  0  0  0
   -3.2021   -0.7597    2.3091 C   0  0  0  0  0  0  0  0  0  0  0  0
   -4.1985   -1.6937    1.3133 S   0  0  0  0  0  0  0  0  0  0  0  0
   -3.5824   -0.3243    3.6713 C   0  0  0  0  0  0  0  0  0  0  0  0
   -4.6617   -0.9552    4.3637 N   0  0  0  0  0  0  0  0  0  0  0  0
   -2.9721    0.6247    4.2301 O   0  0  0  0  0  0  0  0  0  0  0  0
    5.6255    3.1855   -2.1166 H   0  0  0  0  0  0  0  0  0  0  0  0
    4.2992    1.9813   -2.3254 H   0  0  0  0  0  0  0  0  0  0  0  0
    5.8889    1.4625   -1.6417 H   0  0  0  0  0  0  0  0  0  0  0  0
    5.5322    2.9223    0.3407 H   0  0  0  0  0  0  0  0  0  0  0  0
    3.9370    3.4487   -0.2744 H   0  0  0  0  0  0  0  0  0  0  0  0
    3.1507   -0.7863    1.3374 H   0  0  0  0  0  0  0  0  0  0  0  0
    0.9522   -1.8080    0.8978 H   0  0  0  0  0  0  0  0  0  0  0  0
   -0.0358    1.4585   -1.7318 H   0  0  0  0  0  0  0  0  0  0  0  0
    2.1425    2.4773   -1.2999 H   0  0  0  0  0  0  0  0  0  0  0  0
   -3.6702   -3.2989   -3.5830 H   0  0  0  0  0  0  0  0  0  0  0  0
   -2.1048   -2.7574   -4.2577 H   0  0  0  0  0  0  0  0  0  0  0  0
   -0.7931    0.4216    3.1487 H   0  0  0  0  0  0  0  0  0  0  0  0
   -0.5465    1.1537    1.5413 H   0  0  0  0  0  0  0  0  0  0  0  0
   -4.9376   -0.6236    5.3147 H   0  0  0  0  0  0  0  0  0  0  0  0
   -5.1754   -1.7649    3.9521 H   0  0  0  0  0  0  0  0  0  0  0  0
  1  2  1  0
  2  3  1  0
  3  4  1  0
  4  5  2  0
  5  6  1  0
  6  7  2  0
  7  8  1  0
  8  9  2  0
  7 10  1  0
 10 11  2  0
 11 12  1  0
 12 13  3  0
 11 14  1  0
 14 15  1  0
 14 16  2  0
 16 17  1  0
 17 18  2  0
 18 19  1  0
 19 20  1  0
 19 21  2  0
 21 22  1  0
 21 23  1  0
 23 24  1  0
 23 25  2  0
  9  4  1  0
 18 10  1  0
 22 17  1  0
  1 26  1  0
  1 27  1  0
  1 28  1  0
  2 29  1  0
  2 30  1  0
  5 31  1  0
  6 32  1  0
  8 33  1  0
  9 34  1  0
 15 35  1  0
 15 36  1  0
 20 37  1  0
 20 38  1  0
 24 39  1  0
 24 40  1  0
M  END
$$$$
