
     RDKit          3D

 51 55  0  0  0  0  0  0  0  0999 V2000
    7.5648    2.1938   -0.9773 O   0  0  0  0  0  0  0  0  0  0  0  0
    6.2134    2.2640   -0.7295 N   0  0  0  0  0  0  0  0  0  0  0  0
    5.4731    1.2010   -0.7424 C   0  0  0  0  0  0  0  0  0  0  0  0
    5.9566   -0.1901   -1.0155 C   0  0  0  0  0  0  0  0  0  0  0  0
    4.6833   -1.0631   -0.9124 C   0  0  0  0  0  0  0  0  0  0  0  0
    3.5911   -0.0943   -0.5862 C   0  0  0  0  0  0  0  0  0  0  0  0
    2.2403   -0.3865   -0.3915 C   0  0  0  0  0  0  0  0  0  0  0  0
    1.3505    0.6637   -0.0788 C   0  0  0  0  0  0  0  0  0  0  0  0
    1.8384    1.9890   -0.0036 C   0  0  0  0  0  0  0  0  0  0  0  0
    3.2001    2.2597   -0.2068 C   0  0  0  0  0  0  0  0  0  0  0  0
    4.0524    1.1934   -0.4931 C   0  0  0  0  0  0  0  0  0  0  0  0
   -0.0879    0.3946    0.1298 C   0  0  0  0  0  0  0  0  0  0  0  0
   -1.1305    1.1515   -0.3673 C   0  0  0  0  0  0  0  0  0  0  0  0
   -2.2863    0.5285   -0.0698 N   0  0  0  0  0  0  0  0  0  0  0  0
   -2.0387   -0.5950    0.5869 N   0  0  0  0  0  0  0  0  0  0  0  0
   -0.7028   -0.6995    0.7366 C   0  0  0  0  0  0  0  0  0  0  0  0
   -0.0667   -1.7997    1.4913 C   0  0  0  0  0  0  0  0  0  0  0  0
   -0.6087   -3.0919    1.4307 C   0  0  0  0  0  0  0  0  0  0  0  0
   -0.0124   -4.1251    2.1578 C   0  0  0  0  0  0  0  0  0  0  0  0
    1.0773   -3.8749    2.9307 N   0  0  0  0  0  0  0  0  0  0  0  0
    1.6130   -2.6292    3.0240 C   0  0  0  0  0  0  0  0  0  0  0  0
    1.0471   -1.5676    2.3142 C   0  0  0  0  0  0  0  0  0  0  0  0
   -3.6225    0.9640   -0.4828 C   0  0  0  0  0  0  0  0  0  0  0  0
   -4.1280    0.1022   -1.6587 C   0  0  0  0  0  0  0  0  0  0  0  0
   -5.6679    0.0384   -1.7216 C   0  0  0  0  0  0  0  0  0  0  0  0
   -6.2844    1.2483   -1.1618 N   0  0  0  0  0  0  0  0  0  0  0  0
   -6.0088    1.3933    0.2812 C   0  0  0  0  0  0  0  0  0  0  0  0
   -4.6027    0.9051    0.6970 C   0  0  0  0  0  0  0  0  0  0  0  0
    8.1263    3.0356   -0.9627 H   0  0  0  0  0  0  0  0  0  0  0  0
    6.3963   -0.2514   -2.0343 H   0  0  0  0  0  0  0  0  0  0  0  0
    6.7060   -0.4930   -0.2530 H   0  0  0  0  0  0  0  0  0  0  0  0
    4.4703   -1.5685   -1.8788 H   0  0  0  0  0  0  0  0  0  0  0  0
    4.7827   -1.8147   -0.0999 H   0  0  0  0  0  0  0  0  0  0  0  0
    1.8911   -1.4061   -0.4930 H   0  0  0  0  0  0  0  0  0  0  0  0
    1.1677    2.8078    0.2257 H   0  0  0  0  0  0  0  0  0  0  0  0
    3.5768    3.2723   -0.1414 H   0  0  0  0  0  0  0  0  0  0  0  0
   -1.0497    2.0647   -0.9435 H   0  0  0  0  0  0  0  0  0  0  0  0
   -1.4761   -3.3018    0.8168 H   0  0  0  0  0  0  0  0  0  0  0  0
   -0.4175   -5.1270    2.1080 H   0  0  0  0  0  0  0  0  0  0  0  0
    2.4749   -2.4606    3.6556 H   0  0  0  0  0  0  0  0  0  0  0  0
    1.4667   -0.5755    2.4198 H   0  0  0  0  0  0  0  0  0  0  0  0
   -3.5690    2.0249   -0.8200 H   0  0  0  0  0  0  0  0  0  0  0  0
   -3.7355    0.5290   -2.6074 H   0  0  0  0  0  0  0  0  0  0  0  0
   -3.7382   -0.9362   -1.5761 H   0  0  0  0  0  0  0  0  0  0  0  0
   -5.9906   -0.0833   -2.7780 H   0  0  0  0  0  0  0  0  0  0  0  0
   -6.0315   -0.8533   -1.1637 H   0  0  0  0  0  0  0  0  0  0  0  0
   -5.9091    2.0839   -1.6702 H   0  0  0  0  0  0  0  0  0  0  0  0
   -6.1192    2.4639    0.5631 H   0  0  0  0  0  0  0  0  0  0  0  0
   -6.7756    0.8292    0.8544 H   0  0  0  0  0  0  0  0  0  0  0  0
   -4.2235    1.5298    1.5350 H   0  0  0  0  0  0  0  0  0  0  0  0
   -4.6767   -0.1431    1.0629 H   0  0  0  0  0  0  0  0  0  0  0  0
  1  2  1  0
  2  3  2  0
  3  4  1  0
  4  5  1  0
  5  6  1  0
  6  7  2  0
  7  8  1  0
  8  9  2  0
  9 10  1  0
 10 11  2  0
  8 12  1  0
 12 13  2  0
 13 14  1  0
 14 15  1  0
 15 16  2  0
 16 17  1  0
 17 18  2  0
 18 19  1  0
 19 20  2  0
 20 21  1  0
 21 22  2  0
 14 23  1  0
 23 24  1  0
 24 25  1  0
 25 26  1  0
 26 27  1  0
 27 28  1  0
 11  3  1  0
 16 12  1  0
 22 17  1  0
 28 23  1  0
 11  6  1  0
  1 29  1  0
  4 30  1  0
  4 31  1  0
  5 32  1  0
  5 33  1  0
  7 34  1  0
  9 35  1  0
 10 36  1  0
 13 37  1  0
 18 38  1  0
 19 39  1  0
 21 40  1  0
 22 41  1  0
 23 42  1  0
 24 43  1  0
 24 44  1  0
 25 45  1  0
 25 46  1  0
 26 47  1  0
 27 48  1  0
 27 49  1  0
 28 50  1  0
 28 51  1  0
M  END
$$$$
