
     RDKit          3D

 39 40  0  0  0  0  0  0  0  0999 V2000
   -2.3363    0.8196   -3.1807 C   0  0  0  0  0  0  0  0  0  0  0  0
   -2.7434    0.3299   -1.9069 O   0  0  0  0  0  0  0  0  0  0  0  0
   -1.8818   -0.2539   -0.9633 C   0  0  0  0  0  0  0  0  0  0  0  0
   -0.5083   -0.4122   -1.2136 C   0  0  0  0  0  0  0  0  0  0  0  0
    0.3318   -0.9860   -0.2527 C   0  0  0  0  0  0  0  0  0  0  0  0
    1.8057   -1.1495   -0.5360 C   0  0  0  0  0  0  0  0  0  0  0  0
    2.4769    0.1907   -0.7387 C   0  0  0  0  0  0  0  0  0  0  0  0
    2.7498    0.6332   -2.0420 C   0  0  0  0  0  0  0  0  0  0  0  0
    3.3222    1.8453   -2.2507 N   0  0  0  0  0  0  0  0  0  0  0  0
    3.6399    2.6564   -1.2109 C   0  0  0  0  0  0  0  0  0  0  0  0
    4.2407    3.9262   -1.4535 N   0  0  0  0  0  0  0  0  0  0  0  0
    3.3826    2.2582    0.0610 N   0  0  0  0  0  0  0  0  0  0  0  0
    2.8108    1.0541    0.3300 C   0  0  0  0  0  0  0  0  0  0  0  0
    2.5674    0.7034    1.6962 N   0  0  0  0  0  0  0  0  0  0  0  0
   -0.2145   -1.4306    0.9574 C   0  0  0  0  0  0  0  0  0  0  0  0
   -1.5883   -1.2826    1.2317 C   0  0  0  0  0  0  0  0  0  0  0  0
   -2.1290   -1.7201    2.4514 O   0  0  0  0  0  0  0  0  0  0  0  0
   -1.3865   -2.3237    3.5063 C   0  0  0  0  0  0  0  0  0  0  0  0
   -2.4284   -0.6838    0.2572 C   0  0  0  0  0  0  0  0  0  0  0  0
   -3.8119   -0.4865    0.4330 O   0  0  0  0  0  0  0  0  0  0  0  0
   -4.5807   -0.8343    1.5791 C   0  0  0  0  0  0  0  0  0  0  0  0
   -1.5887    1.6314   -3.0569 H   0  0  0  0  0  0  0  0  0  0  0  0
   -1.9090   -0.0058   -3.7885 H   0  0  0  0  0  0  0  0  0  0  0  0
   -3.2204    1.2292   -3.7107 H   0  0  0  0  0  0  0  0  0  0  0  0
   -0.0837   -0.0897   -2.1544 H   0  0  0  0  0  0  0  0  0  0  0  0
    1.9191   -1.7799   -1.4449 H   0  0  0  0  0  0  0  0  0  0  0  0
    2.3199   -1.7085    0.2744 H   0  0  0  0  0  0  0  0  0  0  0  0
    2.5028    0.0157   -2.8961 H   0  0  0  0  0  0  0  0  0  0  0  0
    4.4866    4.5555   -0.6574 H   0  0  0  0  0  0  0  0  0  0  0  0
    4.4403    4.2388   -2.4296 H   0  0  0  0  0  0  0  0  0  0  0  0
    2.1626   -0.2131    1.9798 H   0  0  0  0  0  0  0  0  0  0  0  0
    2.8146    1.3773    2.4544 H   0  0  0  0  0  0  0  0  0  0  0  0
    0.4378   -1.8958    1.6831 H   0  0  0  0  0  0  0  0  0  0  0  0
   -2.0743   -2.5568    4.3447 H   0  0  0  0  0  0  0  0  0  0  0  0
   -0.9230   -3.2696    3.1550 H   0  0  0  0  0  0  0  0  0  0  0  0
   -0.6052   -1.6247    3.8726 H   0  0  0  0  0  0  0  0  0  0  0  0
   -4.2136   -0.2835    2.4705 H   0  0  0  0  0  0  0  0  0  0  0  0
   -4.5479   -1.9314    1.7462 H   0  0  0  0  0  0  0  0  0  0  0  0
   -5.6365   -0.5431    1.4037 H   0  0  0  0  0  0  0  0  0  0  0  0
  1  2  1  0
  2  3  1  0
  3  4  2  0
  4  5  1  0
  5  6  1  0
  6  7  1  0
  7  8  2  0
  8  9  1  0
  9 10  2  0
 10 11  1  0
 10 12  1  0
 12 13  2  0
 13 14  1  0
  5 15  2  0
 15 16  1  0
 16 17  1  0
 17 18  1  0
 16 19  2  0
 19 20  1  0
 20 21  1  0
 19  3  1  0
 13  7  1  0
  1 22  1  0
  1 23  1  0
  1 24  1  0
  4 25  1  0
  6 26  1  0
  6 27  1  0
  8 28  1  0
 11 29  1  0
 11 30  1  0
 14 31  1  0
 14 32  1  0
 15 33  1  0
 18 34  1  0
 18 35  1  0
 18 36  1  0
 21 37  1  0
 21 38  1  0
 21 39  1  0
M  END
$$$$
