
     RDKit          3D

 28 28  0  0  0  0  0  0  0  0999 V2000
   -1.9069   -1.1462    0.5909 C   0  0  2  0  0  0  0  0  0  0  0  0
   -3.1461   -1.7752    0.4005 O   0  0  0  0  0  0  0  0  0  0  0  0
   -2.0279    0.2096    0.2080 O   0  0  0  0  0  0  0  0  0  0  0  0
   -0.9074    0.9655    0.6539 C   0  0  2  0  0  0  0  0  0  0  0  0
   -1.0259    2.3735    0.0483 C   0  0  0  0  0  0  0  0  0  0  0  0
   -0.1514    3.2569    0.6962 O   0  0  0  0  0  0  0  0  0  0  0  0
    0.4590    0.2607    0.3303 C   0  0  2  0  0  0  0  0  0  0  0  0
    1.4258    1.1897   -0.1299 O   0  0  0  0  0  0  0  0  0  0  0  0
    2.9068    0.9497    0.6625 S   0  0  0  0  0  6  0  0  0  0  0  0
    3.4470   -0.6295    0.4431 O   0  0  0  0  0  0  0  0  0  0  0  0
    3.9235    1.8897    0.0803 O   0  0  0  0  0  0  0  0  0  0  0  0
    2.7597    1.2474    2.1296 O   0  0  0  0  0  0  0  0  0  0  0  0
    0.2590   -0.8355   -0.7317 C   0  0  2  0  0  0  0  0  0  0  0  0
   -0.1217   -0.2407   -1.9475 O   0  0  0  0  0  0  0  0  0  0  0  0
   -0.8249   -1.8430   -0.2698 C   0  0  1  0  0  0  0  0  0  0  0  0
   -0.2367   -2.8720    0.4844 O   0  0  0  0  0  0  0  0  0  0  0  0
   -1.6408   -1.2118    1.6762 H   0  0  0  0  0  0  0  0  0  0  0  0
   -3.0954   -2.6537    0.8608 H   0  0  0  0  0  0  0  0  0  0  0  0
   -0.9865    1.0912    1.7590 H   0  0  0  0  0  0  0  0  0  0  0  0
   -0.8037    2.3393   -1.0420 H   0  0  0  0  0  0  0  0  0  0  0  0
   -2.0694    2.7386    0.1795 H   0  0  0  0  0  0  0  0  0  0  0  0
   -0.2568    4.1322    0.2407 H   0  0  0  0  0  0  0  0  0  0  0  0
    0.7690   -0.2526    1.2721 H   0  0  0  0  0  0  0  0  0  0  0  0
    3.0701   -1.1446    1.2005 H   0  0  0  0  0  0  0  0  0  0  0  0
    1.2276   -1.3688   -0.8752 H   0  0  0  0  0  0  0  0  0  0  0  0
    0.0546   -0.9075   -2.6619 H   0  0  0  0  0  0  0  0  0  0  0  0
   -1.3132   -2.2829   -1.1723 H   0  0  0  0  0  0  0  0  0  0  0  0
    0.2126   -3.4803   -0.1593 H   0  0  0  0  0  0  0  0  0  0  0  0
  1  2  1  0
  1  3  1  0
  3  4  1  0
  4  5  1  0
  5  6  1  0
  4  7  1  0
  7  8  1  0
  8  9  1  0
  9 10  1  0
  9 11  2  0
  9 12  2  0
  7 13  1  0
 13 14  1  0
 13 15  1  0
 15 16  1  0
 15  1  1  0
  1 17  1  1
  2 18  1  0
  4 19  1  1
  5 20  1  0
  5 21  1  0
  6 22  1  0
  7 23  1  1
 10 24  1  0
 13 25  1  6
 14 26  1  0
 15 27  1  6
 16 28  1  0
M  END
$$$$
