
     RDKit          3D

 54 57  0  0  0  0  0  0  0  0999 V2000
   -9.2625    0.5601   -0.1807 O   0  0  0  0  0  0  0  0  0  0  0  0
   -8.1991    1.2509   -0.7784 C   0  0  0  0  0  0  0  0  0  0  0  0
   -7.2418    0.2706   -1.4641 C   0  0  2  0  0  0  0  0  0  0  0  0
   -7.9550   -0.4903   -2.4046 O   0  0  0  0  0  0  0  0  0  0  0  0
   -6.5906   -0.6423   -0.4461 C   0  0  0  0  0  0  0  0  0  0  0  0
   -7.2585   -1.6199   -0.0085 O   0  0  0  0  0  0  0  0  0  0  0  0
   -5.2498   -0.4166    0.0495 N   0  0  0  0  0  0  0  0  0  0  0  0
   -4.5633    0.8687   -0.1940 C   0  0  0  0  0  0  0  0  0  0  0  0
   -3.3476    1.0565    0.7228 C   0  0  0  0  0  0  0  0  0  0  0  0
   -2.5056   -0.1901    0.7363 C   0  0  0  0  0  0  0  0  0  0  0  0
   -3.1175   -1.3770    0.8177 C   0  0  0  0  0  0  0  0  0  0  0  0
   -4.6164   -1.4596    0.8796 C   0  0  0  0  0  0  0  0  0  0  0  0
   -1.0281   -0.1015    0.7060 C   0  0  0  0  0  0  0  0  0  0  0  0
   -0.2565   -0.6751    1.7322 C   0  0  0  0  0  0  0  0  0  0  0  0
   -0.8536   -1.3094    2.7735 F   0  0  0  0  0  0  0  0  0  0  0  0
    1.1382   -0.5854    1.7006 C   0  0  0  0  0  0  0  0  0  0  0  0
    1.7893    0.0817    0.6489 C   0  0  0  0  0  0  0  0  0  0  0  0
    1.0159    0.6371   -0.3837 C   0  0  0  0  0  0  0  0  0  0  0  0
   -0.3790    0.5521   -0.3554 C   0  0  0  0  0  0  0  0  0  0  0  0
   -1.0927    1.0809   -1.3820 F   0  0  0  0  0  0  0  0  0  0  0  0
    3.2277    0.1677    0.6042 N   0  0  0  0  0  0  0  0  0  0  0  0
    4.0387    0.1979   -0.6095 C   0  0  0  0  0  0  0  0  0  0  0  0
    5.5140    0.1346   -0.1209 C   0  0  2  0  0  0  0  0  0  0  0  0
    6.2210   -1.1445   -0.5850 C   0  0  0  0  0  0  0  0  0  0  0  0
    7.5465   -1.2051   -0.0630 O   0  0  0  0  0  0  0  0  0  0  0  0
    8.6000   -0.4370   -0.5660 C   0  0  0  0  0  0  0  0  0  0  0  0
    8.5075    0.3996   -1.6168 N   0  0  0  0  0  0  0  0  0  0  0  0
    9.6901    0.9203   -1.7737 O   0  0  0  0  0  0  0  0  0  0  0  0
   10.5391    0.4624   -0.8803 C   0  0  0  0  0  0  0  0  0  0  0  0
    9.8795   -0.4307   -0.0638 C   0  0  0  0  0  0  0  0  0  0  0  0
    5.4414    0.1605    1.3010 O   0  0  0  0  0  0  0  0  0  0  0  0
    4.1257    0.1806    1.6989 C   0  0  0  0  0  0  0  0  0  0  0  0
    3.7727    0.2640    2.9046 O   0  0  0  0  0  0  0  0  0  0  0  0
   -9.8373    1.2508    0.2406 H   0  0  0  0  0  0  0  0  0  0  0  0
   -7.6527    1.8399   -0.0087 H   0  0  0  0  0  0  0  0  0  0  0  0
   -8.5974    1.9581   -1.5401 H   0  0  0  0  0  0  0  0  0  0  0  0
   -6.4729    0.8670   -2.0026 H   0  0  0  0  0  0  0  0  0  0  0  0
   -7.2812   -0.9360   -2.9826 H   0  0  0  0  0  0  0  0  0  0  0  0
   -5.2595    1.7139   -0.0107 H   0  0  0  0  0  0  0  0  0  0  0  0
   -4.2272    0.9073   -1.2528 H   0  0  0  0  0  0  0  0  0  0  0  0
   -2.7614    1.9374    0.3851 H   0  0  0  0  0  0  0  0  0  0  0  0
   -3.6959    1.2604    1.7587 H   0  0  0  0  0  0  0  0  0  0  0  0
   -2.5400   -2.2940    0.8330 H   0  0  0  0  0  0  0  0  0  0  0  0
   -4.9172   -2.4707    0.5293 H   0  0  0  0  0  0  0  0  0  0  0  0
   -4.9467   -1.3375    1.9330 H   0  0  0  0  0  0  0  0  0  0  0  0
    1.7052   -1.0608    2.4888 H   0  0  0  0  0  0  0  0  0  0  0  0
    1.4902    1.1454   -1.2124 H   0  0  0  0  0  0  0  0  0  0  0  0
    3.8649    1.1501   -1.1552 H   0  0  0  0  0  0  0  0  0  0  0  0
    3.7706   -0.6589   -1.2660 H   0  0  0  0  0  0  0  0  0  0  0  0
    6.0691    1.0294   -0.4765 H   0  0  0  0  0  0  0  0  0  0  0  0
    6.2462   -1.1922   -1.6958 H   0  0  0  0  0  0  0  0  0  0  0  0
    5.6586   -2.0288   -0.2157 H   0  0  0  0  0  0  0  0  0  0  0  0
   11.5796    0.7498   -0.8120 H   0  0  0  0  0  0  0  0  0  0  0  0
   10.2748   -0.9919    0.7722 H   0  0  0  0  0  0  0  0  0  0  0  0
  1  2  1  0
  2  3  1  0
  3  4  1  0
  3  5  1  0
  5  6  2  0
  5  7  1  0
  7  8  1  0
  8  9  1  0
  9 10  1  0
 10 11  2  0
 11 12  1  0
 10 13  1  0
 13 14  2  0
 14 15  1  0
 14 16  1  0
 16 17  2  0
 17 18  1  0
 18 19  2  0
 19 20  1  0
 17 21  1  0
 21 22  1  0
 22 23  1  0
 23 24  1  0
 24 25  1  0
 25 26  1  0
 26 27  2  0
 27 28  1  0
 28 29  1  0
 29 30  2  0
 23 31  1  0
 31 32  1  0
 32 33  2  0
 12  7  1  0
 19 13  1  0
 32 21  1  0
 30 26  1  0
  1 34  1  0
  2 35  1  0
  2 36  1  0
  3 37  1  6
  4 38  1  0
  8 39  1  0
  8 40  1  0
  9 41  1  0
  9 42  1  0
 11 43  1  0
 12 44  1  0
 12 45  1  0
 16 46  1  0
 18 47  1  0
 22 48  1  0
 22 49  1  0
 23 50  1  6
 24 51  1  0
 24 52  1  0
 29 53  1  0
 30 54  1  0
M  END
$$$$
