
     RDKit          3D

 57 60  0  0  0  0  0  0  0  0999 V2000
   -5.7542   -1.0984   -2.7940 C   0  0  0  0  0  0  0  0  0  0  0  0
   -6.1692   -0.9629   -1.4382 O   0  0  0  0  0  0  0  0  0  0  0  0
   -5.3345   -0.5904   -0.3724 C   0  0  0  0  0  0  0  0  0  0  0  0
   -3.9659   -0.3325   -0.5842 C   0  0  0  0  0  0  0  0  0  0  0  0
   -3.1320    0.0530    0.4738 C   0  0  0  0  0  0  0  0  0  0  0  0
   -1.7307    0.3006    0.2677 N   0  0  0  0  0  0  0  0  0  0  0  0
   -1.1895    0.9477   -0.8928 C   0  0  0  0  0  0  0  0  0  0  0  0
   -1.9986    1.6065   -1.7664 N   0  0  0  0  0  0  0  0  0  0  0  0
   -1.4879    2.2401   -2.8528 C   0  0  0  0  0  0  0  0  0  0  0  0
   -0.1126    2.2325   -3.0805 C   0  0  0  0  0  0  0  0  0  0  0  0
    0.4018    2.8657   -4.1645 F   0  0  0  0  0  0  0  0  0  0  0  0
    0.7163    1.5747   -2.1632 C   0  0  0  0  0  0  0  0  0  0  0  0
    2.1373    1.5258   -2.3751 N   0  0  0  0  0  0  0  0  0  0  0  0
    3.0889    1.1391   -1.3717 C   0  0  0  0  0  0  0  0  0  0  0  0
    2.9003    1.4603   -0.0154 C   0  0  0  0  0  0  0  0  0  0  0  0
    3.8678    1.0883    0.9205 C   0  0  0  0  0  0  0  0  0  0  0  0
    5.0125    0.4095    0.5022 C   0  0  0  0  0  0  0  0  0  0  0  0
    5.9948    0.0364    1.4262 O   0  0  0  0  0  0  0  0  0  0  0  0
    7.0381   -0.9081    1.1413 C   0  0  0  0  0  0  0  0  0  0  0  0
    8.2787   -0.4986    1.9476 C   0  0  0  0  0  0  0  0  0  0  0  0
    6.5660   -2.3002    1.5811 C   0  0  0  0  0  0  0  0  0  0  0  0
    7.3575   -0.9419   -0.3442 C   0  0  0  0  0  0  0  0  0  0  0  0
    8.4457   -1.4315   -0.7521 O   0  0  0  0  0  0  0  0  0  0  0  0
    6.3834   -0.5037   -1.2965 N   0  0  0  0  0  0  0  0  0  0  0  0
    5.1838    0.1321   -0.8566 C   0  0  0  0  0  0  0  0  0  0  0  0
    4.2329    0.5065   -1.7543 N   0  0  0  0  0  0  0  0  0  0  0  0
    0.1548    0.9432   -1.0959 N   0  0  0  0  0  0  0  0  0  0  0  0
   -3.6592    0.1375    1.7645 C   0  0  0  0  0  0  0  0  0  0  0  0
   -5.0210   -0.1160    2.0023 C   0  0  0  0  0  0  0  0  0  0  0  0
   -5.5780   -0.0218    3.2885 O   0  0  0  0  0  0  0  0  0  0  0  0
   -4.8513    0.3299    4.4616 C   0  0  0  0  0  0  0  0  0  0  0  0
   -5.8658   -0.4744    0.9385 C   0  0  0  0  0  0  0  0  0  0  0  0
   -7.2185   -0.7042    1.2568 O   0  0  0  0  0  0  0  0  0  0  0  0
   -8.2543   -1.0671    0.3507 C   0  0  0  0  0  0  0  0  0  0  0  0
   -5.3573   -0.1321   -3.1709 H   0  0  0  0  0  0  0  0  0  0  0  0
   -4.9820   -1.8917   -2.8799 H   0  0  0  0  0  0  0  0  0  0  0  0
   -6.6286   -1.3876   -3.4122 H   0  0  0  0  0  0  0  0  0  0  0  0
   -3.5372   -0.4553   -1.5680 H   0  0  0  0  0  0  0  0  0  0  0  0
   -1.0698    0.0736    1.0453 H   0  0  0  0  0  0  0  0  0  0  0  0
   -2.1510    2.7510   -3.5381 H   0  0  0  0  0  0  0  0  0  0  0  0
    2.5003    1.6871   -3.3418 H   0  0  0  0  0  0  0  0  0  0  0  0
    2.0322    2.0152    0.3142 H   0  0  0  0  0  0  0  0  0  0  0  0
    3.7310    1.3314    1.9665 H   0  0  0  0  0  0  0  0  0  0  0  0
    8.6367    0.4998    1.6158 H   0  0  0  0  0  0  0  0  0  0  0  0
    8.0308   -0.4365    3.0291 H   0  0  0  0  0  0  0  0  0  0  0  0
    9.1015   -1.2346    1.8176 H   0  0  0  0  0  0  0  0  0  0  0  0
    5.6585   -2.5958    1.0115 H   0  0  0  0  0  0  0  0  0  0  0  0
    6.3100   -2.2964    2.6625 H   0  0  0  0  0  0  0  0  0  0  0  0
    7.3583   -3.0600    1.4059 H   0  0  0  0  0  0  0  0  0  0  0  0
    6.5578   -0.6353   -2.3183 H   0  0  0  0  0  0  0  0  0  0  0  0
   -3.0009    0.4144    2.5769 H   0  0  0  0  0  0  0  0  0  0  0  0
   -5.5414    0.3259    5.3300 H   0  0  0  0  0  0  0  0  0  0  0  0
   -4.0435   -0.4094    4.6466 H   0  0  0  0  0  0  0  0  0  0  0  0
   -4.4219    1.3483    4.3540 H   0  0  0  0  0  0  0  0  0  0  0  0
   -8.0299   -2.0485   -0.1174 H   0  0  0  0  0  0  0  0  0  0  0  0
   -8.3860   -0.2783   -0.4195 H   0  0  0  0  0  0  0  0  0  0  0  0
   -9.2051   -1.1627    0.9137 H   0  0  0  0  0  0  0  0  0  0  0  0
  1  2  1  0
  2  3  1  0
  3  4  2  0
  4  5  1  0
  5  6  1  0
  6  7  1  0
  7  8  2  0
  8  9  1  0
  9 10  2  0
 10 11  1  0
 10 12  1  0
 12 13  1  0
 13 14  1  0
 14 15  2  0
 15 16  1  0
 16 17  2  0
 17 18  1  0
 18 19  1  0
 19 20  1  0
 19 21  1  0
 19 22  1  0
 22 23  2  0
 22 24  1  0
 24 25  1  0
 25 26  2  0
 12 27  2  0
  5 28  2  0
 28 29  1  0
 29 30  1  0
 30 31  1  0
 29 32  2  0
 32 33  1  0
 33 34  1  0
 32  3  1  0
 27  7  1  0
 26 14  1  0
 25 17  1  0
  1 35  1  0
  1 36  1  0
  1 37  1  0
  4 38  1  0
  6 39  1  0
  9 40  1  0
 13 41  1  0
 15 42  1  0
 16 43  1  0
 20 44  1  0
 20 45  1  0
 20 46  1  0
 21 47  1  0
 21 48  1  0
 21 49  1  0
 24 50  1  0
 28 51  1  0
 31 52  1  0
 31 53  1  0
 31 54  1  0
 34 55  1  0
 34 56  1  0
 34 57  1  0
M  END
$$$$
