
     RDKit          3D

 67 68  0  0  0  0  0  0  0  0999 V2000
    1.3134    2.6925   -3.1012 C   0  0  0  0  0  0  0  0  0  0  0  0
    0.5663    1.5339   -2.4362 C   0  0  2  0  0  0  0  0  0  0  0  0
   -0.4329    2.0386   -1.4886 N   0  0  0  0  0  0  0  0  0  0  0  0
   -1.4488    1.1878   -0.9328 C   0  0  0  0  0  0  0  0  0  0  0  0
   -1.5073   -0.0253   -1.2727 O   0  0  0  0  0  0  0  0  0  0  0  0
   -2.4271    1.7204    0.0348 C   0  0  0  0  0  0  0  0  0  0  0  0
   -2.3769    2.9362    0.3662 O   0  0  0  0  0  0  0  0  0  0  0  0
   -3.4464    0.8695    0.5839 N   0  0  0  0  0  0  0  0  0  0  0  0
   -4.3508    1.3195    1.6009 C   0  0  0  0  0  0  0  0  0  0  0  0
   -3.7942    1.7611    2.8131 C   0  0  0  0  0  0  0  0  0  0  0  0
   -4.6043    2.1256    3.8819 C   0  0  0  0  0  0  0  0  0  0  0  0
   -5.9842    2.0359    3.7641 C   0  0  0  0  0  0  0  0  0  0  0  0
   -6.5621    1.6054    2.5697 C   0  0  0  0  0  0  0  0  0  0  0  0
   -5.7733    1.2719    1.4363 C   0  0  0  0  0  0  0  0  0  0  0  0
   -6.4628    0.8257    0.1124 C   0  0  0  0  0  0  0  0  0  0  0  0
   -7.9301    1.3301    0.0196 C   0  0  0  0  0  0  0  0  0  0  0  0
   -5.7339    1.3863   -1.1388 C   0  0  0  0  0  0  0  0  0  0  0  0
   -6.4952   -0.7140    0.0507 C   0  0  0  0  0  0  0  0  0  0  0  0
    1.5453    0.6353   -1.7295 C   0  0  0  0  0  0  0  0  0  0  0  0
    2.0147    0.9828   -0.6111 O   0  0  0  0  0  0  0  0  0  0  0  0
    1.9723   -0.5896   -2.3435 N   0  0  0  0  0  0  0  0  0  0  0  0
    2.9767   -1.4623   -1.7291 C   0  0  1  0  0  0  0  0  0  0  0  0
    2.8700   -2.8831   -2.3149 C   0  0  0  0  0  0  0  0  0  0  0  0
    3.7694   -3.8454   -1.6011 C   0  0  0  0  0  0  0  0  0  0  0  0
    5.0333   -4.1228   -2.1123 O   0  0  0  0  0  0  0  0  0  0  0  0
    3.3964   -4.3752   -0.5203 O   0  0  0  0  0  0  0  0  0  0  0  0
    4.3531   -0.8781   -1.9557 C   0  0  0  0  0  0  0  0  0  0  0  0
    4.7642   -0.7141   -3.0953 O   0  0  0  0  0  0  0  0  0  0  0  0
    5.2207   -0.4940   -0.7932 C   0  0  0  0  0  0  0  0  0  0  0  0
    5.5744   -1.6639   -0.0625 O   0  0  0  0  0  0  0  0  0  0  0  0
    6.3542   -1.6970    1.1059 C   0  0  0  0  0  0  0  0  0  0  0  0
    6.9100   -0.5422    1.7065 C   0  0  0  0  0  0  0  0  0  0  0  0
    6.7248    0.6943    1.1822 F   0  0  0  0  0  0  0  0  0  0  0  0
    7.6758   -0.6597    2.8729 C   0  0  0  0  0  0  0  0  0  0  0  0
    8.2086    0.4466    3.4487 F   0  0  0  0  0  0  0  0  0  0  0  0
    7.8953   -1.9128    3.4483 C   0  0  0  0  0  0  0  0  0  0  0  0
    7.3510   -3.0560    2.8615 C   0  0  0  0  0  0  0  0  0  0  0  0
    7.5667   -4.2712    3.4235 F   0  0  0  0  0  0  0  0  0  0  0  0
    6.5849   -2.9486    1.6966 C   0  0  0  0  0  0  0  0  0  0  0  0
    6.0609   -4.0674    1.1363 F   0  0  0  0  0  0  0  0  0  0  0  0
    1.8538    3.2985   -2.3421 H   0  0  0  0  0  0  0  0  0  0  0  0
    2.0467    2.3013   -3.8389 H   0  0  0  0  0  0  0  0  0  0  0  0
    0.5936    3.3477   -3.6363 H   0  0  0  0  0  0  0  0  0  0  0  0
    0.0437    0.9662   -3.2374 H   0  0  0  0  0  0  0  0  0  0  0  0
   -0.4062    3.0451   -1.2066 H   0  0  0  0  0  0  0  0  0  0  0  0
   -3.5023   -0.1245    0.2742 H   0  0  0  0  0  0  0  0  0  0  0  0
   -2.7187    1.7958    2.9362 H   0  0  0  0  0  0  0  0  0  0  0  0
   -4.1598    2.4566    4.8117 H   0  0  0  0  0  0  0  0  0  0  0  0
   -6.6136    2.2973    4.6053 H   0  0  0  0  0  0  0  0  0  0  0  0
   -7.6382    1.5454    2.5583 H   0  0  0  0  0  0  0  0  0  0  0  0
   -8.3679    1.1204   -0.9806 H   0  0  0  0  0  0  0  0  0  0  0  0
   -7.9784    2.4271    0.1925 H   0  0  0  0  0  0  0  0  0  0  0  0
   -8.5916    0.8110    0.7449 H   0  0  0  0  0  0  0  0  0  0  0  0
   -6.3812    1.3509   -2.0415 H   0  0  0  0  0  0  0  0  0  0  0  0
   -5.4363    2.4447   -0.9762 H   0  0  0  0  0  0  0  0  0  0  0  0
   -4.8429    0.7896   -1.4136 H   0  0  0  0  0  0  0  0  0  0  0  0
   -7.0020   -1.0578   -0.8771 H   0  0  0  0  0  0  0  0  0  0  0  0
   -7.0471   -1.1250    0.9236 H   0  0  0  0  0  0  0  0  0  0  0  0
   -5.4761   -1.1465    0.0603 H   0  0  0  0  0  0  0  0  0  0  0  0
    1.5952   -0.8321   -3.2882 H   0  0  0  0  0  0  0  0  0  0  0  0
    2.7692   -1.5307   -0.6370 H   0  0  0  0  0  0  0  0  0  0  0  0
    3.1225   -2.8746   -3.3978 H   0  0  0  0  0  0  0  0  0  0  0  0
    1.8210   -3.2398   -2.2203 H   0  0  0  0  0  0  0  0  0  0  0  0
    5.6599   -4.7580   -1.6328 H   0  0  0  0  0  0  0  0  0  0  0  0
    6.1415    0.0082   -1.1625 H   0  0  0  0  0  0  0  0  0  0  0  0
    4.6548    0.2037   -0.1403 H   0  0  0  0  0  0  0  0  0  0  0  0
    8.4882   -1.9976    4.3501 H   0  0  0  0  0  0  0  0  0  0  0  0
  1  2  1  0
  2  3  1  0
  3  4  1  0
  4  5  2  0
  4  6  1  0
  6  7  2  0
  6  8  1  0
  8  9  1  0
  9 10  2  0
 10 11  1  0
 11 12  2  0
 12 13  1  0
 13 14  2  0
 14 15  1  0
 15 16  1  0
 15 17  1  0
 15 18  1  0
  2 19  1  0
 19 20  2  0
 19 21  1  0
 21 22  1  0
 22 23  1  0
 23 24  1  0
 24 25  1  0
 24 26  2  0
 22 27  1  0
 27 28  2  0
 27 29  1  0
 29 30  1  0
 30 31  1  0
 31 32  2  0
 32 33  1  0
 32 34  1  0
 34 35  1  0
 34 36  2  0
 36 37  1  0
 37 38  1  0
 37 39  2  0
 39 40  1  0
 14  9  1  0
 39 31  1  0
  1 41  1  0
  1 42  1  0
  1 43  1  0
  2 44  1  6
  3 45  1  0
  8 46  1  0
 10 47  1  0
 11 48  1  0
 12 49  1  0
 13 50  1  0
 16 51  1  0
 16 52  1  0
 16 53  1  0
 17 54  1  0
 17 55  1  0
 17 56  1  0
 18 57  1  0
 18 58  1  0
 18 59  1  0
 21 60  1  0
 22 61  1  1
 23 62  1  0
 23 63  1  0
 25 64  1  0
 29 65  1  0
 29 66  1  0
 36 67  1  0
M  END
$$$$
