
     RDKit          3D

 72 77  0  0  0  0  0  0  0  0999 V2000
   -3.3165   -0.6942   -0.7692 N   0  0  0  0  0  0  0  0  0  0  0  0
   -4.2062   -0.6802    0.3927 C   0  0  0  0  0  0  0  0  0  0  0  0
   -4.6947    0.7207    0.7358 C   0  0  0  0  0  0  0  0  0  0  0  0
   -4.7191    1.7155   -0.2644 C   0  0  0  0  0  0  0  0  0  0  0  0
   -5.1359    3.0137    0.0221 C   0  0  0  0  0  0  0  0  0  0  0  0
   -5.5632    3.3485    1.3027 C   0  0  0  0  0  0  0  0  0  0  0  0
   -5.6066    2.3757    2.3087 C   0  0  0  0  0  0  0  0  0  0  0  0
   -6.0747    2.7181    3.5874 C   0  0  0  0  0  0  0  0  0  0  0  0
   -6.1553    1.7521    4.5895 C   0  0  0  0  0  0  0  0  0  0  0  0
   -5.7799    0.4366    4.3240 C   0  0  0  0  0  0  0  0  0  0  0  0
   -5.3075    0.0784    3.0590 C   0  0  0  0  0  0  0  0  0  0  0  0
   -5.1927    1.0426    2.0314 C   0  0  0  0  0  0  0  0  0  0  0  0
   -1.9878   -0.1536   -0.7205 C   0  0  0  0  0  0  0  0  0  0  0  0
   -1.1506   -0.1823   -1.8305 C   0  0  0  0  0  0  0  0  0  0  0  0
   -1.3656   -0.7088   -3.0508 N   0  0  0  0  0  0  0  0  0  0  0  0
   -0.1843   -0.4808   -3.6889 C   0  0  0  0  0  0  0  0  0  0  0  0
    0.7294    0.1652   -2.9177 N   0  0  0  0  0  0  0  0  0  0  0  0
    2.1350    0.4388   -3.2224 C   0  0  2  0  0  0  0  0  0  0  0  0
    2.2791    0.8315   -4.5658 O   0  0  0  0  0  0  0  0  0  0  0  0
    3.5649    0.4136   -4.9822 C   0  0  2  0  0  0  0  0  0  0  0  0
    3.4748   -0.2132   -6.3814 C   0  0  0  0  0  0  0  0  0  0  0  0
    2.6498   -1.3481   -6.3741 O   0  0  0  0  0  0  0  0  0  0  0  0
    4.1546   -0.5584   -3.9434 C   0  0  1  0  0  0  0  0  0  0  0  0
    5.2299    0.0618   -3.2819 O   0  0  0  0  0  0  0  0  0  0  0  0
    2.9808   -0.8036   -3.0157 C   0  0  1  0  0  0  0  0  0  0  0  0
    3.3577   -0.9662   -1.6053 N   0  0  0  0  0  0  0  0  0  0  0  0
    2.6762   -1.8936   -0.7429 C   0  0  0  0  0  0  0  0  0  0  0  0
    2.0609   -2.8731   -1.2466 O   0  0  0  0  0  0  0  0  0  0  0  0
    2.6861   -1.7272    0.7327 C   0  0  0  0  0  0  0  0  0  0  0  0
    2.9029   -0.4693    1.3240 C   0  0  0  0  0  0  0  0  0  0  0  0
    2.8747   -0.3193    2.7228 C   0  0  0  0  0  0  0  0  0  0  0  0
    3.0780    0.9195    3.3500 O   0  0  0  0  0  0  0  0  0  0  0  0
    3.3351    2.1395    2.6618 C   0  0  0  0  0  0  0  0  0  0  0  0
    2.6308   -1.4356    3.5282 C   0  0  0  0  0  0  0  0  0  0  0  0
    2.4048   -2.6989    2.9538 C   0  0  0  0  0  0  0  0  0  0  0  0
    2.1504   -3.8417    3.7270 O   0  0  0  0  0  0  0  0  0  0  0  0
    2.0907   -3.8541    5.1496 C   0  0  0  0  0  0  0  0  0  0  0  0
    2.4305   -2.8328    1.5621 C   0  0  0  0  0  0  0  0  0  0  0  0
    0.0970    0.3330   -1.7500 C   0  0  0  0  0  0  0  0  0  0  0  0
    0.5874    0.8876   -0.6155 N   0  0  0  0  0  0  0  0  0  0  0  0
   -0.2265    0.9273    0.4817 C   0  0  0  0  0  0  0  0  0  0  0  0
   -1.4958    0.4115    0.4247 N   0  0  0  0  0  0  0  0  0  0  0  0
   -3.6593   -1.1372   -1.6516 H   0  0  0  0  0  0  0  0  0  0  0  0
   -5.0910   -1.3193    0.1852 H   0  0  0  0  0  0  0  0  0  0  0  0
   -3.6498   -1.1260    1.2428 H   0  0  0  0  0  0  0  0  0  0  0  0
   -4.4061    1.4972   -1.2770 H   0  0  0  0  0  0  0  0  0  0  0  0
   -5.1281    3.7660   -0.7563 H   0  0  0  0  0  0  0  0  0  0  0  0
   -5.8795    4.3657    1.5022 H   0  0  0  0  0  0  0  0  0  0  0  0
   -6.3856    3.7322    3.8093 H   0  0  0  0  0  0  0  0  0  0  0  0
   -6.5205    2.0218    5.5721 H   0  0  0  0  0  0  0  0  0  0  0  0
   -5.8601   -0.3123    5.1015 H   0  0  0  0  0  0  0  0  0  0  0  0
   -5.0571   -0.9601    2.9009 H   0  0  0  0  0  0  0  0  0  0  0  0
    0.0107   -0.8087   -4.7007 H   0  0  0  0  0  0  0  0  0  0  0  0
    2.5010    1.2695   -2.5753 H   0  0  0  0  0  0  0  0  0  0  0  0
    4.2108    1.3166   -5.0652 H   0  0  0  0  0  0  0  0  0  0  0  0
    3.0963    0.5416   -7.1088 H   0  0  0  0  0  0  0  0  0  0  0  0
    4.4908   -0.5126   -6.7165 H   0  0  0  0  0  0  0  0  0  0  0  0
    1.7166   -1.0234   -6.4656 H   0  0  0  0  0  0  0  0  0  0  0  0
    4.4888   -1.5175   -4.4080 H   0  0  0  0  0  0  0  0  0  0  0  0
    5.7915   -0.6640   -2.9028 H   0  0  0  0  0  0  0  0  0  0  0  0
    2.4309   -1.6980   -3.3874 H   0  0  0  0  0  0  0  0  0  0  0  0
    4.0103   -0.2716   -1.1799 H   0  0  0  0  0  0  0  0  0  0  0  0
    3.0580    0.3985    0.7014 H   0  0  0  0  0  0  0  0  0  0  0  0
    2.4814    2.3916    1.9980 H   0  0  0  0  0  0  0  0  0  0  0  0
    4.2692    2.0532    2.0674 H   0  0  0  0  0  0  0  0  0  0  0  0
    3.4601    2.9545    3.4036 H   0  0  0  0  0  0  0  0  0  0  0  0
    2.6134   -1.3054    4.6019 H   0  0  0  0  0  0  0  0  0  0  0  0
    1.2792   -3.1837    5.5036 H   0  0  0  0  0  0  0  0  0  0  0  0
    3.0650   -3.5337    5.5755 H   0  0  0  0  0  0  0  0  0  0  0  0
    1.8746   -4.8860    5.4943 H   0  0  0  0  0  0  0  0  0  0  0  0
    2.2550   -3.8106    1.1300 H   0  0  0  0  0  0  0  0  0  0  0  0
    0.1347    1.3630    1.4028 H   0  0  0  0  0  0  0  0  0  0  0  0
  1  2  1  0
  2  3  1  0
  3  4  2  0
  4  5  1  0
  5  6  2  0
  6  7  1  0
  7  8  2  0
  8  9  1  0
  9 10  2  0
 10 11  1  0
 11 12  2  0
  1 13  1  0
 13 14  2  0
 14 15  1  0
 15 16  2  0
 16 17  1  0
 17 18  1  0
 18 19  1  0
 19 20  1  0
 20 21  1  0
 21 22  1  0
 20 23  1  0
 23 24  1  0
 23 25  1  0
 25 26  1  0
 26 27  1  0
 27 28  2  0
 27 29  1  0
 29 30  2  0
 30 31  1  0
 31 32  1  0
 32 33  1  0
 31 34  2  0
 34 35  1  0
 35 36  1  0
 36 37  1  0
 35 38  2  0
 17 39  1  0
 39 40  2  0
 40 41  1  0
 41 42  2  0
 12  3  1  0
 42 13  1  0
 12  7  1  0
 39 14  1  0
 25 18  1  0
 38 29  1  0
  1 43  1  0
  2 44  1  0
  2 45  1  0
  4 46  1  0
  5 47  1  0
  6 48  1  0
  8 49  1  0
  9 50  1  0
 10 51  1  0
 11 52  1  0
 16 53  1  0
 18 54  1  1
 20 55  1  6
 21 56  1  0
 21 57  1  0
 22 58  1  0
 23 59  1  6
 24 60  1  0
 25 61  1  6
 26 62  1  0
 30 63  1  0
 33 64  1  0
 33 65  1  0
 33 66  1  0
 34 67  1  0
 37 68  1  0
 37 69  1  0
 37 70  1  0
 38 71  1  0
 41 72  1  0
M  END
$$$$
