
     RDKit          3D

 76 75  0  0  0  0  0  0  0  0999 V2000
    3.8798   -1.0811   -1.4099 C   0  0  2  0  0  0  0  0  0  0  0  0
    3.6472   -2.3909   -0.9546 O   0  0  0  0  0  0  0  0  0  0  0  0
    3.1787   -0.8433   -2.7617 C   0  0  0  0  0  0  0  0  0  0  0  0
    1.8162   -1.2228   -2.6873 O   0  0  0  0  0  0  0  0  0  0  0  0
    0.9911   -0.1134   -2.3836 C   0  0  1  0  0  0  0  0  0  0  0  0
    0.8071    0.6546   -3.5459 O   0  0  0  0  0  0  0  0  0  0  0  0
   -0.3762   -0.6226   -1.8983 C   0  0  0  0  0  0  0  0  0  0  0  0
   -0.2962   -1.5604   -0.6762 C   0  0  0  0  0  0  0  0  0  0  0  0
    0.2352   -0.9059    0.6128 C   0  0  0  0  0  0  0  0  0  0  0  0
   -0.6367    0.2344    1.1718 C   0  0  0  0  0  0  0  0  0  0  0  0
   -2.0149   -0.2335    1.6876 C   0  0  0  0  0  0  0  0  0  0  0  0
   -3.1527    0.1137    0.7116 C   0  0  0  0  0  0  0  0  0  0  0  0
   -4.5092   -0.4617    1.1505 C   0  0  0  0  0  0  0  0  0  0  0  0
   -5.1294    0.3150    2.3246 C   0  0  0  0  0  0  0  0  0  0  0  0
   -6.4419   -0.3108    2.8319 C   0  0  0  0  0  0  0  0  0  0  0  0
   -7.5855   -0.3676    1.8021 C   0  0  0  0  0  0  0  0  0  0  0  0
   -8.0184    1.0237    1.3089 C   0  0  0  0  0  0  0  0  0  0  0  0
   -9.2322    0.9638    0.3673 C   0  0  0  0  0  0  0  0  0  0  0  0
  -10.5499    0.7107    1.1150 C   0  0  0  0  0  0  0  0  0  0  0  0
  -11.7417    0.7775    0.1643 C   0  0  0  0  0  0  0  0  0  0  0  0
    5.3885   -0.8053   -1.4949 C   0  0  0  0  0  0  0  0  0  0  0  0
    5.6022    0.5577   -1.7796 O   0  0  0  0  0  0  0  0  0  0  0  0
    7.2812    0.8205   -1.9046 P   0  0  0  0  0  5  0  0  0  0  0  0
    7.8937   -0.0807   -3.2042 O   0  0  0  0  0  0  0  0  0  0  0  0
    7.5170    2.2935   -2.1565 O   0  0  0  0  0  0  0  0  0  0  0  0
    8.0358    0.3648   -0.4424 O   0  0  0  0  0  0  0  0  0  0  0  0
    9.4318    0.4227   -0.6192 C   0  0  0  0  0  0  0  0  0  0  0  0
   10.1211    0.1202    0.7160 C   0  0  2  0  0  0  0  0  0  0  0  0
    9.7350    1.1112    1.7230 N   0  0  0  0  0  0  0  0  0  0  0  0
   11.6170    0.0892    0.5443 C   0  0  0  0  0  0  0  0  0  0  0  0
   12.2960    1.2264    0.1154 O   0  0  0  0  0  0  0  0  0  0  0  0
   12.2576   -0.9681    0.7890 O   0  0  0  0  0  0  0  0  0  0  0  0
    3.4512   -0.3820   -0.6610 H   0  0  0  0  0  0  0  0  0  0  0  0
    4.0293   -3.0144   -1.6267 H   0  0  0  0  0  0  0  0  0  0  0  0
    3.6627   -1.4784   -3.5342 H   0  0  0  0  0  0  0  0  0  0  0  0
    3.3221    0.2118   -3.0955 H   0  0  0  0  0  0  0  0  0  0  0  0
    1.4371    0.5216   -1.5807 H   0  0  0  0  0  0  0  0  0  0  0  0
    0.4596    1.5382   -3.2552 H   0  0  0  0  0  0  0  0  0  0  0  0
   -1.0360    0.2417   -1.6797 H   0  0  0  0  0  0  0  0  0  0  0  0
   -0.8552   -1.1856   -2.7291 H   0  0  0  0  0  0  0  0  0  0  0  0
    0.3592   -2.4227   -0.9253 H   0  0  0  0  0  0  0  0  0  0  0  0
   -1.3016   -1.9889   -0.4824 H   0  0  0  0  0  0  0  0  0  0  0  0
    0.3319   -1.6943    1.3909 H   0  0  0  0  0  0  0  0  0  0  0  0
    1.2612   -0.5223    0.4414 H   0  0  0  0  0  0  0  0  0  0  0  0
   -0.7334    1.0576    0.4329 H   0  0  0  0  0  0  0  0  0  0  0  0
   -0.0815    0.6700    2.0316 H   0  0  0  0  0  0  0  0  0  0  0  0
   -2.2091    0.2767    2.6546 H   0  0  0  0  0  0  0  0  0  0  0  0
   -2.0073   -1.3265    1.8921 H   0  0  0  0  0  0  0  0  0  0  0  0
   -2.9187   -0.3051   -0.2880 H   0  0  0  0  0  0  0  0  0  0  0  0
   -3.2301    1.2174    0.5985 H   0  0  0  0  0  0  0  0  0  0  0  0
   -4.3971   -1.5355    1.4171 H   0  0  0  0  0  0  0  0  0  0  0  0
   -5.1921   -0.3989    0.2772 H   0  0  0  0  0  0  0  0  0  0  0  0
   -4.4209    0.3180    3.1786 H   0  0  0  0  0  0  0  0  0  0  0  0
   -5.2928    1.3750    2.0376 H   0  0  0  0  0  0  0  0  0  0  0  0
   -6.2320   -1.3449    3.1828 H   0  0  0  0  0  0  0  0  0  0  0  0
   -6.7877    0.2659    3.7175 H   0  0  0  0  0  0  0  0  0  0  0  0
   -7.2976   -1.0056    0.9403 H   0  0  0  0  0  0  0  0  0  0  0  0
   -8.4443   -0.8657    2.2979 H   0  0  0  0  0  0  0  0  0  0  0  0
   -7.1810    1.4800    0.7399 H   0  0  0  0  0  0  0  0  0  0  0  0
   -8.2420    1.6855    2.1741 H   0  0  0  0  0  0  0  0  0  0  0  0
   -9.0747    0.1772   -0.4033 H   0  0  0  0  0  0  0  0  0  0  0  0
   -9.3053    1.9404   -0.1601 H   0  0  0  0  0  0  0  0  0  0  0  0
  -10.5372   -0.2930    1.5886 H   0  0  0  0  0  0  0  0  0  0  0  0
  -10.6843    1.4751    1.9110 H   0  0  0  0  0  0  0  0  0  0  0  0
  -11.6421    0.0107   -0.6333 H   0  0  0  0  0  0  0  0  0  0  0  0
  -11.8095    1.7842   -0.3007 H   0  0  0  0  0  0  0  0  0  0  0  0
  -12.6786    0.5839    0.7281 H   0  0  0  0  0  0  0  0  0  0  0  0
    5.8286   -1.4548   -2.2863 H   0  0  0  0  0  0  0  0  0  0  0  0
    5.8395   -1.0698   -0.5115 H   0  0  0  0  0  0  0  0  0  0  0  0
    8.6933    0.4162   -3.5122 H   0  0  0  0  0  0  0  0  0  0  0  0
    9.7505    1.4328   -0.9677 H   0  0  0  0  0  0  0  0  0  0  0  0
    9.7548   -0.3445   -1.3591 H   0  0  0  0  0  0  0  0  0  0  0  0
    9.7772   -0.8818    1.0594 H   0  0  0  0  0  0  0  0  0  0  0  0
   10.1772    0.8509    2.6349 H   0  0  0  0  0  0  0  0  0  0  0  0
   10.1076    2.0508    1.4517 H   0  0  0  0  0  0  0  0  0  0  0  0
   13.3019    1.2169   -0.0039 H   0  0  0  0  0  0  0  0  0  0  0  0
  1  2  1  0
  1  3  1  0
  3  4  1  0
  4  5  1  0
  5  6  1  0
  5  7  1  0
  7  8  1  0
  8  9  1  0
  9 10  1  0
 10 11  1  0
 11 12  1  0
 12 13  1  0
 13 14  1  0
 14 15  1  0
 15 16  1  0
 16 17  1  0
 17 18  1  0
 18 19  1  0
 19 20  1  0
  1 21  1  0
 21 22  1  0
 22 23  1  0
 23 24  1  0
 23 25  2  0
 23 26  1  0
 26 27  1  0
 27 28  1  0
 28 29  1  0
 28 30  1  0
 30 31  1  0
 30 32  2  0
  1 33  1  1
  2 34  1  0
  3 35  1  0
  3 36  1  0
  5 37  1  1
  6 38  1  0
  7 39  1  0
  7 40  1  0
  8 41  1  0
  8 42  1  0
  9 43  1  0
  9 44  1  0
 10 45  1  0
 10 46  1  0
 11 47  1  0
 11 48  1  0
 12 49  1  0
 12 50  1  0
 13 51  1  0
 13 52  1  0
 14 53  1  0
 14 54  1  0
 15 55  1  0
 15 56  1  0
 16 57  1  0
 16 58  1  0
 17 59  1  0
 17 60  1  0
 18 61  1  0
 18 62  1  0
 19 63  1  0
 19 64  1  0
 20 65  1  0
 20 66  1  0
 20 67  1  0
 21 68  1  0
 21 69  1  0
 24 70  1  0
 27 71  1  0
 27 72  1  0
 28 73  1  1
 29 74  1  0
 29 75  1  0
 31 76  1  0
M  END
$$$$
