
     RDKit          3D

 48 49  0  0  0  0  0  0  0  0999 V2000
   -5.2703    0.3125    0.4713 C   0  0  0  0  0  0  0  0  0  0  0  0
   -4.0249    0.8919    0.1033 O   0  0  0  0  0  0  0  0  0  0  0  0
   -2.8676    0.7482    0.8753 C   0  0  0  0  0  0  0  0  0  0  0  0
   -2.8989    0.0643    1.9354 O   0  0  0  0  0  0  0  0  0  0  0  0
   -1.5805    1.3441    0.4269 C   0  0  0  0  0  0  0  0  0  0  0  0
   -1.5230    2.5448   -0.1943 C   0  0  0  0  0  0  0  0  0  0  0  0
   -2.7550    3.3670   -0.4767 C   0  0  0  0  0  0  0  0  0  0  0  0
   -0.2566    3.0760   -0.6081 N   0  0  0  0  0  0  0  0  0  0  0  0
    0.9853    2.4018   -0.3684 C   0  0  0  0  0  0  0  0  0  0  0  0
    2.2544    3.0630   -0.8437 C   0  0  0  0  0  0  0  0  0  0  0  0
    0.9883    1.1968    0.2405 C   0  0  0  0  0  0  0  0  0  0  0  0
   -0.3028    0.5833    0.7631 C   0  0  0  0  0  0  0  0  0  0  0  0
   -0.4090   -0.8805    0.3333 C   0  0  0  0  0  0  0  0  0  0  0  0
   -0.1745   -1.8804    1.2986 C   0  0  0  0  0  0  0  0  0  0  0  0
   -0.2829   -3.2324    0.9712 C   0  0  0  0  0  0  0  0  0  0  0  0
   -0.6351   -3.6125   -0.3215 C   0  0  0  0  0  0  0  0  0  0  0  0
   -0.8735   -2.6419   -1.2939 C   0  0  0  0  0  0  0  0  0  0  0  0
   -0.7493   -1.2772   -0.9899 C   0  0  0  0  0  0  0  0  0  0  0  0
   -0.9988   -0.3211   -2.0272 N   0  0  0  0  0  4  0  0  0  0  0  0
   -2.1194   -0.4531   -2.8137 O   0  0  0  0  0  1  0  0  0  0  0  0
   -0.0878    0.4446   -2.3997 O   0  0  0  0  0  0  0  0  0  0  0  0
    2.2449    0.4456    0.4698 C   0  0  0  0  0  0  0  0  0  0  0  0
    2.4348   -0.1278    1.5773 O   0  0  0  0  0  0  0  0  0  0  0  0
    3.1790    0.3114   -0.5635 O   0  0  0  0  0  0  0  0  0  0  0  0
    4.2543   -0.6221   -0.5188 C   0  0  0  0  0  0  0  0  0  0  0  0
    3.7226   -2.0234   -0.6539 C   0  0  0  0  0  0  0  0  0  0  0  0
    3.8326   -3.0140    0.4665 C   0  0  0  0  0  0  0  0  0  0  0  0
    3.1753   -2.3580   -1.6933 O   0  0  0  0  0  0  0  0  0  0  0  0
   -5.1731   -0.7924    0.5283 H   0  0  0  0  0  0  0  0  0  0  0  0
   -6.0310    0.5676   -0.2946 H   0  0  0  0  0  0  0  0  0  0  0  0
   -5.5999    0.7123    1.4536 H   0  0  0  0  0  0  0  0  0  0  0  0
   -3.3166    2.9247   -1.3258 H   0  0  0  0  0  0  0  0  0  0  0  0
   -3.4032    3.4252    0.4232 H   0  0  0  0  0  0  0  0  0  0  0  0
   -2.4810    4.4071   -0.7506 H   0  0  0  0  0  0  0  0  0  0  0  0
   -0.2380    3.9900   -1.1143 H   0  0  0  0  0  0  0  0  0  0  0  0
    2.0822    4.1396   -1.0515 H   0  0  0  0  0  0  0  0  0  0  0  0
    2.6018    2.5790   -1.7802 H   0  0  0  0  0  0  0  0  0  0  0  0
    3.0468    2.9988   -0.0681 H   0  0  0  0  0  0  0  0  0  0  0  0
   -0.2228    0.6329    1.8719 H   0  0  0  0  0  0  0  0  0  0  0  0
    0.0909   -1.6142    2.3141 H   0  0  0  0  0  0  0  0  0  0  0  0
   -0.0972   -3.9873    1.7243 H   0  0  0  0  0  0  0  0  0  0  0  0
   -0.7229   -4.6619   -0.5715 H   0  0  0  0  0  0  0  0  0  0  0  0
   -1.1410   -2.9535   -2.2959 H   0  0  0  0  0  0  0  0  0  0  0  0
    4.8302   -0.4910    0.4227 H   0  0  0  0  0  0  0  0  0  0  0  0
    4.9432   -0.4165   -1.3647 H   0  0  0  0  0  0  0  0  0  0  0  0
    4.3350   -2.5702    1.3511 H   0  0  0  0  0  0  0  0  0  0  0  0
    2.8170   -3.3466    0.7669 H   0  0  0  0  0  0  0  0  0  0  0  0
    4.4180   -3.8943    0.1279 H   0  0  0  0  0  0  0  0  0  0  0  0
  1  2  1  0
  2  3  1  0
  3  4  2  0
  3  5  1  0
  5  6  2  0
  6  7  1  0
  6  8  1  0
  8  9  1  0
  9 10  1  0
  9 11  2  0
 11 12  1  0
 12 13  1  0
 13 14  2  0
 14 15  1  0
 15 16  2  0
 16 17  1  0
 17 18  2  0
 18 19  1  0
 19 20  1  0
 19 21  2  0
 11 22  1  0
 22 23  2  0
 22 24  1  0
 24 25  1  0
 25 26  1  0
 26 27  1  0
 26 28  2  0
 12  5  1  0
 18 13  1  0
  1 29  1  0
  1 30  1  0
  1 31  1  0
  7 32  1  0
  7 33  1  0
  7 34  1  0
  8 35  1  0
 10 36  1  0
 10 37  1  0
 10 38  1  0
 12 39  1  0
 14 40  1  0
 15 41  1  0
 16 42  1  0
 17 43  1  0
 25 44  1  0
 25 45  1  0
 27 46  1  0
 27 47  1  0
 27 48  1  0
M  CHG  2  19   1  20  -1
M  END
$$$$
