
     RDKit          3D

 50 53  0  0  0  0  0  0  0  0999 V2000
    6.0668   -2.7697    2.2258 N   0  0  0  0  0  0  0  0  0  0  0  0
    6.1255   -2.5775    0.5091 S   0  0  0  0  0  6  0  0  0  0  0  0
    5.4853   -3.7667   -0.1507 O   0  0  0  0  0  0  0  0  0  0  0  0
    7.5570   -2.4891    0.0585 O   0  0  0  0  0  0  0  0  0  0  0  0
    5.2662   -1.1095    0.0552 C   0  0  0  0  0  0  0  0  0  0  0  0
    5.9448    0.1148    0.0034 C   0  0  0  0  0  0  0  0  0  0  0  0
    5.2628    1.2798   -0.3552 C   0  0  0  0  0  0  0  0  0  0  0  0
    3.8977    1.2323   -0.6496 C   0  0  0  0  0  0  0  0  0  0  0  0
    3.1975    0.0152   -0.5699 C   0  0  0  0  0  0  0  0  0  0  0  0
    1.7976   -0.0649   -0.8862 N   0  0  0  0  0  0  0  0  0  0  0  0
    0.8380    0.9502   -0.5600 C   0  0  0  0  0  0  0  0  0  0  0  0
   -0.4252    0.8770   -1.0935 N   0  0  0  0  0  0  0  0  0  0  0  0
   -1.3897    1.7981   -0.7874 C   0  0  0  0  0  0  0  0  0  0  0  0
   -2.6788    1.7248   -1.3261 O   0  0  0  0  0  0  0  0  0  0  0  0
   -3.1394    0.6526   -2.1504 C   0  0  0  0  0  0  0  0  0  0  0  0
   -3.8129   -0.4603   -1.3231 C   0  0  0  0  0  0  0  0  0  0  0  0
   -2.8278   -1.1648   -0.3717 C   0  0  0  0  0  0  0  0  0  0  0  0
   -3.4760   -2.3887    0.3078 C   0  0  0  0  0  0  0  0  0  0  0  0
   -4.9990   -2.2472    0.5072 C   0  0  0  0  0  0  0  0  0  0  0  0
   -5.4150   -0.7829    0.6808 C   0  0  0  0  0  0  0  0  0  0  0  0
   -5.0523    0.0682   -0.5540 C   0  0  0  0  0  0  0  0  0  0  0  0
   -1.0458    2.8165    0.0873 C   0  0  0  0  0  0  0  0  0  0  0  0
   -1.7957    3.8304    0.5536 N   0  0  0  0  0  0  0  0  0  0  0  0
   -0.9285    4.4830    1.3770 C   0  0  0  0  0  0  0  0  0  0  0  0
    0.3027    3.9147    1.4334 N   0  0  0  0  0  0  0  0  0  0  0  0
    0.1976    2.8681    0.6106 C   0  0  0  0  0  0  0  0  0  0  0  0
    1.1531    1.9555    0.3162 N   0  0  0  0  0  0  0  0  0  0  0  0
    3.8949   -1.1551   -0.2333 C   0  0  0  0  0  0  0  0  0  0  0  0
    6.5579   -1.9468    2.6417 H   0  0  0  0  0  0  0  0  0  0  0  0
    6.6392   -3.6119    2.4589 H   0  0  0  0  0  0  0  0  0  0  0  0
    7.0012    0.1671    0.2340 H   0  0  0  0  0  0  0  0  0  0  0  0
    5.7949    2.2207   -0.4121 H   0  0  0  0  0  0  0  0  0  0  0  0
    3.3976    2.1400   -0.9600 H   0  0  0  0  0  0  0  0  0  0  0  0
    1.4365   -0.9526   -1.3037 H   0  0  0  0  0  0  0  0  0  0  0  0
   -3.8881    1.0621   -2.8616 H   0  0  0  0  0  0  0  0  0  0  0  0
   -2.3102    0.2373   -2.7640 H   0  0  0  0  0  0  0  0  0  0  0  0
   -4.1664   -1.2249   -2.0519 H   0  0  0  0  0  0  0  0  0  0  0  0
   -2.5005   -0.4514    0.4159 H   0  0  0  0  0  0  0  0  0  0  0  0
   -1.9257   -1.4974   -0.9300 H   0  0  0  0  0  0  0  0  0  0  0  0
   -2.9882   -2.5472    1.2944 H   0  0  0  0  0  0  0  0  0  0  0  0
   -3.2819   -3.2961   -0.3048 H   0  0  0  0  0  0  0  0  0  0  0  0
   -5.3122   -2.8315    1.3993 H   0  0  0  0  0  0  0  0  0  0  0  0
   -5.5304   -2.6702   -0.3738 H   0  0  0  0  0  0  0  0  0  0  0  0
   -6.5101   -0.7261    0.8624 H   0  0  0  0  0  0  0  0  0  0  0  0
   -4.9047   -0.3695    1.5788 H   0  0  0  0  0  0  0  0  0  0  0  0
   -5.9187    0.0868   -1.2511 H   0  0  0  0  0  0  0  0  0  0  0  0
   -4.8888    1.1129   -0.2113 H   0  0  0  0  0  0  0  0  0  0  0  0
   -1.1980    5.3697    1.9354 H   0  0  0  0  0  0  0  0  0  0  0  0
    1.1314    4.2218    1.9892 H   0  0  0  0  0  0  0  0  0  0  0  0
    3.3640   -2.0978   -0.1838 H   0  0  0  0  0  0  0  0  0  0  0  0
  1  2  1  0
  2  3  2  0
  2  4  2  0
  2  5  1  0
  5  6  2  0
  6  7  1  0
  7  8  2  0
  8  9  1  0
  9 10  1  0
 10 11  1  0
 11 12  2  0
 12 13  1  0
 13 14  1  0
 14 15  1  0
 15 16  1  0
 16 17  1  0
 17 18  1  0
 18 19  1  0
 19 20  1  0
 20 21  1  0
 13 22  2  0
 22 23  1  0
 23 24  2  0
 24 25  1  0
 25 26  1  0
 26 27  2  0
  9 28  2  0
 28  5  1  0
 27 11  1  0
 21 16  1  0
 26 22  1  0
  1 29  1  0
  1 30  1  0
  6 31  1  0
  7 32  1  0
  8 33  1  0
 10 34  1  0
 15 35  1  0
 15 36  1  0
 16 37  1  0
 17 38  1  0
 17 39  1  0
 18 40  1  0
 18 41  1  0
 19 42  1  0
 19 43  1  0
 20 44  1  0
 20 45  1  0
 21 46  1  0
 21 47  1  0
 24 48  1  0
 25 49  1  0
 28 50  1  0
M  END
$$$$
