
     RDKit          3D

 25 25  0  0  0  0  0  0  0  0999 V2000
    2.9110    0.1888   -0.6081 N   0  0  0  0  0  0  0  0  0  0  0  0
    1.5542    0.4855   -0.1402 C   0  0  1  0  0  0  0  0  0  0  0  0
    0.5907    0.6194   -1.3452 C   0  0  0  0  0  0  0  0  0  0  0  0
    0.9974    1.6730   -2.1790 O   0  0  0  0  0  0  0  0  0  0  0  0
   -0.7367    0.8630   -0.9061 O   0  0  0  0  0  0  0  0  0  0  0  0
   -1.2440   -0.2547   -0.1965 C   0  0  2  0  0  0  0  0  0  0  0  0
   -2.7277   -0.0043    0.1103 C   0  0  0  0  0  0  0  0  0  0  0  0
   -3.4446    0.2051   -1.0764 O   0  0  0  0  0  0  0  0  0  0  0  0
   -0.4418   -0.4619    1.1115 C   0  0  1  0  0  0  0  0  0  0  0  0
   -0.9257   -1.5618    1.8430 O   0  0  0  0  0  0  0  0  0  0  0  0
    1.0556   -0.6455    0.7869 C   0  0  2  0  0  0  0  0  0  0  0  0
    1.8149   -0.7064    1.9695 O   0  0  0  0  0  0  0  0  0  0  0  0
    3.2542    1.0010   -1.1704 H   0  0  0  0  0  0  0  0  0  0  0  0
    3.5447    0.1372    0.2223 H   0  0  0  0  0  0  0  0  0  0  0  0
    1.5585    1.4469    0.4239 H   0  0  0  0  0  0  0  0  0  0  0  0
    0.6303   -0.3122   -1.9562 H   0  0  0  0  0  0  0  0  0  0  0  0
    0.8561    2.5168   -1.6746 H   0  0  0  0  0  0  0  0  0  0  0  0
   -1.1846   -1.1751   -0.8245 H   0  0  0  0  0  0  0  0  0  0  0  0
   -2.8293    0.9010    0.7466 H   0  0  0  0  0  0  0  0  0  0  0  0
   -3.1628   -0.8639    0.6695 H   0  0  0  0  0  0  0  0  0  0  0  0
   -3.5569   -0.6851   -1.5016 H   0  0  0  0  0  0  0  0  0  0  0  0
   -0.5590    0.4483    1.7410 H   0  0  0  0  0  0  0  0  0  0  0  0
   -0.8520   -2.3651    1.2638 H   0  0  0  0  0  0  0  0  0  0  0  0
    1.1841   -1.6130    0.2514 H   0  0  0  0  0  0  0  0  0  0  0  0
    1.7132    0.1627    2.4388 H   0  0  0  0  0  0  0  0  0  0  0  0
  1  2  1  0
  2  3  1  0
  3  4  1  0
  3  5  1  0
  5  6  1  0
  6  7  1  0
  7  8  1  0
  6  9  1  0
  9 10  1  0
  9 11  1  0
 11 12  1  0
 11  2  1  0
  1 13  1  0
  1 14  1  0
  2 15  1  1
  3 16  1  0
  4 17  1  0
  6 18  1  6
  7 19  1  0
  7 20  1  0
  8 21  1  0
  9 22  1  1
 10 23  1  0
 11 24  1  6
 12 25  1  0
M  END
$$$$
