
     RDKit          3D

 58 58  0  0  0  0  0  0  0  0999 V2000
    2.7463    0.1666   -0.6292 C   0  0  1  0  0  0  0  0  0  0  0  0
    2.5864    0.7525   -1.8958 O   0  0  0  0  0  0  0  0  0  0  0  0
    2.3932   -1.3238   -0.7016 C   0  0  0  0  0  0  0  0  0  0  0  0
    0.9458   -1.5130   -1.0449 C   0  0  0  0  0  0  0  0  0  0  0  0
    0.6200   -1.7953   -2.2299 O   0  0  0  0  0  0  0  0  0  0  0  0
   -0.0589   -1.3300   -0.0367 N   0  0  0  0  0  0  0  0  0  0  0  0
   -1.4941   -1.4415   -0.3175 C   0  0  2  0  0  0  0  0  0  0  0  0
   -2.2478   -0.4607    0.5634 C   0  0  0  0  0  0  0  0  0  0  0  0
   -2.2474   -0.6301    1.8129 O   0  0  0  0  0  0  0  0  0  0  0  0
   -2.9137    0.6987    0.0205 N   0  0  0  0  0  0  0  0  0  0  0  0
   -3.9004    1.4418    0.7865 C   0  0  0  0  0  0  0  0  0  0  0  0
   -4.5782    2.3755   -0.2059 C   0  0  0  0  0  0  0  0  0  0  0  0
   -3.6309    2.4735   -1.3970 C   0  0  0  0  0  0  0  0  0  0  0  0
   -2.7594    1.2165   -1.3357 C   0  0  1  0  0  0  0  0  0  0  0  0
   -1.3223    1.5371   -1.6454 C   0  0  0  0  0  0  0  0  0  0  0  0
   -0.8090    1.2462   -2.9051 O   0  0  0  0  0  0  0  0  0  0  0  0
   -0.5921    2.0959   -0.7827 O   0  0  0  0  0  0  0  0  0  0  0  0
   -1.9529   -2.9257   -0.1869 C   0  0  1  0  0  0  0  0  0  0  0  0
   -1.8974   -3.4903    1.2442 C   0  0  0  0  0  0  0  0  0  0  0  0
   -3.2998   -3.2324   -0.8906 C   0  0  0  0  0  0  0  0  0  0  0  0
   -4.5154   -2.4776   -0.3473 C   0  0  0  0  0  0  0  0  0  0  0  0
    4.1666    0.3314   -0.1611 C   0  0  0  0  0  0  0  0  0  0  0  0
    5.1110    0.2702   -0.9953 O   0  0  0  0  0  0  0  0  0  0  0  0
    4.4461    0.4975    1.2363 N   0  0  0  0  0  0  0  0  0  0  0  0
    5.7997    0.7021    1.7505 C   0  0  0  0  0  0  0  0  0  0  0  0
    6.3085    2.1130    1.4306 C   0  0  0  0  0  0  0  0  0  0  0  0
    5.4675    3.1924    2.1097 C   0  0  0  0  0  0  0  0  0  0  0  0
    2.0636    0.6621    0.1009 H   0  0  0  0  0  0  0  0  0  0  0  0
    2.5598    1.7352   -1.7549 H   0  0  0  0  0  0  0  0  0  0  0  0
    2.5927   -1.8069    0.2801 H   0  0  0  0  0  0  0  0  0  0  0  0
    3.0292   -1.8278   -1.4628 H   0  0  0  0  0  0  0  0  0  0  0  0
    0.2549   -1.1641    0.9469 H   0  0  0  0  0  0  0  0  0  0  0  0
   -1.6611   -1.1630   -1.3765 H   0  0  0  0  0  0  0  0  0  0  0  0
   -3.3903    2.0227    1.5852 H   0  0  0  0  0  0  0  0  0  0  0  0
   -4.6452    0.7503    1.2379 H   0  0  0  0  0  0  0  0  0  0  0  0
   -4.7720    3.3736    0.2436 H   0  0  0  0  0  0  0  0  0  0  0  0
   -5.5424    1.9300   -0.5367 H   0  0  0  0  0  0  0  0  0  0  0  0
   -3.0203    3.3988   -1.2920 H   0  0  0  0  0  0  0  0  0  0  0  0
   -4.1952    2.5257   -2.3536 H   0  0  0  0  0  0  0  0  0  0  0  0
   -3.1483    0.4675   -2.0602 H   0  0  0  0  0  0  0  0  0  0  0  0
    0.1514    1.4663   -3.1386 H   0  0  0  0  0  0  0  0  0  0  0  0
   -1.2025   -3.5194   -0.7568 H   0  0  0  0  0  0  0  0  0  0  0  0
   -2.6888   -3.0664    1.8922 H   0  0  0  0  0  0  0  0  0  0  0  0
   -0.9084   -3.2837    1.7040 H   0  0  0  0  0  0  0  0  0  0  0  0
   -2.0347   -4.5924    1.2182 H   0  0  0  0  0  0  0  0  0  0  0  0
   -3.5028   -4.3231   -0.8129 H   0  0  0  0  0  0  0  0  0  0  0  0
   -3.2033   -3.0039   -1.9746 H   0  0  0  0  0  0  0  0  0  0  0  0
   -4.5958   -2.5686    0.7541 H   0  0  0  0  0  0  0  0  0  0  0  0
   -4.4733   -1.4090   -0.6359 H   0  0  0  0  0  0  0  0  0  0  0  0
   -5.4375   -2.9044   -0.7949 H   0  0  0  0  0  0  0  0  0  0  0  0
    3.6610    0.4255    1.9222 H   0  0  0  0  0  0  0  0  0  0  0  0
    6.4851   -0.0531    1.3089 H   0  0  0  0  0  0  0  0  0  0  0  0
    5.8035    0.5509    2.8522 H   0  0  0  0  0  0  0  0  0  0  0  0
    7.3580    2.2029    1.7849 H   0  0  0  0  0  0  0  0  0  0  0  0
    6.3061    2.2808    0.3325 H   0  0  0  0  0  0  0  0  0  0  0  0
    4.4233    3.1669    1.7321 H   0  0  0  0  0  0  0  0  0  0  0  0
    5.4642    3.0443    3.2105 H   0  0  0  0  0  0  0  0  0  0  0  0
    5.8976    4.1917    1.8875 H   0  0  0  0  0  0  0  0  0  0  0  0
  1  2  1  0
  1  3  1  0
  3  4  1  0
  4  5  2  0
  4  6  1  0
  6  7  1  0
  7  8  1  0
  8  9  2  0
  8 10  1  0
 10 11  1  0
 11 12  1  0
 12 13  1  0
 13 14  1  0
 14 15  1  0
 15 16  1  0
 15 17  2  0
  7 18  1  0
 18 19  1  0
 18 20  1  0
 20 21  1  0
  1 22  1  0
 22 23  2  0
 22 24  1  0
 24 25  1  0
 25 26  1  0
 26 27  1  0
 14 10  1  0
  1 28  1  1
  2 29  1  0
  3 30  1  0
  3 31  1  0
  6 32  1  0
  7 33  1  6
 11 34  1  0
 11 35  1  0
 12 36  1  0
 12 37  1  0
 13 38  1  0
 13 39  1  0
 14 40  1  6
 16 41  1  0
 18 42  1  6
 19 43  1  0
 19 44  1  0
 19 45  1  0
 20 46  1  0
 20 47  1  0
 21 48  1  0
 21 49  1  0
 21 50  1  0
 24 51  1  0
 25 52  1  0
 25 53  1  0
 26 54  1  0
 26 55  1  0
 27 56  1  0
 27 57  1  0
 27 58  1  0
M  END
$$$$
