
     RDKit          3D

 51 55  0  0  0  0  0  0  0  0999 V2000
    5.8911   -2.2192    0.6632 C   0  0  0  0  0  0  0  0  0  0  0  0
    5.6587   -0.7438    0.3412 C   0  0  1  0  0  0  0  0  0  0  0  0
    5.9531   -0.4934   -1.0861 N   0  0  0  0  0  0  0  0  0  0  0  0
    4.7026   -0.0408   -1.7279 C   0  0  0  0  0  0  0  0  0  0  0  0
    3.6943    0.0276   -0.6518 C   0  0  0  0  0  0  0  0  0  0  0  0
    2.3628    0.4356   -0.7446 C   0  0  0  0  0  0  0  0  0  0  0  0
    1.5707    0.4179    0.4206 C   0  0  0  0  0  0  0  0  0  0  0  0
    2.1466    0.0415    1.6542 C   0  0  0  0  0  0  0  0  0  0  0  0
    3.4890   -0.3644    1.7119 C   0  0  0  0  0  0  0  0  0  0  0  0
    4.2361   -0.3710    0.5310 C   0  0  0  0  0  0  0  0  0  0  0  0
    0.1790    0.8943    0.3672 C   0  0  0  0  0  0  0  0  0  0  0  0
   -0.0290    2.2323    0.7050 C   0  0  0  0  0  0  0  0  0  0  0  0
   -1.2551    2.8366    0.4848 C   0  0  0  0  0  0  0  0  0  0  0  0
   -2.3286    2.1048   -0.0426 C   0  0  0  0  0  0  0  0  0  0  0  0
   -3.5387    2.7520   -0.3552 C   0  0  0  0  0  0  0  0  0  0  0  0
   -3.6624    3.9913   -0.1473 O   0  0  0  0  0  0  0  0  0  0  0  0
   -4.5990    2.0238   -0.9157 C   0  0  0  0  0  0  0  0  0  0  0  0
   -4.4496    0.6397   -1.0601 C   0  0  0  0  0  0  0  0  0  0  0  0
   -3.3150   -0.0103   -0.6557 N   0  0  0  0  0  0  0  0  0  0  0  0
   -3.3686   -1.4851   -0.6386 C   0  0  0  0  0  0  0  0  0  0  0  0
   -3.2292   -2.0968    0.7537 C   0  0  0  0  0  0  0  0  0  0  0  0
   -4.5844   -2.0733    0.0820 C   0  0  0  0  0  0  0  0  0  0  0  0
   -2.1925    0.7081   -0.2775 C   0  0  0  0  0  0  0  0  0  0  0  0
   -0.8985    0.1078   -0.1300 C   0  0  0  0  0  0  0  0  0  0  0  0
   -0.7122   -1.2230   -0.5572 O   0  0  0  0  0  0  0  0  0  0  0  0
    0.1496   -2.1961    0.0332 C   0  0  0  0  0  0  0  0  0  0  0  0
   -0.4323   -3.4422   -0.0885 F   0  0  0  0  0  0  0  0  0  0  0  0
    1.3593   -2.2279   -0.6316 F   0  0  0  0  0  0  0  0  0  0  0  0
   -5.8737    2.6743   -1.3274 C   0  0  0  0  0  0  0  0  0  0  0  0
   -6.0338    4.0547   -1.2383 O   0  0  0  0  0  0  0  0  0  0  0  0
   -6.8283    1.9786   -1.7696 O   0  0  0  0  0  0  0  0  0  0  0  0
    5.6727   -2.4186    1.7339 H   0  0  0  0  0  0  0  0  0  0  0  0
    5.2403   -2.8639    0.0335 H   0  0  0  0  0  0  0  0  0  0  0  0
    6.9521   -2.4821    0.4672 H   0  0  0  0  0  0  0  0  0  0  0  0
    6.3015   -0.1118    0.9954 H   0  0  0  0  0  0  0  0  0  0  0  0
    6.6575    0.2794   -1.1498 H   0  0  0  0  0  0  0  0  0  0  0  0
    4.8301    0.9595   -2.1987 H   0  0  0  0  0  0  0  0  0  0  0  0
    4.3882   -0.7807   -2.4937 H   0  0  0  0  0  0  0  0  0  0  0  0
    1.9514    0.7538   -1.6946 H   0  0  0  0  0  0  0  0  0  0  0  0
    1.5546    0.0576    2.5609 H   0  0  0  0  0  0  0  0  0  0  0  0
    3.9346   -0.6620    2.6521 H   0  0  0  0  0  0  0  0  0  0  0  0
    0.7901    2.8355    1.0800 H   0  0  0  0  0  0  0  0  0  0  0  0
   -1.3504    3.8931    0.7048 H   0  0  0  0  0  0  0  0  0  0  0  0
   -5.2779    0.0644   -1.4594 H   0  0  0  0  0  0  0  0  0  0  0  0
   -2.9927   -2.0525   -1.5165 H   0  0  0  0  0  0  0  0  0  0  0  0
   -3.1330   -1.3745    1.5926 H   0  0  0  0  0  0  0  0  0  0  0  0
   -2.7824   -3.1112    0.7870 H   0  0  0  0  0  0  0  0  0  0  0  0
   -4.9105   -3.0667   -0.2920 H   0  0  0  0  0  0  0  0  0  0  0  0
   -5.2875   -1.3631    0.5671 H   0  0  0  0  0  0  0  0  0  0  0  0
    0.2997   -1.9880    1.1128 H   0  0  0  0  0  0  0  0  0  0  0  0
   -6.9001    4.4980   -1.5199 H   0  0  0  0  0  0  0  0  0  0  0  0
  1  2  1  0
  2  3  1  0
  3  4  1  0
  4  5  1  0
  5  6  2  0
  6  7  1  0
  7  8  2  0
  8  9  1  0
  9 10  2  0
  7 11  1  0
 11 12  2  0
 12 13  1  0
 13 14  2  0
 14 15  1  0
 15 16  2  0
 15 17  1  0
 17 18  2  0
 18 19  1  0
 19 20  1  0
 20 21  1  0
 21 22  1  0
 19 23  1  0
 23 24  2  0
 24 25  1  0
 25 26  1  0
 26 27  1  0
 26 28  1  0
 17 29  1  0
 29 30  1  0
 29 31  2  0
 10  2  1  0
 24 11  1  0
 10  5  1  0
 23 14  1  0
 22 20  1  0
  1 32  1  0
  1 33  1  0
  1 34  1  0
  2 35  1  1
  3 36  1  0
  4 37  1  0
  4 38  1  0
  6 39  1  0
  8 40  1  0
  9 41  1  0
 12 42  1  0
 13 43  1  0
 18 44  1  0
 20 45  1  0
 21 46  1  0
 21 47  1  0
 22 48  1  0
 22 49  1  0
 26 50  1  0
 30 51  1  0
M  END
$$$$
