
     RDKit          3D

 52 54  0  0  0  0  0  0  0  0999 V2000
   -3.6795    1.3304   -0.8833 C   0  0  0  0  0  0  0  0  0  0  0  0
   -2.2527    0.8590   -0.8727 C   0  0  0  0  0  0  0  0  0  0  0  0
   -1.1621    1.6060   -0.4182 C   0  0  0  0  0  0  0  0  0  0  0  0
   -1.1598    3.0391    0.0363 C   0  0  0  0  0  0  0  0  0  0  0  0
   -1.0622    3.9582   -1.1431 C   0  0  0  0  0  0  0  0  0  0  0  0
    0.1970    4.2009   -1.7702 N   0  0  0  0  0  0  0  0  0  0  0  0
   -2.1019    4.5006   -1.6034 O   0  0  0  0  0  0  0  0  0  0  0  0
   -0.0705    0.7626   -0.5106 C   0  0  0  0  0  0  0  0  0  0  0  0
   -0.5238   -0.4444   -0.9828 C   0  0  0  0  0  0  0  0  0  0  0  0
    0.3501   -1.5225   -1.1629 C   0  0  0  0  0  0  0  0  0  0  0  0
    1.7080   -1.3387   -0.8519 C   0  0  0  0  0  0  0  0  0  0  0  0
    2.1766   -0.0905   -0.3638 C   0  0  0  0  0  0  0  0  0  0  0  0
    3.5220    0.1296   -0.0384 O   0  0  0  0  0  0  0  0  0  0  0  0
    4.5430   -0.8625   -0.1060 C   0  0  0  0  0  0  0  0  0  0  0  0
    5.8776   -0.2783    0.3670 C   0  0  0  0  0  0  0  0  0  0  0  0
    5.9105   -0.0040    1.8785 C   0  0  0  0  0  0  0  0  0  0  0  0
    5.0369    1.1513    2.2607 C   0  0  0  0  0  0  0  0  0  0  0  0
    3.7976    0.9195    2.8495 O   0  0  0  0  0  0  0  0  0  0  0  0
    5.4115    2.3312    2.0251 O   0  0  0  0  0  0  0  0  0  0  0  0
    1.2718    0.9717   -0.1908 C   0  0  0  0  0  0  0  0  0  0  0  0
   -1.8575   -0.4004   -1.2077 N   0  0  0  0  0  0  0  0  0  0  0  0
   -2.7229   -1.5090   -1.6320 C   0  0  0  0  0  0  0  0  0  0  0  0
   -3.4211   -2.1145   -0.4433 C   0  0  0  0  0  0  0  0  0  0  0  0
   -2.6943   -2.8657    0.4956 C   0  0  0  0  0  0  0  0  0  0  0  0
   -3.3365   -3.4109    1.6115 C   0  0  0  0  0  0  0  0  0  0  0  0
   -4.7065   -3.2098    1.7992 C   0  0  0  0  0  0  0  0  0  0  0  0
   -5.4368   -2.4634    0.8706 C   0  0  0  0  0  0  0  0  0  0  0  0
   -4.7986   -1.9168   -0.2471 C   0  0  0  0  0  0  0  0  0  0  0  0
   -4.2132    0.9398   -1.7725 H   0  0  0  0  0  0  0  0  0  0  0  0
   -3.7340    2.4364   -0.9254 H   0  0  0  0  0  0  0  0  0  0  0  0
   -4.1898    0.9811    0.0377 H   0  0  0  0  0  0  0  0  0  0  0  0
   -2.0850    3.2532    0.6126 H   0  0  0  0  0  0  0  0  0  0  0  0
   -0.3068    3.2248    0.7219 H   0  0  0  0  0  0  0  0  0  0  0  0
    0.2583    4.8288   -2.6021 H   0  0  0  0  0  0  0  0  0  0  0  0
    1.0696    3.7594   -1.4060 H   0  0  0  0  0  0  0  0  0  0  0  0
    0.0100   -2.4805   -1.5289 H   0  0  0  0  0  0  0  0  0  0  0  0
    2.3855   -2.1696   -0.9925 H   0  0  0  0  0  0  0  0  0  0  0  0
    4.2693   -1.7362    0.5251 H   0  0  0  0  0  0  0  0  0  0  0  0
    4.6548   -1.2007   -1.1589 H   0  0  0  0  0  0  0  0  0  0  0  0
    6.6787   -1.0122    0.1317 H   0  0  0  0  0  0  0  0  0  0  0  0
    6.1038    0.6524   -0.1984 H   0  0  0  0  0  0  0  0  0  0  0  0
    5.5998   -0.9127    2.4382 H   0  0  0  0  0  0  0  0  0  0  0  0
    6.9553    0.2283    2.1780 H   0  0  0  0  0  0  0  0  0  0  0  0
    3.1869    1.6894    3.0950 H   0  0  0  0  0  0  0  0  0  0  0  0
    1.6157    1.9238    0.1909 H   0  0  0  0  0  0  0  0  0  0  0  0
   -2.1360   -2.2926   -2.1527 H   0  0  0  0  0  0  0  0  0  0  0  0
   -3.4568   -1.1467   -2.3825 H   0  0  0  0  0  0  0  0  0  0  0  0
   -1.6327   -3.0288    0.3653 H   0  0  0  0  0  0  0  0  0  0  0  0
   -2.7715   -3.9885    2.3317 H   0  0  0  0  0  0  0  0  0  0  0  0
   -5.2020   -3.6317    2.6640 H   0  0  0  0  0  0  0  0  0  0  0  0
   -6.4977   -2.3072    1.0174 H   0  0  0  0  0  0  0  0  0  0  0  0
   -5.3783   -1.3386   -0.9556 H   0  0  0  0  0  0  0  0  0  0  0  0
  1  2  1  0
  2  3  2  0
  3  4  1  0
  4  5  1  0
  5  6  1  0
  5  7  2  0
  3  8  1  0
  8  9  2  0
  9 10  1  0
 10 11  2  0
 11 12  1  0
 12 13  1  0
 13 14  1  0
 14 15  1  0
 15 16  1  0
 16 17  1  0
 17 18  1  0
 17 19  2  0
 12 20  2  0
  9 21  1  0
 21 22  1  0
 22 23  1  0
 23 24  2  0
 24 25  1  0
 25 26  2  0
 26 27  1  0
 27 28  2  0
 21  2  1  0
 28 23  1  0
 20  8  1  0
  1 29  1  0
  1 30  1  0
  1 31  1  0
  4 32  1  0
  4 33  1  0
  6 34  1  0
  6 35  1  0
 10 36  1  0
 11 37  1  0
 14 38  1  0
 14 39  1  0
 15 40  1  0
 15 41  1  0
 16 42  1  0
 16 43  1  0
 18 44  1  0
 20 45  1  0
 22 46  1  0
 22 47  1  0
 24 48  1  0
 25 49  1  0
 26 50  1  0
 27 51  1  0
 28 52  1  0
M  END
$$$$
