
     RDKit          3D

 28 28  0  0  0  0  0  0  0  0999 V2000
    1.1425   -0.2052   -0.2819 C   0  0  2  0  0  0  0  0  0  0  0  0
    0.0200    0.5416   -1.0400 C   0  0  0  0  0  0  0  0  0  0  0  0
   -1.3355    0.2575   -0.4437 C   0  0  0  0  0  0  0  0  0  0  0  0
   -1.7642    0.9553    0.6980 C   0  0  0  0  0  0  0  0  0  0  0  0
   -3.0072    0.6709    1.2718 C   0  0  0  0  0  0  0  0  0  0  0  0
   -3.8265   -0.3153    0.7153 C   0  0  0  0  0  0  0  0  0  0  0  0
   -3.4028   -1.0206   -0.4145 C   0  0  0  0  0  0  0  0  0  0  0  0
   -2.1607   -0.7391   -0.9917 C   0  0  0  0  0  0  0  0  0  0  0  0
    2.4792    0.2357   -0.7187 N   0  0  0  0  0  0  0  0  0  0  0  0
    3.0959    1.5229    0.2797 S   0  0  0  0  0  6  0  0  0  0  0  0
    3.6109    0.8856    1.8029 N   0  0  0  0  0  0  0  0  0  0  0  0
    4.2743    2.1537   -0.4066 O   0  0  0  0  0  0  0  0  0  0  0  0
    2.0428    2.5715    0.5063 O   0  0  0  0  0  0  0  0  0  0  0  0
    1.0276   -1.6864   -0.5047 C   0  0  0  0  0  0  0  0  0  0  0  0
    0.5556   -2.5052    0.5167 O   0  0  0  0  0  0  0  0  0  0  0  0
    1.3275   -2.1871   -1.6223 O   0  0  0  0  0  0  0  0  0  0  0  0
    1.0167   -0.0266    0.8094 H   0  0  0  0  0  0  0  0  0  0  0  0
    0.0331    0.2604   -2.1166 H   0  0  0  0  0  0  0  0  0  0  0  0
    0.2023    1.6362   -1.0028 H   0  0  0  0  0  0  0  0  0  0  0  0
   -1.1344    1.7156    1.1434 H   0  0  0  0  0  0  0  0  0  0  0  0
   -3.3340    1.2128    2.1499 H   0  0  0  0  0  0  0  0  0  0  0  0
   -4.7877   -0.5353    1.1615 H   0  0  0  0  0  0  0  0  0  0  0  0
   -4.0357   -1.7879   -0.8413 H   0  0  0  0  0  0  0  0  0  0  0  0
   -1.8409   -1.2994   -1.8615 H   0  0  0  0  0  0  0  0  0  0  0  0
    2.4532    0.5740   -1.7087 H   0  0  0  0  0  0  0  0  0  0  0  0
    4.1367    0.0055    1.6030 H   0  0  0  0  0  0  0  0  0  0  0  0
    2.7545    0.6127    2.3343 H   0  0  0  0  0  0  0  0  0  0  0  0
    0.4566   -3.5037    0.3782 H   0  0  0  0  0  0  0  0  0  0  0  0
  1  2  1  0
  2  3  1  0
  3  4  2  0
  4  5  1  0
  5  6  2  0
  6  7  1  0
  7  8  2  0
  1  9  1  0
  9 10  1  0
 10 11  1  0
 10 12  2  0
 10 13  2  0
  1 14  1  0
 14 15  1  0
 14 16  2  0
  8  3  1  0
  1 17  1  1
  2 18  1  0
  2 19  1  0
  4 20  1  0
  5 21  1  0
  6 22  1  0
  7 23  1  0
  8 24  1  0
  9 25  1  0
 11 26  1  0
 11 27  1  0
 15 28  1  0
M  END
$$$$
