
     RDKit          3D

 33 35  0  0  0  0  0  0  0  0999 V2000
    3.0688   -1.7139   -0.9014 N   0  0  0  0  0  0  0  0  0  0  0  0
    1.6564   -2.0313   -1.1531 C   0  0  0  0  0  0  0  0  0  0  0  0
    0.8906   -0.9444   -0.5231 N   0  0  0  0  0  0  0  0  0  0  0  0
   -0.5656   -0.8058   -0.5681 C   0  0  2  0  0  0  0  0  0  0  0  0
   -0.9202    0.4677   -1.0481 O   0  0  0  0  0  0  0  0  0  0  0  0
   -2.1999    0.7526   -0.5249 C   0  0  2  0  0  0  0  0  0  0  0  0
   -2.2940    2.2498   -0.1998 C   0  0  0  0  0  0  0  0  0  0  0  0
   -3.5834    2.5818    0.2407 O   0  0  0  0  0  0  0  0  0  0  0  0
   -2.4390   -0.1311    0.7170 C   0  0  1  0  0  0  0  0  0  0  0  0
   -3.6055   -0.9089    0.5754 O   0  0  0  0  0  0  0  0  0  0  0  0
   -1.1801   -0.9774    0.8101 C   0  0  1  0  0  0  0  0  0  0  0  0
   -1.4501   -2.3307    1.0711 O   0  0  0  0  0  0  0  0  0  0  0  0
    1.8399   -0.0453    0.0380 C   0  0  0  0  0  0  0  0  0  0  0  0
    3.0963   -0.4944   -0.1801 C   0  0  0  0  0  0  0  0  0  0  0  0
    4.1854    0.2384    0.2717 C   0  0  0  0  0  0  0  0  0  0  0  0
    5.3649   -0.1564    0.0784 O   0  0  0  0  0  0  0  0  0  0  0  0
    3.9433    1.4063    0.9339 N   0  0  0  0  0  0  0  0  0  0  0  0
    2.6633    1.8474    1.1453 C   0  0  0  0  0  0  0  0  0  0  0  0
    1.5976    1.1200    0.6927 N   0  0  0  0  0  0  0  0  0  0  0  0
    3.8950   -2.2697   -1.2148 H   0  0  0  0  0  0  0  0  0  0  0  0
    1.4623   -2.0541   -2.2465 H   0  0  0  0  0  0  0  0  0  0  0  0
    1.3947   -3.0050   -0.6876 H   0  0  0  0  0  0  0  0  0  0  0  0
   -0.9839   -1.5716   -1.2622 H   0  0  0  0  0  0  0  0  0  0  0  0
   -2.9509    0.5267   -1.3154 H   0  0  0  0  0  0  0  0  0  0  0  0
   -1.5659    2.5104    0.5971 H   0  0  0  0  0  0  0  0  0  0  0  0
   -2.0319    2.8488   -1.1017 H   0  0  0  0  0  0  0  0  0  0  0  0
   -4.1652    2.5903   -0.5637 H   0  0  0  0  0  0  0  0  0  0  0  0
   -2.5373    0.4746    1.6454 H   0  0  0  0  0  0  0  0  0  0  0  0
   -3.5070   -1.4669   -0.2408 H   0  0  0  0  0  0  0  0  0  0  0  0
   -0.5031   -0.5614    1.5922 H   0  0  0  0  0  0  0  0  0  0  0  0
   -1.6993   -2.3861    2.0304 H   0  0  0  0  0  0  0  0  0  0  0  0
    2.4981    2.7781    1.6720 H   0  0  0  0  0  0  0  0  0  0  0  0
    0.6257    1.4613    0.8533 H   0  0  0  0  0  0  0  0  0  0  0  0
  1  2  1  0
  2  3  1  0
  3  4  1  0
  4  5  1  0
  5  6  1  0
  6  7  1  0
  7  8  1  0
  6  9  1  0
  9 10  1  0
  9 11  1  0
 11 12  1  0
  3 13  1  0
 13 14  2  0
 14 15  1  0
 15 16  2  0
 15 17  1  0
 17 18  2  0
 18 19  1  0
 14  1  1  0
 11  4  1  0
 19 13  1  0
  1 20  1  0
  2 21  1  0
  2 22  1  0
  4 23  1  6
  6 24  1  6
  7 25  1  0
  7 26  1  0
  8 27  1  0
  9 28  1  1
 10 29  1  0
 11 30  1  1
 12 31  1  0
 18 32  1  0
 19 33  1  0
M  END
$$$$
