
     RDKit          3D

 31 32  0  0  0  0  0  0  0  0999 V2000
    4.5161   -1.2855   -0.3584 C   0  0  0  0  0  0  0  0  0  0  0  0
    3.3107   -0.3981   -0.2143 C   0  0  0  0  0  0  0  0  0  0  0  0
    2.0195   -0.9259   -0.3189 C   0  0  0  0  0  0  0  0  0  0  0  0
    0.9198   -0.1260   -0.1742 N   0  0  0  0  0  0  0  0  0  0  0  0
   -0.4236   -0.7329   -0.2832 C   0  0  1  0  0  0  0  0  0  0  0  0
   -1.0760   -0.8833    1.0925 C   0  0  0  0  0  0  0  0  0  0  0  0
   -2.3834   -0.1419    0.9591 C   0  0  2  0  0  0  0  0  0  0  0  0
   -3.4500   -0.8777    1.4988 O   0  0  0  0  0  0  0  0  0  0  0  0
   -2.5409    0.0096   -0.5491 C   0  0  1  0  0  0  0  0  0  0  0  0
   -3.3137    1.2789   -0.9315 C   0  0  0  0  0  0  0  0  0  0  0  0
   -4.6086    1.2554   -0.3939 O   0  0  0  0  0  0  0  0  0  0  0  0
   -1.2524    0.0537   -1.1118 O   0  0  0  0  0  0  0  0  0  0  0  0
    1.0863    1.2073    0.1128 C   0  0  0  0  0  0  0  0  0  0  0  0
    0.0868    1.9589    0.2804 O   0  0  0  0  0  0  0  0  0  0  0  0
    2.3356    1.7344    0.2280 N   0  0  0  0  0  0  0  0  0  0  0  0
    3.4439    0.9646    0.0740 C   0  0  0  0  0  0  0  0  0  0  0  0
    4.5869    1.4838    0.1960 O   0  0  0  0  0  0  0  0  0  0  0  0
    4.9846   -1.4383    0.6364 H   0  0  0  0  0  0  0  0  0  0  0  0
    5.2553   -0.8157   -1.0411 H   0  0  0  0  0  0  0  0  0  0  0  0
    4.2421   -2.2763   -0.7794 H   0  0  0  0  0  0  0  0  0  0  0  0
    1.8998   -1.9851   -0.5176 H   0  0  0  0  0  0  0  0  0  0  0  0
   -0.3552   -1.7414   -0.7535 H   0  0  0  0  0  0  0  0  0  0  0  0
   -1.2454   -1.9605    1.3158 H   0  0  0  0  0  0  0  0  0  0  0  0
   -0.4589   -0.4444    1.9074 H   0  0  0  0  0  0  0  0  0  0  0  0
   -2.3029    0.8568    1.4508 H   0  0  0  0  0  0  0  0  0  0  0  0
   -3.3725   -0.8011    2.4855 H   0  0  0  0  0  0  0  0  0  0  0  0
   -3.0754   -0.8746   -0.9680 H   0  0  0  0  0  0  0  0  0  0  0  0
   -3.3616    1.3694   -2.0406 H   0  0  0  0  0  0  0  0  0  0  0  0
   -2.7816    2.1753   -0.5470 H   0  0  0  0  0  0  0  0  0  0  0  0
   -5.1302    0.6093   -0.9382 H   0  0  0  0  0  0  0  0  0  0  0  0
    2.4450    2.7515    0.4463 H   0  0  0  0  0  0  0  0  0  0  0  0
  1  2  1  0
  2  3  2  0
  3  4  1  0
  4  5  1  0
  5  6  1  0
  6  7  1  0
  7  8  1  0
  7  9  1  0
  9 10  1  0
 10 11  1  0
  9 12  1  0
  4 13  1  0
 13 14  2  0
 13 15  1  0
 15 16  1  0
 16 17  2  0
 16  2  1  0
 12  5  1  0
  1 18  1  0
  1 19  1  0
  1 20  1  0
  3 21  1  0
  5 22  1  6
  6 23  1  0
  6 24  1  0
  7 25  1  1
  8 26  1  0
  9 27  1  6
 10 28  1  0
 10 29  1  0
 11 30  1  0
 15 31  1  0
M  END
$$$$
