
     RDKit          3D

 43 47  0  0  0  0  0  0  0  0999 V2000
    6.4967    0.0090   -1.6293 C   0  0  0  0  0  0  0  0  0  0  0  0
    6.5671    0.4607   -0.2807 O   0  0  0  0  0  0  0  0  0  0  0  0
    5.4593    0.6090    0.5695 C   0  0  0  0  0  0  0  0  0  0  0  0
    4.1475    0.3189    0.1433 C   0  0  0  0  0  0  0  0  0  0  0  0
    3.0553    0.4779    1.0157 C   0  0  0  0  0  0  0  0  0  0  0  0
    3.2889    0.9333    2.3236 C   0  0  0  0  0  0  0  0  0  0  0  0
    4.5856    1.2218    2.7511 C   0  0  0  0  0  0  0  0  0  0  0  0
    5.6698    1.0624    1.8841 C   0  0  0  0  0  0  0  0  0  0  0  0
    6.9513    1.3600    2.3474 O   0  0  0  0  0  0  0  0  0  0  0  0
    1.6753    0.1689    0.5626 C   0  0  0  0  0  0  0  0  0  0  0  0
    1.4253   -0.9657   -0.2460 C   0  0  0  0  0  0  0  0  0  0  0  0
    0.1137   -1.2119   -0.6417 C   0  0  0  0  0  0  0  0  0  0  0  0
   -0.9244   -0.4051   -0.2692 C   0  0  0  0  0  0  0  0  0  0  0  0
   -0.7188    0.7390    0.5009 C   0  0  0  0  0  0  0  0  0  0  0  0
    0.5934    1.0174    0.9253 C   0  0  0  0  0  0  0  0  0  0  0  0
   -2.0402   -0.9612   -0.8765 C   0  0  0  0  0  0  0  0  0  0  0  0
   -1.6480   -2.0458   -1.5881 N   0  0  0  0  0  0  0  0  0  0  0  0
   -0.3378   -2.1956   -1.4349 N   0  0  0  0  0  0  0  0  0  0  0  0
   -3.4385   -0.5063   -0.8132 C   0  0  0  0  0  0  0  0  0  0  0  0
   -4.3404   -0.8008   -1.7879 N   0  0  0  0  0  0  0  0  0  0  0  0
   -5.4746   -0.2483   -1.3227 C   0  0  0  0  0  0  0  0  0  0  0  0
   -6.7331   -0.2529   -1.9197 C   0  0  0  0  0  0  0  0  0  0  0  0
   -7.7869    0.3753   -1.2280 C   0  0  0  0  0  0  0  0  0  0  0  0
   -7.5578    0.9798    0.0300 C   0  0  0  0  0  0  0  0  0  0  0  0
   -6.2730    0.9621    0.6053 C   0  0  0  0  0  0  0  0  0  0  0  0
   -5.2553    0.3381   -0.1128 C   0  0  0  0  0  0  0  0  0  0  0  0
   -3.9712    0.1810    0.2296 N   0  0  0  0  0  0  0  0  0  0  0  0
    7.5199   -0.0160   -2.0567 H   0  0  0  0  0  0  0  0  0  0  0  0
    6.0706   -1.0158   -1.6672 H   0  0  0  0  0  0  0  0  0  0  0  0
    5.8766    0.7047   -2.2332 H   0  0  0  0  0  0  0  0  0  0  0  0
    3.9689   -0.0124   -0.8705 H   0  0  0  0  0  0  0  0  0  0  0  0
    2.4701    1.0496    3.0225 H   0  0  0  0  0  0  0  0  0  0  0  0
    4.7502    1.5677    3.7638 H   0  0  0  0  0  0  0  0  0  0  0  0
    7.7730    1.2628    1.7632 H   0  0  0  0  0  0  0  0  0  0  0  0
    2.2199   -1.6367   -0.5472 H   0  0  0  0  0  0  0  0  0  0  0  0
   -1.5227    1.4170    0.7454 H   0  0  0  0  0  0  0  0  0  0  0  0
    0.7701    1.9094    1.5129 H   0  0  0  0  0  0  0  0  0  0  0  0
    0.2281   -2.9525   -1.8788 H   0  0  0  0  0  0  0  0  0  0  0  0
   -6.8971   -0.7250   -2.8797 H   0  0  0  0  0  0  0  0  0  0  0  0
   -8.7788    0.3924   -1.6604 H   0  0  0  0  0  0  0  0  0  0  0  0
   -8.3753    1.4568    0.5547 H   0  0  0  0  0  0  0  0  0  0  0  0
   -6.0840    1.4168    1.5691 H   0  0  0  0  0  0  0  0  0  0  0  0
   -3.5185    0.4677    1.1245 H   0  0  0  0  0  0  0  0  0  0  0  0
  1  2  1  0
  2  3  1  0
  3  4  2  0
  4  5  1  0
  5  6  2  0
  6  7  1  0
  7  8  2  0
  8  9  1  0
  5 10  1  0
 10 11  2  0
 11 12  1  0
 12 13  2  0
 13 14  1  0
 14 15  2  0
 13 16  1  0
 16 17  2  0
 17 18  1  0
 16 19  1  0
 19 20  2  0
 20 21  1  0
 21 22  2  0
 22 23  1  0
 23 24  2  0
 24 25  1  0
 25 26  2  0
 26 27  1  0
  8  3  1  0
 15 10  1  0
 27 19  1  0
 18 12  1  0
 26 21  1  0
  1 28  1  0
  1 29  1  0
  1 30  1  0
  4 31  1  0
  6 32  1  0
  7 33  1  0
  9 34  1  0
 11 35  1  0
 14 36  1  0
 15 37  1  0
 18 38  1  0
 22 39  1  0
 23 40  1  0
 24 41  1  0
 25 42  1  0
 27 43  1  0
M  END
$$$$
