
     RDKit          3D

 42 45  0  0  0  0  0  0  0  0999 V2000
   -1.7396   -0.7166    0.1421 C   0  0  2  0  0  0  0  0  0  0  0  0
   -2.6505   -1.7524   -0.5189 C   0  0  0  0  0  0  0  0  0  0  0  0
   -4.0634   -1.2482   -0.1727 C   0  0  0  0  0  0  0  0  0  0  0  0
   -3.8595    0.2027    0.1452 C   0  0  0  0  0  0  0  0  0  0  0  0
   -4.7623    0.9564    0.4748 O   0  0  0  0  0  0  0  0  0  0  0  0
   -2.4451    0.6310   -0.0637 C   0  0  2  0  0  0  0  0  0  0  0  0
   -2.3579    1.2126   -1.5026 C   0  0  0  0  0  0  0  0  0  0  0  0
   -1.8664    1.6221    0.9639 C   0  0  0  0  0  0  0  0  0  0  0  0
   -0.3262    1.7510    0.8044 C   0  0  0  0  0  0  0  0  0  0  0  0
    0.4228    0.3778    0.7668 C   0  0  2  0  0  0  0  0  0  0  0  0
    1.9205    0.4852    0.4783 C   0  0  0  0  0  0  0  0  0  0  0  0
    2.6175   -0.6143   -0.0960 C   0  0  0  0  0  0  0  0  0  0  0  0
    1.9058   -1.8510   -0.6037 C   0  0  0  0  0  0  0  0  0  0  0  0
    0.4628   -1.9795   -0.1069 C   0  0  0  0  0  0  0  0  0  0  0  0
   -0.2487   -0.6267   -0.2200 C   0  0  1  0  0  0  0  0  0  0  0  0
    4.0067   -0.5359   -0.2868 C   0  0  0  0  0  0  0  0  0  0  0  0
    4.7218    0.5927    0.1236 C   0  0  0  0  0  0  0  0  0  0  0  0
    6.1006    0.6673   -0.0620 O   0  0  0  0  0  0  0  0  0  0  0  0
    4.0510    1.6535    0.7281 C   0  0  0  0  0  0  0  0  0  0  0  0
    2.6692    1.5988    0.9170 C   0  0  0  0  0  0  0  0  0  0  0  0
   -1.7766   -0.9756    1.2309 H   0  0  0  0  0  0  0  0  0  0  0  0
   -2.4943   -1.7688   -1.6192 H   0  0  0  0  0  0  0  0  0  0  0  0
   -2.4789   -2.7702   -0.1060 H   0  0  0  0  0  0  0  0  0  0  0  0
   -4.4583   -1.7750    0.7226 H   0  0  0  0  0  0  0  0  0  0  0  0
   -4.7553   -1.3728   -1.0327 H   0  0  0  0  0  0  0  0  0  0  0  0
   -2.7099    0.4819   -2.2608 H   0  0  0  0  0  0  0  0  0  0  0  0
   -1.3333    1.5205   -1.7848 H   0  0  0  0  0  0  0  0  0  0  0  0
   -3.0015    2.1153   -1.5818 H   0  0  0  0  0  0  0  0  0  0  0  0
   -2.0966    1.2761    1.9963 H   0  0  0  0  0  0  0  0  0  0  0  0
   -2.3363    2.6220    0.8386 H   0  0  0  0  0  0  0  0  0  0  0  0
    0.0262    2.3419    1.6753 H   0  0  0  0  0  0  0  0  0  0  0  0
   -0.0836    2.3371   -0.1066 H   0  0  0  0  0  0  0  0  0  0  0  0
    0.3426   -0.0442    1.7945 H   0  0  0  0  0  0  0  0  0  0  0  0
    1.9008   -1.8162   -1.7151 H   0  0  0  0  0  0  0  0  0  0  0  0
    2.4676   -2.7602   -0.2969 H   0  0  0  0  0  0  0  0  0  0  0  0
    0.4571   -2.3341    0.9478 H   0  0  0  0  0  0  0  0  0  0  0  0
   -0.0549   -2.7417   -0.7280 H   0  0  0  0  0  0  0  0  0  0  0  0
   -0.1338   -0.2751   -1.2675 H   0  0  0  0  0  0  0  0  0  0  0  0
    4.5352   -1.3575   -0.7557 H   0  0  0  0  0  0  0  0  0  0  0  0
    6.6184   -0.0873   -0.4972 H   0  0  0  0  0  0  0  0  0  0  0  0
    4.6040    2.5228    1.0611 H   0  0  0  0  0  0  0  0  0  0  0  0
    2.2022    2.4348    1.4145 H   0  0  0  0  0  0  0  0  0  0  0  0
  1  2  1  0
  2  3  1  0
  3  4  1  0
  4  5  2  0
  4  6  1  0
  6  7  1  6
  6  8  1  0
  8  9  1  0
  9 10  1  0
 10 11  1  0
 11 12  2  0
 12 13  1  0
 13 14  1  0
 14 15  1  0
 12 16  1  0
 16 17  2  0
 17 18  1  0
 17 19  1  0
 19 20  2  0
  6  1  1  0
 15 10  1  0
 15  1  1  0
 20 11  1  0
  1 21  1  1
  2 22  1  0
  2 23  1  0
  3 24  1  0
  3 25  1  0
  7 26  1  0
  7 27  1  0
  7 28  1  0
  8 29  1  0
  8 30  1  0
  9 31  1  0
  9 32  1  0
 10 33  1  1
 13 34  1  0
 13 35  1  0
 14 36  1  0
 14 37  1  0
 15 38  1  6
 16 39  1  0
 18 40  1  0
 19 41  1  0
 20 42  1  0
M  END
$$$$
