
     RDKit          3D

 35 36  0  0  0  0  0  0  0  0999 V2000
    1.0080    0.7765   -1.0219 C   0  0  0  0  0  0  0  0  0  0  0  0
    1.3537   -0.2505    0.0232 C   0  0  0  0  0  0  0  0  0  0  0  0
    2.2252   -1.3227   -0.2168 C   0  0  0  0  0  0  0  0  0  0  0  0
    2.9822   -1.6372   -1.4767 C   0  0  0  0  0  0  0  0  0  0  0  0
    4.4060   -1.0757   -1.4324 C   0  0  0  0  0  0  0  0  0  0  0  0
    4.3931    0.3266   -1.4352 O   0  0  0  0  0  0  0  0  0  0  0  0
    2.3728   -2.2073    1.2039 S   0  0  0  0  0  0  0  0  0  0  0  0
    1.3074   -1.2404    2.0638 C   0  0  0  0  0  0  0  0  0  0  0  0
    0.8160   -0.2423    1.2880 N   0  0  0  0  0  4  0  0  0  0  0  0
   -0.1425    0.7475    1.8072 C   0  0  0  0  0  0  0  0  0  0  0  0
   -1.4546    0.7089    1.0512 C   0  0  0  0  0  0  0  0  0  0  0  0
   -1.8468    1.8202    0.2887 C   0  0  0  0  0  0  0  0  0  0  0  0
   -2.9923    1.7869   -0.4371 N   0  0  0  0  0  0  0  0  0  0  0  0
   -3.7952    0.6935   -0.4269 C   0  0  0  0  0  0  0  0  0  0  0  0
   -5.0274    0.6629   -1.2679 C   0  0  0  0  0  0  0  0  0  0  0  0
   -3.4504   -0.3906    0.3136 N   0  0  0  0  0  0  0  0  0  0  0  0
   -2.3166   -0.4112    1.0638 C   0  0  0  0  0  0  0  0  0  0  0  0
   -2.0478   -1.5668    1.8626 N   0  0  0  0  0  0  0  0  0  0  0  0
    0.9145    1.7800   -0.5617 H   0  0  0  0  0  0  0  0  0  0  0  0
    0.0539    0.4980   -1.5150 H   0  0  0  0  0  0  0  0  0  0  0  0
    1.7982    0.8582   -1.7934 H   0  0  0  0  0  0  0  0  0  0  0  0
    2.4459   -1.2547   -2.3700 H   0  0  0  0  0  0  0  0  0  0  0  0
    3.0405   -2.7413   -1.5860 H   0  0  0  0  0  0  0  0  0  0  0  0
    4.9513   -1.4214   -2.3358 H   0  0  0  0  0  0  0  0  0  0  0  0
    4.9528   -1.4673   -0.5435 H   0  0  0  0  0  0  0  0  0  0  0  0
    4.2750    0.6141   -0.4923 H   0  0  0  0  0  0  0  0  0  0  0  0
    1.0450   -1.3910    3.1031 H   0  0  0  0  0  0  0  0  0  0  0  0
   -0.3492    0.5691    2.8850 H   0  0  0  0  0  0  0  0  0  0  0  0
    0.3194    1.7572    1.7566 H   0  0  0  0  0  0  0  0  0  0  0  0
   -1.2337    2.7113    0.2562 H   0  0  0  0  0  0  0  0  0  0  0  0
   -4.7779    0.2662   -2.2738 H   0  0  0  0  0  0  0  0  0  0  0  0
   -5.7952    0.0119   -0.7990 H   0  0  0  0  0  0  0  0  0  0  0  0
   -5.4452    1.6865   -1.3725 H   0  0  0  0  0  0  0  0  0  0  0  0
   -1.3234   -1.5698    2.6103 H   0  0  0  0  0  0  0  0  0  0  0  0
   -2.6626   -2.4067    1.7808 H   0  0  0  0  0  0  0  0  0  0  0  0
  1  2  1  0
  2  3  2  0
  3  4  1  0
  4  5  1  0
  5  6  1  0
  3  7  1  0
  7  8  1  0
  8  9  2  0
  9 10  1  0
 10 11  1  0
 11 12  2  0
 12 13  1  0
 13 14  2  0
 14 15  1  0
 14 16  1  0
 16 17  2  0
 17 18  1  0
  9  2  1  0
 17 11  1  0
  1 19  1  0
  1 20  1  0
  1 21  1  0
  4 22  1  0
  4 23  1  0
  5 24  1  0
  5 25  1  0
  6 26  1  0
  8 27  1  0
 10 28  1  0
 10 29  1  0
 12 30  1  0
 15 31  1  0
 15 32  1  0
 15 33  1  0
 18 34  1  0
 18 35  1  0
M  CHG  1   9   1
M  END
$$$$
