
     RDKit          3D

 34 35  0  0  0  0  0  0  0  0999 V2000
   -5.4767   -0.1299   -1.0293 C   0  0  0  0  0  0  0  0  0  0  0  0
   -4.8331    0.4416    0.2377 C   0  0  0  0  0  0  0  0  0  0  0  0
   -5.0927    1.9466    0.3561 C   0  0  0  0  0  0  0  0  0  0  0  0
   -3.3564    0.1526    0.2604 C   0  0  0  0  0  0  0  0  0  0  0  0
   -2.4069    0.5998   -0.6573 C   0  0  0  0  0  0  0  0  0  0  0  0
   -1.1369    0.1818   -0.4128 N   0  0  0  0  0  0  0  0  0  0  0  0
   -1.0676   -0.5828    0.6999 C   0  0  0  0  0  0  0  0  0  0  0  0
    0.1336   -1.2074    1.1704 N   0  0  0  0  0  0  0  0  0  0  0  0
    1.4460   -0.9078    0.6669 C   0  0  0  0  0  0  0  0  0  0  0  0
    2.4131   -1.9229    0.6200 C   0  0  0  0  0  0  0  0  0  0  0  0
    3.7029   -1.6525    0.1538 C   0  0  0  0  0  0  0  0  0  0  0  0
    4.0457   -0.3597   -0.2619 C   0  0  0  0  0  0  0  0  0  0  0  0
    3.0938    0.6654   -0.1873 C   0  0  0  0  0  0  0  0  0  0  0  0
    1.8032    0.3958    0.2779 C   0  0  0  0  0  0  0  0  0  0  0  0
    5.6757   -0.0178   -0.8320 S   0  0  0  0  0  6  0  0  0  0  0  0
    6.6819    0.3872    0.5137 N   0  0  0  0  0  0  0  0  0  0  0  0
    5.6462    1.1321   -1.7996 O   0  0  0  0  0  0  0  0  0  0  0  0
    6.2316   -1.2250   -1.5347 O   0  0  0  0  0  0  0  0  0  0  0  0
   -2.5763   -0.7985    1.4104 S   0  0  0  0  0  0  0  0  0  0  0  0
   -6.5757    0.0306   -1.0038 H   0  0  0  0  0  0  0  0  0  0  0  0
   -5.0660    0.3600   -1.9382 H   0  0  0  0  0  0  0  0  0  0  0  0
   -5.2870   -1.2228   -1.0933 H   0  0  0  0  0  0  0  0  0  0  0  0
   -5.3041   -0.0556    1.1141 H   0  0  0  0  0  0  0  0  0  0  0  0
   -4.6255    2.3420    1.2835 H   0  0  0  0  0  0  0  0  0  0  0  0
   -4.6744    2.4913   -0.5175 H   0  0  0  0  0  0  0  0  0  0  0  0
   -6.1851    2.1416    0.4075 H   0  0  0  0  0  0  0  0  0  0  0  0
   -2.6483    1.2246   -1.5067 H   0  0  0  0  0  0  0  0  0  0  0  0
    0.0326   -1.9884    1.8574 H   0  0  0  0  0  0  0  0  0  0  0  0
    2.1631   -2.9275    0.9376 H   0  0  0  0  0  0  0  0  0  0  0  0
    4.4341   -2.4502    0.1216 H   0  0  0  0  0  0  0  0  0  0  0  0
    3.3526    1.6756   -0.4779 H   0  0  0  0  0  0  0  0  0  0  0  0
    1.0976    1.2115    0.3592 H   0  0  0  0  0  0  0  0  0  0  0  0
    7.6495    0.5196    0.1430 H   0  0  0  0  0  0  0  0  0  0  0  0
    6.7097   -0.4509    1.1368 H   0  0  0  0  0  0  0  0  0  0  0  0
  1  2  1  0
  2  3  1  0
  2  4  1  0
  4  5  2  0
  5  6  1  0
  6  7  2  0
  7  8  1  0
  8  9  1  0
  9 10  2  0
 10 11  1  0
 11 12  2  0
 12 13  1  0
 13 14  2  0
 12 15  1  0
 15 16  1  0
 15 17  2  0
 15 18  2  0
  7 19  1  0
 19  4  1  0
 14  9  1  0
  1 20  1  0
  1 21  1  0
  1 22  1  0
  2 23  1  0
  3 24  1  0
  3 25  1  0
  3 26  1  0
  5 27  1  0
  8 28  1  0
 10 29  1  0
 11 30  1  0
 13 31  1  0
 14 32  1  0
 16 33  1  0
 16 34  1  0
M  END
$$$$
