
     RDKit          3D

 50 52  0  0  0  0  0  0  0  0999 V2000
    7.6366    0.7705    0.1000 C   0  0  0  0  0  0  0  0  0  0  0  0
    6.4375   -0.0864   -0.1868 C   0  0  0  0  0  0  0  0  0  0  0  0
    6.1150   -0.4317   -1.5101 C   0  0  0  0  0  0  0  0  0  0  0  0
    6.8963   -0.0192   -2.5404 F   0  0  0  0  0  0  0  0  0  0  0  0
    4.9793   -1.2011   -1.7777 C   0  0  0  0  0  0  0  0  0  0  0  0
    4.1544   -1.6243   -0.7332 C   0  0  0  0  0  0  0  0  0  0  0  0
    4.4599   -1.2818    0.5925 C   0  0  0  0  0  0  0  0  0  0  0  0
    3.5440   -1.7076    1.7073 C   0  0  0  0  0  0  0  0  0  0  0  0
    2.3093   -0.9275    1.6685 N   0  0  0  0  0  0  0  0  0  0  0  0
    2.2683    0.4600    2.0402 C   0  0  0  0  0  0  0  0  0  0  0  0
    3.2452    0.9716    2.6521 O   0  0  0  0  0  0  0  0  0  0  0  0
    1.0913    1.3026    1.7428 C   0  0  0  0  0  0  0  0  0  0  0  0
    0.1683    0.9578    0.7432 C   0  0  0  0  0  0  0  0  0  0  0  0
   -0.9241    1.8073    0.5069 C   0  0  0  0  0  0  0  0  0  0  0  0
   -1.0400    2.9532    1.2307 N   0  0  0  0  0  0  0  0  0  0  0  0
   -0.1323    3.2821    2.1842 C   0  0  0  0  0  0  0  0  0  0  0  0
    0.9202    2.4625    2.4322 N   0  0  0  0  0  0  0  0  0  0  0  0
   -1.9358    1.5138   -0.5309 C   0  0  0  0  0  0  0  0  0  0  0  0
   -2.6560    2.4565   -0.9591 O   0  0  0  0  0  0  0  0  0  0  0  0
   -2.1312    0.1827   -1.0382 N   0  0  0  0  0  0  0  0  0  0  0  0
   -3.0638   -0.1074   -2.1252 C   0  0  0  0  0  0  0  0  0  0  0  0
   -4.4806   -0.0730   -1.6197 C   0  0  0  0  0  0  0  0  0  0  0  0
   -4.9387   -1.0740   -0.7480 C   0  0  0  0  0  0  0  0  0  0  0  0
   -6.2551   -1.0460   -0.2589 C   0  0  0  0  0  0  0  0  0  0  0  0
   -6.7315   -2.1028    0.6954 C   0  0  0  0  0  0  0  0  0  0  0  0
   -7.1059    0.0096   -0.6275 C   0  0  0  0  0  0  0  0  0  0  0  0
   -8.3740    0.0730   -0.1475 F   0  0  0  0  0  0  0  0  0  0  0  0
   -6.6503    1.0090   -1.4919 C   0  0  0  0  0  0  0  0  0  0  0  0
   -5.3449    0.9697   -1.9873 C   0  0  0  0  0  0  0  0  0  0  0  0
    5.5972   -0.5022    0.8594 C   0  0  0  0  0  0  0  0  0  0  0  0
    7.4125    1.8230   -0.1725 H   0  0  0  0  0  0  0  0  0  0  0  0
    7.9132    0.7297    1.1751 H   0  0  0  0  0  0  0  0  0  0  0  0
    8.5090    0.4191   -0.4908 H   0  0  0  0  0  0  0  0  0  0  0  0
    4.7336   -1.4656   -2.7982 H   0  0  0  0  0  0  0  0  0  0  0  0
    3.2729   -2.2127   -0.9568 H   0  0  0  0  0  0  0  0  0  0  0  0
    4.0310   -1.5955    2.7006 H   0  0  0  0  0  0  0  0  0  0  0  0
    3.3026   -2.7859    1.5844 H   0  0  0  0  0  0  0  0  0  0  0  0
    1.4290   -1.4214    1.4012 H   0  0  0  0  0  0  0  0  0  0  0  0
    0.3263    0.0812    0.1326 H   0  0  0  0  0  0  0  0  0  0  0  0
   -0.2470    4.1989    2.7457 H   0  0  0  0  0  0  0  0  0  0  0  0
   -1.6546   -0.6273   -0.5842 H   0  0  0  0  0  0  0  0  0  0  0  0
   -2.8518   -1.1211   -2.5295 H   0  0  0  0  0  0  0  0  0  0  0  0
   -2.9079    0.6125   -2.9582 H   0  0  0  0  0  0  0  0  0  0  0  0
   -4.2679   -1.8718   -0.4511 H   0  0  0  0  0  0  0  0  0  0  0  0
   -6.0623   -2.9894    0.6819 H   0  0  0  0  0  0  0  0  0  0  0  0
   -7.7517   -2.4402    0.4149 H   0  0  0  0  0  0  0  0  0  0  0  0
   -6.7553   -1.6879    1.7247 H   0  0  0  0  0  0  0  0  0  0  0  0
   -7.3090    1.8198   -1.7754 H   0  0  0  0  0  0  0  0  0  0  0  0
   -5.0076    1.7556   -2.6516 H   0  0  0  0  0  0  0  0  0  0  0  0
    5.8265   -0.2179    1.8796 H   0  0  0  0  0  0  0  0  0  0  0  0
  1  2  1  0
  2  3  2  0
  3  4  1  0
  3  5  1  0
  5  6  2  0
  6  7  1  0
  7  8  1  0
  8  9  1  0
  9 10  1  0
 10 11  2  0
 10 12  1  0
 12 13  2  0
 13 14  1  0
 14 15  2  0
 15 16  1  0
 16 17  2  0
 14 18  1  0
 18 19  2  0
 18 20  1  0
 20 21  1  0
 21 22  1  0
 22 23  2  0
 23 24  1  0
 24 25  1  0
 24 26  2  0
 26 27  1  0
 26 28  1  0
 28 29  2  0
  7 30  2  0
 30  2  1  0
 17 12  1  0
 29 22  1  0
  1 31  1  0
  1 32  1  0
  1 33  1  0
  5 34  1  0
  6 35  1  0
  8 36  1  0
  8 37  1  0
  9 38  1  0
 13 39  1  0
 16 40  1  0
 20 41  1  0
 21 42  1  0
 21 43  1  0
 23 44  1  0
 25 45  1  0
 25 46  1  0
 25 47  1  0
 28 48  1  0
 29 49  1  0
 30 50  1  0
M  END
$$$$
