
     RDKit          3D

 14 13  0  0  0  0  0  0  0  0999 V2000
    1.5175   -0.9418    0.5719 O   0  0  0  0  0  0  0  0  0  0  0  0
    1.2141    0.0283   -0.3928 C   0  0  0  0  0  0  0  0  0  0  0  0
   -0.1006    0.7409   -0.0498 C   0  0  0  0  0  0  0  0  0  0  0  0
   -0.0348    1.2468    1.2587 O   0  0  0  0  0  0  0  0  0  0  0  0
   -1.3216   -0.1819   -0.2086 C   0  0  0  0  0  0  0  0  0  0  0  0
   -1.3220   -1.1920    0.7660 O   0  0  0  0  0  0  0  0  0  0  0  0
    2.3670   -1.3639    0.2801 H   0  0  0  0  0  0  0  0  0  0  0  0
    2.0320    0.7825   -0.4259 H   0  0  0  0  0  0  0  0  0  0  0  0
    1.1362   -0.4443   -1.3979 H   0  0  0  0  0  0  0  0  0  0  0  0
   -0.2138    1.5857   -0.7690 H   0  0  0  0  0  0  0  0  0  0  0  0
   -0.7546    1.9259    1.3403 H   0  0  0  0  0  0  0  0  0  0  0  0
   -1.3521   -0.6100   -1.2381 H   0  0  0  0  0  0  0  0  0  0  0  0
   -2.2448    0.4227   -0.0828 H   0  0  0  0  0  0  0  0  0  0  0  0
   -0.9226   -1.9988    0.3478 H   0  0  0  0  0  0  0  0  0  0  0  0
  1  2  1  0
  2  3  1  0
  3  4  1  0
  3  5  1  0
  5  6  1  0
  1  7  1  0
  2  8  1  0
  2  9  1  0
  3 10  1  0
  4 11  1  0
  5 12  1  0
  5 13  1  0
  6 14  1  0
M  END
$$$$
