
     RDKit          3D

 40 40  0  0  0  0  0  0  0  0999 V2000
   -1.0980   -0.7295    1.3219 C   0  0  1  0  0  0  0  0  0  0  0  0
   -0.2101   -1.6730    0.7416 O   0  0  0  0  0  0  0  0  0  0  0  0
    0.6182   -1.0672   -0.2358 C   0  0  0  0  0  0  0  0  0  0  0  0
    1.9550   -0.6637    0.3809 C   0  0  0  0  0  0  0  0  0  0  0  0
    3.0769    0.2601   -0.9513 As  0  0  0  0  0  4  0  0  0  0  0  0
    3.3782   -0.9046   -2.5072 C   0  0  0  0  0  0  0  0  0  0  0  0
    4.8074    0.7066   -0.1323 C   0  0  0  0  0  0  0  0  0  0  0  0
    2.1930    1.9203   -1.5288 C   0  0  0  0  0  0  0  0  0  0  0  0
   -2.2957   -0.4945    0.4081 C   0  0  0  0  0  0  0  0  0  0  0  0
   -2.9313   -1.6027   -0.1868 C   0  0  0  0  0  0  0  0  0  0  0  0
   -3.9908   -1.4257   -1.0777 C   0  0  0  0  0  0  0  0  0  0  0  0
   -4.4296   -0.1420   -1.3957 C   0  0  0  0  0  0  0  0  0  0  0  0
   -3.8149    0.9692   -0.8185 C   0  0  0  0  0  0  0  0  0  0  0  0
   -2.7573    0.8109    0.0913 C   0  0  0  0  0  0  0  0  0  0  0  0
   -2.1653    1.9842    0.6698 N   0  0  0  0  0  4  0  0  0  0  0  0
   -1.7784    3.0400   -0.1270 O   0  0  0  0  0  0  0  0  0  0  0  0
   -2.1215    2.1148    1.9101 O   0  0  0  0  0  0  0  0  0  0  0  0
   -1.5504   -1.2555    2.6920 C   0  0  0  0  0  0  0  0  0  0  0  0
   -2.1227   -2.5097    2.5716 F   0  0  0  0  0  0  0  0  0  0  0  0
   -2.4715   -0.3932    3.2597 F   0  0  0  0  0  0  0  0  0  0  0  0
   -0.4552   -1.3486    3.5321 F   0  0  0  0  0  0  0  0  0  0  0  0
   -0.5610    0.2244    1.5227 H   0  0  0  0  0  0  0  0  0  0  0  0
    0.8108   -1.8167   -1.0317 H   0  0  0  0  0  0  0  0  0  0  0  0
    0.1419   -0.1918   -0.7355 H   0  0  0  0  0  0  0  0  0  0  0  0
    2.4910   -1.5668    0.7415 H   0  0  0  0  0  0  0  0  0  0  0  0
    1.7945    0.0233    1.2375 H   0  0  0  0  0  0  0  0  0  0  0  0
    4.0440   -0.3892   -3.2293 H   0  0  0  0  0  0  0  0  0  0  0  0
    3.8533   -1.8497   -2.1733 H   0  0  0  0  0  0  0  0  0  0  0  0
    2.4076   -1.1290   -2.9949 H   0  0  0  0  0  0  0  0  0  0  0  0
    5.4430    1.2301   -0.8755 H   0  0  0  0  0  0  0  0  0  0  0  0
    4.6409    1.3663    0.7438 H   0  0  0  0  0  0  0  0  0  0  0  0
    5.3112   -0.2257    0.1958 H   0  0  0  0  0  0  0  0  0  0  0  0
    2.8559    2.4646   -2.2322 H   0  0  0  0  0  0  0  0  0  0  0  0
    1.9894    2.5563   -0.6431 H   0  0  0  0  0  0  0  0  0  0  0  0
    1.2377    1.6761   -2.0366 H   0  0  0  0  0  0  0  0  0  0  0  0
   -2.5940   -2.6094    0.0255 H   0  0  0  0  0  0  0  0  0  0  0  0
   -4.4670   -2.2865   -1.5292 H   0  0  0  0  0  0  0  0  0  0  0  0
   -5.2487   -0.0073   -2.0903 H   0  0  0  0  0  0  0  0  0  0  0  0
   -4.1738    1.9598   -1.0683 H   0  0  0  0  0  0  0  0  0  0  0  0
   -1.8126    2.9749   -1.1377 H   0  0  0  0  0  0  0  0  0  0  0  0
  1  2  1  0
  2  3  1  0
  3  4  1  0
  4  5  1  0
  5  6  1  0
  5  7  1  0
  5  8  1  0
  1  9  1  0
  9 10  2  0
 10 11  1  0
 11 12  2  0
 12 13  1  0
 13 14  2  0
 14 15  1  0
 15 16  1  0
 15 17  2  0
  1 18  1  0
 18 19  1  0
 18 20  1  0
 18 21  1  0
 14  9  1  0
  1 22  1  1
  3 23  1  0
  3 24  1  0
  4 25  1  0
  4 26  1  0
  6 27  1  0
  6 28  1  0
  6 29  1  0
  7 30  1  0
  7 31  1  0
  7 32  1  0
  8 33  1  0
  8 34  1  0
  8 35  1  0
 10 36  1  0
 11 37  1  0
 12 38  1  0
 13 39  1  0
 16 40  1  0
M  CHG  2   5   1  15   1
M  END
$$$$
