
     RDKit          3D

 42 44  0  0  0  0  0  0  0  0999 V2000
    5.1198   -2.6670    0.6156 C   0  0  0  0  0  0  0  0  0  0  0  0
    4.5588   -1.4235    0.2084 O   0  0  0  0  0  0  0  0  0  0  0  0
    3.2110   -1.2371   -0.1324 C   0  0  0  0  0  0  0  0  0  0  0  0
    2.7948    0.0508   -0.5150 C   0  0  0  0  0  0  0  0  0  0  0  0
    1.4563    0.2435   -0.8608 C   0  0  0  0  0  0  0  0  0  0  0  0
    0.5422   -0.7797   -0.8216 C   0  0  0  0  0  0  0  0  0  0  0  0
    0.9224   -2.0714   -0.4405 C   0  0  0  0  0  0  0  0  0  0  0  0
    2.2667   -2.2973   -0.0993 C   0  0  0  0  0  0  0  0  0  0  0  0
   -0.6921   -0.3318   -1.1493 N   0  0  0  0  0  0  0  0  0  0  0  0
   -1.9490   -1.0916   -1.1123 C   0  0  0  0  0  0  0  0  0  0  0  0
   -2.6942   -0.8148    0.1669 C   0  0  0  0  0  0  0  0  0  0  0  0
   -2.1956   -1.2883    1.3922 C   0  0  0  0  0  0  0  0  0  0  0  0
   -2.8744   -1.0139    2.5833 C   0  0  0  0  0  0  0  0  0  0  0  0
   -4.0543   -0.2657    2.5608 C   0  0  0  0  0  0  0  0  0  0  0  0
   -4.5579    0.2084    1.3467 C   0  0  0  0  0  0  0  0  0  0  0  0
   -3.8824   -0.0641    0.1532 C   0  0  0  0  0  0  0  0  0  0  0  0
   -0.5532    0.9995   -1.4018 C   0  0  0  0  0  0  0  0  0  0  0  0
   -1.7005    1.9347   -1.6636 C   0  0  0  0  0  0  0  0  0  0  0  0
    0.7796    1.3891   -1.2356 C   0  0  0  0  0  0  0  0  0  0  0  0
    1.3401    2.7828   -1.2858 C   0  0  0  0  0  0  0  0  0  0  0  0
    1.1328    3.4645    0.0274 C   0  0  0  0  0  0  0  0  0  0  0  0
    2.0250    3.2411    1.0713 O   0  0  0  0  0  0  0  0  0  0  0  0
    0.1313    4.2089    0.2026 O   0  0  0  0  0  0  0  0  0  0  0  0
    5.0074   -3.4197   -0.1932 H   0  0  0  0  0  0  0  0  0  0  0  0
    4.6238   -3.0245    1.5426 H   0  0  0  0  0  0  0  0  0  0  0  0
    6.2005   -2.5268    0.8225 H   0  0  0  0  0  0  0  0  0  0  0  0
    3.5011    0.8703   -0.5339 H   0  0  0  0  0  0  0  0  0  0  0  0
    0.2151   -2.8871   -0.3968 H   0  0  0  0  0  0  0  0  0  0  0  0
    2.5621   -3.2950    0.1949 H   0  0  0  0  0  0  0  0  0  0  0  0
   -1.7563   -2.1803   -1.1973 H   0  0  0  0  0  0  0  0  0  0  0  0
   -2.5679   -0.8344   -1.9978 H   0  0  0  0  0  0  0  0  0  0  0  0
   -1.2827   -1.8680    1.4269 H   0  0  0  0  0  0  0  0  0  0  0  0
   -2.4850   -1.3807    3.5242 H   0  0  0  0  0  0  0  0  0  0  0  0
   -4.5782   -0.0535    3.4838 H   0  0  0  0  0  0  0  0  0  0  0  0
   -5.4716    0.7884    1.3303 H   0  0  0  0  0  0  0  0  0  0  0  0
   -4.2848    0.3130   -0.7786 H   0  0  0  0  0  0  0  0  0  0  0  0
   -2.4656    1.4470   -2.2997 H   0  0  0  0  0  0  0  0  0  0  0  0
   -1.3619    2.8444   -2.1976 H   0  0  0  0  0  0  0  0  0  0  0  0
   -2.1591    2.2340   -0.6987 H   0  0  0  0  0  0  0  0  0  0  0  0
    2.4256    2.7504   -1.5148 H   0  0  0  0  0  0  0  0  0  0  0  0
    0.8609    3.3643   -2.1006 H   0  0  0  0  0  0  0  0  0  0  0  0
    1.8896    3.6812    1.9735 H   0  0  0  0  0  0  0  0  0  0  0  0
  1  2  1  0
  2  3  1  0
  3  4  2  0
  4  5  1  0
  5  6  2  0
  6  7  1  0
  7  8  2  0
  6  9  1  0
  9 10  1  0
 10 11  1  0
 11 12  2  0
 12 13  1  0
 13 14  2  0
 14 15  1  0
 15 16  2  0
  9 17  1  0
 17 18  1  0
 17 19  2  0
 19 20  1  0
 20 21  1  0
 21 22  1  0
 21 23  2  0
  8  3  1  0
 16 11  1  0
 19  5  1  0
  1 24  1  0
  1 25  1  0
  1 26  1  0
  4 27  1  0
  7 28  1  0
  8 29  1  0
 10 30  1  0
 10 31  1  0
 12 32  1  0
 13 33  1  0
 14 34  1  0
 15 35  1  0
 16 36  1  0
 18 37  1  0
 18 38  1  0
 18 39  1  0
 20 40  1  0
 20 41  1  0
 22 42  1  0
M  END
$$$$
