
     RDKit          3D

 36 38  0  0  0  0  0  0  0  0999 V2000
    5.3935    2.1020    0.7560 N   0  0  0  0  0  0  0  0  0  0  0  0
    5.6269    0.3918    0.8747 S   0  0  0  0  0  6  0  0  0  0  0  0
    6.8567    0.1264    1.6956 O   0  0  0  0  0  0  0  0  0  0  0  0
    5.8198   -0.1962   -0.4950 O   0  0  0  0  0  0  0  0  0  0  0  0
    4.2826   -0.3352    1.6474 O   0  0  0  0  0  0  0  0  0  0  0  0
    2.9759   -0.3723    1.1394 C   0  0  0  0  0  0  0  0  0  0  0  0
    2.6432    0.0739   -0.1495 C   0  0  0  0  0  0  0  0  0  0  0  0
    1.3242    0.0063   -0.6074 C   0  0  0  0  0  0  0  0  0  0  0  0
    0.3018   -0.5279    0.2091 C   0  0  0  0  0  0  0  0  0  0  0  0
   -1.0542   -0.6546   -0.2027 C   0  0  0  0  0  0  0  0  0  0  0  0
   -2.0152   -1.0768    0.7499 C   0  0  0  0  0  0  0  0  0  0  0  0
   -3.4997   -1.0692    0.4235 C   0  0  0  0  0  0  0  0  0  0  0  0
   -4.0065    0.3579    0.1539 C   0  0  0  0  0  0  0  0  0  0  0  0
   -3.7722    0.8181   -1.2932 C   0  0  0  0  0  0  0  0  0  0  0  0
   -2.2894    0.9944   -1.6538 C   0  0  0  0  0  0  0  0  0  0  0  0
   -1.5153   -0.3297   -1.6149 C   0  0  0  0  0  0  0  0  0  0  0  0
   -1.5709   -1.4534    2.0336 C   0  0  0  0  0  0  0  0  0  0  0  0
   -2.3859   -1.8584    2.9050 O   0  0  0  0  0  0  0  0  0  0  0  0
   -0.2871   -1.3856    2.3511 O   0  0  0  0  0  0  0  0  0  0  0  0
    0.6426   -0.9418    1.5183 C   0  0  0  0  0  0  0  0  0  0  0  0
    1.9673   -0.8778    1.9619 C   0  0  0  0  0  0  0  0  0  0  0  0
    5.1053    2.4349    1.7032 H   0  0  0  0  0  0  0  0  0  0  0  0
    4.5838    2.2701    0.1196 H   0  0  0  0  0  0  0  0  0  0  0  0
    3.3917    0.4752   -0.8149 H   0  0  0  0  0  0  0  0  0  0  0  0
    1.1346    0.4051   -1.5904 H   0  0  0  0  0  0  0  0  0  0  0  0
   -3.7104   -1.7366   -0.4388 H   0  0  0  0  0  0  0  0  0  0  0  0
   -4.0937   -1.4851    1.2645 H   0  0  0  0  0  0  0  0  0  0  0  0
   -5.1029    0.3773    0.3379 H   0  0  0  0  0  0  0  0  0  0  0  0
   -3.5454    1.0781    0.8656 H   0  0  0  0  0  0  0  0  0  0  0  0
   -4.2517    0.1049   -1.9991 H   0  0  0  0  0  0  0  0  0  0  0  0
   -4.2783    1.7983   -1.4301 H   0  0  0  0  0  0  0  0  0  0  0  0
   -2.2383    1.3998   -2.6878 H   0  0  0  0  0  0  0  0  0  0  0  0
   -1.8158    1.7461   -0.9840 H   0  0  0  0  0  0  0  0  0  0  0  0
   -2.1455   -1.1570   -2.0049 H   0  0  0  0  0  0  0  0  0  0  0  0
   -0.6846   -0.2921   -2.3410 H   0  0  0  0  0  0  0  0  0  0  0  0
    2.2130   -1.2110    2.9631 H   0  0  0  0  0  0  0  0  0  0  0  0
  1  2  1  0
  2  3  2  0
  2  4  2  0
  2  5  1  0
  5  6  1  0
  6  7  2  0
  7  8  1  0
  8  9  2  0
  9 10  1  0
 10 11  2  0
 11 12  1  0
 12 13  1  0
 13 14  1  0
 14 15  1  0
 15 16  1  0
 11 17  1  0
 17 18  2  0
 17 19  1  0
 19 20  1  0
 20 21  2  0
 21  6  1  0
 20  9  1  0
 16 10  1  0
  1 22  1  0
  1 23  1  0
  7 24  1  0
  8 25  1  0
 12 26  1  0
 12 27  1  0
 13 28  1  0
 13 29  1  0
 14 30  1  0
 14 31  1  0
 15 32  1  0
 15 33  1  0
 16 34  1  0
 16 35  1  0
 21 36  1  0
M  END
$$$$
