
     RDKit          3D

 26 27  0  0  0  0  0  0  0  0999 V2000
    4.7428   -0.1273   -1.1055 N   0  0  0  0  0  0  0  0  0  0  0  0
    3.4034   -0.0307   -0.6208 C   0  0  0  0  0  0  0  0  0  0  0  0
    2.3987   -0.6587   -1.2813 N   0  0  0  0  0  0  0  0  0  0  0  0
    1.1120   -0.5885   -0.8504 C   0  0  0  0  0  0  0  0  0  0  0  0
    0.2205   -1.2042   -1.4949 O   0  0  0  0  0  0  0  0  0  0  0  0
    0.7963    0.1385    0.2736 N   0  0  0  0  0  0  0  0  0  0  0  0
    1.7952    0.7655    0.9676 C   0  0  0  0  0  0  0  0  0  0  0  0
    3.1165    0.6981    0.5311 C   0  0  0  0  0  0  0  0  0  0  0  0
   -0.5875    0.2214    0.7846 C   0  0  2  0  0  0  0  0  0  0  0  0
   -0.9755   -1.0614    1.5004 C   0  0  0  0  0  0  0  0  0  0  0  0
   -2.7708   -1.1414    1.4479 S   0  0  0  0  0  0  0  0  0  0  0  0
   -2.7870    0.2133    0.2275 C   0  0  2  0  0  0  0  0  0  0  0  0
   -3.7201   -0.1470   -0.9281 C   0  0  0  0  0  0  0  0  0  0  0  0
   -3.7605    0.8921   -1.8685 O   0  0  0  0  0  0  0  0  0  0  0  0
   -1.4898    0.4496   -0.2690 O   0  0  0  0  0  0  0  0  0  0  0  0
    5.5295    0.3475   -0.6088 H   0  0  0  0  0  0  0  0  0  0  0  0
    4.9514   -0.6774   -1.9681 H   0  0  0  0  0  0  0  0  0  0  0  0
    1.5767    1.3258    1.8690 H   0  0  0  0  0  0  0  0  0  0  0  0
    3.9005    1.2020    1.0824 H   0  0  0  0  0  0  0  0  0  0  0  0
   -0.6784    1.0708    1.5040 H   0  0  0  0  0  0  0  0  0  0  0  0
   -0.6191   -1.0510    2.5521 H   0  0  0  0  0  0  0  0  0  0  0  0
   -0.5695   -1.9548    0.9808 H   0  0  0  0  0  0  0  0  0  0  0  0
   -3.1643    1.1338    0.7261 H   0  0  0  0  0  0  0  0  0  0  0  0
   -3.3481   -1.0655   -1.4304 H   0  0  0  0  0  0  0  0  0  0  0  0
   -4.7442   -0.3572   -0.5432 H   0  0  0  0  0  0  0  0  0  0  0  0
   -4.3286    1.6067   -1.4781 H   0  0  0  0  0  0  0  0  0  0  0  0
  1  2  1  0
  2  3  2  0
  3  4  1  0
  4  5  2  0
  4  6  1  0
  6  7  1  0
  7  8  2  0
  6  9  1  0
  9 10  1  0
 10 11  1  0
 11 12  1  0
 12 13  1  0
 13 14  1  0
 12 15  1  0
  8  2  1  0
 15  9  1  0
  1 16  1  0
  1 17  1  0
  7 18  1  0
  8 19  1  0
  9 20  1  1
 10 21  1  0
 10 22  1  0
 12 23  1  1
 13 24  1  0
 13 25  1  0
 14 26  1  0
M  END
$$$$
