
     RDKit          3D

 61 64  0  0  0  0  0  0  0  0999 V2000
    0.1981   -1.5769   -0.2677 C   0  0  2  0  0  0  0  0  0  0  0  0
    0.6592   -3.0263   -0.1509 C   0  0  0  0  0  0  0  0  0  0  0  0
    2.1895   -2.9370    0.0046 C   0  0  0  0  0  0  0  0  0  0  0  0
    2.5526   -1.4273    0.1288 C   0  0  2  0  0  0  0  0  0  0  0  0
    2.8883   -0.9936   -1.1752 O   0  0  0  0  0  0  0  0  0  0  0  0
    3.7443   -1.2206    1.0851 C   0  0  0  0  0  0  0  0  0  0  0  0
    3.8051   -1.8551    2.1292 O   0  0  0  0  0  0  0  0  0  0  0  0
    4.8568   -0.2494    0.7898 C   0  0  0  0  0  0  0  0  0  0  0  0
    4.3482    1.0611    0.8537 O   0  0  0  0  0  0  0  0  0  0  0  0
    5.5984    2.1522    0.4609 P   0  0  0  0  0  5  0  0  0  0  0  0
    6.1836    1.8416   -1.0990 O   0  0  0  0  0  0  0  0  0  0  0  0
    4.9748    3.7240    0.5066 O   0  0  0  0  0  0  0  0  0  0  0  0
    6.7230    2.0398    1.4676 O   0  0  0  0  0  0  0  0  0  0  0  0
    1.1967   -0.7868    0.6047 C   0  0  2  0  0  0  0  0  0  0  0  0
    1.0098   -1.0420    2.1413 C   0  0  0  0  0  0  0  0  0  0  0  0
    1.0020    0.7308    0.3120 C   0  0  0  0  0  0  0  0  0  0  0  0
   -0.4700    1.2095    0.4927 C   0  0  2  0  0  0  0  0  0  0  0  0
   -0.8134    1.2949    1.8494 O   0  0  0  0  0  0  0  0  0  0  0  0
   -1.4743    0.3013   -0.2884 C   0  0  1  0  0  0  0  0  0  0  0  0
   -1.2794   -1.2192    0.0317 C   0  0  1  0  0  0  0  0  0  0  0  0
   -2.3007   -2.1222   -0.7241 C   0  0  0  0  0  0  0  0  0  0  0  0
   -3.1138   -1.4056   -1.8094 C   0  0  0  0  0  0  0  0  0  0  0  0
   -3.7195   -0.1081   -1.3168 C   0  0  0  0  0  0  0  0  0  0  0  0
   -4.8282    0.3510   -1.9232 C   0  0  0  0  0  0  0  0  0  0  0  0
   -5.3468    1.7041   -1.6713 C   0  0  0  0  0  0  0  0  0  0  0  0
   -6.4434    2.0522   -2.1835 O   0  0  0  0  0  0  0  0  0  0  0  0
   -4.5953    2.6720   -0.8078 C   0  0  0  0  0  0  0  0  0  0  0  0
   -3.1338    2.2382   -0.6146 C   0  0  0  0  0  0  0  0  0  0  0  0
   -2.9903    0.7270   -0.2574 C   0  0  2  0  0  0  0  0  0  0  0  0
   -3.6532    0.4594    1.1203 C   0  0  0  0  0  0  0  0  0  0  0  0
    0.3651   -1.3038   -1.3380 H   0  0  0  0  0  0  0  0  0  0  0  0
    0.1997   -3.5114    0.7380 H   0  0  0  0  0  0  0  0  0  0  0  0
    0.3990   -3.6101   -1.0602 H   0  0  0  0  0  0  0  0  0  0  0  0
    2.4896   -3.5246    0.8989 H   0  0  0  0  0  0  0  0  0  0  0  0
    2.6962   -3.3963   -0.8733 H   0  0  0  0  0  0  0  0  0  0  0  0
    3.1477   -0.0390   -1.1471 H   0  0  0  0  0  0  0  0  0  0  0  0
    5.6667   -0.3867    1.5428 H   0  0  0  0  0  0  0  0  0  0  0  0
    5.2704   -0.4831   -0.2161 H   0  0  0  0  0  0  0  0  0  0  0  0
    6.9231    1.1942   -0.9761 H   0  0  0  0  0  0  0  0  0  0  0  0
    5.7187    4.3002    0.1974 H   0  0  0  0  0  0  0  0  0  0  0  0
    1.2090   -2.0974    2.4166 H   0  0  0  0  0  0  0  0  0  0  0  0
    1.7066   -0.4004    2.7211 H   0  0  0  0  0  0  0  0  0  0  0  0
    0.0019   -0.8173    2.5237 H   0  0  0  0  0  0  0  0  0  0  0  0
    1.2710    0.9580   -0.7400 H   0  0  0  0  0  0  0  0  0  0  0  0
    1.6764    1.3353    0.9556 H   0  0  0  0  0  0  0  0  0  0  0  0
   -0.5146    2.2312    0.0510 H   0  0  0  0  0  0  0  0  0  0  0  0
   -0.3190    2.0694    2.2252 H   0  0  0  0  0  0  0  0  0  0  0  0
   -1.1650    0.4363   -1.3525 H   0  0  0  0  0  0  0  0  0  0  0  0
   -1.4670   -1.3940    1.1064 H   0  0  0  0  0  0  0  0  0  0  0  0
   -1.8088   -2.9985   -1.1914 H   0  0  0  0  0  0  0  0  0  0  0  0
   -3.0210   -2.5408    0.0134 H   0  0  0  0  0  0  0  0  0  0  0  0
   -3.9113   -2.0998   -2.1563 H   0  0  0  0  0  0  0  0  0  0  0  0
   -2.4570   -1.1876   -2.6790 H   0  0  0  0  0  0  0  0  0  0  0  0
   -5.3274   -0.2536   -2.6717 H   0  0  0  0  0  0  0  0  0  0  0  0
   -5.1045    2.7551    0.1755 H   0  0  0  0  0  0  0  0  0  0  0  0
   -4.6133    3.6779   -1.2802 H   0  0  0  0  0  0  0  0  0  0  0  0
   -2.5776    2.4511   -1.5549 H   0  0  0  0  0  0  0  0  0  0  0  0
   -2.6976    2.8726    0.1866 H   0  0  0  0  0  0  0  0  0  0  0  0
   -4.7499    0.6230    1.0697 H   0  0  0  0  0  0  0  0  0  0  0  0
   -3.2563    1.1381    1.9011 H   0  0  0  0  0  0  0  0  0  0  0  0
   -3.5191   -0.5870    1.4550 H   0  0  0  0  0  0  0  0  0  0  0  0
  1  2  1  0
  2  3  1  0
  3  4  1  0
  4  5  1  6
  4  6  1  0
  6  7  2  0
  6  8  1  0
  8  9  1  0
  9 10  1  0
 10 11  1  0
 10 12  1  0
 10 13  2  0
  4 14  1  0
 14 15  1  1
 14 16  1  0
 16 17  1  0
 17 18  1  0
 17 19  1  0
 19 20  1  0
 20 21  1  0
 21 22  1  0
 22 23  1  0
 23 24  2  0
 24 25  1  0
 25 26  2  0
 25 27  1  0
 27 28  1  0
 28 29  1  0
 29 30  1  1
 14  1  1  0
 29 19  1  0
 20  1  1  0
 29 23  1  0
  1 31  1  6
  2 32  1  0
  2 33  1  0
  3 34  1  0
  3 35  1  0
  5 36  1  0
  8 37  1  0
  8 38  1  0
 11 39  1  0
 12 40  1  0
 15 41  1  0
 15 42  1  0
 15 43  1  0
 16 44  1  0
 16 45  1  0
 17 46  1  6
 18 47  1  0
 19 48  1  6
 20 49  1  1
 21 50  1  0
 21 51  1  0
 22 52  1  0
 22 53  1  0
 24 54  1  0
 27 55  1  0
 27 56  1  0
 28 57  1  0
 28 58  1  0
 30 59  1  0
 30 60  1  0
 30 61  1  0
M  END
$$$$
