
     RDKit          3D

 17 17  0  0  0  0  0  0  0  0999 V2000
    3.1557   -0.0288    0.1380 O   0  0  0  0  0  0  0  0  0  0  0  0
    1.9967   -0.7594   -0.1103 C   0  0  0  0  0  0  0  0  0  0  0  0
    2.0880   -1.9818   -0.4021 O   0  0  0  0  0  0  0  0  0  0  0  0
    0.6819   -0.0810   -0.0950 C   0  0  0  0  0  0  0  0  0  0  0  0
    0.6215    1.2582   -0.5186 C   0  0  0  0  0  0  0  0  0  0  0  0
   -0.6009    1.9255   -0.5985 C   0  0  0  0  0  0  0  0  0  0  0  0
   -1.7806    1.2676   -0.2564 C   0  0  0  0  0  0  0  0  0  0  0  0
   -1.7458   -0.0553    0.1914 C   0  0  0  0  0  0  0  0  0  0  0  0
   -2.9450   -0.6763    0.5415 O   0  0  0  0  0  0  0  0  0  0  0  0
   -0.5163   -0.7349    0.2963 C   0  0  0  0  0  0  0  0  0  0  0  0
   -0.5184   -2.0304    0.8210 O   0  0  0  0  0  0  0  0  0  0  0  0
    4.0662   -0.4722    0.1099 H   0  0  0  0  0  0  0  0  0  0  0  0
    1.5210    1.7832   -0.8167 H   0  0  0  0  0  0  0  0  0  0  0  0
   -0.6346    2.9525   -0.9388 H   0  0  0  0  0  0  0  0  0  0  0  0
   -2.7260    1.7900   -0.3303 H   0  0  0  0  0  0  0  0  0  0  0  0
   -2.9825   -1.6329    0.8722 H   0  0  0  0  0  0  0  0  0  0  0  0
    0.3193   -2.5241    1.0961 H   0  0  0  0  0  0  0  0  0  0  0  0
  1  2  1  0
  2  3  2  0
  2  4  1  0
  4  5  2  0
  5  6  1  0
  6  7  2  0
  7  8  1  0
  8  9  1  0
  8 10  2  0
 10 11  1  0
 10  4  1  0
  1 12  1  0
  5 13  1  0
  6 14  1  0
  7 15  1  0
  9 16  1  0
 11 17  1  0
M  END
$$$$
