
     RDKit          3D

 59 62  0  0  0  0  0  0  0  0999 V2000
    7.3353    1.5827    3.6853 Cl  0  0  0  0  0  0  0  0  0  0  0  0
    6.4678    1.2242    2.2035 C   0  0  0  0  0  0  0  0  0  0  0  0
    5.5215    2.1265    1.7106 C   0  0  0  0  0  0  0  0  0  0  0  0
    4.8305    1.8428    0.5289 C   0  0  0  0  0  0  0  0  0  0  0  0
    5.0705    0.6476   -0.1703 C   0  0  0  0  0  0  0  0  0  0  0  0
    4.3159    0.3944   -1.4213 C   0  0  0  0  0  0  0  0  0  0  0  0
    4.1516   -0.8181   -1.9592 C   0  0  0  0  0  0  0  0  0  0  0  0
    3.1914   -1.0385   -3.4184 S   0  0  0  0  0  6  0  0  0  0  0  0
    3.3918    0.1366   -4.3349 O   0  0  0  0  0  0  0  0  0  0  0  0
    3.6758   -2.2731   -4.1258 O   0  0  0  0  0  0  0  0  0  0  0  0
    1.4938   -1.2115   -3.0459 N   0  0  0  0  0  0  0  0  0  0  0  0
    1.0081   -0.0107   -2.3476 C   0  0  0  0  0  0  0  0  0  0  0  0
   -0.5130   -0.0807   -2.2109 C   0  0  0  0  0  0  0  0  0  0  0  0
   -0.9246   -1.3351   -1.5691 N   0  0  0  0  0  0  0  0  0  0  0  0
   -2.2224   -1.4070   -0.8825 C   0  0  0  0  0  0  0  0  0  0  0  0
   -2.0489   -1.6955    0.6285 C   0  0  0  0  0  0  0  0  0  0  0  0
   -3.4305   -1.9038    1.3182 C   0  0  0  0  0  0  0  0  0  0  0  0
   -3.8018   -0.7859    2.3026 C   0  0  0  0  0  0  0  0  0  0  0  0
   -3.3795    0.5158    1.7730 N   0  0  0  0  0  0  0  0  0  0  0  0
   -1.9615    0.7266    1.4483 C   0  0  0  0  0  0  0  0  0  0  0  0
   -1.2045   -0.6075    1.3359 C   0  0  0  0  0  0  0  0  0  0  0  0
   -4.3381    1.5605    1.5120 C   0  0  0  0  0  0  0  0  0  0  0  0
   -5.5634    1.2690    0.8902 C   0  0  0  0  0  0  0  0  0  0  0  0
   -6.4696    2.3001    0.6319 C   0  0  0  0  0  0  0  0  0  0  0  0
   -6.1643    3.5790    0.9755 N   0  0  0  0  0  0  0  0  0  0  0  0
   -4.9839    3.8935    1.5712 C   0  0  0  0  0  0  0  0  0  0  0  0
   -4.0486    2.8931    1.8464 C   0  0  0  0  0  0  0  0  0  0  0  0
   -0.1440   -2.5259   -1.7902 C   0  0  0  0  0  0  0  0  0  0  0  0
   -0.6330   -3.6656   -1.5624 O   0  0  0  0  0  0  0  0  0  0  0  0
    1.2909   -2.4106   -2.2153 C   0  0  0  0  0  0  0  0  0  0  0  0
    6.0377   -0.2495    0.3276 C   0  0  0  0  0  0  0  0  0  0  0  0
    6.7271    0.0390    1.5097 C   0  0  0  0  0  0  0  0  0  0  0  0
    5.3204    3.0483    2.2415 H   0  0  0  0  0  0  0  0  0  0  0  0
    4.0996    2.5546    0.1644 H   0  0  0  0  0  0  0  0  0  0  0  0
    3.8271    1.2383   -1.8943 H   0  0  0  0  0  0  0  0  0  0  0  0
    4.5629   -1.7026   -1.4947 H   0  0  0  0  0  0  0  0  0  0  0  0
    1.2618    0.9020   -2.9297 H   0  0  0  0  0  0  0  0  0  0  0  0
    1.4656    0.0779   -1.3364 H   0  0  0  0  0  0  0  0  0  0  0  0
   -0.8566    0.7917   -1.6164 H   0  0  0  0  0  0  0  0  0  0  0  0
   -0.9774   -0.0206   -3.2188 H   0  0  0  0  0  0  0  0  0  0  0  0
   -2.8316   -2.2110   -1.3507 H   0  0  0  0  0  0  0  0  0  0  0  0
   -2.7916   -0.4614   -1.0198 H   0  0  0  0  0  0  0  0  0  0  0  0
   -1.4880   -2.6513    0.7208 H   0  0  0  0  0  0  0  0  0  0  0  0
   -4.2424   -1.9886    0.5627 H   0  0  0  0  0  0  0  0  0  0  0  0
   -3.4221   -2.8662    1.8755 H   0  0  0  0  0  0  0  0  0  0  0  0
   -3.2854   -0.9620    3.2713 H   0  0  0  0  0  0  0  0  0  0  0  0
   -4.8925   -0.8103    2.5141 H   0  0  0  0  0  0  0  0  0  0  0  0
   -1.8824    1.2676    0.4817 H   0  0  0  0  0  0  0  0  0  0  0  0
   -1.4870    1.3543    2.2322 H   0  0  0  0  0  0  0  0  0  0  0  0
   -0.2392   -0.4484    0.8091 H   0  0  0  0  0  0  0  0  0  0  0  0
   -0.9523   -0.9635    2.3590 H   0  0  0  0  0  0  0  0  0  0  0  0
   -5.8079    0.2585    0.5894 H   0  0  0  0  0  0  0  0  0  0  0  0
   -7.4147    2.0835    0.1521 H   0  0  0  0  0  0  0  0  0  0  0  0
   -4.7707    4.9215    1.8320 H   0  0  0  0  0  0  0  0  0  0  0  0
   -3.1151    3.1551    2.3267 H   0  0  0  0  0  0  0  0  0  0  0  0
    1.9234   -2.3746   -1.3009 H   0  0  0  0  0  0  0  0  0  0  0  0
    1.5662   -3.3151   -2.8001 H   0  0  0  0  0  0  0  0  0  0  0  0
    6.2840   -1.1614   -0.1979 H   0  0  0  0  0  0  0  0  0  0  0  0
    7.4679   -0.6573    1.8818 H   0  0  0  0  0  0  0  0  0  0  0  0
  1  2  1  0
  2  3  2  0
  3  4  1  0
  4  5  2  0
  5  6  1  0
  6  7  2  0
  7  8  1  0
  8  9  2  0
  8 10  2  0
  8 11  1  0
 11 12  1  0
 12 13  1  0
 13 14  1  0
 14 15  1  0
 15 16  1  0
 16 17  1  0
 17 18  1  0
 18 19  1  0
 19 20  1  0
 20 21  1  0
 19 22  1  0
 22 23  2  0
 23 24  1  0
 24 25  2  0
 25 26  1  0
 26 27  2  0
 14 28  1  0
 28 29  2  0
 28 30  1  0
  5 31  1  0
 31 32  2  0
 32  2  1  0
 30 11  1  0
 21 16  1  0
 27 22  1  0
  3 33  1  0
  4 34  1  0
  6 35  1  0
  7 36  1  0
 12 37  1  0
 12 38  1  0
 13 39  1  0
 13 40  1  0
 15 41  1  0
 15 42  1  0
 16 43  1  0
 17 44  1  0
 17 45  1  0
 18 46  1  0
 18 47  1  0
 20 48  1  0
 20 49  1  0
 21 50  1  0
 21 51  1  0
 23 52  1  0
 24 53  1  0
 26 54  1  0
 27 55  1  0
 30 56  1  0
 30 57  1  0
 31 58  1  0
 32 59  1  0
M  END
$$$$
