
     RDKit          3D

 31 32  0  0  0  0  0  0  0  0999 V2000
    3.7984    0.1234   -1.1943 N   0  0  0  0  0  0  0  0  0  0  0  0
    2.5700    0.4660   -0.4734 C   0  0  1  0  0  0  0  0  0  0  0  0
    1.3541   -0.2817   -1.0729 C   0  0  0  0  0  0  0  0  0  0  0  0
    0.0324    0.1580   -0.4659 C   0  0  0  0  0  0  0  0  0  0  0  0
   -0.4001    1.3952   -0.7749 C   0  0  0  0  0  0  0  0  0  0  0  0
   -1.6853    1.9924   -0.2987 C   0  0  0  0  0  0  0  0  0  0  0  0
   -2.8725    1.1474   -0.7602 C   0  0  0  0  0  0  0  0  0  0  0  0
   -3.2436    0.0916    0.2760 C   0  0  0  0  0  0  0  0  0  0  0  0
   -2.1258   -0.8243    0.6934 C   0  0  0  0  0  0  0  0  0  0  0  0
   -0.7505   -0.7835    0.4013 C   0  0  0  0  0  0  0  0  0  0  0  0
   -0.2692   -1.8830    1.1039 C   0  0  0  0  0  0  0  0  0  0  0  0
    0.9278   -2.2639    1.1748 O   0  0  0  0  0  0  0  0  0  0  0  0
   -1.2708   -2.5021    1.7412 N   0  0  0  0  0  0  0  0  0  0  0  0
   -2.3617   -1.8517    1.4820 O   0  0  0  0  0  0  0  0  0  0  0  0
    2.7407    0.1694    0.9906 C   0  0  0  0  0  0  0  0  0  0  0  0
    3.5190   -0.9082    1.4050 O   0  0  0  0  0  0  0  0  0  0  0  0
    2.1494    0.8795    1.8478 O   0  0  0  0  0  0  0  0  0  0  0  0
    3.7189    0.4759   -2.1760 H   0  0  0  0  0  0  0  0  0  0  0  0
    3.8951   -0.9174   -1.2473 H   0  0  0  0  0  0  0  0  0  0  0  0
    2.4112    1.5620   -0.5824 H   0  0  0  0  0  0  0  0  0  0  0  0
    1.4961   -1.3780   -0.9937 H   0  0  0  0  0  0  0  0  0  0  0  0
    1.3171   -0.0769   -2.1660 H   0  0  0  0  0  0  0  0  0  0  0  0
    0.2005    2.0161   -1.4307 H   0  0  0  0  0  0  0  0  0  0  0  0
   -1.6666    2.1093    0.8072 H   0  0  0  0  0  0  0  0  0  0  0  0
   -1.7797    3.0102   -0.7359 H   0  0  0  0  0  0  0  0  0  0  0  0
   -3.7525    1.8128   -0.8997 H   0  0  0  0  0  0  0  0  0  0  0  0
   -2.6699    0.6656   -1.7432 H   0  0  0  0  0  0  0  0  0  0  0  0
   -3.6334    0.5981    1.1853 H   0  0  0  0  0  0  0  0  0  0  0  0
   -4.0694   -0.5284   -0.1339 H   0  0  0  0  0  0  0  0  0  0  0  0
   -1.2053   -3.3498    2.3473 H   0  0  0  0  0  0  0  0  0  0  0  0
    3.6259   -1.1238    2.3890 H   0  0  0  0  0  0  0  0  0  0  0  0
  1  2  1  0
  2  3  1  0
  3  4  1  0
  4  5  2  0
  5  6  1  0
  6  7  1  0
  7  8  1  0
  8  9  1  0
  9 10  2  0
 10 11  1  0
 11 12  2  0
 11 13  1  0
 13 14  1  0
  2 15  1  0
 15 16  1  0
 15 17  2  0
 10  4  1  0
 14  9  1  0
  1 18  1  0
  1 19  1  0
  2 20  1  1
  3 21  1  0
  3 22  1  0
  5 23  1  0
  6 24  1  0
  6 25  1  0
  7 26  1  0
  7 27  1  0
  8 28  1  0
  8 29  1  0
 13 30  1  0
 16 31  1  0
M  END
$$$$
