
     RDKit          3D

 31 31  0  0  0  0  0  0  0  0999 V2000
   -2.9989    0.7085   -1.1287 C   0  0  0  0  0  0  0  0  0  0  0  0
   -2.1969    0.2419    0.0965 C   0  0  0  0  0  0  0  0  0  0  0  0
   -2.6259   -1.1811    0.4936 C   0  0  0  0  0  0  0  0  0  0  0  0
   -0.6573    0.4062   -0.1219 C   0  0  2  0  0  0  0  0  0  0  0  0
   -0.0833   -0.5634   -1.1834 C   0  0  0  0  0  0  0  0  0  0  0  0
    1.4106   -0.3053   -1.4177 C   0  0  0  0  0  0  0  0  0  0  0  0
    2.2073   -0.4381   -0.1070 C   0  0  1  0  0  0  0  0  0  0  0  0
    3.6954   -0.1671   -0.3528 C   0  0  0  0  0  0  0  0  0  0  0  0
    1.6518    0.5235    0.9597 C   0  0  0  0  0  0  0  0  0  0  0  0
    0.1497    0.2771    1.2017 C   0  0  1  0  0  0  0  0  0  0  0  0
   -0.3283    1.1632    2.1836 O   0  0  0  0  0  0  0  0  0  0  0  0
   -2.6869    1.7303   -1.4323 H   0  0  0  0  0  0  0  0  0  0  0  0
   -4.0817    0.7427   -0.8816 H   0  0  0  0  0  0  0  0  0  0  0  0
   -2.8631    0.0179   -1.9868 H   0  0  0  0  0  0  0  0  0  0  0  0
   -2.4960    0.9152    0.9296 H   0  0  0  0  0  0  0  0  0  0  0  0
   -2.4488   -1.9007   -0.3326 H   0  0  0  0  0  0  0  0  0  0  0  0
   -2.0880   -1.5230    1.4002 H   0  0  0  0  0  0  0  0  0  0  0  0
   -3.7116   -1.1928    0.7292 H   0  0  0  0  0  0  0  0  0  0  0  0
   -0.4934    1.4414   -0.5003 H   0  0  0  0  0  0  0  0  0  0  0  0
   -0.2125   -1.6178   -0.8578 H   0  0  0  0  0  0  0  0  0  0  0  0
   -0.6108   -0.4328   -2.1508 H   0  0  0  0  0  0  0  0  0  0  0  0
    1.7885   -1.0423   -2.1596 H   0  0  0  0  0  0  0  0  0  0  0  0
    1.5463    0.7124   -1.8471 H   0  0  0  0  0  0  0  0  0  0  0  0
    2.1091   -1.4823    0.2670 H   0  0  0  0  0  0  0  0  0  0  0  0
    4.2679   -0.2937    0.5908 H   0  0  0  0  0  0  0  0  0  0  0  0
    3.8499    0.8667   -0.7303 H   0  0  0  0  0  0  0  0  0  0  0  0
    4.0963   -0.8852   -1.0996 H   0  0  0  0  0  0  0  0  0  0  0  0
    1.8114    1.5765    0.6362 H   0  0  0  0  0  0  0  0  0  0  0  0
    2.1999    0.3724    1.9156 H   0  0  0  0  0  0  0  0  0  0  0  0
    0.0425   -0.7550    1.5978 H   0  0  0  0  0  0  0  0  0  0  0  0
   -0.2430    2.0849    1.8238 H   0  0  0  0  0  0  0  0  0  0  0  0
  1  2  1  0
  2  3  1  0
  2  4  1  0
  4  5  1  0
  5  6  1  0
  6  7  1  0
  7  8  1  0
  7  9  1  0
  9 10  1  0
 10 11  1  0
 10  4  1  0
  1 12  1  0
  1 13  1  0
  1 14  1  0
  2 15  1  0
  3 16  1  0
  3 17  1  0
  3 18  1  0
  4 19  1  6
  5 20  1  0
  5 21  1  0
  6 22  1  0
  6 23  1  0
  7 24  1  1
  8 25  1  0
  8 26  1  0
  8 27  1  0
  9 28  1  0
  9 29  1  0
 10 30  1  1
 11 31  1  0
M  END
$$$$
