
     RDKit          3D

 61 65  0  0  0  0  0  0  0  0999 V2000
   -2.1995   -4.5351   -1.1586 O   0  0  0  0  0  0  0  0  0  0  0  0
   -2.7297   -3.2632   -0.9551 C   0  0  0  0  0  0  0  0  0  0  0  0
   -3.0279   -2.8117    0.3372 C   0  0  0  0  0  0  0  0  0  0  0  0
   -3.5547   -1.5314    0.5294 C   0  0  0  0  0  0  0  0  0  0  0  0
   -3.7756   -0.6827   -0.5687 C   0  0  0  0  0  0  0  0  0  0  0  0
   -3.4936   -1.1488   -1.8628 C   0  0  0  0  0  0  0  0  0  0  0  0
   -2.9681   -2.4304   -2.0527 C   0  0  0  0  0  0  0  0  0  0  0  0
   -4.2983    0.6865   -0.3753 C   0  0  0  0  0  0  0  0  0  0  0  0
   -3.8962    1.6223    0.5983 C   0  0  0  0  0  0  0  0  0  0  0  0
   -2.7945    1.3981    1.5637 C   0  0  0  0  0  0  0  0  0  0  0  0
   -2.9888    1.6641    2.7807 O   0  0  0  0  0  0  0  0  0  0  0  0
   -1.4844    0.8460    1.1396 C   0  0  0  0  0  0  0  0  0  0  0  0
   -1.0208    1.0132   -0.1775 C   0  0  0  0  0  0  0  0  0  0  0  0
    0.1937    0.4510   -0.5794 C   0  0  0  0  0  0  0  0  0  0  0  0
    0.9739   -0.2799    0.3349 C   0  0  0  0  0  0  0  0  0  0  0  0
    2.1945   -0.8706   -0.0207 O   0  0  0  0  0  0  0  0  0  0  0  0
    2.7840   -0.7912   -1.3165 C   0  0  0  0  0  0  0  0  0  0  0  0
    4.1218   -1.5404   -1.3323 C   0  0  0  0  0  0  0  0  0  0  0  0
    5.2559   -0.6784   -0.9185 N   0  0  0  0  0  0  0  0  0  0  0  0
    6.5751   -1.2759   -1.2652 C   0  0  0  0  0  0  0  0  0  0  0  0
    7.3550   -1.8407   -0.0574 C   0  0  0  0  0  0  0  0  0  0  0  0
    6.4097   -2.4364    0.9853 C   0  0  0  0  0  0  0  0  0  0  0  0
    5.3904   -1.3977    1.4851 C   0  0  0  0  0  0  0  0  0  0  0  0
    5.1910   -0.2361    0.4925 C   0  0  0  0  0  0  0  0  0  0  0  0
    0.5238   -0.4277    1.6506 C   0  0  0  0  0  0  0  0  0  0  0  0
   -0.6915    0.1322    2.0536 C   0  0  0  0  0  0  0  0  0  0  0  0
   -4.6365    2.8206    0.5210 C   0  0  0  0  0  0  0  0  0  0  0  0
   -5.5823    2.8180   -0.4960 C   0  0  0  0  0  0  0  0  0  0  0  0
   -5.5323    1.3588   -1.3167 S   0  0  0  0  0  0  0  0  0  0  0  0
   -6.4051    3.9118   -0.7523 C   0  0  0  0  0  0  0  0  0  0  0  0
   -6.2627    5.0560    0.0468 C   0  0  0  0  0  0  0  0  0  0  0  0
   -7.0757    6.1620   -0.1893 O   0  0  0  0  0  0  0  0  0  0  0  0
   -5.2990    5.0811    1.0768 C   0  0  0  0  0  0  0  0  0  0  0  0
   -4.4784    3.9662    1.3149 C   0  0  0  0  0  0  0  0  0  0  0  0
   -2.0150   -5.1618   -0.3839 H   0  0  0  0  0  0  0  0  0  0  0  0
   -2.8536   -3.4520    1.1925 H   0  0  0  0  0  0  0  0  0  0  0  0
   -3.7913   -1.2054    1.5342 H   0  0  0  0  0  0  0  0  0  0  0  0
   -3.6576   -0.5127   -2.7238 H   0  0  0  0  0  0  0  0  0  0  0  0
   -2.7415   -2.7750   -3.0536 H   0  0  0  0  0  0  0  0  0  0  0  0
   -1.5984    1.5765   -0.8995 H   0  0  0  0  0  0  0  0  0  0  0  0
    0.5149    0.5891   -1.6026 H   0  0  0  0  0  0  0  0  0  0  0  0
    2.9404    0.2710   -1.6056 H   0  0  0  0  0  0  0  0  0  0  0  0
    2.0966   -1.2647   -2.0514 H   0  0  0  0  0  0  0  0  0  0  0  0
    4.0556   -2.4581   -0.7105 H   0  0  0  0  0  0  0  0  0  0  0  0
    4.2793   -1.8710   -2.3832 H   0  0  0  0  0  0  0  0  0  0  0  0
    7.1977   -0.4903   -1.7438 H   0  0  0  0  0  0  0  0  0  0  0  0
    6.4738   -2.0840   -2.0238 H   0  0  0  0  0  0  0  0  0  0  0  0
    8.0674   -2.6204   -0.4039 H   0  0  0  0  0  0  0  0  0  0  0  0
    7.9516   -1.0291    0.4146 H   0  0  0  0  0  0  0  0  0  0  0  0
    7.0016   -2.8205    1.8442 H   0  0  0  0  0  0  0  0  0  0  0  0
    5.8784   -3.3040    0.5377 H   0  0  0  0  0  0  0  0  0  0  0  0
    5.7348   -0.9776    2.4552 H   0  0  0  0  0  0  0  0  0  0  0  0
    4.4168   -1.9002    1.6726 H   0  0  0  0  0  0  0  0  0  0  0  0
    5.9880    0.5214    0.6627 H   0  0  0  0  0  0  0  0  0  0  0  0
    4.2414    0.2944    0.7060 H   0  0  0  0  0  0  0  0  0  0  0  0
    1.1174   -0.9857    2.3638 H   0  0  0  0  0  0  0  0  0  0  0  0
   -1.0222   -0.0129    3.0745 H   0  0  0  0  0  0  0  0  0  0  0  0
   -7.1337    3.8808   -1.5524 H   0  0  0  0  0  0  0  0  0  0  0  0
   -6.9980    7.0044    0.3685 H   0  0  0  0  0  0  0  0  0  0  0  0
   -5.1831    5.9665    1.6888 H   0  0  0  0  0  0  0  0  0  0  0  0
   -3.7345    4.0114    2.0983 H   0  0  0  0  0  0  0  0  0  0  0  0
  1  2  1  0
  2  3  2  0
  3  4  1  0
  4  5  2  0
  5  6  1  0
  6  7  2  0
  5  8  1  0
  8  9  2  0
  9 10  1  0
 10 11  2  0
 10 12  1  0
 12 13  2  0
 13 14  1  0
 14 15  2  0
 15 16  1  0
 16 17  1  0
 17 18  1  0
 18 19  1  0
 19 20  1  0
 20 21  1  0
 21 22  1  0
 22 23  1  0
 23 24  1  0
 15 25  1  0
 25 26  2  0
  9 27  1  0
 27 28  2  0
 28 29  1  0
 28 30  1  0
 30 31  2  0
 31 32  1  0
 31 33  1  0
 33 34  2  0
  7  2  1  0
 29  8  1  0
 26 12  1  0
 34 27  1  0
 24 19  1  0
  1 35  1  0
  3 36  1  0
  4 37  1  0
  6 38  1  0
  7 39  1  0
 13 40  1  0
 14 41  1  0
 17 42  1  0
 17 43  1  0
 18 44  1  0
 18 45  1  0
 20 46  1  0
 20 47  1  0
 21 48  1  0
 21 49  1  0
 22 50  1  0
 22 51  1  0
 23 52  1  0
 23 53  1  0
 24 54  1  0
 24 55  1  0
 25 56  1  0
 26 57  1  0
 30 58  1  0
 32 59  1  0
 33 60  1  0
 34 61  1  0
M  END
$$$$
