
     RDKit          3D

 71 73  0  0  0  0  0  0  0  0999 V2000
   -9.1756    2.3713    2.3566 C   0  0  0  0  0  0  0  0  0  0  0  0
   -7.8475    2.4942    1.6097 C   0  0  0  0  0  0  0  0  0  0  0  0
   -6.8460    1.3920    1.9888 C   0  0  0  0  0  0  0  0  0  0  0  0
   -7.2232    0.0243    1.3945 C   0  0  0  0  0  0  0  0  0  0  0  0
   -6.2490   -1.0921    1.8091 C   0  0  0  0  0  0  0  0  0  0  0  0
   -4.8320   -0.9238    1.2389 C   0  0  0  0  0  0  0  0  0  0  0  0
   -4.8659   -0.6938   -0.1591 O   0  0  0  0  0  0  0  0  0  0  0  0
   -4.7440   -1.9035   -0.8872 C   0  0  1  0  0  0  0  0  0  0  0  0
   -5.4052   -1.7271   -2.2539 C   0  0  0  0  0  0  0  0  0  0  0  0
   -3.2828   -2.2865   -1.0574 C   0  0  0  0  0  0  0  0  0  0  0  0
   -2.3189   -1.3567   -1.5155 C   0  0  0  0  0  0  0  0  0  0  0  0
   -2.7036   -0.0304   -1.7445 O   0  0  0  0  0  0  0  0  0  0  0  0
   -2.2447    1.0436   -0.9291 C   0  0  0  0  0  0  0  0  0  0  0  0
   -0.9817   -1.7746   -1.7285 C   0  0  0  0  0  0  0  0  0  0  0  0
   -0.6098   -3.0853   -1.3909 C   0  0  0  0  0  0  0  0  0  0  0  0
   -1.5545   -3.9883   -0.9080 C   0  0  0  0  0  0  0  0  0  0  0  0
   -2.8840   -3.5997   -0.7592 C   0  0  0  0  0  0  0  0  0  0  0  0
    0.0331   -0.8893   -2.3424 C   0  0  0  0  0  0  0  0  0  0  0  0
   -0.2360   -0.0169   -3.3996 C   0  0  0  0  0  0  0  0  0  0  0  0
    1.1973    0.7597   -3.8142 S   0  0  0  0  0  0  0  0  0  0  0  0
    2.0953   -0.0539   -2.6518 C   0  0  0  0  0  0  0  0  0  0  0  0
    3.4966    0.1508   -2.4322 N   0  0  0  0  0  0  0  0  0  0  0  0
    4.2727   -0.6168   -1.4957 C   0  0  0  0  0  0  0  0  0  0  0  0
    3.8038   -1.6870   -1.0199 O   0  0  0  0  0  0  0  0  0  0  0  0
    5.6359   -0.1854   -1.1012 C   0  0  0  0  0  0  0  0  0  0  0  0
    6.5614   -1.1288   -0.6249 C   0  0  0  0  0  0  0  0  0  0  0  0
    7.8488   -0.7383   -0.2427 C   0  0  0  0  0  0  0  0  0  0  0  0
    8.9648   -1.9684    0.3426 Cl  0  0  0  0  0  0  0  0  0  0  0  0
    8.2259    0.6151   -0.3162 C   0  0  0  0  0  0  0  0  0  0  0  0
    9.5861    1.0255    0.0888 C   0  0  0  0  0  0  0  0  0  0  0  0
    9.8622    1.6055    1.2746 C   0  0  0  0  0  0  0  0  0  0  0  0
    8.7702    1.8844    2.2798 C   0  0  0  0  0  0  0  0  0  0  0  0
   11.2467    2.0386    1.5844 C   0  0  0  0  0  0  0  0  0  0  0  0
   11.5129    2.7416    2.7564 O   0  0  0  0  0  0  0  0  0  0  0  0
   12.1949    1.7815    0.7932 O   0  0  0  0  0  0  0  0  0  0  0  0
    7.3033    1.5655   -0.7945 C   0  0  0  0  0  0  0  0  0  0  0  0
    7.7325    3.2670   -0.9466 Cl  0  0  0  0  0  0  0  0  0  0  0  0
    6.0183    1.1647   -1.1755 C   0  0  0  0  0  0  0  0  0  0  0  0
    1.3334   -0.9110   -1.9387 N   0  0  0  0  0  0  0  0  0  0  0  0
   -9.0032    2.3278    3.4530 H   0  0  0  0  0  0  0  0  0  0  0  0
   -9.8061    3.2580    2.1344 H   0  0  0  0  0  0  0  0  0  0  0  0
   -9.7295    1.4665    2.0326 H   0  0  0  0  0  0  0  0  0  0  0  0
   -8.0329    2.4838    0.5135 H   0  0  0  0  0  0  0  0  0  0  0  0
   -7.3981    3.4787    1.8641 H   0  0  0  0  0  0  0  0  0  0  0  0
   -5.8531    1.6968    1.5959 H   0  0  0  0  0  0  0  0  0  0  0  0
   -6.7655    1.3190    3.0955 H   0  0  0  0  0  0  0  0  0  0  0  0
   -8.2320   -0.2670    1.7547 H   0  0  0  0  0  0  0  0  0  0  0  0
   -7.2727    0.0927    0.2860 H   0  0  0  0  0  0  0  0  0  0  0  0
   -6.6617   -2.0632    1.4614 H   0  0  0  0  0  0  0  0  0  0  0  0
   -6.1908   -1.1419    2.9182 H   0  0  0  0  0  0  0  0  0  0  0  0
   -4.3472   -0.0515    1.7230 H   0  0  0  0  0  0  0  0  0  0  0  0
   -4.2065   -1.8028    1.5221 H   0  0  0  0  0  0  0  0  0  0  0  0
   -5.3045   -2.7302   -0.3885 H   0  0  0  0  0  0  0  0  0  0  0  0
   -4.9375   -0.8940   -2.8194 H   0  0  0  0  0  0  0  0  0  0  0  0
   -5.3164   -2.6624   -2.8474 H   0  0  0  0  0  0  0  0  0  0  0  0
   -6.4837   -1.4971   -2.1194 H   0  0  0  0  0  0  0  0  0  0  0  0
   -1.1431    1.1489   -0.9915 H   0  0  0  0  0  0  0  0  0  0  0  0
   -2.7130    1.9874   -1.2754 H   0  0  0  0  0  0  0  0  0  0  0  0
   -2.5333    0.8672    0.1278 H   0  0  0  0  0  0  0  0  0  0  0  0
    0.4097   -3.4226   -1.5342 H   0  0  0  0  0  0  0  0  0  0  0  0
   -1.2585   -5.0013   -0.6674 H   0  0  0  0  0  0  0  0  0  0  0  0
   -3.6034   -4.3265   -0.4029 H   0  0  0  0  0  0  0  0  0  0  0  0
   -1.1913    0.1266   -3.8863 H   0  0  0  0  0  0  0  0  0  0  0  0
    3.9727    0.8718   -3.0183 H   0  0  0  0  0  0  0  0  0  0  0  0
    6.2884   -2.1751   -0.5588 H   0  0  0  0  0  0  0  0  0  0  0  0
   10.3832    0.8145   -0.6134 H   0  0  0  0  0  0  0  0  0  0  0  0
    8.0249    1.0614    2.3010 H   0  0  0  0  0  0  0  0  0  0  0  0
    9.1833    1.9690    3.3063 H   0  0  0  0  0  0  0  0  0  0  0  0
    8.2593    2.8350    2.0219 H   0  0  0  0  0  0  0  0  0  0  0  0
   12.4535    3.0447    2.9793 H   0  0  0  0  0  0  0  0  0  0  0  0
    5.3177    1.9181   -1.5107 H   0  0  0  0  0  0  0  0  0  0  0  0
  1  2  1  0
  2  3  1  0
  3  4  1  0
  4  5  1  0
  5  6  1  0
  6  7  1  0
  7  8  1  0
  8  9  1  0
  8 10  1  0
 10 11  2  0
 11 12  1  0
 12 13  1  0
 11 14  1  0
 14 15  2  0
 15 16  1  0
 16 17  2  0
 14 18  1  0
 18 19  2  0
 19 20  1  0
 20 21  1  0
 21 22  1  0
 22 23  1  0
 23 24  2  0
 23 25  1  0
 25 26  2  0
 26 27  1  0
 27 28  1  0
 27 29  2  0
 29 30  1  0
 30 31  2  0
 31 32  1  0
 31 33  1  0
 33 34  1  0
 33 35  2  0
 29 36  1  0
 36 37  1  0
 36 38  2  0
 21 39  2  0
 17 10  1  0
 39 18  1  0
 38 25  1  0
  1 40  1  0
  1 41  1  0
  1 42  1  0
  2 43  1  0
  2 44  1  0
  3 45  1  0
  3 46  1  0
  4 47  1  0
  4 48  1  0
  5 49  1  0
  5 50  1  0
  6 51  1  0
  6 52  1  0
  8 53  1  1
  9 54  1  0
  9 55  1  0
  9 56  1  0
 13 57  1  0
 13 58  1  0
 13 59  1  0
 15 60  1  0
 16 61  1  0
 17 62  1  0
 19 63  1  0
 22 64  1  0
 26 65  1  0
 30 66  1  0
 32 67  1  0
 32 68  1  0
 32 69  1  0
 34 70  1  0
 38 71  1  0
M  END
$$$$
