
     RDKit          3D

 90 95  0  0  0  0  0  0  0  0999 V2000
    0.3153    6.5877   -1.9188 C   0  0  0  0  0  0  0  0  0  0  0  0
   -0.6902    6.1563   -2.8096 O   0  0  0  0  0  0  0  0  0  0  0  0
   -1.5303    5.2054   -2.1823 C   0  0  0  0  0  0  0  0  0  0  0  0
   -1.0746    3.7852   -2.5288 C   0  0  0  0  0  0  0  0  0  0  0  0
   -2.0050    2.7961   -1.9403 N   0  0  0  0  0  0  0  0  0  0  0  0
   -1.7135    2.4839   -0.5137 C   0  0  0  0  0  0  0  0  0  0  0  0
   -1.1217    1.0770   -0.2896 C   0  0  0  0  0  0  0  0  0  0  0  0
   -0.1649    0.7135   -1.4352 C   0  0  0  0  0  0  0  0  0  0  0  0
   -0.9298    0.6759   -2.7848 C   0  0  0  0  0  0  0  0  0  0  0  0
   -2.1725    1.5941   -2.7846 C   0  0  0  0  0  0  0  0  0  0  0  0
    0.6237   -0.5119   -1.1267 N   0  0  0  0  0  0  0  0  0  0  0  0
    0.0841   -1.8696   -1.3766 C   0  0  0  0  0  0  0  0  0  0  0  0
   -1.0740   -2.1713   -0.4666 C   0  0  0  0  0  0  0  0  0  0  0  0
   -0.8707   -2.2653    0.9178 C   0  0  0  0  0  0  0  0  0  0  0  0
   -1.9477   -2.4996    1.7758 C   0  0  0  0  0  0  0  0  0  0  0  0
   -3.2485   -2.6517    1.2632 C   0  0  0  0  0  0  0  0  0  0  0  0
   -3.4454   -2.5711   -0.1273 C   0  0  0  0  0  0  0  0  0  0  0  0
   -2.3674   -2.3343   -0.9845 C   0  0  0  0  0  0  0  0  0  0  0  0
   -4.3959   -2.8910    2.1751 C   0  0  0  0  0  0  0  0  0  0  0  0
   -5.3993   -3.8145    1.8339 C   0  0  0  0  0  0  0  0  0  0  0  0
   -6.4793   -4.0396    2.6922 C   0  0  0  0  0  0  0  0  0  0  0  0
   -6.5897   -3.3316    3.9004 C   0  0  0  0  0  0  0  0  0  0  0  0
   -5.5743   -2.4279    4.2546 C   0  0  0  0  0  0  0  0  0  0  0  0
   -4.4935   -2.2032    3.3973 C   0  0  0  0  0  0  0  0  0  0  0  0
   -7.7289   -3.6107    4.8483 C   0  0  0  0  0  0  0  0  0  0  0  0
   -8.8659   -3.9805    4.1507 F   0  0  0  0  0  0  0  0  0  0  0  0
   -7.3699   -4.6375    5.7012 F   0  0  0  0  0  0  0  0  0  0  0  0
   -8.0284   -2.4859    5.5974 F   0  0  0  0  0  0  0  0  0  0  0  0
    1.8778   -0.4009   -0.3944 C   0  0  0  0  0  0  0  0  0  0  0  0
    2.5454   -1.4412   -0.1382 O   0  0  0  0  0  0  0  0  0  0  0  0
    2.4333    0.9312    0.0722 C   0  0  0  0  0  0  0  0  0  0  0  0
    3.5927    0.7511    0.9823 N   0  0  0  0  0  0  0  0  0  0  0  0
    4.8641    1.0985    0.5635 C   0  0  0  0  0  0  0  0  0  0  0  0
    5.1985    1.9622   -0.9928 S   0  0  0  0  0  0  0  0  0  0  0  0
    5.6727    0.4802   -1.9576 C   0  0  0  0  0  0  0  0  0  0  0  0
    4.4946   -0.1113   -2.6906 C   0  0  0  0  0  0  0  0  0  0  0  0
    4.2363   -1.4956   -2.6445 C   0  0  0  0  0  0  0  0  0  0  0  0
    5.0167   -2.3229   -1.9033 F   0  0  0  0  0  0  0  0  0  0  0  0
    3.1570   -2.0343   -3.3556 C   0  0  0  0  0  0  0  0  0  0  0  0
    2.8973   -3.3636   -3.2912 F   0  0  0  0  0  0  0  0  0  0  0  0
    2.3418   -1.2049   -4.1297 C   0  0  0  0  0  0  0  0  0  0  0  0
    2.6104    0.1625   -4.2074 C   0  0  0  0  0  0  0  0  0  0  0  0
    3.6862    0.7065   -3.5018 C   0  0  0  0  0  0  0  0  0  0  0  0
    5.9693    0.8802    1.3865 C   0  0  0  0  0  0  0  0  0  0  0  0
    5.8126    0.3099    2.6396 C   0  0  0  0  0  0  0  0  0  0  0  0
    6.8314    0.1114    3.3569 O   0  0  0  0  0  0  0  0  0  0  0  0
    4.5313   -0.0254    3.0939 C   0  0  0  0  0  0  0  0  0  0  0  0
    3.4095    0.2148    2.2512 C   0  0  0  0  0  0  0  0  0  0  0  0
    2.1229   -0.1166    2.7527 C   0  0  0  0  0  0  0  0  0  0  0  0
    1.9648   -0.6762    4.0208 C   0  0  0  0  0  0  0  0  0  0  0  0
    3.0729   -0.9144    4.8265 C   0  0  0  0  0  0  0  0  0  0  0  0
    4.3486   -0.5907    4.3716 C   0  0  0  0  0  0  0  0  0  0  0  0
    1.0104    7.2565   -2.4666 H   0  0  0  0  0  0  0  0  0  0  0  0
    0.9096    5.7335   -1.5254 H   0  0  0  0  0  0  0  0  0  0  0  0
   -0.1249    7.1716   -1.0807 H   0  0  0  0  0  0  0  0  0  0  0  0
   -2.5578    5.3460   -2.5803 H   0  0  0  0  0  0  0  0  0  0  0  0
   -1.6049    5.3398   -1.0771 H   0  0  0  0  0  0  0  0  0  0  0  0
   -0.0354    3.6268   -2.1729 H   0  0  0  0  0  0  0  0  0  0  0  0
   -1.0538    3.7037   -3.6387 H   0  0  0  0  0  0  0  0  0  0  0  0
   -2.6599    2.5626    0.0623 H   0  0  0  0  0  0  0  0  0  0  0  0
   -1.0196    3.2316   -0.0684 H   0  0  0  0  0  0  0  0  0  0  0  0
   -0.6013    1.0451    0.6899 H   0  0  0  0  0  0  0  0  0  0  0  0
   -1.9555    0.3470   -0.2423 H   0  0  0  0  0  0  0  0  0  0  0  0
    0.5437    1.5561   -1.5445 H   0  0  0  0  0  0  0  0  0  0  0  0
   -1.2986   -0.3303   -3.0443 H   0  0  0  0  0  0  0  0  0  0  0  0
   -0.2426    0.9894   -3.5998 H   0  0  0  0  0  0  0  0  0  0  0  0
   -3.0462    1.0187   -2.4052 H   0  0  0  0  0  0  0  0  0  0  0  0
   -2.4321    1.8806   -3.8274 H   0  0  0  0  0  0  0  0  0  0  0  0
    0.8516   -2.6537   -1.2112 H   0  0  0  0  0  0  0  0  0  0  0  0
   -0.1766   -2.0055   -2.4435 H   0  0  0  0  0  0  0  0  0  0  0  0
    0.1221   -2.1507    1.3340 H   0  0  0  0  0  0  0  0  0  0  0  0
   -1.7603   -2.5758    2.8395 H   0  0  0  0  0  0  0  0  0  0  0  0
   -4.4371   -2.6684   -0.5506 H   0  0  0  0  0  0  0  0  0  0  0  0
   -2.5462   -2.2635   -2.0499 H   0  0  0  0  0  0  0  0  0  0  0  0
   -5.3374   -4.3806    0.9130 H   0  0  0  0  0  0  0  0  0  0  0  0
   -7.2262   -4.7721    2.4128 H   0  0  0  0  0  0  0  0  0  0  0  0
   -5.6164   -1.8929    5.1951 H   0  0  0  0  0  0  0  0  0  0  0  0
   -3.7401   -1.4809    3.6856 H   0  0  0  0  0  0  0  0  0  0  0  0
    1.6568    1.5301    0.5881 H   0  0  0  0  0  0  0  0  0  0  0  0
    2.6868    1.5221   -0.8244 H   0  0  0  0  0  0  0  0  0  0  0  0
    6.4277    0.7906   -2.7098 H   0  0  0  0  0  0  0  0  0  0  0  0
    6.1643   -0.2624   -1.2945 H   0  0  0  0  0  0  0  0  0  0  0  0
    1.5047   -1.6221   -4.6743 H   0  0  0  0  0  0  0  0  0  0  0  0
    1.9877    0.8016   -4.8197 H   0  0  0  0  0  0  0  0  0  0  0  0
    3.8865    1.7671   -3.5864 H   0  0  0  0  0  0  0  0  0  0  0  0
    6.9596    1.1637    1.0486 H   0  0  0  0  0  0  0  0  0  0  0  0
    1.2216    0.0445    2.1825 H   0  0  0  0  0  0  0  0  0  0  0  0
    0.9746   -0.9266    4.3800 H   0  0  0  0  0  0  0  0  0  0  0  0
    2.9429   -1.3487    5.8095 H   0  0  0  0  0  0  0  0  0  0  0  0
    5.1922   -0.7828    5.0235 H   0  0  0  0  0  0  0  0  0  0  0  0
  1  2  1  0
  2  3  1  0
  3  4  1  0
  4  5  1  0
  5  6  1  0
  6  7  1  0
  7  8  1  0
  8  9  1  0
  9 10  1  0
  8 11  1  0
 11 12  1  0
 12 13  1  0
 13 14  2  0
 14 15  1  0
 15 16  2  0
 16 17  1  0
 17 18  2  0
 16 19  1  0
 19 20  2  0
 20 21  1  0
 21 22  2  0
 22 23  1  0
 23 24  2  0
 22 25  1  0
 25 26  1  0
 25 27  1  0
 25 28  1  0
 11 29  1  0
 29 30  2  0
 29 31  1  0
 31 32  1  0
 32 33  1  0
 33 34  1  0
 34 35  1  0
 35 36  1  0
 36 37  2  0
 37 38  1  0
 37 39  1  0
 39 40  1  0
 39 41  2  0
 41 42  1  0
 42 43  2  0
 33 44  2  0
 44 45  1  0
 45 46  2  0
 45 47  1  0
 47 48  2  0
 48 49  1  0
 49 50  2  0
 50 51  1  0
 51 52  2  0
 10  5  1  0
 18 13  1  0
 24 19  1  0
 48 32  1  0
 43 36  1  0
 52 47  1  0
  1 53  1  0
  1 54  1  0
  1 55  1  0
  3 56  1  0
  3 57  1  0
  4 58  1  0
  4 59  1  0
  6 60  1  0
  6 61  1  0
  7 62  1  0
  7 63  1  0
  8 64  1  0
  9 65  1  0
  9 66  1  0
 10 67  1  0
 10 68  1  0
 12 69  1  0
 12 70  1  0
 14 71  1  0
 15 72  1  0
 17 73  1  0
 18 74  1  0
 20 75  1  0
 21 76  1  0
 23 77  1  0
 24 78  1  0
 31 79  1  0
 31 80  1  0
 35 81  1  0
 35 82  1  0
 41 83  1  0
 42 84  1  0
 43 85  1  0
 44 86  1  0
 49 87  1  0
 50 88  1  0
 51 89  1  0
 52 90  1  0
M  END
$$$$
