
     RDKit          3D

 43 45  0  0  0  0  0  0  0  0999 V2000
   -2.2715    0.3295   -2.7598 C   0  0  0  0  0  0  0  0  0  0  0  0
   -1.6228   -0.7506   -1.8884 C   0  0  2  0  0  0  0  0  0  0  0  0
   -2.6125   -1.8701   -1.5495 C   0  0  0  0  0  0  0  0  0  0  0  0
   -3.0714   -1.6089   -0.1197 C   0  0  0  0  0  0  0  0  0  0  0  0
   -1.9719   -0.7464    0.5090 C   0  0  2  0  0  0  0  0  0  0  0  0
   -2.4894    0.3441    1.4937 C   0  0  1  0  0  0  0  0  0  0  0  0
   -1.4146    0.8176    2.2656 O   0  0  0  0  0  0  0  0  0  0  0  0
   -3.1930    1.5593    0.8529 C   0  0  0  0  0  0  0  0  0  0  0  0
   -2.3287    2.2590    0.0351 F   0  0  0  0  0  0  0  0  0  0  0  0
   -3.6173    2.4105    1.8575 F   0  0  0  0  0  0  0  0  0  0  0  0
   -4.3012    1.1827    0.1207 F   0  0  0  0  0  0  0  0  0  0  0  0
   -1.1963   -0.1993   -0.6049 N   0  0  0  0  0  0  0  0  0  0  0  0
    0.1352    0.3248   -0.4318 C   0  0  0  0  0  0  0  0  0  0  0  0
    1.1205   -0.4334    0.2219 C   0  0  0  0  0  0  0  0  0  0  0  0
    2.4283    0.0696    0.3984 C   0  0  0  0  0  0  0  0  0  0  0  0
    2.7369    1.3560   -0.1146 C   0  0  0  0  0  0  0  0  0  0  0  0
    3.9897    1.8728    0.0340 N   0  0  0  0  0  0  0  0  0  0  0  0
    4.9737    1.1839    0.6685 C   0  0  0  0  0  0  0  0  0  0  0  0
    6.1209    1.6918    0.7870 O   0  0  0  0  0  0  0  0  0  0  0  0
    4.7215   -0.0843    1.1904 C   0  0  0  0  0  0  0  0  0  0  0  0
    3.4461   -0.6643    1.0671 C   0  0  0  0  0  0  0  0  0  0  0  0
    3.1940   -2.0451    1.6480 C   0  0  0  0  0  0  0  0  0  0  0  0
    4.3191   -2.5582    2.2710 F   0  0  0  0  0  0  0  0  0  0  0  0
    2.1801   -1.9790    2.5870 F   0  0  0  0  0  0  0  0  0  0  0  0
    2.8306   -2.9169    0.6372 F   0  0  0  0  0  0  0  0  0  0  0  0
    1.7517    2.0982   -0.7812 C   0  0  0  0  0  0  0  0  0  0  0  0
    0.4658    1.5856   -0.9410 C   0  0  0  0  0  0  0  0  0  0  0  0
   -3.1065    0.8222   -2.2199 H   0  0  0  0  0  0  0  0  0  0  0  0
   -1.5226    1.0928   -3.0499 H   0  0  0  0  0  0  0  0  0  0  0  0
   -2.6664   -0.1230   -3.6942 H   0  0  0  0  0  0  0  0  0  0  0  0
   -0.7520   -1.1821   -2.4319 H   0  0  0  0  0  0  0  0  0  0  0  0
   -3.4770   -1.9166   -2.2480 H   0  0  0  0  0  0  0  0  0  0  0  0
   -2.0825   -2.8476   -1.5859 H   0  0  0  0  0  0  0  0  0  0  0  0
   -3.1953   -2.5653    0.4346 H   0  0  0  0  0  0  0  0  0  0  0  0
   -4.0546   -1.1025   -0.1386 H   0  0  0  0  0  0  0  0  0  0  0  0
   -1.3297   -1.4437    1.0895 H   0  0  0  0  0  0  0  0  0  0  0  0
   -3.2327   -0.1377    2.1724 H   0  0  0  0  0  0  0  0  0  0  0  0
   -1.2047    0.1158    2.9361 H   0  0  0  0  0  0  0  0  0  0  0  0
    0.8583   -1.4206    0.5679 H   0  0  0  0  0  0  0  0  0  0  0  0
    4.2095    2.8221   -0.3475 H   0  0  0  0  0  0  0  0  0  0  0  0
    5.5273   -0.6074    1.6903 H   0  0  0  0  0  0  0  0  0  0  0  0
    1.9797    3.0800   -1.1778 H   0  0  0  0  0  0  0  0  0  0  0  0
   -0.2744    2.1848   -1.4510 H   0  0  0  0  0  0  0  0  0  0  0  0
  1  2  1  0
  2  3  1  0
  3  4  1  0
  4  5  1  0
  5  6  1  0
  6  7  1  0
  6  8  1  0
  8  9  1  0
  8 10  1  0
  8 11  1  0
  5 12  1  0
 12 13  1  0
 13 14  2  0
 14 15  1  0
 15 16  2  0
 16 17  1  0
 17 18  1  0
 18 19  2  0
 18 20  1  0
 20 21  2  0
 21 22  1  0
 22 23  1  0
 22 24  1  0
 22 25  1  0
 16 26  1  0
 26 27  2  0
 12  2  1  0
 27 13  1  0
 21 15  1  0
  1 28  1  0
  1 29  1  0
  1 30  1  0
  2 31  1  6
  3 32  1  0
  3 33  1  0
  4 34  1  0
  4 35  1  0
  5 36  1  1
  6 37  1  1
  7 38  1  0
 14 39  1  0
 17 40  1  0
 20 41  1  0
 26 42  1  0
 27 43  1  0
M  END
$$$$
