
     RDKit          3D

 38 40  0  0  0  0  0  0  0  0999 V2000
    4.7520    1.8682    1.9844 O   0  0  0  0  0  0  0  0  0  0  0  0
    4.7703    0.5726    1.4736 C   0  0  0  0  0  0  0  0  0  0  0  0
    5.7283   -0.1925    1.7678 O   0  0  0  0  0  0  0  0  0  0  0  0
    3.7042    0.1188    0.6184 N   0  0  0  0  0  0  0  0  0  0  0  0
    3.7189   -1.2337    0.0418 C   0  0  0  0  0  0  0  0  0  0  0  0
    2.3291   -1.8887    0.1230 C   0  0  0  0  0  0  0  0  0  0  0  0
    1.1456   -0.9040   -0.0943 C   0  0  0  0  0  0  0  0  0  0  0  0
    0.0435   -1.5615   -0.9546 C   0  0  0  0  0  0  0  0  0  0  0  0
   -1.2245   -0.7452   -0.9811 C   0  0  0  0  0  0  0  0  0  0  0  0
   -1.5448    0.0452   -2.0961 C   0  0  0  0  0  0  0  0  0  0  0  0
   -2.6783    0.7956   -2.1038 N   0  0  0  0  0  0  0  0  0  0  0  0
   -3.5338    0.8123   -1.0473 C   0  0  0  0  0  0  0  0  0  0  0  0
   -4.6912    1.5981   -1.0919 C   0  0  0  0  0  0  0  0  0  0  0  0
   -5.5675    1.6148   -0.0021 C   0  0  0  0  0  0  0  0  0  0  0  0
   -5.2911    0.8480    1.1347 C   0  0  0  0  0  0  0  0  0  0  0  0
   -4.1369    0.0597    1.1885 C   0  0  0  0  0  0  0  0  0  0  0  0
   -3.2529    0.0368    0.0993 C   0  0  0  0  0  0  0  0  0  0  0  0
   -2.0892   -0.7415    0.1233 C   0  0  0  0  0  0  0  0  0  0  0  0
    1.6188    0.4317   -0.7009 C   0  0  0  0  0  0  0  0  0  0  0  0
    2.6709    1.0795    0.2069 C   0  0  0  0  0  0  0  0  0  0  0  0
    5.4956    2.2007    2.5867 H   0  0  0  0  0  0  0  0  0  0  0  0
    4.4486   -1.8916    0.5606 H   0  0  0  0  0  0  0  0  0  0  0  0
    4.0329   -1.1640   -1.0224 H   0  0  0  0  0  0  0  0  0  0  0  0
    2.3046   -2.7137   -0.6231 H   0  0  0  0  0  0  0  0  0  0  0  0
    2.2161   -2.3624    1.1230 H   0  0  0  0  0  0  0  0  0  0  0  0
    0.7101   -0.6800    0.9066 H   0  0  0  0  0  0  0  0  0  0  0  0
   -0.1974   -2.5650   -0.5390 H   0  0  0  0  0  0  0  0  0  0  0  0
    0.4214   -1.7250   -1.9883 H   0  0  0  0  0  0  0  0  0  0  0  0
   -0.8899    0.0693   -2.9574 H   0  0  0  0  0  0  0  0  0  0  0  0
   -4.9129    2.1956   -1.9675 H   0  0  0  0  0  0  0  0  0  0  0  0
   -6.4620    2.2230   -0.0382 H   0  0  0  0  0  0  0  0  0  0  0  0
   -5.9726    0.8649    1.9754 H   0  0  0  0  0  0  0  0  0  0  0  0
   -3.9364   -0.5286    2.0760 H   0  0  0  0  0  0  0  0  0  0  0  0
   -1.8524   -1.3412    0.9949 H   0  0  0  0  0  0  0  0  0  0  0  0
    2.0492    0.2599   -1.7121 H   0  0  0  0  0  0  0  0  0  0  0  0
    0.7666    1.1366   -0.8059 H   0  0  0  0  0  0  0  0  0  0  0  0
    3.1433    1.9293   -0.3320 H   0  0  0  0  0  0  0  0  0  0  0  0
    2.1639    1.4782    1.1130 H   0  0  0  0  0  0  0  0  0  0  0  0
  1  2  1  0
  2  3  2  0
  2  4  1  0
  4  5  1  0
  5  6  1  0
  6  7  1  0
  7  8  1  0
  8  9  1  0
  9 10  2  0
 10 11  1  0
 11 12  2  0
 12 13  1  0
 13 14  2  0
 14 15  1  0
 15 16  2  0
 16 17  1  0
 17 18  2  0
  7 19  1  0
 19 20  1  0
 20  4  1  0
 18  9  1  0
 17 12  1  0
  1 21  1  0
  5 22  1  0
  5 23  1  0
  6 24  1  0
  6 25  1  0
  7 26  1  0
  8 27  1  0
  8 28  1  0
 10 29  1  0
 13 30  1  0
 14 31  1  0
 15 32  1  0
 16 33  1  0
 18 34  1  0
 19 35  1  0
 19 36  1  0
 20 37  1  0
 20 38  1  0
M  END
$$$$
