
     RDKit          3D

 50 52  0  0  0  0  0  0  0  0999 V2000
    0.2483   -0.3364   -1.2108 C   0  0  2  0  0  0  0  0  0  0  0  0
    1.6426   -0.5115   -1.8500 C   0  0  0  0  0  0  0  0  0  0  0  0
    2.7042    0.1185   -0.9961 C   0  0  0  0  0  0  0  0  0  0  0  0
    2.6500   -0.0669    0.3912 C   0  0  0  0  0  0  0  0  0  0  0  0
    1.5111   -0.8602    0.9721 C   0  0  0  0  0  0  0  0  0  0  0  0
    0.2569   -0.5638    0.2547 N   0  0  0  0  0  0  0  0  0  0  0  0
   -0.9822   -0.4726    0.9891 C   0  0  0  0  0  0  0  0  0  0  0  0
   -1.0331   -0.8216    2.2012 O   0  0  0  0  0  0  0  0  0  0  0  0
   -2.1358   -0.0112    0.3472 O   0  0  0  0  0  0  0  0  0  0  0  0
   -3.4109    0.0260    0.9759 C   0  0  0  0  0  0  0  0  0  0  0  0
   -4.4361    0.4625   -0.0282 C   0  0  0  0  0  0  0  0  0  0  0  0
   -4.8707    1.7975   -0.0717 C   0  0  0  0  0  0  0  0  0  0  0  0
   -5.7948    2.2050   -1.0393 C   0  0  0  0  0  0  0  0  0  0  0  0
   -6.2803    1.2872   -1.9752 C   0  0  0  0  0  0  0  0  0  0  0  0
   -5.8394   -0.0388   -1.9478 C   0  0  0  0  0  0  0  0  0  0  0  0
   -4.9165   -0.4504   -0.9814 C   0  0  0  0  0  0  0  0  0  0  0  0
    3.6711    0.4450    1.2069 C   0  0  0  0  0  0  0  0  0  0  0  0
    4.7432    1.1624    0.6413 C   0  0  0  0  0  0  0  0  0  0  0  0
    5.8027    1.7097    1.4470 N   0  0  0  0  0  0  0  0  0  0  0  0
    5.8393    1.6396    3.1799 S   0  0  0  0  0  6  0  0  0  0  0  0
    4.4420    2.3381    3.8022 O   0  0  0  0  0  0  0  0  0  0  0  0
    5.9468    0.2079    3.6247 O   0  0  0  0  0  0  0  0  0  0  0  0
    7.0343    2.4037    3.6765 O   0  0  0  0  0  0  0  0  0  0  0  0
    4.7842    1.3389   -0.7509 C   0  0  0  0  0  0  0  0  0  0  0  0
    3.7780    0.8143   -1.5656 C   0  0  0  0  0  0  0  0  0  0  0  0
   -0.7301   -1.2590   -1.8945 C   0  0  0  0  0  0  0  0  0  0  0  0
   -1.5241   -0.7914   -2.7557 O   0  0  0  0  0  0  0  0  0  0  0  0
   -0.7458   -2.6594   -1.5871 N   0  0  0  0  0  0  0  0  0  0  0  0
   -1.7161   -3.5644   -2.1891 C   0  0  0  0  0  0  0  0  0  0  0  0
   -0.0707    0.7157   -1.3880 H   0  0  0  0  0  0  0  0  0  0  0  0
    1.6368   -0.0614   -2.8674 H   0  0  0  0  0  0  0  0  0  0  0  0
    1.8872   -1.5915   -1.9551 H   0  0  0  0  0  0  0  0  0  0  0  0
    1.4113   -0.6190    2.0528 H   0  0  0  0  0  0  0  0  0  0  0  0
    1.7370   -1.9437    0.8799 H   0  0  0  0  0  0  0  0  0  0  0  0
   -3.3819    0.7249    1.8404 H   0  0  0  0  0  0  0  0  0  0  0  0
   -3.6716   -0.9857    1.3572 H   0  0  0  0  0  0  0  0  0  0  0  0
   -4.4944    2.5218    0.6401 H   0  0  0  0  0  0  0  0  0  0  0  0
   -6.1311    3.2334   -1.0664 H   0  0  0  0  0  0  0  0  0  0  0  0
   -6.9937    1.6048   -2.7246 H   0  0  0  0  0  0  0  0  0  0  0  0
   -6.2096   -0.7468   -2.6780 H   0  0  0  0  0  0  0  0  0  0  0  0
   -4.5736   -1.4778   -0.9772 H   0  0  0  0  0  0  0  0  0  0  0  0
    3.6209    0.2757    2.2729 H   0  0  0  0  0  0  0  0  0  0  0  0
    6.5946    2.2032    0.9771 H   0  0  0  0  0  0  0  0  0  0  0  0
    4.5108    2.2171    4.7829 H   0  0  0  0  0  0  0  0  0  0  0  0
    5.6041    1.8790   -1.2077 H   0  0  0  0  0  0  0  0  0  0  0  0
    3.8392    0.9474   -2.6386 H   0  0  0  0  0  0  0  0  0  0  0  0
   -0.0562   -3.0443   -0.9029 H   0  0  0  0  0  0  0  0  0  0  0  0
   -1.5602   -4.5945   -1.8049 H   0  0  0  0  0  0  0  0  0  0  0  0
   -1.5919   -3.5697   -3.2924 H   0  0  0  0  0  0  0  0  0  0  0  0
   -2.7455   -3.2371   -1.9320 H   0  0  0  0  0  0  0  0  0  0  0  0
  1  2  1  0
  2  3  1  0
  3  4  2  0
  4  5  1  0
  5  6  1  0
  6  7  1  0
  7  8  2  0
  7  9  1  0
  9 10  1  0
 10 11  1  0
 11 12  2  0
 12 13  1  0
 13 14  2  0
 14 15  1  0
 15 16  2  0
  4 17  1  0
 17 18  2  0
 18 19  1  0
 19 20  1  0
 20 21  1  0
 20 22  2  0
 20 23  2  0
 18 24  1  0
 24 25  2  0
  1 26  1  0
 26 27  2  0
 26 28  1  0
 28 29  1  0
  6  1  1  0
 16 11  1  0
 25  3  1  0
  1 30  1  1
  2 31  1  0
  2 32  1  0
  5 33  1  0
  5 34  1  0
 10 35  1  0
 10 36  1  0
 12 37  1  0
 13 38  1  0
 14 39  1  0
 15 40  1  0
 16 41  1  0
 17 42  1  0
 19 43  1  0
 21 44  1  0
 24 45  1  0
 25 46  1  0
 28 47  1  0
 29 48  1  0
 29 49  1  0
 29 50  1  0
M  END
$$$$
