
     RDKit          3D

 19 20  0  0  0  0  0  0  0  0999 V2000
    0.6733    1.6961   -0.5744 N   0  0  0  0  0  0  0  0  0  0  0  0
    1.8614    1.8036    0.1624 N   0  0  0  0  0  0  0  0  0  0  0  0
    2.6462    0.8157    0.4612 C   0  0  0  0  0  0  0  0  0  0  0  0
    2.4912   -0.5544   -0.0535 C   0  0  0  0  0  0  0  0  0  0  0  0
    1.3386   -1.1863   -0.2919 C   0  0  0  0  0  0  0  0  0  0  0  0
   -0.0168   -0.6374   -0.0799 C   0  0  0  0  0  0  0  0  0  0  0  0
   -1.0530   -1.5471    0.1998 C   0  0  0  0  0  0  0  0  0  0  0  0
   -2.3720   -1.1092    0.3304 C   0  0  0  0  0  0  0  0  0  0  0  0
   -2.6779    0.2397    0.1628 C   0  0  0  0  0  0  0  0  0  0  0  0
   -1.6643    1.1523   -0.1316 C   0  0  0  0  0  0  0  0  0  0  0  0
   -0.3290    0.7286   -0.2448 C   0  0  0  0  0  0  0  0  0  0  0  0
    0.3523    2.5649   -1.0577 H   0  0  0  0  0  0  0  0  0  0  0  0
    3.5577    1.0397    0.9991 H   0  0  0  0  0  0  0  0  0  0  0  0
    3.4028   -1.1304   -0.1568 H   0  0  0  0  0  0  0  0  0  0  0  0
    1.4082   -2.2286   -0.5828 H   0  0  0  0  0  0  0  0  0  0  0  0
   -0.8400   -2.6032    0.3159 H   0  0  0  0  0  0  0  0  0  0  0  0
   -3.1589   -1.8189    0.5515 H   0  0  0  0  0  0  0  0  0  0  0  0
   -3.7018    0.5784    0.2556 H   0  0  0  0  0  0  0  0  0  0  0  0
   -1.9180    2.1966   -0.2654 H   0  0  0  0  0  0  0  0  0  0  0  0
  1  2  1  0
  2  3  2  0
  3  4  1  0
  4  5  2  0
  5  6  1  0
  6  7  2  0
  7  8  1  0
  8  9  2  0
  9 10  1  0
 10 11  2  0
 11  1  1  0
 11  6  1  0
  1 12  1  0
  3 13  1  0
  4 14  1  0
  5 15  1  0
  7 16  1  0
  8 17  1  0
  9 18  1  0
 10 19  1  0
M  END
$$$$
