
     RDKit          3D

 46 48  0  0  0  0  0  0  0  0999 V2000
   -1.5847    2.6650    1.4544 C   0  0  0  0  0  0  0  0  0  0  0  0
   -1.8021    1.2726    0.8703 C   0  0  0  0  0  0  0  0  0  0  0  0
   -1.2113    1.1631   -0.4747 N   0  0  0  0  0  0  0  0  0  0  0  0
   -1.8085    1.9149   -1.5893 C   0  0  0  0  0  0  0  0  0  0  0  0
   -0.9544    3.1225   -1.9752 C   0  0  0  0  0  0  0  0  0  0  0  0
   -0.1069    0.2676   -0.7292 C   0  0  0  0  0  0  0  0  0  0  0  0
    0.7395    0.5523   -1.6184 O   0  0  0  0  0  0  0  0  0  0  0  0
    0.0515   -1.0032    0.0090 C   0  0  0  0  0  0  0  0  0  0  0  0
    1.2618   -1.4326    0.5676 C   0  0  0  0  0  0  0  0  0  0  0  0
    2.4987   -0.7088    0.5906 N   0  0  0  0  0  0  0  0  0  0  0  0
    2.5788    0.6847    0.9227 C   0  0  0  0  0  0  0  0  0  0  0  0
    1.6279    1.2411    1.5347 O   0  0  0  0  0  0  0  0  0  0  0  0
    3.7742    1.4740    0.5846 C   0  0  0  0  0  0  0  0  0  0  0  0
    4.8640    1.0515   -0.1706 C   0  0  0  0  0  0  0  0  0  0  0  0
    5.8376    2.0439   -0.3391 C   0  0  0  0  0  0  0  0  0  0  0  0
    5.5207    3.2484    0.2747 C   0  0  0  0  0  0  0  0  0  0  0  0
    4.0266    3.0784    1.0259 S   0  0  0  0  0  0  0  0  0  0  0  0
    1.0926   -3.0019    1.1475 S   0  0  0  0  0  0  0  0  0  0  0  0
   -0.5310   -3.1488    0.7438 C   0  0  0  0  0  0  0  0  0  0  0  0
   -0.9529   -1.9914    0.0923 C   0  0  0  0  0  0  0  0  0  0  0  0
   -2.3531   -1.8623   -0.4553 C   0  0  0  0  0  0  0  0  0  0  0  0
   -3.0081   -3.2385   -0.6610 C   0  0  0  0  0  0  0  0  0  0  0  0
   -2.8277   -4.1287    0.5794 C   0  0  0  0  0  0  0  0  0  0  0  0
   -1.3408   -4.4058    0.8502 C   0  0  0  0  0  0  0  0  0  0  0  0
   -0.5078    2.9323    1.4236 H   0  0  0  0  0  0  0  0  0  0  0  0
   -2.1680    3.4191    0.8859 H   0  0  0  0  0  0  0  0  0  0  0  0
   -1.9277    2.6832    2.5103 H   0  0  0  0  0  0  0  0  0  0  0  0
   -2.8921    1.0636    0.8202 H   0  0  0  0  0  0  0  0  0  0  0  0
   -1.3522    0.5357    1.5684 H   0  0  0  0  0  0  0  0  0  0  0  0
   -1.9329    1.2472   -2.4693 H   0  0  0  0  0  0  0  0  0  0  0  0
   -2.8220    2.2767   -1.3092 H   0  0  0  0  0  0  0  0  0  0  0  0
   -0.7500    3.7579   -1.0895 H   0  0  0  0  0  0  0  0  0  0  0  0
   -1.4971    3.7314   -2.7285 H   0  0  0  0  0  0  0  0  0  0  0  0
    0.0087    2.8032   -2.4214 H   0  0  0  0  0  0  0  0  0  0  0  0
    3.3826   -1.2603    0.5248 H   0  0  0  0  0  0  0  0  0  0  0  0
    4.9578    0.0638   -0.6008 H   0  0  0  0  0  0  0  0  0  0  0  0
    6.7495    1.8885   -0.8999 H   0  0  0  0  0  0  0  0  0  0  0  0
    6.1298    4.1420    0.2654 H   0  0  0  0  0  0  0  0  0  0  0  0
   -2.3375   -1.3219   -1.4257 H   0  0  0  0  0  0  0  0  0  0  0  0
   -2.9654   -1.2808    0.2642 H   0  0  0  0  0  0  0  0  0  0  0  0
   -2.5559   -3.7383   -1.5459 H   0  0  0  0  0  0  0  0  0  0  0  0
   -4.0923   -3.1012   -0.8626 H   0  0  0  0  0  0  0  0  0  0  0  0
   -3.2805   -3.6280    1.4635 H   0  0  0  0  0  0  0  0  0  0  0  0
   -3.3577   -5.0929    0.4237 H   0  0  0  0  0  0  0  0  0  0  0  0
   -0.9608   -5.1362    0.1040 H   0  0  0  0  0  0  0  0  0  0  0  0
   -1.2207   -4.8431    1.8641 H   0  0  0  0  0  0  0  0  0  0  0  0
  1  2  1  0
  2  3  1  0
  3  4  1  0
  4  5  1  0
  3  6  1  0
  6  7  2  0
  6  8  1  0
  8  9  2  0
  9 10  1  0
 10 11  1  0
 11 12  2  0
 11 13  1  0
 13 14  2  0
 14 15  1  0
 15 16  2  0
 16 17  1  0
  9 18  1  0
 18 19  1  0
 19 20  2  0
 20 21  1  0
 21 22  1  0
 22 23  1  0
 23 24  1  0
 20  8  1  0
 17 13  1  0
 24 19  1  0
  1 25  1  0
  1 26  1  0
  1 27  1  0
  2 28  1  0
  2 29  1  0
  4 30  1  0
  4 31  1  0
  5 32  1  0
  5 33  1  0
  5 34  1  0
 10 35  1  0
 14 36  1  0
 15 37  1  0
 16 38  1  0
 21 39  1  0
 21 40  1  0
 22 41  1  0
 22 42  1  0
 23 43  1  0
 23 44  1  0
 24 45  1  0
 24 46  1  0
M  END
$$$$
