
     RDKit          3D

 52 55  0  0  0  0  0  0  0  0999 V2000
    0.7315    1.0970    0.4798 C   0  0  2  0  0  0  0  0  0  0  0  0
    1.4404    2.4111    0.1799 C   0  0  0  0  0  0  0  0  0  0  0  0
    2.9364    2.1014    0.3480 C   0  0  0  0  0  0  0  0  0  0  0  0
    3.0661    0.5801    0.6676 C   0  0  2  0  0  0  0  0  0  0  0  0
    3.0821    0.4713    2.0766 O   0  0  0  0  0  0  0  0  0  0  0  0
    4.3592   -0.0232    0.0858 C   0  0  0  0  0  0  0  0  0  0  0  0
    5.1007    0.6623   -0.6040 O   0  0  0  0  0  0  0  0  0  0  0  0
    4.7629   -1.4572    0.3249 C   0  0  0  0  0  0  0  0  0  0  0  0
    5.9851   -1.5041    1.0096 O   0  0  0  0  0  0  0  0  0  0  0  0
    1.7373   -0.0012    0.0704 C   0  0  2  0  0  0  0  0  0  0  0  0
    1.8700   -0.1536   -1.4824 C   0  0  0  0  0  0  0  0  0  0  0  0
    1.2248   -1.3431    0.6536 C   0  0  0  0  0  0  0  0  0  0  0  0
   -0.1968   -1.5868    0.1907 C   0  0  0  0  0  0  0  0  0  0  0  0
   -0.4756   -2.6637   -0.3124 O   0  0  0  0  0  0  0  0  0  0  0  0
   -1.2471   -0.4864    0.3899 C   0  0  1  0  0  0  0  0  0  0  0  0
   -0.6840    0.8860   -0.1144 C   0  0  1  0  0  0  0  0  0  0  0  0
   -1.6323    2.0275    0.2950 C   0  0  0  0  0  0  0  0  0  0  0  0
   -3.0216    1.8216   -0.3042 C   0  0  0  0  0  0  0  0  0  0  0  0
   -3.5669    0.4680    0.0823 C   0  0  0  0  0  0  0  0  0  0  0  0
   -4.8411    0.3768    0.4987 C   0  0  0  0  0  0  0  0  0  0  0  0
   -5.4012   -0.9073    0.9186 C   0  0  0  0  0  0  0  0  0  0  0  0
   -6.6116   -0.9939    1.2540 O   0  0  0  0  0  0  0  0  0  0  0  0
   -4.5313   -2.0783    0.9900 C   0  0  0  0  0  0  0  0  0  0  0  0
   -3.2694   -2.0086    0.5630 C   0  0  0  0  0  0  0  0  0  0  0  0
   -2.6966   -0.7822   -0.1550 C   0  0  2  0  0  0  0  0  0  0  0  0
   -2.7095   -1.0806   -1.6729 C   0  0  0  0  0  0  0  0  0  0  0  0
    0.6122    1.0650    1.5904 H   0  0  0  0  0  0  0  0  0  0  0  0
    1.1179    3.2066    0.8869 H   0  0  0  0  0  0  0  0  0  0  0  0
    1.2258    2.7427   -0.8599 H   0  0  0  0  0  0  0  0  0  0  0  0
    3.4477    2.3841   -0.5973 H   0  0  0  0  0  0  0  0  0  0  0  0
    3.3751    2.7197    1.1622 H   0  0  0  0  0  0  0  0  0  0  0  0
    3.2385   -0.4718    2.3319 H   0  0  0  0  0  0  0  0  0  0  0  0
    4.0134   -2.0005    0.9276 H   0  0  0  0  0  0  0  0  0  0  0  0
    4.8406   -1.9879   -0.6512 H   0  0  0  0  0  0  0  0  0  0  0  0
    6.6983   -1.3554    0.3348 H   0  0  0  0  0  0  0  0  0  0  0  0
    0.9329   -0.5074   -1.9567 H   0  0  0  0  0  0  0  0  0  0  0  0
    2.1588    0.7985   -1.9723 H   0  0  0  0  0  0  0  0  0  0  0  0
    2.6403   -0.9124   -1.7325 H   0  0  0  0  0  0  0  0  0  0  0  0
    1.8695   -2.1837    0.3230 H   0  0  0  0  0  0  0  0  0  0  0  0
    1.2181   -1.3262    1.7632 H   0  0  0  0  0  0  0  0  0  0  0  0
   -1.3541   -0.3953    1.4959 H   0  0  0  0  0  0  0  0  0  0  0  0
   -0.6148    0.8977   -1.2204 H   0  0  0  0  0  0  0  0  0  0  0  0
   -1.7104    2.0845    1.4037 H   0  0  0  0  0  0  0  0  0  0  0  0
   -1.2388    3.0000   -0.0711 H   0  0  0  0  0  0  0  0  0  0  0  0
   -3.6794    2.6444    0.0535 H   0  0  0  0  0  0  0  0  0  0  0  0
   -2.9700    1.8957   -1.4115 H   0  0  0  0  0  0  0  0  0  0  0  0
   -5.4644    1.2604    0.5714 H   0  0  0  0  0  0  0  0  0  0  0  0
   -4.9067   -3.0011    1.4153 H   0  0  0  0  0  0  0  0  0  0  0  0
   -2.6790   -2.9101    0.6416 H   0  0  0  0  0  0  0  0  0  0  0  0
   -2.2489   -0.2618   -2.2603 H   0  0  0  0  0  0  0  0  0  0  0  0
   -2.1775   -2.0207   -1.9185 H   0  0  0  0  0  0  0  0  0  0  0  0
   -3.7568   -1.1977   -2.0275 H   0  0  0  0  0  0  0  0  0  0  0  0
  1  2  1  0
  2  3  1  0
  3  4  1  0
  4  5  1  1
  4  6  1  0
  6  7  2  0
  6  8  1  0
  8  9  1  0
  4 10  1  0
 10 11  1  6
 10 12  1  0
 12 13  1  0
 13 14  2  0
 13 15  1  0
 15 16  1  0
 16 17  1  0
 17 18  1  0
 18 19  1  0
 19 20  2  0
 20 21  1  0
 21 22  2  0
 21 23  1  0
 23 24  2  0
 24 25  1  0
 25 26  1  6
 10  1  1  0
 25 15  1  0
 16  1  1  0
 25 19  1  0
  1 27  1  1
  2 28  1  0
  2 29  1  0
  3 30  1  0
  3 31  1  0
  5 32  1  0
  8 33  1  0
  8 34  1  0
  9 35  1  0
 11 36  1  0
 11 37  1  0
 11 38  1  0
 12 39  1  0
 12 40  1  0
 15 41  1  1
 16 42  1  6
 17 43  1  0
 17 44  1  0
 18 45  1  0
 18 46  1  0
 20 47  1  0
 23 48  1  0
 24 49  1  0
 26 50  1  0
 26 51  1  0
 26 52  1  0
M  END
$$$$
