
     RDKit          3D

 63 67  0  0  0  0  0  0  0  0999 V2000
   -0.6630    0.0242    0.9465 C   0  0  2  0  0  0  0  0  0  0  0  0
   -1.5741   -0.0993    2.1601 C   0  0  0  0  0  0  0  0  0  0  0  0
   -2.9871   -0.2503    1.5514 C   0  0  1  0  0  0  0  0  0  0  0  0
   -3.7008    0.9421    1.6898 O   0  0  0  0  0  0  0  0  0  0  0  0
   -3.8071    1.4986    0.3980 C   0  0  0  0  0  0  0  0  0  0  0  0
   -5.2829    1.5165   -0.0227 C   0  0  0  0  0  0  0  0  0  0  0  0
   -3.2664    2.9313    0.4321 C   0  0  0  0  0  0  0  0  0  0  0  0
   -3.0607    0.7534   -0.5411 O   0  0  0  0  0  0  0  0  0  0  0  0
   -2.8089   -0.4931    0.0481 C   0  0  2  0  0  0  0  0  0  0  0  0
   -3.7783   -1.5171   -0.5459 C   0  0  0  0  0  0  0  0  0  0  0  0
   -4.2868   -2.3733    0.1637 O   0  0  0  0  0  0  0  0  0  0  0  0
   -4.1066   -1.5118   -2.0140 C   0  0  0  0  0  0  0  0  0  0  0  0
   -3.6209   -3.0541   -2.7610 Cl  0  0  0  0  0  0  0  0  0  0  0  0
   -1.3061   -0.8908   -0.1013 C   0  0  2  0  0  0  0  0  0  0  0  0
   -1.1380   -2.4134    0.2311 C   0  0  0  0  0  0  0  0  0  0  0  0
   -0.6639   -0.5629   -1.4743 C   0  0  0  0  0  0  0  0  0  0  0  0
    0.8867   -0.7010   -1.4542 C   0  0  2  0  0  0  0  0  0  0  0  0
    1.2439   -2.0569   -1.4381 O   0  0  0  0  0  0  0  0  0  0  0  0
    1.5594    0.0927   -0.2715 C   0  0  1  0  0  0  0  0  0  0  0  0
    1.3233    1.4357   -0.5544 F   0  0  0  0  0  0  0  0  0  0  0  0
    0.8597   -0.1945    1.1081 C   0  0  1  0  0  0  0  0  0  0  0  0
    1.4208    0.7476    2.1924 C   0  0  0  0  0  0  0  0  0  0  0  0
    2.9314    0.5909    2.3449 C   0  0  0  0  0  0  0  0  0  0  0  0
    3.6398    0.7441    1.0188 C   0  0  0  0  0  0  0  0  0  0  0  0
    4.8129    1.4039    0.9900 C   0  0  0  0  0  0  0  0  0  0  0  0
    5.6613    1.4346   -0.2088 C   0  0  0  0  0  0  0  0  0  0  0  0
    6.7277    2.1046   -0.2013 O   0  0  0  0  0  0  0  0  0  0  0  0
    5.3062    0.6171   -1.4081 C   0  0  0  0  0  0  0  0  0  0  0  0
    3.7875    0.4554   -1.5064 C   0  0  0  0  0  0  0  0  0  0  0  0
    3.1385   -0.0732   -0.1821 C   0  0  2  0  0  0  0  0  0  0  0  0
    3.5952   -1.5423    0.0435 C   0  0  0  0  0  0  0  0  0  0  0  0
   -0.7803    1.0793    0.6057 H   0  0  0  0  0  0  0  0  0  0  0  0
   -1.5013    0.7987    2.8125 H   0  0  0  0  0  0  0  0  0  0  0  0
   -1.3069   -0.9989    2.7561 H   0  0  0  0  0  0  0  0  0  0  0  0
   -3.5299   -1.0659    2.0753 H   0  0  0  0  0  0  0  0  0  0  0  0
   -5.3873    1.9248   -1.0508 H   0  0  0  0  0  0  0  0  0  0  0  0
   -5.7002    0.4880   -0.0083 H   0  0  0  0  0  0  0  0  0  0  0  0
   -5.8792    2.1407    0.6768 H   0  0  0  0  0  0  0  0  0  0  0  0
   -2.2079    2.9361    0.7645 H   0  0  0  0  0  0  0  0  0  0  0  0
   -3.3202    3.3900   -0.5785 H   0  0  0  0  0  0  0  0  0  0  0  0
   -3.8544    3.5520    1.1419 H   0  0  0  0  0  0  0  0  0  0  0  0
   -3.5833   -0.6884   -2.5423 H   0  0  0  0  0  0  0  0  0  0  0  0
   -5.1999   -1.3728   -2.1458 H   0  0  0  0  0  0  0  0  0  0  0  0
   -1.7161   -2.7035    1.1329 H   0  0  0  0  0  0  0  0  0  0  0  0
   -0.0962   -2.7214    0.4199 H   0  0  0  0  0  0  0  0  0  0  0  0
   -1.5050   -3.0333   -0.6133 H   0  0  0  0  0  0  0  0  0  0  0  0
   -1.0881   -1.2241   -2.2601 H   0  0  0  0  0  0  0  0  0  0  0  0
   -0.9106    0.4796   -1.7718 H   0  0  0  0  0  0  0  0  0  0  0  0
    1.2511   -0.2522   -2.4070 H   0  0  0  0  0  0  0  0  0  0  0  0
    1.0613   -2.4185   -2.3447 H   0  0  0  0  0  0  0  0  0  0  0  0
    1.0498   -1.2281    1.4494 H   0  0  0  0  0  0  0  0  0  0  0  0
    0.9502    0.5151    3.1720 H   0  0  0  0  0  0  0  0  0  0  0  0
    1.1852    1.8075    1.9492 H   0  0  0  0  0  0  0  0  0  0  0  0
    3.1598   -0.4140    2.7611 H   0  0  0  0  0  0  0  0  0  0  0  0
    3.2836    1.3450    3.0832 H   0  0  0  0  0  0  0  0  0  0  0  0
    5.1702    1.9184    1.8745 H   0  0  0  0  0  0  0  0  0  0  0  0
    5.7975   -0.3760   -1.3345 H   0  0  0  0  0  0  0  0  0  0  0  0
    5.6800    1.1174   -2.3278 H   0  0  0  0  0  0  0  0  0  0  0  0
    3.5674   -0.2318   -2.3514 H   0  0  0  0  0  0  0  0  0  0  0  0
    3.3661    1.4480   -1.7768 H   0  0  0  0  0  0  0  0  0  0  0  0
    4.6433   -1.5752    0.4119 H   0  0  0  0  0  0  0  0  0  0  0  0
    2.9759   -2.0659    0.7963 H   0  0  0  0  0  0  0  0  0  0  0  0
    3.5827   -2.1294   -0.8973 H   0  0  0  0  0  0  0  0  0  0  0  0
  1  2  1  0
  2  3  1  0
  3  4  1  0
  4  5  1  0
  5  6  1  0
  5  7  1  0
  5  8  1  0
  8  9  1  0
  9 10  1  6
 10 11  2  0
 10 12  1  0
 12 13  1  0
  9 14  1  0
 14 15  1  1
 14 16  1  0
 16 17  1  0
 17 18  1  0
 17 19  1  0
 19 20  1  6
 19 21  1  0
 21 22  1  0
 22 23  1  0
 23 24  1  0
 24 25  2  0
 25 26  1  0
 26 27  2  0
 26 28  1  0
 28 29  1  0
 29 30  1  0
 30 31  1  1
 14  1  1  0
 30 19  1  0
 21  1  1  0
 30 24  1  0
  9  3  1  0
  1 32  1  6
  2 33  1  0
  2 34  1  0
  3 35  1  1
  6 36  1  0
  6 37  1  0
  6 38  1  0
  7 39  1  0
  7 40  1  0
  7 41  1  0
 12 42  1  0
 12 43  1  0
 15 44  1  0
 15 45  1  0
 15 46  1  0
 16 47  1  0
 16 48  1  0
 17 49  1  6
 18 50  1  0
 21 51  1  1
 22 52  1  0
 22 53  1  0
 23 54  1  0
 23 55  1  0
 25 56  1  0
 28 57  1  0
 28 58  1  0
 29 59  1  0
 29 60  1  0
 31 61  1  0
 31 62  1  0
 31 63  1  0
M  END
$$$$
