
     RDKit          3D

 24 24  0  0  0  0  0  0  0  0999 V2000
   -4.5568   -1.1014    0.1429 N   0  0  0  0  0  0  0  0  0  0  0  0
   -3.1543   -0.8359    0.2291 C   0  0  0  0  0  0  0  0  0  0  0  0
   -2.2283   -1.8724    0.0572 C   0  0  0  0  0  0  0  0  0  0  0  0
   -0.8571   -1.6138    0.1423 C   0  0  0  0  0  0  0  0  0  0  0  0
   -0.3892   -0.3109    0.3927 C   0  0  0  0  0  0  0  0  0  0  0  0
   -1.3257    0.7233    0.5761 C   0  0  0  0  0  0  0  0  0  0  0  0
   -2.6967    0.4616    0.4916 C   0  0  0  0  0  0  0  0  0  0  0  0
    1.0684   -0.0530    0.4850 C   0  0  0  0  0  0  0  0  0  0  0  0
    1.8444   -1.0005    0.7885 O   0  0  0  0  0  0  0  0  0  0  0  0
    1.6123    1.2509    0.2184 N   0  0  0  0  0  0  0  0  0  0  0  0
    3.0274    1.5586    0.4095 C   0  0  0  0  0  0  0  0  0  0  0  0
    3.8400    0.9620   -0.6945 C   0  0  0  0  0  0  0  0  0  0  0  0
    4.6118   -0.1706   -0.4555 O   0  0  0  0  0  0  0  0  0  0  0  0
    3.8057    1.4698   -1.8471 O   0  0  0  0  0  0  0  0  0  0  0  0
   -5.2549   -0.3352    0.2714 H   0  0  0  0  0  0  0  0  0  0  0  0
   -4.9075   -2.0660   -0.0504 H   0  0  0  0  0  0  0  0  0  0  0  0
   -2.5685   -2.8807   -0.1429 H   0  0  0  0  0  0  0  0  0  0  0  0
   -0.1616   -2.4319    0.0009 H   0  0  0  0  0  0  0  0  0  0  0  0
   -1.0076    1.7302    0.8102 H   0  0  0  0  0  0  0  0  0  0  0  0
   -3.4027    1.2696    0.6375 H   0  0  0  0  0  0  0  0  0  0  0  0
    1.0023    2.0010   -0.1757 H   0  0  0  0  0  0  0  0  0  0  0  0
    3.3705    1.1767    1.3952 H   0  0  0  0  0  0  0  0  0  0  0  0
    3.1698    2.6608    0.4056 H   0  0  0  0  0  0  0  0  0  0  0  0
    5.1583   -0.5926   -1.1968 H   0  0  0  0  0  0  0  0  0  0  0  0
  1  2  1  0
  2  3  2  0
  3  4  1  0
  4  5  2  0
  5  6  1  0
  6  7  2  0
  5  8  1  0
  8  9  2  0
  8 10  1  0
 10 11  1  0
 11 12  1  0
 12 13  1  0
 12 14  2  0
  7  2  1  0
  1 15  1  0
  1 16  1  0
  3 17  1  0
  4 18  1  0
  6 19  1  0
  7 20  1  0
 10 21  1  0
 11 22  1  0
 11 23  1  0
 13 24  1  0
M  END
$$$$
