
     RDKit          3D

 73 76  0  0  0  0  0  0  0  0999 V2000
   -0.5683    0.3357    0.6977 C   0  0  2  0  0  0  0  0  0  0  0  0
    0.1884    1.2359    1.6596 C   0  0  0  0  0  0  0  0  0  0  0  0
    1.6198    0.6482    1.6707 C   0  0  2  0  0  0  0  0  0  0  0  0
    2.6735    1.7681    1.7929 C   0  0  0  0  0  0  0  0  0  0  0  0
    1.7200   -0.3367    0.4338 C   0  0  2  0  0  0  0  0  0  0  0  0
    1.5526   -1.6630    0.9816 O   0  0  0  0  0  0  0  0  0  0  0  0
    1.8581   -2.8881    0.3633 C   0  0  0  0  0  0  0  0  0  0  0  0
    2.3038   -2.9366   -0.8153 O   0  0  0  0  0  0  0  0  0  0  0  0
    1.5798   -4.1579    1.1000 C   0  0  0  0  0  0  0  0  0  0  0  0
    0.0912   -4.4823    1.0564 C   0  0  0  0  0  0  0  0  0  0  0  0
    3.0756   -0.2827   -0.2933 C   0  0  0  0  0  0  0  0  0  0  0  0
    3.1275   -0.0853   -1.4977 O   0  0  0  0  0  0  0  0  0  0  0  0
    4.3543   -0.6452    0.4212 C   0  0  0  0  0  0  0  0  0  0  0  0
    5.2643    0.4529    0.4114 O   0  0  0  0  0  0  0  0  0  0  0  0
    6.0213    0.8232   -0.7053 C   0  0  0  0  0  0  0  0  0  0  0  0
    6.0187    0.1188   -1.7516 O   0  0  0  0  0  0  0  0  0  0  0  0
    6.8081    2.0934   -0.6661 C   0  0  0  0  0  0  0  0  0  0  0  0
    5.9021    3.2882   -0.9392 C   0  0  0  0  0  0  0  0  0  0  0  0
    0.4481    0.0656   -0.4270 C   0  0  2  0  0  0  0  0  0  0  0  0
    0.7538    1.3512   -1.2817 C   0  0  0  0  0  0  0  0  0  0  0  0
   -0.1461   -1.0469   -1.3416 C   0  0  0  0  0  0  0  0  0  0  0  0
   -1.5806   -0.7413   -1.8682 C   0  0  2  0  0  0  0  0  0  0  0  0
   -1.5275    0.1543   -2.9483 O   0  0  0  0  0  0  0  0  0  0  0  0
   -2.5985   -0.3383   -0.7254 C   0  0  1  0  0  0  0  0  0  0  0  0
   -2.8275   -1.8546    0.2576 Cl  0  0  0  0  0  0  0  0  0  0  0  0
   -1.9797    0.7742    0.2109 C   0  0  1  0  0  0  0  0  0  0  0  0
   -2.9053    1.0803    1.4128 C   0  0  0  0  0  0  0  0  0  0  0  0
   -4.3141    1.4747    0.9647 C   0  0  0  0  0  0  0  0  0  0  0  0
   -4.8786    0.4445    0.0165 C   0  0  0  0  0  0  0  0  0  0  0  0
   -6.0897   -0.0832    0.2580 C   0  0  0  0  0  0  0  0  0  0  0  0
   -6.6535   -1.1059   -0.6231 C   0  0  0  0  0  0  0  0  0  0  0  0
   -7.7977   -1.5786   -0.3938 O   0  0  0  0  0  0  0  0  0  0  0  0
   -5.8745   -1.5881   -1.7612 C   0  0  0  0  0  0  0  0  0  0  0  0
   -4.6735   -1.0734   -2.0274 C   0  0  0  0  0  0  0  0  0  0  0  0
   -4.0526    0.0767   -1.2295 C   0  0  2  0  0  0  0  0  0  0  0  0
   -4.0965    1.3098   -2.1685 C   0  0  0  0  0  0  0  0  0  0  0  0
   -0.7239   -0.6115    1.2647 H   0  0  0  0  0  0  0  0  0  0  0  0
   -0.2590    1.2076    2.6773 H   0  0  0  0  0  0  0  0  0  0  0  0
    0.1732    2.2845    1.2872 H   0  0  0  0  0  0  0  0  0  0  0  0
    1.7158    0.0488    2.6055 H   0  0  0  0  0  0  0  0  0  0  0  0
    3.6303    1.3565    2.1695 H   0  0  0  0  0  0  0  0  0  0  0  0
    2.3427    2.5199    2.5411 H   0  0  0  0  0  0  0  0  0  0  0  0
    2.8578    2.2915    0.8369 H   0  0  0  0  0  0  0  0  0  0  0  0
    1.9021   -4.0448    2.1571 H   0  0  0  0  0  0  0  0  0  0  0  0
    2.1553   -4.9950    0.6483 H   0  0  0  0  0  0  0  0  0  0  0  0
   -0.0997   -5.4280    1.6057 H   0  0  0  0  0  0  0  0  0  0  0  0
   -0.4950   -3.6685    1.5352 H   0  0  0  0  0  0  0  0  0  0  0  0
   -0.2462   -4.6064    0.0050 H   0  0  0  0  0  0  0  0  0  0  0  0
    4.8184   -1.5346   -0.0574 H   0  0  0  0  0  0  0  0  0  0  0  0
    4.1378   -0.9163    1.4755 H   0  0  0  0  0  0  0  0  0  0  0  0
    7.2743    2.2051    0.3361 H   0  0  0  0  0  0  0  0  0  0  0  0
    7.6193    2.0620   -1.4256 H   0  0  0  0  0  0  0  0  0  0  0  0
    5.4346    3.1962   -1.9430 H   0  0  0  0  0  0  0  0  0  0  0  0
    5.1045    3.3521   -0.1682 H   0  0  0  0  0  0  0  0  0  0  0  0
    6.5006    4.2229   -0.9094 H   0  0  0  0  0  0  0  0  0  0  0  0
    1.0021    1.0882   -2.3317 H   0  0  0  0  0  0  0  0  0  0  0  0
    1.6118    1.9250   -0.8954 H   0  0  0  0  0  0  0  0  0  0  0  0
   -0.0622    2.0898   -1.3061 H   0  0  0  0  0  0  0  0  0  0  0  0
    0.5346   -1.2432   -2.1981 H   0  0  0  0  0  0  0  0  0  0  0  0
   -0.2261   -1.9953   -0.7793 H   0  0  0  0  0  0  0  0  0  0  0  0
   -1.9379   -1.6998   -2.3024 H   0  0  0  0  0  0  0  0  0  0  0  0
   -1.4895    1.0728   -2.5927 H   0  0  0  0  0  0  0  0  0  0  0  0
   -1.8927    1.7233   -0.3431 H   0  0  0  0  0  0  0  0  0  0  0  0
   -2.9669    0.2054    2.0956 H   0  0  0  0  0  0  0  0  0  0  0  0
   -2.4871    1.9264    1.9994 H   0  0  0  0  0  0  0  0  0  0  0  0
   -4.2822    2.4629    0.4588 H   0  0  0  0  0  0  0  0  0  0  0  0
   -4.9504    1.5923    1.8696 H   0  0  0  0  0  0  0  0  0  0  0  0
   -6.6619    0.2233    1.1258 H   0  0  0  0  0  0  0  0  0  0  0  0
   -6.2756   -2.3711   -2.3930 H   0  0  0  0  0  0  0  0  0  0  0  0
   -4.1522   -1.4440   -2.9008 H   0  0  0  0  0  0  0  0  0  0  0  0
   -3.7558    1.0674   -3.1959 H   0  0  0  0  0  0  0  0  0  0  0  0
   -5.1450    1.6651   -2.2777 H   0  0  0  0  0  0  0  0  0  0  0  0
   -3.5029    2.1620   -1.7861 H   0  0  0  0  0  0  0  0  0  0  0  0
  1  2  1  0
  2  3  1  0
  3  4  1  0
  3  5  1  0
  5  6  1  1
  6  7  1  0
  7  8  2  0
  7  9  1  0
  9 10  1  0
  5 11  1  0
 11 12  2  0
 11 13  1  0
 13 14  1  0
 14 15  1  0
 15 16  2  0
 15 17  1  0
 17 18  1  0
  5 19  1  0
 19 20  1  6
 19 21  1  0
 21 22  1  0
 22 23  1  0
 22 24  1  0
 24 25  1  1
 24 26  1  0
 26 27  1  0
 27 28  1  0
 28 29  1  0
 29 30  2  0
 30 31  1  0
 31 32  2  0
 31 33  1  0
 33 34  2  0
 34 35  1  0
 35 36  1  6
 19  1  1  0
 35 24  1  0
 26  1  1  0
 35 29  1  0
  1 37  1  1
  2 38  1  0
  2 39  1  0
  3 40  1  1
  4 41  1  0
  4 42  1  0
  4 43  1  0
  9 44  1  0
  9 45  1  0
 10 46  1  0
 10 47  1  0
 10 48  1  0
 13 49  1  0
 13 50  1  0
 17 51  1  0
 17 52  1  0
 18 53  1  0
 18 54  1  0
 18 55  1  0
 20 56  1  0
 20 57  1  0
 20 58  1  0
 21 59  1  0
 21 60  1  0
 22 61  1  6
 23 62  1  0
 26 63  1  6
 27 64  1  0
 27 65  1  0
 28 66  1  0
 28 67  1  0
 30 68  1  0
 33 69  1  0
 34 70  1  0
 36 71  1  0
 36 72  1  0
 36 73  1  0
M  END
$$$$
