
     RDKit          3D

 35 36  0  0  0  0  0  0  0  0999 V2000
   -2.9943   -3.1975    0.4062 C   0  0  0  0  0  0  0  0  0  0  0  0
   -2.3754   -1.9247    0.2512 O   0  0  0  0  0  0  0  0  0  0  0  0
   -3.0708   -0.7129    0.1079 C   0  0  0  0  0  0  0  0  0  0  0  0
   -4.4786   -0.6571    0.1131 C   0  0  0  0  0  0  0  0  0  0  0  0
   -5.1380    0.5651   -0.0317 C   0  0  0  0  0  0  0  0  0  0  0  0
   -4.4078    1.7436   -0.1937 C   0  0  0  0  0  0  0  0  0  0  0  0
   -5.0813    2.9527   -0.3530 O   0  0  0  0  0  0  0  0  0  0  0  0
   -3.0082    1.6995   -0.2004 C   0  0  0  0  0  0  0  0  0  0  0  0
   -2.3320    0.4776   -0.0338 C   0  0  0  0  0  0  0  0  0  0  0  0
   -0.8956    0.4217   -0.0691 N   0  0  0  0  0  0  0  0  0  0  0  0
   -0.0429    1.3558    0.6176 C   0  0  0  0  0  0  0  0  0  0  0  0
   -0.5417    2.3170    1.2623 O   0  0  0  0  0  0  0  0  0  0  0  0
    1.3846    1.2264    0.5634 N   0  0  0  0  0  0  0  0  0  0  0  0
    2.0687   -0.0342    0.4838 C   0  0  0  0  0  0  0  0  0  0  0  0
    1.4634   -1.0971    0.7897 O   0  0  0  0  0  0  0  0  0  0  0  0
    3.4905   -0.0857    0.0629 C   0  0  0  0  0  0  0  0  0  0  0  0
    3.9542    0.8452   -0.8859 C   0  0  0  0  0  0  0  0  0  0  0  0
    5.2807    0.8180   -1.3223 C   0  0  0  0  0  0  0  0  0  0  0  0
    6.1639   -0.1366   -0.8183 C   0  0  0  0  0  0  0  0  0  0  0  0
    7.4513   -0.1604   -1.2431 F   0  0  0  0  0  0  0  0  0  0  0  0
    5.7232   -1.0648    0.1266 C   0  0  0  0  0  0  0  0  0  0  0  0
    4.3953   -1.0491    0.5729 C   0  0  0  0  0  0  0  0  0  0  0  0
    3.9378   -2.2150    1.8120 Cl  0  0  0  0  0  0  0  0  0  0  0  0
   -3.6126   -3.2117    1.3285 H   0  0  0  0  0  0  0  0  0  0  0  0
   -3.6228   -3.4271   -0.4801 H   0  0  0  0  0  0  0  0  0  0  0  0
   -2.2075   -3.9744    0.4944 H   0  0  0  0  0  0  0  0  0  0  0  0
   -5.0728   -1.5531    0.2285 H   0  0  0  0  0  0  0  0  0  0  0  0
   -6.2203    0.5953   -0.0262 H   0  0  0  0  0  0  0  0  0  0  0  0
   -4.5814    3.8258   -0.4740 H   0  0  0  0  0  0  0  0  0  0  0  0
   -2.4524    2.6136   -0.3628 H   0  0  0  0  0  0  0  0  0  0  0  0
   -0.4583   -0.3725   -0.5862 H   0  0  0  0  0  0  0  0  0  0  0  0
    1.9556    2.0904    0.7033 H   0  0  0  0  0  0  0  0  0  0  0  0
    3.2846    1.5850   -1.3069 H   0  0  0  0  0  0  0  0  0  0  0  0
    5.6219    1.5367   -2.0563 H   0  0  0  0  0  0  0  0  0  0  0  0
    6.4190   -1.7955    0.5196 H   0  0  0  0  0  0  0  0  0  0  0  0
  1  2  1  0
  2  3  1  0
  3  4  2  0
  4  5  1  0
  5  6  2  0
  6  7  1  0
  6  8  1  0
  8  9  2  0
  9 10  1  0
 10 11  1  0
 11 12  2  0
 11 13  1  0
 13 14  1  0
 14 15  2  0
 14 16  1  0
 16 17  2  0
 17 18  1  0
 18 19  2  0
 19 20  1  0
 19 21  1  0
 21 22  2  0
 22 23  1  0
  9  3  1  0
 22 16  1  0
  1 24  1  0
  1 25  1  0
  1 26  1  0
  4 27  1  0
  5 28  1  0
  7 29  1  0
  8 30  1  0
 10 31  1  0
 13 32  1  0
 17 33  1  0
 18 34  1  0
 21 35  1  0
M  END
$$$$
