
     RDKit          3D

 94 98  0  0  0  0  0  0  0  0999 V2000
    0.6500   -1.9837   -3.5627 N   0  0  0  0  0  0  0  0  0  0  0  0
    2.0263   -2.0160   -3.1870 C   0  0  0  0  0  0  0  0  0  0  0  0
    2.7600   -1.0191   -3.4234 O   0  0  0  0  0  0  0  0  0  0  0  0
    2.6058   -3.2255   -2.5154 C   0  0  0  0  0  0  0  0  0  0  0  0
    2.4397   -3.2534   -0.9752 C   0  0  2  0  0  0  0  0  0  0  0  0
    1.0447   -3.1342   -0.5255 N   0  0  0  0  0  0  0  0  0  0  0  0
    0.0490   -4.1409   -0.7840 C   0  0  0  0  0  0  0  0  0  0  0  0
    0.2695   -5.0326   -1.6484 O   0  0  0  0  0  0  0  0  0  0  0  0
   -1.2086   -4.2167    0.0729 C   0  0  0  0  0  0  0  0  0  0  0  0
   -2.3529   -4.9583   -0.6771 C   0  0  0  0  0  0  0  0  0  0  0  0
   -3.5765   -5.1726    0.2227 C   0  0  0  0  0  0  0  0  0  0  0  0
   -3.1964   -5.9832    1.4651 C   0  0  0  0  0  0  0  0  0  0  0  0
   -2.0705   -5.2986    2.2459 C   0  0  0  0  0  0  0  0  0  0  0  0
   -0.8492   -5.0248    1.3503 C   0  0  0  0  0  0  0  0  0  0  0  0
   -1.6460   -2.8548    0.4482 N   0  0  0  0  0  0  0  0  0  0  0  0
   -2.0272   -1.8331   -0.4885 C   0  0  0  0  0  0  0  0  0  0  0  0
   -1.9335   -2.0392   -1.7289 O   0  0  0  0  0  0  0  0  0  0  0  0
   -2.5709   -0.5258    0.0335 C   0  0  0  0  0  0  0  0  0  0  0  0
   -2.7045    0.5748   -1.0477 C   0  0  2  0  0  0  0  0  0  0  0  0
   -1.3553    1.0095   -1.5749 C   0  0  0  0  0  0  0  0  0  0  0  0
   -0.4513    1.6589   -0.8217 C   0  0  0  0  0  0  0  0  0  0  0  0
    0.9035    2.0349   -1.3689 C   0  0  0  0  0  0  0  0  0  0  0  0
    2.0698    1.4139   -0.5646 C   0  0  2  0  0  0  0  0  0  0  0  0
    1.8997   -0.1225   -0.4073 C   0  0  0  0  0  0  0  0  0  0  0  0
    3.1917   -0.8180   -0.4185 N   0  0  0  0  0  0  0  0  0  0  0  0
    3.3486   -2.2427   -0.2927 C   0  0  0  0  0  0  0  0  0  0  0  0
    4.3495   -2.6776    0.3382 O   0  0  0  0  0  0  0  0  0  0  0  0
    2.2390    2.1236    0.8039 C   0  0  0  0  0  0  0  0  0  0  0  0
    3.5096    1.7036    1.5174 C   0  0  0  0  0  0  0  0  0  0  0  0
    3.4082    0.7354    2.5331 C   0  0  0  0  0  0  0  0  0  0  0  0
    4.5417    0.2708    3.1968 C   0  0  0  0  0  0  0  0  0  0  0  0
    5.8014    0.7596    2.8622 C   0  0  0  0  0  0  0  0  0  0  0  0
    5.9410    1.7223    1.8540 C   0  0  0  0  0  0  0  0  0  0  0  0
    7.2173    2.2032    1.5211 C   0  0  0  0  0  0  0  0  0  0  0  0
    7.3698    3.1565    0.5148 C   0  0  0  0  0  0  0  0  0  0  0  0
    6.2539    3.6381   -0.1676 C   0  0  0  0  0  0  0  0  0  0  0  0
    4.9761    3.1719    0.1508 C   0  0  0  0  0  0  0  0  0  0  0  0
    4.7938    2.2069    1.1664 C   0  0  0  0  0  0  0  0  0  0  0  0
   -3.5195    1.7765   -0.5920 C   0  0  0  0  0  0  0  0  0  0  0  0
   -4.3227    2.4527   -1.5278 C   0  0  0  0  0  0  0  0  0  0  0  0
   -5.0496    3.5868   -1.1568 C   0  0  0  0  0  0  0  0  0  0  0  0
   -4.9848    4.0713    0.1573 C   0  0  0  0  0  0  0  0  0  0  0  0
   -4.1659    3.4185    1.0896 C   0  0  0  0  0  0  0  0  0  0  0  0
   -3.4382    2.2843    0.7203 C   0  0  0  0  0  0  0  0  0  0  0  0
   -5.7323    5.3158    0.5448 C   0  0  0  0  0  0  0  0  0  0  0  0
   -4.6944    6.7826    0.2620 P   0  0  0  0  0  5  0  0  0  0  0  0
   -3.2967    6.6739    1.2095 O   0  0  0  0  0  0  0  0  0  0  0  0
   -4.2611    6.8716   -1.3719 O   0  0  0  0  0  0  0  0  0  0  0  0
   -5.4665    8.0241    0.6473 O   0  0  0  0  0  0  0  0  0  0  0  0
    0.0418   -2.8214   -3.4319 H   0  0  0  0  0  0  0  0  0  0  0  0
    0.2421   -1.1250   -3.9942 H   0  0  0  0  0  0  0  0  0  0  0  0
    2.1521   -4.1321   -2.9649 H   0  0  0  0  0  0  0  0  0  0  0  0
    3.6895   -3.2855   -2.7594 H   0  0  0  0  0  0  0  0  0  0  0  0
    2.7912   -4.2607   -0.6557 H   0  0  0  0  0  0  0  0  0  0  0  0
    0.8387   -2.4737    0.2527 H   0  0  0  0  0  0  0  0  0  0  0  0
   -2.6639   -4.4010   -1.5842 H   0  0  0  0  0  0  0  0  0  0  0  0
   -2.0005   -5.9566   -1.0207 H   0  0  0  0  0  0  0  0  0  0  0  0
   -4.0051   -4.1923    0.5256 H   0  0  0  0  0  0  0  0  0  0  0  0
   -4.3566   -5.7231   -0.3461 H   0  0  0  0  0  0  0  0  0  0  0  0
   -2.8729   -7.0033    1.1617 H   0  0  0  0  0  0  0  0  0  0  0  0
   -4.0870   -6.0884    2.1215 H   0  0  0  0  0  0  0  0  0  0  0  0
   -1.7623   -5.9558    3.0874 H   0  0  0  0  0  0  0  0  0  0  0  0
   -2.4481   -4.3522    2.6877 H   0  0  0  0  0  0  0  0  0  0  0  0
   -0.0856   -4.4748    1.9437 H   0  0  0  0  0  0  0  0  0  0  0  0
   -0.4003   -6.0024    1.0622 H   0  0  0  0  0  0  0  0  0  0  0  0
   -1.6477   -2.5826    1.4572 H   0  0  0  0  0  0  0  0  0  0  0  0
   -1.9040   -0.1813    0.8520 H   0  0  0  0  0  0  0  0  0  0  0  0
   -3.5719   -0.7282    0.4718 H   0  0  0  0  0  0  0  0  0  0  0  0
   -3.2566    0.1141   -1.8979 H   0  0  0  0  0  0  0  0  0  0  0  0
   -1.1165    0.7645   -2.6063 H   0  0  0  0  0  0  0  0  0  0  0  0
   -0.6849    1.9183    0.2047 H   0  0  0  0  0  0  0  0  0  0  0  0
    0.9982    1.7124   -2.4301 H   0  0  0  0  0  0  0  0  0  0  0  0
    0.9906    3.1426   -1.3700 H   0  0  0  0  0  0  0  0  0  0  0  0
    2.9802    1.6084   -1.1730 H   0  0  0  0  0  0  0  0  0  0  0  0
    1.2688   -0.5123   -1.2269 H   0  0  0  0  0  0  0  0  0  0  0  0
    1.3702   -0.3384    0.5443 H   0  0  0  0  0  0  0  0  0  0  0  0
    4.0693   -0.2535   -0.3640 H   0  0  0  0  0  0  0  0  0  0  0  0
    2.2351    3.2263    0.6757 H   0  0  0  0  0  0  0  0  0  0  0  0
    1.3564    1.9089    1.4451 H   0  0  0  0  0  0  0  0  0  0  0  0
    2.4434    0.3274    2.8084 H   0  0  0  0  0  0  0  0  0  0  0  0
    4.4426   -0.4767    3.9734 H   0  0  0  0  0  0  0  0  0  0  0  0
    6.6689    0.3822    3.3907 H   0  0  0  0  0  0  0  0  0  0  0  0
    8.0974    1.8401    2.0387 H   0  0  0  0  0  0  0  0  0  0  0  0
    8.3566    3.5226    0.2623 H   0  0  0  0  0  0  0  0  0  0  0  0
    6.3789    4.3770   -0.9487 H   0  0  0  0  0  0  0  0  0  0  0  0
    4.1457    3.5755   -0.4097 H   0  0  0  0  0  0  0  0  0  0  0  0
   -4.3815    2.1053   -2.5520 H   0  0  0  0  0  0  0  0  0  0  0  0
   -5.6567    4.0928   -1.8974 H   0  0  0  0  0  0  0  0  0  0  0  0
   -4.0836    3.7941    2.1022 H   0  0  0  0  0  0  0  0  0  0  0  0
   -2.8087    1.8161    1.4636 H   0  0  0  0  0  0  0  0  0  0  0  0
   -6.6644    5.4098   -0.0523 H   0  0  0  0  0  0  0  0  0  0  0  0
   -6.0203    5.2763    1.6171 H   0  0  0  0  0  0  0  0  0  0  0  0
   -2.7422    7.4458    0.9311 H   0  0  0  0  0  0  0  0  0  0  0  0
   -5.1215    6.8920   -1.8621 H   0  0  0  0  0  0  0  0  0  0  0  0
  1  2  1  0
  2  3  2  0
  2  4  1  0
  4  5  1  0
  5  6  1  0
  6  7  1  0
  7  8  2  0
  7  9  1  0
  9 10  1  0
 10 11  1  0
 11 12  1  0
 12 13  1  0
 13 14  1  0
  9 15  1  0
 15 16  1  0
 16 17  2  0
 16 18  1  0
 18 19  1  0
 19 20  1  0
 20 21  2  0
 21 22  1  0
 22 23  1  0
 23 24  1  0
 24 25  1  0
 25 26  1  0
 26 27  2  0
 23 28  1  0
 28 29  1  0
 29 30  2  0
 30 31  1  0
 31 32  2  0
 32 33  1  0
 33 34  2  0
 34 35  1  0
 35 36  2  0
 36 37  1  0
 37 38  2  0
 19 39  1  0
 39 40  2  0
 40 41  1  0
 41 42  2  0
 42 43  1  0
 43 44  2  0
 42 45  1  0
 45 46  1  0
 46 47  1  0
 46 48  1  0
 46 49  2  0
 26  5  1  0
 38 29  1  0
 44 39  1  0
 14  9  1  0
 38 33  1  0
  1 50  1  0
  1 51  1  0
  4 52  1  0
  4 53  1  0
  5 54  1  1
  6 55  1  0
 10 56  1  0
 10 57  1  0
 11 58  1  0
 11 59  1  0
 12 60  1  0
 12 61  1  0
 13 62  1  0
 13 63  1  0
 14 64  1  0
 14 65  1  0
 15 66  1  0
 18 67  1  0
 18 68  1  0
 19 69  1  6
 20 70  1  0
 21 71  1  0
 22 72  1  0
 22 73  1  0
 23 74  1  6
 24 75  1  0
 24 76  1  0
 25 77  1  0
 28 78  1  0
 28 79  1  0
 30 80  1  0
 31 81  1  0
 32 82  1  0
 34 83  1  0
 35 84  1  0
 36 85  1  0
 37 86  1  0
 40 87  1  0
 41 88  1  0
 43 89  1  0
 44 90  1  0
 45 91  1  0
 45 92  1  0
 47 93  1  0
 48 94  1  0
M  END
$$$$
