
     RDKit          3D

 40 42  0  0  0  0  0  0  0  0999 V2000
   -2.8616    0.0783    3.8012 C   0  0  0  0  0  0  0  0  0  0  0  0
   -2.2834   -0.0798    2.4273 C   0  0  0  0  0  0  0  0  0  0  0  0
   -0.9745   -0.5568    2.2317 C   0  0  0  0  0  0  0  0  0  0  0  0
    0.0389   -0.9818    3.6145 Cl  0  0  0  0  0  0  0  0  0  0  0  0
   -0.5001   -0.6779    0.9110 C   0  0  0  0  0  0  0  0  0  0  0  0
    0.8262   -1.1583    0.6331 N   0  0  0  0  0  0  0  0  0  0  0  0
    1.3316   -1.2400   -0.7392 C   0  0  0  0  0  0  0  0  0  0  0  0
    2.7954   -1.6984   -0.7795 C   0  0  0  0  0  0  0  0  0  0  0  0
    3.7171   -0.6681   -0.1773 C   0  0  0  0  0  0  0  0  0  0  0  0
    4.0539    0.4873   -0.9029 C   0  0  0  0  0  0  0  0  0  0  0  0
    4.8900    1.4556   -0.3384 C   0  0  0  0  0  0  0  0  0  0  0  0
    5.3929    1.2797    0.9535 C   0  0  0  0  0  0  0  0  0  0  0  0
    5.0602    0.1353    1.6834 C   0  0  0  0  0  0  0  0  0  0  0  0
    4.2248   -0.8358    1.1226 C   0  0  0  0  0  0  0  0  0  0  0  0
   -1.3151   -0.3307   -0.1214 N   0  0  0  0  0  0  0  0  0  0  0  0
   -2.5768    0.1293    0.0836 C   0  0  0  0  0  0  0  0  0  0  0  0
   -3.0464    0.2493    1.3521 N   0  0  0  0  0  0  0  0  0  0  0  0
   -3.4374    0.4986   -1.0570 C   0  0  0  0  0  0  0  0  0  0  0  0
   -4.6997    0.9557   -0.8216 N   0  0  0  0  0  0  0  0  0  0  0  0
   -5.5388    1.3115   -1.8308 C   0  0  0  0  0  0  0  0  0  0  0  0
   -5.1169    1.2143   -3.1578 C   0  0  0  0  0  0  0  0  0  0  0  0
   -3.8301    0.7499   -3.4317 C   0  0  0  0  0  0  0  0  0  0  0  0
   -2.9819    0.3890   -2.3825 C   0  0  0  0  0  0  0  0  0  0  0  0
   -3.9027    0.4617    3.7451 H   0  0  0  0  0  0  0  0  0  0  0  0
   -2.2524    0.7987    4.3864 H   0  0  0  0  0  0  0  0  0  0  0  0
   -2.8758   -0.9031    4.3201 H   0  0  0  0  0  0  0  0  0  0  0  0
    1.4412   -1.4657    1.4181 H   0  0  0  0  0  0  0  0  0  0  0  0
    0.7138   -1.9672   -1.3089 H   0  0  0  0  0  0  0  0  0  0  0  0
    1.2378   -0.2475   -1.2321 H   0  0  0  0  0  0  0  0  0  0  0  0
    2.8953   -2.6736   -0.2541 H   0  0  0  0  0  0  0  0  0  0  0  0
    3.0880   -1.8715   -1.8379 H   0  0  0  0  0  0  0  0  0  0  0  0
    3.6672    0.6375   -1.9033 H   0  0  0  0  0  0  0  0  0  0  0  0
    5.1466    2.3432   -0.9020 H   0  0  0  0  0  0  0  0  0  0  0  0
    6.0392    2.0306    1.3894 H   0  0  0  0  0  0  0  0  0  0  0  0
    5.4487    0.0012    2.6846 H   0  0  0  0  0  0  0  0  0  0  0  0
    3.9739   -1.7157    1.7018 H   0  0  0  0  0  0  0  0  0  0  0  0
   -6.5336    1.6698   -1.6023 H   0  0  0  0  0  0  0  0  0  0  0  0
   -5.7805    1.4961   -3.9650 H   0  0  0  0  0  0  0  0  0  0  0  0
   -3.4898    0.6695   -4.4560 H   0  0  0  0  0  0  0  0  0  0  0  0
   -1.9852    0.0299   -2.6063 H   0  0  0  0  0  0  0  0  0  0  0  0
  1  2  1  0
  2  3  2  0
  3  4  1  0
  3  5  1  0
  5  6  1  0
  6  7  1  0
  7  8  1  0
  8  9  1  0
  9 10  2  0
 10 11  1  0
 11 12  2  0
 12 13  1  0
 13 14  2  0
  5 15  2  0
 15 16  1  0
 16 17  2  0
 16 18  1  0
 18 19  2  0
 19 20  1  0
 20 21  2  0
 21 22  1  0
 22 23  2  0
 17  2  1  0
 23 18  1  0
 14  9  1  0
  1 24  1  0
  1 25  1  0
  1 26  1  0
  6 27  1  0
  7 28  1  0
  7 29  1  0
  8 30  1  0
  8 31  1  0
 10 32  1  0
 11 33  1  0
 12 34  1  0
 13 35  1  0
 14 36  1  0
 20 37  1  0
 21 38  1  0
 22 39  1  0
 23 40  1  0
M  END
$$$$
