
     RDKit          3D

 41 43  0  0  0  0  0  0  0  0999 V2000
    1.8467   -1.2985    2.6423 C   0  0  0  0  0  0  0  0  0  0  0  0
    2.0239    0.1635    2.2399 C   0  0  0  0  0  0  0  0  0  0  0  0
    2.2932    0.2790    0.7914 N   0  0  0  0  0  0  0  0  0  0  0  0
    3.6059    0.3514    0.4096 C   0  0  0  0  0  0  0  0  0  0  0  0
    3.9807    0.4786   -0.9345 C   0  0  0  0  0  0  0  0  0  0  0  0
    5.4258    0.5649   -1.2818 C   0  0  0  0  0  0  0  0  0  0  0  0
    6.3904    0.5291   -0.2775 O   0  0  0  0  0  0  0  0  0  0  0  0
    5.7993    0.6704   -2.4813 O   0  0  0  0  0  0  0  0  0  0  0  0
    2.9708    0.5208   -1.9116 C   0  0  0  0  0  0  0  0  0  0  0  0
    3.2729    0.6446   -3.1314 O   0  0  0  0  0  0  0  0  0  0  0  0
    1.6208    0.4192   -1.5313 C   0  0  0  0  0  0  0  0  0  0  0  0
    0.5997    0.4446   -2.4996 C   0  0  0  0  0  0  0  0  0  0  0  0
   -0.7381    0.3259   -2.1309 C   0  0  0  0  0  0  0  0  0  0  0  0
   -1.6899    0.3901   -3.0952 F   0  0  0  0  0  0  0  0  0  0  0  0
   -1.0900    0.1711   -0.7824 C   0  0  0  0  0  0  0  0  0  0  0  0
   -0.0779    0.1528    0.1912 C   0  0  0  0  0  0  0  0  0  0  0  0
    1.2885    0.2851   -0.1580 C   0  0  0  0  0  0  0  0  0  0  0  0
   -2.4726    0.0302   -0.3915 N   0  0  0  0  0  0  0  0  0  0  0  0
   -3.3686   -0.8739   -1.1228 C   0  0  0  0  0  0  0  0  0  0  0  0
   -4.4501   -1.4132   -0.1803 C   0  0  0  0  0  0  0  0  0  0  0  0
   -5.2337   -0.3371    0.4568 N   0  0  0  0  0  0  0  0  0  0  0  0
   -4.4982    0.9240    0.6811 C   0  0  0  0  0  0  0  0  0  0  0  0
   -2.9817    0.7250    0.7973 C   0  0  0  0  0  0  0  0  0  0  0  0
    1.0030   -1.7605    2.0894 H   0  0  0  0  0  0  0  0  0  0  0  0
    1.6380   -1.3631    3.7308 H   0  0  0  0  0  0  0  0  0  0  0  0
    2.7753   -1.8665    2.4217 H   0  0  0  0  0  0  0  0  0  0  0  0
    2.8632    0.5895    2.8341 H   0  0  0  0  0  0  0  0  0  0  0  0
    1.1422    0.7677    2.5372 H   0  0  0  0  0  0  0  0  0  0  0  0
    4.3828    0.3135    1.1651 H   0  0  0  0  0  0  0  0  0  0  0  0
    7.3770    0.5867   -0.5004 H   0  0  0  0  0  0  0  0  0  0  0  0
    0.8331    0.5591   -3.5513 H   0  0  0  0  0  0  0  0  0  0  0  0
   -0.3806    0.0029    1.2145 H   0  0  0  0  0  0  0  0  0  0  0  0
   -2.7941   -1.7334   -1.5327 H   0  0  0  0  0  0  0  0  0  0  0  0
   -3.8479   -0.3271   -1.9627 H   0  0  0  0  0  0  0  0  0  0  0  0
   -5.1400   -2.0664   -0.7555 H   0  0  0  0  0  0  0  0  0  0  0  0
   -3.9631   -2.0408    0.6004 H   0  0  0  0  0  0  0  0  0  0  0  0
   -5.5784   -0.6917    1.3799 H   0  0  0  0  0  0  0  0  0  0  0  0
   -4.8734    1.4235    1.6016 H   0  0  0  0  0  0  0  0  0  0  0  0
   -4.7046    1.6088   -0.1695 H   0  0  0  0  0  0  0  0  0  0  0  0
   -2.4977    1.7218    0.8916 H   0  0  0  0  0  0  0  0  0  0  0  0
   -2.7525    0.1282    1.7064 H   0  0  0  0  0  0  0  0  0  0  0  0
  1  2  1  0
  2  3  1  0
  3  4  1  0
  4  5  2  0
  5  6  1  0
  6  7  1  0
  6  8  2  0
  5  9  1  0
  9 10  2  0
  9 11  1  0
 11 12  2  0
 12 13  1  0
 13 14  1  0
 13 15  2  0
 15 16  1  0
 16 17  2  0
 15 18  1  0
 18 19  1  0
 19 20  1  0
 20 21  1  0
 21 22  1  0
 22 23  1  0
 17  3  1  0
 23 18  1  0
 17 11  1  0
  1 24  1  0
  1 25  1  0
  1 26  1  0
  2 27  1  0
  2 28  1  0
  4 29  1  0
  7 30  1  0
 12 31  1  0
 16 32  1  0
 19 33  1  0
 19 34  1  0
 20 35  1  0
 20 36  1  0
 21 37  1  0
 22 38  1  0
 22 39  1  0
 23 40  1  0
 23 41  1  0
M  END
$$$$
