
     RDKit          3D

 56 58  0  0  0  0  0  0  0  0999 V2000
   -0.6980    0.1844   -0.2943 C   0  0  2  0  0  0  0  0  0  0  0  0
   -0.5074   -1.2133    0.3010 C   0  0  0  0  0  0  0  0  0  0  0  0
   -2.0940    0.7637    0.0537 C   0  0  0  0  0  0  0  0  0  0  0  0
   -3.2087    0.1671   -0.7258 N   0  0  0  0  0  0  0  0  0  0  0  0
   -4.0064   -0.8134    0.0435 C   0  0  0  0  0  0  0  0  0  0  0  0
   -5.1878   -0.1045    0.7266 C   0  0  0  0  0  0  0  0  0  0  0  0
   -6.4006    0.1923   -0.1474 C   0  0  0  0  0  0  0  0  0  0  0  0
   -6.4664   -0.9184    0.8939 C   0  0  0  0  0  0  0  0  0  0  0  0
   -4.9145    0.8731    1.8326 C   0  0  0  0  0  0  0  0  0  0  0  0
   -4.6485    0.4057    3.1540 N   0  0  0  0  0  0  0  0  0  0  0  0
   -4.8782    2.1081    1.5862 O   0  0  0  0  0  0  0  0  0  0  0  0
   -2.8189   -0.3418   -2.0584 C   0  0  0  0  0  0  0  0  0  0  0  0
   -1.6013    0.4018   -2.6022 C   0  0  0  0  0  0  0  0  0  0  0  0
   -0.4271    0.1313   -1.7560 N   0  0  0  0  0  0  0  0  0  0  0  0
    0.8812    1.1980   -2.2044 S   0  0  0  0  0  6  0  0  0  0  0  0
    0.5349    2.6126   -1.8274 O   0  0  0  0  0  0  0  0  0  0  0  0
    1.1130    1.1340   -3.6884 O   0  0  0  0  0  0  0  0  0  0  0  0
    2.3517    0.6881   -1.3802 C   0  0  0  0  0  0  0  0  0  0  0  0
    2.9700    1.5157   -0.4367 C   0  0  0  0  0  0  0  0  0  0  0  0
    4.1177    1.0849    0.2343 C   0  0  0  0  0  0  0  0  0  0  0  0
    4.6836   -0.1791   -0.0391 C   0  0  0  0  0  0  0  0  0  0  0  0
    4.0281   -1.0142   -0.9684 C   0  0  0  0  0  0  0  0  0  0  0  0
    2.8813   -0.5795   -1.6371 C   0  0  0  0  0  0  0  0  0  0  0  0
    5.9115   -0.6896    0.7303 C   0  0  2  0  0  0  0  0  0  0  0  0
    6.9429    0.4369    0.9836 C   0  0  0  0  0  0  0  0  0  0  0  0
    6.5545   -1.7110    0.0010 O   0  0  0  0  0  0  0  0  0  0  0  0
    5.4530   -1.2936    2.0755 C   0  0  0  0  0  0  0  0  0  0  0  0
    6.5430   -1.7834    2.7750 F   0  0  0  0  0  0  0  0  0  0  0  0
    4.8182   -0.3402    2.8539 F   0  0  0  0  0  0  0  0  0  0  0  0
    4.5730   -2.3389    1.8514 F   0  0  0  0  0  0  0  0  0  0  0  0
    0.0408    0.8349    0.2260 H   0  0  0  0  0  0  0  0  0  0  0  0
   -1.1954   -1.9459   -0.1674 H   0  0  0  0  0  0  0  0  0  0  0  0
    0.5355   -1.5540    0.1275 H   0  0  0  0  0  0  0  0  0  0  0  0
   -0.6883   -1.1962    1.3969 H   0  0  0  0  0  0  0  0  0  0  0  0
   -2.2663    0.6893    1.1499 H   0  0  0  0  0  0  0  0  0  0  0  0
   -2.0749    1.8532   -0.1650 H   0  0  0  0  0  0  0  0  0  0  0  0
   -4.3978   -1.6185   -0.6200 H   0  0  0  0  0  0  0  0  0  0  0  0
   -3.3906   -1.3260    0.8145 H   0  0  0  0  0  0  0  0  0  0  0  0
   -6.3463   -0.1797   -1.1930 H   0  0  0  0  0  0  0  0  0  0  0  0
   -6.9936    1.0911    0.1270 H   0  0  0  0  0  0  0  0  0  0  0  0
   -6.4663   -1.9380    0.4530 H   0  0  0  0  0  0  0  0  0  0  0  0
   -7.1005   -0.6609    1.7696 H   0  0  0  0  0  0  0  0  0  0  0  0
   -4.6491   -0.6169    3.3650 H   0  0  0  0  0  0  0  0  0  0  0  0
   -4.4424    1.0828    3.9216 H   0  0  0  0  0  0  0  0  0  0  0  0
   -3.6705   -0.2007   -2.7581 H   0  0  0  0  0  0  0  0  0  0  0  0
   -2.5797   -1.4285   -2.0251 H   0  0  0  0  0  0  0  0  0  0  0  0
   -1.3982    0.0446   -3.6348 H   0  0  0  0  0  0  0  0  0  0  0  0
   -1.8243    1.4918   -2.6464 H   0  0  0  0  0  0  0  0  0  0  0  0
    2.5588    2.4898   -0.2061 H   0  0  0  0  0  0  0  0  0  0  0  0
    4.5491    1.7424    0.9752 H   0  0  0  0  0  0  0  0  0  0  0  0
    4.3947   -2.0115   -1.1742 H   0  0  0  0  0  0  0  0  0  0  0  0
    2.3961   -1.2386   -2.3462 H   0  0  0  0  0  0  0  0  0  0  0  0
    7.8989    0.0043    1.3493 H   0  0  0  0  0  0  0  0  0  0  0  0
    6.5910    1.1600    1.7483 H   0  0  0  0  0  0  0  0  0  0  0  0
    7.1542    0.9868    0.0413 H   0  0  0  0  0  0  0  0  0  0  0  0
    6.8653   -1.3222   -0.8595 H   0  0  0  0  0  0  0  0  0  0  0  0
  1  2  1  0
  1  3  1  0
  3  4  1  0
  4  5  1  0
  5  6  1  0
  6  7  1  0
  7  8  1  0
  6  9  1  0
  9 10  1  0
  9 11  2  0
  4 12  1  0
 12 13  1  0
 13 14  1  0
 14 15  1  0
 15 16  2  0
 15 17  2  0
 15 18  1  0
 18 19  2  0
 19 20  1  0
 20 21  2  0
 21 22  1  0
 22 23  2  0
 21 24  1  0
 24 25  1  0
 24 26  1  6
 24 27  1  0
 27 28  1  0
 27 29  1  0
 27 30  1  0
 14  1  1  0
 23 18  1  0
  8  6  1  0
  1 31  1  1
  2 32  1  0
  2 33  1  0
  2 34  1  0
  3 35  1  0
  3 36  1  0
  5 37  1  0
  5 38  1  0
  7 39  1  0
  7 40  1  0
  8 41  1  0
  8 42  1  0
 10 43  1  0
 10 44  1  0
 12 45  1  0
 12 46  1  0
 13 47  1  0
 13 48  1  0
 19 49  1  0
 20 50  1  0
 22 51  1  0
 23 52  1  0
 25 53  1  0
 25 54  1  0
 25 55  1  0
 26 56  1  0
M  END
$$$$
