
     RDKit          3D

  9  8  0  0  0  0  0  0  0  0999 V2000
   -1.1242    0.5852    1.1270 O   0  0  0  0  0  0  0  0  0  0  0  0
   -0.6550   -0.3328    0.1811 C   0  0  0  0  0  0  0  0  0  0  0  0
    0.8033   -0.1096   -0.0411 C   0  0  0  0  0  0  0  0  0  0  0  0
    1.2268    0.7688   -1.0334 O   0  0  0  0  0  0  0  0  0  0  0  0
    1.6489   -0.6825    0.6967 O   0  0  0  0  0  0  0  0  0  0  0  0
   -2.0924    0.3963    1.2361 H   0  0  0  0  0  0  0  0  0  0  0  0
   -0.8224   -1.3717    0.5435 H   0  0  0  0  0  0  0  0  0  0  0  0
   -1.1979   -0.1974   -0.7805 H   0  0  0  0  0  0  0  0  0  0  0  0
    2.2129    0.9438   -1.1859 H   0  0  0  0  0  0  0  0  0  0  0  0
  1  2  1  0
  2  3  1  0
  3  4  1  0
  3  5  2  0
  1  6  1  0
  2  7  1  0
  2  8  1  0
  4  9  1  0
M  END
$$$$
