
     RDKit          3D

 35 37  0  0  0  0  0  0  0  0999 V2000
   -1.7778   -0.4887   -1.3093 C   0  0  1  0  0  0  0  0  0  0  0  0
   -2.7598   -1.2676   -2.1901 C   0  0  0  0  0  0  0  0  0  0  0  0
   -2.5106    0.4833   -0.4255 C   0  0  0  0  0  0  0  0  0  0  0  0
   -2.3812    1.8585   -0.4693 C   0  0  0  0  0  0  0  0  0  0  0  0
   -3.2102    2.3553    0.5166 C   0  0  0  0  0  0  0  0  0  0  0  0
   -3.8065    1.2649    1.1183 C   0  0  0  0  0  0  0  0  0  0  0  0
   -3.3775    0.1277    0.5427 N   0  0  0  0  0  0  0  0  0  0  0  0
   -0.9058   -1.3935   -0.4682 C   0  0  0  0  0  0  0  0  0  0  0  0
    0.2948   -1.1139    0.0320 C   0  0  0  0  0  0  0  0  0  0  0  0
    1.0827    0.0266   -0.1539 C   0  0  0  0  0  0  0  0  0  0  0  0
    2.3372    0.0965    0.4848 C   0  0  0  0  0  0  0  0  0  0  0  0
    3.1439    1.2745    0.3144 N   0  0  0  0  0  0  0  0  0  0  0  0
    4.5792    1.2720    0.2861 C   0  0  0  0  0  0  0  0  0  0  0  0
    5.2920    2.5078    0.3102 N   0  0  0  0  0  0  0  0  0  0  0  0
    5.2196    0.1899    0.2018 O   0  0  0  0  0  0  0  0  0  0  0  0
    2.7520   -0.9642    1.3290 C   0  0  0  0  0  0  0  0  0  0  0  0
    1.9403   -2.0949    1.5133 C   0  0  0  0  0  0  0  0  0  0  0  0
    0.7134   -2.1484    0.8557 C   0  0  0  0  0  0  0  0  0  0  0  0
   -0.1435   -3.1123    0.9653 N   0  0  0  0  0  0  0  0  0  0  0  0
   -1.2228   -2.6832    0.1433 C   0  0  0  0  0  0  0  0  0  0  0  0
   -2.2896   -3.3353   -0.0008 O   0  0  0  0  0  0  0  0  0  0  0  0
   -1.1190    0.0799   -2.0017 H   0  0  0  0  0  0  0  0  0  0  0  0
   -3.5385   -1.7735   -1.5818 H   0  0  0  0  0  0  0  0  0  0  0  0
   -3.2683   -0.5711   -2.8906 H   0  0  0  0  0  0  0  0  0  0  0  0
   -2.2156   -2.0277   -2.7905 H   0  0  0  0  0  0  0  0  0  0  0  0
   -1.7528    2.4336   -1.1365 H   0  0  0  0  0  0  0  0  0  0  0  0
   -3.3603    3.3959    0.7705 H   0  0  0  0  0  0  0  0  0  0  0  0
   -4.5140    1.3026    1.9360 H   0  0  0  0  0  0  0  0  0  0  0  0
   -3.6616   -0.8420    0.8058 H   0  0  0  0  0  0  0  0  0  0  0  0
    0.7451    0.8416   -0.7813 H   0  0  0  0  0  0  0  0  0  0  0  0
    2.6584    2.1772    0.1097 H   0  0  0  0  0  0  0  0  0  0  0  0
    4.7794    3.4152    0.3709 H   0  0  0  0  0  0  0  0  0  0  0  0
    6.3354    2.5161    0.2726 H   0  0  0  0  0  0  0  0  0  0  0  0
    3.6862   -0.9047    1.8708 H   0  0  0  0  0  0  0  0  0  0  0  0
    2.2558   -2.8979    2.1675 H   0  0  0  0  0  0  0  0  0  0  0  0
  1  2  1  0
  1  3  1  0
  3  4  2  0
  4  5  1  0
  5  6  2  0
  6  7  1  0
  1  8  1  0
  8  9  2  0
  9 10  1  0
 10 11  2  0
 11 12  1  0
 12 13  1  0
 13 14  1  0
 13 15  2  0
 11 16  1  0
 16 17  2  0
 17 18  1  0
 18 19  2  0
 19 20  1  0
 20 21  2  0
  7  3  1  0
 20  8  1  0
 18  9  1  0
  1 22  1  6
  2 23  1  0
  2 24  1  0
  2 25  1  0
  4 26  1  0
  5 27  1  0
  6 28  1  0
  7 29  1  0
 10 30  1  0
 12 31  1  0
 14 32  1  0
 14 33  1  0
 16 34  1  0
 17 35  1  0
M  END
$$$$
