
     RDKit          3D

 30 31  0  0  0  0  0  0  0  0999 V2000
   -4.5964    0.3483    0.6387 C   0  0  0  0  0  0  0  0  0  0  0  0
   -3.4765    0.0223   -0.3586 C   0  0  0  0  0  0  0  0  0  0  0  0
   -3.0497   -1.4496   -0.2200 C   0  0  0  0  0  0  0  0  0  0  0  0
   -2.2954    1.0171   -0.2140 C   0  0  1  0  0  0  0  0  0  0  0  0
   -1.4074    0.8404    1.3829 S   0  0  0  0  0  0  0  0  0  0  0  0
    0.1114    0.4920    0.4929 C   0  0  0  0  0  0  0  0  0  0  0  0
    1.3129    0.1292    1.1870 N   0  0  0  0  0  0  0  0  0  0  0  0
    2.6021    0.0035    0.5616 C   0  0  0  0  0  0  0  0  0  0  0  0
    3.5037   -0.9747    1.0168 C   0  0  0  0  0  0  0  0  0  0  0  0
    3.1491   -1.8237    2.0142 F   0  0  0  0  0  0  0  0  0  0  0  0
    4.7695   -1.0937    0.4333 C   0  0  0  0  0  0  0  0  0  0  0  0
    5.1515   -0.2304   -0.5964 C   0  0  0  0  0  0  0  0  0  0  0  0
    4.2714    0.7590   -1.0405 C   0  0  0  0  0  0  0  0  0  0  0  0
    3.0046    0.8821   -0.4619 C   0  0  0  0  0  0  0  0  0  0  0  0
    0.0416    0.5029   -0.7949 N   0  0  0  0  0  0  0  0  0  0  0  0
   -1.2552    0.8167   -1.2649 C   0  0  0  0  0  0  0  0  0  0  0  0
   -1.4994    0.9282   -2.4952 O   0  0  0  0  0  0  0  0  0  0  0  0
   -4.2538    0.1982    1.6845 H   0  0  0  0  0  0  0  0  0  0  0  0
   -4.9259    1.4021    0.5160 H   0  0  0  0  0  0  0  0  0  0  0  0
   -5.4733   -0.3090    0.4560 H   0  0  0  0  0  0  0  0  0  0  0  0
   -3.9045    0.1505   -1.3780 H   0  0  0  0  0  0  0  0  0  0  0  0
   -2.2617   -1.7007   -0.9605 H   0  0  0  0  0  0  0  0  0  0  0  0
   -2.6661   -1.6617    0.8002 H   0  0  0  0  0  0  0  0  0  0  0  0
   -3.9183   -2.1150   -0.4119 H   0  0  0  0  0  0  0  0  0  0  0  0
   -2.6719    2.0599   -0.2930 H   0  0  0  0  0  0  0  0  0  0  0  0
    1.2222   -0.1307    2.1948 H   0  0  0  0  0  0  0  0  0  0  0  0
    5.4563   -1.8550    0.7804 H   0  0  0  0  0  0  0  0  0  0  0  0
    6.1323   -0.3232   -1.0447 H   0  0  0  0  0  0  0  0  0  0  0  0
    4.5742    1.4372   -1.8279 H   0  0  0  0  0  0  0  0  0  0  0  0
    2.3527    1.6778   -0.7969 H   0  0  0  0  0  0  0  0  0  0  0  0
  1  2  1  0
  2  3  1  0
  2  4  1  0
  4  5  1  0
  5  6  1  0
  6  7  1  0
  7  8  1  0
  8  9  2  0
  9 10  1  0
  9 11  1  0
 11 12  2  0
 12 13  1  0
 13 14  2  0
  6 15  2  0
 15 16  1  0
 16 17  2  0
 16  4  1  0
 14  8  1  0
  1 18  1  0
  1 19  1  0
  1 20  1  0
  2 21  1  0
  3 22  1  0
  3 23  1  0
  3 24  1  0
  4 25  1  1
  7 26  1  0
 11 27  1  0
 12 28  1  0
 13 29  1  0
 14 30  1  0
M  END
$$$$
