
     RDKit          3D

 87 86  0  0  0  0  0  0  0  0999 V2000
   12.2763   -1.7144    1.7708 C   0  0  0  0  0  0  0  0  0  0  0  0
   11.0293   -2.5028    2.0178 C   0  0  0  0  0  0  0  0  0  0  0  0
   10.9071   -3.6417    1.4906 O   0  0  0  0  0  0  0  0  0  0  0  0
    9.9752   -1.9598    2.8337 N   0  0  0  0  0  0  0  0  0  0  0  0
   10.1205   -0.7248    3.3762 O   0  0  0  0  0  0  0  0  0  0  0  0
    8.7369   -2.7006    3.0940 C   0  0  0  0  0  0  0  0  0  0  0  0
    7.5876   -2.1821    2.2210 C   0  0  0  0  0  0  0  0  0  0  0  0
    7.8393   -2.4318    0.7251 C   0  0  0  0  0  0  0  0  0  0  0  0
    6.6192   -2.0874   -0.1427 C   0  0  0  0  0  0  0  0  0  0  0  0
    6.3589   -0.5772   -0.2225 C   0  0  0  0  0  0  0  0  0  0  0  0
    5.2947   -0.2945   -1.1834 N   0  0  0  0  0  0  0  0  0  0  0  0
    3.9117   -0.5508   -0.9010 C   0  0  0  0  0  0  0  0  0  0  0  0
    3.5630   -1.0011    0.2241 O   0  0  0  0  0  0  0  0  0  0  0  0
    2.8644   -0.2322   -1.9242 C   0  0  0  0  0  0  0  0  0  0  0  0
    2.4680    1.2435   -1.8425 C   0  0  0  0  0  0  0  0  0  0  0  0
    1.4013    1.5578   -2.8570 C   0  0  0  0  0  0  0  0  0  0  0  0
    1.7547    2.0153   -3.9772 O   0  0  0  0  0  0  0  0  0  0  0  0
    0.0085    1.2704   -2.6260 N   0  0  0  0  0  0  0  0  0  0  0  0
   -0.8337    1.2489   -3.6890 O   0  0  0  0  0  0  0  0  0  0  0  0
   -0.5532    1.0433   -1.2906 C   0  0  0  0  0  0  0  0  0  0  0  0
   -0.7176    2.3618   -0.5157 C   0  0  0  0  0  0  0  0  0  0  0  0
   -1.5919    3.4054   -1.2329 C   0  0  0  0  0  0  0  0  0  0  0  0
   -3.0508    2.9533   -1.3853 C   0  0  0  0  0  0  0  0  0  0  0  0
   -3.9255    4.0830   -1.9365 C   0  0  0  0  0  0  0  0  0  0  0  0
   -5.3041    3.6238   -2.0844 N   0  0  0  0  0  0  0  0  0  0  0  0
   -5.7149    2.7487   -3.1446 C   0  0  0  0  0  0  0  0  0  0  0  0
   -4.9329    2.4936   -4.1003 O   0  0  0  0  0  0  0  0  0  0  0  0
   -7.0583    2.0814   -3.0902 C   0  0  0  0  0  0  0  0  0  0  0  0
   -6.9574    0.6566   -2.5300 C   0  0  0  0  0  0  0  0  0  0  0  0
   -6.3706    0.6360   -1.1447 C   0  0  0  0  0  0  0  0  0  0  0  0
   -5.1636    0.3006   -0.9998 O   0  0  0  0  0  0  0  0  0  0  0  0
   -7.1514    1.0398   -0.0049 N   0  0  0  0  0  0  0  0  0  0  0  0
   -8.4317    1.4522   -0.1804 O   0  0  0  0  0  0  0  0  0  0  0  0
   -6.5575    1.1408    1.3315 C   0  0  0  0  0  0  0  0  0  0  0  0
   -6.2914   -0.2434    1.9404 C   0  0  0  0  0  0  0  0  0  0  0  0
   -7.5824   -1.0617    2.1008 C   0  0  0  0  0  0  0  0  0  0  0  0
   -7.3887   -2.3290    2.9512 C   0  0  0  0  0  0  0  0  0  0  0  0
   -6.5577   -3.4171    2.2533 C   0  0  0  0  0  0  0  0  0  0  0  0
   -5.1302   -3.1220    2.3353 N   0  0  0  0  0  0  0  0  0  0  0  0
   12.0254   -0.7882    1.2130 H   0  0  0  0  0  0  0  0  0  0  0  0
   13.0027   -2.3070    1.1749 H   0  0  0  0  0  0  0  0  0  0  0  0
   12.7457   -1.4441    2.7396 H   0  0  0  0  0  0  0  0  0  0  0  0
    9.7625   -0.0999    2.6945 H   0  0  0  0  0  0  0  0  0  0  0  0
    8.8784   -3.7914    2.9338 H   0  0  0  0  0  0  0  0  0  0  0  0
    8.4591   -2.5681    4.1619 H   0  0  0  0  0  0  0  0  0  0  0  0
    6.6549   -2.7033    2.5286 H   0  0  0  0  0  0  0  0  0  0  0  0
    7.4515   -1.0966    2.4111 H   0  0  0  0  0  0  0  0  0  0  0  0
    8.7170   -1.8424    0.3817 H   0  0  0  0  0  0  0  0  0  0  0  0
    8.0742   -3.5082    0.5747 H   0  0  0  0  0  0  0  0  0  0  0  0
    5.7207   -2.6115    0.2485 H   0  0  0  0  0  0  0  0  0  0  0  0
    6.8070   -2.4674   -1.1708 H   0  0  0  0  0  0  0  0  0  0  0  0
    7.2875   -0.0620   -0.5521 H   0  0  0  0  0  0  0  0  0  0  0  0
    6.0754   -0.1706    0.7713 H   0  0  0  0  0  0  0  0  0  0  0  0
    5.5497    0.1632   -2.0876 H   0  0  0  0  0  0  0  0  0  0  0  0
    3.2604   -0.4606   -2.9378 H   0  0  0  0  0  0  0  0  0  0  0  0
    1.9744   -0.8765   -1.7537 H   0  0  0  0  0  0  0  0  0  0  0  0
    2.1251    1.4900   -0.8176 H   0  0  0  0  0  0  0  0  0  0  0  0
    3.3605    1.8755   -2.0462 H   0  0  0  0  0  0  0  0  0  0  0  0
   -0.8348    0.3060   -3.9957 H   0  0  0  0  0  0  0  0  0  0  0  0
   -1.5393    0.5404   -1.3804 H   0  0  0  0  0  0  0  0  0  0  0  0
    0.0891    0.3446   -0.7154 H   0  0  0  0  0  0  0  0  0  0  0  0
    0.2818    2.8109   -0.3388 H   0  0  0  0  0  0  0  0  0  0  0  0
   -1.1544    2.1396    0.4821 H   0  0  0  0  0  0  0  0  0  0  0  0
   -1.5653    4.3403   -0.6313 H   0  0  0  0  0  0  0  0  0  0  0  0
   -1.1630    3.6411   -2.2308 H   0  0  0  0  0  0  0  0  0  0  0  0
   -3.4502    2.6370   -0.3967 H   0  0  0  0  0  0  0  0  0  0  0  0
   -3.1015    2.0896   -2.0806 H   0  0  0  0  0  0  0  0  0  0  0  0
   -3.9040    4.9407   -1.2293 H   0  0  0  0  0  0  0  0  0  0  0  0
   -3.5377    4.4364   -2.9169 H   0  0  0  0  0  0  0  0  0  0  0  0
   -6.0048    3.9192   -1.3675 H   0  0  0  0  0  0  0  0  0  0  0  0
   -7.4829    2.0358   -4.1163 H   0  0  0  0  0  0  0  0  0  0  0  0
   -7.7575    2.6844   -2.4724 H   0  0  0  0  0  0  0  0  0  0  0  0
   -6.3342    0.0355   -3.2106 H   0  0  0  0  0  0  0  0  0  0  0  0
   -7.9701    0.2008   -2.5059 H   0  0  0  0  0  0  0  0  0  0  0  0
   -8.9836    0.6379   -0.0596 H   0  0  0  0  0  0  0  0  0  0  0  0
   -7.2378    1.7095    2.0027 H   0  0  0  0  0  0  0  0  0  0  0  0
   -5.6050    1.7112    1.2725 H   0  0  0  0  0  0  0  0  0  0  0  0
   -5.8191   -0.0982    2.9363 H   0  0  0  0  0  0  0  0  0  0  0  0
   -5.5732   -0.7937    1.2993 H   0  0  0  0  0  0  0  0  0  0  0  0
   -7.9795   -1.3422    1.1011 H   0  0  0  0  0  0  0  0  0  0  0  0
   -8.3489   -0.4306    2.6019 H   0  0  0  0  0  0  0  0  0  0  0  0
   -6.9410   -2.0696    3.9355 H   0  0  0  0  0  0  0  0  0  0  0  0
   -8.3963   -2.7517    3.1569 H   0  0  0  0  0  0  0  0  0  0  0  0
   -6.7580   -4.3961    2.7438 H   0  0  0  0  0  0  0  0  0  0  0  0
   -6.8623   -3.5059    1.1874 H   0  0  0  0  0  0  0  0  0  0  0  0
   -4.8286   -3.2327    3.3308 H   0  0  0  0  0  0  0  0  0  0  0  0
   -4.6217   -3.8531    1.7874 H   0  0  0  0  0  0  0  0  0  0  0  0
  1  2  1  0
  2  3  2  0
  2  4  1  0
  4  5  1  0
  4  6  1  0
  6  7  1  0
  7  8  1  0
  8  9  1  0
  9 10  1  0
 10 11  1  0
 11 12  1  0
 12 13  2  0
 12 14  1  0
 14 15  1  0
 15 16  1  0
 16 17  2  0
 16 18  1  0
 18 19  1  0
 18 20  1  0
 20 21  1  0
 21 22  1  0
 22 23  1  0
 23 24  1  0
 24 25  1  0
 25 26  1  0
 26 27  2  0
 26 28  1  0
 28 29  1  0
 29 30  1  0
 30 31  2  0
 30 32  1  0
 32 33  1  0
 32 34  1  0
 34 35  1  0
 35 36  1  0
 36 37  1  0
 37 38  1  0
 38 39  1  0
  1 40  1  0
  1 41  1  0
  1 42  1  0
  5 43  1  0
  6 44  1  0
  6 45  1  0
  7 46  1  0
  7 47  1  0
  8 48  1  0
  8 49  1  0
  9 50  1  0
  9 51  1  0
 10 52  1  0
 10 53  1  0
 11 54  1  0
 14 55  1  0
 14 56  1  0
 15 57  1  0
 15 58  1  0
 19 59  1  0
 20 60  1  0
 20 61  1  0
 21 62  1  0
 21 63  1  0
 22 64  1  0
 22 65  1  0
 23 66  1  0
 23 67  1  0
 24 68  1  0
 24 69  1  0
 25 70  1  0
 28 71  1  0
 28 72  1  0
 29 73  1  0
 29 74  1  0
 33 75  1  0
 34 76  1  0
 34 77  1  0
 35 78  1  0
 35 79  1  0
 36 80  1  0
 36 81  1  0
 37 82  1  0
 37 83  1  0
 38 84  1  0
 38 85  1  0
 39 86  1  0
 39 87  1  0
M  END
$$$$
