
     RDKit          3D

 28 29  0  0  0  0  0  0  0  0999 V2000
   -2.5570    0.4006   -1.4643 C   0  0  0  0  0  0  0  0  0  0  0  0
   -2.9902    0.5765   -0.0276 C   0  0  0  0  0  0  0  0  0  0  0  0
   -4.1903    1.4305    0.2900 C   0  0  0  0  0  0  0  0  0  0  0  0
   -2.3337   -0.0204    0.9910 C   0  0  0  0  0  0  0  0  0  0  0  0
   -1.1155   -0.8907    0.8113 C   0  0  0  0  0  0  0  0  0  0  0  0
    0.0581   -0.0867    0.4723 N   0  0  0  0  0  0  0  0  0  0  0  0
    1.3210   -0.6966    0.1743 C   0  0  0  0  0  0  0  0  0  0  0  0
    2.4353    0.0653   -0.1611 C   0  0  0  0  0  0  0  0  0  0  0  0
    2.5595    1.4004   -0.2686 N   0  0  0  0  0  0  0  0  0  0  0  0
    3.8664    1.5488   -0.6222 C   0  0  0  0  0  0  0  0  0  0  0  0
    4.5375    0.3748   -0.7342 N   0  0  0  0  0  0  0  0  0  0  0  0
    3.6112   -0.5408   -0.4383 C   0  0  0  0  0  0  0  0  0  0  0  0
    3.7672   -1.8855   -0.4063 N   0  0  0  0  0  0  0  0  0  0  0  0
    2.6805   -2.6476   -0.0780 C   0  0  0  0  0  0  0  0  0  0  0  0
    1.4759   -2.0560    0.2073 N   0  0  0  0  0  0  0  0  0  0  0  0
   -2.6073   -0.6714   -1.7477 H   0  0  0  0  0  0  0  0  0  0  0  0
   -3.2123    0.9663   -2.1586 H   0  0  0  0  0  0  0  0  0  0  0  0
   -1.5198    0.7708   -1.6002 H   0  0  0  0  0  0  0  0  0  0  0  0
   -4.6428    1.8613   -0.6272 H   0  0  0  0  0  0  0  0  0  0  0  0
   -3.8893    2.2674    0.9552 H   0  0  0  0  0  0  0  0  0  0  0  0
   -4.9616    0.8180    0.8034 H   0  0  0  0  0  0  0  0  0  0  0  0
   -2.6923    0.1250    2.0072 H   0  0  0  0  0  0  0  0  0  0  0  0
   -1.3022   -1.6498    0.0220 H   0  0  0  0  0  0  0  0  0  0  0  0
   -0.9176   -1.4300    1.7623 H   0  0  0  0  0  0  0  0  0  0  0  0
   -0.0151    0.9567    0.4559 H   0  0  0  0  0  0  0  0  0  0  0  0
    4.3253    2.5128   -0.7975 H   0  0  0  0  0  0  0  0  0  0  0  0
    5.5383    0.2250   -0.9909 H   0  0  0  0  0  0  0  0  0  0  0  0
    2.7710   -3.7245   -0.0433 H   0  0  0  0  0  0  0  0  0  0  0  0
  1  2  1  0
  2  3  1  0
  2  4  2  3
  4  5  1  0
  5  6  1  0
  6  7  1  0
  7  8  2  0
  8  9  1  0
  9 10  2  0
 10 11  1  0
 11 12  1  0
 12 13  2  0
 13 14  1  0
 14 15  2  0
 15  7  1  0
 12  8  1  0
  1 16  1  0
  1 17  1  0
  1 18  1  0
  3 19  1  0
  3 20  1  0
  3 21  1  0
  4 22  1  0
  5 23  1  0
  5 24  1  0
  6 25  1  0
 10 26  1  0
 11 27  1  0
 14 28  1  0
M  END
$$$$
