
     RDKit          3D

137143  0  0  0  0  0  0  0  0999 V2000
   -7.1764   -6.3730   -1.1500 O   0  0  0  0  0  0  0  0  0  0  0  0
   -7.5373   -5.9837    0.1512 C   0  0  2  0  0  0  0  0  0  0  0  0
   -8.4007   -4.7606    0.0641 C   0  0  0  0  0  0  0  0  0  0  0  0
   -9.8959   -4.8620    0.2058 C   0  0  0  0  0  0  0  0  0  0  0  0
   -7.8294   -3.5638   -0.1292 C   0  0  0  0  0  0  0  0  0  0  0  0
   -6.3312   -3.3946   -0.3073 C   0  0  1  0  0  0  0  0  0  0  0  0
   -6.0181   -1.9658    0.0964 C   0  0  0  0  0  0  0  0  0  0  0  0
   -6.0683   -1.6384    1.3151 O   0  0  0  0  0  0  0  0  0  0  0  0
   -5.7891   -0.9786   -0.8711 O   0  0  0  0  0  0  0  0  0  0  0  0
   -5.0455    0.2076   -0.5715 C   0  0  1  0  0  0  0  0  0  0  0  0
   -3.5683   -0.1329   -0.6404 C   0  0  0  0  0  0  0  0  0  0  0  0
   -2.6889    1.1100   -0.4898 C   0  0  1  0  0  0  0  0  0  0  0  0
   -1.1981    0.7160   -0.6096 C   0  0  0  0  0  0  0  0  0  0  0  0
   -0.8092    0.3276   -2.0229 C   0  0  0  0  0  0  0  0  0  0  0  0
   -0.1714   -0.8038   -2.4324 C   0  0  0  0  0  0  0  0  0  0  0  0
    0.1504   -0.8977   -3.9075 C   0  0  0  0  0  0  0  0  0  0  0  0
    0.2512   -1.9730   -1.5249 C   0  0  1  0  0  0  0  0  0  0  0  0
    0.8926   -1.4516   -0.3643 O   0  0  0  0  0  0  0  0  0  0  0  0
    2.3060   -1.5747   -0.3983 C   0  0  1  0  0  0  0  0  0  0  0  0
    2.9385   -0.5768   -1.4118 C   0  0  0  0  0  0  0  0  0  0  0  0
    4.2903   -0.0618   -0.8940 C   0  0  2  0  0  0  0  0  0  0  0  0
    5.1918   -1.1515   -0.7550 O   0  0  0  0  0  0  0  0  0  0  0  0
    5.9689   -1.3127   -1.9222 C   0  0  0  0  0  0  0  0  0  0  0  0
    4.0880    0.6237    0.4873 C   0  0  2  0  0  0  0  0  0  0  0  0
    5.2813    0.5540    1.2546 O   0  0  0  0  0  0  0  0  0  0  0  0
    6.2472    1.5146    0.8498 C   0  0  1  0  0  0  0  0  0  0  0  0
    6.6902    2.3393    2.0875 C   0  0  0  0  0  0  0  0  0  0  0  0
    8.1712    2.7259    1.9777 C   0  0  1  0  0  0  0  0  0  0  0  0
    8.5752    3.4028    3.1574 O   0  0  0  0  0  0  0  0  0  0  0  0
    8.6121    4.7969    2.9468 C   0  0  0  0  0  0  0  0  0  0  0  0
    9.0482    1.4607    1.7992 C   0  0  2  0  0  0  0  0  0  0  0  0
   10.2357    1.8136    1.0111 N   0  0  0  0  0  0  0  0  0  0  0  0
   11.4885    2.1663    1.6139 C   0  0  0  0  0  0  0  0  0  0  0  0
   12.6181    2.6387    0.7584 C   0  0  0  0  0  0  0  0  0  0  0  0
   11.6362    2.1134    2.8648 O   0  0  0  0  0  0  0  0  0  0  0  0
    8.2377    0.3118    1.1329 C   0  0  2  0  0  0  0  0  0  0  0  0
    9.1190   -0.7336    0.4433 C   0  0  0  0  0  0  0  0  0  0  0  0
    7.3240    0.8501    0.1969 O   0  0  0  0  0  0  0  0  0  0  0  0
    2.9103   -0.0388    1.2622 C   0  0  2  0  0  0  0  0  0  0  0  0
    3.0486    0.0948    2.7808 C   0  0  0  0  0  0  0  0  0  0  0  0
    2.8097   -1.4097    0.9224 O   0  0  0  0  0  0  0  0  0  0  0  0
   -0.8862   -3.0148   -1.1460 C   0  0  1  0  0  0  0  0  0  0  0  0
   -1.1028   -3.1029    0.3813 C   0  0  0  0  0  0  0  0  0  0  0  0
   -2.1977   -2.8126   -1.9019 C   0  0  0  0  0  0  0  0  0  0  0  0
   -3.3424   -3.4852   -1.7143 C   0  0  0  0  0  0  0  0  0  0  0  0
   -3.4194   -4.8078   -1.0885 C   0  0  0  0  0  0  0  0  0  0  0  0
   -4.4296   -5.2521   -0.3175 C   0  0  0  0  0  0  0  0  0  0  0  0
   -4.4395   -6.6626    0.1463 C   0  0  0  0  0  0  0  0  0  0  0  0
   -5.4750   -6.8148    1.0864 O   0  0  0  0  0  0  0  0  0  0  0  0
   -6.2912   -5.6650    1.0054 C   0  0  1  0  0  0  0  0  0  0  0  0
   -5.4502   -4.4766    0.4719 C   0  0  2  0  0  0  0  0  0  0  0  0
   -4.7977   -3.9068    1.5858 O   0  0  0  0  0  0  0  0  0  0  0  0
   -3.0176    2.0844   -1.4725 O   0  0  0  0  0  0  0  0  0  0  0  0
   -4.3782    2.5084   -1.3858 C   0  0  1  0  0  0  0  0  0  0  0  0
   -5.3405    1.3090   -1.5911 C   0  0  0  0  0  0  0  0  0  0  0  0
   -4.6582    3.1009   -0.1181 O   0  0  0  0  0  0  0  0  0  0  0  0
   -3.9629    4.3259    0.0593 C   0  0  2  0  0  0  0  0  0  0  0  0
   -4.0341    4.7404    1.5575 C   0  0  0  0  0  0  0  0  0  0  0  0
   -5.4744    4.9452    2.0579 C   0  0  0  0  0  0  0  0  0  0  0  0
   -3.3253    3.6990    2.4365 C   0  0  0  0  0  0  0  0  0  0  0  0
   -4.5392    5.3908   -0.9150 C   0  0  1  0  0  0  0  0  0  0  0  0
   -3.6877    6.6677   -0.9514 C   0  0  0  0  0  0  0  0  0  0  0  0
   -4.6383    4.8120   -2.3037 C   0  0  0  0  0  0  0  0  0  0  0  0
   -4.6291    3.4905   -2.5137 C   0  0  0  0  0  0  0  0  0  0  0  0
   -7.0639   -7.3592   -1.1387 H   0  0  0  0  0  0  0  0  0  0  0  0
   -8.1065   -6.8018    0.6535 H   0  0  0  0  0  0  0  0  0  0  0  0
  -10.2197   -5.9158    0.3353 H   0  0  0  0  0  0  0  0  0  0  0  0
  -10.2290   -4.2789    1.0903 H   0  0  0  0  0  0  0  0  0  0  0  0
  -10.3874   -4.4569   -0.7040 H   0  0  0  0  0  0  0  0  0  0  0  0
   -8.4717   -2.6892   -0.2208 H   0  0  0  0  0  0  0  0  0  0  0  0
   -6.1619   -3.5081   -1.3948 H   0  0  0  0  0  0  0  0  0  0  0  0
   -5.3048    0.5839    0.4441 H   0  0  0  0  0  0  0  0  0  0  0  0
   -3.3258   -0.8814    0.1411 H   0  0  0  0  0  0  0  0  0  0  0  0
   -3.3946   -0.5520   -1.6431 H   0  0  0  0  0  0  0  0  0  0  0  0
   -2.8297    1.5266    0.5309 H   0  0  0  0  0  0  0  0  0  0  0  0
   -0.9807   -0.0773    0.1251 H   0  0  0  0  0  0  0  0  0  0  0  0
   -0.5793    1.5925   -0.3212 H   0  0  0  0  0  0  0  0  0  0  0  0
   -1.0249    1.0809   -2.7772 H   0  0  0  0  0  0  0  0  0  0  0  0
    0.8601   -0.0903   -4.1869 H   0  0  0  0  0  0  0  0  0  0  0  0
    0.6073   -1.8713   -4.1799 H   0  0  0  0  0  0  0  0  0  0  0  0
   -0.7799   -0.7851   -4.5042 H   0  0  0  0  0  0  0  0  0  0  0  0
    0.9640   -2.5834   -2.1281 H   0  0  0  0  0  0  0  0  0  0  0  0
    2.6002   -2.6070   -0.6964 H   0  0  0  0  0  0  0  0  0  0  0  0
    2.2662    0.2981   -1.5529 H   0  0  0  0  0  0  0  0  0  0  0  0
    3.0562   -1.0639   -2.4028 H   0  0  0  0  0  0  0  0  0  0  0  0
    4.6693    0.7196   -1.5971 H   0  0  0  0  0  0  0  0  0  0  0  0
    6.6327   -0.4355   -2.0838 H   0  0  0  0  0  0  0  0  0  0  0  0
    5.3322   -1.4843   -2.8168 H   0  0  0  0  0  0  0  0  0  0  0  0
    6.6167   -2.2038   -1.7946 H   0  0  0  0  0  0  0  0  0  0  0  0
    3.7756    1.6841    0.3305 H   0  0  0  0  0  0  0  0  0  0  0  0
    5.8559    2.2550    0.1132 H   0  0  0  0  0  0  0  0  0  0  0  0
    6.0614    3.2520    2.1739 H   0  0  0  0  0  0  0  0  0  0  0  0
    6.5420    1.7442    3.0165 H   0  0  0  0  0  0  0  0  0  0  0  0
    8.2772    3.3500    1.0537 H   0  0  0  0  0  0  0  0  0  0  0  0
    9.4083    5.0629    2.2167 H   0  0  0  0  0  0  0  0  0  0  0  0
    7.6255    5.1812    2.6051 H   0  0  0  0  0  0  0  0  0  0  0  0
    8.8548    5.2944    3.9079 H   0  0  0  0  0  0  0  0  0  0  0  0
    9.3611    1.0866    2.8002 H   0  0  0  0  0  0  0  0  0  0  0  0
   10.1179    1.9880   -0.0132 H   0  0  0  0  0  0  0  0  0  0  0  0
   13.5680    2.6429    1.3341 H   0  0  0  0  0  0  0  0  0  0  0  0
   12.7335    1.9647   -0.1161 H   0  0  0  0  0  0  0  0  0  0  0  0
   12.4050    3.6677    0.4015 H   0  0  0  0  0  0  0  0  0  0  0  0
    7.6880   -0.2418    1.9321 H   0  0  0  0  0  0  0  0  0  0  0  0
    9.9011   -1.0988    1.1426 H   0  0  0  0  0  0  0  0  0  0  0  0
    8.4949   -1.5975    0.1304 H   0  0  0  0  0  0  0  0  0  0  0  0
    9.6021   -0.3128   -0.4633 H   0  0  0  0  0  0  0  0  0  0  0  0
    1.9635    0.4922    0.9970 H   0  0  0  0  0  0  0  0  0  0  0  0
    3.1817    1.1615    3.0619 H   0  0  0  0  0  0  0  0  0  0  0  0
    2.1306   -0.2889    3.2745 H   0  0  0  0  0  0  0  0  0  0  0  0
    3.9154   -0.4938    3.1502 H   0  0  0  0  0  0  0  0  0  0  0  0
   -0.5199   -4.0222   -1.4469 H   0  0  0  0  0  0  0  0  0  0  0  0
   -0.1384   -3.2934    0.8980 H   0  0  0  0  0  0  0  0  0  0  0  0
   -1.7560   -3.9519    0.6550 H   0  0  0  0  0  0  0  0  0  0  0  0
   -1.5462   -2.1739    0.7837 H   0  0  0  0  0  0  0  0  0  0  0  0
   -2.2521   -2.0525   -2.6621 H   0  0  0  0  0  0  0  0  0  0  0  0
   -4.2062   -3.1429   -2.2640 H   0  0  0  0  0  0  0  0  0  0  0  0
   -2.6369   -5.5076   -1.3601 H   0  0  0  0  0  0  0  0  0  0  0  0
   -3.4718   -6.9141    0.6313 H   0  0  0  0  0  0  0  0  0  0  0  0
   -4.6064   -7.3485   -0.7113 H   0  0  0  0  0  0  0  0  0  0  0  0
   -6.6480   -5.4259    2.0333 H   0  0  0  0  0  0  0  0  0  0  0  0
   -4.0596   -3.3326    1.2513 H   0  0  0  0  0  0  0  0  0  0  0  0
   -5.2204    0.8940   -2.6175 H   0  0  0  0  0  0  0  0  0  0  0  0
   -6.3952    1.6427   -1.4753 H   0  0  0  0  0  0  0  0  0  0  0  0
   -2.8811    4.1911   -0.1792 H   0  0  0  0  0  0  0  0  0  0  0  0
   -3.4838    5.6945    1.6975 H   0  0  0  0  0  0  0  0  0  0  0  0
   -5.4787    5.1212    3.1549 H   0  0  0  0  0  0  0  0  0  0  0  0
   -6.1014    4.0541    1.8423 H   0  0  0  0  0  0  0  0  0  0  0  0
   -5.9320    5.8391    1.5880 H   0  0  0  0  0  0  0  0  0  0  0  0
   -2.2827    3.5415    2.0866 H   0  0  0  0  0  0  0  0  0  0  0  0
   -3.8661    2.7287    2.4132 H   0  0  0  0  0  0  0  0  0  0  0  0
   -3.2808    4.0524    3.4889 H   0  0  0  0  0  0  0  0  0  0  0  0
   -5.5724    5.6627   -0.6174 H   0  0  0  0  0  0  0  0  0  0  0  0
   -4.0776    7.3687   -1.7204 H   0  0  0  0  0  0  0  0  0  0  0  0
   -2.6296    6.4282   -1.1922 H   0  0  0  0  0  0  0  0  0  0  0  0
   -3.7305    7.1968    0.0221 H   0  0  0  0  0  0  0  0  0  0  0  0
   -4.8130    5.4743   -3.1472 H   0  0  0  0  0  0  0  0  0  0  0  0
   -4.7078    3.1237   -3.5337 H   0  0  0  0  0  0  0  0  0  0  0  0
  1  2  1  0
  2  3  1  0
  3  4  1  0
  3  5  2  0
  5  6  1  0
  6  7  1  0
  7  8  2  0
  7  9  1  0
  9 10  1  0
 10 11  1  0
 11 12  1  0
 12 13  1  0
 13 14  1  0
 14 15  2  0
 15 16  1  0
 15 17  1  0
 17 18  1  0
 18 19  1  0
 19 20  1  0
 20 21  1  0
 21 22  1  0
 22 23  1  0
 21 24  1  0
 24 25  1  0
 25 26  1  0
 26 27  1  0
 27 28  1  0
 28 29  1  0
 29 30  1  0
 28 31  1  0
 31 32  1  0
 32 33  1  0
 33 34  1  0
 33 35  2  0
 31 36  1  0
 36 37  1  0
 36 38  1  0
 24 39  1  0
 39 40  1  0
 39 41  1  0
 17 42  1  0
 42 43  1  0
 42 44  1  0
 44 45  2  0
 45 46  1  0
 46 47  2  0
 47 48  1  0
 48 49  1  0
 49 50  1  0
 50 51  1  0
 51 52  1  1
 12 53  1  0
 54 53  1  1
 54 55  1  0
 54 56  1  0
 56 57  1  0
 57 58  1  0
 58 59  1  0
 58 60  1  0
 57 61  1  0
 61 62  1  0
 61 63  1  0
 63 64  2  0
 50  2  1  0
 64 54  1  0
 51  6  1  0
 55 10  1  0
 41 19  1  0
 51 47  1  0
 38 26  1  0
  1 65  1  0
  2 66  1  1
  4 67  1  0
  4 68  1  0
  4 69  1  0
  5 70  1  0
  6 71  1  6
 10 72  1  1
 11 73  1  0
 11 74  1  0
 12 75  1  1
 13 76  1  0
 13 77  1  0
 14 78  1  0
 16 79  1  0
 16 80  1  0
 16 81  1  0
 17 82  1  6
 19 83  1  6
 20 84  1  0
 20 85  1  0
 21 86  1  6
 23 87  1  0
 23 88  1  0
 23 89  1  0
 24 90  1  6
 26 91  1  6
 27 92  1  0
 27 93  1  0
 28 94  1  6
 30 95  1  0
 30 96  1  0
 30 97  1  0
 31 98  1  1
 32 99  1  0
 34100  1  0
 34101  1  0
 34102  1  0
 36103  1  1
 37104  1  0
 37105  1  0
 37106  1  0
 39107  1  6
 40108  1  0
 40109  1  0
 40110  1  0
 42111  1  6
 43112  1  0
 43113  1  0
 43114  1  0
 44115  1  0
 45116  1  0
 46117  1  0
 48118  1  0
 48119  1  0
 50120  1  1
 52121  1  0
 55122  1  0
 55123  1  0
 57124  1  6
 58125  1  0
 59126  1  0
 59127  1  0
 59128  1  0
 60129  1  0
 60130  1  0
 60131  1  0
 61132  1  1
 62133  1  0
 62134  1  0
 62135  1  0
 63136  1  0
 64137  1  0
M  END
$$$$
