
     RDKit          3D

 47 50  0  0  0  0  0  0  0  0999 V2000
    2.4135    1.1515    1.6449 N   0  0  0  0  0  0  0  0  0  0  0  0
    1.6281   -0.0518    1.9201 C   0  0  0  0  0  0  0  0  0  0  0  0
    1.0485   -0.6993    0.6194 C   0  0  0  0  0  0  0  0  0  0  0  0
    2.1886   -1.3917   -0.2000 C   0  0  0  0  0  0  0  0  0  0  0  0
    3.2912   -0.4768   -0.6849 C   0  0  0  0  0  0  0  0  0  0  0  0
    4.4797   -0.3433    0.0544 C   0  0  0  0  0  0  0  0  0  0  0  0
    5.5009    0.4988   -0.3953 C   0  0  0  0  0  0  0  0  0  0  0  0
    5.3508    1.2059   -1.5922 C   0  0  0  0  0  0  0  0  0  0  0  0
    6.6328    2.2627   -2.1545 Cl  0  0  0  0  0  0  0  0  0  0  0  0
    4.1794    1.0655   -2.3429 C   0  0  0  0  0  0  0  0  0  0  0  0
    3.1563    0.2243   -1.8956 C   0  0  0  0  0  0  0  0  0  0  0  0
    0.3018    0.3362   -0.2734 C   0  0  0  0  0  0  0  0  0  0  0  0
   -0.9754    0.8670    0.3834 C   0  0  0  0  0  0  0  0  0  0  0  0
   -1.8425   -0.2501    0.7660 N   0  0  0  0  0  0  0  0  0  0  0  0
   -1.2756   -1.3006    1.6139 C   0  0  0  0  0  0  0  0  0  0  0  0
    0.0401   -1.8229    1.0156 C   0  0  0  0  0  0  0  0  0  0  0  0
   -3.2693   -0.1011    0.6936 C   0  0  0  0  0  0  0  0  0  0  0  0
   -3.9240    0.1546   -0.5103 C   0  0  0  0  0  0  0  0  0  0  0  0
   -3.4832    0.2796   -1.8119 C   0  0  0  0  0  0  0  0  0  0  0  0
   -4.6364    0.4893   -2.5654 C   0  0  0  0  0  0  0  0  0  0  0  0
   -5.7360    0.4859   -1.7761 N   0  0  0  0  0  0  0  0  0  0  0  0
   -5.2802    0.2762   -0.5325 C   0  0  0  0  0  0  0  0  0  0  0  0
   -6.0349    0.1490    0.5853 N   0  0  0  0  0  0  0  0  0  0  0  0
   -5.4027   -0.1077    1.7688 C   0  0  0  0  0  0  0  0  0  0  0  0
   -4.0392   -0.2355    1.8153 N   0  0  0  0  0  0  0  0  0  0  0  0
    3.0101    1.3446    2.4818 H   0  0  0  0  0  0  0  0  0  0  0  0
    1.7611    1.9644    1.5628 H   0  0  0  0  0  0  0  0  0  0  0  0
    0.8222    0.2101    2.6369 H   0  0  0  0  0  0  0  0  0  0  0  0
    2.2729   -0.7975    2.4372 H   0  0  0  0  0  0  0  0  0  0  0  0
    2.6398   -2.2031    0.4141 H   0  0  0  0  0  0  0  0  0  0  0  0
    1.7517   -1.9037   -1.0865 H   0  0  0  0  0  0  0  0  0  0  0  0
    4.6108   -0.8835    0.9839 H   0  0  0  0  0  0  0  0  0  0  0  0
    6.4078    0.6006    0.1871 H   0  0  0  0  0  0  0  0  0  0  0  0
    4.0616    1.6051   -3.2739 H   0  0  0  0  0  0  0  0  0  0  0  0
    2.2602    0.1189   -2.4941 H   0  0  0  0  0  0  0  0  0  0  0  0
    0.9555    1.1964   -0.5264 H   0  0  0  0  0  0  0  0  0  0  0  0
    0.0152   -0.1449   -1.2349 H   0  0  0  0  0  0  0  0  0  0  0  0
   -0.7277    1.4676    1.2840 H   0  0  0  0  0  0  0  0  0  0  0  0
   -1.4896    1.5458   -0.3296 H   0  0  0  0  0  0  0  0  0  0  0  0
   -1.1201   -0.9099    2.6408 H   0  0  0  0  0  0  0  0  0  0  0  0
   -1.9850   -2.1543    1.6900 H   0  0  0  0  0  0  0  0  0  0  0  0
   -0.2242   -2.4196    0.1136 H   0  0  0  0  0  0  0  0  0  0  0  0
    0.5106   -2.5232    1.7407 H   0  0  0  0  0  0  0  0  0  0  0  0
   -2.4678    0.2101   -2.1781 H   0  0  0  0  0  0  0  0  0  0  0  0
   -4.6657    0.6234   -3.6386 H   0  0  0  0  0  0  0  0  0  0  0  0
   -6.7290    0.6031   -2.0764 H   0  0  0  0  0  0  0  0  0  0  0  0
   -5.9829   -0.2162    2.6747 H   0  0  0  0  0  0  0  0  0  0  0  0
  1  2  1  0
  2  3  1  0
  3  4  1  0
  4  5  1  0
  5  6  2  0
  6  7  1  0
  7  8  2  0
  8  9  1  0
  8 10  1  0
 10 11  2  0
  3 12  1  0
 12 13  1  0
 13 14  1  0
 14 15  1  0
 15 16  1  0
 14 17  1  0
 17 18  2  0
 18 19  1  0
 19 20  2  0
 20 21  1  0
 21 22  1  0
 22 23  2  0
 23 24  1  0
 24 25  2  0
 16  3  1  0
 25 17  1  0
 11  5  1  0
 22 18  1  0
  1 26  1  0
  1 27  1  0
  2 28  1  0
  2 29  1  0
  4 30  1  0
  4 31  1  0
  6 32  1  0
  7 33  1  0
 10 34  1  0
 11 35  1  0
 12 36  1  0
 12 37  1  0
 13 38  1  0
 13 39  1  0
 15 40  1  0
 15 41  1  0
 16 42  1  0
 16 43  1  0
 19 44  1  0
 20 45  1  0
 21 46  1  0
 24 47  1  0
M  END
$$$$
