
     RDKit          3D

 37 38  0  0  0  0  0  0  0  0999 V2000
   -3.7944   -4.2015    0.9714 C   0  0  0  0  0  0  0  0  0  0  0  0
   -2.9266   -3.0475    1.1696 N   0  0  0  0  0  0  0  0  0  0  0  0
   -2.3019   -2.3761    0.0671 C   0  0  0  0  0  0  0  0  0  0  0  0
   -2.5174   -2.7673   -1.1132 O   0  0  0  0  0  0  0  0  0  0  0  0
   -1.4174   -1.1802    0.3082 C   0  0  2  0  0  0  0  0  0  0  0  0
   -2.1267    0.1039   -0.1595 C   0  0  0  0  0  0  0  0  0  0  0  0
   -1.2980    1.3294    0.1336 C   0  0  0  0  0  0  0  0  0  0  0  0
   -1.2753    1.8744    1.4283 C   0  0  0  0  0  0  0  0  0  0  0  0
   -0.4545    2.9689    1.7175 C   0  0  0  0  0  0  0  0  0  0  0  0
    0.3525    3.5228    0.7200 C   0  0  0  0  0  0  0  0  0  0  0  0
    0.3394    2.9838   -0.5692 C   0  0  0  0  0  0  0  0  0  0  0  0
   -0.4812    1.8908   -0.8634 C   0  0  0  0  0  0  0  0  0  0  0  0
   -0.1442   -1.3495   -0.4023 N   0  0  0  0  0  0  0  0  0  0  0  0
    1.1003   -0.8717    0.1288 C   0  0  0  0  0  0  0  0  0  0  0  0
    1.1918   -0.5681    1.3493 O   0  0  0  0  0  0  0  0  0  0  0  0
    2.2365   -0.7433   -0.7370 N   0  0  0  0  0  0  0  0  0  0  0  0
    3.3614    0.1041   -0.4664 C   0  0  0  0  0  0  0  0  0  0  0  0
    4.4586    0.1294   -1.2561 N   0  0  0  0  0  0  0  0  0  0  0  0
    5.3607    1.0251   -0.8606 N   0  0  0  0  0  0  0  0  0  0  0  0
    4.9869    1.7238    0.2326 C   0  0  0  0  0  0  0  0  0  0  0  0
    5.8942    2.8945    0.9220 S   0  0  0  0  0  0  0  0  0  0  0  0
    3.4687    1.2480    0.7774 S   0  0  0  0  0  0  0  0  0  0  0  0
   -4.1697   -4.5643    1.9515 H   0  0  0  0  0  0  0  0  0  0  0  0
   -4.6609   -3.9167    0.3383 H   0  0  0  0  0  0  0  0  0  0  0  0
   -3.2268   -5.0192    0.4793 H   0  0  0  0  0  0  0  0  0  0  0  0
   -2.7638   -2.7056    2.1434 H   0  0  0  0  0  0  0  0  0  0  0  0
   -1.2308   -1.1028    1.4018 H   0  0  0  0  0  0  0  0  0  0  0  0
   -2.3424    0.0414   -1.2494 H   0  0  0  0  0  0  0  0  0  0  0  0
   -3.1059    0.1962    0.3607 H   0  0  0  0  0  0  0  0  0  0  0  0
   -1.8838    1.4439    2.2140 H   0  0  0  0  0  0  0  0  0  0  0  0
   -0.4387    3.3833    2.7172 H   0  0  0  0  0  0  0  0  0  0  0  0
    0.9920    4.3659    0.9472 H   0  0  0  0  0  0  0  0  0  0  0  0
    0.9719    3.4075   -1.3385 H   0  0  0  0  0  0  0  0  0  0  0  0
   -0.4670    1.4714   -1.8618 H   0  0  0  0  0  0  0  0  0  0  0  0
   -0.1709   -1.6132   -1.4135 H   0  0  0  0  0  0  0  0  0  0  0  0
    2.2190   -1.2477   -1.6516 H   0  0  0  0  0  0  0  0  0  0  0  0
    6.2645    1.1663   -1.3643 H   0  0  0  0  0  0  0  0  0  0  0  0
  1  2  1  0
  2  3  1  0
  3  4  2  0
  3  5  1  0
  5  6  1  0
  6  7  1  0
  7  8  2  0
  8  9  1  0
  9 10  2  0
 10 11  1  0
 11 12  2  0
  5 13  1  0
 13 14  1  0
 14 15  2  0
 14 16  1  0
 16 17  1  0
 17 18  2  0
 18 19  1  0
 19 20  1  0
 20 21  2  0
 20 22  1  0
 12  7  1  0
 22 17  1  0
  1 23  1  0
  1 24  1  0
  1 25  1  0
  2 26  1  0
  5 27  1  1
  6 28  1  0
  6 29  1  0
  8 30  1  0
  9 31  1  0
 10 32  1  0
 11 33  1  0
 12 34  1  0
 13 35  1  0
 16 36  1  0
 19 37  1  0
M  END
$$$$
