
     RDKit          3D

 91 92  0  0  0  0  0  0  0  0999 V2000
   -0.2774    4.4960    2.2572 C   0  0  0  0  0  0  0  0  0  0  0  0
   -1.0199    3.1555    2.2534 C   0  0  0  0  0  0  0  0  0  0  0  0
   -1.8528    3.0027    3.5335 C   0  0  0  0  0  0  0  0  0  0  0  0
   -0.0225    2.0072    2.1128 C   0  0  0  0  0  0  0  0  0  0  0  0
    0.6645    1.7654    3.0941 O   0  0  0  0  0  0  0  0  0  0  0  0
    0.0012    1.0185    0.9091 C   0  0  1  0  0  0  0  0  0  0  0  0
   -0.7469    1.6374   -0.2881 C   0  0  0  0  0  0  0  0  0  0  0  0
   -0.4423    2.9661   -0.6138 O   0  0  0  0  0  0  0  0  0  0  0  0
   -1.5766    0.8889   -1.0714 C   0  0  0  0  0  0  0  0  0  0  0  0
   -2.4437    1.5157   -2.1481 C   0  0  0  0  0  0  0  0  0  0  0  0
   -3.8460    0.9521   -2.1573 C   0  0  0  0  0  0  0  0  0  0  0  0
   -4.7499    1.1449   -1.1702 C   0  0  0  0  0  0  0  0  0  0  0  0
   -6.1447    0.6040   -1.3542 C   0  0  0  0  0  0  0  0  0  0  0  0
   -4.4052    1.8991    0.0935 C   0  0  0  0  0  0  0  0  0  0  0  0
   -1.5645   -0.6019   -0.9308 C   0  0  0  0  0  0  0  0  0  0  0  0
   -1.9614   -1.3072   -1.8979 O   0  0  0  0  0  0  0  0  0  0  0  0
   -0.9760   -1.2779    0.3052 C   0  0  1  0  0  0  0  0  0  0  0  0
   -1.9276   -2.3961    0.8379 C   0  0  0  0  0  0  0  0  0  0  0  0
   -2.1412   -3.5421   -0.1337 C   0  0  0  0  0  0  0  0  0  0  0  0
   -3.3155   -3.8329   -0.7378 C   0  0  0  0  0  0  0  0  0  0  0  0
   -3.3606   -4.9935   -1.6980 C   0  0  0  0  0  0  0  0  0  0  0  0
   -4.5674   -3.0271   -0.4891 C   0  0  0  0  0  0  0  0  0  0  0  0
    0.4570   -1.8408   -0.0061 C   0  0  0  0  0  0  0  0  0  0  0  0
    1.6285   -1.0704    0.6837 C   0  0  2  0  0  0  0  0  0  0  0  0
    1.7462   -1.4916    2.1870 C   0  0  0  0  0  0  0  0  0  0  0  0
    3.1787   -1.7204    2.6146 C   0  0  0  0  0  0  0  0  0  0  0  0
    3.8858   -2.8391    2.3398 C   0  0  0  0  0  0  0  0  0  0  0  0
    3.2838   -4.0039    1.5878 C   0  0  0  0  0  0  0  0  0  0  0  0
    5.3099   -2.9249    2.8248 C   0  0  0  0  0  0  0  0  0  0  0  0
    1.4936    0.4953    0.4404 C   0  0  2  0  0  0  0  0  0  0  0  0
    2.6414    1.2483    1.1848 C   0  0  0  0  0  0  0  0  0  0  0  0
    1.7589    0.7818   -1.1037 C   0  0  0  0  0  0  0  0  0  0  0  0
    3.0177    0.1630   -1.7623 C   0  0  0  0  0  0  0  0  0  0  0  0
    3.3107    0.8317   -3.0828 C   0  0  0  0  0  0  0  0  0  0  0  0
    4.0273    1.9699   -3.2149 C   0  0  0  0  0  0  0  0  0  0  0  0
    4.6545    2.6625   -2.0269 C   0  0  0  0  0  0  0  0  0  0  0  0
    4.2148    2.5450   -4.5949 C   0  0  0  0  0  0  0  0  0  0  0  0
   -0.8383   -0.1831    1.3321 C   0  0  0  0  0  0  0  0  0  0  0  0
   -1.3729   -0.2600    2.4329 O   0  0  0  0  0  0  0  0  0  0  0  0
    0.3225    4.6077    1.3295 H   0  0  0  0  0  0  0  0  0  0  0  0
    0.4062    4.5648    3.1309 H   0  0  0  0  0  0  0  0  0  0  0  0
   -1.0035    5.3355    2.3041 H   0  0  0  0  0  0  0  0  0  0  0  0
   -1.7539    3.1695    1.4246 H   0  0  0  0  0  0  0  0  0  0  0  0
   -1.2078    3.0392    4.4377 H   0  0  0  0  0  0  0  0  0  0  0  0
   -2.3999    2.0363    3.5195 H   0  0  0  0  0  0  0  0  0  0  0  0
   -2.6022    3.8203    3.6009 H   0  0  0  0  0  0  0  0  0  0  0  0
   -0.6436    3.3946   -1.5068 H   0  0  0  0  0  0  0  0  0  0  0  0
   -1.9680    1.3281   -3.1341 H   0  0  0  0  0  0  0  0  0  0  0  0
   -2.5484    2.6116   -2.0312 H   0  0  0  0  0  0  0  0  0  0  0  0
   -4.1466    0.3977   -3.0430 H   0  0  0  0  0  0  0  0  0  0  0  0
   -6.7757    0.7813   -0.4586 H   0  0  0  0  0  0  0  0  0  0  0  0
   -6.6248    1.1005   -2.2238 H   0  0  0  0  0  0  0  0  0  0  0  0
   -6.1095   -0.4893   -1.5407 H   0  0  0  0  0  0  0  0  0  0  0  0
   -3.6447    1.3383    0.6752 H   0  0  0  0  0  0  0  0  0  0  0  0
   -4.0158    2.9088   -0.1529 H   0  0  0  0  0  0  0  0  0  0  0  0
   -5.2952    2.0310    0.7428 H   0  0  0  0  0  0  0  0  0  0  0  0
   -2.8916   -1.9397    1.1446 H   0  0  0  0  0  0  0  0  0  0  0  0
   -1.4894   -2.8318    1.7624 H   0  0  0  0  0  0  0  0  0  0  0  0
   -1.2800   -4.1640   -0.3612 H   0  0  0  0  0  0  0  0  0  0  0  0
   -4.3747   -5.1348   -2.1263 H   0  0  0  0  0  0  0  0  0  0  0  0
   -3.0733   -5.9280   -1.1711 H   0  0  0  0  0  0  0  0  0  0  0  0
   -2.6515   -4.8155   -2.5342 H   0  0  0  0  0  0  0  0  0  0  0  0
   -4.3821   -1.9599   -0.7269 H   0  0  0  0  0  0  0  0  0  0  0  0
   -4.8739   -3.1237    0.5736 H   0  0  0  0  0  0  0  0  0  0  0  0
   -5.4104   -3.3746   -1.1215 H   0  0  0  0  0  0  0  0  0  0  0  0
    0.5366   -2.9100    0.2823 H   0  0  0  0  0  0  0  0  0  0  0  0
    0.6336   -1.8517   -1.1034 H   0  0  0  0  0  0  0  0  0  0  0  0
    2.5563   -1.4282    0.1961 H   0  0  0  0  0  0  0  0  0  0  0  0
    1.3121   -0.7179    2.8485 H   0  0  0  0  0  0  0  0  0  0  0  0
    1.1580   -2.4066    2.4099 H   0  0  0  0  0  0  0  0  0  0  0  0
    3.6509   -0.9371    3.2019 H   0  0  0  0  0  0  0  0  0  0  0  0
    2.9851   -3.6938    0.5665 H   0  0  0  0  0  0  0  0  0  0  0  0
    2.3981   -4.3930    2.1317 H   0  0  0  0  0  0  0  0  0  0  0  0
    4.0082   -4.8383    1.4858 H   0  0  0  0  0  0  0  0  0  0  0  0
    5.3357   -2.8368    3.9317 H   0  0  0  0  0  0  0  0  0  0  0  0
    5.7843   -3.8874    2.5416 H   0  0  0  0  0  0  0  0  0  0  0  0
    5.9067   -2.1001    2.3809 H   0  0  0  0  0  0  0  0  0  0  0  0
    2.5415    2.3459    1.0421 H   0  0  0  0  0  0  0  0  0  0  0  0
    2.6810    1.0380    2.2659 H   0  0  0  0  0  0  0  0  0  0  0  0
    3.6445    0.9519    0.8309 H   0  0  0  0  0  0  0  0  0  0  0  0
    1.7877    1.8823   -1.2533 H   0  0  0  0  0  0  0  0  0  0  0  0
    0.9190    0.4076   -1.7196 H   0  0  0  0  0  0  0  0  0  0  0  0
    3.9187    0.1879   -1.1246 H   0  0  0  0  0  0  0  0  0  0  0  0
    2.8191   -0.9084   -1.9790 H   0  0  0  0  0  0  0  0  0  0  0  0
    2.9019    0.3609   -3.9738 H   0  0  0  0  0  0  0  0  0  0  0  0
    5.1872    3.5873   -2.3307 H   0  0  0  0  0  0  0  0  0  0  0  0
    5.3935    1.9907   -1.5426 H   0  0  0  0  0  0  0  0  0  0  0  0
    3.8773    2.9488   -1.2897 H   0  0  0  0  0  0  0  0  0  0  0  0
    4.7289    1.8045   -5.2437 H   0  0  0  0  0  0  0  0  0  0  0  0
    4.8250    3.4718   -4.5752 H   0  0  0  0  0  0  0  0  0  0  0  0
    3.2255    2.7895   -5.0364 H   0  0  0  0  0  0  0  0  0  0  0  0
  1  2  1  0
  2  3  1  0
  2  4  1  0
  4  5  2  0
  6  4  1  1
  6  7  1  0
  7  8  1  0
  7  9  2  0
  9 10  1  0
 10 11  1  0
 11 12  2  3
 12 13  1  0
 12 14  1  0
  9 15  1  0
 15 16  2  0
 15 17  1  0
 17 18  1  1
 18 19  1  0
 19 20  2  3
 20 21  1  0
 20 22  1  0
 17 23  1  0
 23 24  1  0
 24 25  1  0
 25 26  1  0
 26 27  2  3
 27 28  1  0
 27 29  1  0
 24 30  1  0
 30 31  1  1
 30 32  1  0
 32 33  1  0
 33 34  1  0
 34 35  2  3
 35 36  1  0
 35 37  1  0
 17 38  1  0
 38 39  2  0
 30  6  1  0
 38  6  1  0
  1 40  1  0
  1 41  1  0
  1 42  1  0
  2 43  1  0
  3 44  1  0
  3 45  1  0
  3 46  1  0
  8 47  1  0
 10 48  1  0
 10 49  1  0
 11 50  1  0
 13 51  1  0
 13 52  1  0
 13 53  1  0
 14 54  1  0
 14 55  1  0
 14 56  1  0
 18 57  1  0
 18 58  1  0
 19 59  1  0
 21 60  1  0
 21 61  1  0
 21 62  1  0
 22 63  1  0
 22 64  1  0
 22 65  1  0
 23 66  1  0
 23 67  1  0
 24 68  1  6
 25 69  1  0
 25 70  1  0
 26 71  1  0
 28 72  1  0
 28 73  1  0
 28 74  1  0
 29 75  1  0
 29 76  1  0
 29 77  1  0
 31 78  1  0
 31 79  1  0
 31 80  1  0
 32 81  1  0
 32 82  1  0
 33 83  1  0
 33 84  1  0
 34 85  1  0
 36 86  1  0
 36 87  1  0
 36 88  1  0
 37 89  1  0
 37 90  1  0
 37 91  1  0
M  END
$$$$
