
     RDKit          3D

105108  0  0  0  0  0  0  0  0999 V2000
   -1.4473   -1.9231    1.5027 O   0  0  0  0  0  0  0  0  0  0  0  0
   -1.6104   -1.1662    0.3467 C   0  0  0  0  0  0  0  0  0  0  0  0
   -2.0456   -1.7102   -0.7035 O   0  0  0  0  0  0  0  0  0  0  0  0
   -1.2897    0.2999    0.3622 C   0  0  0  0  0  0  0  0  0  0  0  0
   -0.0814    0.6909   -0.5285 C   0  0  0  0  0  0  0  0  0  0  0  0
   -0.2962    0.2073   -1.8364 O   0  0  0  0  0  0  0  0  0  0  0  0
    1.2633    0.1466    0.0406 C   0  0  0  0  0  0  0  0  0  0  0  0
    1.4270   -1.3395   -0.0957 C   0  0  0  0  0  0  0  0  0  0  0  0
    1.4544   -2.1405    1.0417 O   0  0  0  0  0  0  0  0  0  0  0  0
    1.5612   -1.8625   -1.2344 O   0  0  0  0  0  0  0  0  0  0  0  0
   -0.0196    2.2056   -0.5575 C   0  0  0  0  0  0  0  0  0  0  0  0
    0.4863    2.9055    0.5354 O   0  0  0  0  0  0  0  0  0  0  0  0
   -0.4773    2.8438   -1.5444 O   0  0  0  0  0  0  0  0  0  0  0  0
    6.7845    4.0973    0.6823 C   0  0  0  0  0  0  0  0  0  0  0  0
    7.1743    2.6963    1.1546 C   0  0  0  0  0  0  0  0  0  0  0  0
    7.6602    1.8562    0.0349 N   0  0  0  0  0  0  0  0  0  0  0  0
    8.4512    0.7072    0.5348 C   0  0  0  0  0  0  0  0  0  0  0  0
    9.3389    0.1127   -0.5590 C   0  0  0  0  0  0  0  0  0  0  0  0
    6.5911    1.4702   -0.9265 C   0  0  0  0  0  0  0  0  0  0  0  0
    5.5026    0.5906   -0.3410 C   0  0  0  0  0  0  0  0  0  0  0  0
    4.3489    1.1627    0.2131 C   0  0  0  0  0  0  0  0  0  0  0  0
    3.3416    0.3557    0.7432 C   0  0  0  0  0  0  0  0  0  0  0  0
    3.4614   -1.0469    0.7141 C   0  0  0  0  0  0  0  0  0  0  0  0
    2.4741   -1.8989    1.2397 O   0  0  0  0  0  0  0  0  0  0  0  0
    1.2059   -1.4863    1.7490 C   0  0  0  0  0  0  0  0  0  0  0  0
    0.2556   -1.1259    0.6001 C   0  0  0  0  0  0  0  0  0  0  0  0
   -1.1178   -0.6478    1.1232 C   0  0  1  0  0  0  0  0  0  0  0  0
   -1.0643    0.7448    1.8014 C   0  0  0  0  0  0  0  0  0  0  0  0
   -2.4047    1.4378    1.4934 C   0  0  0  0  0  0  0  0  0  0  0  0
   -3.2420    0.3445    0.8448 C   0  0  1  0  0  0  0  0  0  0  0  0
   -4.4748    0.7255   -0.0003 C   0  0  2  0  0  0  0  0  0  0  0  0
   -5.4399    1.7190    0.6902 C   0  0  2  0  0  0  0  0  0  0  0  0
   -6.0935    1.1900    1.9816 C   0  0  0  0  0  0  0  0  0  0  0  0
   -6.5070    2.1517   -0.3298 C   0  0  0  0  0  0  0  0  0  0  0  0
   -7.1220    0.9956   -1.0906 C   0  0  0  0  0  0  0  0  0  0  0  0
   -6.4876   -0.2751   -1.1966 C   0  0  0  0  0  0  0  0  0  0  0  0
   -7.1531   -1.2965   -1.9084 C   0  0  0  0  0  0  0  0  0  0  0  0
   -8.3563   -1.0456   -2.5691 C   0  0  0  0  0  0  0  0  0  0  0  0
   -8.9409    0.2204   -2.5108 C   0  0  0  0  0  0  0  0  0  0  0  0
  -10.1374    0.4819   -3.1747 O   0  0  0  0  0  0  0  0  0  0  0  0
   -8.3257    1.2325   -1.7750 C   0  0  0  0  0  0  0  0  0  0  0  0
   -5.2127   -0.5848   -0.4084 C   0  0  1  0  0  0  0  0  0  0  0  0
   -4.2390   -1.5642   -1.1359 C   0  0  0  0  0  0  0  0  0  0  0  0
   -2.9307   -1.8238   -0.3417 C   0  0  0  0  0  0  0  0  0  0  0  0
   -2.2308   -0.5032    0.0547 C   0  0  2  0  0  0  0  0  0  0  0  0
   -1.6692    0.2022   -1.2245 C   0  0  0  0  0  0  0  0  0  0  0  0
    4.6044   -1.6301    0.1463 C   0  0  0  0  0  0  0  0  0  0  0  0
    4.6983   -3.0310    0.1293 O   0  0  0  0  0  0  0  0  0  0  0  0
    5.7999   -3.7598   -0.4027 C   0  0  0  0  0  0  0  0  0  0  0  0
    5.6151   -0.8078   -0.3882 C   0  0  0  0  0  0  0  0  0  0  0  0
   -1.6610   -2.9132    1.5098 H   0  0  0  0  0  0  0  0  0  0  0  0
   -2.1969    0.8428    0.0150 H   0  0  0  0  0  0  0  0  0  0  0  0
   -1.1035    0.6191    1.4114 H   0  0  0  0  0  0  0  0  0  0  0  0
    0.4850    0.4707   -2.3916 H   0  0  0  0  0  0  0  0  0  0  0  0
    2.1133    0.6275   -0.4922 H   0  0  0  0  0  0  0  0  0  0  0  0
    1.3589    0.4221    1.1138 H   0  0  0  0  0  0  0  0  0  0  0  0
    1.5663   -3.1445    0.9674 H   0  0  0  0  0  0  0  0  0  0  0  0
    0.5130    3.9181    0.5373 H   0  0  0  0  0  0  0  0  0  0  0  0
    7.5899    4.5259    0.0489 H   0  0  0  0  0  0  0  0  0  0  0  0
    5.8348    4.0792    0.1112 H   0  0  0  0  0  0  0  0  0  0  0  0
    6.6363    4.7574    1.5631 H   0  0  0  0  0  0  0  0  0  0  0  0
    6.3296    2.2158    1.6908 H   0  0  0  0  0  0  0  0  0  0  0  0
    7.9843    2.8418    1.9033 H   0  0  0  0  0  0  0  0  0  0  0  0
    7.8016   -0.0753    0.9793 H   0  0  0  0  0  0  0  0  0  0  0  0
    9.1427    1.0405    1.3400 H   0  0  0  0  0  0  0  0  0  0  0  0
   10.0659   -0.5926   -0.1035 H   0  0  0  0  0  0  0  0  0  0  0  0
    9.9020    0.9188   -1.0754 H   0  0  0  0  0  0  0  0  0  0  0  0
    8.7400   -0.4532   -1.3002 H   0  0  0  0  0  0  0  0  0  0  0  0
    7.0407    0.9643   -1.8058 H   0  0  0  0  0  0  0  0  0  0  0  0
    6.1331    2.3809   -1.3649 H   0  0  0  0  0  0  0  0  0  0  0  0
    4.2268    2.2377    0.2369 H   0  0  0  0  0  0  0  0  0  0  0  0
    2.4749    0.8379    1.1718 H   0  0  0  0  0  0  0  0  0  0  0  0
    0.7717   -2.3357    2.3179 H   0  0  0  0  0  0  0  0  0  0  0  0
    1.3297   -0.6432    2.4610 H   0  0  0  0  0  0  0  0  0  0  0  0
    0.1119   -2.0310   -0.0287 H   0  0  0  0  0  0  0  0  0  0  0  0
    0.7218   -0.3422   -0.0323 H   0  0  0  0  0  0  0  0  0  0  0  0
   -1.4636   -1.3850    1.8856 H   0  0  0  0  0  0  0  0  0  0  0  0
   -0.2288    1.3613    1.4028 H   0  0  0  0  0  0  0  0  0  0  0  0
   -0.9278    0.6309    2.8990 H   0  0  0  0  0  0  0  0  0  0  0  0
   -2.2568    2.2872    0.7914 H   0  0  0  0  0  0  0  0  0  0  0  0
   -2.8841    1.8125    2.4238 H   0  0  0  0  0  0  0  0  0  0  0  0
   -3.6224   -0.2770    1.6920 H   0  0  0  0  0  0  0  0  0  0  0  0
   -4.1288    1.2413   -0.9191 H   0  0  0  0  0  0  0  0  0  0  0  0
   -4.8650    2.6305    0.9664 H   0  0  0  0  0  0  0  0  0  0  0  0
   -6.6860    2.0002    2.4572 H   0  0  0  0  0  0  0  0  0  0  0  0
   -6.7812    0.3441    1.7760 H   0  0  0  0  0  0  0  0  0  0  0  0
   -5.3261    0.8708    2.7150 H   0  0  0  0  0  0  0  0  0  0  0  0
   -7.3014    2.7356    0.1861 H   0  0  0  0  0  0  0  0  0  0  0  0
   -6.0371    2.8343   -1.0715 H   0  0  0  0  0  0  0  0  0  0  0  0
   -6.7622   -2.3011   -1.9526 H   0  0  0  0  0  0  0  0  0  0  0  0
   -8.8394   -1.8426   -3.1203 H   0  0  0  0  0  0  0  0  0  0  0  0
  -10.6103   -0.2325   -3.7159 H   0  0  0  0  0  0  0  0  0  0  0  0
   -8.7927    2.2094   -1.7314 H   0  0  0  0  0  0  0  0  0  0  0  0
   -5.5380   -1.1112    0.5152 H   0  0  0  0  0  0  0  0  0  0  0  0
   -4.0074   -1.1825   -2.1522 H   0  0  0  0  0  0  0  0  0  0  0  0
   -4.7202   -2.5546   -1.2640 H   0  0  0  0  0  0  0  0  0  0  0  0
   -3.1815   -2.4101    0.5700 H   0  0  0  0  0  0  0  0  0  0  0  0
   -2.2465   -2.4499   -0.9543 H   0  0  0  0  0  0  0  0  0  0  0  0
   -2.4448    0.4336   -1.9767 H   0  0  0  0  0  0  0  0  0  0  0  0
   -1.1469    1.1496   -0.9790 H   0  0  0  0  0  0  0  0  0  0  0  0
   -0.9446   -0.4611   -1.7415 H   0  0  0  0  0  0  0  0  0  0  0  0
    5.6112   -4.8454   -0.2759 H   0  0  0  0  0  0  0  0  0  0  0  0
    6.7315   -3.4949    0.1408 H   0  0  0  0  0  0  0  0  0  0  0  0
    5.9137   -3.5433   -1.4859 H   0  0  0  0  0  0  0  0  0  0  0  0
    6.4910   -1.2488   -0.8420 H   0  0  0  0  0  0  0  0  0  0  0  0
  1  2  1  0
  2  3  2  0
  2  4  1  0
  4  5  1  0
  5  6  1  0
  5  7  1  0
  7  8  1  0
  8  9  1  0
  8 10  2  0
  5 11  1  0
 11 12  1  0
 11 13  2  0
 14 15  1  0
 15 16  1  0
 16 17  1  0
 17 18  1  0
 16 19  1  0
 19 20  1  0
 20 21  2  0
 21 22  1  0
 22 23  2  0
 23 24  1  0
 24 25  1  0
 25 26  1  0
 26 27  1  0
 27 28  1  0
 28 29  1  0
 29 30  1  0
 30 31  1  0
 31 32  1  0
 32 33  1  0
 32 34  1  0
 34 35  1  0
 35 36  2  0
 36 37  1  0
 37 38  2  0
 38 39  1  0
 39 40  1  0
 39 41  2  0
 36 42  1  0
 42 43  1  0
 43 44  1  0
 44 45  1  0
 45 46  1  6
 23 47  1  0
 47 48  1  0
 48 49  1  0
 47 50  2  0
 50 20  1  0
 45 27  1  0
 45 30  1  0
 42 31  1  0
 41 35  1  0
  1 51  1  0
  4 52  1  0
  4 53  1  0
  6 54  1  0
  7 55  1  0
  7 56  1  0
  9 57  1  0
 12 58  1  0
 14 59  1  0
 14 60  1  0
 14 61  1  0
 15 62  1  0
 15 63  1  0
 17 64  1  0
 17 65  1  0
 18 66  1  0
 18 67  1  0
 18 68  1  0
 19 69  1  0
 19 70  1  0
 21 71  1  0
 22 72  1  0
 25 73  1  0
 25 74  1  0
 26 75  1  0
 26 76  1  0
 27 77  1  1
 28 78  1  0
 28 79  1  0
 29 80  1  0
 29 81  1  0
 30 82  1  1
 31 83  1  6
 32 84  1  1
 33 85  1  0
 33 86  1  0
 33 87  1  0
 34 88  1  0
 34 89  1  0
 37 90  1  0
 38 91  1  0
 40 92  1  0
 41 93  1  0
 42 94  1  1
 43 95  1  0
 43 96  1  0
 44 97  1  0
 44 98  1  0
 46 99  1  0
 46100  1  0
 46101  1  0
 49102  1  0
 49103  1  0
 49104  1  0
 50105  1  0
M  END
$$$$
