
     RDKit          3D

 54 58  0  0  0  0  0  0  0  0999 V2000
   -2.2566    4.6272    1.2554 C   0  0  0  0  0  0  0  0  0  0  0  0
   -2.2255    3.3432    0.4322 C   0  0  0  0  0  0  0  0  0  0  0  0
   -2.2591    2.1048    1.3328 C   0  0  0  0  0  0  0  0  0  0  0  0
   -2.2204    0.8805    0.5159 N   0  0  0  0  0  0  0  0  0  0  0  0
   -1.0300    0.3279    0.1570 C   0  0  0  0  0  0  0  0  0  0  0  0
   -0.9508   -0.7766   -0.6124 C   0  0  0  0  0  0  0  0  0  0  0  0
    0.3337   -1.1036   -0.7984 N   0  0  0  0  0  0  0  0  0  0  0  0
    1.0110   -0.1416   -0.1207 C   0  0  0  0  0  0  0  0  0  0  0  0
    0.1992    0.7589    0.4980 N   0  0  0  0  0  0  0  0  0  0  0  0
    2.5132   -0.1283    0.0112 C   0  0  0  0  0  0  0  0  0  0  0  0
    3.0873    1.2070    0.5281 C   0  0  0  0  0  0  0  0  0  0  0  0
    4.5127    1.1379   -0.0079 C   0  0  2  0  0  0  0  0  0  0  0  0
    4.2343    0.8117   -1.4708 C   0  0  0  0  0  0  0  0  0  0  0  0
    3.2831   -0.3869   -1.3343 C   0  0  0  0  0  0  0  0  0  0  0  0
    4.1709   -1.6043   -1.0357 C   0  0  0  0  0  0  0  0  0  0  0  0
    4.4489   -1.4115    0.4520 C   0  0  2  0  0  0  0  0  0  0  0  0
    3.0287   -1.2177    0.9700 C   0  0  0  0  0  0  0  0  0  0  0  0
    5.2622   -0.0774    0.6594 C   0  0  0  0  0  0  0  0  0  0  0  0
   -2.0949   -1.3976   -1.0788 C   0  0  0  0  0  0  0  0  0  0  0  0
   -2.0061   -2.4372   -1.7882 O   0  0  0  0  0  0  0  0  0  0  0  0
   -3.3155   -0.8508   -0.7474 N   0  0  0  0  0  0  0  0  0  0  0  0
   -4.5654   -1.4857   -1.2151 C   0  0  0  0  0  0  0  0  0  0  0  0
   -5.2083   -2.3419   -0.1141 C   0  0  0  0  0  0  0  0  0  0  0  0
   -4.3494   -3.5466    0.2640 C   0  0  0  0  0  0  0  0  0  0  0  0
   -3.3740    0.2885    0.0425 C   0  0  0  0  0  0  0  0  0  0  0  0
   -4.4958    0.7936    0.3308 O   0  0  0  0  0  0  0  0  0  0  0  0
   -1.3748    4.6747    1.9293 H   0  0  0  0  0  0  0  0  0  0  0  0
   -3.1859    4.6739    1.8623 H   0  0  0  0  0  0  0  0  0  0  0  0
   -2.2318    5.5049    0.5757 H   0  0  0  0  0  0  0  0  0  0  0  0
   -1.2999    3.3302   -0.1833 H   0  0  0  0  0  0  0  0  0  0  0  0
   -3.1016    3.3296   -0.2517 H   0  0  0  0  0  0  0  0  0  0  0  0
   -3.1740    2.1211    1.9651 H   0  0  0  0  0  0  0  0  0  0  0  0
   -1.3957    2.1273    2.0344 H   0  0  0  0  0  0  0  0  0  0  0  0
    0.7212   -1.9157   -1.3287 H   0  0  0  0  0  0  0  0  0  0  0  0
    2.5504    2.0790    0.0885 H   0  0  0  0  0  0  0  0  0  0  0  0
    3.0617    1.3118    1.6355 H   0  0  0  0  0  0  0  0  0  0  0  0
    5.0629    2.0948    0.1185 H   0  0  0  0  0  0  0  0  0  0  0  0
    5.1665    0.5894   -2.0359 H   0  0  0  0  0  0  0  0  0  0  0  0
    3.7206    1.6594   -1.9783 H   0  0  0  0  0  0  0  0  0  0  0  0
    2.6452   -0.5273   -2.2338 H   0  0  0  0  0  0  0  0  0  0  0  0
    5.1068   -1.6417   -1.6360 H   0  0  0  0  0  0  0  0  0  0  0  0
    3.6088   -2.5483   -1.2178 H   0  0  0  0  0  0  0  0  0  0  0  0
    4.9535   -2.2894    0.9090 H   0  0  0  0  0  0  0  0  0  0  0  0
    2.4452   -2.1617    0.8676 H   0  0  0  0  0  0  0  0  0  0  0  0
    3.0111   -0.9212    2.0423 H   0  0  0  0  0  0  0  0  0  0  0  0
    5.3928    0.1154    1.7462 H   0  0  0  0  0  0  0  0  0  0  0  0
    6.2738   -0.1837    0.2113 H   0  0  0  0  0  0  0  0  0  0  0  0
   -5.2899   -0.7033   -1.5310 H   0  0  0  0  0  0  0  0  0  0  0  0
   -4.3937   -2.1077   -2.1207 H   0  0  0  0  0  0  0  0  0  0  0  0
   -5.3926   -1.7241    0.7907 H   0  0  0  0  0  0  0  0  0  0  0  0
   -6.1919   -2.7090   -0.4789 H   0  0  0  0  0  0  0  0  0  0  0  0
   -4.8950   -4.1733    1.0003 H   0  0  0  0  0  0  0  0  0  0  0  0
   -4.1306   -4.1636   -0.6333 H   0  0  0  0  0  0  0  0  0  0  0  0
   -3.3965   -3.2148    0.7272 H   0  0  0  0  0  0  0  0  0  0  0  0
  1  2  1  0
  2  3  1  0
  3  4  1  0
  4  5  1  0
  5  6  2  0
  6  7  1  0
  7  8  1  0
  8  9  2  0
  8 10  1  0
 10 11  1  0
 11 12  1  0
 12 13  1  0
 13 14  1  0
 14 15  1  0
 15 16  1  0
 16 17  1  0
 16 18  1  0
  6 19  1  0
 19 20  2  0
 19 21  1  0
 21 22  1  0
 22 23  1  0
 23 24  1  0
 21 25  1  0
 25 26  2  0
 25  4  1  0
  9  5  1  0
 14 10  1  0
 17 10  1  0
 18 12  1  0
  1 27  1  0
  1 28  1  0
  1 29  1  0
  2 30  1  0
  2 31  1  0
  3 32  1  0
  3 33  1  0
  7 34  1  0
 11 35  1  0
 11 36  1  0
 12 37  1  6
 13 38  1  0
 13 39  1  0
 14 40  1  0
 15 41  1  0
 15 42  1  0
 16 43  1  1
 17 44  1  0
 17 45  1  0
 18 46  1  0
 18 47  1  0
 22 48  1  0
 22 49  1  0
 23 50  1  0
 23 51  1  0
 24 52  1  0
 24 53  1  0
 24 54  1  0
M  END
$$$$
