
     RDKit          3D

 16 15  0  0  0  0  0  0  0  0999 V2000
   -0.8846   -1.6449   -0.0470 O   0  0  0  0  0  0  0  0  0  0  0  0
   -0.5950   -0.3112   -0.3827 C   0  0  2  0  0  0  0  0  0  0  0  0
    0.5548    0.2153    0.4932 C   0  0  1  0  0  0  0  0  0  0  0  0
    0.2268    0.0778    1.8528 O   0  0  0  0  0  0  0  0  0  0  0  0
    1.8260   -0.5280    0.1908 C   0  0  0  0  0  0  0  0  0  0  0  0
    2.7302   -0.0036   -0.7275 O   0  0  0  0  0  0  0  0  0  0  0  0
    2.0575   -1.6418    0.7342 O   0  0  0  0  0  0  0  0  0  0  0  0
   -1.8197    0.5429   -0.2080 C   0  0  0  0  0  0  0  0  0  0  0  0
   -2.0661    1.5857   -1.0956 O   0  0  0  0  0  0  0  0  0  0  0  0
   -2.6020    0.3447    0.7606 O   0  0  0  0  0  0  0  0  0  0  0  0
   -1.4244   -2.0174   -0.7928 H   0  0  0  0  0  0  0  0  0  0  0  0
   -0.2783   -0.2549   -1.4511 H   0  0  0  0  0  0  0  0  0  0  0  0
    0.7143    1.2935    0.2542 H   0  0  0  0  0  0  0  0  0  0  0  0
    0.8538    0.6583    2.3590 H   0  0  0  0  0  0  0  0  0  0  0  0
    3.5843   -0.4981   -0.9559 H   0  0  0  0  0  0  0  0  0  0  0  0
   -2.8775    2.1818   -0.9843 H   0  0  0  0  0  0  0  0  0  0  0  0
  1  2  1  0
  2  3  1  0
  3  4  1  0
  3  5  1  0
  5  6  1  0
  5  7  2  0
  2  8  1  0
  8  9  1  0
  8 10  2  0
  1 11  1  0
  2 12  1  6
  3 13  1  6
  4 14  1  0
  6 15  1  0
  9 16  1  0
M  END
$$$$
