
     RDKit          3D

 39 42  0  0  0  0  0  0  0  0999 V2000
   -2.8703   -3.2708   -0.5549 C   0  0  0  0  0  0  0  0  0  0  0  0
   -2.4900   -1.8551   -0.6688 N   0  0  0  0  0  0  0  0  0  0  0  0
   -3.0699   -1.0799    0.4504 C   0  0  0  0  0  0  0  0  0  0  0  0
   -2.8251    0.4233    0.2398 C   0  0  0  0  0  0  0  0  0  0  0  0
   -1.4048    0.6665   -0.1747 C   0  0  0  0  0  0  0  0  0  0  0  0
   -0.6056   -0.2840   -0.6532 C   0  0  0  0  0  0  0  0  0  0  0  0
   -1.0149   -1.7294   -0.6860 C   0  0  0  0  0  0  0  0  0  0  0  0
    0.7526    0.2577   -1.0305 C   0  0  0  0  0  0  0  0  0  0  0  0
    0.5566    1.7139   -0.7332 C   0  0  0  0  0  0  0  0  0  0  0  0
    1.4542    2.7683   -0.9126 C   0  0  0  0  0  0  0  0  0  0  0  0
    1.0400    4.0659   -0.5672 C   0  0  0  0  0  0  0  0  0  0  0  0
   -0.2553    4.2882   -0.0572 C   0  0  0  0  0  0  0  0  0  0  0  0
   -1.1458    3.2147    0.1105 C   0  0  0  0  0  0  0  0  0  0  0  0
   -0.7090    1.9365   -0.2378 C   0  0  0  0  0  0  0  0  0  0  0  0
    1.8565   -0.3480   -0.1909 C   0  0  0  0  0  0  0  0  0  0  0  0
    2.9342   -0.9975   -0.8167 C   0  0  0  0  0  0  0  0  0  0  0  0
    3.9586   -1.5641   -0.0520 C   0  0  0  0  0  0  0  0  0  0  0  0
    3.9169   -1.4884    1.3424 C   0  0  0  0  0  0  0  0  0  0  0  0
    2.8505   -0.8457    1.9756 C   0  0  0  0  0  0  0  0  0  0  0  0
    1.8240   -0.2773    1.2160 C   0  0  0  0  0  0  0  0  0  0  0  0
   -2.4368   -3.8526   -1.3968 H   0  0  0  0  0  0  0  0  0  0  0  0
   -2.5193   -3.7076    0.4068 H   0  0  0  0  0  0  0  0  0  0  0  0
   -3.9749   -3.3744   -0.6176 H   0  0  0  0  0  0  0  0  0  0  0  0
   -2.6218   -1.3971    1.4204 H   0  0  0  0  0  0  0  0  0  0  0  0
   -4.1685   -1.2466    0.5077 H   0  0  0  0  0  0  0  0  0  0  0  0
   -3.4980    0.8000   -0.5600 H   0  0  0  0  0  0  0  0  0  0  0  0
   -3.0439    0.9734    1.1796 H   0  0  0  0  0  0  0  0  0  0  0  0
   -0.5608   -2.2443    0.1907 H   0  0  0  0  0  0  0  0  0  0  0  0
   -0.6125   -2.1884   -1.6148 H   0  0  0  0  0  0  0  0  0  0  0  0
    0.9245    0.1136   -2.1195 H   0  0  0  0  0  0  0  0  0  0  0  0
    2.4464    2.5903   -1.3063 H   0  0  0  0  0  0  0  0  0  0  0  0
    1.7187    4.8990   -0.6947 H   0  0  0  0  0  0  0  0  0  0  0  0
   -0.5661    5.2911    0.2050 H   0  0  0  0  0  0  0  0  0  0  0  0
   -2.1427    3.3780    0.4984 H   0  0  0  0  0  0  0  0  0  0  0  0
    2.9828   -1.0665   -1.8962 H   0  0  0  0  0  0  0  0  0  0  0  0
    4.7854   -2.0628   -0.5411 H   0  0  0  0  0  0  0  0  0  0  0  0
    4.7108   -1.9281    1.9322 H   0  0  0  0  0  0  0  0  0  0  0  0
    2.8189   -0.7880    3.0560 H   0  0  0  0  0  0  0  0  0  0  0  0
    1.0042    0.2162    1.7228 H   0  0  0  0  0  0  0  0  0  0  0  0
  1  2  1  0
  2  3  1  0
  3  4  1  0
  4  5  1  0
  5  6  2  0
  6  7  1  0
  6  8  1  0
  8  9  1  0
  9 10  2  0
 10 11  1  0
 11 12  2  0
 12 13  1  0
 13 14  2  0
  8 15  1  0
 15 16  2  0
 16 17  1  0
 17 18  2  0
 18 19  1  0
 19 20  2  0
  7  2  1  0
 14  9  1  0
 20 15  1  0
 14  5  1  0
  1 21  1  0
  1 22  1  0
  1 23  1  0
  3 24  1  0
  3 25  1  0
  4 26  1  0
  4 27  1  0
  7 28  1  0
  7 29  1  0
  8 30  1  0
 10 31  1  0
 11 32  1  0
 12 33  1  0
 13 34  1  0
 16 35  1  0
 17 36  1  0
 18 37  1  0
 19 38  1  0
 20 39  1  0
M  END
$$$$
