
     RDKit          3D

 44 47  0  0  0  0  0  0  0  0999 V2000
   -1.5215   -2.0500   -1.7346 N   0  0  0  0  0  0  0  0  0  0  0  0
   -1.1237   -0.6408   -1.6245 C   0  0  0  0  0  0  0  0  0  0  0  0
   -1.3812    0.0003   -0.2103 C   0  0  0  0  0  0  0  0  0  0  0  0
   -0.7211    1.4307   -0.2154 C   0  0  0  0  0  0  0  0  0  0  0  0
    0.5624    1.5467    0.6234 C   0  0  0  0  0  0  0  0  0  0  0  0
    1.3933    0.3478    0.4790 N   0  0  0  0  0  0  0  0  0  0  0  0
    0.8108   -0.9771    0.7310 C   0  0  0  0  0  0  0  0  0  0  0  0
   -0.7163   -0.8994    0.8853 C   0  0  0  0  0  0  0  0  0  0  0  0
    2.8219    0.4882    0.4734 C   0  0  0  0  0  0  0  0  0  0  0  0
    3.6276   -0.1476   -0.4713 C   0  0  0  0  0  0  0  0  0  0  0  0
    3.3512   -0.9318   -1.5733 C   0  0  0  0  0  0  0  0  0  0  0  0
    4.5931   -1.2164   -2.1370 C   0  0  0  0  0  0  0  0  0  0  0  0
    5.5887   -0.6331   -1.4304 N   0  0  0  0  0  0  0  0  0  0  0  0
    4.9800    0.0155   -0.4272 C   0  0  0  0  0  0  0  0  0  0  0  0
    5.5843    0.7894    0.5060 N   0  0  0  0  0  0  0  0  0  0  0  0
    4.8023    1.4200    1.4312 C   0  0  0  0  0  0  0  0  0  0  0  0
    3.4408    1.2710    1.4076 N   0  0  0  0  0  0  0  0  0  0  0  0
   -2.8904    0.1671    0.1137 C   0  0  0  0  0  0  0  0  0  0  0  0
   -3.2764    0.6804    1.3759 C   0  0  0  0  0  0  0  0  0  0  0  0
   -4.6214    0.8684    1.7030 C   0  0  0  0  0  0  0  0  0  0  0  0
   -5.6171    0.5702    0.7745 C   0  0  0  0  0  0  0  0  0  0  0  0
   -7.3052    0.8102    1.1866 Cl  0  0  0  0  0  0  0  0  0  0  0  0
   -5.2657    0.0978   -0.4892 C   0  0  0  0  0  0  0  0  0  0  0  0
   -3.9218   -0.0914   -0.8245 C   0  0  0  0  0  0  0  0  0  0  0  0
   -0.7488   -2.6538   -1.3730 H   0  0  0  0  0  0  0  0  0  0  0  0
   -2.3683   -2.2488   -1.1575 H   0  0  0  0  0  0  0  0  0  0  0  0
   -0.0458   -0.5598   -1.8860 H   0  0  0  0  0  0  0  0  0  0  0  0
   -1.6385   -0.0553   -2.4149 H   0  0  0  0  0  0  0  0  0  0  0  0
   -0.4791    1.7506   -1.2534 H   0  0  0  0  0  0  0  0  0  0  0  0
   -1.4228    2.2102    0.1541 H   0  0  0  0  0  0  0  0  0  0  0  0
    0.2989    1.6795    1.6954 H   0  0  0  0  0  0  0  0  0  0  0  0
    1.1221    2.4521    0.2988 H   0  0  0  0  0  0  0  0  0  0  0  0
    1.2471   -1.4024    1.6611 H   0  0  0  0  0  0  0  0  0  0  0  0
    1.0638   -1.6681   -0.0960 H   0  0  0  0  0  0  0  0  0  0  0  0
   -1.1440   -1.9241    0.8793 H   0  0  0  0  0  0  0  0  0  0  0  0
   -0.9132   -0.4993    1.9004 H   0  0  0  0  0  0  0  0  0  0  0  0
    2.3853   -1.2369   -1.9497 H   0  0  0  0  0  0  0  0  0  0  0  0
    4.7536   -1.8059   -3.0299 H   0  0  0  0  0  0  0  0  0  0  0  0
    6.6116   -0.6639   -1.6377 H   0  0  0  0  0  0  0  0  0  0  0  0
    5.2608    2.0447    2.1853 H   0  0  0  0  0  0  0  0  0  0  0  0
   -2.5363    0.9679    2.1098 H   0  0  0  0  0  0  0  0  0  0  0  0
   -4.8868    1.2579    2.6777 H   0  0  0  0  0  0  0  0  0  0  0  0
   -6.0353   -0.1188   -1.2194 H   0  0  0  0  0  0  0  0  0  0  0  0
   -3.7189   -0.4420   -1.8236 H   0  0  0  0  0  0  0  0  0  0  0  0
  1  2  1  0
  2  3  1  0
  3  4  1  0
  4  5  1  0
  5  6  1  0
  6  7  1  0
  7  8  1  0
  6  9  1  0
  9 10  2  0
 10 11  1  0
 11 12  2  0
 12 13  1  0
 13 14  1  0
 14 15  2  0
 15 16  1  0
 16 17  2  0
  3 18  1  0
 18 19  2  0
 19 20  1  0
 20 21  2  0
 21 22  1  0
 21 23  1  0
 23 24  2  0
  8  3  1  0
 17  9  1  0
 24 18  1  0
 14 10  1  0
  1 25  1  0
  1 26  1  0
  2 27  1  0
  2 28  1  0
  4 29  1  0
  4 30  1  0
  5 31  1  0
  5 32  1  0
  7 33  1  0
  7 34  1  0
  8 35  1  0
  8 36  1  0
 11 37  1  0
 12 38  1  0
 13 39  1  0
 16 40  1  0
 19 41  1  0
 20 42  1  0
 23 43  1  0
 24 44  1  0
M  END
$$$$
