
     RDKit          3D

 43 46  0  0  0  0  0  0  0  0999 V2000
    6.2273   -1.8499   -1.0711 N   0  0  0  0  0  0  0  0  0  0  0  0
    6.0328   -0.4507   -0.8410 C   0  0  0  0  0  0  0  0  0  0  0  0
    6.8742    0.4081   -1.3335 N   0  0  0  0  0  4  0  0  0  0  0  0
    4.8406    0.0072   -0.0924 C   0  0  0  0  0  0  0  0  0  0  0  0
    3.5696   -0.4690   -0.4853 C   0  0  0  0  0  0  0  0  0  0  0  0
    2.4532   -0.0232    0.2151 C   0  0  0  0  0  0  0  0  0  0  0  0
    2.5577    0.8424    1.2675 C   0  0  0  0  0  0  0  0  0  0  0  0
    1.3496    1.1140    1.7872 N   0  0  0  0  0  0  0  0  0  0  0  0
    0.4598    0.4127    1.0418 C   0  0  0  0  0  0  0  0  0  0  0  0
    1.1178   -0.3168    0.0495 C   0  0  0  0  0  0  0  0  0  0  0  0
   -1.0006    0.4045    1.2978 C   0  0  0  0  0  0  0  0  0  0  0  0
   -1.4625    0.4912    2.6213 C   0  0  0  0  0  0  0  0  0  0  0  0
   -2.8284    0.4828    2.8980 C   0  0  0  0  0  0  0  0  0  0  0  0
   -3.7528    0.3759    1.8613 C   0  0  0  0  0  0  0  0  0  0  0  0
   -3.3221    0.2847    0.5288 C   0  0  0  0  0  0  0  0  0  0  0  0
   -1.9357    0.3299    0.2401 C   0  0  0  0  0  0  0  0  0  0  0  0
   -1.4748    0.3514   -1.0799 O   0  0  0  0  0  0  0  0  0  0  0  0
   -4.3371    0.1265   -0.5361 C   0  0  0  0  0  0  0  0  0  0  0  0
   -4.3085   -0.9937   -1.3847 C   0  0  0  0  0  0  0  0  0  0  0  0
   -5.2824   -1.1518   -2.3754 C   0  0  0  0  0  0  0  0  0  0  0  0
   -6.2954   -0.2000   -2.5202 C   0  0  0  0  0  0  0  0  0  0  0  0
   -6.3382    0.9101   -1.6721 C   0  0  0  0  0  0  0  0  0  0  0  0
   -5.3661    1.0723   -0.6800 C   0  0  0  0  0  0  0  0  0  0  0  0
    3.7900    1.3249    1.6983 C   0  0  0  0  0  0  0  0  0  0  0  0
    4.9468    0.9017    1.0150 C   0  0  0  0  0  0  0  0  0  0  0  0
    6.5071    1.4498    1.6193 Cl  0  0  0  0  0  0  0  0  0  0  0  0
    5.5679   -2.5524   -0.6684 H   0  0  0  0  0  0  0  0  0  0  0  0
    7.0424   -2.1937   -1.6261 H   0  0  0  0  0  0  0  0  0  0  0  0
    7.7092    0.0893   -1.8738 H   0  0  0  0  0  0  0  0  0  0  0  0
    6.7254    1.4366   -1.2274 H   0  0  0  0  0  0  0  0  0  0  0  0
    3.4560   -1.1515   -1.3190 H   0  0  0  0  0  0  0  0  0  0  0  0
    1.1451    1.7470    2.5926 H   0  0  0  0  0  0  0  0  0  0  0  0
    0.6862   -0.9937   -0.6761 H   0  0  0  0  0  0  0  0  0  0  0  0
   -0.7648    0.5486    3.4473 H   0  0  0  0  0  0  0  0  0  0  0  0
   -3.1718    0.5446    3.9227 H   0  0  0  0  0  0  0  0  0  0  0  0
   -4.8093    0.3472    2.0995 H   0  0  0  0  0  0  0  0  0  0  0  0
   -2.0890    0.4101   -1.8817 H   0  0  0  0  0  0  0  0  0  0  0  0
   -3.5351   -1.7442   -1.2755 H   0  0  0  0  0  0  0  0  0  0  0  0
   -5.2538   -2.0143   -3.0287 H   0  0  0  0  0  0  0  0  0  0  0  0
   -7.0490   -0.3243   -3.2871 H   0  0  0  0  0  0  0  0  0  0  0  0
   -7.1254    1.6446   -1.7828 H   0  0  0  0  0  0  0  0  0  0  0  0
   -5.4105    1.9375   -0.0298 H   0  0  0  0  0  0  0  0  0  0  0  0
    3.8546    1.9964    2.5452 H   0  0  0  0  0  0  0  0  0  0  0  0
  1  2  1  0
  2  3  2  3
  2  4  1  0
  4  5  2  0
  5  6  1  0
  6  7  2  0
  7  8  1  0
  8  9  1  0
  9 10  2  0
  9 11  1  0
 11 12  2  0
 12 13  1  0
 13 14  2  0
 14 15  1  0
 15 16  2  0
 16 17  1  0
 15 18  1  0
 18 19  2  0
 19 20  1  0
 20 21  2  0
 21 22  1  0
 22 23  2  0
  7 24  1  0
 24 25  2  0
 25 26  1  0
 25  4  1  0
 10  6  1  0
 16 11  1  0
 23 18  1  0
  1 27  1  0
  1 28  1  0
  3 29  1  0
  3 30  1  0
  5 31  1  0
  8 32  1  0
 10 33  1  0
 12 34  1  0
 13 35  1  0
 14 36  1  0
 17 37  1  0
 19 38  1  0
 20 39  1  0
 21 40  1  0
 22 41  1  0
 23 42  1  0
 24 43  1  0
M  CHG  1   3   1
M  END
$$$$
