
     RDKit          3D

 63 65  0  0  0  0  0  0  0  0999 V2000
    3.4111    1.3463    0.1083 C   0  0  0  0  0  0  0  0  0  0  0  0
    2.2442    0.3518    0.3050 C   0  0  0  0  0  0  0  0  0  0  0  0
    2.3145   -0.6852   -0.8428 C   0  0  0  0  0  0  0  0  0  0  0  0
    2.2989   -0.3021    1.7416 C   0  0  0  0  0  0  0  0  0  0  0  0
    3.5205   -1.1183    2.2760 C   0  0  0  0  0  0  0  0  0  0  0  0
    4.8318   -0.3197    2.4667 C   0  0  0  0  0  0  0  0  0  0  0  0
    5.7451   -0.9186    1.4634 C   0  0  0  0  0  0  0  0  0  0  0  0
    5.2129   -2.0517    0.8957 C   0  0  0  0  0  0  0  0  0  0  0  0
    3.8834   -2.3811    1.4610 C   0  0  0  0  0  0  0  0  0  0  0  0
    5.9198   -2.7781   -0.0651 C   0  0  0  0  0  0  0  0  0  0  0  0
    7.1884   -2.3221   -0.4559 C   0  0  0  0  0  0  0  0  0  0  0  0
    7.7321   -1.1610    0.1232 C   0  0  0  0  0  0  0  0  0  0  0  0
    7.0090   -0.4520    1.0949 C   0  0  0  0  0  0  0  0  0  0  0  0
    0.9842    1.1431    0.2093 N   0  0  0  0  0  0  0  0  0  0  0  0
   -0.2574    0.3651    0.0229 C   0  0  0  0  0  0  0  0  0  0  0  0
   -1.4692    1.1382    0.5623 C   0  0  1  0  0  0  0  0  0  0  0  0
   -1.2667    1.4279    1.9216 O   0  0  0  0  0  0  0  0  0  0  0  0
   -1.7126    2.4392   -0.2255 C   0  0  0  0  0  0  0  0  0  0  0  0
   -2.9478    3.0440    0.1599 O   0  0  0  0  0  0  0  0  0  0  0  0
   -4.2276    2.5955   -0.2084 C   0  0  0  0  0  0  0  0  0  0  0  0
   -4.4305    1.5397   -1.1199 C   0  0  0  0  0  0  0  0  0  0  0  0
   -5.7305    1.1278   -1.4554 C   0  0  0  0  0  0  0  0  0  0  0  0
   -5.9389   -0.0305   -2.3945 C   0  0  0  0  0  0  0  0  0  0  0  0
   -5.9163   -1.3543   -1.6267 C   0  0  0  0  0  0  0  0  0  0  0  0
   -6.1236   -2.5045   -2.5600 C   0  0  0  0  0  0  0  0  0  0  0  0
   -7.4140   -2.9305   -2.8585 O   0  0  0  0  0  0  0  0  0  0  0  0
   -5.1338   -3.0611   -3.1063 O   0  0  0  0  0  0  0  0  0  0  0  0
   -6.8309    1.7650   -0.8631 C   0  0  0  0  0  0  0  0  0  0  0  0
   -6.6352    2.8175    0.0336 C   0  0  0  0  0  0  0  0  0  0  0  0
   -7.7053    3.4326    0.5954 F   0  0  0  0  0  0  0  0  0  0  0  0
   -5.3399    3.2329    0.3568 C   0  0  0  0  0  0  0  0  0  0  0  0
   -5.1616    4.2536    1.2326 F   0  0  0  0  0  0  0  0  0  0  0  0
    4.3864    0.8309    0.0364 H   0  0  0  0  0  0  0  0  0  0  0  0
    3.4319    2.0932    0.9301 H   0  0  0  0  0  0  0  0  0  0  0  0
    3.2951    1.9031   -0.8466 H   0  0  0  0  0  0  0  0  0  0  0  0
    2.0389   -0.2059   -1.8067 H   0  0  0  0  0  0  0  0  0  0  0  0
    3.3409   -1.0856   -0.9684 H   0  0  0  0  0  0  0  0  0  0  0  0
    1.6175   -1.5310   -0.6682 H   0  0  0  0  0  0  0  0  0  0  0  0
    2.1165    0.5118    2.4781 H   0  0  0  0  0  0  0  0  0  0  0  0
    1.4336   -0.9841    1.8535 H   0  0  0  0  0  0  0  0  0  0  0  0
    3.2134   -1.4683    3.2887 H   0  0  0  0  0  0  0  0  0  0  0  0
    5.2501   -0.5070    3.4798 H   0  0  0  0  0  0  0  0  0  0  0  0
    4.7165    0.7733    2.3410 H   0  0  0  0  0  0  0  0  0  0  0  0
    3.1421   -2.6528    0.6881 H   0  0  0  0  0  0  0  0  0  0  0  0
    3.9988   -3.2526    2.1420 H   0  0  0  0  0  0  0  0  0  0  0  0
    5.4987   -3.6748   -0.5011 H   0  0  0  0  0  0  0  0  0  0  0  0
    7.7514   -2.8677   -1.2019 H   0  0  0  0  0  0  0  0  0  0  0  0
    8.7118   -0.8149   -0.1792 H   0  0  0  0  0  0  0  0  0  0  0  0
    7.4224    0.4404    1.5467 H   0  0  0  0  0  0  0  0  0  0  0  0
    1.0430    1.8098   -0.5972 H   0  0  0  0  0  0  0  0  0  0  0  0
   -0.4120    0.1402   -1.0568 H   0  0  0  0  0  0  0  0  0  0  0  0
   -0.2241   -0.6069    0.5519 H   0  0  0  0  0  0  0  0  0  0  0  0
   -2.3548    0.4711    0.4526 H   0  0  0  0  0  0  0  0  0  0  0  0
   -2.1600    1.6152    2.3124 H   0  0  0  0  0  0  0  0  0  0  0  0
   -0.8969    3.1584   -0.0009 H   0  0  0  0  0  0  0  0  0  0  0  0
   -1.6970    2.2607   -1.3220 H   0  0  0  0  0  0  0  0  0  0  0  0
   -3.5910    1.0294   -1.5709 H   0  0  0  0  0  0  0  0  0  0  0  0
   -5.1407   -0.0324   -3.1697 H   0  0  0  0  0  0  0  0  0  0  0  0
   -6.9121    0.0807   -2.9225 H   0  0  0  0  0  0  0  0  0  0  0  0
   -6.7222   -1.3591   -0.8609 H   0  0  0  0  0  0  0  0  0  0  0  0
   -4.9411   -1.4729   -1.1049 H   0  0  0  0  0  0  0  0  0  0  0  0
   -7.5721   -3.6974   -3.5011 H   0  0  0  0  0  0  0  0  0  0  0  0
   -7.8392    1.4455   -1.0962 H   0  0  0  0  0  0  0  0  0  0  0  0
  1  2  1  0
  2  3  1  0
  2  4  1  0
  4  5  1  0
  5  6  1  0
  6  7  1  0
  7  8  2  0
  8  9  1  0
  8 10  1  0
 10 11  2  0
 11 12  1  0
 12 13  2  0
  2 14  1  0
 14 15  1  0
 15 16  1  0
 16 17  1  0
 16 18  1  0
 18 19  1  0
 19 20  1  0
 20 21  2  0
 21 22  1  0
 22 23  1  0
 23 24  1  0
 24 25  1  0
 25 26  1  0
 25 27  2  0
 22 28  2  0
 28 29  1  0
 29 30  1  0
 29 31  2  0
 31 32  1  0
  9  5  1  0
 31 20  1  0
 13  7  1  0
  1 33  1  0
  1 34  1  0
  1 35  1  0
  3 36  1  0
  3 37  1  0
  3 38  1  0
  4 39  1  0
  4 40  1  0
  5 41  1  0
  6 42  1  0
  6 43  1  0
  9 44  1  0
  9 45  1  0
 10 46  1  0
 11 47  1  0
 12 48  1  0
 13 49  1  0
 14 50  1  0
 15 51  1  0
 15 52  1  0
 16 53  1  1
 17 54  1  0
 18 55  1  0
 18 56  1  0
 21 57  1  0
 23 58  1  0
 23 59  1  0
 24 60  1  0
 24 61  1  0
 26 62  1  0
 28 63  1  0
M  END
$$$$
