
     RDKit          3D

 30 31  0  0  0  0  0  0  0  0999 V2000
    3.7352    0.0686    1.7673 N   0  0  0  0  0  0  0  0  0  0  0  0
    3.4385   -1.1196    0.9675 C   0  0  0  0  0  0  0  0  0  0  0  0
    2.1483   -0.9682    0.1473 C   0  0  0  0  0  0  0  0  0  0  0  0
    2.3231    0.0148   -0.9242 N   0  0  0  0  0  0  0  0  0  0  0  0
    0.9358    0.0264   -1.9739 S   0  0  0  0  0  6  0  0  0  0  0  0
    0.6993   -1.3392   -2.5558 O   0  0  0  0  0  0  0  0  0  0  0  0
    1.2344    0.9487   -3.1231 O   0  0  0  0  0  0  0  0  0  0  0  0
   -0.4984    0.6460   -1.1151 C   0  0  0  0  0  0  0  0  0  0  0  0
   -0.7097    2.0312   -1.1707 C   0  0  0  0  0  0  0  0  0  0  0  0
   -1.8109    2.6183   -0.5573 C   0  0  0  0  0  0  0  0  0  0  0  0
   -2.7349    1.8414    0.1367 C   0  0  0  0  0  0  0  0  0  0  0  0
   -4.1048    2.6695    0.8770 Cl  0  0  0  0  0  0  0  0  0  0  0  0
   -2.5481    0.4459    0.2344 C   0  0  0  0  0  0  0  0  0  0  0  0
   -1.4171   -0.1635   -0.3850 C   0  0  0  0  0  0  0  0  0  0  0  0
   -1.2554   -1.5572   -0.2319 C   0  0  0  0  0  0  0  0  0  0  0  0
   -2.1613   -2.2891    0.4654 N   0  0  0  0  0  0  0  0  0  0  0  0
   -3.2493   -1.7262    1.0427 C   0  0  0  0  0  0  0  0  0  0  0  0
   -3.4621   -0.3553    0.9428 C   0  0  0  0  0  0  0  0  0  0  0  0
    2.8816    0.3497    2.3023 H   0  0  0  0  0  0  0  0  0  0  0  0
    3.9967    0.8560    1.1318 H   0  0  0  0  0  0  0  0  0  0  0  0
    4.2932   -1.3355    0.2898 H   0  0  0  0  0  0  0  0  0  0  0  0
    3.3262   -1.9873    1.6526 H   0  0  0  0  0  0  0  0  0  0  0  0
    1.9238   -1.9631   -0.2936 H   0  0  0  0  0  0  0  0  0  0  0  0
    1.3082   -0.6758    0.8153 H   0  0  0  0  0  0  0  0  0  0  0  0
    2.3650    0.9668   -0.4942 H   0  0  0  0  0  0  0  0  0  0  0  0
   -0.0141    2.6718   -1.6975 H   0  0  0  0  0  0  0  0  0  0  0  0
   -1.9464    3.6905   -0.6255 H   0  0  0  0  0  0  0  0  0  0  0  0
   -0.4124   -2.0834   -0.6367 H   0  0  0  0  0  0  0  0  0  0  0  0
   -3.9486   -2.3456    1.5885 H   0  0  0  0  0  0  0  0  0  0  0  0
   -4.3361    0.0634    1.4232 H   0  0  0  0  0  0  0  0  0  0  0  0
  1  2  1  0
  2  3  1  0
  3  4  1  0
  4  5  1  0
  5  6  2  0
  5  7  2  0
  5  8  1  0
  8  9  2  0
  9 10  1  0
 10 11  2  0
 11 12  1  0
 11 13  1  0
 13 14  2  0
 14 15  1  0
 15 16  2  0
 16 17  1  0
 17 18  2  0
 14  8  1  0
 18 13  1  0
  1 19  1  0
  1 20  1  0
  2 21  1  0
  2 22  1  0
  3 23  1  0
  3 24  1  0
  4 25  1  0
  9 26  1  0
 10 27  1  0
 15 28  1  0
 17 29  1  0
 18 30  1  0
M  END
$$$$
