
     RDKit          3D

 27 28  0  0  0  0  0  0  0  0999 V2000
    4.7275    0.8167    1.1434 N   0  0  0  0  0  0  0  0  0  0  0  0
    4.2824    0.1420   -0.3843 S   0  0  0  0  0  6  0  0  0  0  0  0
    4.5730    1.1350   -1.4746 O   0  0  0  0  0  0  0  0  0  0  0  0
    5.0897   -1.1003   -0.6378 O   0  0  0  0  0  0  0  0  0  0  0  0
    2.5661   -0.2525   -0.3791 C   0  0  0  0  0  0  0  0  0  0  0  0
    1.6222    0.7033   -0.7767 C   0  0  0  0  0  0  0  0  0  0  0  0
    0.2587    0.3955   -0.7600 C   0  0  0  0  0  0  0  0  0  0  0  0
   -0.1789   -0.8678   -0.3244 C   0  0  0  0  0  0  0  0  0  0  0  0
   -1.5735   -1.2174   -0.3266 N   0  0  0  0  0  0  0  0  0  0  0  0
   -2.6455   -0.2983   -0.0644 C   0  0  0  0  0  0  0  0  0  0  0  0
   -3.8734   -0.5371   -0.5994 N   0  0  0  0  0  0  0  0  0  0  0  0
   -4.9275    0.2847   -0.3556 C   0  0  0  0  0  0  0  0  0  0  0  0
   -6.4875   -0.0554   -1.0765 Cl  0  0  0  0  0  0  0  0  0  0  0  0
   -4.7546    1.3942    0.4741 C   0  0  0  0  0  0  0  0  0  0  0  0
   -3.5381    1.6260    1.0322 N   0  0  0  0  0  0  0  0  0  0  0  0
   -2.4821    0.8061    0.7886 C   0  0  0  0  0  0  0  0  0  0  0  0
    0.7713   -1.8264    0.0564 C   0  0  0  0  0  0  0  0  0  0  0  0
    2.1347   -1.5177    0.0398 C   0  0  0  0  0  0  0  0  0  0  0  0
    4.4705    0.1148    1.8732 H   0  0  0  0  0  0  0  0  0  0  0  0
    4.1163    1.6496    1.2985 H   0  0  0  0  0  0  0  0  0  0  0  0
    1.9407    1.6847   -1.1041 H   0  0  0  0  0  0  0  0  0  0  0  0
   -0.4514    1.1376   -1.1010 H   0  0  0  0  0  0  0  0  0  0  0  0
   -1.8300   -2.2087   -0.5364 H   0  0  0  0  0  0  0  0  0  0  0  0
   -5.5802    2.0619    0.6825 H   0  0  0  0  0  0  0  0  0  0  0  0
   -1.5350    1.0046    1.2715 H   0  0  0  0  0  0  0  0  0  0  0  0
    0.4526   -2.8101    0.3777 H   0  0  0  0  0  0  0  0  0  0  0  0
    2.8519   -2.2652    0.3541 H   0  0  0  0  0  0  0  0  0  0  0  0
  1  2  1  0
  2  3  2  0
  2  4  2  0
  2  5  1  0
  5  6  2  0
  6  7  1  0
  7  8  2  0
  8  9  1  0
  9 10  1  0
 10 11  2  0
 11 12  1  0
 12 13  1  0
 12 14  2  0
 14 15  1  0
 15 16  2  0
  8 17  1  0
 17 18  2  0
 18  5  1  0
 16 10  1  0
  1 19  1  0
  1 20  1  0
  6 21  1  0
  7 22  1  0
  9 23  1  0
 14 24  1  0
 16 25  1  0
 17 26  1  0
 18 27  1  0
M  END
$$$$
