
     RDKit          3D

 41 43  0  0  0  0  0  0  0  0999 V2000
   -1.3846    1.5000    0.7767 C   0  0  1  0  0  0  0  0  0  0  0  0
   -1.9272    1.0847   -0.9239 S   0  0  0  0  0  0  0  0  0  0  0  0
   -3.1047   -0.2345   -0.3546 C   0  0  0  0  0  0  0  0  0  0  0  0
   -2.4599   -1.5964   -0.6695 C   0  0  0  0  0  0  0  0  0  0  0  0
   -4.4164   -0.1147   -1.1545 C   0  0  0  0  0  0  0  0  0  0  0  0
   -3.2923   -0.0931    1.1906 C   0  0  1  0  0  0  0  0  0  0  0  0
   -2.1036    0.5950    1.6208 N   0  0  0  0  0  0  0  0  0  0  0  0
   -0.8101    0.1326    2.1760 C   0  0  0  0  0  0  0  0  0  0  0  0
   -0.4623   -0.7211    3.0329 O   0  0  0  0  0  0  0  0  0  0  0  0
   -0.0896    1.0455    1.2342 C   0  0  1  0  0  0  0  0  0  0  0  0
    0.6856    0.3051    0.2358 N   0  0  0  0  0  0  0  0  0  0  0  0
    1.4608    0.9785   -0.7648 C   0  0  0  0  0  0  0  0  0  0  0  0
    1.4911    2.2385   -0.8051 O   0  0  0  0  0  0  0  0  0  0  0  0
    2.2698    0.1880   -1.7463 C   0  0  0  0  0  0  0  0  0  0  0  0
    3.5685   -0.2386   -1.1202 C   0  0  0  0  0  0  0  0  0  0  0  0
    4.6727    0.6303   -1.1204 C   0  0  0  0  0  0  0  0  0  0  0  0
    5.8705    0.2471   -0.5090 C   0  0  0  0  0  0  0  0  0  0  0  0
    5.9717   -1.0003    0.1133 C   0  0  0  0  0  0  0  0  0  0  0  0
    4.8741   -1.8653    0.1281 C   0  0  0  0  0  0  0  0  0  0  0  0
    3.6744   -1.4863   -0.4823 C   0  0  0  0  0  0  0  0  0  0  0  0
   -4.4948    0.7162    1.5979 C   0  0  0  0  0  0  0  0  0  0  0  0
   -4.5050    2.0974    1.4212 O   0  0  0  0  0  0  0  0  0  0  0  0
   -5.5096    0.1381    2.0711 O   0  0  0  0  0  0  0  0  0  0  0  0
   -1.6003    2.5566    1.0490 H   0  0  0  0  0  0  0  0  0  0  0  0
   -2.2315   -1.6807   -1.7538 H   0  0  0  0  0  0  0  0  0  0  0  0
   -1.5112   -1.7212   -0.1065 H   0  0  0  0  0  0  0  0  0  0  0  0
   -3.1441   -2.4261   -0.3889 H   0  0  0  0  0  0  0  0  0  0  0  0
   -5.1618   -0.8544   -0.7911 H   0  0  0  0  0  0  0  0  0  0  0  0
   -4.8450    0.9053   -1.0615 H   0  0  0  0  0  0  0  0  0  0  0  0
   -4.2321   -0.3005   -2.2345 H   0  0  0  0  0  0  0  0  0  0  0  0
   -3.3446   -1.0865    1.6904 H   0  0  0  0  0  0  0  0  0  0  0  0
    0.5090    1.8143    1.7700 H   0  0  0  0  0  0  0  0  0  0  0  0
    0.7391   -0.7375    0.2914 H   0  0  0  0  0  0  0  0  0  0  0  0
    2.4675    0.8003   -2.6533 H   0  0  0  0  0  0  0  0  0  0  0  0
    1.6868   -0.6991   -2.0764 H   0  0  0  0  0  0  0  0  0  0  0  0
    4.6042    1.6031   -1.5915 H   0  0  0  0  0  0  0  0  0  0  0  0
    6.7194    0.9185   -0.5147 H   0  0  0  0  0  0  0  0  0  0  0  0
    6.8991   -1.2948    0.5872 H   0  0  0  0  0  0  0  0  0  0  0  0
    4.9519   -2.8287    0.6152 H   0  0  0  0  0  0  0  0  0  0  0  0
    2.8297   -2.1635   -0.4570 H   0  0  0  0  0  0  0  0  0  0  0  0
   -5.3152    2.6482    1.6784 H   0  0  0  0  0  0  0  0  0  0  0  0
  1  2  1  0
  2  3  1  0
  3  4  1  0
  3  5  1  0
  3  6  1  0
  6  7  1  0
  7  8  1  0
  8  9  2  0
  8 10  1  0
 10 11  1  0
 11 12  1  0
 12 13  2  0
 12 14  1  0
 14 15  1  0
 15 16  2  0
 16 17  1  0
 17 18  2  0
 18 19  1  0
 19 20  2  0
  6 21  1  0
 21 22  1  0
 21 23  2  0
  7  1  1  0
 20 15  1  0
 10  1  1  0
  1 24  1  1
  4 25  1  0
  4 26  1  0
  4 27  1  0
  5 28  1  0
  5 29  1  0
  5 30  1  0
  6 31  1  1
 10 32  1  1
 11 33  1  0
 14 34  1  0
 14 35  1  0
 16 36  1  0
 17 37  1  0
 18 38  1  0
 19 39  1  0
 20 40  1  0
 22 41  1  0
M  END
$$$$
