
     RDKit          3D

 58 60  0  0  0  0  0  0  0  0999 V2000
   11.8459    1.1998    0.7284 C   0  0  0  0  0  0  0  0  0  0  0  0
   10.5967    0.4873    1.1223 C   0  0  0  0  0  0  0  0  0  0  0  0
    9.4442    0.3902    0.3738 C   0  0  0  0  0  0  0  0  0  0  0  0
    8.6103   -0.3765    1.1671 C   0  0  0  0  0  0  0  0  0  0  0  0
    9.2501   -0.7032    2.3084 N   0  0  0  0  0  0  0  0  0  0  0  0
   10.4362   -0.1717    2.2453 O   0  0  0  0  0  0  0  0  0  0  0  0
    7.2301   -0.7927    0.8631 C   0  0  0  0  0  0  0  0  0  0  0  0
    6.5912   -1.4582    1.7227 O   0  0  0  0  0  0  0  0  0  0  0  0
    6.6112   -0.4590   -0.3899 N   0  0  0  0  0  0  0  0  0  0  0  0
    5.2224   -0.8008   -0.6914 C   0  0  0  0  0  0  0  0  0  0  0  0
    4.2668    0.1325    0.0568 C   0  0  0  0  0  0  0  0  0  0  0  0
    2.8363   -0.2021   -0.2700 C   0  0  0  0  0  0  0  0  0  0  0  0
    2.1965    0.4084   -1.3604 C   0  0  0  0  0  0  0  0  0  0  0  0
    0.8780    0.0732   -1.6824 C   0  0  0  0  0  0  0  0  0  0  0  0
    0.1897   -0.8865   -0.9282 C   0  0  0  0  0  0  0  0  0  0  0  0
    0.8276   -1.5013    0.1575 C   0  0  0  0  0  0  0  0  0  0  0  0
    2.1460   -1.1670    0.4806 C   0  0  0  0  0  0  0  0  0  0  0  0
   -1.4765   -1.2951   -1.3235 S   0  0  0  0  0  6  0  0  0  0  0  0
   -1.6971   -1.1305   -2.8014 O   0  0  0  0  0  0  0  0  0  0  0  0
   -1.7477   -2.7234   -0.9413 O   0  0  0  0  0  0  0  0  0  0  0  0
   -2.5413   -0.2436   -0.4521 N   0  0  0  0  0  0  0  0  0  0  0  0
   -3.9636   -0.3405   -0.5755 C   0  0  0  0  0  0  0  0  0  0  0  0
   -4.4695   -1.2116   -1.3332 O   0  0  0  0  0  0  0  0  0  0  0  0
   -4.8040    0.5568    0.1734 N   0  0  0  0  0  0  0  0  0  0  0  0
   -6.2167    0.5685    0.1125 N   0  0  0  0  0  0  0  0  0  0  0  0
   -6.7783   -0.7369    0.5150 C   0  0  0  0  0  0  0  0  0  0  0  0
   -8.2033   -0.5898    1.1043 C   0  0  0  0  0  0  0  0  0  0  0  0
   -8.7167    0.8625    1.1633 C   0  0  0  0  0  0  0  0  0  0  0  0
   -9.0199    1.4936   -0.2154 C   0  0  0  0  0  0  0  0  0  0  0  0
   -8.1946    0.9510   -1.3970 C   0  0  0  0  0  0  0  0  0  0  0  0
   -6.6699    1.0518   -1.2068 C   0  0  0  0  0  0  0  0  0  0  0  0
   12.3592    0.6319   -0.0752 H   0  0  0  0  0  0  0  0  0  0  0  0
   12.5239    1.2873    1.6030 H   0  0  0  0  0  0  0  0  0  0  0  0
   11.5987    2.2173    0.3595 H   0  0  0  0  0  0  0  0  0  0  0  0
    9.2532    0.8206   -0.5998 H   0  0  0  0  0  0  0  0  0  0  0  0
    7.1755   -0.0102   -1.1446 H   0  0  0  0  0  0  0  0  0  0  0  0
    5.0523   -0.6945   -1.7855 H   0  0  0  0  0  0  0  0  0  0  0  0
    5.0274   -1.8608   -0.4172 H   0  0  0  0  0  0  0  0  0  0  0  0
    4.4302    0.0448    1.1526 H   0  0  0  0  0  0  0  0  0  0  0  0
    4.4840    1.1864   -0.2245 H   0  0  0  0  0  0  0  0  0  0  0  0
    2.7184    1.1439   -1.9601 H   0  0  0  0  0  0  0  0  0  0  0  0
    0.3957    0.5619   -2.5193 H   0  0  0  0  0  0  0  0  0  0  0  0
    0.3060   -2.2390    0.7537 H   0  0  0  0  0  0  0  0  0  0  0  0
    2.6288   -1.6595    1.3157 H   0  0  0  0  0  0  0  0  0  0  0  0
   -2.1249    0.4781    0.1771 H   0  0  0  0  0  0  0  0  0  0  0  0
   -4.3440    1.2359    0.8194 H   0  0  0  0  0  0  0  0  0  0  0  0
   -6.8044   -1.4397   -0.3469 H   0  0  0  0  0  0  0  0  0  0  0  0
   -6.1302   -1.2018    1.2920 H   0  0  0  0  0  0  0  0  0  0  0  0
   -8.9198   -1.2096    0.5223 H   0  0  0  0  0  0  0  0  0  0  0  0
   -8.2047   -0.9964    2.1394 H   0  0  0  0  0  0  0  0  0  0  0  0
   -7.9813    1.4923    1.7106 H   0  0  0  0  0  0  0  0  0  0  0  0
   -9.6486    0.8827    1.7694 H   0  0  0  0  0  0  0  0  0  0  0  0
   -8.8758    2.5938   -0.1463 H   0  0  0  0  0  0  0  0  0  0  0  0
  -10.0931    1.3233   -0.4513 H   0  0  0  0  0  0  0  0  0  0  0  0
   -8.4795   -0.1035   -1.6004 H   0  0  0  0  0  0  0  0  0  0  0  0
   -8.4706    1.5238   -2.3088 H   0  0  0  0  0  0  0  0  0  0  0  0
   -6.1824    0.4874   -2.0296 H   0  0  0  0  0  0  0  0  0  0  0  0
   -6.3736    2.1181   -1.3123 H   0  0  0  0  0  0  0  0  0  0  0  0
  1  2  1  0
  2  3  2  0
  3  4  1  0
  4  5  2  0
  5  6  1  0
  4  7  1  0
  7  8  2  0
  7  9  1  0
  9 10  1  0
 10 11  1  0
 11 12  1  0
 12 13  2  0
 13 14  1  0
 14 15  2  0
 15 16  1  0
 16 17  2  0
 15 18  1  0
 18 19  2  0
 18 20  2  0
 18 21  1  0
 21 22  1  0
 22 23  2  0
 22 24  1  0
 24 25  1  0
 25 26  1  0
 26 27  1  0
 27 28  1  0
 28 29  1  0
 29 30  1  0
 30 31  1  0
  6  2  1  0
 17 12  1  0
 31 25  1  0
  1 32  1  0
  1 33  1  0
  1 34  1  0
  3 35  1  0
  9 36  1  0
 10 37  1  0
 10 38  1  0
 11 39  1  0
 11 40  1  0
 13 41  1  0
 14 42  1  0
 16 43  1  0
 17 44  1  0
 21 45  1  0
 24 46  1  0
 26 47  1  0
 26 48  1  0
 27 49  1  0
 27 50  1  0
 28 51  1  0
 28 52  1  0
 29 53  1  0
 29 54  1  0
 30 55  1  0
 30 56  1  0
 31 57  1  0
 31 58  1  0
M  END
$$$$
