
     RDKit          3D

 37 40  0  0  0  0  0  0  0  0999 V2000
    0.0000    0.0000    0.0000 Fe  0  0  0  0  0 15  0  0  0  0  0  0
    2.5546    3.3397   -0.0417 C   0  0  0  0  0  0  0  0  0  0  0  0
    3.4720    2.3522   -0.3061 C   0  0  0  0  0  0  0  0  0  0  0  0
    2.7663    1.1650   -0.3248 C   0  0  0  0  0  0  0  0  0  0  0  0
    3.3521   -0.0790   -0.5636 C   0  0  0  0  0  0  0  0  0  0  0  0
    2.6630   -1.2910   -0.5878 C   0  0  0  0  0  0  0  0  0  0  0  0
    1.3361   -1.4382   -0.3851 N   0  0  0  0  0  0  0  0  0  0  0  0
    1.1038   -2.7637   -0.4978 C   0  0  0  0  0  0  0  0  0  0  0  0
    2.3389   -3.4860   -0.7844 C   0  0  0  0  0  0  0  0  0  0  0  0
    3.2973   -2.5809   -0.8398 C   0  0  0  0  0  0  0  0  0  0  0  0
   -0.1407   -3.3779   -0.3619 C   0  0  0  0  0  0  0  0  0  0  0  0
   -1.3336   -2.7072   -0.0881 C   0  0  0  0  0  0  0  0  0  0  0  0
   -2.5546   -3.3397    0.0418 C   0  0  0  0  0  0  0  0  0  0  0  0
   -3.4720   -2.3522    0.3061 C   0  0  0  0  0  0  0  0  0  0  0  0
   -2.7663   -1.1650    0.3247 C   0  0  0  0  0  0  0  0  0  0  0  0
   -1.4532   -1.3725    0.0839 N   0  0  0  0  0  2  0  0  0  0  0  0
   -3.3521    0.0791    0.5635 C   0  0  0  0  0  0  0  0  0  0  0  0
   -2.6631    1.2910    0.5878 C   0  0  0  0  0  0  0  0  0  0  0  0
   -1.3361    1.4382    0.3850 N   0  0  0  0  0  0  0  0  0  0  0  0
   -1.1038    2.7637    0.4978 C   0  0  0  0  0  0  0  0  0  0  0  0
   -2.3389    3.4860    0.7845 C   0  0  0  0  0  0  0  0  0  0  0  0
   -3.2973    2.5809    0.8398 C   0  0  0  0  0  0  0  0  0  0  0  0
    0.1407    3.3778    0.3619 C   0  0  0  0  0  0  0  0  0  0  0  0
    1.3336    2.7072    0.0881 C   0  0  0  0  0  0  0  0  0  0  0  0
    1.4532    1.3725   -0.0839 N   0  0  0  0  0  2  0  0  0  0  0  0
    2.7559    4.3997    0.0459 H   0  0  0  0  0  0  0  0  0  0  0  0
    4.5343    2.4855   -0.4666 H   0  0  0  0  0  0  0  0  0  0  0  0
    4.4209   -0.1088   -0.7438 H   0  0  0  0  0  0  0  0  0  0  0  0
    2.4619   -4.5519   -0.9263 H   0  0  0  0  0  0  0  0  0  0  0  0
    4.3441   -2.7742   -1.0350 H   0  0  0  0  0  0  0  0  0  0  0  0
   -0.1810   -4.4551   -0.4781 H   0  0  0  0  0  0  0  0  0  0  0  0
   -2.7559   -4.3998   -0.0458 H   0  0  0  0  0  0  0  0  0  0  0  0
   -4.5343   -2.4855    0.4667 H   0  0  0  0  0  0  0  0  0  0  0  0
   -4.4209    0.1088    0.7437 H   0  0  0  0  0  0  0  0  0  0  0  0
   -2.4618    4.5518    0.9264 H   0  0  0  0  0  0  0  0  0  0  0  0
   -4.3441    2.7742    1.0350 H   0  0  0  0  0  0  0  0  0  0  0  0
    0.1810    4.4551    0.4781 H   0  0  0  0  0  0  0  0  0  0  0  0
  2  3  2  0
  3  4  1  0
  4  5  2  0
  5  6  1  0
  6  7  2  0
  7  8  1  0
  8  9  1  0
  9 10  2  0
  8 11  2  0
 11 12  1  0
 12 13  2  0
 13 14  1  0
 14 15  2  0
 15 16  1  0
 15 17  1  0
 17 18  2  0
 18 19  1  0
 19 20  2  0
 20 21  1  0
 21 22  2  0
 20 23  1  0
 23 24  2  0
 24 25  1  0
 24  2  1  0
 25  4  1  0
 10  6  1  0
 16 12  1  0
 22 18  1  0
  2 26  1  0
  3 27  1  0
  5 28  1  0
  9 29  1  0
 10 30  1  0
 11 31  1  0
 13 32  1  0
 14 33  1  0
 17 34  1  0
 21 35  1  0
 22 36  1  0
 23 37  1  0
M  CHG  3   1   5  16  -1  25  -1
M  END
$$$$
