
     RDKit          3D

 31 32  0  0  0  0  0  0  0  0999 V2000
    4.1453    1.0201   -0.3087 C   0  0  0  0  0  0  0  0  0  0  0  0
    2.8793    0.1699   -0.3990 C   0  0  0  0  0  0  0  0  0  0  0  0
    3.2264   -1.1148   -0.8472 O   0  0  0  0  0  0  0  0  0  0  0  0
    2.1914    0.0825    0.9734 C   0  0  0  0  0  0  0  0  0  0  0  0
    0.9183   -0.6330    0.8713 N   0  0  0  0  0  0  0  0  0  0  0  0
    0.7128   -1.9479    1.1329 C   0  0  0  0  0  0  0  0  0  0  0  0
   -0.5622   -2.3493    0.8948 N   0  0  0  0  0  0  0  0  0  0  0  0
   -1.1569   -1.2194    0.4625 C   0  0  0  0  0  0  0  0  0  0  0  0
   -0.2783   -0.1901    0.4424 C   0  0  0  0  0  0  0  0  0  0  0  0
   -0.6840    1.0708    0.0187 C   0  0  0  0  0  0  0  0  0  0  0  0
    0.1354    2.0286   -0.0257 O   0  0  0  0  0  0  0  0  0  0  0  0
   -1.9997    1.2426   -0.3482 N   0  0  0  0  0  0  0  0  0  0  0  0
   -2.4630    2.5585   -0.8203 C   0  0  0  0  0  0  0  0  0  0  0  0
   -2.8730    0.1674   -0.3390 C   0  0  0  0  0  0  0  0  0  0  0  0
   -4.0723    0.3300   -0.7031 O   0  0  0  0  0  0  0  0  0  0  0  0
   -2.4497   -1.0815    0.0611 N   0  0  0  0  0  0  0  0  0  0  0  0
   -3.3809   -2.2167    0.1134 C   0  0  0  0  0  0  0  0  0  0  0  0
    3.8943    2.0519    0.0178 H   0  0  0  0  0  0  0  0  0  0  0  0
    4.6315    1.0766   -1.3058 H   0  0  0  0  0  0  0  0  0  0  0  0
    4.8630    0.5743    0.4132 H   0  0  0  0  0  0  0  0  0  0  0  0
    2.1941    0.6603   -1.1292 H   0  0  0  0  0  0  0  0  0  0  0  0
    2.4199   -1.4973   -1.2820 H   0  0  0  0  0  0  0  0  0  0  0  0
    2.0145    1.0991    1.3849 H   0  0  0  0  0  0  0  0  0  0  0  0
    2.8585   -0.4453    1.6906 H   0  0  0  0  0  0  0  0  0  0  0  0
    1.4869   -2.6170    1.4859 H   0  0  0  0  0  0  0  0  0  0  0  0
   -1.8833    3.3841   -0.3551 H   0  0  0  0  0  0  0  0  0  0  0  0
   -3.5258    2.7308   -0.5464 H   0  0  0  0  0  0  0  0  0  0  0  0
   -2.3563    2.6162   -1.9239 H   0  0  0  0  0  0  0  0  0  0  0  0
   -4.0526   -2.2111   -0.7716 H   0  0  0  0  0  0  0  0  0  0  0  0
   -2.8408   -3.1873    0.1048 H   0  0  0  0  0  0  0  0  0  0  0  0
   -3.9929   -2.1531    1.0376 H   0  0  0  0  0  0  0  0  0  0  0  0
  1  2  1  0
  2  3  1  0
  2  4  1  0
  4  5  1  0
  5  6  1  0
  6  7  2  0
  7  8  1  0
  8  9  2  0
  9 10  1  0
 10 11  2  0
 10 12  1  0
 12 13  1  0
 12 14  1  0
 14 15  2  0
 14 16  1  0
 16 17  1  0
  9  5  1  0
 16  8  1  0
  1 18  1  0
  1 19  1  0
  1 20  1  0
  2 21  1  0
  3 22  1  0
  4 23  1  0
  4 24  1  0
  6 25  1  0
 13 26  1  0
 13 27  1  0
 13 28  1  0
 17 29  1  0
 17 30  1  0
 17 31  1  0
M  END
$$$$
