
     RDKit          3D

 42 43  0  0  0  0  0  0  0  0999 V2000
   -3.5243    0.2642   -2.6037 C   0  0  0  0  0  0  0  0  0  0  0  0
   -3.4074   -0.0519   -1.1059 C   0  0  0  0  0  0  0  0  0  0  0  0
   -3.4302   -1.5720   -0.8967 C   0  0  0  0  0  0  0  0  0  0  0  0
   -4.5702    0.5186   -0.4142 N   0  0  0  0  0  0  0  0  0  0  0  0
   -4.5411    1.6581    0.2088 C   0  0  0  0  0  0  0  0  0  0  0  0
   -5.7294    2.1707    0.8065 N   0  0  0  0  0  0  0  0  0  0  0  0
   -3.3171    2.3885    0.3245 N   0  0  0  0  0  0  0  0  0  0  0  0
   -2.1882    1.8743   -0.0520 C   0  0  0  0  0  0  0  0  0  0  0  0
   -0.9887    2.6401    0.0833 N   0  0  0  0  0  0  0  0  0  0  0  0
   -2.1531    0.5358   -0.5877 N   0  0  0  0  0  0  0  0  0  0  0  0
   -0.9538    0.0005   -0.9564 O   0  0  0  0  0  0  0  0  0  0  0  0
   -0.4194   -0.6587    0.1706 C   0  0  0  0  0  0  0  0  0  0  0  0
    1.0159   -1.0797   -0.1363 C   0  0  0  0  0  0  0  0  0  0  0  0
    1.6506   -1.8018    1.0566 C   0  0  0  0  0  0  0  0  0  0  0  0
    2.9983   -2.1695    0.7620 O   0  0  0  0  0  0  0  0  0  0  0  0
    4.0981   -1.2941    0.7283 C   0  0  0  0  0  0  0  0  0  0  0  0
    3.9992    0.0603    1.1061 C   0  0  0  0  0  0  0  0  0  0  0  0
    5.1204    0.8965    1.0560 C   0  0  0  0  0  0  0  0  0  0  0  0
    4.9478    2.5807    1.5325 Cl  0  0  0  0  0  0  0  0  0  0  0  0
    6.3564    0.3849    0.6305 C   0  0  0  0  0  0  0  0  0  0  0  0
    7.7882    1.4029    0.5538 Cl  0  0  0  0  0  0  0  0  0  0  0  0
    6.4601   -0.9590    0.2599 C   0  0  0  0  0  0  0  0  0  0  0  0
    5.3401   -1.7953    0.3086 C   0  0  0  0  0  0  0  0  0  0  0  0
    5.5065   -3.4788   -0.1669 Cl  0  0  0  0  0  0  0  0  0  0  0  0
   -4.4721   -0.1443   -3.0160 H   0  0  0  0  0  0  0  0  0  0  0  0
   -2.6722   -0.1776   -3.1637 H   0  0  0  0  0  0  0  0  0  0  0  0
   -3.5178    1.3636   -2.7645 H   0  0  0  0  0  0  0  0  0  0  0  0
   -4.3802   -2.0004   -1.2830 H   0  0  0  0  0  0  0  0  0  0  0  0
   -2.5871   -2.0604   -1.4307 H   0  0  0  0  0  0  0  0  0  0  0  0
   -3.3638   -1.8092    0.1863 H   0  0  0  0  0  0  0  0  0  0  0  0
   -6.6285    1.6438    0.7389 H   0  0  0  0  0  0  0  0  0  0  0  0
   -5.7104    3.0808    1.3177 H   0  0  0  0  0  0  0  0  0  0  0  0
   -1.0210    3.6012    0.4905 H   0  0  0  0  0  0  0  0  0  0  0  0
   -0.0681    2.2659   -0.2353 H   0  0  0  0  0  0  0  0  0  0  0  0
   -0.4094    0.0140    1.0591 H   0  0  0  0  0  0  0  0  0  0  0  0
   -1.0145   -1.5645    0.4109 H   0  0  0  0  0  0  0  0  0  0  0  0
    1.0195   -1.7588   -1.0167 H   0  0  0  0  0  0  0  0  0  0  0  0
    1.6086   -0.1769   -0.3947 H   0  0  0  0  0  0  0  0  0  0  0  0
    1.0769   -2.7317    1.2567 H   0  0  0  0  0  0  0  0  0  0  0  0
    1.6075   -1.1833    1.9785 H   0  0  0  0  0  0  0  0  0  0  0  0
    3.0608    0.4778    1.4416 H   0  0  0  0  0  0  0  0  0  0  0  0
    7.4134   -1.3551   -0.0674 H   0  0  0  0  0  0  0  0  0  0  0  0
  1  2  1  0
  2  3  1  0
  2  4  1  0
  4  5  2  0
  5  6  1  0
  5  7  1  0
  7  8  2  0
  8  9  1  0
  8 10  1  0
 10 11  1  0
 11 12  1  0
 12 13  1  0
 13 14  1  0
 14 15  1  0
 15 16  1  0
 16 17  2  0
 17 18  1  0
 18 19  1  0
 18 20  2  0
 20 21  1  0
 20 22  1  0
 22 23  2  0
 23 24  1  0
 10  2  1  0
 23 16  1  0
  1 25  1  0
  1 26  1  0
  1 27  1  0
  3 28  1  0
  3 29  1  0
  3 30  1  0
  6 31  1  0
  6 32  1  0
  9 33  1  0
  9 34  1  0
 12 35  1  0
 12 36  1  0
 13 37  1  0
 13 38  1  0
 14 39  1  0
 14 40  1  0
 17 41  1  0
 22 42  1  0
M  END
$$$$
