
     RDKit          3D

 30 29  0  0  0  0  0  0  0  0999 V2000
    0.6444   -0.5585   -1.5085 O   0  0  0  0  0  0  0  0  0  0  0  0
    0.6726    0.2759   -0.3770 C   0  0  2  0  0  0  0  0  0  0  0  0
    2.0313    0.1253    0.3258 C   0  0  0  0  0  0  0  0  0  0  0  0
    3.0603    0.4710   -0.5716 O   0  0  0  0  0  0  0  0  0  0  0  0
    4.5546    0.3165    0.2352 P   0  0  0  0  0  5  0  0  0  0  0  0
    4.7846   -1.2840    0.7401 O   0  0  0  0  0  0  0  0  0  0  0  0
    4.6026    1.3555    1.5721 O   0  0  0  0  0  0  0  0  0  0  0  0
    5.6641    0.6920   -0.7199 O   0  0  0  0  0  0  0  0  0  0  0  0
   -0.4952   -0.0998    0.5673 C   0  0  1  0  0  0  0  0  0  0  0  0
   -0.4701    0.7291    1.7045 O   0  0  0  0  0  0  0  0  0  0  0  0
   -1.8649    0.0467   -0.1391 C   0  0  2  0  0  0  0  0  0  0  0  0
   -2.0946    1.4002   -0.4476 O   0  0  0  0  0  0  0  0  0  0  0  0
   -3.0188   -0.5214    0.7280 C   0  0  1  0  0  0  0  0  0  0  0  0
   -3.1798    0.1888    1.9326 O   0  0  0  0  0  0  0  0  0  0  0  0
   -4.3112   -0.5685   -0.0429 C   0  0  0  0  0  0  0  0  0  0  0  0
   -4.6541   -1.7228   -0.7404 O   0  0  0  0  0  0  0  0  0  0  0  0
   -5.0630    0.4421   -0.0974 O   0  0  0  0  0  0  0  0  0  0  0  0
    1.0697   -0.0564   -2.2520 H   0  0  0  0  0  0  0  0  0  0  0  0
    0.5506    1.3428   -0.6819 H   0  0  0  0  0  0  0  0  0  0  0  0
    2.0519    0.8002    1.2111 H   0  0  0  0  0  0  0  0  0  0  0  0
    2.1396   -0.9322    0.6583 H   0  0  0  0  0  0  0  0  0  0  0  0
    4.4058   -1.3215    1.6544 H   0  0  0  0  0  0  0  0  0  0  0  0
    5.4713    1.1666    2.0085 H   0  0  0  0  0  0  0  0  0  0  0  0
   -0.3729   -1.1718    0.8592 H   0  0  0  0  0  0  0  0  0  0  0  0
   -0.0293    0.2191    2.4334 H   0  0  0  0  0  0  0  0  0  0  0  0
   -1.8292   -0.5553   -1.0788 H   0  0  0  0  0  0  0  0  0  0  0  0
   -2.6749    1.4227   -1.2527 H   0  0  0  0  0  0  0  0  0  0  0  0
   -2.7629   -1.5699    0.9946 H   0  0  0  0  0  0  0  0  0  0  0  0
   -3.3719    1.1366    1.7088 H   0  0  0  0  0  0  0  0  0  0  0  0
   -5.5105   -1.7690   -1.2796 H   0  0  0  0  0  0  0  0  0  0  0  0
  1  2  1  0
  2  3  1  0
  3  4  1  0
  4  5  1  0
  5  6  1  0
  5  7  1  0
  5  8  2  0
  2  9  1  0
  9 10  1  0
  9 11  1  0
 11 12  1  0
 11 13  1  0
 13 14  1  0
 13 15  1  0
 15 16  1  0
 15 17  2  0
  1 18  1  0
  2 19  1  6
  3 20  1  0
  3 21  1  0
  6 22  1  0
  7 23  1  0
  9 24  1  1
 10 25  1  0
 11 26  1  6
 12 27  1  0
 13 28  1  1
 14 29  1  0
 16 30  1  0
M  END
$$$$
