
     RDKit          3D

 37 39  0  0  0  0  0  0  0  0999 V2000
    6.9448   -1.3185    2.1641 F   0  0  0  0  0  0  0  0  0  0  0  0
    5.9445   -0.9731    1.3166 C   0  0  0  0  0  0  0  0  0  0  0  0
    6.0825   -1.1965   -0.0558 C   0  0  0  0  0  0  0  0  0  0  0  0
    5.0528   -0.8381   -0.9313 C   0  0  0  0  0  0  0  0  0  0  0  0
    3.8683   -0.2664   -0.4400 C   0  0  0  0  0  0  0  0  0  0  0  0
    2.8333    0.1145   -1.3631 N   0  0  0  0  0  0  0  0  0  0  0  0
    1.4296    0.0767   -1.0555 C   0  0  0  0  0  0  0  0  0  0  0  0
    1.0215   -0.5520   -0.0423 O   0  0  0  0  0  0  0  0  0  0  0  0
    0.4580    0.7237   -1.9592 C   0  0  0  0  0  0  0  0  0  0  0  0
    0.7942    1.2624   -3.1490 N   0  0  0  0  0  0  0  0  0  0  0  0
   -0.3072    1.7403   -3.7078 N   0  0  0  0  0  0  0  0  0  0  0  0
   -1.3622    1.5248   -2.9023 C   0  0  0  0  0  0  0  0  0  0  0  0
   -0.9103    0.8657   -1.7763 C   0  0  0  0  0  0  0  0  0  0  0  0
   -1.6667    0.5370   -0.5998 N   0  0  0  0  0  0  0  0  0  0  0  0
   -3.0744    0.2375   -0.6152 C   0  0  0  0  0  0  0  0  0  0  0  0
   -3.7100    0.2507   -1.7043 O   0  0  0  0  0  0  0  0  0  0  0  0
   -3.7999   -0.0939    0.6349 C   0  0  0  0  0  0  0  0  0  0  0  0
   -3.1432   -0.7023    1.7221 C   0  0  0  0  0  0  0  0  0  0  0  0
   -3.8474   -1.0129    2.8899 C   0  0  0  0  0  0  0  0  0  0  0  0
   -5.2111   -0.7276    2.9841 C   0  0  0  0  0  0  0  0  0  0  0  0
   -5.8761   -0.1366    1.9078 C   0  0  0  0  0  0  0  0  0  0  0  0
   -5.1776    0.1752    0.7374 C   0  0  0  0  0  0  0  0  0  0  0  0
    3.7467   -0.0243    0.9414 C   0  0  0  0  0  0  0  0  0  0  0  0
    4.7792   -0.3833    1.8139 C   0  0  0  0  0  0  0  0  0  0  0  0
    6.9881   -1.6455   -0.4431 H   0  0  0  0  0  0  0  0  0  0  0  0
    5.1727   -1.0147   -1.9929 H   0  0  0  0  0  0  0  0  0  0  0  0
    3.1176    0.3537   -2.3399 H   0  0  0  0  0  0  0  0  0  0  0  0
   -0.3317    2.2270   -4.6309 H   0  0  0  0  0  0  0  0  0  0  0  0
   -2.3671    1.8666   -3.1091 H   0  0  0  0  0  0  0  0  0  0  0  0
   -1.1649    0.5548    0.3136 H   0  0  0  0  0  0  0  0  0  0  0  0
   -2.0958   -0.9660    1.6672 H   0  0  0  0  0  0  0  0  0  0  0  0
   -3.3360   -1.4826    3.7202 H   0  0  0  0  0  0  0  0  0  0  0  0
   -5.7537   -0.9698    3.8887 H   0  0  0  0  0  0  0  0  0  0  0  0
   -6.9340    0.0804    1.9801 H   0  0  0  0  0  0  0  0  0  0  0  0
   -5.7118    0.6376   -0.0836 H   0  0  0  0  0  0  0  0  0  0  0  0
    2.8694    0.4636    1.3444 H   0  0  0  0  0  0  0  0  0  0  0  0
    4.6783   -0.1953    2.8751 H   0  0  0  0  0  0  0  0  0  0  0  0
  1  2  1  0
  2  3  2  0
  3  4  1  0
  4  5  2  0
  5  6  1  0
  6  7  1  0
  7  8  2  0
  7  9  1  0
  9 10  2  0
 10 11  1  0
 11 12  1  0
 12 13  2  0
 13 14  1  0
 14 15  1  0
 15 16  2  0
 15 17  1  0
 17 18  2  0
 18 19  1  0
 19 20  2  0
 20 21  1  0
 21 22  2  0
  5 23  1  0
 23 24  2  0
 24  2  1  0
 13  9  1  0
 22 17  1  0
  3 25  1  0
  4 26  1  0
  6 27  1  0
 11 28  1  0
 12 29  1  0
 14 30  1  0
 18 31  1  0
 19 32  1  0
 20 33  1  0
 21 34  1  0
 22 35  1  0
 23 36  1  0
 24 37  1  0
M  END
$$$$
