
     RDKit          3D

 13 13  0  0  0  0  0  0  0  0999 V2000
    2.5663    0.0774   -0.0527 O   0  0  0  0  0  0  0  0  0  0  0  0
    1.1754    0.0063   -0.0251 C   0  0  0  0  0  0  0  0  0  0  0  0
    0.5463   -1.2438   -0.0509 C   0  0  0  0  0  0  0  0  0  0  0  0
   -0.8496   -1.3287   -0.0235 C   0  0  0  0  0  0  0  0  0  0  0  0
   -1.6218   -0.1627    0.0297 C   0  0  0  0  0  0  0  0  0  0  0  0
   -3.3724   -0.2695    0.0640 Cl  0  0  0  0  0  0  0  0  0  0  0  0
   -0.9955    1.0887    0.0556 C   0  0  0  0  0  0  0  0  0  0  0  0
    0.4003    1.1741    0.0283 C   0  0  0  0  0  0  0  0  0  0  0  0
    3.0512    0.9670   -0.0351 H   0  0  0  0  0  0  0  0  0  0  0  0
    1.1392   -2.1488   -0.0921 H   0  0  0  0  0  0  0  0  0  0  0  0
   -1.3289   -2.2992   -0.0438 H   0  0  0  0  0  0  0  0  0  0  0  0
   -1.5881    1.9937    0.0968 H   0  0  0  0  0  0  0  0  0  0  0  0
    0.8777    2.1455    0.0486 H   0  0  0  0  0  0  0  0  0  0  0  0
  1  2  1  0
  2  3  2  0
  3  4  1  0
  4  5  2  0
  5  6  1  0
  5  7  1  0
  7  8  2  0
  8  2  1  0
  1  9  1  0
  3 10  1  0
  4 11  1  0
  7 12  1  0
  8 13  1  0
M  END
$$$$
