
     RDKit          3D

 32 33  0  0  0  0  0  0  0  0999 V2000
   -1.1921   -0.6565    1.2145 C   0  0  1  0  0  0  0  0  0  0  0  0
   -0.3886   -1.9552    1.4518 C   0  0  0  0  0  0  0  0  0  0  0  0
    0.8541   -1.9390    0.6775 N   0  0  0  0  0  0  0  0  0  0  0  0
    1.6147   -0.7316    0.5593 C   0  0  0  0  0  0  0  0  0  0  0  0
    1.0446    0.4799    0.9588 C   0  0  0  0  0  0  0  0  0  0  0  0
   -0.3089    0.4945    1.4396 N   0  0  0  0  0  0  0  0  0  0  0  0
    1.8173    1.6434    0.8646 C   0  0  0  0  0  0  0  0  0  0  0  0
    1.3433    2.7557    1.2209 O   0  0  0  0  0  0  0  0  0  0  0  0
    3.0860    1.5722    0.3744 N   0  0  0  0  0  0  0  0  0  0  0  0
    3.6158    0.3820   -0.0290 C   0  0  0  0  0  0  0  0  0  0  0  0
    4.9441    0.3238   -0.5489 N   0  0  0  0  0  0  0  0  0  0  0  0
    2.8797   -0.7574    0.0672 N   0  0  0  0  0  0  0  0  0  0  0  0
   -1.8023   -0.6146   -0.2128 C   0  0  1  0  0  0  0  0  0  0  0  0
   -2.6079   -1.7556   -0.3877 O   0  0  0  0  0  0  0  0  0  0  0  0
   -2.6650    0.6577   -0.4428 C   0  0  2  0  0  0  0  0  0  0  0  0
   -3.4096    0.6146   -1.7848 C   0  0  0  0  0  0  0  0  0  0  0  0
   -1.8850    1.8259   -0.3795 O   0  0  0  0  0  0  0  0  0  0  0  0
   -2.0230   -0.6231    1.9540 H   0  0  0  0  0  0  0  0  0  0  0  0
   -0.1315   -2.0227    2.5310 H   0  0  0  0  0  0  0  0  0  0  0  0
   -0.9848   -2.8566    1.1953 H   0  0  0  0  0  0  0  0  0  0  0  0
    1.2151   -2.8259    0.2600 H   0  0  0  0  0  0  0  0  0  0  0  0
   -0.6722    1.3204    1.9670 H   0  0  0  0  0  0  0  0  0  0  0  0
    3.6582    2.4440    0.3015 H   0  0  0  0  0  0  0  0  0  0  0  0
    5.3501   -0.5878   -0.8561 H   0  0  0  0  0  0  0  0  0  0  0  0
    5.5245    1.1880   -0.6287 H   0  0  0  0  0  0  0  0  0  0  0  0
   -0.9659   -0.6178   -0.9535 H   0  0  0  0  0  0  0  0  0  0  0  0
   -2.4788   -2.0700   -1.3207 H   0  0  0  0  0  0  0  0  0  0  0  0
   -3.4309    0.7152    0.3612 H   0  0  0  0  0  0  0  0  0  0  0  0
   -3.9506    1.5713   -1.9450 H   0  0  0  0  0  0  0  0  0  0  0  0
   -4.1566   -0.2070   -1.7914 H   0  0  0  0  0  0  0  0  0  0  0  0
   -2.6952    0.4641   -2.6223 H   0  0  0  0  0  0  0  0  0  0  0  0
   -1.1986    1.7681   -1.0952 H   0  0  0  0  0  0  0  0  0  0  0  0
  1  2  1  0
  2  3  1  0
  3  4  1  0
  4  5  2  0
  5  6  1  0
  5  7  1  0
  7  8  2  0
  7  9  1  0
  9 10  1  0
 10 11  1  0
 10 12  2  0
  1 13  1  0
 13 14  1  0
 13 15  1  0
 15 16  1  0
 15 17  1  0
  6  1  1  0
 12  4  1  0
  1 18  1  1
  2 19  1  0
  2 20  1  0
  3 21  1  0
  6 22  1  0
  9 23  1  0
 11 24  1  0
 11 25  1  0
 13 26  1  6
 14 27  1  0
 15 28  1  1
 16 29  1  0
 16 30  1  0
 16 31  1  0
 17 32  1  0
M  END
$$$$
