
     RDKit          3D

 40 41  0  0  0  0  0  0  0  0999 V2000
   -3.1918   -3.3814    0.9533 C   0  0  0  0  0  0  0  0  0  0  0  0
   -2.0028   -2.6093    0.8203 O   0  0  0  0  0  0  0  0  0  0  0  0
   -1.9756   -1.2234    0.6014 C   0  0  0  0  0  0  0  0  0  0  0  0
   -0.7295   -0.5973    0.4897 C   0  0  0  0  0  0  0  0  0  0  0  0
   -0.6229    0.7916    0.2665 C   0  0  0  0  0  0  0  0  0  0  0  0
    0.6655    1.4423    0.1546 N   0  0  0  0  0  0  0  0  0  0  0  0
    1.9560    0.7387    0.1053 C   0  0  0  0  0  0  0  0  0  0  0  0
    3.0959    1.7269    0.3973 C   0  0  0  0  0  0  0  0  0  0  0  0
    2.1257    0.0724   -1.2806 C   0  0  0  0  0  0  0  0  0  0  0  0
    3.3671   -0.8291   -1.4280 C   0  0  0  0  0  0  0  0  0  0  0  0
    3.3261   -2.0881   -0.5471 C   0  0  0  0  0  0  0  0  0  0  0  0
    3.7913   -1.7976    0.8060 N   0  0  0  0  0  0  0  0  0  0  0  0
   -1.8075    1.5522    0.1606 C   0  0  0  0  0  0  0  0  0  0  0  0
   -1.7506    2.8966   -0.0564 N   0  0  0  0  0  0  0  0  0  0  0  0
   -2.8695    3.6602   -0.1661 C   0  0  0  0  0  0  0  0  0  0  0  0
   -4.1308    3.0739   -0.0578 C   0  0  0  0  0  0  0  0  0  0  0  0
   -4.2309    1.7000    0.1629 C   0  0  0  0  0  0  0  0  0  0  0  0
   -3.0691    0.9231    0.2741 C   0  0  0  0  0  0  0  0  0  0  0  0
   -3.1479   -0.4570    0.4930 C   0  0  0  0  0  0  0  0  0  0  0  0
   -3.7989   -3.3105    0.0262 H   0  0  0  0  0  0  0  0  0  0  0  0
   -3.7814   -3.0275    1.8253 H   0  0  0  0  0  0  0  0  0  0  0  0
   -2.9176   -4.4436    1.1177 H   0  0  0  0  0  0  0  0  0  0  0  0
    0.1500   -1.2174    0.5792 H   0  0  0  0  0  0  0  0  0  0  0  0
    0.6866    2.4860    0.0974 H   0  0  0  0  0  0  0  0  0  0  0  0
    1.9773   -0.0189    0.9133 H   0  0  0  0  0  0  0  0  0  0  0  0
    3.1948    2.4683   -0.4242 H   0  0  0  0  0  0  0  0  0  0  0  0
    2.8890    2.2707    1.3437 H   0  0  0  0  0  0  0  0  0  0  0  0
    4.0592    1.1918    0.5253 H   0  0  0  0  0  0  0  0  0  0  0  0
    2.1786    0.8689   -2.0551 H   0  0  0  0  0  0  0  0  0  0  0  0
    1.2258   -0.5329   -1.5201 H   0  0  0  0  0  0  0  0  0  0  0  0
    3.4051   -1.1623   -2.4881 H   0  0  0  0  0  0  0  0  0  0  0  0
    4.3013   -0.2556   -1.2518 H   0  0  0  0  0  0  0  0  0  0  0  0
    2.2926   -2.4973   -0.5097 H   0  0  0  0  0  0  0  0  0  0  0  0
    3.9801   -2.8679   -0.9981 H   0  0  0  0  0  0  0  0  0  0  0  0
    4.8186   -1.6045    0.7658 H   0  0  0  0  0  0  0  0  0  0  0  0
    3.6737   -2.6658    1.3766 H   0  0  0  0  0  0  0  0  0  0  0  0
   -2.7792    4.7244   -0.3379 H   0  0  0  0  0  0  0  0  0  0  0  0
   -5.0235    3.6795   -0.1448 H   0  0  0  0  0  0  0  0  0  0  0  0
   -5.2114    1.2465    0.2458 H   0  0  0  0  0  0  0  0  0  0  0  0
   -4.1195   -0.9266    0.5774 H   0  0  0  0  0  0  0  0  0  0  0  0
  1  2  1  0
  2  3  1  0
  3  4  2  0
  4  5  1  0
  5  6  1  0
  6  7  1  0
  7  8  1  0
  7  9  1  0
  9 10  1  0
 10 11  1  0
 11 12  1  0
  5 13  2  0
 13 14  1  0
 14 15  2  0
 15 16  1  0
 16 17  2  0
 17 18  1  0
 18 19  2  0
 19  3  1  0
 18 13  1  0
  1 20  1  0
  1 21  1  0
  1 22  1  0
  4 23  1  0
  6 24  1  0
  7 25  1  0
  8 26  1  0
  8 27  1  0
  8 28  1  0
  9 29  1  0
  9 30  1  0
 10 31  1  0
 10 32  1  0
 11 33  1  0
 11 34  1  0
 12 35  1  0
 12 36  1  0
 15 37  1  0
 16 38  1  0
 17 39  1  0
 19 40  1  0
M  END
$$$$
