
     RDKit          3D

 53 55  0  0  0  0  0  0  0  0999 V2000
    4.6101   -1.8909   -0.4292 C   0  0  0  0  0  0  0  0  0  0  0  0
    4.6311   -0.6823    0.4723 C   0  0  0  0  0  0  0  0  0  0  0  0
    3.7697   -0.5392    1.5011 C   0  0  0  0  0  0  0  0  0  0  0  0
    2.4938   -1.6789    1.9605 S   0  0  0  0  0  6  0  0  0  0  0  0
    2.7431   -3.0585    1.4194 O   0  0  0  0  0  0  0  0  0  0  0  0
    2.4907   -1.7697    3.4601 O   0  0  0  0  0  0  0  0  0  0  0  0
    0.9362   -1.0930    1.4449 N   0  0  0  0  0  0  0  0  0  0  0  0
    0.8679   -0.9805   -0.0204 C   0  0  1  0  0  0  0  0  0  0  0  0
    0.5069   -2.3350   -0.6674 C   0  0  0  0  0  0  0  0  0  0  0  0
   -0.9165   -2.2121   -1.2419 C   0  0  0  0  0  0  0  0  0  0  0  0
   -1.2774   -0.8058   -1.1409 N   0  0  0  0  0  0  0  0  0  0  0  0
   -2.5928   -0.2268   -1.4534 C   0  0  1  0  0  0  0  0  0  0  0  0
   -3.2955   -0.9903   -2.5821 C   0  0  0  0  0  0  0  0  0  0  0  0
   -3.4575   -0.2103   -0.2121 C   0  0  0  0  0  0  0  0  0  0  0  0
   -3.5442   -1.2654    0.4743 O   0  0  0  0  0  0  0  0  0  0  0  0
   -4.1856    0.9667    0.2034 N   0  0  0  0  0  0  0  0  0  0  0  0
   -4.4292    2.0802   -0.7232 C   0  0  0  0  0  0  0  0  0  0  0  0
   -5.6768    2.8623   -0.3013 C   0  0  0  0  0  0  0  0  0  0  0  0
   -5.6079    3.2236    1.0635 O   0  0  0  0  0  0  0  0  0  0  0  0
   -5.6439    2.0578    1.8620 C   0  0  0  0  0  0  0  0  0  0  0  0
   -4.3909    1.2070    1.6379 C   0  0  0  0  0  0  0  0  0  0  0  0
   -0.2700   -0.1177   -0.4229 C   0  0  0  0  0  0  0  0  0  0  0  0
   -0.3386    1.1129   -0.1585 O   0  0  0  0  0  0  0  0  0  0  0  0
    5.6771    0.3507    0.2570 C   0  0  0  0  0  0  0  0  0  0  0  0
    6.9106    0.1572   -0.3675 C   0  0  0  0  0  0  0  0  0  0  0  0
    7.6943    1.3158   -0.4331 C   0  0  0  0  0  0  0  0  0  0  0  0
    7.0834    2.4212    0.1368 C   0  0  0  0  0  0  0  0  0  0  0  0
    7.7663    4.0302    0.2386 Cl  0  0  0  0  0  0  0  0  0  0  0  0
    5.5774    1.9714    0.7241 S   0  0  0  0  0  0  0  0  0  0  0  0
    3.5778   -2.1335   -0.7468 H   0  0  0  0  0  0  0  0  0  0  0  0
    5.1782   -1.7060   -1.3638 H   0  0  0  0  0  0  0  0  0  0  0  0
    5.0610   -2.7591    0.0952 H   0  0  0  0  0  0  0  0  0  0  0  0
    3.8471    0.3310    2.1398 H   0  0  0  0  0  0  0  0  0  0  0  0
    0.8464   -0.1379    1.8632 H   0  0  0  0  0  0  0  0  0  0  0  0
    1.8019   -0.5571   -0.4487 H   0  0  0  0  0  0  0  0  0  0  0  0
    0.5469   -3.1723    0.0620 H   0  0  0  0  0  0  0  0  0  0  0  0
    1.2209   -2.5544   -1.4908 H   0  0  0  0  0  0  0  0  0  0  0  0
   -1.6234   -2.8262   -0.6435 H   0  0  0  0  0  0  0  0  0  0  0  0
   -0.9387   -2.5421   -2.3026 H   0  0  0  0  0  0  0  0  0  0  0  0
   -2.4220    0.8076   -1.8177 H   0  0  0  0  0  0  0  0  0  0  0  0
   -2.6490   -1.0097   -3.4850 H   0  0  0  0  0  0  0  0  0  0  0  0
   -4.2492   -0.4876   -2.8486 H   0  0  0  0  0  0  0  0  0  0  0  0
   -3.5223   -2.0340   -2.2763 H   0  0  0  0  0  0  0  0  0  0  0  0
   -3.5480    2.7578   -0.7217 H   0  0  0  0  0  0  0  0  0  0  0  0
   -4.5949    1.7024   -1.7544 H   0  0  0  0  0  0  0  0  0  0  0  0
   -6.5977    2.2730   -0.5169 H   0  0  0  0  0  0  0  0  0  0  0  0
   -5.7372    3.7896   -0.9092 H   0  0  0  0  0  0  0  0  0  0  0  0
   -6.5626    1.4592    1.6630 H   0  0  0  0  0  0  0  0  0  0  0  0
   -5.6809    2.3621    2.9293 H   0  0  0  0  0  0  0  0  0  0  0  0
   -4.5129    0.2509    2.1908 H   0  0  0  0  0  0  0  0  0  0  0  0
   -3.5041    1.7381    2.0466 H   0  0  0  0  0  0  0  0  0  0  0  0
    7.2512   -0.7951   -0.7514 H   0  0  0  0  0  0  0  0  0  0  0  0
    8.6795    1.3426   -0.8793 H   0  0  0  0  0  0  0  0  0  0  0  0
  1  2  1  0
  2  3  2  0
  3  4  1  0
  4  5  2  0
  4  6  2  0
  4  7  1  0
  7  8  1  0
  8  9  1  0
  9 10  1  0
 10 11  1  0
 11 12  1  0
 12 13  1  0
 12 14  1  0
 14 15  2  0
 14 16  1  0
 16 17  1  0
 17 18  1  0
 18 19  1  0
 19 20  1  0
 20 21  1  0
 11 22  1  0
 22 23  2  0
  2 24  1  0
 24 25  2  0
 25 26  1  0
 26 27  2  0
 27 28  1  0
 27 29  1  0
 22  8  1  0
 29 24  1  0
 21 16  1  0
  1 30  1  0
  1 31  1  0
  1 32  1  0
  3 33  1  0
  7 34  1  0
  8 35  1  6
  9 36  1  0
  9 37  1  0
 10 38  1  0
 10 39  1  0
 12 40  1  6
 13 41  1  0
 13 42  1  0
 13 43  1  0
 17 44  1  0
 17 45  1  0
 18 46  1  0
 18 47  1  0
 20 48  1  0
 20 49  1  0
 21 50  1  0
 21 51  1  0
 25 52  1  0
 26 53  1  0
M  END
$$$$
