
     RDKit          3D

 60 63  0  0  0  0  0  0  0  0999 V2000
    2.1874   -4.6035    2.0053 O   0  0  0  0  0  0  0  0  0  0  0  0
    1.8635   -3.3844    1.9871 C   0  0  0  0  0  0  0  0  0  0  0  0
    0.6572   -2.9662    2.7949 C   0  0  0  0  0  0  0  0  0  0  0  0
   -0.6556   -3.0620    1.9912 C   0  0  0  0  0  0  0  0  0  0  0  0
   -0.7565   -2.0911    0.7883 C   0  0  0  0  0  0  0  0  0  0  0  0
   -1.9255   -2.5064   -0.1309 C   0  0  0  0  0  0  0  0  0  0  0  0
   -2.2835   -1.3570   -1.0787 C   0  0  0  0  0  0  0  0  0  0  0  0
   -2.7904   -0.1663   -0.3510 N   0  0  0  0  0  0  0  0  0  0  0  0
   -2.5463    1.0648   -1.1313 C   0  0  0  0  0  0  0  0  0  0  0  0
   -3.5035    2.1530   -0.7203 C   0  0  0  0  0  0  0  0  0  0  0  0
   -4.8830    1.9907   -0.9295 C   0  0  0  0  0  0  0  0  0  0  0  0
   -5.7768    2.9945   -0.5439 C   0  0  0  0  0  0  0  0  0  0  0  0
   -5.3003    4.1655    0.0520 C   0  0  0  0  0  0  0  0  0  0  0  0
   -3.9290    4.3347    0.2630 C   0  0  0  0  0  0  0  0  0  0  0  0
   -3.0316    3.3334   -0.1214 C   0  0  0  0  0  0  0  0  0  0  0  0
   -2.2963   -0.0520    1.0467 C   0  0  0  0  0  0  0  0  0  0  0  0
   -0.8732   -0.6023    1.2205 C   0  0  0  0  0  0  0  0  0  0  0  0
    2.6304   -2.4452    1.1198 C   0  0  0  0  0  0  0  0  0  0  0  0
    2.5556   -1.0492    1.2833 C   0  0  0  0  0  0  0  0  0  0  0  0
    3.1905   -0.1819    0.3847 C   0  0  0  0  0  0  0  0  0  0  0  0
    3.9767   -0.7047   -0.6613 C   0  0  0  0  0  0  0  0  0  0  0  0
    4.7695    0.2021   -1.5734 C   0  0  0  0  0  0  0  0  0  0  0  0
    3.8707    1.1214   -2.4109 C   0  0  0  0  0  0  0  0  0  0  0  0
    3.3947    2.3539   -1.6303 C   0  0  0  0  0  0  0  0  0  0  0  0
    2.3775    2.0076   -0.5433 C   0  0  0  0  0  0  0  0  0  0  0  0
    2.9925    1.2295    0.5286 N   0  0  0  0  0  0  0  0  0  0  0  0
    4.0851   -2.0970   -0.8021 C   0  0  0  0  0  0  0  0  0  0  0  0
    3.4147   -2.9554    0.0713 C   0  0  0  0  0  0  0  0  0  0  0  0
    0.5684   -3.6590    3.6602 H   0  0  0  0  0  0  0  0  0  0  0  0
    0.7841   -1.9681    3.2505 H   0  0  0  0  0  0  0  0  0  0  0  0
   -0.7584   -4.1088    1.6276 H   0  0  0  0  0  0  0  0  0  0  0  0
   -1.5079   -2.8733    2.6802 H   0  0  0  0  0  0  0  0  0  0  0  0
    0.1626   -2.1947    0.1751 H   0  0  0  0  0  0  0  0  0  0  0  0
   -2.8242   -2.7744    0.4682 H   0  0  0  0  0  0  0  0  0  0  0  0
   -1.6350   -3.4002   -0.7255 H   0  0  0  0  0  0  0  0  0  0  0  0
   -3.0701   -1.7057   -1.7817 H   0  0  0  0  0  0  0  0  0  0  0  0
   -1.3781   -1.1088   -1.6806 H   0  0  0  0  0  0  0  0  0  0  0  0
   -2.7139    0.8764   -2.2161 H   0  0  0  0  0  0  0  0  0  0  0  0
   -1.4877    1.3933   -1.0218 H   0  0  0  0  0  0  0  0  0  0  0  0
   -5.2637    1.0868   -1.3891 H   0  0  0  0  0  0  0  0  0  0  0  0
   -6.8389    2.8644   -0.7065 H   0  0  0  0  0  0  0  0  0  0  0  0
   -5.9933    4.9415    0.3504 H   0  0  0  0  0  0  0  0  0  0  0  0
   -3.5613    5.2416    0.7253 H   0  0  0  0  0  0  0  0  0  0  0  0
   -1.9723    3.4773    0.0516 H   0  0  0  0  0  0  0  0  0  0  0  0
   -2.9829   -0.6181    1.7125 H   0  0  0  0  0  0  0  0  0  0  0  0
   -2.3231    0.9992    1.4076 H   0  0  0  0  0  0  0  0  0  0  0  0
   -0.5706   -0.4541    2.2769 H   0  0  0  0  0  0  0  0  0  0  0  0
   -0.1844    0.0123    0.6007 H   0  0  0  0  0  0  0  0  0  0  0  0
    1.9804   -0.6107    2.0832 H   0  0  0  0  0  0  0  0  0  0  0  0
    5.4845    0.8010   -0.9685 H   0  0  0  0  0  0  0  0  0  0  0  0
    5.3850   -0.4048   -2.2734 H   0  0  0  0  0  0  0  0  0  0  0  0
    4.4612    1.4817   -3.2815 H   0  0  0  0  0  0  0  0  0  0  0  0
    3.0025    0.5561   -2.8163 H   0  0  0  0  0  0  0  0  0  0  0  0
    4.2616    2.8870   -1.1819 H   0  0  0  0  0  0  0  0  0  0  0  0
    2.9108    3.0531   -2.3463 H   0  0  0  0  0  0  0  0  0  0  0  0
    1.9759    2.9541   -0.1205 H   0  0  0  0  0  0  0  0  0  0  0  0
    1.5205    1.4470   -0.9781 H   0  0  0  0  0  0  0  0  0  0  0  0
    2.9652    1.6296    1.4939 H   0  0  0  0  0  0  0  0  0  0  0  0
    4.6888   -2.5247   -1.5930 H   0  0  0  0  0  0  0  0  0  0  0  0
    3.4995   -4.0235   -0.0863 H   0  0  0  0  0  0  0  0  0  0  0  0
  1  2  2  0
  2  3  1  0
  3  4  1  0
  4  5  1  0
  5  6  1  0
  6  7  1  0
  7  8  1  0
  8  9  1  0
  9 10  1  0
 10 11  2  0
 11 12  1  0
 12 13  2  0
 13 14  1  0
 14 15  2  0
  8 16  1  0
 16 17  1  0
  2 18  1  0
 18 19  2  0
 19 20  1  0
 20 21  2  0
 21 22  1  0
 22 23  1  0
 23 24  1  0
 24 25  1  0
 25 26  1  0
 21 27  1  0
 27 28  2  0
 17  5  1  0
 28 18  1  0
 15 10  1  0
 26 20  1  0
  3 29  1  0
  3 30  1  0
  4 31  1  0
  4 32  1  0
  5 33  1  0
  6 34  1  0
  6 35  1  0
  7 36  1  0
  7 37  1  0
  9 38  1  0
  9 39  1  0
 11 40  1  0
 12 41  1  0
 13 42  1  0
 14 43  1  0
 15 44  1  0
 16 45  1  0
 16 46  1  0
 17 47  1  0
 17 48  1  0
 19 49  1  0
 22 50  1  0
 22 51  1  0
 23 52  1  0
 23 53  1  0
 24 54  1  0
 24 55  1  0
 25 56  1  0
 25 57  1  0
 26 58  1  0
 27 59  1  0
 28 60  1  0
M  END
$$$$
