
     RDKit          3D

 63 65  0  0  0  0  0  0  0  0999 V2000
   -2.0882   -2.8656   -0.0521 C   0  0  0  0  0  0  0  0  0  0  0  0
   -1.5177   -1.5118   -0.0636 N   0  0  0  0  0  0  0  0  0  0  0  0
   -0.2259   -1.3024   -0.4361 C   0  0  0  0  0  0  0  0  0  0  0  0
    0.3376   -0.0718   -0.4374 C   0  0  0  0  0  0  0  0  0  0  0  0
    1.6120   -0.1788   -0.8580 N   0  0  0  0  0  0  0  0  0  0  0  0
    2.6446    0.8518   -0.9636 C   0  0  0  0  0  0  0  0  0  0  0  0
    3.2388    1.1257    0.3808 C   0  0  0  0  0  0  0  0  0  0  0  0
    2.9395    2.3102    1.0461 O   0  0  0  0  0  0  0  0  0  0  0  0
    3.9948    0.2741    0.9201 O   0  0  0  0  0  0  0  0  0  0  0  0
    1.7779   -1.5060   -1.0833 C   0  0  0  0  0  0  0  0  0  0  0  0
    0.6594   -2.2359   -0.8384 N   0  0  0  0  0  0  0  0  0  0  0  0
   -0.3955    1.0360   -0.0267 C   0  0  0  0  0  0  0  0  0  0  0  0
    0.1171    2.1881   -0.0439 O   0  0  0  0  0  0  0  0  0  0  0  0
   -1.6911    0.8399    0.3957 N   0  0  0  0  0  0  0  0  0  0  0  0
   -2.5063    1.9913    0.8185 C   0  0  0  0  0  0  0  0  0  0  0  0
   -2.2519   -0.4263    0.3628 C   0  0  0  0  0  0  0  0  0  0  0  0
   -3.4506   -0.5913    0.7276 O   0  0  0  0  0  0  0  0  0  0  0  0
    3.3471   -2.2512    0.9854 N   0  0  0  0  0  0  0  0  0  0  0  0
    3.5643   -0.9893    0.3317 C   0  0  0  0  0  0  0  0  0  0  0  0
    4.8824   -0.5511    0.0691 C   0  0  0  0  0  0  0  0  0  0  0  0
    6.4246   -1.5604    0.6031 Br  0  0  0  0  0  0  0  0  0  0  0  0
    5.1023    0.6383   -0.6294 C   0  0  0  0  0  0  0  0  0  0  0  0
    4.0277    1.3975   -1.0852 C   0  0  0  0  0  0  0  0  0  0  0  0
    4.3446    3.0026   -2.0713 Br  0  0  0  0  0  0  0  0  0  0  0  0
    2.7212    0.9863   -0.8238 C   0  0  0  0  0  0  0  0  0  0  0  0
    2.4672   -0.1846   -0.0806 C   0  0  0  0  0  0  0  0  0  0  0  0
    1.0367   -0.6038    0.2093 C   0  0  0  0  0  0  0  0  0  0  0  0
    0.1143    0.5437    0.1830 N   0  0  0  0  0  0  0  0  0  0  0  0
   -1.2977    0.1150    0.2522 C   0  0  2  0  0  0  0  0  0  0  0  0
   -1.8262   -0.2017   -1.1609 C   0  0  0  0  0  0  0  0  0  0  0  0
   -3.2659   -0.7560   -1.1253 C   0  0  0  0  0  0  0  0  0  0  0  0
   -4.0890   -0.2454    0.0817 C   0  0  2  0  0  0  0  0  0  0  0  0
   -5.4658   -0.2902   -0.1973 O   0  0  0  0  0  0  0  0  0  0  0  0
   -3.6579    1.1704    0.4996 C   0  0  0  0  0  0  0  0  0  0  0  0
   -2.1693    1.2229    0.9057 C   0  0  0  0  0  0  0  0  0  0  0  0
   -1.5395   -3.5434   -0.7402 H   0  0  0  0  0  0  0  0  0  0  0  0
   -2.0407   -3.2802    0.9767 H   0  0  0  0  0  0  0  0  0  0  0  0
   -3.1461   -2.8467   -0.3909 H   0  0  0  0  0  0  0  0  0  0  0  0
    3.4474    0.5124   -1.6537 H   0  0  0  0  0  0  0  0  0  0  0  0
    2.2170    1.7811   -1.3945 H   0  0  0  0  0  0  0  0  0  0  0  0
    3.3268    2.5038    1.9619 H   0  0  0  0  0  0  0  0  0  0  0  0
    2.7094   -1.9458   -1.4157 H   0  0  0  0  0  0  0  0  0  0  0  0
   -3.0646    2.3917   -0.0537 H   0  0  0  0  0  0  0  0  0  0  0  0
   -1.8766    2.7987    1.2492 H   0  0  0  0  0  0  0  0  0  0  0  0
   -3.2275    1.7014    1.6123 H   0  0  0  0  0  0  0  0  0  0  0  0
    4.1207   -2.7627    1.4620 H   0  0  0  0  0  0  0  0  0  0  0  0
    2.4275   -2.7416    0.9476 H   0  0  0  0  0  0  0  0  0  0  0  0
    6.1139    0.9645   -0.8351 H   0  0  0  0  0  0  0  0  0  0  0  0
    1.9072    1.5917   -1.2011 H   0  0  0  0  0  0  0  0  0  0  0  0
    0.7478   -1.3612   -0.5490 H   0  0  0  0  0  0  0  0  0  0  0  0
    0.9802   -1.0727    1.2167 H   0  0  0  0  0  0  0  0  0  0  0  0
    0.3400    1.1248    1.0258 H   0  0  0  0  0  0  0  0  0  0  0  0
   -1.3926   -0.8026    0.8800 H   0  0  0  0  0  0  0  0  0  0  0  0
   -1.8049    0.7293   -1.7701 H   0  0  0  0  0  0  0  0  0  0  0  0
   -1.1754   -0.9411   -1.6722 H   0  0  0  0  0  0  0  0  0  0  0  0
   -3.2306   -1.8666   -1.0829 H   0  0  0  0  0  0  0  0  0  0  0  0
   -3.7677   -0.4814   -2.0789 H   0  0  0  0  0  0  0  0  0  0  0  0
   -3.9026   -0.9235    0.9439 H   0  0  0  0  0  0  0  0  0  0  0  0
   -5.6469    0.3595   -0.9262 H   0  0  0  0  0  0  0  0  0  0  0  0
   -3.8285    1.8676   -0.3507 H   0  0  0  0  0  0  0  0  0  0  0  0
   -4.2854    1.5179    1.3490 H   0  0  0  0  0  0  0  0  0  0  0  0
   -2.0884    1.1283    2.0108 H   0  0  0  0  0  0  0  0  0  0  0  0
   -1.7746    2.2269    0.6331 H   0  0  0  0  0  0  0  0  0  0  0  0
  1  2  1  0
  2  3  1  0
  3  4  2  0
  4  5  1  0
  5  6  1  0
  6  7  1  0
  7  8  1  0
  7  9  2  0
  5 10  1  0
 10 11  2  0
  4 12  1  0
 12 13  2  0
 12 14  1  0
 14 15  1  0
 14 16  1  0
 16 17  2  0
 18 19  1  0
 19 20  2  0
 20 21  1  0
 20 22  1  0
 22 23  2  0
 23 24  1  0
 23 25  1  0
 25 26  2  0
 26 27  1  0
 27 28  1  0
 28 29  1  0
 29 30  1  0
 30 31  1  0
 31 32  1  0
 32 33  1  0
 32 34  1  0
 34 35  1  0
 16  2  1  0
 26 19  1  0
 35 29  1  0
 11  3  1  0
  1 36  1  0
  1 37  1  0
  1 38  1  0
  6 39  1  0
  6 40  1  0
  8 41  1  0
 10 42  1  0
 15 43  1  0
 15 44  1  0
 15 45  1  0
 18 46  1  0
 18 47  1  0
 22 48  1  0
 25 49  1  0
 27 50  1  0
 27 51  1  0
 28 52  1  0
 29 53  1  1
 30 54  1  0
 30 55  1  0
 31 56  1  0
 31 57  1  0
 32 58  1  1
 33 59  1  0
 34 60  1  0
 34 61  1  0
 35 62  1  0
 35 63  1  0
M  END
$$$$
