
     RDKit          3D

 26 26  0  0  0  0  0  0  0  0999 V2000
   -4.7755    0.2713    0.1560 O   0  0  0  0  0  0  0  0  0  0  0  0
   -4.0144   -0.7642   -0.3771 C   0  0  0  0  0  0  0  0  0  0  0  0
   -4.1694   -1.9418    0.0436 O   0  0  0  0  0  0  0  0  0  0  0  0
   -2.9796   -0.4691   -1.4147 C   0  0  0  0  0  0  0  0  0  0  0  0
   -1.6754   -0.1133   -0.7564 C   0  0  0  0  0  0  0  0  0  0  0  0
   -1.4016    1.2154   -0.3998 C   0  0  0  0  0  0  0  0  0  0  0  0
   -0.2017    1.5441    0.2407 C   0  0  0  0  0  0  0  0  0  0  0  0
    0.1123    3.2204    0.6640 Cl  0  0  0  0  0  0  0  0  0  0  0  0
    0.7391    0.5466    0.5417 C   0  0  0  0  0  0  0  0  0  0  0  0
    1.9325    0.9193    1.1843 O   0  0  0  0  0  0  0  0  0  0  0  0
    3.0142    0.0406    1.4954 C   0  0  0  0  0  0  0  0  0  0  0  0
    3.7238   -0.3975    0.2457 C   0  0  0  0  0  0  0  0  0  0  0  0
    4.3078    0.4853   -0.5685 C   0  0  0  0  0  0  0  0  0  0  0  0
    0.4547   -0.7891    0.1962 C   0  0  0  0  0  0  0  0  0  0  0  0
   -0.7444   -1.1142   -0.4434 C   0  0  0  0  0  0  0  0  0  0  0  0
   -5.4689    0.0907    0.8721 H   0  0  0  0  0  0  0  0  0  0  0  0
   -2.8493   -1.3521   -2.0780 H   0  0  0  0  0  0  0  0  0  0  0  0
   -3.3286    0.3700   -2.0547 H   0  0  0  0  0  0  0  0  0  0  0  0
   -2.1211    1.9950   -0.6189 H   0  0  0  0  0  0  0  0  0  0  0  0
    3.7338    0.5789    2.1477 H   0  0  0  0  0  0  0  0  0  0  0  0
    2.6445   -0.8398    2.0629 H   0  0  0  0  0  0  0  0  0  0  0  0
    3.7677   -1.4551    0.0039 H   0  0  0  0  0  0  0  0  0  0  0  0
    4.2819    1.5485   -0.3493 H   0  0  0  0  0  0  0  0  0  0  0  0
    4.8165    0.1441   -1.4642 H   0  0  0  0  0  0  0  0  0  0  0  0
    1.1491   -1.5861    0.4202 H   0  0  0  0  0  0  0  0  0  0  0  0
   -0.9482   -2.1481   -0.6934 H   0  0  0  0  0  0  0  0  0  0  0  0
  1  2  1  0
  2  3  2  0
  2  4  1  0
  4  5  1  0
  5  6  2  0
  6  7  1  0
  7  8  1  0
  7  9  2  0
  9 10  1  0
 10 11  1  0
 11 12  1  0
 12 13  2  3
  9 14  1  0
 14 15  2  0
 15  5  1  0
  1 16  1  0
  4 17  1  0
  4 18  1  0
  6 19  1  0
 11 20  1  0
 11 21  1  0
 12 22  1  0
 13 23  1  0
 13 24  1  0
 14 25  1  0
 15 26  1  0
M  END
$$$$
