
     RDKit          3D

 57 61  0  0  0  0  0  0  0  0999 V2000
    8.7052    0.7750    3.3919 F   0  0  0  0  0  0  0  0  0  0  0  0
    7.5859    0.6351    2.6398 C   0  0  0  0  0  0  0  0  0  0  0  0
    6.5316   -0.1610    3.0965 C   0  0  0  0  0  0  0  0  0  0  0  0
    5.3758   -0.3047    2.3228 C   0  0  0  0  0  0  0  0  0  0  0  0
    5.2706    0.3393    1.0787 C   0  0  0  0  0  0  0  0  0  0  0  0
    6.3284    1.1507    0.6344 C   0  0  0  0  0  0  0  0  0  0  0  0
    7.4826    1.2928    1.4108 C   0  0  0  0  0  0  0  0  0  0  0  0
    4.0726    0.2040    0.2953 N   0  0  0  0  0  0  0  0  0  0  0  0
    2.8089    0.3272    0.7654 C   0  0  0  0  0  0  0  0  0  0  0  0
    1.8861    0.1570   -0.2616 C   0  0  0  0  0  0  0  0  0  0  0  0
    0.3849    0.2027   -0.1003 C   0  0  0  0  0  0  0  0  0  0  0  0
   -0.2547    1.3201   -0.9544 C   0  0  0  0  0  0  0  0  0  0  0  0
   -1.7187    1.0117   -1.3112 C   0  0  0  0  0  0  0  0  0  0  0  0
   -2.3593    0.2372   -0.2294 N   0  0  0  0  0  0  0  0  0  0  0  0
   -3.8244    0.1904   -0.4299 C   0  0  0  0  0  0  0  0  0  0  0  0
   -4.5449   -0.3084    0.8290 C   0  0  0  0  0  0  0  0  0  0  0  0
   -5.9917   -0.1763    0.6719 N   0  0  0  0  0  0  0  0  0  0  0  0
   -6.9312   -1.2825    0.5280 C   0  0  0  0  0  0  0  0  0  0  0  0
   -8.3380   -0.6320    0.4768 C   0  0  0  0  0  0  0  0  0  0  0  0
   -8.1227    0.7996    0.6448 N   0  0  0  0  0  0  0  0  0  0  0  0
   -6.7371    1.0192    0.7581 C   0  0  0  0  0  0  0  0  0  0  0  0
   -6.2258    2.1570    0.9324 O   0  0  0  0  0  0  0  0  0  0  0  0
   -1.7796   -1.1292   -0.1366 C   0  0  0  0  0  0  0  0  0  0  0  0
   -0.2556   -1.1632   -0.3884 C   0  0  0  0  0  0  0  0  0  0  0  0
    2.6389   -0.0946   -1.4014 C   0  0  0  0  0  0  0  0  0  0  0  0
    3.9620   -0.0606   -1.0250 C   0  0  0  0  0  0  0  0  0  0  0  0
    4.9851   -0.3371   -1.9389 C   0  0  0  0  0  0  0  0  0  0  0  0
    4.6287   -0.6144   -3.2692 C   0  0  0  0  0  0  0  0  0  0  0  0
    3.2731   -0.6251   -3.6598 C   0  0  0  0  0  0  0  0  0  0  0  0
    2.8471   -0.9744   -5.3247 Cl  0  0  0  0  0  0  0  0  0  0  0  0
    2.2603   -0.3684   -2.7189 C   0  0  0  0  0  0  0  0  0  0  0  0
    6.6085   -0.6667    4.0504 H   0  0  0  0  0  0  0  0  0  0  0  0
    4.5672   -0.9265    2.6857 H   0  0  0  0  0  0  0  0  0  0  0  0
    6.2513    1.6871   -0.3026 H   0  0  0  0  0  0  0  0  0  0  0  0
    8.2938    1.9186    1.0616 H   0  0  0  0  0  0  0  0  0  0  0  0
    2.5633    0.5395    1.7986 H   0  0  0  0  0  0  0  0  0  0  0  0
    0.1676    0.4377    0.9670 H   0  0  0  0  0  0  0  0  0  0  0  0
   -0.2106    2.2715   -0.3798 H   0  0  0  0  0  0  0  0  0  0  0  0
    0.3064    1.4896   -1.8971 H   0  0  0  0  0  0  0  0  0  0  0  0
   -1.7626    0.4443   -2.2694 H   0  0  0  0  0  0  0  0  0  0  0  0
   -2.2406    1.9816   -1.4698 H   0  0  0  0  0  0  0  0  0  0  0  0
   -4.0892   -0.4535   -1.2991 H   0  0  0  0  0  0  0  0  0  0  0  0
   -4.2059    1.2125   -0.6470 H   0  0  0  0  0  0  0  0  0  0  0  0
   -4.2960   -1.3764    1.0044 H   0  0  0  0  0  0  0  0  0  0  0  0
   -4.2140    0.2752    1.7152 H   0  0  0  0  0  0  0  0  0  0  0  0
   -6.8490   -1.9638    1.4022 H   0  0  0  0  0  0  0  0  0  0  0  0
   -6.7185   -1.8406   -0.4091 H   0  0  0  0  0  0  0  0  0  0  0  0
   -8.8244   -0.8247   -0.5033 H   0  0  0  0  0  0  0  0  0  0  0  0
   -8.9800   -1.0152    1.2985 H   0  0  0  0  0  0  0  0  0  0  0  0
   -8.8648    1.5336    0.6701 H   0  0  0  0  0  0  0  0  0  0  0  0
   -1.9597   -1.5173    0.8888 H   0  0  0  0  0  0  0  0  0  0  0  0
   -2.2695   -1.8273   -0.8528 H   0  0  0  0  0  0  0  0  0  0  0  0
   -0.0752   -1.4527   -1.4445 H   0  0  0  0  0  0  0  0  0  0  0  0
    0.2091   -1.9435    0.2541 H   0  0  0  0  0  0  0  0  0  0  0  0
    6.0242   -0.3570   -1.6410 H   0  0  0  0  0  0  0  0  0  0  0  0
    5.4029   -0.8274   -3.9952 H   0  0  0  0  0  0  0  0  0  0  0  0
    1.2221   -0.3858   -3.0186 H   0  0  0  0  0  0  0  0  0  0  0  0
  1  2  1  0
  2  3  2  0
  3  4  1  0
  4  5  2  0
  5  6  1  0
  6  7  2  0
  5  8  1  0
  8  9  1  0
  9 10  2  0
 10 11  1  0
 11 12  1  0
 12 13  1  0
 13 14  1  0
 14 15  1  0
 15 16  1  0
 16 17  1  0
 17 18  1  0
 18 19  1  0
 19 20  1  0
 20 21  1  0
 21 22  2  0
 14 23  1  0
 23 24  1  0
 10 25  1  0
 25 26  2  0
 26 27  1  0
 27 28  2  0
 28 29  1  0
 29 30  1  0
 29 31  2  0
  7  2  1  0
 26  8  1  0
 24 11  1  0
 31 25  1  0
 21 17  1  0
  3 32  1  0
  4 33  1  0
  6 34  1  0
  7 35  1  0
  9 36  1  0
 11 37  1  0
 12 38  1  0
 12 39  1  0
 13 40  1  0
 13 41  1  0
 15 42  1  0
 15 43  1  0
 16 44  1  0
 16 45  1  0
 18 46  1  0
 18 47  1  0
 19 48  1  0
 19 49  1  0
 20 50  1  0
 23 51  1  0
 23 52  1  0
 24 53  1  0
 24 54  1  0
 27 55  1  0
 28 56  1  0
 31 57  1  0
M  END
$$$$
