
     RDKit          3D

 29 30  0  0  0  0  0  0  0  0999 V2000
   -2.1676    0.7759    2.1844 O   0  0  0  0  0  0  0  0  0  0  0  0
   -2.9116    0.9416    1.0083 C   0  0  0  0  0  0  0  0  0  0  0  0
   -2.1018    0.4851   -0.2101 C   0  0  1  0  0  0  0  0  0  0  0  0
   -0.8659    1.1554   -0.2537 O   0  0  0  0  0  0  0  0  0  0  0  0
    0.0340    0.3137   -0.9500 C   0  0  2  0  0  0  0  0  0  0  0  0
   -0.5277   -1.1189   -0.9950 C   0  0  2  0  0  0  0  0  0  0  0  0
   -0.7846   -1.5040   -2.3218 O   0  0  0  0  0  0  0  0  0  0  0  0
   -1.8081   -1.0131   -0.1927 C   0  0  2  0  0  0  0  0  0  0  0  0
   -2.8626   -1.7938   -0.7071 O   0  0  0  0  0  0  0  0  0  0  0  0
    1.3589    0.3302   -0.2954 N   0  0  0  0  0  0  0  0  0  0  0  0
    1.4364    0.2885    1.0707 C   0  0  0  0  0  0  0  0  0  0  0  0
    2.6712    0.2719    1.7127 C   0  0  0  0  0  0  0  0  0  0  0  0
    3.8253    0.2812    0.9372 C   0  0  0  0  0  0  0  0  0  0  0  0
    4.9569    0.2680    1.4912 O   0  0  0  0  0  0  0  0  0  0  0  0
    3.7288    0.2986   -0.4177 N   0  0  0  0  0  0  0  0  0  0  0  0
    2.5156    0.3132   -1.0370 C   0  0  0  0  0  0  0  0  0  0  0  0
    2.4710    0.3062   -2.2982 O   0  0  0  0  0  0  0  0  0  0  0  0
   -2.7518    1.0837    2.9251 H   0  0  0  0  0  0  0  0  0  0  0  0
   -3.1737    2.0161    0.8841 H   0  0  0  0  0  0  0  0  0  0  0  0
   -3.8549    0.3537    1.0687 H   0  0  0  0  0  0  0  0  0  0  0  0
   -2.6743    0.7563   -1.1265 H   0  0  0  0  0  0  0  0  0  0  0  0
    0.1113    0.7211   -1.9835 H   0  0  0  0  0  0  0  0  0  0  0  0
    0.1565   -1.8570   -0.5125 H   0  0  0  0  0  0  0  0  0  0  0  0
    0.0957   -1.7190   -2.7274 H   0  0  0  0  0  0  0  0  0  0  0  0
   -1.5968   -1.3484    0.8473 H   0  0  0  0  0  0  0  0  0  0  0  0
   -3.1466   -1.4094   -1.5769 H   0  0  0  0  0  0  0  0  0  0  0  0
    0.5388    0.2620    1.6760 H   0  0  0  0  0  0  0  0  0  0  0  0
    2.7264    0.2463    2.7941 H   0  0  0  0  0  0  0  0  0  0  0  0
    4.6013    0.2946   -0.9945 H   0  0  0  0  0  0  0  0  0  0  0  0
  1  2  1  0
  2  3  1  0
  3  4  1  0
  4  5  1  0
  5  6  1  0
  6  7  1  0
  6  8  1  0
  8  9  1  0
  5 10  1  0
 10 11  1  0
 11 12  2  0
 12 13  1  0
 13 14  2  0
 13 15  1  0
 15 16  1  0
 16 17  2  0
  8  3  1  0
 16 10  1  0
  1 18  1  0
  2 19  1  0
  2 20  1  0
  3 21  1  6
  5 22  1  6
  6 23  1  1
  7 24  1  0
  8 25  1  1
  9 26  1  0
 11 27  1  0
 12 28  1  0
 15 29  1  0
M  END
$$$$
