
     RDKit          3D

 33 34  0  0  0  0  0  0  0  0999 V2000
    3.6482   -0.2618    0.5571 C   0  0  1  0  0  0  0  0  0  0  0  0
    3.4696    0.9251    1.3987 N   0  0  0  0  0  0  0  0  0  0  0  0
    2.8948   -0.1383   -0.7846 C   0  0  0  0  0  0  0  0  0  0  0  0
    1.4022   -0.0740   -0.5841 C   0  0  0  0  0  0  0  0  0  0  0  0
    0.7352    1.1603   -0.5956 C   0  0  0  0  0  0  0  0  0  0  0  0
   -0.6447    1.2198   -0.3824 C   0  0  0  0  0  0  0  0  0  0  0  0
   -1.3831    0.0454   -0.1496 C   0  0  0  0  0  0  0  0  0  0  0  0
   -0.7090   -1.1889   -0.1325 C   0  0  0  0  0  0  0  0  0  0  0  0
    0.6712   -1.2469   -0.3444 C   0  0  0  0  0  0  0  0  0  0  0  0
   -2.8497    0.1079    0.0779 C   0  0  0  0  0  0  0  0  0  0  0  0
   -3.4091    1.1318    0.8662 C   0  0  0  0  0  0  0  0  0  0  0  0
   -4.7899    1.1875    1.0790 C   0  0  0  0  0  0  0  0  0  0  0  0
   -5.6266    0.2256    0.5088 C   0  0  0  0  0  0  0  0  0  0  0  0
   -5.0841   -0.7948   -0.2753 C   0  0  0  0  0  0  0  0  0  0  0  0
   -3.7039   -0.8561   -0.4908 C   0  0  0  0  0  0  0  0  0  0  0  0
    5.1122   -0.4841    0.3096 C   0  0  0  0  0  0  0  0  0  0  0  0
    5.6804   -1.7236    0.5875 O   0  0  0  0  0  0  0  0  0  0  0  0
    5.8248    0.4397   -0.1685 O   0  0  0  0  0  0  0  0  0  0  0  0
    3.2583   -1.1480    1.1067 H   0  0  0  0  0  0  0  0  0  0  0  0
    2.4830    0.9516    1.7443 H   0  0  0  0  0  0  0  0  0  0  0  0
    3.6282    1.7891    0.8299 H   0  0  0  0  0  0  0  0  0  0  0  0
    3.2481    0.7588   -1.3401 H   0  0  0  0  0  0  0  0  0  0  0  0
    3.1306   -1.0201   -1.4212 H   0  0  0  0  0  0  0  0  0  0  0  0
    1.2838    2.0778   -0.7688 H   0  0  0  0  0  0  0  0  0  0  0  0
   -1.1366    2.1838   -0.4150 H   0  0  0  0  0  0  0  0  0  0  0  0
   -1.2457   -2.1082    0.0651 H   0  0  0  0  0  0  0  0  0  0  0  0
    1.1723   -2.2067   -0.3165 H   0  0  0  0  0  0  0  0  0  0  0  0
   -2.7779    1.8780    1.3322 H   0  0  0  0  0  0  0  0  0  0  0  0
   -5.2111    1.9757    1.6897 H   0  0  0  0  0  0  0  0  0  0  0  0
   -6.6952    0.2709    0.6746 H   0  0  0  0  0  0  0  0  0  0  0  0
   -5.7339   -1.5376   -0.7197 H   0  0  0  0  0  0  0  0  0  0  0  0
   -3.3071   -1.6461   -1.1159 H   0  0  0  0  0  0  0  0  0  0  0  0
    6.6646   -1.8935    0.4183 H   0  0  0  0  0  0  0  0  0  0  0  0
  1  2  1  0
  1  3  1  0
  3  4  1  0
  4  5  2  0
  5  6  1  0
  6  7  2  0
  7  8  1  0
  8  9  2  0
  7 10  1  0
 10 11  2  0
 11 12  1  0
 12 13  2  0
 13 14  1  0
 14 15  2  0
  1 16  1  0
 16 17  1  0
 16 18  2  0
  9  4  1  0
 15 10  1  0
  1 19  1  1
  2 20  1  0
  2 21  1  0
  3 22  1  0
  3 23  1  0
  5 24  1  0
  6 25  1  0
  8 26  1  0
  9 27  1  0
 11 28  1  0
 12 29  1  0
 13 30  1  0
 14 31  1  0
 15 32  1  0
 17 33  1  0
M  END
$$$$
