
     RDKit          3D

 30 32  0  0  0  0  0  0  0  0999 V2000
    5.6859    0.1215   -0.8764 N   0  0  0  0  0  0  0  0  0  0  0  0
    4.3022    0.2331   -0.5523 C   0  0  0  0  0  0  0  0  0  0  0  0
    3.8615    1.2802    0.1973 N   0  0  0  0  0  0  0  0  0  0  0  0
    2.5480    1.4159    0.5244 C   0  0  0  0  0  0  0  0  0  0  0  0
    2.1307    2.5330    1.3135 N   0  0  0  0  0  0  0  0  0  0  0  0
    1.6301    0.4553    0.0784 C   0  0  0  0  0  0  0  0  0  0  0  0
    0.3045    0.5373    0.3626 N   0  0  0  0  0  0  0  0  0  0  0  0
   -0.5812   -0.3974   -0.0809 C   0  0  0  0  0  0  0  0  0  0  0  0
   -0.0965   -1.4942   -0.8348 C   0  0  0  0  0  0  0  0  0  0  0  0
   -0.9489   -2.5650   -1.2532 N   0  0  0  0  0  0  0  0  0  0  0  0
    1.2322   -1.5631   -1.1228 N   0  0  0  0  0  0  0  0  0  0  0  0
    2.1028   -0.6159   -0.6922 C   0  0  0  0  0  0  0  0  0  0  0  0
    3.4234   -0.7077   -0.9911 N   0  0  0  0  0  0  0  0  0  0  0  0
   -2.0129   -0.2102    0.2333 C   0  0  0  0  0  0  0  0  0  0  0  0
   -2.9822   -0.2249   -0.7853 C   0  0  0  0  0  0  0  0  0  0  0  0
   -4.3294   -0.0089   -0.4793 C   0  0  0  0  0  0  0  0  0  0  0  0
   -4.7170    0.2387    0.8403 C   0  0  0  0  0  0  0  0  0  0  0  0
   -3.7570    0.2776    1.8551 C   0  0  0  0  0  0  0  0  0  0  0  0
   -2.4087    0.0621    1.5533 C   0  0  0  0  0  0  0  0  0  0  0  0
    6.3665    0.8396   -0.5427 H   0  0  0  0  0  0  0  0  0  0  0  0
    6.0315   -0.6792   -1.4506 H   0  0  0  0  0  0  0  0  0  0  0  0
    1.1314    2.6681    1.5842 H   0  0  0  0  0  0  0  0  0  0  0  0
    2.8319    3.2372    1.6341 H   0  0  0  0  0  0  0  0  0  0  0  0
   -1.9244   -2.6691   -0.8986 H   0  0  0  0  0  0  0  0  0  0  0  0
   -0.5659   -3.3271   -1.8554 H   0  0  0  0  0  0  0  0  0  0  0  0
   -2.6941   -0.3938   -1.8156 H   0  0  0  0  0  0  0  0  0  0  0  0
   -5.0721   -0.0268   -1.2664 H   0  0  0  0  0  0  0  0  0  0  0  0
   -5.7600    0.4074    1.0753 H   0  0  0  0  0  0  0  0  0  0  0  0
   -4.0573    0.4775    2.8755 H   0  0  0  0  0  0  0  0  0  0  0  0
   -1.6749    0.0986    2.3493 H   0  0  0  0  0  0  0  0  0  0  0  0
  1  2  1  0
  2  3  2  0
  3  4  1  0
  4  5  1  0
  4  6  2  0
  6  7  1  0
  7  8  2  0
  8  9  1  0
  9 10  1  0
  9 11  2  0
 11 12  1  0
 12 13  2  0
  8 14  1  0
 14 15  2  0
 15 16  1  0
 16 17  2  0
 17 18  1  0
 18 19  2  0
 13  2  1  0
 19 14  1  0
 12  6  1  0
  1 20  1  0
  1 21  1  0
  5 22  1  0
  5 23  1  0
 10 24  1  0
 10 25  1  0
 15 26  1  0
 16 27  1  0
 17 28  1  0
 18 29  1  0
 19 30  1  0
M  END
$$$$
