
     RDKit          3D

 88 91  0  0  0  0  0  0  0  0999 V2000
   -4.7679   -0.3490   -1.0994 C   0  0  2  0  0  0  0  0  0  0  0  0
   -5.5958   -0.1402   -2.3618 C   0  0  0  0  0  0  0  0  0  0  0  0
   -6.9544   -0.7815   -2.0228 C   0  0  0  0  0  0  0  0  0  0  0  0
   -6.9256   -1.1102   -0.5144 C   0  0  2  0  0  0  0  0  0  0  0  0
   -8.1705   -0.8451    0.0794 O   0  0  0  0  0  0  0  0  0  0  0  0
   -5.7868   -0.2314    0.0453 C   0  0  2  0  0  0  0  0  0  0  0  0
   -6.3227    1.2182    0.2904 C   0  0  0  0  0  0  0  0  0  0  0  0
   -5.1227   -0.7684    1.3310 C   0  0  0  0  0  0  0  0  0  0  0  0
   -3.8048   -0.0137    1.6472 C   0  0  0  0  0  0  0  0  0  0  0  0
   -2.8094    0.0127    0.4448 C   0  0  2  0  0  0  0  0  0  0  0  0
   -1.5321    0.8111    0.7206 C   0  0  0  0  0  0  0  0  0  0  0  0
   -0.9033    0.7424    1.9836 C   0  0  0  0  0  0  0  0  0  0  0  0
    0.3015    1.4044    2.2258 C   0  0  0  0  0  0  0  0  0  0  0  0
    0.9241    2.1273    1.2078 C   0  0  0  0  0  0  0  0  0  0  0  0
    2.1209    2.8011    1.4419 O   0  0  0  0  0  0  0  0  0  0  0  0
    0.3477    2.1695   -0.0602 C   0  0  0  0  0  0  0  0  0  0  0  0
   -0.8559    1.4959   -0.3288 C   0  0  0  0  0  0  0  0  0  0  0  0
   -1.3976    1.5816   -1.7395 C   0  0  0  0  0  0  0  0  0  0  0  0
   -2.5421    0.5974   -2.0555 C   0  0  1  0  0  0  0  0  0  0  0  0
   -2.0519   -0.7365   -2.6970 C   0  0  0  0  0  0  0  0  0  0  0  0
   -1.0842   -1.6033   -1.8606 C   0  0  0  0  0  0  0  0  0  0  0  0
    0.0371   -2.2432   -2.7013 C   0  0  0  0  0  0  0  0  0  0  0  0
    1.1501   -1.2576   -3.1115 C   0  0  0  0  0  0  0  0  0  0  0  0
    2.0143   -0.8089   -1.9222 C   0  0  0  0  0  0  0  0  0  0  0  0
    3.1547    0.1155   -2.3755 C   0  0  0  0  0  0  0  0  0  0  0  0
    3.9065    0.7444   -1.1833 C   0  0  0  0  0  0  0  0  0  0  0  0
    5.2007    0.0112   -0.7985 C   0  0  0  0  0  0  0  0  0  0  0  0
    4.9581   -1.4196   -0.2974 C   0  0  0  0  0  0  0  0  0  0  0  0
    6.3924   -2.1017    0.5874 S   0  0  0  0  0  4  0  0  0  0  0  0
    7.5685   -1.1837    0.2753 O   0  0  0  0  0  0  0  0  0  0  0  0
    6.0906   -1.8795    2.3627 C   0  0  0  0  0  0  0  0  0  0  0  0
    5.7366   -0.4314    2.7194 C   0  0  0  0  0  0  0  0  0  0  0  0
    5.6125   -0.2522    4.2409 C   0  0  0  0  0  0  0  0  0  0  0  0
    4.9317    1.0677    4.6581 C   0  0  0  0  0  0  0  0  0  0  0  0
    4.8646    1.0933    6.0411 F   0  0  0  0  0  0  0  0  0  0  0  0
    3.6363    1.0934    4.1684 F   0  0  0  0  0  0  0  0  0  0  0  0
    5.6780    2.3261    4.1848 C   0  0  0  0  0  0  0  0  0  0  0  0
    5.5523    2.4849    2.8161 F   0  0  0  0  0  0  0  0  0  0  0  0
    5.1355    3.4397    4.8009 F   0  0  0  0  0  0  0  0  0  0  0  0
    7.0195    2.2471    4.5149 F   0  0  0  0  0  0  0  0  0  0  0  0
   -3.5135    0.5143   -0.8505 C   0  0  1  0  0  0  0  0  0  0  0  0
   -4.4143   -1.4085   -1.1451 H   0  0  0  0  0  0  0  0  0  0  0  0
   -5.1350   -0.6353   -3.2425 H   0  0  0  0  0  0  0  0  0  0  0  0
   -5.7149    0.9436   -2.5786 H   0  0  0  0  0  0  0  0  0  0  0  0
   -7.7751   -0.0696   -2.2612 H   0  0  0  0  0  0  0  0  0  0  0  0
   -7.1071   -1.7108   -2.6140 H   0  0  0  0  0  0  0  0  0  0  0  0
   -6.6753   -2.1917   -0.3944 H   0  0  0  0  0  0  0  0  0  0  0  0
   -8.1353   -1.2376    0.9903 H   0  0  0  0  0  0  0  0  0  0  0  0
   -6.8097    1.6390   -0.6129 H   0  0  0  0  0  0  0  0  0  0  0  0
   -5.5389    1.9298    0.6082 H   0  0  0  0  0  0  0  0  0  0  0  0
   -7.0791    1.2112    1.1037 H   0  0  0  0  0  0  0  0  0  0  0  0
   -4.8930   -1.8511    1.2167 H   0  0  0  0  0  0  0  0  0  0  0  0
   -5.8200   -0.6702    2.1912 H   0  0  0  0  0  0  0  0  0  0  0  0
   -4.0194    1.0213    1.9858 H   0  0  0  0  0  0  0  0  0  0  0  0
   -3.3490   -0.5464    2.5061 H   0  0  0  0  0  0  0  0  0  0  0  0
   -2.5061   -1.0425    0.3003 H   0  0  0  0  0  0  0  0  0  0  0  0
   -1.3239    0.1678    2.7939 H   0  0  0  0  0  0  0  0  0  0  0  0
    0.7556    1.3465    3.2070 H   0  0  0  0  0  0  0  0  0  0  0  0
    2.5653    2.7927    2.3521 H   0  0  0  0  0  0  0  0  0  0  0  0
    0.8509    2.7182   -0.8478 H   0  0  0  0  0  0  0  0  0  0  0  0
   -1.7757    2.6182   -1.8810 H   0  0  0  0  0  0  0  0  0  0  0  0
   -0.5706    1.4441   -2.4697 H   0  0  0  0  0  0  0  0  0  0  0  0
   -3.1238    1.0867   -2.8700 H   0  0  0  0  0  0  0  0  0  0  0  0
   -1.5778   -0.4720   -3.6664 H   0  0  0  0  0  0  0  0  0  0  0  0
   -2.9232   -1.3610   -2.9804 H   0  0  0  0  0  0  0  0  0  0  0  0
   -1.6714   -2.4266   -1.3986 H   0  0  0  0  0  0  0  0  0  0  0  0
   -0.6346   -1.0434   -1.0283 H   0  0  0  0  0  0  0  0  0  0  0  0
   -0.4053   -2.6933   -3.6168 H   0  0  0  0  0  0  0  0  0  0  0  0
    0.4906   -3.0766   -2.1214 H   0  0  0  0  0  0  0  0  0  0  0  0
    1.8047   -1.7693   -3.8504 H   0  0  0  0  0  0  0  0  0  0  0  0
    0.7144   -0.3704   -3.6162 H   0  0  0  0  0  0  0  0  0  0  0  0
    1.3896   -0.2560   -1.1947 H   0  0  0  0  0  0  0  0  0  0  0  0
    2.4273   -1.7046   -1.4161 H   0  0  0  0  0  0  0  0  0  0  0  0
    2.7140    0.9414   -2.9768 H   0  0  0  0  0  0  0  0  0  0  0  0
    3.8556   -0.4377   -3.0382 H   0  0  0  0  0  0  0  0  0  0  0  0
    3.2487    0.8318   -0.2915 H   0  0  0  0  0  0  0  0  0  0  0  0
    4.1887    1.7831   -1.4632 H   0  0  0  0  0  0  0  0  0  0  0  0
    5.6895    0.6067    0.0011 H   0  0  0  0  0  0  0  0  0  0  0  0
    5.8926   -0.0120   -1.6685 H   0  0  0  0  0  0  0  0  0  0  0  0
    4.7547   -2.0794   -1.1663 H   0  0  0  0  0  0  0  0  0  0  0  0
    4.0763   -1.4540    0.3765 H   0  0  0  0  0  0  0  0  0  0  0  0
    5.2589   -2.5521    2.6626 H   0  0  0  0  0  0  0  0  0  0  0  0
    7.0062   -2.1885    2.9109 H   0  0  0  0  0  0  0  0  0  0  0  0
    4.7745   -0.1597    2.2369 H   0  0  0  0  0  0  0  0  0  0  0  0
    6.5359    0.2387    2.3382 H   0  0  0  0  0  0  0  0  0  0  0  0
    5.0073   -1.0876    4.6574 H   0  0  0  0  0  0  0  0  0  0  0  0
    6.6225   -0.3160    4.7020 H   0  0  0  0  0  0  0  0  0  0  0  0
   -3.8387    1.5610   -0.6768 H   0  0  0  0  0  0  0  0  0  0  0  0
  1  2  1  0
  2  3  1  0
  3  4  1  0
  4  5  1  0
  4  6  1  0
  6  7  1  1
  6  8  1  0
  8  9  1  0
  9 10  1  0
 10 11  1  0
 11 12  2  0
 12 13  1  0
 13 14  2  0
 14 15  1  0
 14 16  1  0
 16 17  2  0
 17 18  1  0
 18 19  1  0
 19 20  1  0
 20 21  1  0
 21 22  1  0
 22 23  1  0
 23 24  1  0
 24 25  1  0
 25 26  1  0
 26 27  1  0
 27 28  1  0
 28 29  1  0
 29 30  2  0
 29 31  1  0
 31 32  1  0
 32 33  1  0
 33 34  1  0
 34 35  1  0
 34 36  1  0
 34 37  1  0
 37 38  1  0
 37 39  1  0
 37 40  1  0
 19 41  1  0
  6  1  1  0
 41 10  1  0
 41  1  1  0
 17 11  1  0
  1 42  1  6
  2 43  1  0
  2 44  1  0
  3 45  1  0
  3 46  1  0
  4 47  1  6
  5 48  1  0
  7 49  1  0
  7 50  1  0
  7 51  1  0
  8 52  1  0
  8 53  1  0
  9 54  1  0
  9 55  1  0
 10 56  1  6
 12 57  1  0
 13 58  1  0
 15 59  1  0
 16 60  1  0
 18 61  1  0
 18 62  1  0
 19 63  1  6
 20 64  1  0
 20 65  1  0
 21 66  1  0
 21 67  1  0
 22 68  1  0
 22 69  1  0
 23 70  1  0
 23 71  1  0
 24 72  1  0
 24 73  1  0
 25 74  1  0
 25 75  1  0
 26 76  1  0
 26 77  1  0
 27 78  1  0
 27 79  1  0
 28 80  1  0
 28 81  1  0
 31 82  1  0
 31 83  1  0
 32 84  1  0
 32 85  1  0
 33 86  1  0
 33 87  1  0
 41 88  1  1
M  END
$$$$
