
     RDKit          3D

 55 57  0  0  0  0  0  0  0  0999 V2000
   -1.9529   -0.6982    2.2347 C   0  0  2  0  0  0  0  0  0  0  0  0
   -3.0837   -1.3509    1.4075 C   0  0  0  0  0  0  0  0  0  0  0  0
   -3.4507   -2.7532    1.8940 C   0  0  0  0  0  0  0  0  0  0  0  0
   -2.3260   -0.5244    3.7221 C   0  0  0  0  0  0  0  0  0  0  0  0
   -3.5636    0.1223    3.8689 O   0  0  0  0  0  0  0  0  0  0  0  0
   -1.5935    0.5981    1.6466 N   0  0  0  0  0  0  0  0  0  0  0  0
   -0.8179    0.7199    0.4468 C   0  0  0  0  0  0  0  0  0  0  0  0
   -0.5460    1.9617   -0.0519 N   0  0  0  0  0  0  0  0  0  0  0  0
    0.1889    2.0498   -1.1846 C   0  0  0  0  0  0  0  0  0  0  0  0
    0.6641    0.9607   -1.8381 C   0  0  0  0  0  0  0  0  0  0  0  0
    1.3650    1.3478   -2.9220 N   0  0  0  0  0  0  0  0  0  0  0  0
    1.2814    2.7045   -2.8809 C   0  0  0  0  0  0  0  0  0  0  0  0
    0.5640    3.1654   -1.8238 N   0  0  0  0  0  0  0  0  0  0  0  0
    0.2753    4.5571   -1.4597 C   0  0  0  0  0  0  0  0  0  0  0  0
    1.5749    5.3096   -1.1623 C   0  0  0  0  0  0  0  0  0  0  0  0
   -0.5191    5.2452   -2.5730 C   0  0  0  0  0  0  0  0  0  0  0  0
    0.4001   -0.3251   -1.3445 C   0  0  0  0  0  0  0  0  0  0  0  0
   -0.3446   -0.3968   -0.1969 N   0  0  0  0  0  0  0  0  0  0  0  0
    0.8742   -1.5419   -1.9770 N   0  0  0  0  0  0  0  0  0  0  0  0
    1.5827   -1.5146   -3.2628 C   0  0  0  0  0  0  0  0  0  0  0  0
    0.6213   -2.8388   -1.3264 C   0  0  0  0  0  0  0  0  0  0  0  0
    1.4463   -2.9778   -0.0726 C   0  0  0  0  0  0  0  0  0  0  0  0
    0.8356   -3.3227    1.1443 C   0  0  0  0  0  0  0  0  0  0  0  0
    1.6010   -3.4497    2.3072 C   0  0  0  0  0  0  0  0  0  0  0  0
    2.9831   -3.2488    2.2610 C   0  0  0  0  0  0  0  0  0  0  0  0
    3.6022   -2.9260    1.0505 C   0  0  0  0  0  0  0  0  0  0  0  0
    2.8393   -2.7959   -0.1142 C   0  0  0  0  0  0  0  0  0  0  0  0
   -1.0579   -1.3567    2.2038 H   0  0  0  0  0  0  0  0  0  0  0  0
   -3.9903   -0.7080    1.4237 H   0  0  0  0  0  0  0  0  0  0  0  0
   -2.7586   -1.4347    0.3486 H   0  0  0  0  0  0  0  0  0  0  0  0
   -4.1506   -3.2233    1.1714 H   0  0  0  0  0  0  0  0  0  0  0  0
   -2.5452   -3.3898    1.9734 H   0  0  0  0  0  0  0  0  0  0  0  0
   -3.9568   -2.7056    2.8805 H   0  0  0  0  0  0  0  0  0  0  0  0
   -2.3863   -1.5196    4.2101 H   0  0  0  0  0  0  0  0  0  0  0  0
   -1.5195    0.0352    4.2508 H   0  0  0  0  0  0  0  0  0  0  0  0
   -3.3800    1.0962    3.9147 H   0  0  0  0  0  0  0  0  0  0  0  0
   -1.8788    1.4818    2.1263 H   0  0  0  0  0  0  0  0  0  0  0  0
    1.7446    3.3467   -3.6185 H   0  0  0  0  0  0  0  0  0  0  0  0
   -0.3470    4.5774   -0.5376 H   0  0  0  0  0  0  0  0  0  0  0  0
    2.1338    4.7900   -0.3551 H   0  0  0  0  0  0  0  0  0  0  0  0
    2.2174    5.3606   -2.0671 H   0  0  0  0  0  0  0  0  0  0  0  0
    1.3494    6.3432   -0.8236 H   0  0  0  0  0  0  0  0  0  0  0  0
   -1.4528    4.6781   -2.7741 H   0  0  0  0  0  0  0  0  0  0  0  0
   -0.7943    6.2764   -2.2648 H   0  0  0  0  0  0  0  0  0  0  0  0
    0.0768    5.2978   -3.5090 H   0  0  0  0  0  0  0  0  0  0  0  0
    2.5377   -0.9595   -3.1546 H   0  0  0  0  0  0  0  0  0  0  0  0
    0.9451   -1.0355   -4.0351 H   0  0  0  0  0  0  0  0  0  0  0  0
    1.8334   -2.5355   -3.6191 H   0  0  0  0  0  0  0  0  0  0  0  0
    0.8713   -3.6870   -1.9987 H   0  0  0  0  0  0  0  0  0  0  0  0
   -0.4651   -2.9305   -1.1059 H   0  0  0  0  0  0  0  0  0  0  0  0
   -0.2315   -3.4922    1.1935 H   0  0  0  0  0  0  0  0  0  0  0  0
    1.1227   -3.7068    3.2435 H   0  0  0  0  0  0  0  0  0  0  0  0
    3.5747   -3.3486    3.1618 H   0  0  0  0  0  0  0  0  0  0  0  0
    4.6737   -2.7777    1.0142 H   0  0  0  0  0  0  0  0  0  0  0  0
    3.3332   -2.5497   -1.0457 H   0  0  0  0  0  0  0  0  0  0  0  0
  1  2  1  0
  2  3  1  0
  1  4  1  0
  4  5  1  0
  1  6  1  0
  6  7  1  0
  7  8  2  0
  8  9  1  0
  9 10  2  0
 10 11  1  0
 11 12  2  0
 12 13  1  0
 13 14  1  0
 14 15  1  0
 14 16  1  0
 10 17  1  0
 17 18  2  0
 17 19  1  0
 19 20  1  0
 19 21  1  0
 21 22  1  0
 22 23  2  0
 23 24  1  0
 24 25  2  0
 25 26  1  0
 26 27  2  0
 18  7  1  0
 27 22  1  0
 13  9  1  0
  1 28  1  1
  2 29  1  0
  2 30  1  0
  3 31  1  0
  3 32  1  0
  3 33  1  0
  4 34  1  0
  4 35  1  0
  5 36  1  0
  6 37  1  0
 12 38  1  0
 14 39  1  0
 15 40  1  0
 15 41  1  0
 15 42  1  0
 16 43  1  0
 16 44  1  0
 16 45  1  0
 20 46  1  0
 20 47  1  0
 20 48  1  0
 21 49  1  0
 21 50  1  0
 23 51  1  0
 24 52  1  0
 25 53  1  0
 26 54  1  0
 27 55  1  0
M  END
$$$$
