
     RDKit          3D

 77 81  0  0  0  0  0  0  0  0999 V2000
    9.2591   -1.6984    3.8154 C   0  0  0  0  0  0  0  0  0  0  0  0
    9.3836   -0.8794    2.6572 O   0  0  0  0  0  0  0  0  0  0  0  0
    8.3031   -0.3049    1.9689 C   0  0  0  0  0  0  0  0  0  0  0  0
    6.9704   -0.4956    2.3815 C   0  0  0  0  0  0  0  0  0  0  0  0
    5.9193    0.0899    1.6721 C   0  0  0  0  0  0  0  0  0  0  0  0
    6.1763    0.8672    0.5319 C   0  0  0  0  0  0  0  0  0  0  0  0
    7.5049    1.0703    0.1286 C   0  0  0  0  0  0  0  0  0  0  0  0
    8.5625    0.4870    0.8352 C   0  0  0  0  0  0  0  0  0  0  0  0
    9.8676    0.7080    0.3953 O   0  0  0  0  0  0  0  0  0  0  0  0
    5.0449    1.5275   -0.2177 C   0  0  2  0  0  0  0  0  0  0  0  0
    4.5782    2.7957    0.5108 C   0  0  0  0  0  0  0  0  0  0  0  0
    3.3555    3.3319   -0.1719 C   0  0  0  0  0  0  0  0  0  0  0  0
    3.2825    4.5619   -0.4318 O   0  0  0  0  0  0  0  0  0  0  0  0
    2.2912    2.3821   -0.5806 C   0  0  0  0  0  0  0  0  0  0  0  0
    2.6561    1.0232   -0.6838 C   0  0  0  0  0  0  0  0  0  0  0  0
    3.9593    0.6092   -0.3748 O   0  0  0  0  0  0  0  0  0  0  0  0
    1.7222    0.0670   -1.0885 C   0  0  0  0  0  0  0  0  0  0  0  0
    0.4104    0.4480   -1.4148 C   0  0  0  0  0  0  0  0  0  0  0  0
   -0.5654   -0.4657   -1.8440 O   0  0  0  0  0  0  0  0  0  0  0  0
   -0.4521   -1.8914   -1.8363 C   0  0  2  0  0  0  0  0  0  0  0  0
   -1.4629   -2.4760   -2.6467 O   0  0  0  0  0  0  0  0  0  0  0  0
   -2.7836   -2.3401   -2.1294 C   0  0  2  0  0  0  0  0  0  0  0  0
   -3.3713   -0.9291   -2.3596 C   0  0  0  0  0  0  0  0  0  0  0  0
   -4.7889   -0.9755   -2.3084 O   0  0  0  0  0  0  0  0  0  0  0  0
   -5.3198   -0.2847   -1.1888 C   0  0  2  0  0  0  0  0  0  0  0  0
   -6.4930   -0.9657   -0.7808 O   0  0  0  0  0  0  0  0  0  0  0  0
   -7.0056   -0.4745    0.4557 C   0  0  1  0  0  0  0  0  0  0  0  0
   -6.4040   -1.2480    1.6345 C   0  0  0  0  0  0  0  0  0  0  0  0
   -6.8619    1.0636    0.6335 C   0  0  2  0  0  0  0  0  0  0  0  0
   -7.9404    1.5499    1.3922 O   0  0  0  0  0  0  0  0  0  0  0  0
   -6.8411    1.7272   -0.7510 C   0  0  1  0  0  0  0  0  0  0  0  0
   -6.7477    3.1223   -0.6126 O   0  0  0  0  0  0  0  0  0  0  0  0
   -5.6630    1.1740   -1.5919 C   0  0  1  0  0  0  0  0  0  0  0  0
   -4.5285    1.9866   -1.4159 O   0  0  0  0  0  0  0  0  0  0  0  0
   -2.9297   -2.8712   -0.6811 C   0  0  1  0  0  0  0  0  0  0  0  0
   -2.8593   -4.2754   -0.7086 O   0  0  0  0  0  0  0  0  0  0  0  0
   -1.8369   -2.3156    0.2487 C   0  0  2  0  0  0  0  0  0  0  0  0
   -2.1024   -0.9688    0.5476 O   0  0  0  0  0  0  0  0  0  0  0  0
   -0.4522   -2.4619   -0.3996 C   0  0  1  0  0  0  0  0  0  0  0  0
   -0.0907   -3.8194   -0.4272 O   0  0  0  0  0  0  0  0  0  0  0  0
    0.0460    1.7927   -1.3126 C   0  0  0  0  0  0  0  0  0  0  0  0
    0.9554    2.7603   -0.8707 C   0  0  0  0  0  0  0  0  0  0  0  0
    0.4770    4.0620   -0.7041 O   0  0  0  0  0  0  0  0  0  0  0  0
   10.2697   -2.0139    4.1463 H   0  0  0  0  0  0  0  0  0  0  0  0
    8.7785   -1.1269    4.6374 H   0  0  0  0  0  0  0  0  0  0  0  0
    8.6631   -2.6052    3.5797 H   0  0  0  0  0  0  0  0  0  0  0  0
    6.7352   -1.0923    3.2521 H   0  0  0  0  0  0  0  0  0  0  0  0
    4.9028   -0.0617    2.0142 H   0  0  0  0  0  0  0  0  0  0  0  0
    7.7232    1.6843   -0.7369 H   0  0  0  0  0  0  0  0  0  0  0  0
   10.6713    0.3120    0.8678 H   0  0  0  0  0  0  0  0  0  0  0  0
    5.3903    1.8179   -1.2357 H   0  0  0  0  0  0  0  0  0  0  0  0
    5.3910    3.5550    0.5025 H   0  0  0  0  0  0  0  0  0  0  0  0
    4.3198    2.5623    1.5665 H   0  0  0  0  0  0  0  0  0  0  0  0
    2.0398   -0.9635   -1.1587 H   0  0  0  0  0  0  0  0  0  0  0  0
    0.5134   -2.1603   -2.3144 H   0  0  0  0  0  0  0  0  0  0  0  0
   -3.4134   -3.0091   -2.7577 H   0  0  0  0  0  0  0  0  0  0  0  0
   -3.0905   -0.6070   -3.3848 H   0  0  0  0  0  0  0  0  0  0  0  0
   -2.9216   -0.1760   -1.6806 H   0  0  0  0  0  0  0  0  0  0  0  0
   -4.6037   -0.2747   -0.3316 H   0  0  0  0  0  0  0  0  0  0  0  0
   -8.0937   -0.7068    0.4481 H   0  0  0  0  0  0  0  0  0  0  0  0
   -6.9058   -0.9505    2.5797 H   0  0  0  0  0  0  0  0  0  0  0  0
   -5.3163   -1.0499    1.7320 H   0  0  0  0  0  0  0  0  0  0  0  0
   -6.5535   -2.3382    1.4838 H   0  0  0  0  0  0  0  0  0  0  0  0
   -5.8994    1.2923    1.1527 H   0  0  0  0  0  0  0  0  0  0  0  0
   -7.6531    2.4165    1.7823 H   0  0  0  0  0  0  0  0  0  0  0  0
   -7.8007    1.4740   -1.2627 H   0  0  0  0  0  0  0  0  0  0  0  0
   -6.9701    3.5110   -1.4989 H   0  0  0  0  0  0  0  0  0  0  0  0
   -5.9853    1.1960   -2.6609 H   0  0  0  0  0  0  0  0  0  0  0  0
   -4.0097    1.9506   -2.2615 H   0  0  0  0  0  0  0  0  0  0  0  0
   -3.9281   -2.5771   -0.2840 H   0  0  0  0  0  0  0  0  0  0  0  0
   -3.2531   -4.6034    0.1421 H   0  0  0  0  0  0  0  0  0  0  0  0
   -1.8543   -2.9000    1.1991 H   0  0  0  0  0  0  0  0  0  0  0  0
   -1.5479   -0.7318    1.3363 H   0  0  0  0  0  0  0  0  0  0  0  0
    0.2812   -1.9087    0.2300 H   0  0  0  0  0  0  0  0  0  0  0  0
    0.8913   -3.8534   -0.5707 H   0  0  0  0  0  0  0  0  0  0  0  0
   -0.9709    2.0847   -1.5457 H   0  0  0  0  0  0  0  0  0  0  0  0
    0.9751    4.7876   -0.2099 H   0  0  0  0  0  0  0  0  0  0  0  0
  1  2  1  0
  2  3  1  0
  3  4  2  0
  4  5  1  0
  5  6  2  0
  6  7  1  0
  7  8  2  0
  8  9  1  0
  6 10  1  0
 10 11  1  0
 11 12  1  0
 12 13  2  0
 12 14  1  0
 14 15  2  0
 15 16  1  0
 15 17  1  0
 17 18  2  0
 18 19  1  0
 19 20  1  0
 20 21  1  0
 21 22  1  0
 22 23  1  0
 23 24  1  0
 24 25  1  0
 25 26  1  0
 26 27  1  0
 27 28  1  0
 27 29  1  0
 29 30  1  0
 29 31  1  0
 31 32  1  0
 31 33  1  0
 33 34  1  0
 22 35  1  0
 35 36  1  0
 35 37  1  0
 37 38  1  0
 37 39  1  0
 39 40  1  0
 18 41  1  0
 41 42  2  0
 42 43  1  0
  8  3  1  0
 16 10  1  0
 39 20  1  0
 42 14  1  0
 33 25  1  0
  1 44  1  0
  1 45  1  0
  1 46  1  0
  4 47  1  0
  5 48  1  0
  7 49  1  0
  9 50  1  0
 10 51  1  6
 11 52  1  0
 11 53  1  0
 17 54  1  0
 20 55  1  6
 22 56  1  6
 23 57  1  0
 23 58  1  0
 25 59  1  1
 27 60  1  6
 28 61  1  0
 28 62  1  0
 28 63  1  0
 29 64  1  1
 30 65  1  0
 31 66  1  6
 32 67  1  0
 33 68  1  6
 34 69  1  0
 35 70  1  1
 36 71  1  0
 37 72  1  1
 38 73  1  0
 39 74  1  1
 40 75  1  0
 41 76  1  0
 43 77  1  0
M  END
$$$$
