
     RDKit          3D

 58 59  0  0  0  0  0  0  0  0999 V2000
   -2.4091   -0.3765   -0.5180 C   0  0  2  0  0  0  0  0  0  0  0  0
   -3.7206   -0.5826    0.2633 C   0  0  0  0  0  0  0  0  0  0  0  0
   -4.9679   -0.6944   -0.6359 C   0  0  0  0  0  0  0  0  0  0  0  0
   -5.2447    0.5301   -1.5269 C   0  0  0  0  0  0  0  0  0  0  0  0
   -5.4750    1.8167   -0.7212 C   0  0  0  0  0  0  0  0  0  0  0  0
   -5.9173    2.9614   -1.6282 C   0  0  0  0  0  0  0  0  0  0  0  0
   -2.2345   -1.4237   -1.4465 O   0  0  0  0  0  0  0  0  0  0  0  0
   -1.3464   -1.0039   -2.3305 O   0  0  0  0  0  0  0  0  0  0  0  0
   -1.2340   -0.3153    0.4295 C   0  0  0  0  0  0  0  0  0  0  0  0
   -0.8088   -1.3896    1.1121 C   0  0  0  0  0  0  0  0  0  0  0  0
    0.3991   -1.3157    2.0206 C   0  0  1  0  0  0  0  0  0  0  0  0
    0.5652   -2.5980    2.8584 C   0  0  1  0  0  0  0  0  0  0  0  0
    1.2740   -3.5409    1.9480 C   0  0  0  0  0  0  0  0  0  0  0  0
    2.3996   -2.5777    1.8367 C   0  0  2  0  0  0  0  0  0  0  0  0
    2.7127   -2.3122    3.1872 O   0  0  0  0  0  0  0  0  0  0  0  0
    1.5397   -2.3269    3.8398 O   0  0  0  0  0  0  0  0  0  0  0  0
    1.7307   -1.3254    1.2363 C   0  0  2  0  0  0  0  0  0  0  0  0
    2.5877   -0.0564    1.4371 C   0  0  0  0  0  0  0  0  0  0  0  0
    1.9884    1.1388    0.7423 C   0  0  0  0  0  0  0  0  0  0  0  0
    2.0623    1.3796   -0.5802 C   0  0  0  0  0  0  0  0  0  0  0  0
    2.8099    0.5280   -1.5793 C   0  0  0  0  0  0  0  0  0  0  0  0
    4.0302    1.2690   -2.1392 C   0  0  0  0  0  0  0  0  0  0  0  0
    5.1360    1.4327   -1.0892 C   0  0  0  0  0  0  0  0  0  0  0  0
    6.3239    2.1194   -1.6844 C   0  0  0  0  0  0  0  0  0  0  0  0
    7.3175    1.3703   -2.3067 O   0  0  0  0  0  0  0  0  0  0  0  0
    6.4057    3.3766   -1.6580 O   0  0  0  0  0  0  0  0  0  0  0  0
   -2.4723    0.6073   -1.0378 H   0  0  0  0  0  0  0  0  0  0  0  0
   -3.8563    0.2436    0.9937 H   0  0  0  0  0  0  0  0  0  0  0  0
   -3.6514   -1.5219    0.8542 H   0  0  0  0  0  0  0  0  0  0  0  0
   -5.8534   -0.8708    0.0129 H   0  0  0  0  0  0  0  0  0  0  0  0
   -4.8662   -1.5893   -1.2874 H   0  0  0  0  0  0  0  0  0  0  0  0
   -6.1582    0.3115   -2.1223 H   0  0  0  0  0  0  0  0  0  0  0  0
   -4.4154    0.6758   -2.2511 H   0  0  0  0  0  0  0  0  0  0  0  0
   -6.2580    1.6447    0.0490 H   0  0  0  0  0  0  0  0  0  0  0  0
   -4.5355    2.1194   -0.2122 H   0  0  0  0  0  0  0  0  0  0  0  0
   -6.0631    3.8806   -1.0225 H   0  0  0  0  0  0  0  0  0  0  0  0
   -5.1437    3.1628   -2.3996 H   0  0  0  0  0  0  0  0  0  0  0  0
   -6.8773    2.7102   -2.1276 H   0  0  0  0  0  0  0  0  0  0  0  0
   -1.8718   -0.8242   -3.1520 H   0  0  0  0  0  0  0  0  0  0  0  0
   -0.7108    0.6293    0.5318 H   0  0  0  0  0  0  0  0  0  0  0  0
   -1.3435   -2.3308    1.0128 H   0  0  0  0  0  0  0  0  0  0  0  0
    0.3019   -0.4372    2.6985 H   0  0  0  0  0  0  0  0  0  0  0  0
   -0.3736   -2.9975    3.2990 H   0  0  0  0  0  0  0  0  0  0  0  0
    0.7484   -3.7470    0.9874 H   0  0  0  0  0  0  0  0  0  0  0  0
    1.5713   -4.4826    2.4616 H   0  0  0  0  0  0  0  0  0  0  0  0
    3.2716   -2.9559    1.2617 H   0  0  0  0  0  0  0  0  0  0  0  0
    1.5596   -1.5020    0.1501 H   0  0  0  0  0  0  0  0  0  0  0  0
    2.6644    0.1767    2.5212 H   0  0  0  0  0  0  0  0  0  0  0  0
    3.6244   -0.2260    1.0767 H   0  0  0  0  0  0  0  0  0  0  0  0
    1.4661    1.8629    1.3611 H   0  0  0  0  0  0  0  0  0  0  0  0
    1.5917    2.2836   -0.9562 H   0  0  0  0  0  0  0  0  0  0  0  0
    3.1302   -0.4488   -1.1656 H   0  0  0  0  0  0  0  0  0  0  0  0
    2.1165    0.3065   -2.4184 H   0  0  0  0  0  0  0  0  0  0  0  0
    4.4300    0.6846   -2.9972 H   0  0  0  0  0  0  0  0  0  0  0  0
    3.7199    2.2664   -2.5231 H   0  0  0  0  0  0  0  0  0  0  0  0
    5.4476    0.4349   -0.7114 H   0  0  0  0  0  0  0  0  0  0  0  0
    4.7626    2.0285   -0.2283 H   0  0  0  0  0  0  0  0  0  0  0  0
    8.1203    1.8213   -2.7289 H   0  0  0  0  0  0  0  0  0  0  0  0
  1  2  1  0
  2  3  1  0
  3  4  1  0
  4  5  1  0
  5  6  1  0
  1  7  1  0
  7  8  1  0
  1  9  1  0
  9 10  2  0
 10 11  1  0
 11 12  1  0
 12 13  1  0
 13 14  1  0
 14 15  1  0
 15 16  1  0
 14 17  1  0
 17 18  1  0
 18 19  1  0
 19 20  2  0
 20 21  1  0
 21 22  1  0
 22 23  1  0
 23 24  1  0
 24 25  1  0
 24 26  2  0
 17 11  1  0
 16 12  1  0
  1 27  1  6
  2 28  1  0
  2 29  1  0
  3 30  1  0
  3 31  1  0
  4 32  1  0
  4 33  1  0
  5 34  1  0
  5 35  1  0
  6 36  1  0
  6 37  1  0
  6 38  1  0
  8 39  1  0
  9 40  1  0
 10 41  1  0
 11 42  1  1
 12 43  1  1
 13 44  1  0
 13 45  1  0
 14 46  1  6
 17 47  1  6
 18 48  1  0
 18 49  1  0
 19 50  1  0
 20 51  1  0
 21 52  1  0
 21 53  1  0
 22 54  1  0
 22 55  1  0
 23 56  1  0
 23 57  1  0
 25 58  1  0
M  END
$$$$
