
     RDKit          3D

 43 46  0  0  0  0  0  0  0  0999 V2000
   -5.1749   -1.2663   -0.8033 C   0  0  0  0  0  0  0  0  0  0  0  0
   -3.7189   -1.1762   -1.0096 N   0  0  0  0  0  0  0  0  0  0  0  0
   -2.9181   -1.7202    0.0873 C   0  0  1  0  0  0  0  0  0  0  0  0
   -1.5651   -2.1159   -0.5454 C   0  0  0  0  0  0  0  0  0  0  0  0
   -0.8766   -0.9127   -1.2670 C   0  0  1  0  0  0  0  0  0  0  0  0
   -1.8956    0.0846   -1.9178 C   0  0  0  0  0  0  0  0  0  0  0  0
   -3.2054    0.1905   -1.1058 C   0  0  2  0  0  0  0  0  0  0  0  0
   -2.8724    0.6575    0.3201 C   0  0  1  0  0  0  0  0  0  0  0  0
   -3.7882    0.2671    1.3172 O   0  0  0  0  0  0  0  0  0  0  0  0
   -2.6863   -0.5825    1.0947 C   0  0  1  0  0  0  0  0  0  0  0  0
   -0.0534   -0.2251   -0.3225 O   0  0  0  0  0  0  0  0  0  0  0  0
    0.9641    0.6654   -0.6809 C   0  0  0  0  0  0  0  0  0  0  0  0
    1.2739    0.8310   -1.8935 O   0  0  0  0  0  0  0  0  0  0  0  0
    1.7233    1.3755    0.4066 C   0  0  2  0  0  0  0  0  0  0  0  0
    2.1207    2.8020   -0.0080 C   0  0  0  0  0  0  0  0  0  0  0  0
    2.7212    3.4621    1.0725 O   0  0  0  0  0  0  0  0  0  0  0  0
    2.9273    0.5559    0.8275 C   0  0  0  0  0  0  0  0  0  0  0  0
    3.9537    0.2497   -0.0877 C   0  0  0  0  0  0  0  0  0  0  0  0
    5.0583   -0.5068    0.3149 C   0  0  0  0  0  0  0  0  0  0  0  0
    5.1517   -0.9651    1.6310 C   0  0  0  0  0  0  0  0  0  0  0  0
    4.1404   -0.6679    2.5474 C   0  0  0  0  0  0  0  0  0  0  0  0
    3.0334    0.0884    2.1503 C   0  0  0  0  0  0  0  0  0  0  0  0
   -5.5217   -0.7483    0.1110 H   0  0  0  0  0  0  0  0  0  0  0  0
   -5.4748   -2.3336   -0.7382 H   0  0  0  0  0  0  0  0  0  0  0  0
   -5.7012   -0.8278   -1.6774 H   0  0  0  0  0  0  0  0  0  0  0  0
   -3.3991   -2.6004    0.5685 H   0  0  0  0  0  0  0  0  0  0  0  0
   -0.8893   -2.5358    0.2317 H   0  0  0  0  0  0  0  0  0  0  0  0
   -1.7498   -2.9222   -1.2889 H   0  0  0  0  0  0  0  0  0  0  0  0
   -0.2220   -1.3290   -2.0652 H   0  0  0  0  0  0  0  0  0  0  0  0
   -2.1460   -0.2786   -2.9386 H   0  0  0  0  0  0  0  0  0  0  0  0
   -1.4432    1.0927   -2.0342 H   0  0  0  0  0  0  0  0  0  0  0  0
   -3.9224    0.8795   -1.6046 H   0  0  0  0  0  0  0  0  0  0  0  0
   -2.1932    1.4975    0.5790 H   0  0  0  0  0  0  0  0  0  0  0  0
   -1.8858   -0.5588    1.8642 H   0  0  0  0  0  0  0  0  0  0  0  0
    1.0251    1.4778    1.2678 H   0  0  0  0  0  0  0  0  0  0  0  0
    2.8244    2.7774   -0.8702 H   0  0  0  0  0  0  0  0  0  0  0  0
    1.2078    3.3599   -0.3169 H   0  0  0  0  0  0  0  0  0  0  0  0
    2.9545    4.3697    0.7459 H   0  0  0  0  0  0  0  0  0  0  0  0
    3.8993    0.5938   -1.1124 H   0  0  0  0  0  0  0  0  0  0  0  0
    5.8423   -0.7382   -0.3944 H   0  0  0  0  0  0  0  0  0  0  0  0
    6.0076   -1.5508    1.9406 H   0  0  0  0  0  0  0  0  0  0  0  0
    4.2140   -1.0238    3.5669 H   0  0  0  0  0  0  0  0  0  0  0  0
    2.2603    0.3079    2.8761 H   0  0  0  0  0  0  0  0  0  0  0  0
  1  2  1  0
  2  3  1  0
  3  4  1  0
  4  5  1  0
  5  6  1  0
  6  7  1  0
  7  8  1  0
  8  9  1  0
  9 10  1  0
  5 11  1  0
 11 12  1  0
 12 13  2  0
 12 14  1  0
 14 15  1  0
 15 16  1  0
 14 17  1  0
 17 18  2  0
 18 19  1  0
 19 20  2  0
 20 21  1  0
 21 22  2  0
  7  2  1  0
 10  8  1  0
 22 17  1  0
 10  3  1  0
  1 23  1  0
  1 24  1  0
  1 25  1  0
  3 26  1  1
  4 27  1  0
  4 28  1  0
  5 29  1  6
  6 30  1  0
  6 31  1  0
  7 32  1  6
  8 33  1  6
 10 34  1  1
 14 35  1  1
 15 36  1  0
 15 37  1  0
 16 38  1  0
 18 39  1  0
 19 40  1  0
 20 41  1  0
 21 42  1  0
 22 43  1  0
M  END
$$$$
