
     RDKit          3D

 28 29  0  0  0  0  0  0  0  0999 V2000
    5.6068   -2.0111    0.6384 O   0  0  0  0  0  0  0  0  0  0  0  0
    4.7394   -1.0580    0.1130 C   0  0  0  0  0  0  0  0  0  0  0  0
    5.1926   -0.1341   -0.6143 O   0  0  0  0  0  0  0  0  0  0  0  0
    3.3009   -1.1374    0.4076 C   0  0  0  0  0  0  0  0  0  0  0  0
    2.8782   -2.0738    1.1377 O   0  0  0  0  0  0  0  0  0  0  0  0
    2.3932   -0.1475   -0.1044 N   0  0  0  0  0  0  0  0  0  0  0  0
    0.9633   -0.2683   -0.0268 C   0  0  0  0  0  0  0  0  0  0  0  0
    0.0507    0.7952   -0.1022 C   0  0  0  0  0  0  0  0  0  0  0  0
    0.4517    2.2204   -0.0468 C   0  0  0  0  0  0  0  0  0  0  0  0
    1.6577    2.5858    0.5440 O   0  0  0  0  0  0  0  0  0  0  0  0
   -0.2982    3.1177   -0.5140 O   0  0  0  0  0  0  0  0  0  0  0  0
   -1.2894    0.3407   -0.1574 C   0  0  0  0  0  0  0  0  0  0  0  0
   -1.4003   -1.0402   -0.0752 C   0  0  0  0  0  0  0  0  0  0  0  0
   -2.7067   -1.7712   -0.1176 C   0  0  0  0  0  0  0  0  0  0  0  0
   -3.8140   -0.8884    0.2848 N   0  0  0  0  0  0  0  0  0  0  0  0
   -3.7895    0.3747   -0.4729 C   0  0  0  0  0  0  0  0  0  0  0  0
   -2.5251    1.2045   -0.1668 C   0  0  0  0  0  0  0  0  0  0  0  0
    0.1243   -1.7328   -0.0176 S   0  0  0  0  0  0  0  0  0  0  0  0
    6.6005   -1.9723    0.4449 H   0  0  0  0  0  0  0  0  0  0  0  0
    2.7918    0.6912   -0.5809 H   0  0  0  0  0  0  0  0  0  0  0  0
    1.9404    3.5573    0.5929 H   0  0  0  0  0  0  0  0  0  0  0  0
   -2.6643   -2.6455    0.5666 H   0  0  0  0  0  0  0  0  0  0  0  0
   -2.8830   -2.1472   -1.1481 H   0  0  0  0  0  0  0  0  0  0  0  0
   -3.7206   -0.6718    1.3056 H   0  0  0  0  0  0  0  0  0  0  0  0
   -3.8417    0.1583   -1.5633 H   0  0  0  0  0  0  0  0  0  0  0  0
   -4.6889    0.9732   -0.2129 H   0  0  0  0  0  0  0  0  0  0  0  0
   -2.6313    1.6877    0.8281 H   0  0  0  0  0  0  0  0  0  0  0  0
   -2.4387    1.9927   -0.9425 H   0  0  0  0  0  0  0  0  0  0  0  0
  1  2  1  0
  2  3  2  0
  2  4  1  0
  4  5  2  0
  4  6  1  0
  6  7  1  0
  7  8  2  0
  8  9  1  0
  9 10  1  0
  9 11  2  0
  8 12  1  0
 12 13  2  0
 13 14  1  0
 14 15  1  0
 15 16  1  0
 16 17  1  0
 13 18  1  0
 18  7  1  0
 17 12  1  0
  1 19  1  0
  6 20  1  0
 10 21  1  0
 14 22  1  0
 14 23  1  0
 15 24  1  0
 16 25  1  0
 16 26  1  0
 17 27  1  0
 17 28  1  0
M  END
$$$$
