
     RDKit          3D

 39 41  0  0  0  0  0  0  0  0999 V2000
   -1.7382   -2.5377   -1.4228 C   0  0  0  0  0  0  0  0  0  0  0  0
   -2.0485   -2.1056    0.0067 C   0  0  0  0  0  0  0  0  0  0  0  0
   -2.3012   -0.6550    0.0637 N   0  0  0  0  0  0  0  0  0  0  0  0
   -3.5893   -0.2084   -0.0474 C   0  0  0  0  0  0  0  0  0  0  0  0
   -3.8963    1.1641   -0.0193 C   0  0  0  0  0  0  0  0  0  0  0  0
   -5.3138    1.6027   -0.1339 C   0  0  0  0  0  0  0  0  0  0  0  0
   -5.6477    2.9545   -0.1175 O   0  0  0  0  0  0  0  0  0  0  0  0
   -6.2354    0.7494   -0.2481 O   0  0  0  0  0  0  0  0  0  0  0  0
   -2.8391    2.0864    0.1144 C   0  0  0  0  0  0  0  0  0  0  0  0
   -3.0710    3.3266    0.1465 O   0  0  0  0  0  0  0  0  0  0  0  0
   -1.5177    1.6205    0.2086 C   0  0  0  0  0  0  0  0  0  0  0  0
   -0.4227    2.4895    0.3288 C   0  0  0  0  0  0  0  0  0  0  0  0
    0.8365    1.9898    0.4049 N   0  0  0  0  0  0  0  0  0  0  0  0
    1.0725    0.6506    0.3689 C   0  0  0  0  0  0  0  0  0  0  0  0
    0.0214   -0.2052    0.2562 N   0  0  0  0  0  0  0  0  0  0  0  0
   -1.2645    0.2356    0.1769 C   0  0  0  0  0  0  0  0  0  0  0  0
    2.4224    0.1419    0.4468 N   0  0  0  0  0  0  0  0  0  0  0  0
    3.5285    1.0468    0.7956 C   0  0  0  0  0  0  0  0  0  0  0  0
    4.8415    0.5537    0.1834 C   0  0  0  0  0  0  0  0  0  0  0  0
    5.0702   -0.8524    0.5307 N   0  0  0  0  0  0  0  0  0  0  0  0
    4.0068   -1.6883   -0.0355 C   0  0  0  0  0  0  0  0  0  0  0  0
    2.6524   -1.3065    0.5656 C   0  0  0  0  0  0  0  0  0  0  0  0
   -1.5619   -3.6335   -1.4519 H   0  0  0  0  0  0  0  0  0  0  0  0
   -2.5930   -2.2937   -2.0885 H   0  0  0  0  0  0  0  0  0  0  0  0
   -0.8283   -2.0195   -1.7924 H   0  0  0  0  0  0  0  0  0  0  0  0
   -2.9320   -2.6737    0.3740 H   0  0  0  0  0  0  0  0  0  0  0  0
   -1.2031   -2.3851    0.6727 H   0  0  0  0  0  0  0  0  0  0  0  0
   -4.3924   -0.9280   -0.1603 H   0  0  0  0  0  0  0  0  0  0  0  0
   -6.6124    3.2539   -0.1955 H   0  0  0  0  0  0  0  0  0  0  0  0
   -0.5617    3.5626    0.3591 H   0  0  0  0  0  0  0  0  0  0  0  0
    3.3401    2.0741    0.4170 H   0  0  0  0  0  0  0  0  0  0  0  0
    3.6271    1.0925    1.9019 H   0  0  0  0  0  0  0  0  0  0  0  0
    4.8172    0.6854   -0.9225 H   0  0  0  0  0  0  0  0  0  0  0  0
    5.6772    1.1694    0.5809 H   0  0  0  0  0  0  0  0  0  0  0  0
    5.9734   -1.1456    0.0900 H   0  0  0  0  0  0  0  0  0  0  0  0
    3.9731   -1.5823   -1.1439 H   0  0  0  0  0  0  0  0  0  0  0  0
    4.2161   -2.7546    0.1979 H   0  0  0  0  0  0  0  0  0  0  0  0
    1.8672   -1.8816    0.0292 H   0  0  0  0  0  0  0  0  0  0  0  0
    2.6265   -1.5932    1.6393 H   0  0  0  0  0  0  0  0  0  0  0  0
  1  2  1  0
  2  3  1  0
  3  4  1  0
  4  5  2  0
  5  6  1  0
  6  7  1  0
  6  8  2  0
  5  9  1  0
  9 10  2  0
  9 11  1  0
 11 12  2  0
 12 13  1  0
 13 14  2  0
 14 15  1  0
 15 16  2  0
 14 17  1  0
 17 18  1  0
 18 19  1  0
 19 20  1  0
 20 21  1  0
 21 22  1  0
 16  3  1  0
 22 17  1  0
 16 11  1  0
  1 23  1  0
  1 24  1  0
  1 25  1  0
  2 26  1  0
  2 27  1  0
  4 28  1  0
  7 29  1  0
 12 30  1  0
 18 31  1  0
 18 32  1  0
 19 33  1  0
 19 34  1  0
 20 35  1  0
 21 36  1  0
 21 37  1  0
 22 38  1  0
 22 39  1  0
M  END
$$$$
