
     RDKit          3D

 52 51  0  0  0  0  0  0  0  0999 V2000
   -2.0466    2.5918   -2.2851 C   0  0  0  0  0  0  0  0  0  0  0  0
   -2.0027    1.4796   -1.3450 N   0  0  0  0  0  0  0  0  0  0  0  0
   -2.2821    0.1331   -1.7561 C   0  0  0  0  0  0  0  0  0  0  0  0
   -2.5985   -0.1058   -2.9536 O   0  0  0  0  0  0  0  0  0  0  0  0
   -2.2103   -1.0111   -0.7687 C   0  0  1  0  0  0  0  0  0  0  0  0
   -1.0517   -0.8255    0.1170 N   0  0  0  0  0  0  0  0  0  0  0  0
    0.2963   -1.0007   -0.3474 C   0  0  0  0  0  0  0  0  0  0  0  0
    0.5053   -1.4334   -1.5136 O   0  0  0  0  0  0  0  0  0  0  0  0
    1.4525   -0.6229    0.5573 C   0  0  2  0  0  0  0  0  0  0  0  0
    1.6110    0.9230    0.6018 C   0  0  0  0  0  0  0  0  0  0  0  0
    2.4840    1.4390    1.7820 C   0  0  0  0  0  0  0  0  0  0  0  0
    1.8192    2.6389    2.4727 C   0  0  0  0  0  0  0  0  0  0  0  0
    3.8905    1.8384    1.3108 C   0  0  0  0  0  0  0  0  0  0  0  0
    2.7560   -1.4225    0.2303 C   0  0  2  0  0  0  0  0  0  0  0  0
    3.5959   -1.4343    1.3570 O   0  0  0  0  0  0  0  0  0  0  0  0
    3.5363   -0.9211   -0.9698 C   0  0  0  0  0  0  0  0  0  0  0  0
    2.9463   -0.3577   -1.9305 O   0  0  0  0  0  0  0  0  0  0  0  0
    4.9436   -1.1675   -1.0696 N   0  0  0  0  0  0  0  0  0  0  0  0
    5.6477   -0.7064   -2.1310 O   0  0  0  0  0  0  0  0  0  0  0  0
   -3.5505   -1.2230    0.0248 C   0  0  0  0  0  0  0  0  0  0  0  0
   -3.3852   -2.3930    1.0218 C   0  0  0  0  0  0  0  0  0  0  0  0
   -4.6830   -1.5991   -0.9592 C   0  0  0  0  0  0  0  0  0  0  0  0
   -3.9847    0.0409    0.8042 C   0  0  0  0  0  0  0  0  0  0  0  0
   -1.7974    3.5386   -1.7611 H   0  0  0  0  0  0  0  0  0  0  0  0
   -1.3086    2.4264   -3.0980 H   0  0  0  0  0  0  0  0  0  0  0  0
   -3.0653    2.6782   -2.7183 H   0  0  0  0  0  0  0  0  0  0  0  0
   -1.7605    1.6792   -0.3488 H   0  0  0  0  0  0  0  0  0  0  0  0
   -2.0346   -1.9441   -1.3518 H   0  0  0  0  0  0  0  0  0  0  0  0
   -1.1860   -0.4646    1.0868 H   0  0  0  0  0  0  0  0  0  0  0  0
    1.1350   -0.9436    1.5748 H   0  0  0  0  0  0  0  0  0  0  0  0
    1.9846    1.3140   -0.3670 H   0  0  0  0  0  0  0  0  0  0  0  0
    0.5895    1.3538    0.6996 H   0  0  0  0  0  0  0  0  0  0  0  0
    2.5901    0.6463    2.5542 H   0  0  0  0  0  0  0  0  0  0  0  0
    2.4465    2.9956    3.3176 H   0  0  0  0  0  0  0  0  0  0  0  0
    0.8301    2.3434    2.8837 H   0  0  0  0  0  0  0  0  0  0  0  0
    1.6755    3.4740    1.7535 H   0  0  0  0  0  0  0  0  0  0  0  0
    4.5021    2.1766    2.1744 H   0  0  0  0  0  0  0  0  0  0  0  0
    4.4121    0.9799    0.8461 H   0  0  0  0  0  0  0  0  0  0  0  0
    3.8354    2.6639    0.5688 H   0  0  0  0  0  0  0  0  0  0  0  0
    2.4719   -2.4757   -0.0033 H   0  0  0  0  0  0  0  0  0  0  0  0
    3.2111   -2.0838    2.0024 H   0  0  0  0  0  0  0  0  0  0  0  0
    5.4468   -1.6948   -0.3217 H   0  0  0  0  0  0  0  0  0  0  0  0
    5.6229   -1.4445   -2.7922 H   0  0  0  0  0  0  0  0  0  0  0  0
   -4.3483   -2.6183    1.5292 H   0  0  0  0  0  0  0  0  0  0  0  0
   -3.0489   -3.3119    0.4945 H   0  0  0  0  0  0  0  0  0  0  0  0
   -2.6424   -2.1516    1.8105 H   0  0  0  0  0  0  0  0  0  0  0  0
   -4.8937   -0.7668   -1.6637 H   0  0  0  0  0  0  0  0  0  0  0  0
   -4.4082   -2.4988   -1.5511 H   0  0  0  0  0  0  0  0  0  0  0  0
   -5.6247   -1.8208   -0.4115 H   0  0  0  0  0  0  0  0  0  0  0  0
   -3.2119    0.3640    1.5302 H   0  0  0  0  0  0  0  0  0  0  0  0
   -4.1956    0.8839    0.1134 H   0  0  0  0  0  0  0  0  0  0  0  0
   -4.9167   -0.1591    1.3761 H   0  0  0  0  0  0  0  0  0  0  0  0
  1  2  1  0
  2  3  1  0
  3  4  2  0
  3  5  1  0
  5  6  1  0
  6  7  1  0
  7  8  2  0
  7  9  1  0
  9 10  1  0
 10 11  1  0
 11 12  1  0
 11 13  1  0
  9 14  1  0
 14 15  1  0
 14 16  1  0
 16 17  2  0
 16 18  1  0
 18 19  1  0
  5 20  1  0
 20 21  1  0
 20 22  1  0
 20 23  1  0
  1 24  1  0
  1 25  1  0
  1 26  1  0
  2 27  1  0
  5 28  1  6
  6 29  1  0
  9 30  1  1
 10 31  1  0
 10 32  1  0
 11 33  1  0
 12 34  1  0
 12 35  1  0
 12 36  1  0
 13 37  1  0
 13 38  1  0
 13 39  1  0
 14 40  1  6
 15 41  1  0
 18 42  1  0
 19 43  1  0
 21 44  1  0
 21 45  1  0
 21 46  1  0
 22 47  1  0
 22 48  1  0
 22 49  1  0
 23 50  1  0
 23 51  1  0
 23 52  1  0
M  END
$$$$
