
     RDKit          3D

 61 64  0  0  0  0  0  0  0  0999 V2000
    0.7071   -0.7901    0.1323 C   0  0  2  0  0  0  0  0  0  0  0  0
    1.5025   -2.0453    0.4844 C   0  0  0  0  0  0  0  0  0  0  0  0
    2.9163   -1.6041    0.2264 C   0  0  0  0  0  0  0  0  0  0  0  0
    3.9350   -2.4742    0.1822 C   0  0  0  0  0  0  0  0  0  0  0  0
    3.0057   -0.1111   -0.0718 C   0  0  2  0  0  0  0  0  0  0  0  0
    2.9861    0.0709   -1.4992 O   0  0  0  0  0  0  0  0  0  0  0  0
    4.0270   -0.2348   -2.3877 C   0  0  0  0  0  0  0  0  0  0  0  0
    3.8010   -0.0764   -3.8520 C   0  0  0  0  0  0  0  0  0  0  0  0
    5.1646   -0.5789   -1.9697 O   0  0  0  0  0  0  0  0  0  0  0  0
    4.2064    0.6274    0.5304 C   0  0  0  0  0  0  0  0  0  0  0  0
    4.9633    0.1420    1.7382 C   0  0  0  0  0  0  0  0  0  0  0  0
    4.5398    1.6966    0.0412 O   0  0  0  0  0  0  0  0  0  0  0  0
    1.6373    0.3854    0.5111 C   0  0  2  0  0  0  0  0  0  0  0  0
    1.7454    0.5907    2.0622 C   0  0  0  0  0  0  0  0  0  0  0  0
    1.0627    1.6719   -0.1332 C   0  0  0  0  0  0  0  0  0  0  0  0
   -0.4029    1.9233    0.3014 C   0  0  0  0  0  0  0  0  0  0  0  0
   -1.3270    0.6845    0.0723 C   0  0  1  0  0  0  0  0  0  0  0  0
   -0.7259   -0.6202    0.6809 C   0  0  1  0  0  0  0  0  0  0  0  0
   -1.5919   -1.8082    0.3463 C   0  0  0  0  0  0  0  0  0  0  0  0
   -2.9200   -1.7183    0.1503 C   0  0  0  0  0  0  0  0  0  0  0  0
   -3.6960   -2.9947   -0.0808 C   0  0  0  0  0  0  0  0  0  0  0  0
   -3.6043   -0.3797    0.1081 C   0  0  0  0  0  0  0  0  0  0  0  0
   -4.9083   -0.2965   -0.2364 C   0  0  0  0  0  0  0  0  0  0  0  0
   -5.6220    0.9855   -0.3294 C   0  0  0  0  0  0  0  0  0  0  0  0
   -6.8487    0.9918   -0.6153 O   0  0  0  0  0  0  0  0  0  0  0  0
   -4.9257    2.2783   -0.0553 C   0  0  0  0  0  0  0  0  0  0  0  0
   -3.4105    2.1322   -0.2232 C   0  0  0  0  0  0  0  0  0  0  0  0
   -2.8236    0.8831    0.5080 C   0  0  2  0  0  0  0  0  0  0  0  0
   -2.9615    1.0736    2.0413 C   0  0  0  0  0  0  0  0  0  0  0  0
    0.6059   -0.8117   -0.9815 H   0  0  0  0  0  0  0  0  0  0  0  0
    1.3703   -2.3317    1.5497 H   0  0  0  0  0  0  0  0  0  0  0  0
    1.2250   -2.8917   -0.1812 H   0  0  0  0  0  0  0  0  0  0  0  0
    3.7636   -3.5288    0.3733 H   0  0  0  0  0  0  0  0  0  0  0  0
    4.9473   -2.1484   -0.0220 H   0  0  0  0  0  0  0  0  0  0  0  0
    4.1419    0.9300   -4.1718 H   0  0  0  0  0  0  0  0  0  0  0  0
    4.3660   -0.8513   -4.4119 H   0  0  0  0  0  0  0  0  0  0  0  0
    2.7202   -0.1853   -4.0815 H   0  0  0  0  0  0  0  0  0  0  0  0
    4.4865   -0.7399    2.2088 H   0  0  0  0  0  0  0  0  0  0  0  0
    5.0053    0.9504    2.4981 H   0  0  0  0  0  0  0  0  0  0  0  0
    5.9990   -0.1244    1.4413 H   0  0  0  0  0  0  0  0  0  0  0  0
    2.1504   -0.3084    2.5691 H   0  0  0  0  0  0  0  0  0  0  0  0
    0.7806    0.8238    2.5472 H   0  0  0  0  0  0  0  0  0  0  0  0
    2.4106    1.4487    2.2935 H   0  0  0  0  0  0  0  0  0  0  0  0
    1.6869    2.5482    0.1462 H   0  0  0  0  0  0  0  0  0  0  0  0
    1.0811    1.5967   -1.2421 H   0  0  0  0  0  0  0  0  0  0  0  0
   -0.7672    2.7787   -0.3038 H   0  0  0  0  0  0  0  0  0  0  0  0
   -0.4312    2.2491    1.3590 H   0  0  0  0  0  0  0  0  0  0  0  0
   -1.3456    0.5374   -1.0340 H   0  0  0  0  0  0  0  0  0  0  0  0
   -0.6857   -0.5694    1.7835 H   0  0  0  0  0  0  0  0  0  0  0  0
   -1.1310   -2.7877    0.3796 H   0  0  0  0  0  0  0  0  0  0  0  0
   -4.0603   -3.0254   -1.1290 H   0  0  0  0  0  0  0  0  0  0  0  0
   -3.0818   -3.9040    0.0953 H   0  0  0  0  0  0  0  0  0  0  0  0
   -4.5590   -3.0420    0.6161 H   0  0  0  0  0  0  0  0  0  0  0  0
   -5.4759   -1.1792   -0.4955 H   0  0  0  0  0  0  0  0  0  0  0  0
   -5.1724    2.6177    0.9725 H   0  0  0  0  0  0  0  0  0  0  0  0
   -5.2937    3.0539   -0.7616 H   0  0  0  0  0  0  0  0  0  0  0  0
   -3.1872    2.0655   -1.3117 H   0  0  0  0  0  0  0  0  0  0  0  0
   -2.9445    3.0652    0.1591 H   0  0  0  0  0  0  0  0  0  0  0  0
   -2.4476    1.9950    2.3829 H   0  0  0  0  0  0  0  0  0  0  0  0
   -2.5611    0.2088    2.6056 H   0  0  0  0  0  0  0  0  0  0  0  0
   -4.0282    1.1556    2.3350 H   0  0  0  0  0  0  0  0  0  0  0  0
  1  2  1  0
  2  3  1  0
  3  4  2  3
  3  5  1  0
  5  6  1  6
  6  7  1  0
  7  8  1  0
  7  9  2  0
  5 10  1  0
 10 11  1  0
 10 12  2  0
  5 13  1  0
 13 14  1  1
 13 15  1  0
 15 16  1  0
 16 17  1  0
 17 18  1  0
 18 19  1  0
 19 20  2  0
 20 21  1  0
 20 22  1  0
 22 23  2  0
 23 24  1  0
 24 25  2  0
 24 26  1  0
 26 27  1  0
 27 28  1  0
 28 29  1  1
 13  1  1  0
 28 17  1  0
 18  1  1  0
 28 22  1  0
  1 30  1  6
  2 31  1  0
  2 32  1  0
  4 33  1  0
  4 34  1  0
  8 35  1  0
  8 36  1  0
  8 37  1  0
 11 38  1  0
 11 39  1  0
 11 40  1  0
 14 41  1  0
 14 42  1  0
 14 43  1  0
 15 44  1  0
 15 45  1  0
 16 46  1  0
 16 47  1  0
 17 48  1  6
 18 49  1  1
 19 50  1  0
 21 51  1  0
 21 52  1  0
 21 53  1  0
 23 54  1  0
 26 55  1  0
 26 56  1  0
 27 57  1  0
 27 58  1  0
 29 59  1  0
 29 60  1  0
 29 61  1  0
M  END
$$$$
