
     RDKit          3D

 56 59  0  0  0  0  0  0  0  0999 V2000
   -4.1082   -0.7960    0.2263 C   0  0  1  0  0  0  0  0  0  0  0  0
   -3.0452   -1.5809   -0.4168 N   0  0  0  0  0  0  0  0  0  0  0  0
   -1.6823   -1.5689    0.0348 C   0  0  0  0  0  0  0  0  0  0  0  0
   -0.6516   -1.9210   -0.8443 C   0  0  0  0  0  0  0  0  0  0  0  0
    0.6900   -1.9086   -0.4246 C   0  0  0  0  0  0  0  0  0  0  0  0
    1.7637   -2.2565   -1.4222 C   0  0  0  0  0  0  0  0  0  0  0  0
    0.9978   -1.5166    0.9018 C   0  0  0  0  0  0  0  0  0  0  0  0
   -0.0451   -1.1879    1.7814 C   0  0  0  0  0  0  0  0  0  0  0  0
   -1.3743   -1.2193    1.3522 C   0  0  0  0  0  0  0  0  0  0  0  0
   -2.6750   -0.8595    2.4682 S   0  0  0  0  0  6  0  0  0  0  0  0
   -2.5880   -1.7785    3.6542 O   0  0  0  0  0  0  0  0  0  0  0  0
   -2.5754    0.5671    2.9297 O   0  0  0  0  0  0  0  0  0  0  0  0
   -4.1968   -1.1070    1.6637 N   0  0  0  0  0  0  0  0  0  0  0  0
    2.6685   -1.4284    1.4863 S   0  0  0  0  0  6  0  0  0  0  0  0
    2.7053   -0.8003    2.8532 O   0  0  0  0  0  0  0  0  0  0  0  0
    3.2219   -2.8228    1.5831 O   0  0  0  0  0  0  0  0  0  0  0  0
    3.6346   -0.4788    0.3859 N   0  0  0  0  0  0  0  0  0  0  0  0
    3.1530    0.9110    0.3640 C   0  0  0  0  0  0  0  0  0  0  0  0
    3.9350    1.7330   -0.6809 C   0  0  0  0  0  0  0  0  0  0  0  0
    5.1396    1.0147   -1.1480 N   0  0  0  0  0  0  0  0  0  0  0  0
    5.9830    1.9062   -1.9579 C   0  0  0  0  0  0  0  0  0  0  0  0
    5.9013    0.4875   -0.0013 C   0  0  0  0  0  0  0  0  0  0  0  0
    5.0518   -0.5283    0.7905 C   0  0  0  0  0  0  0  0  0  0  0  0
   -3.9151    0.7267   -0.0369 C   0  0  0  0  0  0  0  0  0  0  0  0
   -5.0230    1.5689    0.5982 C   0  0  0  0  0  0  0  0  0  0  0  0
   -6.1209    1.6878   -0.4512 C   0  0  0  0  0  0  0  0  0  0  0  0
   -5.4759    1.3801   -1.8004 C   0  0  0  0  0  0  0  0  0  0  0  0
   -4.0105    1.0637   -1.5264 C   0  0  0  0  0  0  0  0  0  0  0  0
   -5.0770   -1.0929   -0.2361 H   0  0  0  0  0  0  0  0  0  0  0  0
   -3.2847   -2.1138   -1.2838 H   0  0  0  0  0  0  0  0  0  0  0  0
   -0.8981   -2.1927   -1.8638 H   0  0  0  0  0  0  0  0  0  0  0  0
    1.3412   -2.7882   -2.3012 H   0  0  0  0  0  0  0  0  0  0  0  0
    2.5209   -2.9272   -0.9679 H   0  0  0  0  0  0  0  0  0  0  0  0
    2.2543   -1.3280   -1.7809 H   0  0  0  0  0  0  0  0  0  0  0  0
    0.1707   -0.9085    2.8045 H   0  0  0  0  0  0  0  0  0  0  0  0
   -4.4324   -2.1220    1.7574 H   0  0  0  0  0  0  0  0  0  0  0  0
    2.0723    0.9366    0.1034 H   0  0  0  0  0  0  0  0  0  0  0  0
    3.2715    1.3779    1.3685 H   0  0  0  0  0  0  0  0  0  0  0  0
    4.2049    2.7189   -0.2369 H   0  0  0  0  0  0  0  0  0  0  0  0
    3.2728    1.9247   -1.5539 H   0  0  0  0  0  0  0  0  0  0  0  0
    6.3645    2.7608   -1.3554 H   0  0  0  0  0  0  0  0  0  0  0  0
    6.8462    1.3414   -2.3709 H   0  0  0  0  0  0  0  0  0  0  0  0
    5.4035    2.3012   -2.8201 H   0  0  0  0  0  0  0  0  0  0  0  0
    6.2092    1.3196    0.6735 H   0  0  0  0  0  0  0  0  0  0  0  0
    6.8263   -0.0189   -0.3572 H   0  0  0  0  0  0  0  0  0  0  0  0
    5.1630   -0.3225    1.8793 H   0  0  0  0  0  0  0  0  0  0  0  0
    5.4417   -1.5512    0.5960 H   0  0  0  0  0  0  0  0  0  0  0  0
   -2.9244    1.0536    0.3464 H   0  0  0  0  0  0  0  0  0  0  0  0
   -4.6226    2.5830    0.8211 H   0  0  0  0  0  0  0  0  0  0  0  0
   -5.4149    1.1399    1.5450 H   0  0  0  0  0  0  0  0  0  0  0  0
   -6.9248    0.9487   -0.2394 H   0  0  0  0  0  0  0  0  0  0  0  0
   -6.5618    2.7085   -0.4431 H   0  0  0  0  0  0  0  0  0  0  0  0
   -5.9717    0.4993   -2.2648 H   0  0  0  0  0  0  0  0  0  0  0  0
   -5.5660    2.2467   -2.4913 H   0  0  0  0  0  0  0  0  0  0  0  0
   -3.6440    0.2471   -2.1847 H   0  0  0  0  0  0  0  0  0  0  0  0
   -3.3991    1.9706   -1.7324 H   0  0  0  0  0  0  0  0  0  0  0  0
  1  2  1  0
  2  3  1  0
  3  4  2  0
  4  5  1  0
  5  6  1  0
  5  7  2  0
  7  8  1  0
  8  9  2  0
  9 10  1  0
 10 11  2  0
 10 12  2  0
 10 13  1  0
  7 14  1  0
 14 15  2  0
 14 16  2  0
 14 17  1  0
 17 18  1  0
 18 19  1  0
 19 20  1  0
 20 21  1  0
 20 22  1  0
 22 23  1  0
  1 24  1  0
 24 25  1  0
 25 26  1  0
 26 27  1  0
 27 28  1  0
 13  1  1  0
 23 17  1  0
 28 24  1  0
  9  3  1  0
  1 29  1  6
  2 30  1  0
  4 31  1  0
  6 32  1  0
  6 33  1  0
  6 34  1  0
  8 35  1  0
 13 36  1  0
 18 37  1  0
 18 38  1  0
 19 39  1  0
 19 40  1  0
 21 41  1  0
 21 42  1  0
 21 43  1  0
 22 44  1  0
 22 45  1  0
 23 46  1  0
 23 47  1  0
 24 48  1  0
 25 49  1  0
 25 50  1  0
 26 51  1  0
 26 52  1  0
 27 53  1  0
 27 54  1  0
 28 55  1  0
 28 56  1  0
M  END
$$$$
