
     RDKit          3D

 33 34  0  0  0  0  0  0  0  0999 V2000
    4.5618   -0.9461    0.0971 C   0  0  0  0  0  0  0  0  0  0  0  0
    3.0854   -0.6865    0.1566 C   0  0  0  0  0  0  0  0  0  0  0  0
    2.2116   -1.6851    0.6045 C   0  0  0  0  0  0  0  0  0  0  0  0
    0.8348   -1.4588    0.6200 C   0  0  0  0  0  0  0  0  0  0  0  0
    0.3075   -0.2371    0.1787 C   0  0  0  0  0  0  0  0  0  0  0  0
   -1.1162   -0.0532    0.1886 N   0  0  0  0  0  0  0  0  0  0  0  0
   -1.8734   -0.0560   -1.0659 C   0  0  0  0  0  0  0  0  0  0  0  0
   -3.0932   -0.9945   -0.9669 C   0  0  0  0  0  0  0  0  0  0  0  0
   -3.6863   -1.0877    0.3849 N   0  0  0  0  0  0  0  0  0  0  0  0
   -3.3333    0.0404    1.2565 C   0  0  0  0  0  0  0  0  0  0  0  0
   -1.8168    0.0947    1.4673 C   0  0  0  0  0  0  0  0  0  0  0  0
    1.1816    0.7743   -0.2807 C   0  0  0  0  0  0  0  0  0  0  0  0
    2.5641    0.5327   -0.3000 C   0  0  0  0  0  0  0  0  0  0  0  0
    0.5848    2.3445   -0.8305 S   0  0  0  0  0  6  0  0  0  0  0  0
    1.8309    3.4732   -0.7786 O   0  0  0  0  0  0  0  0  0  0  0  0
   -0.5247    2.8185    0.0657 O   0  0  0  0  0  0  0  0  0  0  0  0
    0.0845    2.2230   -2.2423 O   0  0  0  0  0  0  0  0  0  0  0  0
    5.1311   -0.0045    0.2501 H   0  0  0  0  0  0  0  0  0  0  0  0
    4.8222   -1.3697   -0.8953 H   0  0  0  0  0  0  0  0  0  0  0  0
    4.8670   -1.6633    0.8886 H   0  0  0  0  0  0  0  0  0  0  0  0
    2.5956   -2.6413    0.9378 H   0  0  0  0  0  0  0  0  0  0  0  0
    0.1718   -2.2434    0.9627 H   0  0  0  0  0  0  0  0  0  0  0  0
   -2.2271    0.9768   -1.2733 H   0  0  0  0  0  0  0  0  0  0  0  0
   -1.2298   -0.3713   -1.9168 H   0  0  0  0  0  0  0  0  0  0  0  0
   -2.7886   -2.0105   -1.3045 H   0  0  0  0  0  0  0  0  0  0  0  0
   -3.8736   -0.6433   -1.6750 H   0  0  0  0  0  0  0  0  0  0  0  0
   -3.3536   -1.9708    0.8403 H   0  0  0  0  0  0  0  0  0  0  0  0
   -3.8395   -0.0784    2.2386 H   0  0  0  0  0  0  0  0  0  0  0  0
   -3.6932    0.9920    0.8065 H   0  0  0  0  0  0  0  0  0  0  0  0
   -1.5363    1.0589    1.9417 H   0  0  0  0  0  0  0  0  0  0  0  0
   -1.5222   -0.7314    2.1504 H   0  0  0  0  0  0  0  0  0  0  0  0
    3.2396    1.2941   -0.6696 H   0  0  0  0  0  0  0  0  0  0  0  0
    1.4335    4.3098   -1.1299 H   0  0  0  0  0  0  0  0  0  0  0  0
  1  2  1  0
  2  3  2  0
  3  4  1  0
  4  5  2  0
  5  6  1  0
  6  7  1  0
  7  8  1  0
  8  9  1  0
  9 10  1  0
 10 11  1  0
  5 12  1  0
 12 13  2  0
 12 14  1  0
 14 15  1  0
 14 16  2  0
 14 17  2  0
 13  2  1  0
 11  6  1  0
  1 18  1  0
  1 19  1  0
  1 20  1  0
  3 21  1  0
  4 22  1  0
  7 23  1  0
  7 24  1  0
  8 25  1  0
  8 26  1  0
  9 27  1  0
 10 28  1  0
 10 29  1  0
 11 30  1  0
 11 31  1  0
 13 32  1  0
 15 33  1  0
M  END
$$$$
