
     RDKit          3D

 38 38  0  0  0  0  0  0  0  0999 V2000
   -1.3691    0.1956   -0.6155 C   0  0  0  0  0  0  0  0  0  0  0  0
   -0.1016    0.0303    0.2503 C   0  0  0  0  0  0  0  0  0  0  0  0
    0.3364   -1.4470    0.2489 C   0  0  0  0  0  0  0  0  0  0  0  0
   -0.3872    0.4342    1.6338 N   0  0  0  0  0  0  0  0  0  0  0  0
    1.0394    0.9208   -0.2978 C   0  0  0  0  0  0  0  0  0  0  0  0
    1.3559    0.5942   -1.6268 O   0  0  0  0  0  0  0  0  0  0  0  0
   -1.7570   -1.8061    0.0205 C   0  0  0  0  0  0  0  0  0  0  0  0
   -0.6825   -0.8047   -0.0259 N   0  0  0  0  0  0  0  0  0  0  0  0
   -0.9806    0.5213    0.0462 C   0  0  0  0  0  0  0  0  0  0  0  0
   -0.0339    1.4821    0.0399 C   0  0  0  0  0  0  0  0  0  0  0  0
   -0.5925    2.7016    0.1444 N   0  0  0  0  0  0  0  0  0  0  0  0
   -1.9199    2.4146    0.2125 C   0  0  0  0  0  0  0  0  0  0  0  0
   -2.1909    1.0878    0.1578 N   0  0  0  0  0  0  0  0  0  0  0  0
    1.3049    1.1453   -0.0426 C   0  0  0  0  0  0  0  0  0  0  0  0
    2.1865    2.0479   -0.0285 O   0  0  0  0  0  0  0  0  0  0  0  0
    1.6395   -0.1873   -0.1305 N   0  0  0  0  0  0  0  0  0  0  0  0
    3.0560   -0.5853   -0.1835 C   0  0  0  0  0  0  0  0  0  0  0  0
    0.6504   -1.1582   -0.0919 C   0  0  0  0  0  0  0  0  0  0  0  0
    0.9730   -2.3797   -0.1111 O   0  0  0  0  0  0  0  0  0  0  0  0
   -2.2023   -0.4151   -0.2062 H   0  0  0  0  0  0  0  0  0  0  0  0
   -1.1808   -0.1319   -1.6605 H   0  0  0  0  0  0  0  0  0  0  0  0
   -1.6926    1.2584   -0.6335 H   0  0  0  0  0  0  0  0  0  0  0  0
    0.5336   -1.8048   -0.7842 H   0  0  0  0  0  0  0  0  0  0  0  0
    1.2600   -1.5772    0.8529 H   0  0  0  0  0  0  0  0  0  0  0  0
   -0.4582   -2.0886    0.6872 H   0  0  0  0  0  0  0  0  0  0  0  0
   -0.7147    1.4283    1.6470 H   0  0  0  0  0  0  0  0  0  0  0  0
   -1.1715   -0.1455    2.0139 H   0  0  0  0  0  0  0  0  0  0  0  0
    0.7240    1.9861   -0.2703 H   0  0  0  0  0  0  0  0  0  0  0  0
    1.9398    0.8367    0.3557 H   0  0  0  0  0  0  0  0  0  0  0  0
    2.0886   -0.0746   -1.5949 H   0  0  0  0  0  0  0  0  0  0  0  0
   -2.5542   -1.5444   -0.7075 H   0  0  0  0  0  0  0  0  0  0  0  0
   -1.3945   -2.8208   -0.2459 H   0  0  0  0  0  0  0  0  0  0  0  0
   -2.1905   -1.8408    1.0423 H   0  0  0  0  0  0  0  0  0  0  0  0
   -2.6853    3.1735    0.3073 H   0  0  0  0  0  0  0  0  0  0  0  0
   -3.1276    0.6293    0.2037 H   0  0  0  0  0  0  0  0  0  0  0  0
    3.1893   -1.5059   -0.7910 H   0  0  0  0  0  0  0  0  0  0  0  0
    3.4295   -0.7693    0.8458 H   0  0  0  0  0  0  0  0  0  0  0  0
    3.6804    0.1990   -0.6622 H   0  0  0  0  0  0  0  0  0  0  0  0
  1  2  1  0
  2  3  1  0
  2  4  1  0
  2  5  1  0
  5  6  1  0
  7  8  1  0
  8  9  1  0
  9 10  2  0
 10 11  1  0
 11 12  2  0
 12 13  1  0
 10 14  1  0
 14 15  2  0
 14 16  1  0
 16 17  1  0
 16 18  1  0
 18 19  2  0
 18  8  1  0
 13  9  1  0
  1 20  1  0
  1 21  1  0
  1 22  1  0
  3 23  1  0
  3 24  1  0
  3 25  1  0
  4 26  1  0
  4 27  1  0
  5 28  1  0
  5 29  1  0
  6 30  1  0
  7 31  1  0
  7 32  1  0
  7 33  1  0
 12 34  1  0
 13 35  1  0
 17 36  1  0
 17 37  1  0
 17 38  1  0
M  END
$$$$
