
     RDKit          3D

 98102  0  0  0  0  0  0  0  0999 V2000
    0.0000    0.0000    0.0000 I   0  0  0  0  0 15  0  0  0  0  0  0
    0.0000    0.0000    0.0000 I   0  0  0  0  0 15  0  0  0  0  0  0
    4.1062   -1.6308    0.4699 C   0  0  2  0  0  0  0  0  0  0  0  0
    2.8410   -2.3079    1.1048 C   0  0  0  0  0  0  0  0  0  0  0  0
    1.5451   -2.2147    0.3070 C   0  0  0  0  0  0  0  0  0  0  0  0
    0.3547   -2.6239    0.9343 C   0  0  0  0  0  0  0  0  0  0  0  0
   -0.8701   -2.5477    0.2646 C   0  0  0  0  0  0  0  0  0  0  0  0
   -0.9256   -2.0435   -1.0448 C   0  0  0  0  0  0  0  0  0  0  0  0
   -2.1244   -1.9116   -1.7540 O   0  0  0  0  0  0  0  0  0  0  0  0
   -3.4051   -1.9722   -1.2016 C   0  0  0  0  0  0  0  0  0  0  0  0
   -3.8363   -1.0272   -0.2172 C   0  0  0  0  0  0  0  0  0  0  0  0
   -5.0377   -1.3182    0.4733 C   0  0  0  0  0  0  0  0  0  0  0  0
   -5.4469   -0.5727    1.7017 C   0  0  0  0  0  0  0  0  0  0  0  0
   -4.2915    0.2504    2.2534 C   0  0  0  0  0  0  0  0  0  0  0  0
   -3.6522    1.1061    1.2143 N   0  0  0  0  0  4  0  0  0  0  0  0
   -2.6438    1.9294    1.9426 C   0  0  0  0  0  0  0  0  0  0  0  0
   -4.6673    2.0321    0.6369 C   0  0  0  0  0  0  0  0  0  0  0  0
   -2.9928    0.2303    0.1574 C   0  0  2  0  0  0  0  0  0  0  0  0
   -2.5781    1.0179   -1.1470 C   0  0  0  0  0  0  0  0  0  0  0  0
   -1.5536    2.1142   -0.9530 C   0  0  0  0  0  0  0  0  0  0  0  0
   -0.3240    1.8681   -0.3090 C   0  0  0  0  0  0  0  0  0  0  0  0
    0.5382    2.9345   -0.0023 C   0  0  0  0  0  0  0  0  0  0  0  0
    1.6526    2.7472    0.8211 O   0  0  0  0  0  0  0  0  0  0  0  0
    2.7837    2.0193    0.4450 C   0  0  0  0  0  0  0  0  0  0  0  0
    3.9018    2.7004   -0.0450 C   0  0  0  0  0  0  0  0  0  0  0  0
    3.8001    4.0826   -0.2661 O   0  0  0  0  0  0  0  0  0  0  0  0
    4.8513    4.9016   -0.7665 C   0  0  0  0  0  0  0  0  0  0  0  0
    5.0953    1.9940   -0.2590 C   0  0  0  0  0  0  0  0  0  0  0  0
    5.1682    0.6150   -0.0124 C   0  0  0  0  0  0  0  0  0  0  0  0
    6.5327   -0.0198    0.0271 C   0  0  0  0  0  0  0  0  0  0  0  0
    6.5246   -1.5457    0.2253 C   0  0  0  0  0  0  0  0  0  0  0  0
    5.4144   -2.0513    1.0889 N   0  0  0  0  0  4  0  0  0  0  0  0
    5.5663   -1.5466    2.4795 C   0  0  0  0  0  0  0  0  0  0  0  0
    5.5523   -3.5348    1.1218 C   0  0  0  0  0  0  0  0  0  0  0  0
    4.0161   -0.0968    0.3802 C   0  0  0  0  0  0  0  0  0  0  0  0
    2.8365    0.6371    0.6512 C   0  0  0  0  0  0  0  0  0  0  0  0
    0.2343    4.2321   -0.4395 C   0  0  0  0  0  0  0  0  0  0  0  0
    1.1205    5.2712   -0.1157 O   0  0  0  0  0  0  0  0  0  0  0  0
    0.9558    6.6274   -0.5159 C   0  0  0  0  0  0  0  0  0  0  0  0
   -0.9416    4.4558   -1.1763 C   0  0  0  0  0  0  0  0  0  0  0  0
   -1.8296    3.4084   -1.4211 C   0  0  0  0  0  0  0  0  0  0  0  0
   -5.8783   -2.3492    0.0433 C   0  0  0  0  0  0  0  0  0  0  0  0
   -5.5204   -3.1684   -1.0300 C   0  0  0  0  0  0  0  0  0  0  0  0
   -6.3643   -4.1881   -1.5011 O   0  0  0  0  0  0  0  0  0  0  0  0
   -7.6523   -4.4840   -0.9705 C   0  0  0  0  0  0  0  0  0  0  0  0
   -4.2804   -2.9961   -1.6485 C   0  0  0  0  0  0  0  0  0  0  0  0
   -3.9749   -3.8887   -2.6955 O   0  0  0  0  0  0  0  0  0  0  0  0
   -2.8257   -3.8617   -3.5352 C   0  0  0  0  0  0  0  0  0  0  0  0
    0.2540   -1.6711   -1.6865 C   0  0  0  0  0  0  0  0  0  0  0  0
    1.4784   -1.7575   -1.0279 C   0  0  0  0  0  0  0  0  0  0  0  0
    4.1354   -1.9952   -0.5792 H   0  0  0  0  0  0  0  0  0  0  0  0
    2.6737   -1.8834    2.1179 H   0  0  0  0  0  0  0  0  0  0  0  0
    3.0017   -3.3932    1.2355 H   0  0  0  0  0  0  0  0  0  0  0  0
    0.3753   -2.9983    1.9505 H   0  0  0  0  0  0  0  0  0  0  0  0
   -1.7705   -2.8685    0.7720 H   0  0  0  0  0  0  0  0  0  0  0  0
   -6.3241    0.0710    1.4779 H   0  0  0  0  0  0  0  0  0  0  0  0
   -5.7623   -1.2946    2.4873 H   0  0  0  0  0  0  0  0  0  0  0  0
   -4.6974    0.8608    3.0937 H   0  0  0  0  0  0  0  0  0  0  0  0
   -3.5391   -0.4455    2.6945 H   0  0  0  0  0  0  0  0  0  0  0  0
   -3.0777    2.3969    2.8555 H   0  0  0  0  0  0  0  0  0  0  0  0
   -2.2823    2.7892    1.3492 H   0  0  0  0  0  0  0  0  0  0  0  0
   -1.7715    1.3191    2.2657 H   0  0  0  0  0  0  0  0  0  0  0  0
   -4.1959    2.8700    0.0815 H   0  0  0  0  0  0  0  0  0  0  0  0
   -5.2921    2.4938    1.4342 H   0  0  0  0  0  0  0  0  0  0  0  0
   -5.3401    1.5068   -0.0747 H   0  0  0  0  0  0  0  0  0  0  0  0
   -2.0630   -0.1840    0.5939 H   0  0  0  0  0  0  0  0  0  0  0  0
   -2.1312    0.3607   -1.9065 H   0  0  0  0  0  0  0  0  0  0  0  0
   -3.4895    1.4095   -1.6457 H   0  0  0  0  0  0  0  0  0  0  0  0
   -0.0832    0.8738    0.0385 H   0  0  0  0  0  0  0  0  0  0  0  0
    5.7100    4.8930   -0.0627 H   0  0  0  0  0  0  0  0  0  0  0  0
    4.4825    5.9433   -0.8638 H   0  0  0  0  0  0  0  0  0  0  0  0
    5.1717    4.5426   -1.7673 H   0  0  0  0  0  0  0  0  0  0  0  0
    5.9908    2.5190   -0.5649 H   0  0  0  0  0  0  0  0  0  0  0  0
    7.0797    0.2190   -0.9112 H   0  0  0  0  0  0  0  0  0  0  0  0
    7.1010    0.4408    0.8645 H   0  0  0  0  0  0  0  0  0  0  0  0
    7.5165   -1.8373    0.6421 H   0  0  0  0  0  0  0  0  0  0  0  0
    6.4660   -2.0157   -0.7846 H   0  0  0  0  0  0  0  0  0  0  0  0
    6.5586   -1.8294    2.8971 H   0  0  0  0  0  0  0  0  0  0  0  0
    4.7879   -1.9720    3.1488 H   0  0  0  0  0  0  0  0  0  0  0  0
    5.4846   -0.4414    2.5377 H   0  0  0  0  0  0  0  0  0  0  0  0
    6.6029   -3.8422    1.3269 H   0  0  0  0  0  0  0  0  0  0  0  0
    4.9523   -3.9946    1.9366 H   0  0  0  0  0  0  0  0  0  0  0  0
    5.2503   -3.9907    0.1525 H   0  0  0  0  0  0  0  0  0  0  0  0
    1.9622    0.1707    1.0720 H   0  0  0  0  0  0  0  0  0  0  0  0
    1.8078    7.2241   -0.1308 H   0  0  0  0  0  0  0  0  0  0  0  0
    0.0140    7.0382   -0.0948 H   0  0  0  0  0  0  0  0  0  0  0  0
    0.9440    6.6993   -1.6240 H   0  0  0  0  0  0  0  0  0  0  0  0
   -1.1957    5.4433   -1.5364 H   0  0  0  0  0  0  0  0  0  0  0  0
   -2.7487    3.6161   -1.9548 H   0  0  0  0  0  0  0  0  0  0  0  0
   -6.8122   -2.5150    0.5648 H   0  0  0  0  0  0  0  0  0  0  0  0
   -8.0955   -5.3242   -1.5432 H   0  0  0  0  0  0  0  0  0  0  0  0
   -7.5663   -4.7870    0.0943 H   0  0  0  0  0  0  0  0  0  0  0  0
   -8.3171   -3.5996   -1.0654 H   0  0  0  0  0  0  0  0  0  0  0  0
   -1.9149   -4.1037   -2.9489 H   0  0  0  0  0  0  0  0  0  0  0  0
   -2.9402   -4.6346   -4.3225 H   0  0  0  0  0  0  0  0  0  0  0  0
   -2.7322   -2.8726   -4.0313 H   0  0  0  0  0  0  0  0  0  0  0  0
    0.2186   -1.2941   -2.7010 H   0  0  0  0  0  0  0  0  0  0  0  0
    2.3478   -1.4288   -1.5733 H   0  0  0  0  0  0  0  0  0  0  0  0
  3  4  1  0
  4  5  1  0
  5  6  2  0
  6  7  1  0
  7  8  2  0
  8  9  1  0
  9 10  1  0
 10 11  2  0
 11 12  1  0
 12 13  1  0
 13 14  1  0
 14 15  1  0
 15 16  1  0
 15 17  1  0
 15 18  1  0
 18 19  1  0
 19 20  1  0
 20 21  2  0
 21 22  1  0
 22 23  1  0
 23 24  1  0
 24 25  2  0
 25 26  1  0
 26 27  1  0
 25 28  1  0
 28 29  2  0
 29 30  1  0
 30 31  1  0
 31 32  1  0
 32 33  1  0
 32 34  1  0
 29 35  1  0
 35 36  2  0
 22 37  2  0
 37 38  1  0
 38 39  1  0
 37 40  1  0
 40 41  2  0
 12 42  2  0
 42 43  1  0
 43 44  1  0
 44 45  1  0
 43 46  2  0
 46 47  1  0
 47 48  1  0
  8 49  1  0
 49 50  2  0
 32  3  1  0
 35  3  1  0
 50  5  1  0
 46 10  1  0
 18 11  1  0
 41 20  1  0
 36 24  1  0
  3 51  1  6
  4 52  1  0
  4 53  1  0
  6 54  1  0
  7 55  1  0
 13 56  1  0
 13 57  1  0
 14 58  1  0
 14 59  1  0
 16 60  1  0
 16 61  1  0
 16 62  1  0
 17 63  1  0
 17 64  1  0
 17 65  1  0
 18 66  1  1
 19 67  1  0
 19 68  1  0
 21 69  1  0
 27 70  1  0
 27 71  1  0
 27 72  1  0
 28 73  1  0
 30 74  1  0
 30 75  1  0
 31 76  1  0
 31 77  1  0
 33 78  1  0
 33 79  1  0
 33 80  1  0
 34 81  1  0
 34 82  1  0
 34 83  1  0
 36 84  1  0
 39 85  1  0
 39 86  1  0
 39 87  1  0
 40 88  1  0
 41 89  1  0
 42 90  1  0
 45 91  1  0
 45 92  1  0
 45 93  1  0
 48 94  1  0
 48 95  1  0
 48 96  1  0
 49 97  1  0
 50 98  1  0
M  CHG  4   1  -1   2  -1  15   1  32   1
M  END
$$$$
