
     RDKit          3D

 44 47  0  0  0  0  0  0  0  0999 V2000
   -4.9998   -2.6064    1.2334 C   0  0  0  0  0  0  0  0  0  0  0  0
   -3.7634   -2.3394    0.4826 N   0  0  0  0  0  0  0  0  0  0  0  0
   -2.8140   -1.5930    1.3283 C   0  0  0  0  0  0  0  0  0  0  0  0
   -1.4915   -1.3876    0.5864 C   0  0  0  0  0  0  0  0  0  0  0  0
   -1.7299   -0.7938   -0.7357 N   0  0  0  0  0  0  0  0  0  0  0  0
   -2.8046   -1.3565   -1.5648 C   0  0  0  0  0  0  0  0  0  0  0  0
   -4.0717   -1.5623   -0.7319 C   0  0  0  0  0  0  0  0  0  0  0  0
   -0.7110    0.0283   -1.3376 C   0  0  0  0  0  0  0  0  0  0  0  0
   -0.8182    0.3932   -2.5412 O   0  0  0  0  0  0  0  0  0  0  0  0
    0.4053    0.4163   -0.5870 O   0  0  0  0  0  0  0  0  0  0  0  0
    1.4570    1.2294   -1.1031 C   0  0  0  0  0  0  0  0  0  0  0  0
    2.6018    1.2123   -0.1740 N   0  0  0  0  0  0  0  0  0  0  0  0
    2.7872    2.5371    0.3407 C   0  0  0  0  0  0  0  0  0  0  0  0
    3.6085    2.8602    1.2388 O   0  0  0  0  0  0  0  0  0  0  0  0
    1.8284    3.4157   -0.2672 C   0  0  0  0  0  0  0  0  0  0  0  0
    1.6366    4.7455   -0.0933 N   0  0  0  0  0  0  0  0  0  0  0  0
    0.6373    5.3558   -0.7960 C   0  0  0  0  0  0  0  0  0  0  0  0
   -0.1684    4.6001   -1.6766 C   0  0  0  0  0  0  0  0  0  0  0  0
    0.0516    3.2596   -1.8219 N   0  0  0  0  0  0  0  0  0  0  0  0
    1.0509    2.6760   -1.1138 C   0  0  0  0  0  0  0  0  0  0  0  0
    3.3541    0.0296    0.1555 C   0  0  0  0  0  0  0  0  0  0  0  0
    2.7856   -1.1952   -0.0305 N   0  0  0  0  0  0  0  0  0  0  0  0
    3.4434   -2.3511    0.2500 C   0  0  0  0  0  0  0  0  0  0  0  0
    4.7504   -2.3095    0.7390 C   0  0  0  0  0  0  0  0  0  0  0  0
    5.6100   -3.7944    1.1028 Cl  0  0  0  0  0  0  0  0  0  0  0  0
    5.3681   -1.0715    0.9249 C   0  0  0  0  0  0  0  0  0  0  0  0
    4.6753    0.1047    0.6298 C   0  0  0  0  0  0  0  0  0  0  0  0
   -4.7753   -3.2162    2.1349 H   0  0  0  0  0  0  0  0  0  0  0  0
   -5.7070   -3.1937    0.6089 H   0  0  0  0  0  0  0  0  0  0  0  0
   -5.4945   -1.6606    1.5494 H   0  0  0  0  0  0  0  0  0  0  0  0
   -3.2332   -0.6018    1.6184 H   0  0  0  0  0  0  0  0  0  0  0  0
   -2.6024   -2.1642    2.2594 H   0  0  0  0  0  0  0  0  0  0  0  0
   -0.8456   -0.7307    1.2079 H   0  0  0  0  0  0  0  0  0  0  0  0
   -0.9785   -2.3657    0.4599 H   0  0  0  0  0  0  0  0  0  0  0  0
   -3.0520   -0.6779   -2.4095 H   0  0  0  0  0  0  0  0  0  0  0  0
   -2.4708   -2.3310   -1.9827 H   0  0  0  0  0  0  0  0  0  0  0  0
   -4.5077   -0.5704   -0.4702 H   0  0  0  0  0  0  0  0  0  0  0  0
   -4.8110   -2.1101   -1.3576 H   0  0  0  0  0  0  0  0  0  0  0  0
    1.7782    0.8908   -2.1125 H   0  0  0  0  0  0  0  0  0  0  0  0
    0.4645    6.4169   -0.6762 H   0  0  0  0  0  0  0  0  0  0  0  0
   -0.9613    5.0797   -2.2347 H   0  0  0  0  0  0  0  0  0  0  0  0
    2.9489   -3.3002    0.0908 H   0  0  0  0  0  0  0  0  0  0  0  0
    6.3864   -1.0195    1.2890 H   0  0  0  0  0  0  0  0  0  0  0  0
    5.1822    1.0515    0.7451 H   0  0  0  0  0  0  0  0  0  0  0  0
  1  2  1  0
  2  3  1  0
  3  4  1  0
  4  5  1  0
  5  6  1  0
  6  7  1  0
  5  8  1  0
  8  9  2  0
  8 10  1  0
 10 11  1  0
 11 12  1  0
 12 13  1  0
 13 14  2  0
 13 15  1  0
 15 16  2  0
 16 17  1  0
 17 18  2  0
 18 19  1  0
 19 20  2  0
 12 21  1  0
 21 22  2  0
 22 23  1  0
 23 24  2  0
 24 25  1  0
 24 26  1  0
 26 27  2  0
  7  2  1  0
 20 11  1  0
 27 21  1  0
 20 15  1  0
  1 28  1  0
  1 29  1  0
  1 30  1  0
  3 31  1  0
  3 32  1  0
  4 33  1  0
  4 34  1  0
  6 35  1  0
  6 36  1  0
  7 37  1  0
  7 38  1  0
 11 39  1  0
 17 40  1  0
 18 41  1  0
 23 42  1  0
 26 43  1  0
 27 44  1  0
M  END
$$$$
