
     RDKit          3D

 26 26  0  0  0  0  0  0  0  0999 V2000
   -3.5306    0.4061   -0.3161 C   0  0  0  0  0  0  0  0  0  0  0  0
   -2.1065   -0.1642   -0.4142 C   0  0  2  0  0  0  0  0  0  0  0  0
   -1.8714   -1.1405    0.6539 N   0  0  0  0  0  0  0  0  0  0  0  0
   -1.0451    0.9647   -0.3459 C   0  0  2  0  0  0  0  0  0  0  0  0
   -1.2350    1.9212   -1.3608 O   0  0  0  0  0  0  0  0  0  0  0  0
    0.3701    0.4165   -0.4012 C   0  0  0  0  0  0  0  0  0  0  0  0
    1.2282    0.5662    0.7013 C   0  0  0  0  0  0  0  0  0  0  0  0
    2.5340    0.0606    0.6739 C   0  0  0  0  0  0  0  0  0  0  0  0
    3.3292    0.2475    1.8065 O   0  0  0  0  0  0  0  0  0  0  0  0
    2.9965   -0.6125   -0.4813 C   0  0  0  0  0  0  0  0  0  0  0  0
    4.2846   -1.1420   -0.5821 O   0  0  0  0  0  0  0  0  0  0  0  0
    2.1400   -0.7631   -1.5769 C   0  0  0  0  0  0  0  0  0  0  0  0
    0.8399   -0.2565   -1.5410 C   0  0  0  0  0  0  0  0  0  0  0  0
   -3.6654    0.9634    0.6355 H   0  0  0  0  0  0  0  0  0  0  0  0
   -3.7328    1.0913   -1.1662 H   0  0  0  0  0  0  0  0  0  0  0  0
   -4.2742   -0.4180   -0.3558 H   0  0  0  0  0  0  0  0  0  0  0  0
   -2.0179   -0.6878   -1.3920 H   0  0  0  0  0  0  0  0  0  0  0  0
   -2.5418   -1.9352    0.5385 H   0  0  0  0  0  0  0  0  0  0  0  0
   -2.0674   -0.6958    1.5807 H   0  0  0  0  0  0  0  0  0  0  0  0
   -1.1885    1.4945    0.6220 H   0  0  0  0  0  0  0  0  0  0  0  0
   -1.2754    1.4449   -2.2305 H   0  0  0  0  0  0  0  0  0  0  0  0
    0.8839    1.0771    1.5923 H   0  0  0  0  0  0  0  0  0  0  0  0
    4.2813   -0.0789    1.8883 H   0  0  0  0  0  0  0  0  0  0  0  0
    4.9773   -1.0854    0.1504 H   0  0  0  0  0  0  0  0  0  0  0  0
    2.4854   -1.2791   -2.4640 H   0  0  0  0  0  0  0  0  0  0  0  0
    0.2016   -0.3950   -2.4038 H   0  0  0  0  0  0  0  0  0  0  0  0
  1  2  1  0
  2  3  1  0
  2  4  1  0
  4  5  1  0
  4  6  1  0
  6  7  2  0
  7  8  1  0
  8  9  1  0
  8 10  2  0
 10 11  1  0
 10 12  1  0
 12 13  2  0
 13  6  1  0
  1 14  1  0
  1 15  1  0
  1 16  1  0
  2 17  1  6
  3 18  1  0
  3 19  1  0
  4 20  1  1
  5 21  1  0
  7 22  1  0
  9 23  1  0
 11 24  1  0
 12 25  1  0
 13 26  1  0
M  END
$$$$
