
     RDKit          3D

 75 78  0  0  0  0  0  0  0  0999 V2000
    1.8046    0.5775   -0.2070 C   0  0  2  0  0  0  0  0  0  0  0  0
    2.2438   -0.6910   -0.9878 C   0  0  0  0  0  0  0  0  0  0  0  0
    1.5546   -1.9933   -0.5653 C   0  0  0  0  0  0  0  0  0  0  0  0
    2.4008    0.7737    1.1889 C   0  0  0  0  0  0  0  0  0  0  0  0
    3.2142   -0.1873    1.8250 C   0  0  0  0  0  0  0  0  0  0  0  0
    3.7813    0.0616    3.0899 C   0  0  0  0  0  0  0  0  0  0  0  0
    4.6356   -0.8963    3.7442 N   0  0  0  0  0  0  0  0  0  0  0  0
    5.0895   -2.4273    3.0613 S   0  0  0  0  0  6  0  0  0  0  0  0
    6.0792   -3.1033    3.9671 O   0  0  0  0  0  0  0  0  0  0  0  0
    3.8651   -3.2915    2.9414 O   0  0  0  0  0  0  0  0  0  0  0  0
    5.8349   -2.1827    1.4882 C   0  0  0  0  0  0  0  0  0  0  0  0
    6.6886   -1.1401    1.3098 N   0  0  0  0  0  0  0  0  0  0  0  0
    7.2524   -0.8709    0.1024 C   0  0  0  0  0  0  0  0  0  0  0  0
    6.9667   -1.6804   -1.0095 C   0  0  0  0  0  0  0  0  0  0  0  0
    6.0653   -2.7440   -0.8465 C   0  0  0  0  0  0  0  0  0  0  0  0
    5.5063   -3.0047    0.4050 C   0  0  0  0  0  0  0  0  0  0  0  0
    7.5309   -1.3516   -2.3678 C   0  0  0  0  0  0  0  0  0  0  0  0
    8.7697   -0.7458   -2.2489 F   0  0  0  0  0  0  0  0  0  0  0  0
    7.6814   -2.5010   -3.1242 F   0  0  0  0  0  0  0  0  0  0  0  0
    6.6691   -0.4911   -3.0218 F   0  0  0  0  0  0  0  0  0  0  0  0
    3.5160    1.2825    3.7249 C   0  0  0  0  0  0  0  0  0  0  0  0
    2.7141    2.2419    3.1076 C   0  0  0  0  0  0  0  0  0  0  0  0
    2.1682    1.9949    1.8479 C   0  0  0  0  0  0  0  0  0  0  0  0
    0.2870    0.7780   -0.2452 C   0  0  0  0  0  0  0  0  0  0  0  0
   -0.5421    0.2485    0.6819 C   0  0  0  0  0  0  0  0  0  0  0  0
   -0.0350   -0.5327    1.7200 O   0  0  0  0  0  0  0  0  0  0  0  0
   -2.0270    0.5395    0.6596 C   0  0  0  0  0  0  0  0  0  0  0  0
   -2.5853    0.7300   -0.7789 C   0  0  1  0  0  0  0  0  0  0  0  0
   -2.6466   -0.6456   -1.5101 C   0  0  0  0  0  0  0  0  0  0  0  0
   -3.0355   -0.5656   -3.0052 C   0  0  0  0  0  0  0  0  0  0  0  0
   -4.4682   -1.0267   -3.2672 C   0  0  0  0  0  0  0  0  0  0  0  0
   -3.9713    1.4322   -0.7273 C   0  0  0  0  0  0  0  0  0  0  0  0
   -5.0517    0.6982    0.0903 C   0  0  0  0  0  0  0  0  0  0  0  0
   -6.3397    1.4790    0.0780 C   0  0  0  0  0  0  0  0  0  0  0  0
   -7.3399    1.1912   -0.8662 C   0  0  0  0  0  0  0  0  0  0  0  0
   -8.5201    1.9408   -0.8928 C   0  0  0  0  0  0  0  0  0  0  0  0
   -8.7071    2.9862    0.0156 C   0  0  0  0  0  0  0  0  0  0  0  0
   -7.7128    3.2857    0.9508 C   0  0  0  0  0  0  0  0  0  0  0  0
   -6.5311    2.5387    0.9810 C   0  0  0  0  0  0  0  0  0  0  0  0
   -1.7042    1.5963   -1.5012 O   0  0  0  0  0  0  0  0  0  0  0  0
   -0.3163    1.5479   -1.3586 C   0  0  0  0  0  0  0  0  0  0  0  0
    0.4050    2.1772   -2.1769 O   0  0  0  0  0  0  0  0  0  0  0  0
    2.2590    1.4116   -0.7855 H   0  0  0  0  0  0  0  0  0  0  0  0
    3.3466   -0.8131   -0.9219 H   0  0  0  0  0  0  0  0  0  0  0  0
    2.0205   -0.5324   -2.0659 H   0  0  0  0  0  0  0  0  0  0  0  0
    0.4856   -1.9772   -0.8565 H   0  0  0  0  0  0  0  0  0  0  0  0
    1.6254   -2.1694    0.5253 H   0  0  0  0  0  0  0  0  0  0  0  0
    2.0370   -2.8471   -1.0859 H   0  0  0  0  0  0  0  0  0  0  0  0
    3.4159   -1.1212    1.3391 H   0  0  0  0  0  0  0  0  0  0  0  0
    5.0255   -0.6671    4.6858 H   0  0  0  0  0  0  0  0  0  0  0  0
    7.9140   -0.0196    0.0103 H   0  0  0  0  0  0  0  0  0  0  0  0
    5.7882   -3.3676   -1.6871 H   0  0  0  0  0  0  0  0  0  0  0  0
    4.8102   -3.8253    0.5213 H   0  0  0  0  0  0  0  0  0  0  0  0
    3.9389    1.4949    4.6988 H   0  0  0  0  0  0  0  0  0  0  0  0
    2.5216    3.1845    3.6036 H   0  0  0  0  0  0  0  0  0  0  0  0
    1.5606    2.7606    1.3811 H   0  0  0  0  0  0  0  0  0  0  0  0
   -0.6368   -0.9131    2.4403 H   0  0  0  0  0  0  0  0  0  0  0  0
   -2.1918    1.4639    1.2547 H   0  0  0  0  0  0  0  0  0  0  0  0
   -2.5644   -0.2896    1.1680 H   0  0  0  0  0  0  0  0  0  0  0  0
   -1.6368   -1.1038   -1.4648 H   0  0  0  0  0  0  0  0  0  0  0  0
   -3.3063   -1.3528   -0.9638 H   0  0  0  0  0  0  0  0  0  0  0  0
   -2.3586   -1.2289   -3.5871 H   0  0  0  0  0  0  0  0  0  0  0  0
   -2.9013    0.4601   -3.4094 H   0  0  0  0  0  0  0  0  0  0  0  0
   -5.1955   -0.3577   -2.7687 H   0  0  0  0  0  0  0  0  0  0  0  0
   -4.6693   -1.0060   -4.3590 H   0  0  0  0  0  0  0  0  0  0  0  0
   -4.6138   -2.0656   -2.9022 H   0  0  0  0  0  0  0  0  0  0  0  0
   -4.3423    1.5989   -1.7608 H   0  0  0  0  0  0  0  0  0  0  0  0
   -3.8301    2.4448   -0.2876 H   0  0  0  0  0  0  0  0  0  0  0  0
   -4.7222    0.5758    1.1434 H   0  0  0  0  0  0  0  0  0  0  0  0
   -5.2308   -0.3171   -0.3189 H   0  0  0  0  0  0  0  0  0  0  0  0
   -7.2088    0.3871   -1.5787 H   0  0  0  0  0  0  0  0  0  0  0  0
   -9.2892    1.7124   -1.6194 H   0  0  0  0  0  0  0  0  0  0  0  0
   -9.6207    3.5659   -0.0072 H   0  0  0  0  0  0  0  0  0  0  0  0
   -7.8563    4.0989    1.6505 H   0  0  0  0  0  0  0  0  0  0  0  0
   -5.7648    2.7863    1.7052 H   0  0  0  0  0  0  0  0  0  0  0  0
  1  2  1  0
  2  3  1  0
  1  4  1  0
  4  5  2  0
  5  6  1  0
  6  7  1  0
  7  8  1  0
  8  9  2  0
  8 10  2  0
  8 11  1  0
 11 12  2  0
 12 13  1  0
 13 14  2  0
 14 15  1  0
 15 16  2  0
 14 17  1  0
 17 18  1  0
 17 19  1  0
 17 20  1  0
  6 21  2  0
 21 22  1  0
 22 23  2  0
  1 24  1  0
 24 25  2  0
 25 26  1  0
 25 27  1  0
 27 28  1  0
 28 29  1  6
 29 30  1  0
 30 31  1  0
 28 32  1  0
 32 33  1  0
 33 34  1  0
 34 35  2  0
 35 36  1  0
 36 37  2  0
 37 38  1  0
 38 39  2  0
 28 40  1  0
 40 41  1  0
 41 42  2  0
 23  4  1  0
 41 24  1  0
 16 11  1  0
 39 34  1  0
  1 43  1  6
  2 44  1  0
  2 45  1  0
  3 46  1  0
  3 47  1  0
  3 48  1  0
  5 49  1  0
  7 50  1  0
 13 51  1  0
 15 52  1  0
 16 53  1  0
 21 54  1  0
 22 55  1  0
 23 56  1  0
 26 57  1  0
 27 58  1  0
 27 59  1  0
 29 60  1  0
 29 61  1  0
 30 62  1  0
 30 63  1  0
 31 64  1  0
 31 65  1  0
 31 66  1  0
 32 67  1  0
 32 68  1  0
 33 69  1  0
 33 70  1  0
 35 71  1  0
 36 72  1  0
 37 73  1  0
 38 74  1  0
 39 75  1  0
M  END
$$$$
