
     RDKit          3D

 44 46  0  0  0  0  0  0  0  0999 V2000
   -2.5812   -3.4371   -1.2603 C   0  0  0  0  0  0  0  0  0  0  0  0
   -3.5007   -2.2155   -1.2579 C   0  0  0  0  0  0  0  0  0  0  0  0
   -3.0184   -1.1139   -0.3026 C   0  0  0  0  0  0  0  0  0  0  0  0
   -1.7687   -0.3925   -0.8203 C   0  0  0  0  0  0  0  0  0  0  0  0
   -1.3686    0.6581    0.1164 N   0  0  0  0  0  0  0  0  0  0  0  0
   -0.5752    0.5665    1.2218 C   0  0  0  0  0  0  0  0  0  0  0  0
    0.1557   -0.6764    1.6442 C   0  0  0  0  0  0  0  0  0  0  0  0
    1.4295   -0.8427    0.8583 C   0  0  0  0  0  0  0  0  0  0  0  0
    2.4713    0.0887    0.9956 C   0  0  0  0  0  0  0  0  0  0  0  0
    3.6548   -0.0600    0.2667 C   0  0  0  0  0  0  0  0  0  0  0  0
    3.8166   -1.1503   -0.6091 C   0  0  0  0  0  0  0  0  0  0  0  0
    4.9835   -1.3430   -1.3635 O   0  0  0  0  0  0  0  0  0  0  0  0
    6.1126   -0.4761   -1.3327 C   0  0  0  0  0  0  0  0  0  0  0  0
    2.7804   -2.0823   -0.7370 C   0  0  0  0  0  0  0  0  0  0  0  0
    1.5970   -1.9345   -0.0083 C   0  0  0  0  0  0  0  0  0  0  0  0
   -0.4640    1.7400    1.9060 N   0  0  0  0  0  0  0  0  0  0  0  0
   -1.2424    2.5744    1.1928 C   0  0  0  0  0  0  0  0  0  0  0  0
   -1.5361    3.9148    1.4150 C   0  0  0  0  0  0  0  0  0  0  0  0
   -0.9860    4.6325    2.5198 N   0  0  0  0  0  0  0  0  0  0  0  0
   -2.3803    4.5323    0.5351 N   0  0  0  0  0  0  0  0  0  0  0  0
   -2.9212    3.8571   -0.5299 C   0  0  0  0  0  0  0  0  0  0  0  0
   -2.6246    2.5388   -0.7387 N   0  0  0  0  0  0  0  0  0  0  0  0
   -1.7847    1.9308    0.1341 C   0  0  0  0  0  0  0  0  0  0  0  0
   -2.4329   -3.8150   -0.2264 H   0  0  0  0  0  0  0  0  0  0  0  0
   -3.0423   -4.2440   -1.8679 H   0  0  0  0  0  0  0  0  0  0  0  0
   -1.5965   -3.1897   -1.7077 H   0  0  0  0  0  0  0  0  0  0  0  0
   -4.5121   -2.5428   -0.9331 H   0  0  0  0  0  0  0  0  0  0  0  0
   -3.5925   -1.8148   -2.2907 H   0  0  0  0  0  0  0  0  0  0  0  0
   -3.8345   -0.3672   -0.1901 H   0  0  0  0  0  0  0  0  0  0  0  0
   -2.8213   -1.5460    0.7022 H   0  0  0  0  0  0  0  0  0  0  0  0
   -1.9812    0.0573   -1.8147 H   0  0  0  0  0  0  0  0  0  0  0  0
   -0.9330   -1.1060   -0.9534 H   0  0  0  0  0  0  0  0  0  0  0  0
   -0.5084   -1.5582    1.5238 H   0  0  0  0  0  0  0  0  0  0  0  0
    0.4046   -0.6075    2.7251 H   0  0  0  0  0  0  0  0  0  0  0  0
    2.3651    0.9323    1.6666 H   0  0  0  0  0  0  0  0  0  0  0  0
    4.4365    0.6767    0.3919 H   0  0  0  0  0  0  0  0  0  0  0  0
    5.8206    0.5430   -1.6634 H   0  0  0  0  0  0  0  0  0  0  0  0
    6.5373   -0.4385   -0.3073 H   0  0  0  0  0  0  0  0  0  0  0  0
    6.8876   -0.8656   -2.0241 H   0  0  0  0  0  0  0  0  0  0  0  0
    2.8940   -2.9271   -1.4045 H   0  0  0  0  0  0  0  0  0  0  0  0
    0.8131   -2.6731   -0.1218 H   0  0  0  0  0  0  0  0  0  0  0  0
   -1.2254    5.6386    2.6631 H   0  0  0  0  0  0  0  0  0  0  0  0
   -0.3405    4.1668    3.1958 H   0  0  0  0  0  0  0  0  0  0  0  0
   -3.5871    4.3713   -1.2090 H   0  0  0  0  0  0  0  0  0  0  0  0
  1  2  1  0
  2  3  1  0
  3  4  1  0
  4  5  1  0
  5  6  1  0
  6  7  1  0
  7  8  1  0
  8  9  2  0
  9 10  1  0
 10 11  2  0
 11 12  1  0
 12 13  1  0
 11 14  1  0
 14 15  2  0
  6 16  2  0
 16 17  1  0
 17 18  2  0
 18 19  1  0
 18 20  1  0
 20 21  2  0
 21 22  1  0
 22 23  2  0
 23  5  1  0
 15  8  1  0
 23 17  1  0
  1 24  1  0
  1 25  1  0
  1 26  1  0
  2 27  1  0
  2 28  1  0
  3 29  1  0
  3 30  1  0
  4 31  1  0
  4 32  1  0
  7 33  1  0
  7 34  1  0
  9 35  1  0
 10 36  1  0
 13 37  1  0
 13 38  1  0
 13 39  1  0
 14 40  1  0
 15 41  1  0
 19 42  1  0
 19 43  1  0
 21 44  1  0
M  END
$$$$
