
     RDKit          3D

 26 25  0  0  0  0  0  0  0  0999 V2000
    3.3706    0.0394   -0.9635 C   0  0  0  0  0  0  0  0  0  0  0  0
    2.1280    0.4596   -0.3284 N   0  0  0  0  0  0  0  0  0  0  0  0
    1.3981   -0.4129    0.5475 C   0  0  0  0  0  0  0  0  0  0  0  0
    1.8378   -1.5712    0.7856 O   0  0  0  0  0  0  0  0  0  0  0  0
    0.0943    0.0227    1.1797 C   0  0  1  0  0  0  0  0  0  0  0  0
    0.2208    1.4024    1.6691 N   0  0  0  0  0  0  0  0  0  0  0  0
   -1.1572   -0.2110    0.2497 C   0  0  0  0  0  0  0  0  0  0  0  0
   -1.0154    0.4757   -1.1300 C   0  0  0  0  0  0  0  0  0  0  0  0
   -2.4362    0.3194    0.9358 C   0  0  0  0  0  0  0  0  0  0  0  0
   -1.3432   -1.7284    0.0148 C   0  0  0  0  0  0  0  0  0  0  0  0
    3.1861   -0.8537   -1.5970 H   0  0  0  0  0  0  0  0  0  0  0  0
    4.1264   -0.2042   -0.1874 H   0  0  0  0  0  0  0  0  0  0  0  0
    3.7634    0.8579   -1.6030 H   0  0  0  0  0  0  0  0  0  0  0  0
    1.7644    1.4158   -0.5370 H   0  0  0  0  0  0  0  0  0  0  0  0
   -0.0434   -0.6202    2.0805 H   0  0  0  0  0  0  0  0  0  0  0  0
    0.0323    2.0915    0.9091 H   0  0  0  0  0  0  0  0  0  0  0  0
   -0.4793    1.5670    2.4283 H   0  0  0  0  0  0  0  0  0  0  0  0
   -1.9222    0.2931   -1.7466 H   0  0  0  0  0  0  0  0  0  0  0  0
   -0.8982    1.5738   -1.0353 H   0  0  0  0  0  0  0  0  0  0  0  0
   -0.1486    0.0709   -1.6927 H   0  0  0  0  0  0  0  0  0  0  0  0
   -2.4122    1.4259    1.0276 H   0  0  0  0  0  0  0  0  0  0  0  0
   -3.3404    0.0559    0.3450 H   0  0  0  0  0  0  0  0  0  0  0  0
   -2.5462   -0.1186    1.9513 H   0  0  0  0  0  0  0  0  0  0  0  0
   -0.4752   -2.1576   -0.5291 H   0  0  0  0  0  0  0  0  0  0  0  0
   -2.2521   -1.9266   -0.5941 H   0  0  0  0  0  0  0  0  0  0  0  0
   -1.4525   -2.2666    0.9811 H   0  0  0  0  0  0  0  0  0  0  0  0
  1  2  1  0
  2  3  1  0
  3  4  2  0
  3  5  1  0
  5  6  1  0
  5  7  1  0
  7  8  1  0
  7  9  1  0
  7 10  1  0
  1 11  1  0
  1 12  1  0
  1 13  1  0
  2 14  1  0
  5 15  1  1
  6 16  1  0
  6 17  1  0
  8 18  1  0
  8 19  1  0
  8 20  1  0
  9 21  1  0
  9 22  1  0
  9 23  1  0
 10 24  1  0
 10 25  1  0
 10 26  1  0
M  END
$$$$
