
     RDKit          3D

 38 41  0  0  0  0  0  0  0  0999 V2000
   -2.7331    3.4683    0.7472 O   0  0  0  0  0  0  0  0  0  0  0  0
   -1.8656    2.9120    1.6815 C   0  0  0  0  0  0  0  0  0  0  0  0
   -0.7968    3.5074    1.9827 O   0  0  0  0  0  0  0  0  0  0  0  0
   -2.1913    1.5927    2.3037 C   0  0  0  0  0  0  0  0  0  0  0  0
   -2.0867    0.5576    1.3376 O   0  0  0  0  0  0  0  0  0  0  0  0
   -0.8710    0.2487    0.7708 N   0  0  0  0  0  0  0  0  0  0  0  0
   -0.7311   -0.6865   -0.1161 C   0  0  0  0  0  0  0  0  0  0  0  0
   -1.7082   -1.6999   -0.4929 C   0  0  0  0  0  0  0  0  0  0  0  0
   -3.0309   -1.7596   -0.3455 C   0  0  0  0  0  0  0  0  0  0  0  0
   -3.7486   -2.9571   -0.8357 C   0  0  0  0  0  0  0  0  0  0  0  0
   -3.1030   -3.9863   -1.4183 C   0  0  0  0  0  0  0  0  0  0  0  0
   -1.5992   -4.0183   -1.6223 C   0  0  0  0  0  0  0  0  0  0  0  0
   -0.9490   -2.7635   -1.1208 C   0  0  0  0  0  0  0  0  0  0  0  0
    0.3210   -2.5145   -1.1829 N   0  0  0  0  0  0  0  0  0  0  0  0
    0.5449   -1.2196   -0.6101 C   0  0  0  0  0  0  0  0  0  0  0  0
    1.7666   -0.6621   -0.5389 C   0  0  0  0  0  0  0  0  0  0  0  0
    3.0464   -1.3426   -0.7485 C   0  0  0  0  0  0  0  0  0  0  0  0
    3.1838   -2.5327   -1.1365 O   0  0  0  0  0  0  0  0  0  0  0  0
    4.1509   -0.5005   -0.4245 N   0  0  0  0  0  0  0  0  0  0  0  0
    3.6530    0.6389   -0.0640 C   0  0  0  0  0  0  0  0  0  0  0  0
    4.4711    1.8449    0.2907 C   0  0  0  0  0  0  0  0  0  0  0  0
    3.6147    3.0931    0.3725 C   0  0  0  0  0  0  0  0  0  0  0  0
    2.2824    3.0861    0.1816 C   0  0  0  0  0  0  0  0  0  0  0  0
    1.5411    1.8410   -0.1154 C   0  0  0  0  0  0  0  0  0  0  0  0
    2.1984    0.6798   -0.1357 C   0  0  0  0  0  0  0  0  0  0  0  0
   -2.5218    4.3556    0.3064 H   0  0  0  0  0  0  0  0  0  0  0  0
   -3.2308    1.6210    2.6913 H   0  0  0  0  0  0  0  0  0  0  0  0
   -1.5060    1.3810    3.1531 H   0  0  0  0  0  0  0  0  0  0  0  0
   -3.5886   -0.9531    0.1079 H   0  0  0  0  0  0  0  0  0  0  0  0
   -4.8241   -3.0027   -0.7210 H   0  0  0  0  0  0  0  0  0  0  0  0
   -3.6799   -4.8378   -1.7565 H   0  0  0  0  0  0  0  0  0  0  0  0
   -1.3832   -4.1337   -2.7052 H   0  0  0  0  0  0  0  0  0  0  0  0
   -1.1787   -4.8898   -1.0781 H   0  0  0  0  0  0  0  0  0  0  0  0
    4.9629    1.6761    1.2714 H   0  0  0  0  0  0  0  0  0  0  0  0
    5.2545    1.9968   -0.4815 H   0  0  0  0  0  0  0  0  0  0  0  0
    4.1049    4.0337    0.5900 H   0  0  0  0  0  0  0  0  0  0  0  0
    1.7341    4.0178    0.2361 H   0  0  0  0  0  0  0  0  0  0  0  0
    0.4967    1.9077   -0.3744 H   0  0  0  0  0  0  0  0  0  0  0  0
  1  2  1  0
  2  3  2  0
  2  4  1  0
  4  5  1  0
  5  6  1  0
  6  7  2  0
  7  8  1  0
  8  9  2  0
  9 10  1  0
 10 11  2  0
 11 12  1  0
 12 13  1  0
 13 14  2  0
 14 15  1  0
 15 16  2  0
 16 17  1  0
 17 18  2  0
 17 19  1  0
 19 20  2  0
 20 21  1  0
 21 22  1  0
 22 23  2  0
 23 24  1  0
 24 25  2  0
 15  7  1  0
 25 16  1  0
 13  8  1  0
 25 20  1  0
  1 26  1  0
  4 27  1  0
  4 28  1  0
  9 29  1  0
 10 30  1  0
 11 31  1  0
 12 32  1  0
 12 33  1  0
 21 34  1  0
 21 35  1  0
 22 36  1  0
 23 37  1  0
 24 38  1  0
M  END
$$$$
