
     RDKit          3D

 48 48  0  0  0  0  0  0  0  0999 V2000
   -3.3144    2.8483    0.9072 C   0  0  2  0  0  0  0  0  0  0  0  0
   -3.7300    3.8493   -0.1737 C   0  0  0  0  0  0  0  0  0  0  0  0
   -2.7155    1.6543    0.3029 N   0  0  0  0  0  0  0  0  0  0  0  0
   -2.0068    0.6804    1.0832 C   0  0  0  0  0  0  0  0  0  0  0  0
   -1.8158    0.8782    2.3148 O   0  0  0  0  0  0  0  0  0  0  0  0
   -1.4429   -0.5510    0.4125 C   0  0  1  0  0  0  0  0  0  0  0  0
   -0.1160   -0.2498   -0.1396 N   0  0  0  0  0  0  0  0  0  0  0  0
    1.0312    0.1090    0.6472 C   0  0  0  0  0  0  0  0  0  0  0  0
    0.9434    0.2364    1.8975 O   0  0  0  0  0  0  0  0  0  0  0  0
    2.3397    0.3696   -0.0244 C   0  0  1  0  0  0  0  0  0  0  0  0
    3.3738   -0.3916    0.5560 O   0  0  0  0  0  0  0  0  0  0  0  0
    2.9395   -0.7915   -0.7232 C   0  0  2  0  0  0  0  0  0  0  0  0
    3.9495   -0.4554   -1.7672 C   0  0  0  0  0  0  0  0  0  0  0  0
    3.5695    0.0469   -2.8594 O   0  0  0  0  0  0  0  0  0  0  0  0
    5.3008   -0.7364   -1.5370 O   0  0  0  0  0  0  0  0  0  0  0  0
    6.3387   -0.4030   -2.4565 C   0  0  0  0  0  0  0  0  0  0  0  0
    6.6362    1.0914   -2.4125 C   0  0  0  0  0  0  0  0  0  0  0  0
   -1.4192   -1.8032    1.3414 C   0  0  1  0  0  0  0  0  0  0  0  0
   -2.8433   -2.2110    1.7626 C   0  0  0  0  0  0  0  0  0  0  0  0
   -0.6563   -3.0060    0.7265 C   0  0  0  0  0  0  0  0  0  0  0  0
   -1.2104   -3.4958   -0.6143 C   0  0  0  0  0  0  0  0  0  0  0  0
   -4.5046    2.4656    1.7388 C   0  0  0  0  0  0  0  0  0  0  0  0
   -4.6422    2.9770    3.0253 O   0  0  0  0  0  0  0  0  0  0  0  0
   -5.3906    1.7020    1.2680 O   0  0  0  0  0  0  0  0  0  0  0  0
   -2.5580    3.3443    1.5549 H   0  0  0  0  0  0  0  0  0  0  0  0
   -4.4881    3.4025   -0.8527 H   0  0  0  0  0  0  0  0  0  0  0  0
   -2.8432    4.1454   -0.7736 H   0  0  0  0  0  0  0  0  0  0  0  0
   -4.1572    4.7624    0.2937 H   0  0  0  0  0  0  0  0  0  0  0  0
   -2.8040    1.4983   -0.7274 H   0  0  0  0  0  0  0  0  0  0  0  0
   -2.1181   -0.7876   -0.4394 H   0  0  0  0  0  0  0  0  0  0  0  0
   -0.0021   -0.2944   -1.1777 H   0  0  0  0  0  0  0  0  0  0  0  0
    2.6677    1.4033   -0.2653 H   0  0  0  0  0  0  0  0  0  0  0  0
    2.4416   -1.7840   -0.7023 H   0  0  0  0  0  0  0  0  0  0  0  0
    6.0573   -0.7108   -3.4870 H   0  0  0  0  0  0  0  0  0  0  0  0
    7.2566   -0.9579   -2.1697 H   0  0  0  0  0  0  0  0  0  0  0  0
    5.7482    1.6730   -2.7365 H   0  0  0  0  0  0  0  0  0  0  0  0
    7.4823    1.3237   -3.0930 H   0  0  0  0  0  0  0  0  0  0  0  0
    6.9116    1.3924   -1.3796 H   0  0  0  0  0  0  0  0  0  0  0  0
   -0.8762   -1.5413    2.2754 H   0  0  0  0  0  0  0  0  0  0  0  0
   -2.8176   -3.1400    2.3710 H   0  0  0  0  0  0  0  0  0  0  0  0
   -3.4909   -2.3782    0.8766 H   0  0  0  0  0  0  0  0  0  0  0  0
   -3.3056   -1.4158    2.3843 H   0  0  0  0  0  0  0  0  0  0  0  0
    0.4127   -2.7374    0.5903 H   0  0  0  0  0  0  0  0  0  0  0  0
   -0.6738   -3.8541    1.4455 H   0  0  0  0  0  0  0  0  0  0  0  0
   -0.6197   -4.3725   -0.9540 H   0  0  0  0  0  0  0  0  0  0  0  0
   -1.1263   -2.7079   -1.3905 H   0  0  0  0  0  0  0  0  0  0  0  0
   -2.2686   -3.8128   -0.5161 H   0  0  0  0  0  0  0  0  0  0  0  0
   -5.4426    2.7356    3.5973 H   0  0  0  0  0  0  0  0  0  0  0  0
  1  2  1  0
  1  3  1  0
  3  4  1  0
  4  5  2  0
  4  6  1  0
  6  7  1  0
  7  8  1  0
  8  9  2  0
  8 10  1  0
 10 11  1  0
 11 12  1  0
 12 13  1  0
 13 14  2  0
 13 15  1  0
 15 16  1  0
 16 17  1  0
  6 18  1  0
 18 19  1  0
 18 20  1  0
 20 21  1  0
  1 22  1  0
 22 23  1  0
 22 24  2  0
 12 10  1  0
  1 25  1  1
  2 26  1  0
  2 27  1  0
  2 28  1  0
  3 29  1  0
  6 30  1  6
  7 31  1  0
 10 32  1  6
 12 33  1  1
 16 34  1  0
 16 35  1  0
 17 36  1  0
 17 37  1  0
 17 38  1  0
 18 39  1  1
 19 40  1  0
 19 41  1  0
 19 42  1  0
 20 43  1  0
 20 44  1  0
 21 45  1  0
 21 46  1  0
 21 47  1  0
 23 48  1  0
M  END
$$$$
