
     RDKit          3D

 32 35  0  0  0  0  0  0  0  0999 V2000
    4.2073   -1.5312   -0.1898 C   0  0  0  0  0  0  0  0  0  0  0  0
    3.5328   -0.3681   -0.8438 C   0  0  0  0  0  0  0  0  0  0  0  0
    3.9903    0.2134   -1.9709 N   0  0  0  0  0  0  0  0  0  0  0  0
    3.1561    1.2007   -2.2662 N   0  0  0  0  0  0  0  0  0  0  0  0
    2.1992    1.1979   -1.3187 C   0  0  0  0  0  0  0  0  0  0  0  0
    1.1083    2.2128   -1.2176 C   0  0  0  0  0  0  0  0  0  0  0  0
   -0.1981    1.5620   -1.1686 N   0  0  0  0  0  0  0  0  0  0  0  0
   -0.6258    0.7352   -0.2539 C   0  0  0  0  0  0  0  0  0  0  0  0
    0.2388    0.2595    0.8630 C   0  0  0  0  0  0  0  0  0  0  0  0
    1.6046   -0.0169    0.7544 C   0  0  0  0  0  0  0  0  0  0  0  0
    2.1679   -0.6363    2.2154 S   0  0  0  0  0  0  0  0  0  0  0  0
    0.6845   -0.5741    2.9997 C   0  0  0  0  0  0  0  0  0  0  0  0
    0.3740   -1.1291    4.7963 Br  0  0  0  0  0  0  0  0  0  0  0  0
   -0.2719   -0.0677    2.1316 C   0  0  0  0  0  0  0  0  0  0  0  0
    2.4080    0.2359   -0.4064 N   0  0  0  0  0  0  0  0  0  0  0  0
   -2.0114    0.2210   -0.3671 C   0  0  0  0  0  0  0  0  0  0  0  0
   -2.2415   -1.1625   -0.2545 C   0  0  0  0  0  0  0  0  0  0  0  0
   -3.5336   -1.6796   -0.3721 C   0  0  0  0  0  0  0  0  0  0  0  0
   -4.6111   -0.8239   -0.6032 C   0  0  0  0  0  0  0  0  0  0  0  0
   -4.4000    0.5518   -0.7135 C   0  0  0  0  0  0  0  0  0  0  0  0
   -3.1090    1.0827   -0.5973 C   0  0  0  0  0  0  0  0  0  0  0  0
   -2.9216    2.8319   -0.6843 Cl  0  0  0  0  0  0  0  0  0  0  0  0
    4.7179   -1.1946    0.7359 H   0  0  0  0  0  0  0  0  0  0  0  0
    3.4588   -2.3129    0.0562 H   0  0  0  0  0  0  0  0  0  0  0  0
    4.9626   -1.9686   -0.8759 H   0  0  0  0  0  0  0  0  0  0  0  0
    1.1399    2.8841   -2.1012 H   0  0  0  0  0  0  0  0  0  0  0  0
    1.2556    2.8303   -0.3057 H   0  0  0  0  0  0  0  0  0  0  0  0
   -1.3105    0.0554    2.4101 H   0  0  0  0  0  0  0  0  0  0  0  0
   -1.4167   -1.8446   -0.0867 H   0  0  0  0  0  0  0  0  0  0  0  0
   -3.6990   -2.7458   -0.2867 H   0  0  0  0  0  0  0  0  0  0  0  0
   -5.6117   -1.2266   -0.6933 H   0  0  0  0  0  0  0  0  0  0  0  0
   -5.2444    1.2080   -0.8824 H   0  0  0  0  0  0  0  0  0  0  0  0
  1  2  1  0
  2  3  2  0
  3  4  1  0
  4  5  2  0
  5  6  1  0
  6  7  1  0
  7  8  2  0
  8  9  1  0
  9 10  2  0
 10 11  1  0
 11 12  1  0
 12 13  1  0
 12 14  2  0
 10 15  1  0
  8 16  1  0
 16 17  2  0
 17 18  1  0
 18 19  2  0
 19 20  1  0
 20 21  2  0
 21 22  1  0
 15  2  1  0
 21 16  1  0
 15  5  1  0
 14  9  1  0
  1 23  1  0
  1 24  1  0
  1 25  1  0
  6 26  1  0
  6 27  1  0
 14 28  1  0
 17 29  1  0
 18 30  1  0
 19 31  1  0
 20 32  1  0
M  END
$$$$
