
     RDKit          3D

 21 23  0  0  0  0  0  0  0  0999 V2000
    0.2355   -0.0666    1.0792 N   0  0  0  0  0  0  0  0  0  0  0  0
   -1.0593   -0.0057    0.7469 C   0  0  0  0  0  0  0  0  0  0  0  0
   -2.1709   -0.0185    1.5864 C   0  0  0  0  0  0  0  0  0  0  0  0
   -3.4410    0.0572    0.9838 C   0  0  0  0  0  0  0  0  0  0  0  0
   -3.5620    0.1425   -0.4229 C   0  0  0  0  0  0  0  0  0  0  0  0
   -2.4136    0.1527   -1.2381 C   0  0  0  0  0  0  0  0  0  0  0  0
   -1.1732    0.0763   -0.6087 C   0  0  0  0  0  0  0  0  0  0  0  0
    0.0428    0.0704   -1.1833 N   0  0  0  0  0  0  0  0  0  0  0  0
    0.8801   -0.0184   -0.1141 C   0  0  0  0  0  0  0  0  0  0  0  0
    2.3450   -0.0582   -0.2415 C   0  0  0  0  0  0  0  0  0  0  0  0
    3.0059   -0.0086   -1.4665 C   0  0  0  0  0  0  0  0  0  0  0  0
    4.6557   -0.0796   -1.1560 S   0  0  0  0  0  0  0  0  0  0  0  0
    4.4648   -0.1699    0.5105 C   0  0  0  0  0  0  0  0  0  0  0  0
    3.1573   -0.1473    0.8474 N   0  0  0  0  0  0  0  0  0  0  0  0
    0.6486   -0.1353    2.0362 H   0  0  0  0  0  0  0  0  0  0  0  0
   -2.0633   -0.0842    2.6613 H   0  0  0  0  0  0  0  0  0  0  0  0
   -4.3300    0.0502    1.6009 H   0  0  0  0  0  0  0  0  0  0  0  0
   -4.5431    0.2003   -0.8759 H   0  0  0  0  0  0  0  0  0  0  0  0
   -2.4930    0.2175   -2.3155 H   0  0  0  0  0  0  0  0  0  0  0  0
    2.5458    0.0627   -2.4432 H   0  0  0  0  0  0  0  0  0  0  0  0
    5.2680   -0.2374    1.2313 H   0  0  0  0  0  0  0  0  0  0  0  0
  1  2  1  0
  2  3  2  0
  3  4  1  0
  4  5  2  0
  5  6  1  0
  6  7  2  0
  7  8  1  0
  8  9  2  0
  9 10  1  0
 10 11  2  0
 11 12  1  0
 12 13  1  0
 13 14  2  0
  9  1  1  0
 14 10  1  0
  7  2  1  0
  1 15  1  0
  3 16  1  0
  4 17  1  0
  5 18  1  0
  6 19  1  0
 11 20  1  0
 13 21  1  0
M  END
$$$$
