
     RDKit          3D

 42 44  0  0  0  0  0  0  0  0999 V2000
   -0.9041    0.6398    1.8052 C   0  0  2  0  0  0  0  0  0  0  0  0
   -1.5063    1.6165    2.6222 O   0  0  0  0  0  0  0  0  0  0  0  0
    0.5151    0.3697    2.2279 C   0  0  0  0  0  0  0  0  0  0  0  0
    1.3238    1.2303    1.2737 C   0  0  2  0  0  0  0  0  0  0  0  0
    0.5947    1.3937    0.0764 O   0  0  0  0  0  0  0  0  0  0  0  0
   -0.7656    1.1290    0.3528 C   0  0  1  0  0  0  0  0  0  0  0  0
   -1.2807    0.0897   -0.6589 C   0  0  0  0  0  0  0  0  0  0  0  0
   -2.7200   -0.1826   -0.4669 N   0  0  0  0  0  0  0  0  0  0  0  0
   -3.1499   -1.3474   -1.2427 C   0  0  0  0  0  0  0  0  0  0  0  0
   -4.6405   -1.1853   -1.4717 C   0  0  0  0  0  0  0  0  0  0  0  0
   -4.8919    0.3102   -1.3870 C   0  0  0  0  0  0  0  0  0  0  0  0
   -3.5780    0.9220   -0.9156 C   0  0  0  0  0  0  0  0  0  0  0  0
    2.6423    0.6192    1.0055 N   0  0  0  0  0  0  0  0  0  0  0  0
    2.7524   -0.3661    0.0618 C   0  0  0  0  0  0  0  0  0  0  0  0
    3.9828   -0.9779   -0.1980 C   0  0  0  0  0  0  0  0  0  0  0  0
    4.0934   -2.0701   -1.2255 C   0  0  0  0  0  0  0  0  0  0  0  0
    5.0885   -0.5815    0.5624 C   0  0  0  0  0  0  0  0  0  0  0  0
    6.2158   -1.1167    0.3793 O   0  0  0  0  0  0  0  0  0  0  0  0
    4.9472    0.3818    1.5095 N   0  0  0  0  0  0  0  0  0  0  0  0
    3.7447    0.9751    1.7419 C   0  0  0  0  0  0  0  0  0  0  0  0
    3.6578    1.8507    2.6467 O   0  0  0  0  0  0  0  0  0  0  0  0
   -1.5029   -0.2943    1.8855 H   0  0  0  0  0  0  0  0  0  0  0  0
   -0.9600    2.4448    2.5698 H   0  0  0  0  0  0  0  0  0  0  0  0
    0.7046    0.6419    3.2895 H   0  0  0  0  0  0  0  0  0  0  0  0
    0.7476   -0.7083    2.0771 H   0  0  0  0  0  0  0  0  0  0  0  0
    1.4474    2.2439    1.7180 H   0  0  0  0  0  0  0  0  0  0  0  0
   -1.3331    2.0743    0.2089 H   0  0  0  0  0  0  0  0  0  0  0  0
   -0.7009   -0.8502   -0.5142 H   0  0  0  0  0  0  0  0  0  0  0  0
   -1.0759    0.4437   -1.6950 H   0  0  0  0  0  0  0  0  0  0  0  0
   -2.9382   -2.2819   -0.6796 H   0  0  0  0  0  0  0  0  0  0  0  0
   -2.6343   -1.3894   -2.2309 H   0  0  0  0  0  0  0  0  0  0  0  0
   -5.2039   -1.7103   -0.6689 H   0  0  0  0  0  0  0  0  0  0  0  0
   -4.9422   -1.5943   -2.4606 H   0  0  0  0  0  0  0  0  0  0  0  0
   -5.1766    0.7176   -2.3820 H   0  0  0  0  0  0  0  0  0  0  0  0
   -5.7067    0.5244   -0.6607 H   0  0  0  0  0  0  0  0  0  0  0  0
   -3.1178    1.4884   -1.7576 H   0  0  0  0  0  0  0  0  0  0  0  0
   -3.7609    1.6209   -0.0712 H   0  0  0  0  0  0  0  0  0  0  0  0
    1.8792   -0.6873   -0.4940 H   0  0  0  0  0  0  0  0  0  0  0  0
    4.2006   -3.0497   -0.7144 H   0  0  0  0  0  0  0  0  0  0  0  0
    3.1949   -2.1043   -1.8779 H   0  0  0  0  0  0  0  0  0  0  0  0
    4.9795   -1.8973   -1.8722 H   0  0  0  0  0  0  0  0  0  0  0  0
    5.7781    0.6674    2.0771 H   0  0  0  0  0  0  0  0  0  0  0  0
  1  2  1  0
  1  3  1  0
  3  4  1  0
  4  5  1  0
  5  6  1  0
  6  7  1  0
  7  8  1  0
  8  9  1  0
  9 10  1  0
 10 11  1  0
 11 12  1  0
  4 13  1  0
 13 14  1  0
 14 15  2  0
 15 16  1  0
 15 17  1  0
 17 18  2  0
 17 19  1  0
 19 20  1  0
 20 21  2  0
  6  1  1  0
 12  8  1  0
 20 13  1  0
  1 22  1  6
  2 23  1  0
  3 24  1  0
  3 25  1  0
  4 26  1  1
  6 27  1  1
  7 28  1  0
  7 29  1  0
  9 30  1  0
  9 31  1  0
 10 32  1  0
 10 33  1  0
 11 34  1  0
 11 35  1  0
 12 36  1  0
 12 37  1  0
 14 38  1  0
 16 39  1  0
 16 40  1  0
 16 41  1  0
 19 42  1  0
M  END
$$$$
