
     RDKit          3D

 87 90  0  0  0  0  0  0  0  0999 V2000
    2.9714   -1.6857    0.9364 C   0  0  1  0  0  0  0  0  0  0  0  0
    3.0576   -2.7429    2.0443 C   0  0  0  0  0  0  0  0  0  0  0  0
    1.5888   -1.5389    0.6081 O   0  0  0  0  0  0  0  0  0  0  0  0
    1.1357   -0.2067    0.4354 C   0  0  2  0  0  0  0  0  0  0  0  0
   -0.1026   -0.2609   -0.2536 O   0  0  0  0  0  0  0  0  0  0  0  0
   -0.9879    0.7789    0.1397 C   0  0  2  0  0  0  0  0  0  0  0  0
   -1.9221    0.2588    1.2701 C   0  0  1  0  0  0  0  0  0  0  0  0
   -2.5440    1.3755    2.1340 C   0  0  0  0  0  0  0  0  0  0  0  0
   -1.5452    2.0030    2.8908 O   0  0  0  0  0  0  0  0  0  0  0  0
   -2.8919   -0.6674    0.7986 O   0  0  0  0  0  0  0  0  0  0  0  0
   -3.7260   -0.1194   -0.2109 C   0  0  2  0  0  0  0  0  0  0  0  0
   -4.6934   -1.0822   -0.5842 O   0  0  0  0  0  0  0  0  0  0  0  0
   -5.7074   -1.2068    0.4001 C   0  0  0  0  0  0  0  0  0  0  0  0
   -7.0124   -0.5507   -0.0763 C   0  0  1  0  0  0  0  0  0  0  0  0
   -6.7747    0.8133   -0.3648 O   0  0  0  0  0  0  0  0  0  0  0  0
   -7.9983    1.5331   -0.4438 C   0  0  1  0  0  0  0  0  0  0  0  0
   -7.7353    2.8000   -0.9846 O   0  0  0  0  0  0  0  0  0  0  0  0
   -9.0722    0.8234   -1.3257 C   0  0  2  0  0  0  0  0  0  0  0  0
  -10.0723    0.2628   -0.5133 O   0  0  0  0  0  0  0  0  0  0  0  0
   -8.4400   -0.2866   -2.1918 C   0  0  1  0  0  0  0  0  0  0  0  0
   -7.6236    0.2986   -3.1762 O   0  0  0  0  0  0  0  0  0  0  0  0
   -7.5840   -1.2572   -1.3356 C   0  0  2  0  0  0  0  0  0  0  0  0
   -8.3170   -2.4028   -0.9749 O   0  0  0  0  0  0  0  0  0  0  0  0
   -2.9048    0.2495   -1.4608 C   0  0  2  0  0  0  0  0  0  0  0  0
   -2.3915   -0.8898   -2.1108 O   0  0  0  0  0  0  0  0  0  0  0  0
   -1.7790    1.2391   -1.1017 C   0  0  1  0  0  0  0  0  0  0  0  0
   -2.3184    2.5159   -0.8675 O   0  0  0  0  0  0  0  0  0  0  0  0
    2.1336    0.6260   -0.3888 C   0  0  2  0  0  0  0  0  0  0  0  0
    2.4152   -0.0450   -1.5918 O   0  0  0  0  0  0  0  0  0  0  0  0
    3.4222    0.8382    0.4249 C   0  0  1  0  0  0  0  0  0  0  0  0
    3.2883    2.0103    1.1900 O   0  0  0  0  0  0  0  0  0  0  0  0
    3.7074   -0.3672    1.3654 C   0  0  2  0  0  0  0  0  0  0  0  0
    5.1666   -0.5073    1.6157 N   0  0  0  0  0  0  0  0  0  0  0  0
    5.9660   -1.3505    0.6884 C   0  0  1  0  0  0  0  0  0  0  0  0
    5.9075   -0.8330   -0.7312 C   0  0  0  0  0  0  0  0  0  0  0  0
    6.8051    0.0388   -1.2428 C   0  0  0  0  0  0  0  0  0  0  0  0
    6.6186    0.5189   -2.6615 C   0  0  0  0  0  0  0  0  0  0  0  0
    6.6596   -0.5717   -3.5396 O   0  0  0  0  0  0  0  0  0  0  0  0
    8.0634    0.4473   -0.4887 C   0  0  1  0  0  0  0  0  0  0  0  0
    8.1995    1.8441   -0.5422 O   0  0  0  0  0  0  0  0  0  0  0  0
    8.0797   -0.0134    0.9904 C   0  0  2  0  0  0  0  0  0  0  0  0
    9.3921   -0.0021    1.4968 O   0  0  0  0  0  0  0  0  0  0  0  0
    7.4426   -1.4061    1.1456 C   0  0  1  0  0  0  0  0  0  0  0  0
    7.5417   -1.8273    2.4821 O   0  0  0  0  0  0  0  0  0  0  0  0
    3.4583   -2.1026    0.0336 H   0  0  0  0  0  0  0  0  0  0  0  0
    2.5238   -2.3890    2.9519 H   0  0  0  0  0  0  0  0  0  0  0  0
    4.1061   -2.9741    2.3179 H   0  0  0  0  0  0  0  0  0  0  0  0
    2.5786   -3.6843    1.7007 H   0  0  0  0  0  0  0  0  0  0  0  0
    1.0177    0.2400    1.4532 H   0  0  0  0  0  0  0  0  0  0  0  0
   -0.4303    1.6747    0.5069 H   0  0  0  0  0  0  0  0  0  0  0  0
   -1.2796   -0.3183    1.9706 H   0  0  0  0  0  0  0  0  0  0  0  0
   -3.0584    2.1340    1.5084 H   0  0  0  0  0  0  0  0  0  0  0  0
   -3.2937    0.9223    2.8206 H   0  0  0  0  0  0  0  0  0  0  0  0
   -2.0042    2.6940    3.4357 H   0  0  0  0  0  0  0  0  0  0  0  0
   -4.2357    0.8062    0.1431 H   0  0  0  0  0  0  0  0  0  0  0  0
   -5.4257   -0.7872    1.3959 H   0  0  0  0  0  0  0  0  0  0  0  0
   -5.8931   -2.2890    0.5694 H   0  0  0  0  0  0  0  0  0  0  0  0
   -7.7354   -0.6436    0.7697 H   0  0  0  0  0  0  0  0  0  0  0  0
   -8.4012    1.6754    0.5875 H   0  0  0  0  0  0  0  0  0  0  0  0
   -7.1447    3.2671   -0.3374 H   0  0  0  0  0  0  0  0  0  0  0  0
   -9.5496    1.5629   -2.0122 H   0  0  0  0  0  0  0  0  0  0  0  0
  -10.6365    1.0141   -0.1919 H   0  0  0  0  0  0  0  0  0  0  0  0
   -9.2507   -0.8671   -2.6933 H   0  0  0  0  0  0  0  0  0  0  0  0
   -8.2278    0.6610   -3.8761 H   0  0  0  0  0  0  0  0  0  0  0  0
   -6.7439   -1.6066   -1.9755 H   0  0  0  0  0  0  0  0  0  0  0  0
   -9.1005   -2.1089   -0.4424 H   0  0  0  0  0  0  0  0  0  0  0  0
   -3.5901    0.7491   -2.1807 H   0  0  0  0  0  0  0  0  0  0  0  0
   -1.9582   -1.4702   -1.4338 H   0  0  0  0  0  0  0  0  0  0  0  0
   -1.0683    1.3047   -1.9600 H   0  0  0  0  0  0  0  0  0  0  0  0
   -2.5392    2.9050   -1.7540 H   0  0  0  0  0  0  0  0  0  0  0  0
    1.6773    1.6169   -0.6215 H   0  0  0  0  0  0  0  0  0  0  0  0
    2.8175    0.6226   -2.2070 H   0  0  0  0  0  0  0  0  0  0  0  0
    4.2496    1.0019   -0.2944 H   0  0  0  0  0  0  0  0  0  0  0  0
    4.1967    2.2469    1.5146 H   0  0  0  0  0  0  0  0  0  0  0  0
    3.2417   -0.0929    2.3422 H   0  0  0  0  0  0  0  0  0  0  0  0
    5.2795   -0.8824    2.5864 H   0  0  0  0  0  0  0  0  0  0  0  0
    5.5947   -2.3953    0.6927 H   0  0  0  0  0  0  0  0  0  0  0  0
    5.0661   -1.1405   -1.3453 H   0  0  0  0  0  0  0  0  0  0  0  0
    7.4186    1.2411   -2.9376 H   0  0  0  0  0  0  0  0  0  0  0  0
    5.6375    1.0385   -2.7441 H   0  0  0  0  0  0  0  0  0  0  0  0
    6.4970   -0.2017   -4.4460 H   0  0  0  0  0  0  0  0  0  0  0  0
    8.9149   -0.0313   -1.0268 H   0  0  0  0  0  0  0  0  0  0  0  0
    9.1535    2.0474   -0.3569 H   0  0  0  0  0  0  0  0  0  0  0  0
    7.4876    0.7121    1.5914 H   0  0  0  0  0  0  0  0  0  0  0  0
    9.9133   -0.6869    1.0012 H   0  0  0  0  0  0  0  0  0  0  0  0
    7.9979   -2.1245    0.4956 H   0  0  0  0  0  0  0  0  0  0  0  0
    7.3202   -2.7951    2.4931 H   0  0  0  0  0  0  0  0  0  0  0  0
  1  2  1  0
  1  3  1  0
  3  4  1  0
  4  5  1  0
  5  6  1  0
  6  7  1  0
  7  8  1  0
  8  9  1  0
  7 10  1  0
 10 11  1  0
 11 12  1  0
 12 13  1  0
 13 14  1  0
 14 15  1  0
 15 16  1  0
 16 17  1  0
 16 18  1  0
 18 19  1  0
 18 20  1  0
 20 21  1  0
 20 22  1  0
 22 23  1  0
 11 24  1  0
 24 25  1  0
 24 26  1  0
 26 27  1  0
  4 28  1  0
 28 29  1  0
 28 30  1  0
 30 31  1  0
 30 32  1  0
 32 33  1  0
 33 34  1  0
 34 35  1  0
 35 36  2  0
 36 37  1  0
 37 38  1  0
 36 39  1  0
 39 40  1  0
 39 41  1  0
 41 42  1  0
 41 43  1  0
 43 44  1  0
 32  1  1  0
 43 34  1  0
 26  6  1  0
 22 14  1  0
  1 45  1  6
  2 46  1  0
  2 47  1  0
  2 48  1  0
  4 49  1  1
  6 50  1  1
  7 51  1  1
  8 52  1  0
  8 53  1  0
  9 54  1  0
 11 55  1  1
 13 56  1  0
 13 57  1  0
 14 58  1  1
 16 59  1  1
 17 60  1  0
 18 61  1  6
 19 62  1  0
 20 63  1  6
 21 64  1  0
 22 65  1  6
 23 66  1  0
 24 67  1  6
 25 68  1  0
 26 69  1  6
 27 70  1  0
 28 71  1  6
 29 72  1  0
 30 73  1  6
 31 74  1  0
 32 75  1  1
 33 76  1  0
 34 77  1  6
 35 78  1  0
 37 79  1  0
 37 80  1  0
 38 81  1  0
 39 82  1  6
 40 83  1  0
 41 84  1  1
 42 85  1  0
 43 86  1  6
 44 87  1  0
M  END
$$$$
