
     RDKit          3D

 37 39  0  0  0  0  0  0  0  0999 V2000
   -4.1487    3.7121    0.5256 N   0  0  0  0  0  0  0  0  0  0  0  0
   -2.8182    3.2640    0.5460 N   0  0  0  0  0  0  0  0  0  0  0  0
   -2.4507    1.9814    0.0172 C   0  0  0  0  0  0  0  0  0  0  0  0
   -3.3444    1.2137   -0.4307 O   0  0  0  0  0  0  0  0  0  0  0  0
   -1.0338    1.5604   -0.0227 C   0  0  0  0  0  0  0  0  0  0  0  0
   -0.5600    0.2461   -0.1437 C   0  0  0  0  0  0  0  0  0  0  0  0
    0.8172    0.3583   -0.2213 C   0  0  0  0  0  0  0  0  0  0  0  0
    1.1164    1.6937   -0.1478 C   0  0  0  0  0  0  0  0  0  0  0  0
    0.0023    2.4347   -0.0272 N   0  0  0  0  0  0  0  0  0  0  0  0
    2.4312    2.1536   -0.1858 C   0  0  0  0  0  0  0  0  0  0  0  0
    3.4601    1.2016   -0.2934 C   0  0  0  0  0  0  0  0  0  0  0  0
    3.1582   -0.1796   -0.3604 C   0  0  0  0  0  0  0  0  0  0  0  0
    1.8172   -0.6116   -0.3129 C   0  0  0  0  0  0  0  0  0  0  0  0
    4.4573   -1.3628   -0.4647 S   0  0  0  0  0  6  0  0  0  0  0  0
    4.9262   -1.8516    1.1254 N   0  0  0  0  0  0  0  0  0  0  0  0
    3.9903   -2.5622   -1.2409 O   0  0  0  0  0  0  0  0  0  0  0  0
    5.6388   -0.7614   -1.1731 O   0  0  0  0  0  0  0  0  0  0  0  0
   -1.3412   -1.0081   -0.1330 C   0  0  0  0  0  0  0  0  0  0  0  0
   -2.2752   -1.2540    0.8871 C   0  0  0  0  0  0  0  0  0  0  0  0
   -3.0044   -2.4470    0.9017 C   0  0  0  0  0  0  0  0  0  0  0  0
   -2.8035   -3.4029   -0.0977 C   0  0  0  0  0  0  0  0  0  0  0  0
   -1.8724   -3.1677   -1.1129 C   0  0  0  0  0  0  0  0  0  0  0  0
   -1.1415   -1.9757   -1.1313 C   0  0  0  0  0  0  0  0  0  0  0  0
   -4.7299    3.0112    1.0396 H   0  0  0  0  0  0  0  0  0  0  0  0
   -4.4650    3.7245   -0.4709 H   0  0  0  0  0  0  0  0  0  0  0  0
   -2.0977    3.8764    0.9869 H   0  0  0  0  0  0  0  0  0  0  0  0
   -0.0434    3.4768    0.0196 H   0  0  0  0  0  0  0  0  0  0  0  0
    2.6557    3.2107   -0.1261 H   0  0  0  0  0  0  0  0  0  0  0  0
    4.4890    1.5370   -0.3157 H   0  0  0  0  0  0  0  0  0  0  0  0
    1.5708   -1.6649   -0.3372 H   0  0  0  0  0  0  0  0  0  0  0  0
    5.1995   -0.9858    1.6422 H   0  0  0  0  0  0  0  0  0  0  0  0
    4.0705   -2.2245    1.5944 H   0  0  0  0  0  0  0  0  0  0  0  0
   -2.4317   -0.5273    1.6748 H   0  0  0  0  0  0  0  0  0  0  0  0
   -3.7228   -2.6317    1.6898 H   0  0  0  0  0  0  0  0  0  0  0  0
   -3.3684   -4.3261   -0.0849 H   0  0  0  0  0  0  0  0  0  0  0  0
   -1.7178   -3.9084   -1.8868 H   0  0  0  0  0  0  0  0  0  0  0  0
   -0.4300   -1.8027   -1.9293 H   0  0  0  0  0  0  0  0  0  0  0  0
  1  2  1  0
  2  3  1  0
  3  4  2  0
  3  5  1  0
  5  6  2  0
  6  7  1  0
  7  8  2  0
  8  9  1  0
  8 10  1  0
 10 11  2  0
 11 12  1  0
 12 13  2  0
 12 14  1  0
 14 15  1  0
 14 16  2  0
 14 17  2  0
  6 18  1  0
 18 19  2  0
 19 20  1  0
 20 21  2  0
 21 22  1  0
 22 23  2  0
  9  5  1  0
 23 18  1  0
 13  7  1  0
  1 24  1  0
  1 25  1  0
  2 26  1  0
  9 27  1  0
 10 28  1  0
 11 29  1  0
 13 30  1  0
 15 31  1  0
 15 32  1  0
 19 33  1  0
 20 34  1  0
 21 35  1  0
 22 36  1  0
 23 37  1  0
M  END
$$$$
