
     RDKit          3D

 49 51  0  0  0  0  0  0  0  0999 V2000
   -0.9839   -3.2451   -0.8570 C   0  0  0  0  0  0  0  0  0  0  0  0
   -2.1692   -2.6141   -0.3821 O   0  0  0  0  0  0  0  0  0  0  0  0
   -2.2958   -1.2377   -0.1307 C   0  0  0  0  0  0  0  0  0  0  0  0
   -1.2313   -0.3460   -0.3443 C   0  0  0  0  0  0  0  0  0  0  0  0
   -1.3825    1.0246   -0.0935 C   0  0  0  0  0  0  0  0  0  0  0  0
   -0.2327    1.9938   -0.2696 C   0  0  0  0  0  0  0  0  0  0  0  0
    0.6555    1.6076   -1.3782 N   0  0  0  0  0  0  0  0  0  0  0  0
    0.1520    1.7237   -2.7517 C   0  0  0  0  0  0  0  0  0  0  0  0
    1.9981    1.1192   -1.1338 C   0  0  0  0  0  0  0  0  0  0  0  0
    3.0383    1.3970   -2.0369 C   0  0  0  0  0  0  0  0  0  0  0  0
    4.2917    0.9279   -1.8111 N   0  0  0  0  0  0  0  0  0  0  0  0
    4.5949    0.1763   -0.7230 C   0  0  0  0  0  0  0  0  0  0  0  0
    5.8647   -0.2688   -0.5525 N   0  0  0  0  0  0  0  0  0  0  0  0
    6.2030   -1.0261    0.5206 C   0  0  0  0  0  0  0  0  0  0  0  0
    7.5445   -1.4822    0.6773 N   0  0  0  0  0  0  0  0  0  0  0  0
    5.2631   -1.3501    1.4448 N   0  0  0  0  0  0  0  0  0  0  0  0
    3.9723   -0.9358    1.3344 C   0  0  0  0  0  0  0  0  0  0  0  0
    3.0488   -1.3254    2.3592 N   0  0  0  0  0  0  0  0  0  0  0  0
    3.5969   -0.1427    0.2221 C   0  0  0  0  0  0  0  0  0  0  0  0
    2.2930    0.3398    0.0015 C   0  0  0  0  0  0  0  0  0  0  0  0
   -2.6039    1.4946    0.4038 C   0  0  0  0  0  0  0  0  0  0  0  0
   -3.6869    0.6208    0.6231 C   0  0  0  0  0  0  0  0  0  0  0  0
   -4.9123    1.1025    1.1107 O   0  0  0  0  0  0  0  0  0  0  0  0
   -5.1919    2.4641    1.4208 C   0  0  0  0  0  0  0  0  0  0  0  0
   -3.5271   -0.7618    0.3483 C   0  0  0  0  0  0  0  0  0  0  0  0
   -4.5452   -1.7179    0.5304 O   0  0  0  0  0  0  0  0  0  0  0  0
   -5.8670   -1.4727    0.9979 C   0  0  0  0  0  0  0  0  0  0  0  0
   -0.1538   -3.0918   -0.1351 H   0  0  0  0  0  0  0  0  0  0  0  0
   -0.7065   -2.8374   -1.8521 H   0  0  0  0  0  0  0  0  0  0  0  0
   -1.1690   -4.3339   -0.9589 H   0  0  0  0  0  0  0  0  0  0  0  0
   -0.2879   -0.7176   -0.7145 H   0  0  0  0  0  0  0  0  0  0  0  0
    0.3272    2.0749    0.6858 H   0  0  0  0  0  0  0  0  0  0  0  0
   -0.6267    3.0129   -0.4779 H   0  0  0  0  0  0  0  0  0  0  0  0
    0.6550    2.5643   -3.2725 H   0  0  0  0  0  0  0  0  0  0  0  0
    0.3350    0.7765   -3.3018 H   0  0  0  0  0  0  0  0  0  0  0  0
   -0.9412    1.9229   -2.7614 H   0  0  0  0  0  0  0  0  0  0  0  0
    2.8637    1.9979   -2.9175 H   0  0  0  0  0  0  0  0  0  0  0  0
    8.2724   -1.2369   -0.0300 H   0  0  0  0  0  0  0  0  0  0  0  0
    7.8116   -2.0658    1.5009 H   0  0  0  0  0  0  0  0  0  0  0  0
    2.0457   -1.0478    2.3730 H   0  0  0  0  0  0  0  0  0  0  0  0
    3.3847   -1.9170    3.1515 H   0  0  0  0  0  0  0  0  0  0  0  0
    1.4959    0.1029    0.6841 H   0  0  0  0  0  0  0  0  0  0  0  0
   -2.7030    2.5499    0.6194 H   0  0  0  0  0  0  0  0  0  0  0  0
   -6.2380    2.5452    1.7804 H   0  0  0  0  0  0  0  0  0  0  0  0
   -5.0794    3.0938    0.5130 H   0  0  0  0  0  0  0  0  0  0  0  0
   -4.5126    2.8207    2.2236 H   0  0  0  0  0  0  0  0  0  0  0  0
   -5.8407   -1.0623    2.0291 H   0  0  0  0  0  0  0  0  0  0  0  0
   -6.4218   -2.4329    1.0226 H   0  0  0  0  0  0  0  0  0  0  0  0
   -6.3980   -0.7841    0.3076 H   0  0  0  0  0  0  0  0  0  0  0  0
  1  2  1  0
  2  3  1  0
  3  4  2  0
  4  5  1  0
  5  6  1  0
  6  7  1  0
  7  8  1  0
  7  9  1  0
  9 10  2  0
 10 11  1  0
 11 12  2  0
 12 13  1  0
 13 14  2  0
 14 15  1  0
 14 16  1  0
 16 17  2  0
 17 18  1  0
 17 19  1  0
 19 20  2  0
  5 21  2  0
 21 22  1  0
 22 23  1  0
 23 24  1  0
 22 25  2  0
 25 26  1  0
 26 27  1  0
 25  3  1  0
 20  9  1  0
 19 12  1  0
  1 28  1  0
  1 29  1  0
  1 30  1  0
  4 31  1  0
  6 32  1  0
  6 33  1  0
  8 34  1  0
  8 35  1  0
  8 36  1  0
 10 37  1  0
 15 38  1  0
 15 39  1  0
 18 40  1  0
 18 41  1  0
 20 42  1  0
 21 43  1  0
 24 44  1  0
 24 45  1  0
 24 46  1  0
 27 47  1  0
 27 48  1  0
 27 49  1  0
M  END
$$$$
