
     RDKit          3D

 44 46  0  0  0  0  0  0  0  0999 V2000
   -1.3588    3.2057    1.7999 C   0  0  0  0  0  0  0  0  0  0  0  0
   -1.7806    1.8508    2.3657 C   0  0  0  0  0  0  0  0  0  0  0  0
   -1.3018    0.6731    1.5034 C   0  0  0  0  0  0  0  0  0  0  0  0
   -2.1097    0.5270    0.2062 C   0  0  0  0  0  0  0  0  0  0  0  0
   -1.6967   -0.6781   -0.5163 N   0  0  0  0  0  0  0  0  0  0  0  0
   -0.8417   -0.8046   -1.5722 C   0  0  0  0  0  0  0  0  0  0  0  0
   -0.1632    0.3433   -2.2649 C   0  0  0  0  0  0  0  0  0  0  0  0
    0.9114    0.9466   -1.3993 C   0  0  0  0  0  0  0  0  0  0  0  0
    0.8591    2.3034   -1.0434 C   0  0  0  0  0  0  0  0  0  0  0  0
    1.8619    2.8609   -0.2474 C   0  0  0  0  0  0  0  0  0  0  0  0
    2.9247    2.0728    0.2002 C   0  0  0  0  0  0  0  0  0  0  0  0
    2.9974    0.7131   -0.1569 C   0  0  0  0  0  0  0  0  0  0  0  0
    4.0452   -0.1197    0.2631 O   0  0  0  0  0  0  0  0  0  0  0  0
    5.1281    0.3034    1.0849 C   0  0  0  0  0  0  0  0  0  0  0  0
    1.9921    0.1623   -0.9610 C   0  0  0  0  0  0  0  0  0  0  0  0
   -0.6314   -2.0984   -1.9455 N   0  0  0  0  0  0  0  0  0  0  0  0
   -1.3941   -2.7866   -1.0770 C   0  0  0  0  0  0  0  0  0  0  0  0
   -1.5765   -4.1595   -0.9570 C   0  0  0  0  0  0  0  0  0  0  0  0
   -0.9272   -5.0839   -1.8299 N   0  0  0  0  0  0  0  0  0  0  0  0
   -2.4035   -4.6038    0.0362 N   0  0  0  0  0  0  0  0  0  0  0  0
   -3.0315   -3.7300    0.8875 C   0  0  0  0  0  0  0  0  0  0  0  0
   -2.8425   -2.3818    0.7611 N   0  0  0  0  0  0  0  0  0  0  0  0
   -2.0245   -1.9445   -0.2273 C   0  0  0  0  0  0  0  0  0  0  0  0
   -1.6913    4.0115    2.4876 H   0  0  0  0  0  0  0  0  0  0  0  0
   -1.8219    3.3837    0.8077 H   0  0  0  0  0  0  0  0  0  0  0  0
   -0.2540    3.2576    1.7090 H   0  0  0  0  0  0  0  0  0  0  0  0
   -1.3389    1.7470    3.3805 H   0  0  0  0  0  0  0  0  0  0  0  0
   -2.8862    1.8205    2.4772 H   0  0  0  0  0  0  0  0  0  0  0  0
   -0.2212    0.7846    1.2710 H   0  0  0  0  0  0  0  0  0  0  0  0
   -1.4174   -0.2576    2.1001 H   0  0  0  0  0  0  0  0  0  0  0  0
   -1.9736    1.4199   -0.4363 H   0  0  0  0  0  0  0  0  0  0  0  0
   -3.1927    0.4520    0.4463 H   0  0  0  0  0  0  0  0  0  0  0  0
    0.3006   -0.0164   -3.2085 H   0  0  0  0  0  0  0  0  0  0  0  0
   -0.9268    1.0982   -2.5500 H   0  0  0  0  0  0  0  0  0  0  0  0
    0.0407    2.9295   -1.3760 H   0  0  0  0  0  0  0  0  0  0  0  0
    1.8125    3.9066    0.0274 H   0  0  0  0  0  0  0  0  0  0  0  0
    3.6844    2.5299    0.8193 H   0  0  0  0  0  0  0  0  0  0  0  0
    4.7465    0.6634    2.0637 H   0  0  0  0  0  0  0  0  0  0  0  0
    5.8060   -0.5564    1.2623 H   0  0  0  0  0  0  0  0  0  0  0  0
    5.7003    1.1088    0.5778 H   0  0  0  0  0  0  0  0  0  0  0  0
    2.0508   -0.8828   -1.2401 H   0  0  0  0  0  0  0  0  0  0  0  0
   -1.0816   -6.1101   -1.7156 H   0  0  0  0  0  0  0  0  0  0  0  0
   -0.2929   -4.7513   -2.5899 H   0  0  0  0  0  0  0  0  0  0  0  0
   -3.6793   -4.1104    1.6651 H   0  0  0  0  0  0  0  0  0  0  0  0
  1  2  1  0
  2  3  1  0
  3  4  1  0
  4  5  1  0
  5  6  1  0
  6  7  1  0
  7  8  1  0
  8  9  2  0
  9 10  1  0
 10 11  2  0
 11 12  1  0
 12 13  1  0
 13 14  1  0
 12 15  2  0
  6 16  2  0
 16 17  1  0
 17 18  2  0
 18 19  1  0
 18 20  1  0
 20 21  2  0
 21 22  1  0
 22 23  2  0
 23  5  1  0
 15  8  1  0
 23 17  1  0
  1 24  1  0
  1 25  1  0
  1 26  1  0
  2 27  1  0
  2 28  1  0
  3 29  1  0
  3 30  1  0
  4 31  1  0
  4 32  1  0
  7 33  1  0
  7 34  1  0
  9 35  1  0
 10 36  1  0
 11 37  1  0
 14 38  1  0
 14 39  1  0
 14 40  1  0
 15 41  1  0
 19 42  1  0
 19 43  1  0
 21 44  1  0
M  END
$$$$
