
     RDKit          3D

 18 19  0  0  0  0  0  0  0  0999 V2000
   -2.3823   -1.5189   -0.3068 O   0  0  0  0  0  0  0  0  0  0  0  0
   -1.6299   -0.3802   -0.0058 C   0  0  0  0  0  0  0  0  0  0  0  0
   -2.3186    0.7656    0.3965 C   0  0  0  0  0  0  0  0  0  0  0  0
   -1.6053    1.9246    0.7065 C   0  0  0  0  0  0  0  0  0  0  0  0
   -2.2189    2.9619    1.0699 O   0  0  0  0  0  0  0  0  0  0  0  0
   -0.2807    1.9415    0.6207 O   0  0  0  0  0  0  0  0  0  0  0  0
    0.4280    0.8817    0.2437 C   0  0  0  0  0  0  0  0  0  0  0  0
    1.8220    0.9797    0.1783 C   0  0  0  0  0  0  0  0  0  0  0  0
    2.5860   -0.1200   -0.2149 C   0  0  0  0  0  0  0  0  0  0  0  0
    1.9617   -1.3239   -0.5449 C   0  0  0  0  0  0  0  0  0  0  0  0
    0.5692   -1.4382   -0.4846 C   0  0  0  0  0  0  0  0  0  0  0  0
   -0.2183   -0.3368   -0.0893 C   0  0  0  0  0  0  0  0  0  0  0  0
   -1.9875   -2.3986   -0.6064 H   0  0  0  0  0  0  0  0  0  0  0  0
   -3.3998    0.7537    0.4671 H   0  0  0  0  0  0  0  0  0  0  0  0
    2.3138    1.9103    0.4327 H   0  0  0  0  0  0  0  0  0  0  0  0
    3.6642   -0.0392   -0.2639 H   0  0  0  0  0  0  0  0  0  0  0  0
    2.5596   -2.1734   -0.8491 H   0  0  0  0  0  0  0  0  0  0  0  0
    0.1367   -2.3900   -0.7497 H   0  0  0  0  0  0  0  0  0  0  0  0
  1  2  1  0
  2  3  2  0
  3  4  1  0
  4  5  2  0
  4  6  1  0
  6  7  1  0
  7  8  2  0
  8  9  1  0
  9 10  2  0
 10 11  1  0
 11 12  2  0
 12  2  1  0
 12  7  1  0
  1 13  1  0
  3 14  1  0
  8 15  1  0
  9 16  1  0
 10 17  1  0
 11 18  1  0
M  END
$$$$
