
     RDKit          3D

 18 17  0  0  0  0  0  0  0  0999 V2000
    3.7430    0.5702   -0.5841 C   0  0  0  0  0  0  0  0  0  0  0  0
    2.0025    1.3668    0.2606 Hg  0  0  0  0  0  2  0  0  0  0  0  0
   -0.0117    2.2524    1.2208 S   0  0  0  0  0  0  0  0  0  0  0  0
   -1.0514    1.1718    0.1894 C   0  0  0  0  0  0  0  0  0  0  0  0
   -0.8113   -0.3052    0.5286 C   0  0  1  0  0  0  0  0  0  0  0  0
   -1.1985   -0.5819    1.9140 N   0  0  0  0  0  0  0  0  0  0  0  0
   -1.5734   -1.1900   -0.4218 C   0  0  0  0  0  0  0  0  0  0  0  0
   -2.9613   -1.1076   -0.4940 O   0  0  0  0  0  0  0  0  0  0  0  0
   -0.9554   -2.0092   -1.1532 O   0  0  0  0  0  0  0  0  0  0  0  0
    4.5455    0.5404    0.1813 H   0  0  0  0  0  0  0  0  0  0  0  0
    3.5387   -0.4582   -0.9467 H   0  0  0  0  0  0  0  0  0  0  0  0
    4.0655    1.2054   -1.4346 H   0  0  0  0  0  0  0  0  0  0  0  0
   -0.7965    1.3612   -0.8755 H   0  0  0  0  0  0  0  0  0  0  0  0
   -2.1176    1.4397    0.3511 H   0  0  0  0  0  0  0  0  0  0  0  0
    0.2759   -0.5160    0.4173 H   0  0  0  0  0  0  0  0  0  0  0  0
   -2.2325   -0.4602    2.0205 H   0  0  0  0  0  0  0  0  0  0  0  0
   -0.9770   -1.5815    2.1298 H   0  0  0  0  0  0  0  0  0  0  0  0
   -3.4845   -1.6982   -1.1293 H   0  0  0  0  0  0  0  0  0  0  0  0
  1  2  1  0
  2  3  1  0
  3  4  1  0
  4  5  1  0
  5  6  1  0
  5  7  1  0
  7  8  1  0
  7  9  2  0
  1 10  1  0
  1 11  1  0
  1 12  1  0
  4 13  1  0
  4 14  1  0
  5 15  1  1
  6 16  1  0
  6 17  1  0
  8 18  1  0
M  END
$$$$
