
     RDKit          3D

 47 50  0  0  0  0  0  0  0  0999 V2000
    1.4384    0.8370    1.7843 O   0  0  0  0  0  0  0  0  0  0  0  0
    1.5333    0.2731    0.6586 C   0  0  0  0  0  0  0  0  0  0  0  0
    2.9102    0.0700    0.0613 C   0  0  0  0  0  0  0  0  0  0  0  0
    3.6655   -1.0335    0.8259 C   0  0  0  0  0  0  0  0  0  0  0  0
    5.0715   -1.2379    0.2470 C   0  0  0  0  0  0  0  0  0  0  0  0
    5.8677    0.0731    0.2565 C   0  0  0  0  0  0  0  0  0  0  0  0
    5.1191    1.1785   -0.4985 C   0  0  0  0  0  0  0  0  0  0  0  0
    3.7140    1.3860    0.0815 C   0  0  0  0  0  0  0  0  0  0  0  0
    0.3325   -0.1669   -0.0144 N   0  0  0  0  0  0  0  0  0  0  0  0
   -0.9385    0.4912    0.3460 C   0  0  0  0  0  0  0  0  0  0  0  0
   -2.0569    0.1855   -0.6645 C   0  0  0  0  0  0  0  0  0  0  0  0
   -2.1358   -1.2703   -0.8569 N   0  0  0  0  0  0  0  0  0  0  0  0
   -3.4200   -1.9812   -0.8438 C   0  0  0  0  0  0  0  0  0  0  0  0
   -4.2636   -1.5049    0.3339 C   0  0  0  0  0  0  0  0  0  0  0  0
   -4.4204   -0.0127    0.2848 C   0  0  0  0  0  0  0  0  0  0  0  0
   -5.6003    0.5857    0.7548 C   0  0  0  0  0  0  0  0  0  0  0  0
   -5.7508    1.9735    0.7140 C   0  0  0  0  0  0  0  0  0  0  0  0
   -4.7237    2.7740    0.2118 C   0  0  0  0  0  0  0  0  0  0  0  0
   -3.5386    2.1901   -0.2420 C   0  0  0  0  0  0  0  0  0  0  0  0
   -3.3694    0.7949   -0.2003 C   0  0  0  0  0  0  0  0  0  0  0  0
   -0.9110   -1.9545   -1.1610 C   0  0  0  0  0  0  0  0  0  0  0  0
   -0.9221   -3.1485   -1.5662 O   0  0  0  0  0  0  0  0  0  0  0  0
    0.3945   -1.2251   -1.0412 C   0  0  0  0  0  0  0  0  0  0  0  0
    2.8152   -0.2365   -1.0023 H   0  0  0  0  0  0  0  0  0  0  0  0
    3.7485   -0.7648    1.9027 H   0  0  0  0  0  0  0  0  0  0  0  0
    3.1060   -1.9912    0.7559 H   0  0  0  0  0  0  0  0  0  0  0  0
    5.6105   -1.9982    0.8523 H   0  0  0  0  0  0  0  0  0  0  0  0
    4.9949   -1.6211   -0.7944 H   0  0  0  0  0  0  0  0  0  0  0  0
    6.0469    0.3935    1.3065 H   0  0  0  0  0  0  0  0  0  0  0  0
    6.8557   -0.0945   -0.2236 H   0  0  0  0  0  0  0  0  0  0  0  0
    5.0440    0.9110   -1.5755 H   0  0  0  0  0  0  0  0  0  0  0  0
    5.6918    2.1277   -0.4212 H   0  0  0  0  0  0  0  0  0  0  0  0
    3.8055    1.7687    1.1224 H   0  0  0  0  0  0  0  0  0  0  0  0
    3.1842    2.1550   -0.5222 H   0  0  0  0  0  0  0  0  0  0  0  0
   -0.7821    1.5920    0.3819 H   0  0  0  0  0  0  0  0  0  0  0  0
   -1.2459    0.1495    1.3590 H   0  0  0  0  0  0  0  0  0  0  0  0
   -1.7852    0.6489   -1.6397 H   0  0  0  0  0  0  0  0  0  0  0  0
   -3.2697   -3.0778   -0.7447 H   0  0  0  0  0  0  0  0  0  0  0  0
   -3.9564   -1.7875   -1.7982 H   0  0  0  0  0  0  0  0  0  0  0  0
   -3.7666   -1.7858    1.2875 H   0  0  0  0  0  0  0  0  0  0  0  0
   -5.2552   -2.0063    0.2916 H   0  0  0  0  0  0  0  0  0  0  0  0
   -6.4056   -0.0227    1.1477 H   0  0  0  0  0  0  0  0  0  0  0  0
   -6.6653    2.4290    1.0715 H   0  0  0  0  0  0  0  0  0  0  0  0
   -4.8436    3.8492    0.1791 H   0  0  0  0  0  0  0  0  0  0  0  0
   -2.7486    2.8261   -0.6219 H   0  0  0  0  0  0  0  0  0  0  0  0
    0.6499   -0.7730   -2.0227 H   0  0  0  0  0  0  0  0  0  0  0  0
    1.1757   -1.9681   -0.7726 H   0  0  0  0  0  0  0  0  0  0  0  0
  1  2  2  0
  2  3  1  0
  3  4  1  0
  4  5  1  0
  5  6  1  0
  6  7  1  0
  7  8  1  0
  2  9  1  0
  9 10  1  0
 10 11  1  0
 11 12  1  0
 12 13  1  0
 13 14  1  0
 14 15  1  0
 15 16  2  0
 16 17  1  0
 17 18  2  0
 18 19  1  0
 19 20  2  0
 12 21  1  0
 21 22  2  0
 21 23  1  0
  8  3  1  0
 23  9  1  0
 20 11  1  0
 20 15  1  0
  3 24  1  0
  4 25  1  0
  4 26  1  0
  5 27  1  0
  5 28  1  0
  6 29  1  0
  6 30  1  0
  7 31  1  0
  7 32  1  0
  8 33  1  0
  8 34  1  0
 10 35  1  0
 10 36  1  0
 11 37  1  0
 13 38  1  0
 13 39  1  0
 14 40  1  0
 14 41  1  0
 16 42  1  0
 17 43  1  0
 18 44  1  0
 19 45  1  0
 23 46  1  0
 23 47  1  0
M  END
$$$$
