
     RDKit          3D

 47 49  0  0  0  0  0  0  0  0999 V2000
   -5.3872   -1.7843   -0.8727 C   0  0  0  0  0  0  0  0  0  0  0  0
   -4.0334   -1.2099   -0.5434 C   0  0  0  0  0  0  0  0  0  0  0  0
   -2.8624   -1.9914   -0.6373 C   0  0  0  0  0  0  0  0  0  0  0  0
   -2.9223   -3.4264   -1.0972 C   0  0  0  0  0  0  0  0  0  0  0  0
   -1.6167   -1.4204   -0.3243 C   0  0  0  0  0  0  0  0  0  0  0  0
   -1.5049   -0.0763    0.1087 C   0  0  0  0  0  0  0  0  0  0  0  0
   -0.2875    0.4998    0.4476 N   0  0  0  0  0  0  0  0  0  0  0  0
    0.9829   -0.2649    0.4531 C   0  0  0  0  0  0  0  0  0  0  0  0
    1.7071   -0.1445   -0.9062 C   0  0  2  0  0  0  0  0  0  0  0  0
    0.8229   -0.5019   -1.9380 O   0  0  0  0  0  0  0  0  0  0  0  0
    3.0022   -1.0033   -1.0244 C   0  0  2  0  0  0  0  0  0  0  0  0
    2.7010   -2.3732   -1.1370 O   0  0  0  0  0  0  0  0  0  0  0  0
    4.1022   -0.7611    0.0510 C   0  0  2  0  0  0  0  0  0  0  0  0
    3.6987   -1.2361    1.3107 O   0  0  0  0  0  0  0  0  0  0  0  0
    4.5110    0.7165    0.1806 C   0  0  0  0  0  0  0  0  0  0  0  0
    4.9139    1.2412   -1.0561 O   0  0  0  0  0  0  0  0  0  0  0  0
   -0.2483    1.8325    0.7786 C   0  0  0  0  0  0  0  0  0  0  0  0
    0.9179    2.4695    1.0674 N   0  0  0  0  0  0  0  0  0  0  0  0
    0.9446    3.7873    1.4000 C   0  0  0  0  0  0  0  0  0  0  0  0
    2.0470    4.3378    1.6590 O   0  0  0  0  0  0  0  0  0  0  0  0
   -0.2087    4.5142    1.4559 N   0  0  0  0  0  0  0  0  0  0  0  0
   -1.4195    3.9555    1.1795 C   0  0  0  0  0  0  0  0  0  0  0  0
   -2.4655    4.6571    1.2385 O   0  0  0  0  0  0  0  0  0  0  0  0
   -1.4928    2.6084    0.8295 C   0  0  0  0  0  0  0  0  0  0  0  0
   -2.6614    2.0028    0.5343 N   0  0  0  0  0  0  0  0  0  0  0  0
   -2.7001    0.6953    0.1769 C   0  0  0  0  0  0  0  0  0  0  0  0
   -3.9363    0.1261   -0.1369 C   0  0  0  0  0  0  0  0  0  0  0  0
   -5.3877   -2.1858   -1.9076 H   0  0  0  0  0  0  0  0  0  0  0  0
   -5.6323   -2.5998   -0.1606 H   0  0  0  0  0  0  0  0  0  0  0  0
   -6.1875   -1.0168   -0.8055 H   0  0  0  0  0  0  0  0  0  0  0  0
   -3.2627   -3.4673   -2.1530 H   0  0  0  0  0  0  0  0  0  0  0  0
   -3.6267   -4.0011   -0.4605 H   0  0  0  0  0  0  0  0  0  0  0  0
   -1.9307   -3.9229   -1.0347 H   0  0  0  0  0  0  0  0  0  0  0  0
   -0.7456   -2.0422   -0.4535 H   0  0  0  0  0  0  0  0  0  0  0  0
    0.8206   -1.3162    0.7542 H   0  0  0  0  0  0  0  0  0  0  0  0
    1.6418    0.1232    1.2564 H   0  0  0  0  0  0  0  0  0  0  0  0
    1.9841    0.9272   -1.0356 H   0  0  0  0  0  0  0  0  0  0  0  0
    1.1797   -0.1083   -2.7770 H   0  0  0  0  0  0  0  0  0  0  0  0
    3.4619   -0.7166   -1.9959 H   0  0  0  0  0  0  0  0  0  0  0  0
    2.2853   -2.6694   -0.2884 H   0  0  0  0  0  0  0  0  0  0  0  0
    5.0150   -1.3157   -0.2758 H   0  0  0  0  0  0  0  0  0  0  0  0
    3.9536   -2.1943    1.3614 H   0  0  0  0  0  0  0  0  0  0  0  0
    5.3396    0.8087    0.9193 H   0  0  0  0  0  0  0  0  0  0  0  0
    3.6663    1.3210    0.5699 H   0  0  0  0  0  0  0  0  0  0  0  0
    5.8115    0.8623   -1.2467 H   0  0  0  0  0  0  0  0  0  0  0  0
   -0.1615    5.5261    1.7160 H   0  0  0  0  0  0  0  0  0  0  0  0
   -4.8291    0.7375   -0.0692 H   0  0  0  0  0  0  0  0  0  0  0  0
  1  2  1  0
  2  3  2  0
  3  4  1  0
  3  5  1  0
  5  6  2  0
  6  7  1  0
  7  8  1  0
  8  9  1  0
  9 10  1  0
  9 11  1  0
 11 12  1  0
 11 13  1  0
 13 14  1  0
 13 15  1  0
 15 16  1  0
  7 17  1  0
 17 18  2  0
 18 19  1  0
 19 20  2  0
 19 21  1  0
 21 22  1  0
 22 23  2  0
 22 24  1  0
 24 25  2  0
 25 26  1  0
 26 27  2  0
 27  2  1  0
 26  6  1  0
 24 17  1  0
  1 28  1  0
  1 29  1  0
  1 30  1  0
  4 31  1  0
  4 32  1  0
  4 33  1  0
  5 34  1  0
  8 35  1  0
  8 36  1  0
  9 37  1  6
 10 38  1  0
 11 39  1  6
 12 40  1  0
 13 41  1  6
 14 42  1  0
 15 43  1  0
 15 44  1  0
 16 45  1  0
 21 46  1  0
 27 47  1  0
M  END
$$$$
