
     RDKit          3D

 57 59  0  0  0  0  0  0  0  0999 V2000
   -7.0719   -2.0514   -3.1052 C   0  0  0  0  0  0  0  0  0  0  0  0
   -7.0065   -1.3651   -1.8742 O   0  0  0  0  0  0  0  0  0  0  0  0
   -7.2687   -2.2506   -0.7983 C   0  0  1  0  0  0  0  0  0  0  0  0
   -6.5049   -1.7707    0.4438 C   0  0  0  0  0  0  0  0  0  0  0  0
   -5.0159   -1.8286    0.2181 C   0  0  0  0  0  0  0  0  0  0  0  0
   -4.3249   -0.7028   -0.2562 C   0  0  0  0  0  0  0  0  0  0  0  0
   -2.9498   -0.7681   -0.4997 C   0  0  0  0  0  0  0  0  0  0  0  0
   -2.2463   -1.9676   -0.2789 C   0  0  0  0  0  0  0  0  0  0  0  0
   -0.8676   -2.0845   -0.5069 O   0  0  0  0  0  0  0  0  0  0  0  0
   -0.0334   -1.0231   -0.9664 C   0  0  0  0  0  0  0  0  0  0  0  0
    1.4124   -1.5073   -1.0895 C   0  0  0  0  0  0  0  0  0  0  0  0
    1.9981   -1.9490    0.2590 C   0  0  0  0  0  0  0  0  0  0  0  0
    1.9713   -0.8854    1.2124 O   0  0  0  0  0  0  0  0  0  0  0  0
    2.8195    0.2339    1.2134 C   0  0  0  0  0  0  0  0  0  0  0  0
    2.5578    1.2582    2.1308 C   0  0  0  0  0  0  0  0  0  0  0  0
    3.3691    2.3953    2.1781 C   0  0  0  0  0  0  0  0  0  0  0  0
    4.4663    2.5189    1.3200 C   0  0  0  0  0  0  0  0  0  0  0  0
    5.2472    3.6822    1.3872 O   0  0  0  0  0  0  0  0  0  0  0  0
    6.6162    3.7611    1.0920 C   0  0  0  0  0  0  0  0  0  0  0  0
    7.1293    4.9666    0.5967 C   0  0  0  0  0  0  0  0  0  0  0  0
    8.4916    5.0888    0.3051 C   0  0  0  0  0  0  0  0  0  0  0  0
    9.3529    4.0092    0.5194 C   0  0  0  0  0  0  0  0  0  0  0  0
    8.8539    2.8088    1.0323 C   0  0  0  0  0  0  0  0  0  0  0  0
    7.4920    2.6838    1.3244 C   0  0  0  0  0  0  0  0  0  0  0  0
    4.7263    1.5005    0.3865 C   0  0  0  0  0  0  0  0  0  0  0  0
    3.9153    0.3627    0.3380 C   0  0  0  0  0  0  0  0  0  0  0  0
   -2.9408   -3.0912    0.1835 C   0  0  0  0  0  0  0  0  0  0  0  0
   -4.3156   -3.0265    0.4267 C   0  0  0  0  0  0  0  0  0  0  0  0
   -8.7417   -2.2610   -0.5022 C   0  0  0  0  0  0  0  0  0  0  0  0
   -9.4573   -1.0673   -0.4871 O   0  0  0  0  0  0  0  0  0  0  0  0
   -9.3244   -3.3463   -0.2366 O   0  0  0  0  0  0  0  0  0  0  0  0
   -6.9613   -1.3152   -3.9274 H   0  0  0  0  0  0  0  0  0  0  0  0
   -6.2387   -2.7831   -3.1923 H   0  0  0  0  0  0  0  0  0  0  0  0
   -8.0528   -2.5608   -3.2363 H   0  0  0  0  0  0  0  0  0  0  0  0
   -6.9326   -3.2962   -1.0103 H   0  0  0  0  0  0  0  0  0  0  0  0
   -6.8104   -0.7311    0.6981 H   0  0  0  0  0  0  0  0  0  0  0  0
   -6.7680   -2.4100    1.3161 H   0  0  0  0  0  0  0  0  0  0  0  0
   -4.8519    0.2252   -0.4408 H   0  0  0  0  0  0  0  0  0  0  0  0
   -2.4455    0.1168   -0.8626 H   0  0  0  0  0  0  0  0  0  0  0  0
   -0.0853   -0.1654   -0.2609 H   0  0  0  0  0  0  0  0  0  0  0  0
   -0.3826   -0.6857   -1.9663 H   0  0  0  0  0  0  0  0  0  0  0  0
    1.4496   -2.3639   -1.7969 H   0  0  0  0  0  0  0  0  0  0  0  0
    2.0288   -0.6905   -1.5197 H   0  0  0  0  0  0  0  0  0  0  0  0
    1.3958   -2.7923    0.6580 H   0  0  0  0  0  0  0  0  0  0  0  0
    3.0330   -2.3301    0.1289 H   0  0  0  0  0  0  0  0  0  0  0  0
    1.7170    1.1742    2.8077 H   0  0  0  0  0  0  0  0  0  0  0  0
    3.1490    3.1804    2.8904 H   0  0  0  0  0  0  0  0  0  0  0  0
    6.4685    5.8079    0.4304 H   0  0  0  0  0  0  0  0  0  0  0  0
    8.8797    6.0208   -0.0850 H   0  0  0  0  0  0  0  0  0  0  0  0
   10.4073    4.1052    0.2950 H   0  0  0  0  0  0  0  0  0  0  0  0
    9.5236    1.9775    1.2106 H   0  0  0  0  0  0  0  0  0  0  0  0
    7.1276    1.7573    1.7482 H   0  0  0  0  0  0  0  0  0  0  0  0
    5.5444    1.5928   -0.3157 H   0  0  0  0  0  0  0  0  0  0  0  0
    4.1508   -0.4046   -0.3852 H   0  0  0  0  0  0  0  0  0  0  0  0
   -2.4119   -4.0207    0.3522 H   0  0  0  0  0  0  0  0  0  0  0  0
   -4.8351   -3.9106    0.7752 H   0  0  0  0  0  0  0  0  0  0  0  0
  -10.4483   -1.0584   -0.2772 H   0  0  0  0  0  0  0  0  0  0  0  0
  1  2  1  0
  2  3  1  0
  3  4  1  0
  4  5  1  0
  5  6  2  0
  6  7  1  0
  7  8  2  0
  8  9  1  0
  9 10  1  0
 10 11  1  0
 11 12  1  0
 12 13  1  0
 13 14  1  0
 14 15  2  0
 15 16  1  0
 16 17  2  0
 17 18  1  0
 18 19  1  0
 19 20  2  0
 20 21  1  0
 21 22  2  0
 22 23  1  0
 23 24  2  0
 17 25  1  0
 25 26  2  0
  8 27  1  0
 27 28  2  0
  3 29  1  0
 29 30  1  0
 29 31  2  0
 28  5  1  0
 26 14  1  0
 24 19  1  0
  1 32  1  0
  1 33  1  0
  1 34  1  0
  3 35  1  6
  4 36  1  0
  4 37  1  0
  6 38  1  0
  7 39  1  0
 10 40  1  0
 10 41  1  0
 11 42  1  0
 11 43  1  0
 12 44  1  0
 12 45  1  0
 15 46  1  0
 16 47  1  0
 20 48  1  0
 21 49  1  0
 22 50  1  0
 23 51  1  0
 24 52  1  0
 25 53  1  0
 26 54  1  0
 27 55  1  0
 28 56  1  0
 30 57  1  0
M  END
$$$$
