
     RDKit          3D

 34 36  0  0  0  0  0  0  0  0999 V2000
   -4.7979    0.3332   -2.1758 C   0  0  0  0  0  0  0  0  0  0  0  0
   -3.7157   -0.0055   -1.1940 C   0  0  0  0  0  0  0  0  0  0  0  0
   -2.6592   -0.8496   -1.5691 C   0  0  0  0  0  0  0  0  0  0  0  0
   -1.6695   -1.1945   -0.6437 C   0  0  0  0  0  0  0  0  0  0  0  0
   -1.7309   -0.7066    0.6684 C   0  0  0  0  0  0  0  0  0  0  0  0
   -0.4651   -1.1331    1.8733 S   0  0  0  0  0  0  0  0  0  0  0  0
    0.6679    0.1509    1.3115 C   0  0  0  0  0  0  0  0  0  0  0  0
    0.3357    1.4624    1.6868 C   0  0  0  0  0  0  0  0  0  0  0  0
    1.0956    2.5464    1.2609 C   0  0  0  0  0  0  0  0  0  0  0  0
    2.2199    2.3405    0.4719 C   0  0  0  0  0  0  0  0  0  0  0  0
    2.6094    1.0455    0.1220 C   0  0  0  0  0  0  0  0  0  0  0  0
    1.8455   -0.0845    0.5331 C   0  0  0  0  0  0  0  0  0  0  0  0
    2.3685   -1.3654    0.1792 C   0  0  0  0  0  0  0  0  0  0  0  0
    1.7571   -2.5990    0.5593 N   0  0  0  0  0  0  0  0  0  0  0  0
    3.5316   -1.4440   -0.5198 N   0  0  0  0  0  0  0  0  0  0  0  0
    4.2126   -0.3438   -0.9161 C   0  0  0  0  0  0  0  0  0  0  0  0
    5.4208   -0.4806   -1.6603 N   0  0  0  0  0  0  0  0  0  0  0  0
    3.7514    0.8852   -0.5924 N   0  0  0  0  0  0  0  0  0  0  0  0
   -2.7964    0.1177    1.0506 C   0  0  0  0  0  0  0  0  0  0  0  0
   -3.7869    0.4632    0.1267 C   0  0  0  0  0  0  0  0  0  0  0  0
   -4.3942    0.3586   -3.2104 H   0  0  0  0  0  0  0  0  0  0  0  0
   -5.2314    1.3312   -1.9521 H   0  0  0  0  0  0  0  0  0  0  0  0
   -5.6004   -0.4315   -2.1187 H   0  0  0  0  0  0  0  0  0  0  0  0
   -2.6003   -1.2386   -2.5782 H   0  0  0  0  0  0  0  0  0  0  0  0
   -0.8572   -1.8334   -0.9567 H   0  0  0  0  0  0  0  0  0  0  0  0
   -0.5375    1.6489    2.2992 H   0  0  0  0  0  0  0  0  0  0  0  0
    0.8112    3.5514    1.5454 H   0  0  0  0  0  0  0  0  0  0  0  0
    2.8080    3.1924    0.1524 H   0  0  0  0  0  0  0  0  0  0  0  0
    0.7727   -2.8091    0.2979 H   0  0  0  0  0  0  0  0  0  0  0  0
    2.3655   -3.4311    0.7258 H   0  0  0  0  0  0  0  0  0  0  0  0
    5.9531    0.3647   -1.9644 H   0  0  0  0  0  0  0  0  0  0  0  0
    5.7844   -1.4274   -1.9087 H   0  0  0  0  0  0  0  0  0  0  0  0
   -2.8602    0.4896    2.0653 H   0  0  0  0  0  0  0  0  0  0  0  0
   -4.6080    1.0958    0.4409 H   0  0  0  0  0  0  0  0  0  0  0  0
  1  2  1  0
  2  3  2  0
  3  4  1  0
  4  5  2  0
  5  6  1  0
  6  7  1  0
  7  8  2  0
  8  9  1  0
  9 10  2  0
 10 11  1  0
 11 12  2  0
 12 13  1  0
 13 14  1  0
 13 15  2  0
 15 16  1  0
 16 17  1  0
 16 18  2  0
  5 19  1  0
 19 20  2  0
 20  2  1  0
 12  7  1  0
 18 11  1  0
  1 21  1  0
  1 22  1  0
  1 23  1  0
  3 24  1  0
  4 25  1  0
  8 26  1  0
  9 27  1  0
 10 28  1  0
 14 29  1  0
 14 30  1  0
 17 31  1  0
 17 32  1  0
 19 33  1  0
 20 34  1  0
M  END
$$$$
