
     RDKit          3D

 59 63  0  0  0  0  0  0  0  0999 V2000
   -0.1947   -4.4425    1.2814 O   0  0  0  0  0  0  0  0  0  0  0  0
   -0.4756   -3.2862    1.6978 C   0  0  0  0  0  0  0  0  0  0  0  0
    0.2001   -2.7654    2.9298 C   0  0  0  0  0  0  0  0  0  0  0  0
    1.3149   -1.8302    2.5501 C   0  0  0  0  0  0  0  0  0  0  0  0
    1.0860   -0.4477    2.4687 C   0  0  0  0  0  0  0  0  0  0  0  0
    2.1123    0.4158    2.0760 C   0  0  0  0  0  0  0  0  0  0  0  0
    3.3827   -0.0902    1.7536 C   0  0  0  0  0  0  0  0  0  0  0  0
    3.6063   -1.4743    1.8241 C   0  0  0  0  0  0  0  0  0  0  0  0
    2.5796   -2.3382    2.2155 C   0  0  0  0  0  0  0  0  0  0  0  0
    4.4427    0.7934    1.3415 N   0  0  0  0  0  0  0  0  0  0  0  0
    5.7169    0.7981    2.0721 C   0  0  0  0  0  0  0  0  0  0  0  0
    6.8839    0.9755    1.0973 C   0  0  0  0  0  0  0  0  0  0  0  0
    6.6647    2.2024    0.2053 C   0  0  0  0  0  0  0  0  0  0  0  0
    5.3336    2.0972   -0.5470 C   0  0  0  0  0  0  0  0  0  0  0  0
    4.1661    1.9090    0.4269 C   0  0  0  0  0  0  0  0  0  0  0  0
   -1.3981   -2.4517    0.9810 N   0  0  0  0  0  0  0  0  0  0  0  0
   -2.0486   -2.8468   -0.2353 C   0  0  0  0  0  0  0  0  0  0  0  0
   -1.9328   -4.0658   -0.8159 N   0  0  0  0  0  0  0  0  0  0  0  0
   -2.6719   -4.0616   -1.9203 N   0  0  0  0  0  0  0  0  0  0  0  0
   -3.2512   -2.8551   -2.0429 C   0  0  0  0  0  0  0  0  0  0  0  0
   -2.8835   -2.0585   -0.9996 C   0  0  0  0  0  0  0  0  0  0  0  0
   -3.3324   -0.7466   -0.8722 C   0  0  0  0  0  0  0  0  0  0  0  0
   -4.2006   -0.2375   -1.8715 C   0  0  0  0  0  0  0  0  0  0  0  0
   -4.5801   -1.0848   -2.9537 C   0  0  0  0  0  0  0  0  0  0  0  0
   -4.1024   -2.4055   -3.0450 C   0  0  0  0  0  0  0  0  0  0  0  0
   -4.6977    1.1174   -1.7912 N   0  0  0  0  0  0  0  0  0  0  0  0
   -5.7040    1.6808   -2.6886 C   0  0  0  0  0  0  0  0  0  0  0  0
   -6.0859    3.0918   -2.1888 C   0  0  0  0  0  0  0  0  0  0  0  0
   -4.9188    3.7064   -1.4100 C   0  0  0  0  0  0  0  0  0  0  0  0
   -4.0470    2.3247   -0.7573 S   0  0  0  0  0  6  0  0  0  0  0  0
   -2.5622    2.4700   -0.9389 O   0  0  0  0  0  0  0  0  0  0  0  0
   -4.4078    2.0705    0.6792 O   0  0  0  0  0  0  0  0  0  0  0  0
   -0.5461   -2.2437    3.5675 H   0  0  0  0  0  0  0  0  0  0  0  0
    0.6021   -3.6116    3.5292 H   0  0  0  0  0  0  0  0  0  0  0  0
    0.1127   -0.0378    2.7086 H   0  0  0  0  0  0  0  0  0  0  0  0
    1.9186    1.4799    2.0325 H   0  0  0  0  0  0  0  0  0  0  0  0
    4.5713   -1.8859    1.5569 H   0  0  0  0  0  0  0  0  0  0  0  0
    2.7678   -3.4042    2.2511 H   0  0  0  0  0  0  0  0  0  0  0  0
    5.7129    1.6330    2.8063 H   0  0  0  0  0  0  0  0  0  0  0  0
    5.8611   -0.1473    2.6378 H   0  0  0  0  0  0  0  0  0  0  0  0
    6.9770    0.0661    0.4638 H   0  0  0  0  0  0  0  0  0  0  0  0
    7.8288    1.0972    1.6692 H   0  0  0  0  0  0  0  0  0  0  0  0
    7.4962    2.2765   -0.5281 H   0  0  0  0  0  0  0  0  0  0  0  0
    6.6717    3.1246    0.8274 H   0  0  0  0  0  0  0  0  0  0  0  0
    5.1716    3.0200   -1.1445 H   0  0  0  0  0  0  0  0  0  0  0  0
    5.3715    1.2343   -1.2478 H   0  0  0  0  0  0  0  0  0  0  0  0
    3.2446    1.7111   -0.1635 H   0  0  0  0  0  0  0  0  0  0  0  0
    4.0120    2.8394    1.0157 H   0  0  0  0  0  0  0  0  0  0  0  0
   -1.5916   -1.4968    1.3570 H   0  0  0  0  0  0  0  0  0  0  0  0
   -2.7704   -4.8726   -2.5704 H   0  0  0  0  0  0  0  0  0  0  0  0
   -3.0220   -0.1505   -0.0267 H   0  0  0  0  0  0  0  0  0  0  0  0
   -5.2382   -0.7268   -3.7332 H   0  0  0  0  0  0  0  0  0  0  0  0
   -4.3869   -3.0474   -3.8686 H   0  0  0  0  0  0  0  0  0  0  0  0
   -6.6086    1.0353   -2.7046 H   0  0  0  0  0  0  0  0  0  0  0  0
   -5.2819    1.7507   -3.7144 H   0  0  0  0  0  0  0  0  0  0  0  0
   -6.9595    3.0031   -1.5060 H   0  0  0  0  0  0  0  0  0  0  0  0
   -6.3764    3.7447   -3.0399 H   0  0  0  0  0  0  0  0  0  0  0  0
   -5.2782    4.3731   -0.5977 H   0  0  0  0  0  0  0  0  0  0  0  0
   -4.2546    4.2692   -2.0999 H   0  0  0  0  0  0  0  0  0  0  0  0
  1  2  2  0
  2  3  1  0
  3  4  1  0
  4  5  2  0
  5  6  1  0
  6  7  2  0
  7  8  1  0
  8  9  2  0
  7 10  1  0
 10 11  1  0
 11 12  1  0
 12 13  1  0
 13 14  1  0
 14 15  1  0
  2 16  1  0
 16 17  1  0
 17 18  2  0
 18 19  1  0
 19 20  1  0
 20 21  2  0
 21 22  1  0
 22 23  2  0
 23 24  1  0
 24 25  2  0
 23 26  1  0
 26 27  1  0
 27 28  1  0
 28 29  1  0
 29 30  1  0
 30 31  2  0
 30 32  2  0
  9  4  1  0
 15 10  1  0
 21 17  1  0
 30 26  1  0
 25 20  1  0
  3 33  1  0
  3 34  1  0
  5 35  1  0
  6 36  1  0
  8 37  1  0
  9 38  1  0
 11 39  1  0
 11 40  1  0
 12 41  1  0
 12 42  1  0
 13 43  1  0
 13 44  1  0
 14 45  1  0
 14 46  1  0
 15 47  1  0
 15 48  1  0
 16 49  1  0
 19 50  1  0
 22 51  1  0
 24 52  1  0
 25 53  1  0
 27 54  1  0
 27 55  1  0
 28 56  1  0
 28 57  1  0
 29 58  1  0
 29 59  1  0
M  END
$$$$
