
     RDKit          3D

 48 51  0  0  0  0  0  0  0  0999 V2000
    1.8920   -0.0544    0.9184 C   0  0  2  0  0  0  0  0  0  0  0  0
    2.8800    0.6781    1.8322 C   0  0  0  0  0  0  0  0  0  0  0  0
    4.1659   -0.1597    1.7062 C   0  0  0  0  0  0  0  0  0  0  0  0
    3.9847   -0.9074    0.4204 C   0  0  0  0  0  0  0  0  0  0  0  0
    4.8022   -1.6992   -0.0231 O   0  0  0  0  0  0  0  0  0  0  0  0
    2.7336   -0.5095   -0.2880 C   0  0  2  0  0  0  0  0  0  0  0  0
    3.1294    0.6144   -1.2884 C   0  0  0  0  0  0  0  0  0  0  0  0
    1.9645   -1.6336   -1.0090 C   0  0  0  0  0  0  0  0  0  0  0  0
    0.5580   -1.1458   -1.4519 C   0  0  0  0  0  0  0  0  0  0  0  0
   -0.2574   -0.4878   -0.2898 C   0  0  1  0  0  0  0  0  0  0  0  0
    0.5723    0.6030    0.4625 C   0  0  1  0  0  0  0  0  0  0  0  0
   -0.2274    1.2702    1.6134 C   0  0  0  0  0  0  0  0  0  0  0  0
   -1.6330    0.7014    1.8777 C   0  0  0  0  0  0  0  0  0  0  0  0
   -2.4337    0.3499    0.6305 C   0  0  0  0  0  0  0  0  0  0  0  0
   -3.7845    0.2055    0.7090 C   0  0  0  0  0  0  0  0  0  0  0  0
   -4.4947    0.4062    1.8993 O   0  0  0  0  0  0  0  0  0  0  0  0
   -4.5763   -0.2161   -0.4622 C   0  0  0  0  0  0  0  0  0  0  0  0
   -5.8340   -0.1603   -0.4116 O   0  0  0  0  0  0  0  0  0  0  0  0
   -3.9244   -0.7122   -1.7128 C   0  0  0  0  0  0  0  0  0  0  0  0
   -2.4514   -1.0557   -1.4755 C   0  0  0  0  0  0  0  0  0  0  0  0
   -1.6856    0.0433   -0.6774 C   0  0  2  0  0  0  0  0  0  0  0  0
   -1.6104    1.3374   -1.5299 C   0  0  0  0  0  0  0  0  0  0  0  0
    1.5950   -0.9574    1.5092 H   0  0  0  0  0  0  0  0  0  0  0  0
    2.5353    0.6979    2.8882 H   0  0  0  0  0  0  0  0  0  0  0  0
    3.0463    1.7186    1.4789 H   0  0  0  0  0  0  0  0  0  0  0  0
    4.2477   -0.8801    2.5484 H   0  0  0  0  0  0  0  0  0  0  0  0
    5.0656    0.4905    1.6637 H   0  0  0  0  0  0  0  0  0  0  0  0
    3.8487    0.2145   -2.0356 H   0  0  0  0  0  0  0  0  0  0  0  0
    3.6210    1.4665   -0.7741 H   0  0  0  0  0  0  0  0  0  0  0  0
    2.2702    1.0178   -1.8565 H   0  0  0  0  0  0  0  0  0  0  0  0
    2.5341   -1.9780   -1.8996 H   0  0  0  0  0  0  0  0  0  0  0  0
    1.8487   -2.5086   -0.3313 H   0  0  0  0  0  0  0  0  0  0  0  0
    0.6479   -0.4462   -2.3064 H   0  0  0  0  0  0  0  0  0  0  0  0
    0.0217   -2.0423   -1.8263 H   0  0  0  0  0  0  0  0  0  0  0  0
   -0.4283   -1.3216    0.4321 H   0  0  0  0  0  0  0  0  0  0  0  0
    0.8313    1.4163   -0.2429 H   0  0  0  0  0  0  0  0  0  0  0  0
   -0.3391    2.3524    1.3779 H   0  0  0  0  0  0  0  0  0  0  0  0
    0.3309    1.2328    2.5705 H   0  0  0  0  0  0  0  0  0  0  0  0
   -2.1613    1.4818    2.4648 H   0  0  0  0  0  0  0  0  0  0  0  0
   -1.5471   -0.2095    2.5088 H   0  0  0  0  0  0  0  0  0  0  0  0
   -4.0711    0.5524    2.8052 H   0  0  0  0  0  0  0  0  0  0  0  0
   -4.0231    0.0549   -2.5091 H   0  0  0  0  0  0  0  0  0  0  0  0
   -4.4532   -1.6244   -2.0646 H   0  0  0  0  0  0  0  0  0  0  0  0
   -1.9849   -1.2136   -2.4716 H   0  0  0  0  0  0  0  0  0  0  0  0
   -2.4022   -2.0192   -0.9199 H   0  0  0  0  0  0  0  0  0  0  0  0
   -1.0467    1.1630   -2.4695 H   0  0  0  0  0  0  0  0  0  0  0  0
   -2.6226    1.7019   -1.7976 H   0  0  0  0  0  0  0  0  0  0  0  0
   -1.1346    2.1717   -0.9783 H   0  0  0  0  0  0  0  0  0  0  0  0
  1  2  1  0
  2  3  1  0
  3  4  1  0
  4  5  2  0
  4  6  1  0
  6  7  1  6
  6  8  1  0
  8  9  1  0
  9 10  1  0
 10 11  1  0
 11 12  1  0
 12 13  1  0
 13 14  1  0
 14 15  2  0
 15 16  1  0
 15 17  1  0
 17 18  2  0
 17 19  1  0
 19 20  1  0
 20 21  1  0
 21 22  1  6
  6  1  1  0
 21 10  1  0
 11  1  1  0
 21 14  1  0
  1 23  1  1
  2 24  1  0
  2 25  1  0
  3 26  1  0
  3 27  1  0
  7 28  1  0
  7 29  1  0
  7 30  1  0
  8 31  1  0
  8 32  1  0
  9 33  1  0
  9 34  1  0
 10 35  1  1
 11 36  1  6
 12 37  1  0
 12 38  1  0
 13 39  1  0
 13 40  1  0
 16 41  1  0
 19 42  1  0
 19 43  1  0
 20 44  1  0
 20 45  1  0
 22 46  1  0
 22 47  1  0
 22 48  1  0
M  END
$$$$
