
     RDKit          3D

 46 49  0  0  0  0  0  0  0  0999 V2000
   -6.4337   -0.4874    2.7139 F   0  0  0  0  0  0  0  0  0  0  0  0
   -7.4511   -1.0797    1.9857 C   0  0  0  0  0  0  0  0  0  0  0  0
   -7.4132   -2.4466    2.1879 F   0  0  0  0  0  0  0  0  0  0  0  0
   -8.6583   -0.5881    2.4517 F   0  0  0  0  0  0  0  0  0  0  0  0
   -7.2883   -0.7906    0.5145 C   0  0  0  0  0  0  0  0  0  0  0  0
   -8.4118   -0.7302   -0.3276 C   0  0  0  0  0  0  0  0  0  0  0  0
   -8.2553   -0.5262   -1.7002 C   0  0  0  0  0  0  0  0  0  0  0  0
   -6.9788   -0.3894   -2.2487 C   0  0  0  0  0  0  0  0  0  0  0  0
   -5.8435   -0.4491   -1.4284 C   0  0  0  0  0  0  0  0  0  0  0  0
   -4.5387   -0.3417   -2.0235 N   0  0  0  0  0  0  0  0  0  0  0  0
   -3.4073    0.2654   -1.3805 C   0  0  0  0  0  0  0  0  0  0  0  0
   -3.5642    0.9457   -0.3302 O   0  0  0  0  0  0  0  0  0  0  0  0
   -2.1045    0.1268   -1.9673 N   0  0  0  0  0  0  0  0  0  0  0  0
   -0.9108    0.6949   -1.4127 C   0  0  0  0  0  0  0  0  0  0  0  0
   -0.8731    1.4160   -0.2692 N   0  0  0  0  0  0  0  0  0  0  0  0
    0.3893    1.8241    0.0260 C   0  0  0  0  0  0  0  0  0  0  0  0
    1.3567    1.4331   -0.8939 C   0  0  0  0  0  0  0  0  0  0  0  0
    2.8278    1.6825   -0.7795 C   0  0  0  0  0  0  0  0  0  0  0  0
    3.4994    0.5747    0.0356 C   0  0  0  0  0  0  0  0  0  0  0  0
    4.9387    0.8095    0.1493 N   0  0  0  0  0  0  0  0  0  0  0  0
    5.7876   -0.0959    0.8695 C   0  0  0  0  0  0  0  0  0  0  0  0
    5.2715   -1.2075    1.4718 N   0  0  0  0  0  0  0  0  0  0  0  0
    6.0656   -2.0806    2.1618 C   0  0  0  0  0  0  0  0  0  0  0  0
    7.4080   -1.8599    2.2664 N   0  0  0  0  0  0  0  0  0  0  0  0
    7.9501   -0.7643    1.6788 C   0  0  0  0  0  0  0  0  0  0  0  0
    7.1596    0.1239    0.9800 C   0  0  0  0  0  0  0  0  0  0  0  0
    8.1209    1.3636    0.3780 S   0  0  0  0  0  0  0  0  0  0  0  0
    9.5679    0.7591    1.0179 C   0  0  0  0  0  0  0  0  0  0  0  0
    9.3035   -0.4226    1.7097 C   0  0  0  0  0  0  0  0  0  0  0  0
    0.6148    0.5256   -2.1020 S   0  0  0  0  0  0  0  0  0  0  0  0
   -6.0044   -0.6793   -0.0495 C   0  0  0  0  0  0  0  0  0  0  0  0
   -9.4102   -0.8509    0.0736 H   0  0  0  0  0  0  0  0  0  0  0  0
   -9.1258   -0.4811   -2.3419 H   0  0  0  0  0  0  0  0  0  0  0  0
   -6.8727   -0.2342   -3.3151 H   0  0  0  0  0  0  0  0  0  0  0  0
   -4.4256   -0.6454   -3.0171 H   0  0  0  0  0  0  0  0  0  0  0  0
   -2.0153   -0.4271   -2.8485 H   0  0  0  0  0  0  0  0  0  0  0  0
    0.6126    2.4009    0.9138 H   0  0  0  0  0  0  0  0  0  0  0  0
    3.2726    1.7199   -1.7974 H   0  0  0  0  0  0  0  0  0  0  0  0
    2.9986    2.6653   -0.2887 H   0  0  0  0  0  0  0  0  0  0  0  0
    3.3279   -0.4055   -0.4611 H   0  0  0  0  0  0  0  0  0  0  0  0
    3.0535    0.5431    1.0541 H   0  0  0  0  0  0  0  0  0  0  0  0
    5.3607    1.6529   -0.3020 H   0  0  0  0  0  0  0  0  0  0  0  0
    5.6268   -2.9520    2.6278 H   0  0  0  0  0  0  0  0  0  0  0  0
   10.5426    1.2150    0.9089 H   0  0  0  0  0  0  0  0  0  0  0  0
   10.0631   -1.0066    2.2125 H   0  0  0  0  0  0  0  0  0  0  0  0
   -5.1333   -0.8003    0.5811 H   0  0  0  0  0  0  0  0  0  0  0  0
  1  2  1  0
  2  3  1  0
  2  4  1  0
  2  5  1  0
  5  6  2  0
  6  7  1  0
  7  8  2  0
  8  9  1  0
  9 10  1  0
 10 11  1  0
 11 12  2  0
 11 13  1  0
 13 14  1  0
 14 15  2  0
 15 16  1  0
 16 17  2  0
 17 18  1  0
 18 19  1  0
 19 20  1  0
 20 21  1  0
 21 22  2  0
 22 23  1  0
 23 24  2  0
 24 25  1  0
 25 26  2  0
 26 27  1  0
 27 28  1  0
 28 29  2  0
 17 30  1  0
  9 31  2  0
 31  5  1  0
 30 14  1  0
 26 21  1  0
 29 25  1  0
  6 32  1  0
  7 33  1  0
  8 34  1  0
 10 35  1  0
 13 36  1  0
 16 37  1  0
 18 38  1  0
 18 39  1  0
 19 40  1  0
 19 41  1  0
 20 42  1  0
 23 43  1  0
 28 44  1  0
 29 45  1  0
 31 46  1  0
M  END
$$$$
