
     RDKit          3D

 33 35  0  0  0  0  0  0  0  0999 V2000
    2.3926   -0.8328   -0.3886 C   0  0  1  0  0  0  0  0  0  0  0  0
    2.4838   -2.0481    0.5444 C   0  0  0  0  0  0  0  0  0  0  0  0
    3.6321   -1.9768    1.3462 O   0  0  0  0  0  0  0  0  0  0  0  0
    1.2473   -0.9434   -1.1995 O   0  0  0  0  0  0  0  0  0  0  0  0
    0.8040    0.3682   -1.4818 C   0  0  1  0  0  0  0  0  0  0  0  0
   -0.6397    0.4619   -1.2536 N   0  0  0  0  0  0  0  0  0  0  0  0
   -1.5412    1.1629   -1.9876 C   0  0  0  0  0  0  0  0  0  0  0  0
   -2.8002    1.1312   -1.4706 N   0  0  0  0  0  0  0  0  0  0  0  0
   -2.6540    0.3814   -0.3613 C   0  0  0  0  0  0  0  0  0  0  0  0
   -3.6134    0.0274    0.5867 C   0  0  0  0  0  0  0  0  0  0  0  0
   -4.9771    0.4377    0.4626 N   0  0  0  0  0  0  0  0  0  0  0  0
   -3.1802   -0.7507    1.6803 C   0  0  0  0  0  0  0  0  0  0  0  0
   -1.8210   -1.1315    1.7778 C   0  0  0  0  0  0  0  0  0  0  0  0
   -0.9231   -0.7537    0.8187 N   0  0  0  0  0  0  0  0  0  0  0  0
   -1.3612   -0.0117   -0.2286 C   0  0  0  0  0  0  0  0  0  0  0  0
    1.5558    1.3701   -0.5946 C   0  0  2  0  0  0  0  0  0  0  0  0
    2.4575    2.1233   -1.3663 O   0  0  0  0  0  0  0  0  0  0  0  0
    2.2967    0.4795    0.3753 C   0  0  2  0  0  0  0  0  0  0  0  0
    3.5732    0.9733    0.6905 O   0  0  0  0  0  0  0  0  0  0  0  0
    3.2888   -0.8213   -1.0511 H   0  0  0  0  0  0  0  0  0  0  0  0
    2.4967   -2.9841   -0.0591 H   0  0  0  0  0  0  0  0  0  0  0  0
    1.5897   -2.0893    1.2022 H   0  0  0  0  0  0  0  0  0  0  0  0
    4.4020   -2.1977    0.7596 H   0  0  0  0  0  0  0  0  0  0  0  0
    1.0102    0.5751   -2.5563 H   0  0  0  0  0  0  0  0  0  0  0  0
   -1.2861    1.7063   -2.8883 H   0  0  0  0  0  0  0  0  0  0  0  0
   -5.6819    0.1652    1.1834 H   0  0  0  0  0  0  0  0  0  0  0  0
   -5.2914    1.0148   -0.3490 H   0  0  0  0  0  0  0  0  0  0  0  0
   -3.8801   -1.0554    2.4479 H   0  0  0  0  0  0  0  0  0  0  0  0
   -1.4871   -1.7252    2.6181 H   0  0  0  0  0  0  0  0  0  0  0  0
    0.8680    2.0494   -0.0372 H   0  0  0  0  0  0  0  0  0  0  0  0
    1.9184    2.8132   -1.8344 H   0  0  0  0  0  0  0  0  0  0  0  0
    1.6879    0.3470    1.3014 H   0  0  0  0  0  0  0  0  0  0  0  0
    3.4330    1.7337    1.3130 H   0  0  0  0  0  0  0  0  0  0  0  0
  1  2  1  0
  2  3  1  0
  1  4  1  0
  4  5  1  0
  5  6  1  0
  6  7  1  0
  7  8  2  0
  8  9  1  0
  9 10  2  0
 10 11  1  0
 10 12  1  0
 12 13  2  0
 13 14  1  0
 14 15  2  0
  5 16  1  0
 16 17  1  0
 16 18  1  0
 18 19  1  0
 18  1  1  0
 15  6  1  0
 15  9  1  0
  1 20  1  6
  2 21  1  0
  2 22  1  0
  3 23  1  0
  5 24  1  6
  7 25  1  0
 11 26  1  0
 11 27  1  0
 12 28  1  0
 13 29  1  0
 16 30  1  1
 17 31  1  0
 18 32  1  1
 19 33  1  0
M  END
$$$$
