
     RDKit          3D

 26 26  0  0  0  0  0  0  0  0999 V2000
   -4.1704    0.9366   -0.5674 C   0  0  0  0  0  0  0  0  0  0  0  0
   -2.7156    0.6244   -0.3901 C   0  0  0  0  0  0  0  0  0  0  0  0
   -1.7984    1.5933   -0.6357 N   0  0  0  0  0  0  0  0  0  0  0  0
   -0.4690    1.3890   -0.4713 C   0  0  0  0  0  0  0  0  0  0  0  0
    0.0183    0.1354   -0.0628 C   0  0  0  0  0  0  0  0  0  0  0  0
    1.5112   -0.0765    0.1066 C   0  0  0  0  0  0  0  0  0  0  0  0
    2.2417    0.8404   -0.6770 O   0  0  0  0  0  0  0  0  0  0  0  0
    3.9008    0.6685   -0.3161 P   0  0  0  0  0  5  0  0  0  0  0  0
    4.7917    1.6427   -1.3739 O   0  0  0  0  0  0  0  0  0  0  0  0
    4.3910   -0.9409   -0.5185 O   0  0  0  0  0  0  0  0  0  0  0  0
    4.1696    1.1126    1.1053 O   0  0  0  0  0  0  0  0  0  0  0  0
   -0.9157   -0.8917    0.2336 C   0  0  0  0  0  0  0  0  0  0  0  0
   -0.4356   -2.2157    0.6910 C   0  0  0  0  0  0  0  0  0  0  0  0
   -0.9550   -3.2800    0.2631 O   0  0  0  0  0  0  0  0  0  0  0  0
   -2.3013   -0.6293    0.0863 C   0  0  0  0  0  0  0  0  0  0  0  0
   -3.2814   -1.5646    0.4358 O   0  0  0  0  0  0  0  0  0  0  0  0
   -4.3008    1.9266   -1.0538 H   0  0  0  0  0  0  0  0  0  0  0  0
   -4.6491    0.1654   -1.2072 H   0  0  0  0  0  0  0  0  0  0  0  0
   -4.6720    0.9567    0.4229 H   0  0  0  0  0  0  0  0  0  0  0  0
    0.2057    2.2108   -0.6704 H   0  0  0  0  0  0  0  0  0  0  0  0
    1.7419    0.0441    1.1894 H   0  0  0  0  0  0  0  0  0  0  0  0
    1.7676   -1.1081   -0.2201 H   0  0  0  0  0  0  0  0  0  0  0  0
    4.4032    2.5480   -1.2712 H   0  0  0  0  0  0  0  0  0  0  0  0
    4.1976   -1.3825    0.3469 H   0  0  0  0  0  0  0  0  0  0  0  0
    0.4114   -2.2833    1.3610 H   0  0  0  0  0  0  0  0  0  0  0  0
   -3.0873   -2.4219    0.9343 H   0  0  0  0  0  0  0  0  0  0  0  0
  1  2  1  0
  2  3  2  0
  3  4  1  0
  4  5  2  0
  5  6  1  0
  6  7  1  0
  7  8  1  0
  8  9  1  0
  8 10  1  0
  8 11  2  0
  5 12  1  0
 12 13  1  0
 13 14  2  0
 12 15  2  0
 15 16  1  0
 15  2  1  0
  1 17  1  0
  1 18  1  0
  1 19  1  0
  4 20  1  0
  6 21  1  0
  6 22  1  0
  9 23  1  0
 10 24  1  0
 13 25  1  0
 16 26  1  0
M  END
$$$$
