
     RDKit          3D

 51 54  0  0  0  0  0  0  0  0999 V2000
    5.4970   -1.2498    0.2856 C   0  0  2  0  0  0  0  0  0  0  0  0
    5.9827    0.1865    0.4170 C   0  0  0  0  0  0  0  0  0  0  0  0
    7.4359    0.1069    0.0256 C   0  0  0  0  0  0  0  0  0  0  0  0
    7.4960   -1.0526   -0.9544 C   0  0  0  0  0  0  0  0  0  0  0  0
    6.3251   -1.9054   -0.7310 N   0  0  0  0  0  0  0  0  0  0  0  0
    4.0504   -1.3034   -0.1107 C   0  0  0  0  0  0  0  0  0  0  0  0
    3.7081   -1.0714   -1.4467 O   0  0  0  0  0  0  0  0  0  0  0  0
    3.1532   -1.5347    0.8025 N   0  0  0  0  0  0  0  0  0  0  0  0
    1.4443   -1.6041    0.5234 S   0  0  0  0  0  6  0  0  0  0  0  0
    0.7561   -1.8494    1.8372 O   0  0  0  0  0  0  0  0  0  0  0  0
    1.1417   -2.7391   -0.4163 O   0  0  0  0  0  0  0  0  0  0  0  0
    0.9300   -0.1238   -0.1225 O   0  0  0  0  0  0  0  0  0  0  0  0
   -0.4369   -0.2266   -0.4427 C   0  0  0  0  0  0  0  0  0  0  0  0
   -0.9475    1.1274   -0.9493 C   0  0  1  0  0  0  0  0  0  0  0  0
   -2.2690    0.9691   -1.4282 O   0  0  0  0  0  0  0  0  0  0  0  0
   -3.0949    1.8841   -0.7422 C   0  0  1  0  0  0  0  0  0  0  0  0
   -4.3897    1.2709   -0.4402 N   0  0  0  0  0  0  0  0  0  0  0  0
   -5.6027    1.8814   -0.4250 C   0  0  0  0  0  0  0  0  0  0  0  0
   -6.6136    1.0660   -0.0148 N   0  0  0  0  0  0  0  0  0  0  0  0
   -5.9761   -0.0924    0.2394 C   0  0  0  0  0  0  0  0  0  0  0  0
   -6.4844   -1.2959    0.7152 C   0  0  0  0  0  0  0  0  0  0  0  0
   -7.8742   -1.4687    0.9923 N   0  0  0  0  0  0  0  0  0  0  0  0
   -5.6019   -2.3199    0.9178 N   0  0  0  0  0  0  0  0  0  0  0  0
   -4.2618   -2.1690    0.6650 C   0  0  0  0  0  0  0  0  0  0  0  0
   -3.7736   -0.9801    0.1996 N   0  0  0  0  0  0  0  0  0  0  0  0
   -4.6520    0.0308   -0.0063 C   0  0  0  0  0  0  0  0  0  0  0  0
   -2.3911    2.3169    0.5332 C   0  0  2  0  0  0  0  0  0  0  0  0
   -2.7503    3.6268    0.8887 O   0  0  0  0  0  0  0  0  0  0  0  0
   -0.9324    2.1965    0.1564 C   0  0  2  0  0  0  0  0  0  0  0  0
   -0.4032    3.4143   -0.3175 O   0  0  0  0  0  0  0  0  0  0  0  0
    5.6364   -1.7620    1.2679 H   0  0  0  0  0  0  0  0  0  0  0  0
    5.4505    0.8598   -0.2930 H   0  0  0  0  0  0  0  0  0  0  0  0
    5.8595    0.5688    1.4538 H   0  0  0  0  0  0  0  0  0  0  0  0
    7.7890    1.0548   -0.4355 H   0  0  0  0  0  0  0  0  0  0  0  0
    8.0537   -0.1251    0.9214 H   0  0  0  0  0  0  0  0  0  0  0  0
    7.4577   -0.6636   -1.9947 H   0  0  0  0  0  0  0  0  0  0  0  0
    8.4429   -1.6240   -0.8268 H   0  0  0  0  0  0  0  0  0  0  0  0
    6.6448   -2.8320   -0.3609 H   0  0  0  0  0  0  0  0  0  0  0  0
    2.7575   -1.0881   -1.7903 H   0  0  0  0  0  0  0  0  0  0  0  0
   -1.0350   -0.5265    0.4475 H   0  0  0  0  0  0  0  0  0  0  0  0
   -0.5831   -0.9773   -1.2513 H   0  0  0  0  0  0  0  0  0  0  0  0
   -0.3008    1.4417   -1.7988 H   0  0  0  0  0  0  0  0  0  0  0  0
   -3.2536    2.7651   -1.4053 H   0  0  0  0  0  0  0  0  0  0  0  0
   -5.7538    2.9179   -0.6981 H   0  0  0  0  0  0  0  0  0  0  0  0
   -8.2275   -2.3832    1.3513 H   0  0  0  0  0  0  0  0  0  0  0  0
   -8.5537   -0.6903    0.8410 H   0  0  0  0  0  0  0  0  0  0  0  0
   -3.5863   -2.9956    0.8370 H   0  0  0  0  0  0  0  0  0  0  0  0
   -2.6248    1.6067    1.3620 H   0  0  0  0  0  0  0  0  0  0  0  0
   -2.3737    3.7836    1.7936 H   0  0  0  0  0  0  0  0  0  0  0  0
   -0.3379    1.8830    1.0431 H   0  0  0  0  0  0  0  0  0  0  0  0
   -0.9268    3.6924   -1.1146 H   0  0  0  0  0  0  0  0  0  0  0  0
  1  2  1  0
  2  3  1  0
  3  4  1  0
  4  5  1  0
  1  6  1  0
  6  7  1  0
  6  8  2  3
  8  9  1  0
  9 10  2  0
  9 11  2  0
  9 12  1  0
 12 13  1  0
 13 14  1  0
 14 15  1  0
 15 16  1  0
 16 17  1  0
 17 18  1  0
 18 19  2  0
 19 20  1  0
 20 21  2  0
 21 22  1  0
 21 23  1  0
 23 24  2  0
 24 25  1  0
 25 26  2  0
 16 27  1  0
 27 28  1  0
 27 29  1  0
 29 30  1  0
  5  1  1  0
 29 14  1  0
 26 17  1  0
 26 20  1  0
  1 31  1  1
  2 32  1  0
  2 33  1  0
  3 34  1  0
  3 35  1  0
  4 36  1  0
  4 37  1  0
  5 38  1  0
  7 39  1  0
 13 40  1  0
 13 41  1  0
 14 42  1  6
 16 43  1  6
 18 44  1  0
 22 45  1  0
 22 46  1  0
 24 47  1  0
 27 48  1  1
 28 49  1  0
 29 50  1  1
 30 51  1  0
M  END
$$$$
