
     RDKit          3D

 77 81  0  0  0  0  0  0  0  0999 V2000
   -7.3803   -4.1656    3.5037 N   0  0  0  0  0  0  0  0  0  0  0  0
   -6.4178   -3.2608    2.9623 C   0  0  0  0  0  0  0  0  0  0  0  0
   -6.6377   -2.5861    1.7666 C   0  0  0  0  0  0  0  0  0  0  0  0
   -7.7087   -2.6149    0.9512 N   0  0  0  0  0  0  0  0  0  0  0  0
   -7.3610   -1.7394   -0.0325 C   0  0  0  0  0  0  0  0  0  0  0  0
   -6.1307   -1.1912    0.1432 N   0  0  0  0  0  0  0  0  0  0  0  0
   -5.4982   -0.1545   -0.6761 C   0  0  2  0  0  0  0  0  0  0  0  0
   -4.1196   -0.4321   -0.8114 O   0  0  0  0  0  0  0  0  0  0  0  0
   -3.4179    0.7542   -0.5204 C   0  0  2  0  0  0  0  0  0  0  0  0
   -2.0610    0.4134    0.1033 C   0  0  0  0  0  0  0  0  0  0  0  0
   -1.3572    1.6040    0.3717 O   0  0  0  0  0  0  0  0  0  0  0  0
    0.1558    1.1927    1.0421 P   0  0  0  0  0  5  0  0  0  0  0  0
   -0.0747    0.2351    2.4195 O   0  0  0  0  0  0  0  0  0  0  0  0
    0.8760    2.4560    1.4585 O   0  0  0  0  0  0  0  0  0  0  0  0
    1.0970    0.3164   -0.0748 O   0  0  0  0  0  0  0  0  0  0  0  0
    1.3494    1.3051   -1.4406 P   0  0  0  0  0  5  0  0  0  0  0  0
    2.1292    2.7451   -1.0055 O   0  0  0  0  0  0  0  0  0  0  0  0
    0.0305    1.6315   -2.1048 O   0  0  0  0  0  0  0  0  0  0  0  0
    2.3227    0.4689   -2.5649 O   0  0  0  0  0  0  0  0  0  0  0  0
    3.5137    0.0467   -1.9302 C   0  0  1  0  0  0  0  0  0  0  0  0
    3.3967   -1.3708   -1.4193 C   0  0  0  0  0  0  0  0  0  0  0  0
    4.6951   -2.0405   -1.8778 C   0  0  1  0  0  0  0  0  0  0  0  0
    5.5041   -1.0863   -2.5309 O   0  0  0  0  0  0  0  0  0  0  0  0
    4.6349   -0.0660   -2.9568 C   0  0  2  0  0  0  0  0  0  0  0  0
    5.3999    1.2498   -3.1390 C   0  0  0  0  0  0  0  0  0  0  0  0
    6.0800    1.5798   -1.9502 O   0  0  0  0  0  0  0  0  0  0  0  0
    6.8096    3.1056   -2.1569 P   0  0  0  0  0  5  0  0  0  0  0  0
    5.6183    4.2841   -2.3977 O   0  0  0  0  0  0  0  0  0  0  0  0
    7.8574    3.0785   -3.4868 O   0  0  0  0  0  0  0  0  0  0  0  0
    7.5967    3.4457   -0.9118 O   0  0  0  0  0  0  0  0  0  0  0  0
    5.4212   -2.6399   -0.7388 N   0  0  0  0  0  0  0  0  0  0  0  0
    5.4161   -4.0002   -0.5939 C   0  0  0  0  0  0  0  0  0  0  0  0
    6.0750   -4.6042    0.4734 C   0  0  0  0  0  0  0  0  0  0  0  0
    6.7309   -3.7961    1.3954 C   0  0  0  0  0  0  0  0  0  0  0  0
    7.3362   -4.3156    2.3706 O   0  0  0  0  0  0  0  0  0  0  0  0
    6.7139   -2.4464    1.2432 N   0  0  0  0  0  0  0  0  0  0  0  0
    6.0653   -1.8643    0.1964 C   0  0  0  0  0  0  0  0  0  0  0  0
    6.0599   -0.6064    0.1024 O   0  0  0  0  0  0  0  0  0  0  0  0
   -4.2809    1.6043    0.4054 C   0  0  1  0  0  0  0  0  0  0  0  0
   -4.0030    2.9776    0.2038 O   0  0  0  0  0  0  0  0  0  0  0  0
   -4.2984    3.8389    1.6472 P   0  0  0  0  0  5  0  0  0  0  0  0
   -5.8374    3.4718    2.2504 O   0  0  0  0  0  0  0  0  0  0  0  0
   -4.2092    5.4970    1.3252 O   0  0  0  0  0  0  0  0  0  0  0  0
   -3.2510    3.4793    2.6773 O   0  0  0  0  0  0  0  0  0  0  0  0
   -5.6820    1.2284   -0.0334 C   0  0  1  0  0  0  0  0  0  0  0  0
   -6.2229    2.1527   -0.9498 O   0  0  0  0  0  0  0  0  0  0  0  0
   -5.7016   -1.7340    1.2907 C   0  0  0  0  0  0  0  0  0  0  0  0
   -4.5363   -1.4934    1.9385 N   0  0  0  0  0  0  0  0  0  0  0  0
   -4.3075   -2.1526    3.1138 C   0  0  0  0  0  0  0  0  0  0  0  0
   -5.2403   -3.0250    3.6151 N   0  0  0  0  0  0  0  0  0  0  0  0
   -7.1893   -4.6567    4.4050 H   0  0  0  0  0  0  0  0  0  0  0  0
   -8.2825   -4.3494    3.0110 H   0  0  0  0  0  0  0  0  0  0  0  0
   -8.0105   -1.4968   -0.8636 H   0  0  0  0  0  0  0  0  0  0  0  0
   -5.9556   -0.1733   -1.6907 H   0  0  0  0  0  0  0  0  0  0  0  0
   -3.2392    1.2965   -1.4776 H   0  0  0  0  0  0  0  0  0  0  0  0
   -2.2316   -0.1687    1.0368 H   0  0  0  0  0  0  0  0  0  0  0  0
   -1.5005   -0.2203   -0.6211 H   0  0  0  0  0  0  0  0  0  0  0  0
   -0.6791    0.7655    2.9981 H   0  0  0  0  0  0  0  0  0  0  0  0
    2.3997    3.1559   -1.8651 H   0  0  0  0  0  0  0  0  0  0  0  0
    3.8469    0.7134   -1.0978 H   0  0  0  0  0  0  0  0  0  0  0  0
    2.5212   -1.8892   -1.8704 H   0  0  0  0  0  0  0  0  0  0  0  0
    3.2832   -1.3799   -0.3129 H   0  0  0  0  0  0  0  0  0  0  0  0
    4.4409   -2.8239   -2.6294 H   0  0  0  0  0  0  0  0  0  0  0  0
    4.2097   -0.3577   -3.9458 H   0  0  0  0  0  0  0  0  0  0  0  0
    6.1257    1.1121   -3.9719 H   0  0  0  0  0  0  0  0  0  0  0  0
    4.6660    2.0398   -3.4211 H   0  0  0  0  0  0  0  0  0  0  0  0
    6.1207    5.1147   -2.5940 H   0  0  0  0  0  0  0  0  0  0  0  0
    8.4842    2.3348   -3.2994 H   0  0  0  0  0  0  0  0  0  0  0  0
    4.8995   -4.6325   -1.3064 H   0  0  0  0  0  0  0  0  0  0  0  0
    6.0716   -5.6821    0.5803 H   0  0  0  0  0  0  0  0  0  0  0  0
    7.2036   -1.8444    1.9445 H   0  0  0  0  0  0  0  0  0  0  0  0
   -4.1203    1.2602    1.4569 H   0  0  0  0  0  0  0  0  0  0  0  0
   -5.9452    4.0577    3.0415 H   0  0  0  0  0  0  0  0  0  0  0  0
   -4.9063    5.6568    0.6400 H   0  0  0  0  0  0  0  0  0  0  0  0
   -6.3557    1.1806    0.8506 H   0  0  0  0  0  0  0  0  0  0  0  0
   -5.6218    2.1938   -1.7397 H   0  0  0  0  0  0  0  0  0  0  0  0
   -3.3855   -1.9834    3.6527 H   0  0  0  0  0  0  0  0  0  0  0  0
  1  2  1  0
  2  3  2  0
  3  4  1  0
  4  5  2  0
  5  6  1  0
  6  7  1  0
  7  8  1  0
  8  9  1  0
  9 10  1  0
 10 11  1  0
 11 12  1  0
 12 13  1  0
 12 14  2  0
 12 15  1  0
 15 16  1  0
 16 17  1  0
 16 18  2  0
 16 19  1  0
 19 20  1  0
 20 21  1  0
 21 22  1  0
 22 23  1  0
 23 24  1  0
 24 25  1  0
 25 26  1  0
 26 27  1  0
 27 28  1  0
 27 29  1  0
 27 30  2  0
 22 31  1  0
 31 32  1  0
 32 33  2  0
 33 34  1  0
 34 35  2  0
 34 36  1  0
 36 37  1  0
 37 38  2  0
  9 39  1  0
 39 40  1  0
 40 41  1  0
 41 42  1  0
 41 43  1  0
 41 44  2  0
 39 45  1  0
 45 46  1  0
  6 47  1  0
 47 48  2  0
 48 49  1  0
 49 50  2  0
 50  2  1  0
 47  3  1  0
 45  7  1  0
 24 20  1  0
 37 31  1  0
  1 51  1  0
  1 52  1  0
  5 53  1  0
  7 54  1  6
  9 55  1  6
 10 56  1  0
 10 57  1  0
 13 58  1  0
 17 59  1  0
 20 60  1  1
 21 61  1  0
 21 62  1  0
 22 63  1  6
 24 64  1  6
 25 65  1  0
 25 66  1  0
 28 67  1  0
 29 68  1  0
 32 69  1  0
 33 70  1  0
 36 71  1  0
 39 72  1  1
 42 73  1  0
 43 74  1  0
 45 75  1  1
 46 76  1  0
 49 77  1  0
M  END
$$$$
