
     RDKit          3D

 41 44  0  0  0  0  0  0  0  0999 V2000
   -3.3845   -0.3816    1.0062 C   0  0  1  0  0  0  0  0  0  0  0  0
   -2.6019   -1.5703    0.4305 C   0  0  0  0  0  0  0  0  0  0  0  0
   -2.2622   -1.1351   -1.0041 C   0  0  0  0  0  0  0  0  0  0  0  0
   -2.8823    0.2641   -1.1268 C   0  0  2  0  0  0  0  0  0  0  0  0
   -1.8518    1.3541   -0.7207 C   0  0  0  0  0  0  0  0  0  0  0  0
   -1.3458    1.1962    0.7427 C   0  0  1  0  0  0  0  0  0  0  0  0
   -2.4220    0.6210    1.7021 C   0  0  0  0  0  0  0  0  0  0  0  0
   -0.1976    0.3459    0.7776 O   0  0  0  0  0  0  0  0  0  0  0  0
    1.0732    0.7333    0.3386 C   0  0  0  0  0  0  0  0  0  0  0  0
    1.2862    1.9177   -0.0368 O   0  0  0  0  0  0  0  0  0  0  0  0
    2.1567   -0.2618    0.3200 C   0  0  0  0  0  0  0  0  0  0  0  0
    2.0324   -1.6002    0.6823 C   0  0  0  0  0  0  0  0  0  0  0  0
    3.2141   -2.2411    0.5429 N   0  0  0  0  0  0  0  0  0  0  0  0
    4.0858   -1.3218    0.0949 C   0  0  0  0  0  0  0  0  0  0  0  0
    5.4348   -1.5164   -0.1989 C   0  0  0  0  0  0  0  0  0  0  0  0
    6.1738   -0.4130   -0.6602 C   0  0  0  0  0  0  0  0  0  0  0  0
    5.5556    0.8465   -0.8161 C   0  0  0  0  0  0  0  0  0  0  0  0
    4.1924    1.0152   -0.5125 C   0  0  0  0  0  0  0  0  0  0  0  0
    3.4808   -0.0978   -0.0558 C   0  0  0  0  0  0  0  0  0  0  0  0
   -3.9972    0.2121   -0.1816 N   0  0  0  0  0  0  0  0  0  0  0  0
   -4.7596    1.4567    0.0156 C   0  0  0  0  0  0  0  0  0  0  0  0
   -4.1639   -0.7299    1.7188 H   0  0  0  0  0  0  0  0  0  0  0  0
   -3.2545   -2.4706    0.4050 H   0  0  0  0  0  0  0  0  0  0  0  0
   -1.6899   -1.8125    1.0184 H   0  0  0  0  0  0  0  0  0  0  0  0
   -1.1661   -1.1396   -1.1907 H   0  0  0  0  0  0  0  0  0  0  0  0
   -2.7467   -1.8242   -1.7303 H   0  0  0  0  0  0  0  0  0  0  0  0
   -3.2506    0.4438   -2.1606 H   0  0  0  0  0  0  0  0  0  0  0  0
   -2.3015    2.3601   -0.8524 H   0  0  0  0  0  0  0  0  0  0  0  0
   -0.9956    1.3229   -1.4281 H   0  0  0  0  0  0  0  0  0  0  0  0
   -1.0521    2.1975    1.1300 H   0  0  0  0  0  0  0  0  0  0  0  0
   -3.0082    1.4510    2.1490 H   0  0  0  0  0  0  0  0  0  0  0  0
   -1.9252    0.1170    2.5601 H   0  0  0  0  0  0  0  0  0  0  0  0
    1.1250   -2.0800    1.0265 H   0  0  0  0  0  0  0  0  0  0  0  0
    3.4058   -3.2481    0.7425 H   0  0  0  0  0  0  0  0  0  0  0  0
    5.9001   -2.4859   -0.0764 H   0  0  0  0  0  0  0  0  0  0  0  0
    7.2233   -0.5302   -0.8972 H   0  0  0  0  0  0  0  0  0  0  0  0
    6.1347    1.6887   -1.1719 H   0  0  0  0  0  0  0  0  0  0  0  0
    3.7246    1.9818   -0.6335 H   0  0  0  0  0  0  0  0  0  0  0  0
   -4.1456    2.2882    0.4127 H   0  0  0  0  0  0  0  0  0  0  0  0
   -5.1996    1.7770   -0.9521 H   0  0  0  0  0  0  0  0  0  0  0  0
   -5.5949    1.2693    0.7226 H   0  0  0  0  0  0  0  0  0  0  0  0
  1  2  1  0
  2  3  1  0
  3  4  1  0
  4  5  1  0
  5  6  1  0
  6  7  1  0
  6  8  1  0
  8  9  1  0
  9 10  2  0
  9 11  1  0
 11 12  2  0
 12 13  1  0
 13 14  1  0
 14 15  2  0
 15 16  1  0
 16 17  2  0
 17 18  1  0
 18 19  2  0
  4 20  1  0
 20 21  1  0
  7  1  1  0
 19 11  1  0
 20  1  1  0
 19 14  1  0
  1 22  1  1
  2 23  1  0
  2 24  1  0
  3 25  1  0
  3 26  1  0
  4 27  1  6
  5 28  1  0
  5 29  1  0
  6 30  1  1
  7 31  1  0
  7 32  1  0
 12 33  1  0
 13 34  1  0
 15 35  1  0
 16 36  1  0
 17 37  1  0
 18 38  1  0
 21 39  1  0
 21 40  1  0
 21 41  1  0
M  END
$$$$
