
     RDKit          3D

 99103  0  0  0  0  0  0  0  0999 V2000
   -4.1980   -2.2701   -0.0189 C   0  0  2  0  0  0  0  0  0  0  0  0
   -5.3478   -3.2155    0.3883 C   0  0  0  0  0  0  0  0  0  0  0  0
   -4.8541   -4.2609    1.3928 C   0  0  0  0  0  0  0  0  0  0  0  0
   -4.2961   -3.6240    2.6833 C   0  0  0  0  0  0  0  0  0  0  0  0
   -3.9912   -2.1219    2.5500 C   0  0  0  0  0  0  0  0  0  0  0  0
   -3.3363   -1.7897    1.1944 C   0  0  2  0  0  0  0  0  0  0  0  0
   -3.0179   -0.2777    1.1206 C   0  0  0  0  0  0  0  0  0  0  0  0
   -2.5911    0.1420   -0.2345 N   0  0  0  0  0  0  0  0  0  0  0  0
   -1.2127   -0.3098   -0.5342 C   0  0  0  0  0  0  0  0  0  0  0  0
   -0.5600    0.5755   -1.6217 C   0  0  1  0  0  0  0  0  0  0  0  0
   -0.5278    1.8974   -1.1444 O   0  0  0  0  0  0  0  0  0  0  0  0
    0.8843    0.1282   -2.0065 C   0  0  2  0  0  0  0  0  0  0  0  0
    0.9543   -0.9121   -3.1550 C   0  0  0  0  0  0  0  0  0  0  0  0
    0.1485   -2.1695   -2.9328 C   0  0  0  0  0  0  0  0  0  0  0  0
   -1.1534   -2.2756   -3.4530 C   0  0  0  0  0  0  0  0  0  0  0  0
   -1.9214   -3.4178   -3.2080 C   0  0  0  0  0  0  0  0  0  0  0  0
   -1.3910   -4.4703   -2.4585 C   0  0  0  0  0  0  0  0  0  0  0  0
   -0.0861   -4.3887   -1.9657 C   0  0  0  0  0  0  0  0  0  0  0  0
    0.6852   -3.2476   -2.2076 C   0  0  0  0  0  0  0  0  0  0  0  0
    1.6438   -0.3213   -0.8332 N   0  0  0  0  0  0  0  0  0  0  0  0
    2.3498    0.5897    0.0226 C   0  0  0  0  0  0  0  0  0  0  0  0
    2.4748    1.8025   -0.3020 O   0  0  0  0  0  0  0  0  0  0  0  0
    2.9049    0.1124    1.3378 C   0  0  2  0  0  0  0  0  0  0  0  0
    1.9887    0.5760    2.4841 C   0  0  0  0  0  0  0  0  0  0  0  0
    2.4203   -0.0121    3.7952 C   0  0  0  0  0  0  0  0  0  0  0  0
    2.0694   -1.3536    4.1339 N   0  0  0  0  0  0  0  0  0  0  0  0
    3.1220    0.6697    4.5891 O   0  0  0  0  0  0  0  0  0  0  0  0
    4.2701    0.6207    1.5145 N   0  0  0  0  0  0  0  0  0  0  0  0
    5.3826    0.0747    0.7864 C   0  0  0  0  0  0  0  0  0  0  0  0
    5.1942   -0.8746   -0.0235 O   0  0  0  0  0  0  0  0  0  0  0  0
    6.7458    0.6165    0.9783 C   0  0  0  0  0  0  0  0  0  0  0  0
    6.9493    1.6339    1.8612 N   0  0  0  0  0  0  0  0  0  0  0  0
    8.1795    2.1706    2.0786 C   0  0  0  0  0  0  0  0  0  0  0  0
    9.2989    1.6727    1.3768 C   0  0  0  0  0  0  0  0  0  0  0  0
   10.5668    2.2289    1.6036 C   0  0  0  0  0  0  0  0  0  0  0  0
   10.7167    3.2729    2.5226 C   0  0  0  0  0  0  0  0  0  0  0  0
    9.6062    3.7646    3.2167 C   0  0  0  0  0  0  0  0  0  0  0  0
    8.3390    3.2153    2.9961 C   0  0  0  0  0  0  0  0  0  0  0  0
    9.1146    0.6276    0.4646 C   0  0  0  0  0  0  0  0  0  0  0  0
    7.8387    0.0969    0.2629 C   0  0  0  0  0  0  0  0  0  0  0  0
   -3.5634   -0.2075   -1.3132 C   0  0  1  0  0  0  0  0  0  0  0  0
   -4.7383   -1.0865   -0.8366 C   0  0  0  0  0  0  0  0  0  0  0  0
   -4.0763    1.0530   -1.9544 C   0  0  0  0  0  0  0  0  0  0  0  0
   -4.0813    1.1386   -3.2118 O   0  0  0  0  0  0  0  0  0  0  0  0
   -4.5672    2.1367   -1.1432 N   0  0  0  0  0  0  0  0  0  0  0  0
   -4.8917    3.4861   -1.6448 C   0  0  0  0  0  0  0  0  0  0  0  0
   -5.2944    4.3805   -0.4541 C   0  0  0  0  0  0  0  0  0  0  0  0
   -3.6591    4.1093   -2.3291 C   0  0  0  0  0  0  0  0  0  0  0  0
   -6.0761    3.4193   -2.6284 C   0  0  0  0  0  0  0  0  0  0  0  0
   -3.5285   -2.8535   -0.6922 H   0  0  0  0  0  0  0  0  0  0  0  0
   -6.1866   -2.6407    0.8397 H   0  0  0  0  0  0  0  0  0  0  0  0
   -5.7405   -3.7333   -0.5141 H   0  0  0  0  0  0  0  0  0  0  0  0
   -5.6901   -4.9476    1.6480 H   0  0  0  0  0  0  0  0  0  0  0  0
   -4.0595   -4.8720    0.9101 H   0  0  0  0  0  0  0  0  0  0  0  0
   -3.3661   -4.1591    2.9757 H   0  0  0  0  0  0  0  0  0  0  0  0
   -5.0269   -3.7621    3.5097 H   0  0  0  0  0  0  0  0  0  0  0  0
   -3.3182   -1.8160    3.3808 H   0  0  0  0  0  0  0  0  0  0  0  0
   -4.9378   -1.5471    2.6579 H   0  0  0  0  0  0  0  0  0  0  0  0
   -2.3665   -2.3363    1.1625 H   0  0  0  0  0  0  0  0  0  0  0  0
   -3.9144    0.3105    1.4120 H   0  0  0  0  0  0  0  0  0  0  0  0
   -2.2419   -0.0173    1.8745 H   0  0  0  0  0  0  0  0  0  0  0  0
   -1.2145   -1.3793   -0.8242 H   0  0  0  0  0  0  0  0  0  0  0  0
   -0.5862   -0.2314    0.3802 H   0  0  0  0  0  0  0  0  0  0  0  0
   -1.1909    0.5407   -2.5386 H   0  0  0  0  0  0  0  0  0  0  0  0
   -0.4736    2.4927   -1.9374 H   0  0  0  0  0  0  0  0  0  0  0  0
    1.3995    1.0210   -2.4274 H   0  0  0  0  0  0  0  0  0  0  0  0
    2.0185   -1.1871   -3.3248 H   0  0  0  0  0  0  0  0  0  0  0  0
    0.6159   -0.4239   -4.0957 H   0  0  0  0  0  0  0  0  0  0  0  0
   -1.5808   -1.4668   -4.0323 H   0  0  0  0  0  0  0  0  0  0  0  0
   -2.9304   -3.4836   -3.5940 H   0  0  0  0  0  0  0  0  0  0  0  0
   -1.9885   -5.3518   -2.2654 H   0  0  0  0  0  0  0  0  0  0  0  0
    0.3284   -5.2103   -1.3962 H   0  0  0  0  0  0  0  0  0  0  0  0
    1.6985   -3.2064   -1.8293 H   0  0  0  0  0  0  0  0  0  0  0  0
    1.5087   -1.2982   -0.4930 H   0  0  0  0  0  0  0  0  0  0  0  0
    2.9313   -1.0004    1.3451 H   0  0  0  0  0  0  0  0  0  0  0  0
    0.9438    0.2546    2.2823 H   0  0  0  0  0  0  0  0  0  0  0  0
    1.9892    1.6866    2.5510 H   0  0  0  0  0  0  0  0  0  0  0  0
    1.5008   -1.9360    3.4796 H   0  0  0  0  0  0  0  0  0  0  0  0
    2.3810   -1.7673    5.0404 H   0  0  0  0  0  0  0  0  0  0  0  0
    4.4325    1.4230    2.1643 H   0  0  0  0  0  0  0  0  0  0  0  0
   11.4361    1.8585    1.0735 H   0  0  0  0  0  0  0  0  0  0  0  0
   11.6950    3.7016    2.6972 H   0  0  0  0  0  0  0  0  0  0  0  0
    9.7279    4.5724    3.9266 H   0  0  0  0  0  0  0  0  0  0  0  0
    7.4847    3.6021    3.5379 H   0  0  0  0  0  0  0  0  0  0  0  0
    9.9529    0.2230   -0.0899 H   0  0  0  0  0  0  0  0  0  0  0  0
    7.7090   -0.7115   -0.4457 H   0  0  0  0  0  0  0  0  0  0  0  0
   -3.0634   -0.7982   -2.1114 H   0  0  0  0  0  0  0  0  0  0  0  0
   -5.2947   -1.4660   -1.7226 H   0  0  0  0  0  0  0  0  0  0  0  0
   -5.4501   -0.4928   -0.2207 H   0  0  0  0  0  0  0  0  0  0  0  0
   -4.6553    1.9560   -0.1180 H   0  0  0  0  0  0  0  0  0  0  0  0
   -5.5429    5.4092   -0.7946 H   0  0  0  0  0  0  0  0  0  0  0  0
   -4.4625    4.4466    0.2801 H   0  0  0  0  0  0  0  0  0  0  0  0
   -6.1829    3.9595    0.0645 H   0  0  0  0  0  0  0  0  0  0  0  0
   -3.3786    3.5530   -3.2466 H   0  0  0  0  0  0  0  0  0  0  0  0
   -3.8648    5.1613   -2.6233 H   0  0  0  0  0  0  0  0  0  0  0  0
   -2.7897    4.0997   -1.6369 H   0  0  0  0  0  0  0  0  0  0  0  0
   -6.9365    2.8959   -2.1586 H   0  0  0  0  0  0  0  0  0  0  0  0
   -5.8052    2.8808   -3.5588 H   0  0  0  0  0  0  0  0  0  0  0  0
   -6.4012    4.4419   -2.9186 H   0  0  0  0  0  0  0  0  0  0  0  0
  1  2  1  0
  2  3  1  0
  3  4  1  0
  4  5  1  0
  5  6  1  0
  6  7  1  0
  7  8  1  0
  8  9  1  0
  9 10  1  0
 10 11  1  0
 10 12  1  0
 12 13  1  0
 13 14  1  0
 14 15  2  0
 15 16  1  0
 16 17  2  0
 17 18  1  0
 18 19  2  0
 12 20  1  0
 20 21  1  0
 21 22  2  0
 21 23  1  0
 23 24  1  0
 24 25  1  0
 25 26  1  0
 25 27  2  0
 23 28  1  0
 28 29  1  0
 29 30  2  0
 29 31  1  0
 31 32  2  0
 32 33  1  0
 33 34  2  0
 34 35  1  0
 35 36  2  0
 36 37  1  0
 37 38  2  0
 34 39  1  0
 39 40  2  0
  8 41  1  0
 41 42  1  0
 41 43  1  0
 43 44  2  0
 43 45  1  0
 45 46  1  0
 46 47  1  0
 46 48  1  0
 46 49  1  0
  6  1  1  0
 19 14  1  0
 40 31  1  0
 42  1  1  0
 38 33  1  0
  1 50  1  6
  2 51  1  0
  2 52  1  0
  3 53  1  0
  3 54  1  0
  4 55  1  0
  4 56  1  0
  5 57  1  0
  5 58  1  0
  6 59  1  1
  7 60  1  0
  7 61  1  0
  9 62  1  0
  9 63  1  0
 10 64  1  6
 11 65  1  0
 12 66  1  6
 13 67  1  0
 13 68  1  0
 15 69  1  0
 16 70  1  0
 17 71  1  0
 18 72  1  0
 19 73  1  0
 20 74  1  0
 23 75  1  6
 24 76  1  0
 24 77  1  0
 26 78  1  0
 26 79  1  0
 28 80  1  0
 35 81  1  0
 36 82  1  0
 37 83  1  0
 38 84  1  0
 39 85  1  0
 40 86  1  0
 41 87  1  6
 42 88  1  0
 42 89  1  0
 45 90  1  0
 47 91  1  0
 47 92  1  0
 47 93  1  0
 48 94  1  0
 48 95  1  0
 48 96  1  0
 49 97  1  0
 49 98  1  0
 49 99  1  0
M  END
$$$$
