
     RDKit          3D

 47 50  0  0  0  0  0  0  0  0999 V2000
   -0.3467   -1.4082    5.2503 C   0  0  0  0  0  0  0  0  0  0  0  0
   -0.7145   -0.5484    4.1304 N   0  0  0  0  0  0  0  0  0  0  0  0
   -0.3252   -0.8008    2.7708 C   0  0  0  0  0  0  0  0  0  0  0  0
   -0.7216    0.0657    1.8016 N   0  0  0  0  0  0  0  0  0  0  0  0
   -0.3942   -0.1272    0.4957 C   0  0  0  0  0  0  0  0  0  0  0  0
   -0.7977    0.8114   -0.5114 N   0  0  0  0  0  0  0  0  0  0  0  0
   -1.7709    1.8493   -0.3054 C   0  0  0  0  0  0  0  0  0  0  0  0
   -2.9109    1.6379    0.4900 C   0  0  0  0  0  0  0  0  0  0  0  0
   -3.8545    2.6557    0.6572 C   0  0  0  0  0  0  0  0  0  0  0  0
   -3.6861    3.8916    0.0135 C   0  0  0  0  0  0  0  0  0  0  0  0
   -4.6848    4.9959    0.2178 C   0  0  0  0  0  0  0  0  0  0  0  0
   -4.3034    5.8082    1.3772 C   0  0  0  0  0  0  0  0  0  0  0  0
   -4.0023    6.4492    2.2924 N   0  0  0  0  0  0  0  0  0  0  0  0
   -2.5543    4.0990   -0.7902 C   0  0  0  0  0  0  0  0  0  0  0  0
   -1.6116    3.0805   -0.9575 C   0  0  0  0  0  0  0  0  0  0  0  0
    0.3682   -1.1956    0.1468 N   0  0  0  0  0  0  0  0  0  0  0  0
    0.8059   -2.0897    1.0728 C   0  0  0  0  0  0  0  0  0  0  0  0
    1.5862   -3.2308    0.6804 N   0  0  0  0  0  0  0  0  0  0  0  0
    2.2251   -3.3783   -0.5962 C   0  0  0  0  0  0  0  0  0  0  0  0
    2.6500   -4.5657   -1.0674 N   0  0  0  0  0  0  0  0  0  0  0  0
    3.2339   -4.3427   -2.2332 N   0  0  0  0  0  0  0  0  0  0  0  0
    3.2035   -3.0262   -2.5130 C   0  0  0  0  0  0  0  0  0  0  0  0
    2.5665   -2.3641   -1.4756 C   0  0  0  0  0  0  0  0  0  0  0  0
    3.8070   -2.4373   -3.7632 C   0  0  0  0  0  0  0  0  0  0  0  0
    3.1169   -1.2017   -4.3228 C   0  0  0  0  0  0  0  0  0  0  0  0
    4.4560   -1.0694   -3.6113 C   0  0  0  0  0  0  0  0  0  0  0  0
    0.4522   -1.9142    2.4150 C   0  0  0  0  0  0  0  0  0  0  0  0
   -0.7548   -2.4287    5.0934 H   0  0  0  0  0  0  0  0  0  0  0  0
    0.7586   -1.4531    5.3454 H   0  0  0  0  0  0  0  0  0  0  0  0
   -0.7675   -0.9990    6.1930 H   0  0  0  0  0  0  0  0  0  0  0  0
   -1.2942    0.2979    4.3307 H   0  0  0  0  0  0  0  0  0  0  0  0
   -0.2881    0.7879   -1.4238 H   0  0  0  0  0  0  0  0  0  0  0  0
   -3.0855    0.6813    0.9642 H   0  0  0  0  0  0  0  0  0  0  0  0
   -4.7208    2.4776    1.2823 H   0  0  0  0  0  0  0  0  0  0  0  0
   -5.6993    4.5761    0.3869 H   0  0  0  0  0  0  0  0  0  0  0  0
   -4.7338    5.6471   -0.6810 H   0  0  0  0  0  0  0  0  0  0  0  0
   -2.4024    5.0489   -1.2878 H   0  0  0  0  0  0  0  0  0  0  0  0
   -0.7471    3.2551   -1.5858 H   0  0  0  0  0  0  0  0  0  0  0  0
    1.6687   -4.0290    1.3501 H   0  0  0  0  0  0  0  0  0  0  0  0
    3.6583   -5.0898   -2.8264 H   0  0  0  0  0  0  0  0  0  0  0  0
    2.4122   -1.3001   -1.3655 H   0  0  0  0  0  0  0  0  0  0  0  0
    4.2733   -3.1061   -4.5178 H   0  0  0  0  0  0  0  0  0  0  0  0
    2.2556   -0.8039   -3.7459 H   0  0  0  0  0  0  0  0  0  0  0  0
    3.1852   -1.0970   -5.4262 H   0  0  0  0  0  0  0  0  0  0  0  0
    4.3926   -0.5940   -2.6099 H   0  0  0  0  0  0  0  0  0  0  0  0
    5.3103   -0.8872   -4.2970 H   0  0  0  0  0  0  0  0  0  0  0  0
    0.7859   -2.6281    3.1562 H   0  0  0  0  0  0  0  0  0  0  0  0
  1  2  1  0
  2  3  1  0
  3  4  2  0
  4  5  1  0
  5  6  1  0
  6  7  1  0
  7  8  2  0
  8  9  1  0
  9 10  2  0
 10 11  1  0
 11 12  1  0
 12 13  3  0
 10 14  1  0
 14 15  2  0
  5 16  2  0
 16 17  1  0
 17 18  1  0
 18 19  1  0
 19 20  2  0
 20 21  1  0
 21 22  1  0
 22 23  2  0
 22 24  1  0
 24 25  1  0
 25 26  1  0
 17 27  2  0
 27  3  1  0
 15  7  1  0
 23 19  1  0
 26 24  1  0
  1 28  1  0
  1 29  1  0
  1 30  1  0
  2 31  1  0
  6 32  1  0
  8 33  1  0
  9 34  1  0
 11 35  1  0
 11 36  1  0
 14 37  1  0
 15 38  1  0
 18 39  1  0
 21 40  1  0
 23 41  1  0
 24 42  1  0
 25 43  1  0
 25 44  1  0
 26 45  1  0
 26 46  1  0
 27 47  1  0
M  END
$$$$
