
     RDKit          3D

 66 69  0  0  0  0  0  0  0  0999 V2000
    0.3399    4.5991    3.1232 C   0  0  0  0  0  0  0  0  0  0  0  0
    0.6412    4.1626    1.6870 C   0  0  0  0  0  0  0  0  0  0  0  0
    0.2357    5.2494    0.6866 C   0  0  0  0  0  0  0  0  0  0  0  0
   -0.0582    2.8659    1.3758 C   0  0  0  0  0  0  0  0  0  0  0  0
    0.5012    1.6237    1.1929 C   0  0  0  0  0  0  0  0  0  0  0  0
    1.8083    1.2726    1.2455 N   0  0  0  0  0  0  0  0  0  0  0  0
    2.1582   -0.0384    1.0850 C   0  0  0  0  0  0  0  0  0  0  0  0
    3.5529   -0.3899    1.1454 N   0  0  0  0  0  0  0  0  0  0  0  0
    4.0748   -1.7562    0.9948 C   0  0  1  0  0  0  0  0  0  0  0  0
    3.9823   -2.2161   -0.4861 C   0  0  0  0  0  0  0  0  0  0  0  0
    5.3211   -2.0833   -1.2216 C   0  0  0  0  0  0  0  0  0  0  0  0
    6.4323   -2.9384   -0.5595 C   0  0  2  0  0  0  0  0  0  0  0  0
    6.4684   -4.2745   -1.1588 N   0  0  0  0  0  0  0  0  0  0  0  0
    6.2546   -3.0580    0.9758 C   0  0  0  0  0  0  0  0  0  0  0  0
    5.5172   -1.8471    1.5546 C   0  0  0  0  0  0  0  0  0  0  0  0
    1.1455   -1.0098    0.8718 C   0  0  0  0  0  0  0  0  0  0  0  0
   -0.1957   -0.5988    0.8073 C   0  0  0  0  0  0  0  0  0  0  0  0
   -1.2410   -1.5625    0.6036 N   0  0  0  0  0  0  0  0  0  0  0  0
   -2.3858   -1.3364   -0.2352 C   0  0  0  0  0  0  0  0  0  0  0  0
   -3.5732   -2.0396    0.0131 C   0  0  0  0  0  0  0  0  0  0  0  0
   -4.6953   -1.8424   -0.7967 C   0  0  0  0  0  0  0  0  0  0  0  0
   -4.6393   -0.9493   -1.8750 C   0  0  0  0  0  0  0  0  0  0  0  0
   -3.4472   -0.2638   -2.1428 C   0  0  0  0  0  0  0  0  0  0  0  0
   -2.3250   -0.4600   -1.3336 C   0  0  0  0  0  0  0  0  0  0  0  0
   -6.0625   -0.6836   -2.8845 S   0  0  0  0  0  6  0  0  0  0  0  0
   -6.8811   -1.9442   -2.9277 O   0  0  0  0  0  0  0  0  0  0  0  0
   -5.6221   -0.3686   -4.2872 O   0  0  0  0  0  0  0  0  0  0  0  0
   -7.0450    0.6264   -2.2763 N   0  0  0  0  0  0  0  0  0  0  0  0
   -6.2647    1.8700   -2.2631 C   0  0  0  0  0  0  0  0  0  0  0  0
   -7.5151    0.3092   -0.9222 C   0  0  0  0  0  0  0  0  0  0  0  0
   -0.4635    0.7216    0.9902 N   0  0  0  0  0  0  0  0  0  0  0  0
   -1.6493    1.3061    1.0542 N   0  0  0  0  0  0  0  0  0  0  0  0
   -1.4281    2.6227    1.2860 C   0  0  0  0  0  0  0  0  0  0  0  0
    0.6581    3.8083    3.8361 H   0  0  0  0  0  0  0  0  0  0  0  0
    0.8976    5.5290    3.3646 H   0  0  0  0  0  0  0  0  0  0  0  0
   -0.7470    4.7882    3.2584 H   0  0  0  0  0  0  0  0  0  0  0  0
    1.7393    4.0100    1.5966 H   0  0  0  0  0  0  0  0  0  0  0  0
    0.4627    4.9174   -0.3492 H   0  0  0  0  0  0  0  0  0  0  0  0
   -0.8500    5.4734    0.7625 H   0  0  0  0  0  0  0  0  0  0  0  0
    0.8063    6.1816    0.8851 H   0  0  0  0  0  0  0  0  0  0  0  0
    4.2232    0.3885    1.3402 H   0  0  0  0  0  0  0  0  0  0  0  0
    3.4555   -2.4425    1.6135 H   0  0  0  0  0  0  0  0  0  0  0  0
    3.6661   -3.2821   -0.5191 H   0  0  0  0  0  0  0  0  0  0  0  0
    3.2113   -1.6338   -1.0352 H   0  0  0  0  0  0  0  0  0  0  0  0
    5.6250   -1.0132   -1.2112 H   0  0  0  0  0  0  0  0  0  0  0  0
    5.1881   -2.3684   -2.2879 H   0  0  0  0  0  0  0  0  0  0  0  0
    7.4059   -2.4335   -0.7581 H   0  0  0  0  0  0  0  0  0  0  0  0
    7.2513   -4.8112   -0.7184 H   0  0  0  0  0  0  0  0  0  0  0  0
    6.7245   -4.1773   -2.1685 H   0  0  0  0  0  0  0  0  0  0  0  0
    7.2521   -3.1491    1.4580 H   0  0  0  0  0  0  0  0  0  0  0  0
    5.6773   -3.9758    1.2275 H   0  0  0  0  0  0  0  0  0  0  0  0
    6.0985   -0.9320    1.3051 H   0  0  0  0  0  0  0  0  0  0  0  0
    5.4803   -1.9288    2.6628 H   0  0  0  0  0  0  0  0  0  0  0  0
    1.3810   -2.0564    0.7413 H   0  0  0  0  0  0  0  0  0  0  0  0
   -1.1353   -2.5005    1.0528 H   0  0  0  0  0  0  0  0  0  0  0  0
   -3.6324   -2.7307    0.8445 H   0  0  0  0  0  0  0  0  0  0  0  0
   -5.6087   -2.3806   -0.5779 H   0  0  0  0  0  0  0  0  0  0  0  0
   -3.3866    0.4251   -2.9757 H   0  0  0  0  0  0  0  0  0  0  0  0
   -1.4095    0.0672   -1.5690 H   0  0  0  0  0  0  0  0  0  0  0  0
   -6.9090    2.7171   -1.9439 H   0  0  0  0  0  0  0  0  0  0  0  0
   -5.8974    2.1023   -3.2851 H   0  0  0  0  0  0  0  0  0  0  0  0
   -5.3968    1.8000   -1.5713 H   0  0  0  0  0  0  0  0  0  0  0  0
   -8.0971   -0.6366   -0.9309 H   0  0  0  0  0  0  0  0  0  0  0  0
   -6.6676    0.2087   -0.2092 H   0  0  0  0  0  0  0  0  0  0  0  0
   -8.1942    1.1107   -0.5601 H   0  0  0  0  0  0  0  0  0  0  0  0
   -2.2143    3.3568    1.3994 H   0  0  0  0  0  0  0  0  0  0  0  0
  1  2  1  0
  2  3  1  0
  2  4  1  0
  4  5  2  0
  5  6  1  0
  6  7  2  0
  7  8  1  0
  8  9  1  0
  9 10  1  0
 10 11  1  0
 11 12  1  0
 12 13  1  0
 12 14  1  0
 14 15  1  0
  7 16  1  0
 16 17  2  0
 17 18  1  0
 18 19  1  0
 19 20  2  0
 20 21  1  0
 21 22  2  0
 22 23  1  0
 23 24  2  0
 22 25  1  0
 25 26  2  0
 25 27  2  0
 25 28  1  0
 28 29  1  0
 28 30  1  0
 17 31  1  0
 31 32  1  0
 32 33  2  0
 33  4  1  0
 31  5  1  0
 15  9  1  0
 24 19  1  0
  1 34  1  0
  1 35  1  0
  1 36  1  0
  2 37  1  0
  3 38  1  0
  3 39  1  0
  3 40  1  0
  8 41  1  0
  9 42  1  1
 10 43  1  0
 10 44  1  0
 11 45  1  0
 11 46  1  0
 12 47  1  1
 13 48  1  0
 13 49  1  0
 14 50  1  0
 14 51  1  0
 15 52  1  0
 15 53  1  0
 16 54  1  0
 18 55  1  0
 20 56  1  0
 21 57  1  0
 23 58  1  0
 24 59  1  0
 29 60  1  0
 29 61  1  0
 29 62  1  0
 30 63  1  0
 30 64  1  0
 30 65  1  0
 33 66  1  0
M  END
$$$$
