
     RDKit          3D

 76 78  0  0  0  0  0  0  0  0999 V2000
    3.1891   -0.1038   -0.4216 C   0  0  0  0  0  0  0  0  0  0  0  0
    3.1280   -0.6747    0.8007 C   0  0  0  0  0  0  0  0  0  0  0  0
    4.3424   -1.2887    1.4549 C   0  0  0  0  0  0  0  0  0  0  0  0
    1.8419   -0.5625    1.5998 C   0  0  2  0  0  0  0  0  0  0  0  0
    1.9248    0.5784    2.6316 C   0  0  0  0  0  0  0  0  0  0  0  0
    2.2631    1.9334    1.9897 C   0  0  2  0  0  0  0  0  0  0  0  0
    1.7286    2.9935    2.7534 O   0  0  0  0  0  0  0  0  0  0  0  0
    1.2136    2.8497    1.4481 C   0  0  1  0  0  0  0  0  0  0  0  0
    1.6913    3.9911    0.5459 C   0  0  0  0  0  0  0  0  0  0  0  0
   -0.2927    2.5270    1.4798 C   0  0  0  0  0  0  0  0  0  0  0  0
   -0.8212    2.1813    0.0831 C   0  0  0  0  0  0  0  0  0  0  0  0
   -2.2870    1.7268    0.1481 C   0  0  0  0  0  0  0  0  0  0  0  0
   -2.8901    1.4706   -1.2601 C   0  0  2  0  0  0  0  0  0  0  0  0
   -3.3896    2.7916   -1.8718 C   0  0  0  0  0  0  0  0  0  0  0  0
   -4.0463    0.4140   -1.2334 C   0  0  2  0  0  0  0  0  0  0  0  0
   -4.7444    0.4592   -0.0131 O   0  0  0  0  0  0  0  0  0  0  0  0
   -3.6035   -1.0526   -1.5153 C   0  0  1  0  0  0  0  0  0  0  0  0
   -3.2492   -1.2752   -2.9951 C   0  0  0  0  0  0  0  0  0  0  0  0
   -2.4704   -1.5495   -0.6235 C   0  0  0  0  0  0  0  0  0  0  0  0
   -1.3504   -1.0924   -0.8046 O   0  0  0  0  0  0  0  0  0  0  0  0
   -2.6736   -2.6821    0.3973 C   0  0  0  0  0  0  0  0  0  0  0  0
   -3.0727   -3.9671   -0.3671 C   0  0  0  0  0  0  0  0  0  0  0  0
   -3.8197   -2.3157    1.3688 C   0  0  0  0  0  0  0  0  0  0  0  0
   -1.3656   -3.0011    1.2110 C   0  0  1  0  0  0  0  0  0  0  0  0
   -0.3126   -3.2885    0.3181 O   0  0  0  0  0  0  0  0  0  0  0  0
   -0.9358   -1.8849    2.1958 C   0  0  0  0  0  0  0  0  0  0  0  0
    0.3922   -2.2159    2.8277 C   0  0  0  0  0  0  0  0  0  0  0  0
    0.4111   -3.0062    3.8080 O   0  0  0  0  0  0  0  0  0  0  0  0
    1.6163   -1.7965    2.2868 O   0  0  0  0  0  0  0  0  0  0  0  0
    4.3843   -0.0642   -1.2845 C   0  0  0  0  0  0  0  0  0  0  0  0
    5.1879   -1.1682   -1.5743 C   0  0  0  0  0  0  0  0  0  0  0  0
    6.3818   -0.6704   -2.6487 S   0  0  0  0  0  0  0  0  0  0  0  0
    5.8098    0.9067   -2.7259 C   0  0  0  0  0  0  0  0  0  0  0  0
    6.4509    2.0085   -3.4981 C   0  0  0  0  0  0  0  0  0  0  0  0
    4.7296    1.0798   -1.9351 N   0  0  0  0  0  0  0  0  0  0  0  0
    2.3321    0.4541   -0.7810 H   0  0  0  0  0  0  0  0  0  0  0  0
    5.2213   -0.6177    1.3507 H   0  0  0  0  0  0  0  0  0  0  0  0
    4.5607   -2.2763    1.0027 H   0  0  0  0  0  0  0  0  0  0  0  0
    4.1739   -1.4515    2.5396 H   0  0  0  0  0  0  0  0  0  0  0  0
    1.0055   -0.3671    0.8992 H   0  0  0  0  0  0  0  0  0  0  0  0
    2.7305    0.3467    3.3605 H   0  0  0  0  0  0  0  0  0  0  0  0
    0.9928    0.6154    3.2304 H   0  0  0  0  0  0  0  0  0  0  0  0
    3.3216    2.1351    1.7181 H   0  0  0  0  0  0  0  0  0  0  0  0
    1.7101    3.6450   -0.5084 H   0  0  0  0  0  0  0  0  0  0  0  0
    0.9999    4.8554    0.6320 H   0  0  0  0  0  0  0  0  0  0  0  0
    2.7129    4.3320    0.8209 H   0  0  0  0  0  0  0  0  0  0  0  0
   -0.5289    1.6990    2.1739 H   0  0  0  0  0  0  0  0  0  0  0  0
   -0.8329    3.4230    1.8556 H   0  0  0  0  0  0  0  0  0  0  0  0
   -0.2030    1.3693   -0.3561 H   0  0  0  0  0  0  0  0  0  0  0  0
   -0.7360    3.0757   -0.5689 H   0  0  0  0  0  0  0  0  0  0  0  0
   -2.8931    2.4887    0.6870 H   0  0  0  0  0  0  0  0  0  0  0  0
   -2.3292    0.8024    0.7594 H   0  0  0  0  0  0  0  0  0  0  0  0
   -2.0866    1.1065   -1.9336 H   0  0  0  0  0  0  0  0  0  0  0  0
   -3.7482    2.6215   -2.9095 H   0  0  0  0  0  0  0  0  0  0  0  0
   -4.2231    3.2135   -1.2708 H   0  0  0  0  0  0  0  0  0  0  0  0
   -2.5714    3.5395   -1.9203 H   0  0  0  0  0  0  0  0  0  0  0  0
   -4.7746    0.6605   -2.0431 H   0  0  0  0  0  0  0  0  0  0  0  0
   -5.2758    1.2978   -0.0128 H   0  0  0  0  0  0  0  0  0  0  0  0
   -4.5033   -1.6766   -1.3369 H   0  0  0  0  0  0  0  0  0  0  0  0
   -2.3500   -0.6979   -3.2932 H   0  0  0  0  0  0  0  0  0  0  0  0
   -3.0464   -2.3527   -3.1759 H   0  0  0  0  0  0  0  0  0  0  0  0
   -4.0976   -0.9749   -3.6462 H   0  0  0  0  0  0  0  0  0  0  0  0
   -2.3026   -4.2288   -1.1245 H   0  0  0  0  0  0  0  0  0  0  0  0
   -4.0425   -3.8512   -0.8937 H   0  0  0  0  0  0  0  0  0  0  0  0
   -3.1794   -4.8244    0.3323 H   0  0  0  0  0  0  0  0  0  0  0  0
   -3.8898   -3.0613    2.1898 H   0  0  0  0  0  0  0  0  0  0  0  0
   -4.8027   -2.2972    0.8538 H   0  0  0  0  0  0  0  0  0  0  0  0
   -3.6548   -1.3123    1.8150 H   0  0  0  0  0  0  0  0  0  0  0  0
   -1.5755   -3.9044    1.8362 H   0  0  0  0  0  0  0  0  0  0  0  0
    0.2321   -4.0150    0.7199 H   0  0  0  0  0  0  0  0  0  0  0  0
   -1.6845   -1.8062    3.0126 H   0  0  0  0  0  0  0  0  0  0  0  0
   -0.9149   -0.8973    1.7047 H   0  0  0  0  0  0  0  0  0  0  0  0
    5.0524   -2.1789   -1.2181 H   0  0  0  0  0  0  0  0  0  0  0  0
    7.2577    2.4654   -2.8887 H   0  0  0  0  0  0  0  0  0  0  0  0
    6.8833    1.6093   -4.4393 H   0  0  0  0  0  0  0  0  0  0  0  0
    5.6977    2.7845   -3.7493 H   0  0  0  0  0  0  0  0  0  0  0  0
  1  2  2  0
  2  3  1  0
  2  4  1  0
  4  5  1  0
  5  6  1  0
  6  7  1  0
  7  8  1  0
  8  9  1  6
  8 10  1  0
 10 11  1  0
 11 12  1  0
 12 13  1  0
 13 14  1  0
 13 15  1  0
 15 16  1  0
 15 17  1  0
 17 18  1  0
 17 19  1  0
 19 20  2  0
 19 21  1  0
 21 22  1  0
 21 23  1  0
 21 24  1  0
 24 25  1  0
 24 26  1  0
 26 27  1  0
 27 28  2  0
 27 29  1  0
  1 30  1  0
 30 31  2  0
 31 32  1  0
 32 33  1  0
 33 34  1  0
 33 35  2  0
 29  4  1  0
 35 30  1  0
  8  6  1  0
  1 36  1  0
  3 37  1  0
  3 38  1  0
  3 39  1  0
  4 40  1  6
  5 41  1  0
  5 42  1  0
  6 43  1  6
  9 44  1  0
  9 45  1  0
  9 46  1  0
 10 47  1  0
 10 48  1  0
 11 49  1  0
 11 50  1  0
 12 51  1  0
 12 52  1  0
 13 53  1  6
 14 54  1  0
 14 55  1  0
 14 56  1  0
 15 57  1  6
 16 58  1  0
 17 59  1  1
 18 60  1  0
 18 61  1  0
 18 62  1  0
 22 63  1  0
 22 64  1  0
 22 65  1  0
 23 66  1  0
 23 67  1  0
 23 68  1  0
 24 69  1  1
 25 70  1  0
 26 71  1  0
 26 72  1  0
 31 73  1  0
 34 74  1  0
 34 75  1  0
 34 76  1  0
M  END
$$$$
