
     RDKit          3D

 42 41  0  0  0  0  0  0  0  0999 V2000
    4.5109   -0.0803   -1.9687 C   0  0  0  0  0  0  0  0  0  0  0  0
    3.7290   -1.0212   -1.0569 C   0  0  0  0  0  0  0  0  0  0  0  0
    3.0460   -0.2510    0.0787 C   0  0  0  0  0  0  0  0  0  0  0  0
    2.2543   -1.2006    0.9885 C   0  0  0  0  0  0  0  0  0  0  0  0
    1.5941   -0.4550    2.1590 C   0  0  0  0  0  0  0  0  0  0  0  0
    0.6481    0.5726    1.6710 N   0  0  0  0  0  0  0  0  0  0  0  0
    0.4895    1.6395    2.6743 C   0  0  0  0  0  0  0  0  0  0  0  0
   -0.6669   -0.0063    1.3083 C   0  0  0  0  0  0  0  0  0  0  0  0
   -1.1945    0.6798    0.0388 C   0  0  0  0  0  0  0  0  0  0  0  0
   -2.6422    0.2791   -0.3508 C   0  0  0  0  0  0  0  0  0  0  0  0
   -3.5245    0.4841    0.7242 O   0  0  0  0  0  0  0  0  0  0  0  0
   -3.1777    1.3054   -1.7775 P   0  0  0  0  0  5  0  0  0  0  0  0
   -3.0305    2.9486   -1.3957 O   0  0  0  0  0  0  0  0  0  0  0  0
   -4.7899    0.9668   -2.1689 O   0  0  0  0  0  0  0  0  0  0  0  0
   -2.3064    1.0042   -2.9759 O   0  0  0  0  0  0  0  0  0  0  0  0
   -2.7306   -1.4886   -0.8383 P   0  0  0  0  0  5  0  0  0  0  0  0
   -2.5763   -2.4852    0.5220 O   0  0  0  0  0  0  0  0  0  0  0  0
   -1.4847   -1.8395   -1.9288 O   0  0  0  0  0  0  0  0  0  0  0  0
   -4.0611   -1.7763   -1.4976 O   0  0  0  0  0  0  0  0  0  0  0  0
    5.3002    0.4480   -1.3924 H   0  0  0  0  0  0  0  0  0  0  0  0
    4.9944   -0.6650   -2.7794 H   0  0  0  0  0  0  0  0  0  0  0  0
    3.8291    0.6671   -2.4278 H   0  0  0  0  0  0  0  0  0  0  0  0
    2.9631   -1.5537   -1.6621 H   0  0  0  0  0  0  0  0  0  0  0  0
    4.4284   -1.7740   -0.6320 H   0  0  0  0  0  0  0  0  0  0  0  0
    3.8167    0.2791    0.6806 H   0  0  0  0  0  0  0  0  0  0  0  0
    2.3570    0.5047   -0.3585 H   0  0  0  0  0  0  0  0  0  0  0  0
    2.9442   -1.9657    1.4070 H   0  0  0  0  0  0  0  0  0  0  0  0
    1.4863   -1.7350    0.3901 H   0  0  0  0  0  0  0  0  0  0  0  0
    1.0793   -1.1832    2.8263 H   0  0  0  0  0  0  0  0  0  0  0  0
    2.4101    0.0086    2.7596 H   0  0  0  0  0  0  0  0  0  0  0  0
   -0.2474    2.3953    2.3281 H   0  0  0  0  0  0  0  0  0  0  0  0
    1.4552    2.1694    2.8204 H   0  0  0  0  0  0  0  0  0  0  0  0
    0.1505    1.2240    3.6495 H   0  0  0  0  0  0  0  0  0  0  0  0
   -0.5792   -1.0915    1.0996 H   0  0  0  0  0  0  0  0  0  0  0  0
   -1.4003    0.0949    2.1404 H   0  0  0  0  0  0  0  0  0  0  0  0
   -0.5025    0.4543   -0.8022 H   0  0  0  0  0  0  0  0  0  0  0  0
   -1.1603    1.7793    0.1973 H   0  0  0  0  0  0  0  0  0  0  0  0
   -3.4521    1.4351    0.9993 H   0  0  0  0  0  0  0  0  0  0  0  0
   -3.7783    3.1361   -0.7745 H   0  0  0  0  0  0  0  0  0  0  0  0
   -5.3011    1.1712   -1.3458 H   0  0  0  0  0  0  0  0  0  0  0  0
   -3.3490   -2.2549    1.0971 H   0  0  0  0  0  0  0  0  0  0  0  0
   -1.5305   -2.8202   -2.0578 H   0  0  0  0  0  0  0  0  0  0  0  0
  1  2  1  0
  2  3  1  0
  3  4  1  0
  4  5  1  0
  5  6  1  0
  6  7  1  0
  6  8  1  0
  8  9  1  0
  9 10  1  0
 10 11  1  0
 10 12  1  0
 12 13  1  0
 12 14  1  0
 12 15  2  0
 10 16  1  0
 16 17  1  0
 16 18  1  0
 16 19  2  0
  1 20  1  0
  1 21  1  0
  1 22  1  0
  2 23  1  0
  2 24  1  0
  3 25  1  0
  3 26  1  0
  4 27  1  0
  4 28  1  0
  5 29  1  0
  5 30  1  0
  7 31  1  0
  7 32  1  0
  7 33  1  0
  8 34  1  0
  8 35  1  0
  9 36  1  0
  9 37  1  0
 11 38  1  0
 13 39  1  0
 14 40  1  0
 17 41  1  0
 18 42  1  0
M  END
$$$$
