
     RDKit          3D

175180  0  0  0  0  0  0  0  0999 V2000
    6.5020    3.1698   -1.3103 C   0  0  0  0  0  0  0  0  0  0  0  0
    5.1960    3.2627   -2.1104 C   0  0  0  0  0  0  0  0  0  0  0  0
    3.9876    3.4221   -1.1816 C   0  0  0  0  0  0  0  0  0  0  0  0
    5.0360    2.1348   -3.1675 C   0  0  0  0  0  0  0  0  0  0  0  0
    4.6662    0.7050   -2.6947 C   0  0  2  0  0  0  0  0  0  0  0  0
    3.3065    0.6406   -2.1422 N   0  0  0  0  0  0  0  0  0  0  0  0
    2.1403    0.5876   -2.9796 C   0  0  0  0  0  0  0  0  0  0  0  0
    2.2401    0.7862   -4.2208 O   0  0  0  0  0  0  0  0  0  0  0  0
    0.7892    0.2655   -2.3897 C   0  0  1  0  0  0  0  0  0  0  0  0
    0.8162   -1.1033   -1.6924 C   0  0  0  0  0  0  0  0  0  0  0  0
    1.2955   -2.0882   -2.5931 O   0  0  0  0  0  0  0  0  0  0  0  0
    1.8833   -3.2249   -1.9618 C   0  0  0  0  0  0  0  0  0  0  0  0
    0.9986   -3.8243   -0.8387 C   0  0  0  0  0  0  0  0  0  0  0  0
    2.0383   -4.2919   -3.0586 C   0  0  0  0  0  0  0  0  0  0  0  0
    3.2927   -2.8873   -1.4250 C   0  0  0  0  0  0  0  0  0  0  0  0
    0.3867    1.3128   -1.4442 N   0  0  0  0  0  0  0  0  0  0  0  0
   -0.9596    1.4405   -0.9642 C   0  0  0  0  0  0  0  0  0  0  0  0
   -1.8537    0.6527   -1.3798 O   0  0  0  0  0  0  0  0  0  0  0  0
   -1.2816    2.4712    0.0960 C   0  0  2  0  0  0  0  0  0  0  0  0
   -0.8798    1.9618    1.4977 C   0  0  0  0  0  0  0  0  0  0  0  0
   -1.6816    0.7715    1.9676 C   0  0  0  0  0  0  0  0  0  0  0  0
   -1.2999   -0.5301    1.6016 C   0  0  0  0  0  0  0  0  0  0  0  0
   -2.0268   -1.6347    2.0540 C   0  0  0  0  0  0  0  0  0  0  0  0
   -3.1273   -1.4540    2.8968 C   0  0  0  0  0  0  0  0  0  0  0  0
   -3.8484   -2.5622    3.3352 O   0  0  0  0  0  0  0  0  0  0  0  0
   -3.4979   -0.1603    3.2869 C   0  0  0  0  0  0  0  0  0  0  0  0
   -2.7916    0.9488    2.8094 C   0  0  0  0  0  0  0  0  0  0  0  0
   -2.6932    2.8815    0.0426 N   0  0  0  0  0  0  0  0  0  0  0  0
   -3.1765    4.0861    0.6549 C   0  0  0  0  0  0  0  0  0  0  0  0
   -2.4570    4.7099    1.4824 O   0  0  0  0  0  0  0  0  0  0  0  0
   -4.5606    4.5839    0.3172 C   0  0  2  0  0  0  0  0  0  0  0  0
   -4.7562    6.0641    0.6872 C   0  0  0  0  0  0  0  0  0  0  0  0
   -5.9975    6.5244    0.2234 O   0  0  0  0  0  0  0  0  0  0  0  0
   -5.5573    3.7585    1.0042 N   0  0  0  0  0  0  0  0  0  0  0  0
   -6.3348    2.7511    0.3371 C   0  0  0  0  0  0  0  0  0  0  0  0
   -6.1256    2.4940   -0.8803 O   0  0  0  0  0  0  0  0  0  0  0  0
   -7.3638    1.9666    1.1202 C   0  0  2  0  0  0  0  0  0  0  0  0
   -6.6919    0.8919    1.9944 C   0  0  0  0  0  0  0  0  0  0  0  0
   -6.2146   -0.2964    1.2028 C   0  0  0  0  0  0  0  0  0  0  0  0
   -5.1015   -0.3478    0.3689 C   0  0  0  0  0  0  0  0  0  0  0  0
   -4.9545   -1.5861   -0.1522 N   0  0  0  0  0  0  0  0  0  0  0  0
   -5.9656   -2.3191    0.3441 C   0  0  0  0  0  0  0  0  0  0  0  0
   -6.2221   -3.6691    0.1099 C   0  0  0  0  0  0  0  0  0  0  0  0
   -7.3292   -4.2496    0.7545 C   0  0  0  0  0  0  0  0  0  0  0  0
   -8.1432   -3.4776    1.6117 C   0  0  0  0  0  0  0  0  0  0  0  0
   -7.8621   -2.1167    1.8285 C   0  0  0  0  0  0  0  0  0  0  0  0
   -6.7583   -1.5672    1.1742 C   0  0  0  0  0  0  0  0  0  0  0  0
   -8.3874    1.3732    0.2478 N   0  0  0  0  0  0  0  0  0  0  0  0
   -9.6655    0.9535    0.7463 C   0  0  0  0  0  0  0  0  0  0  0  0
   -9.9455    1.0894    1.9694 O   0  0  0  0  0  0  0  0  0  0  0  0
  -10.7009    0.4128   -0.2067 C   0  0  2  0  0  0  0  0  0  0  0  0
  -11.4715    1.5470   -0.9099 C   0  0  0  0  0  0  0  0  0  0  0  0
  -12.1648    2.4779    0.0449 C   0  0  0  0  0  0  0  0  0  0  0  0
  -13.4698    2.3923    0.4758 C   0  0  0  0  0  0  0  0  0  0  0  0
  -13.7101    3.3866    1.3538 N   0  0  0  0  0  0  0  0  0  0  0  0
  -12.5376    4.0522    1.4355 C   0  0  0  0  0  0  0  0  0  0  0  0
  -11.5797    3.5216    0.6528 N   0  0  0  0  0  0  0  0  0  0  0  0
  -11.6205   -0.4933    0.4907 N   0  0  0  0  0  0  0  0  0  0  0  0
  -11.4332   -1.9156    0.5161 C   0  0  0  0  0  0  0  0  0  0  0  0
  -10.5408   -2.4532   -0.1956 O   0  0  0  0  0  0  0  0  0  0  0  0
  -12.2868   -2.7597    1.4250 C   0  0  2  0  0  0  0  0  0  0  0  0
  -11.8777   -2.5998    2.9100 C   0  0  0  0  0  0  0  0  0  0  0  0
  -11.7458   -4.0144    3.4962 C   0  0  0  0  0  0  0  0  0  0  0  0
  -11.8592   -4.8835    2.3084 C   0  0  0  0  0  0  0  0  0  0  0  0
  -11.7346   -6.1359    2.3383 O   0  0  0  0  0  0  0  0  0  0  0  0
  -12.1445   -4.1735    1.1247 N   0  0  0  0  0  0  0  0  0  0  0  0
    5.6885    0.1009   -1.7616 C   0  0  0  0  0  0  0  0  0  0  0  0
    5.4636    0.0346   -0.5216 O   0  0  0  0  0  0  0  0  0  0  0  0
    6.9230   -0.4048   -2.2922 N   0  0  0  0  0  0  0  0  0  0  0  0
    7.8741   -1.1532   -1.4606 C   0  0  1  0  0  0  0  0  0  0  0  0
    8.8961   -1.9194   -2.3320 C   0  0  0  0  0  0  0  0  0  0  0  0
    9.8691   -1.0265   -3.1352 C   0  0  0  0  0  0  0  0  0  0  0  0
   11.2367   -0.9090   -2.4583 C   0  0  0  0  0  0  0  0  0  0  0  0
   12.1032   -0.0415   -3.2506 N   0  0  0  0  0  0  0  0  0  0  0  0
   13.3301    0.2721   -2.9489 C   0  0  0  0  0  0  0  0  0  0  0  0
   14.0565    1.1403   -3.8180 N   0  0  0  0  0  0  0  0  0  0  0  0
   13.9647   -0.2251   -1.7631 N   0  0  0  0  0  0  0  0  0  0  0  0
    8.5460   -0.2334   -0.4641 C   0  0  0  0  0  0  0  0  0  0  0  0
    8.8461    0.9385   -0.8212 O   0  0  0  0  0  0  0  0  0  0  0  0
    8.8677   -0.6674    0.8726 N   0  0  0  0  0  0  0  0  0  0  0  0
    8.6819   -2.0237    1.3653 C   0  0  0  0  0  0  0  0  0  0  0  0
    9.2336   -2.0254    2.7846 C   0  0  0  0  0  0  0  0  0  0  0  0
    9.2789   -0.5614    3.2103 C   0  0  0  0  0  0  0  0  0  0  0  0
    9.3349    0.2433    1.9112 C   0  0  1  0  0  0  0  0  0  0  0  0
   10.7364    0.7129    1.6220 C   0  0  0  0  0  0  0  0  0  0  0  0
   11.5795   -0.0859    1.1302 O   0  0  0  0  0  0  0  0  0  0  0  0
   11.1328    2.0420    1.9845 N   0  0  0  0  0  0  0  0  0  0  0  0
   12.3364    2.6115    1.5338 N   0  0  0  0  0  0  0  0  0  0  0  0
   12.7363    2.5565    0.1587 C   0  0  0  0  0  0  0  0  0  0  0  0
   14.0334    3.0081   -0.2267 N   0  0  0  0  0  0  0  0  0  0  0  0
   11.9361    2.1395   -0.7205 O   0  0  0  0  0  0  0  0  0  0  0  0
    7.3605    2.9739   -1.9870 H   0  0  0  0  0  0  0  0  0  0  0  0
    6.4533    2.3782   -0.5381 H   0  0  0  0  0  0  0  0  0  0  0  0
    6.6904    4.1331   -0.7898 H   0  0  0  0  0  0  0  0  0  0  0  0
    5.2658    4.2083   -2.6943 H   0  0  0  0  0  0  0  0  0  0  0  0
    3.0464    3.4281   -1.7708 H   0  0  0  0  0  0  0  0  0  0  0  0
    4.0574    4.3882   -0.6378 H   0  0  0  0  0  0  0  0  0  0  0  0
    3.9537    2.6100   -0.4272 H   0  0  0  0  0  0  0  0  0  0  0  0
    5.9763    2.0724   -3.7586 H   0  0  0  0  0  0  0  0  0  0  0  0
    4.2602    2.4635   -3.8922 H   0  0  0  0  0  0  0  0  0  0  0  0
    4.6816    0.0593   -3.6012 H   0  0  0  0  0  0  0  0  0  0  0  0
    3.1671    0.5373   -1.1126 H   0  0  0  0  0  0  0  0  0  0  0  0
    0.0466    0.2251   -3.2183 H   0  0  0  0  0  0  0  0  0  0  0  0
   -0.2184   -1.3731   -1.3926 H   0  0  0  0  0  0  0  0  0  0  0  0
    1.4284   -1.0146   -0.7713 H   0  0  0  0  0  0  0  0  0  0  0  0
   -0.0355   -3.9892   -1.2107 H   0  0  0  0  0  0  0  0  0  0  0  0
    0.9537   -3.1577    0.0481 H   0  0  0  0  0  0  0  0  0  0  0  0
    1.4091   -4.7985   -0.4957 H   0  0  0  0  0  0  0  0  0  0  0  0
    1.0448   -4.5574   -3.4803 H   0  0  0  0  0  0  0  0  0  0  0  0
    2.6706   -3.9053   -3.8873 H   0  0  0  0  0  0  0  0  0  0  0  0
    2.5096   -5.2162   -2.6588 H   0  0  0  0  0  0  0  0  0  0  0  0
    3.2521   -2.2216   -0.5393 H   0  0  0  0  0  0  0  0  0  0  0  0
    3.8925   -2.3842   -2.2134 H   0  0  0  0  0  0  0  0  0  0  0  0
    3.8255   -3.8118   -1.1140 H   0  0  0  0  0  0  0  0  0  0  0  0
    1.1030    1.9800   -1.0772 H   0  0  0  0  0  0  0  0  0  0  0  0
   -0.6599    3.3669   -0.1255 H   0  0  0  0  0  0  0  0  0  0  0  0
   -0.9716    2.7870    2.2349 H   0  0  0  0  0  0  0  0  0  0  0  0
    0.1999    1.6935    1.4897 H   0  0  0  0  0  0  0  0  0  0  0  0
   -0.4338   -0.6896    0.9744 H   0  0  0  0  0  0  0  0  0  0  0  0
   -1.7306   -2.6319    1.7542 H   0  0  0  0  0  0  0  0  0  0  0  0
   -4.6609   -2.4621    3.9325 H   0  0  0  0  0  0  0  0  0  0  0  0
   -4.3417   -0.0139    3.9486 H   0  0  0  0  0  0  0  0  0  0  0  0
   -3.1010    1.9429    3.1076 H   0  0  0  0  0  0  0  0  0  0  0  0
   -3.3559    2.3774   -0.5867 H   0  0  0  0  0  0  0  0  0  0  0  0
   -4.6881    4.5059   -0.7850 H   0  0  0  0  0  0  0  0  0  0  0  0
   -4.6733    6.2102    1.7894 H   0  0  0  0  0  0  0  0  0  0  0  0
   -3.9604    6.6713    0.2048 H   0  0  0  0  0  0  0  0  0  0  0  0
   -6.6764    6.2386    0.8891 H   0  0  0  0  0  0  0  0  0  0  0  0
   -5.6588    3.8634    2.0395 H   0  0  0  0  0  0  0  0  0  0  0  0
   -7.8633    2.6947    1.7972 H   0  0  0  0  0  0  0  0  0  0  0  0
   -5.8328    1.3386    2.5367 H   0  0  0  0  0  0  0  0  0  0  0  0
   -7.4079    0.5571    2.7732 H   0  0  0  0  0  0  0  0  0  0  0  0
   -4.4194    0.4661    0.1795 H   0  0  0  0  0  0  0  0  0  0  0  0
   -4.1954   -1.9077   -0.7933 H   0  0  0  0  0  0  0  0  0  0  0  0
   -5.5877   -4.2542   -0.5431 H   0  0  0  0  0  0  0  0  0  0  0  0
   -7.5567   -5.2955    0.5953 H   0  0  0  0  0  0  0  0  0  0  0  0
   -8.9904   -3.9361    2.1030 H   0  0  0  0  0  0  0  0  0  0  0  0
   -8.4848   -1.5240    2.4844 H   0  0  0  0  0  0  0  0  0  0  0  0
   -8.1837    1.2086   -0.7637 H   0  0  0  0  0  0  0  0  0  0  0  0
  -10.1699   -0.1490   -1.0058 H   0  0  0  0  0  0  0  0  0  0  0  0
  -10.7649    2.1376   -1.5327 H   0  0  0  0  0  0  0  0  0  0  0  0
  -12.2219    1.1041   -1.6004 H   0  0  0  0  0  0  0  0  0  0  0  0
  -14.1989    1.6509    0.1770 H   0  0  0  0  0  0  0  0  0  0  0  0
  -12.3845    4.9181    2.0660 H   0  0  0  0  0  0  0  0  0  0  0  0
  -10.5940    3.8508    0.5483 H   0  0  0  0  0  0  0  0  0  0  0  0
  -12.3369   -0.0863    1.1335 H   0  0  0  0  0  0  0  0  0  0  0  0
  -13.3539   -2.4740    1.2958 H   0  0  0  0  0  0  0  0  0  0  0  0
  -10.9033   -2.0712    3.0089 H   0  0  0  0  0  0  0  0  0  0  0  0
  -12.6460   -2.0177    3.4642 H   0  0  0  0  0  0  0  0  0  0  0  0
  -10.7631   -4.1564    3.9951 H   0  0  0  0  0  0  0  0  0  0  0  0
  -12.5764   -4.2294    4.2026 H   0  0  0  0  0  0  0  0  0  0  0  0
  -12.3507   -4.6153    0.2008 H   0  0  0  0  0  0  0  0  0  0  0  0
    7.0892   -0.3162   -3.3204 H   0  0  0  0  0  0  0  0  0  0  0  0
    7.2920   -1.9231   -0.9116 H   0  0  0  0  0  0  0  0  0  0  0  0
    9.4615   -2.6344   -1.6952 H   0  0  0  0  0  0  0  0  0  0  0  0
    8.3225   -2.5457   -3.0503 H   0  0  0  0  0  0  0  0  0  0  0  0
    9.4447   -0.0125   -3.2969 H   0  0  0  0  0  0  0  0  0  0  0  0
   10.0209   -1.4803   -4.1392 H   0  0  0  0  0  0  0  0  0  0  0  0
   11.1157   -0.4814   -1.4429 H   0  0  0  0  0  0  0  0  0  0  0  0
   11.6969   -1.9184   -2.3787 H   0  0  0  0  0  0  0  0  0  0  0  0
   13.6111    1.5187   -4.6836 H   0  0  0  0  0  0  0  0  0  0  0  0
   15.0392    1.4130   -3.5954 H   0  0  0  0  0  0  0  0  0  0  0  0
   14.9458    0.0546   -1.5424 H   0  0  0  0  0  0  0  0  0  0  0  0
   13.4804   -0.8622   -1.0939 H   0  0  0  0  0  0  0  0  0  0  0  0
    9.2353   -2.7496    0.7327 H   0  0  0  0  0  0  0  0  0  0  0  0
    7.5989   -2.2727    1.3808 H   0  0  0  0  0  0  0  0  0  0  0  0
   10.2655   -2.4409    2.7828 H   0  0  0  0  0  0  0  0  0  0  0  0
    8.5972   -2.6276    3.4686 H   0  0  0  0  0  0  0  0  0  0  0  0
   10.1405   -0.3621    3.8858 H   0  0  0  0  0  0  0  0  0  0  0  0
    8.3408   -0.3134    3.7542 H   0  0  0  0  0  0  0  0  0  0  0  0
    8.6489    1.1168    1.9792 H   0  0  0  0  0  0  0  0  0  0  0  0
   10.5821    2.5472    2.7143 H   0  0  0  0  0  0  0  0  0  0  0  0
   12.8706    3.2313    2.1829 H   0  0  0  0  0  0  0  0  0  0  0  0
   14.7070    3.3593    0.4895 H   0  0  0  0  0  0  0  0  0  0  0  0
   14.3259    2.9794   -1.2287 H   0  0  0  0  0  0  0  0  0  0  0  0
  1  2  1  0
  2  3  1  0
  2  4  1  0
  4  5  1  0
  5  6  1  0
  6  7  1  0
  7  8  2  0
  7  9  1  0
  9 10  1  0
 10 11  1  0
 11 12  1  0
 12 13  1  0
 12 14  1  0
 12 15  1  0
  9 16  1  0
 16 17  1  0
 17 18  2  0
 17 19  1  0
 19 20  1  0
 20 21  1  0
 21 22  2  0
 22 23  1  0
 23 24  2  0
 24 25  1  0
 24 26  1  0
 26 27  2  0
 19 28  1  0
 28 29  1  0
 29 30  2  0
 29 31  1  0
 31 32  1  0
 32 33  1  0
 31 34  1  0
 34 35  1  0
 35 36  2  0
 35 37  1  0
 37 38  1  0
 38 39  1  0
 39 40  2  0
 40 41  1  0
 41 42  1  0
 42 43  2  0
 43 44  1  0
 44 45  2  0
 45 46  1  0
 46 47  2  0
 37 48  1  0
 48 49  1  0
 49 50  2  0
 49 51  1  0
 51 52  1  0
 52 53  1  0
 53 54  2  0
 54 55  1  0
 55 56  2  0
 56 57  1  0
 51 58  1  0
 58 59  1  0
 59 60  2  0
 59 61  1  0
 61 62  1  0
 62 63  1  0
 63 64  1  0
 64 65  2  0
 64 66  1  0
  5 67  1  0
 67 68  2  0
 67 69  1  0
 69 70  1  0
 70 71  1  0
 71 72  1  0
 72 73  1  0
 73 74  1  0
 74 75  2  3
 75 76  1  0
 75 77  1  0
 70 78  1  0
 78 79  2  0
 78 80  1  0
 80 81  1  0
 81 82  1  0
 82 83  1  0
 83 84  1  0
 84 85  1  0
 85 86  2  0
 85 87  1  0
 87 88  1  0
 88 89  1  0
 89 90  1  0
 89 91  2  0
 27 21  1  0
 47 39  1  0
 57 53  1  0
 66 61  1  0
 84 80  1  0
 47 42  1  0
  1 92  1  0
  1 93  1  0
  1 94  1  0
  2 95  1  0
  3 96  1  0
  3 97  1  0
  3 98  1  0
  4 99  1  0
  4100  1  0
  5101  1  6
  6102  1  0
  9103  1  6
 10104  1  0
 10105  1  0
 13106  1  0
 13107  1  0
 13108  1  0
 14109  1  0
 14110  1  0
 14111  1  0
 15112  1  0
 15113  1  0
 15114  1  0
 16115  1  0
 19116  1  6
 20117  1  0
 20118  1  0
 22119  1  0
 23120  1  0
 25121  1  0
 26122  1  0
 27123  1  0
 28124  1  0
 31125  1  6
 32126  1  0
 32127  1  0
 33128  1  0
 34129  1  0
 37130  1  1
 38131  1  0
 38132  1  0
 40133  1  0
 41134  1  0
 43135  1  0
 44136  1  0
 45137  1  0
 46138  1  0
 48139  1  0
 51140  1  6
 52141  1  0
 52142  1  0
 54143  1  0
 56144  1  0
 57145  1  0
 58146  1  0
 61147  1  1
 62148  1  0
 62149  1  0
 63150  1  0
 63151  1  0
 66152  1  0
 69153  1  0
 70154  1  1
 71155  1  0
 71156  1  0
 72157  1  0
 72158  1  0
 73159  1  0
 73160  1  0
 76161  1  0
 76162  1  0
 77163  1  0
 77164  1  0
 81165  1  0
 81166  1  0
 82167  1  0
 82168  1  0
 83169  1  0
 83170  1  0
 84171  1  1
 87172  1  0
 88173  1  0
 90174  1  0
 90175  1  0
M  END
$$$$
