
     RDKit          3D

 54 54  0  0  0  0  0  0  0  0999 V2000
   -4.8547   -1.6261    1.1842 C   0  0  1  0  0  0  0  0  0  0  0  0
   -6.1693   -1.3767    1.6144 O   0  0  0  0  0  0  0  0  0  0  0  0
   -4.7875   -1.6224   -0.3570 C   0  0  1  0  0  0  0  0  0  0  0  0
   -5.9560   -2.1863   -0.8969 O   0  0  0  0  0  0  0  0  0  0  0  0
   -4.5175   -0.1938   -0.9265 C   0  0  1  0  0  0  0  0  0  0  0  0
   -5.7393    0.7378   -0.8335 C   0  0  0  0  0  0  0  0  0  0  0  0
   -6.7717    0.2844   -1.6654 O   0  0  0  0  0  0  0  0  0  0  0  0
   -3.3949    0.4836   -0.3580 O   0  0  0  0  0  0  0  0  0  0  0  0
   -2.8117   -0.1450    0.7747 C   0  0  1  0  0  0  0  0  0  0  0  0
   -1.9600    0.7954    1.4108 O   0  0  0  0  0  0  0  0  0  0  0  0
   -0.5959    0.5845    1.0937 C   0  0  0  0  0  0  0  0  0  0  0  0
   -0.2586    1.1080   -0.3126 C   0  0  0  0  0  0  0  0  0  0  0  0
    1.2287    0.9409   -0.6624 C   0  0  0  0  0  0  0  0  0  0  0  0
    2.1202    1.9902    0.0248 C   0  0  0  0  0  0  0  0  0  0  0  0
    3.6046    1.8504   -0.3757 C   0  0  0  0  0  0  0  0  0  0  0  0
    4.4781    1.1849    0.7050 C   0  0  0  0  0  0  0  0  0  0  0  0
    4.1358   -0.2881    1.0007 C   0  0  0  0  0  0  0  0  0  0  0  0
    4.3670   -1.2418   -0.1826 C   0  0  0  0  0  0  0  0  0  0  0  0
    5.8055   -1.2803   -0.5957 C   0  0  0  0  0  0  0  0  0  0  0  0
    6.6285   -1.9731    0.0631 O   0  0  0  0  0  0  0  0  0  0  0  0
    6.2282   -0.5162   -1.6872 O   0  0  0  0  0  0  0  0  0  0  0  0
    7.5848   -0.4719   -2.1114 C   0  0  0  0  0  0  0  0  0  0  0  0
   -3.8912   -0.5754    1.7910 C   0  0  2  0  0  0  0  0  0  0  0  0
   -3.3066   -1.0623    2.9739 O   0  0  0  0  0  0  0  0  0  0  0  0
   -4.5577   -2.6492    1.5163 H   0  0  0  0  0  0  0  0  0  0  0  0
   -6.2091   -1.6311    2.5734 H   0  0  0  0  0  0  0  0  0  0  0  0
   -3.9246   -2.2661   -0.6521 H   0  0  0  0  0  0  0  0  0  0  0  0
   -5.7615   -2.3942   -1.8482 H   0  0  0  0  0  0  0  0  0  0  0  0
   -4.2942   -0.3193   -2.0088 H   0  0  0  0  0  0  0  0  0  0  0  0
   -5.4370    1.7582   -1.1604 H   0  0  0  0  0  0  0  0  0  0  0  0
   -6.0965    0.8092    0.2162 H   0  0  0  0  0  0  0  0  0  0  0  0
   -7.5247    0.9190   -1.5416 H   0  0  0  0  0  0  0  0  0  0  0  0
   -2.2650   -1.0602    0.4399 H   0  0  0  0  0  0  0  0  0  0  0  0
   -0.0008    1.1489    1.8394 H   0  0  0  0  0  0  0  0  0  0  0  0
   -0.2975   -0.4827    1.2103 H   0  0  0  0  0  0  0  0  0  0  0  0
   -0.8465    0.5338   -1.0599 H   0  0  0  0  0  0  0  0  0  0  0  0
   -0.5568    2.1755   -0.3992 H   0  0  0  0  0  0  0  0  0  0  0  0
    1.5558   -0.0867   -0.4034 H   0  0  0  0  0  0  0  0  0  0  0  0
    1.3369    1.0550   -1.7634 H   0  0  0  0  0  0  0  0  0  0  0  0
    1.7668    2.9987   -0.2842 H   0  0  0  0  0  0  0  0  0  0  0  0
    2.0131    1.9348    1.1281 H   0  0  0  0  0  0  0  0  0  0  0  0
    3.7196    1.3291   -1.3495 H   0  0  0  0  0  0  0  0  0  0  0  0
    4.0123    2.8730   -0.5338 H   0  0  0  0  0  0  0  0  0  0  0  0
    4.3823    1.7646    1.6490 H   0  0  0  0  0  0  0  0  0  0  0  0
    5.5437    1.2610    0.3994 H   0  0  0  0  0  0  0  0  0  0  0  0
    4.7621   -0.6265    1.8552 H   0  0  0  0  0  0  0  0  0  0  0  0
    3.0816   -0.3681    1.3384 H   0  0  0  0  0  0  0  0  0  0  0  0
    3.7371   -0.9560   -1.0495 H   0  0  0  0  0  0  0  0  0  0  0  0
    4.0544   -2.2648    0.1189 H   0  0  0  0  0  0  0  0  0  0  0  0
    7.9270   -1.4888   -2.3985 H   0  0  0  0  0  0  0  0  0  0  0  0
    7.6698    0.1982   -2.9912 H   0  0  0  0  0  0  0  0  0  0  0  0
    8.2253   -0.0765   -1.2947 H   0  0  0  0  0  0  0  0  0  0  0  0
   -4.4718    0.3359    2.0569 H   0  0  0  0  0  0  0  0  0  0  0  0
   -2.7105   -1.8169    2.7258 H   0  0  0  0  0  0  0  0  0  0  0  0
  1  2  1  0
  1  3  1  0
  3  4  1  0
  3  5  1  0
  5  6  1  0
  6  7  1  0
  5  8  1  0
  8  9  1  0
  9 10  1  0
 10 11  1  0
 11 12  1  0
 12 13  1  0
 13 14  1  0
 14 15  1  0
 15 16  1  0
 16 17  1  0
 17 18  1  0
 18 19  1  0
 19 20  2  0
 19 21  1  0
 21 22  1  0
  9 23  1  0
 23 24  1  0
 23  1  1  0
  1 25  1  1
  2 26  1  0
  3 27  1  1
  4 28  1  0
  5 29  1  6
  6 30  1  0
  6 31  1  0
  7 32  1  0
  9 33  1  6
 11 34  1  0
 11 35  1  0
 12 36  1  0
 12 37  1  0
 13 38  1  0
 13 39  1  0
 14 40  1  0
 14 41  1  0
 15 42  1  0
 15 43  1  0
 16 44  1  0
 16 45  1  0
 17 46  1  0
 17 47  1  0
 18 48  1  0
 18 49  1  0
 22 50  1  0
 22 51  1  0
 22 52  1  0
 23 53  1  1
 24 54  1  0
M  END
$$$$
