
     RDKit          3D

 43 45  0  0  0  0  0  0  0  0999 V2000
   -0.1285    3.3364   -0.5121 C   0  0  0  0  0  0  0  0  0  0  0  0
   -0.8333    2.4344    0.5077 C   0  0  0  0  0  0  0  0  0  0  0  0
   -0.4820    2.8404    1.9433 C   0  0  0  0  0  0  0  0  0  0  0  0
   -2.2468    2.5216    0.3248 O   0  0  0  0  0  0  0  0  0  0  0  0
   -2.7418    1.2806   -0.0270 C   0  0  0  0  0  0  0  0  0  0  0  0
   -3.9530    1.0594   -0.2833 O   0  0  0  0  0  0  0  0  0  0  0  0
   -1.6570    0.3222   -0.0869 C   0  0  0  0  0  0  0  0  0  0  0  0
   -1.7101   -1.0358   -0.4305 O   0  0  0  0  0  0  0  0  0  0  0  0
   -2.9109   -1.7751   -0.6310 C   0  0  0  0  0  0  0  0  0  0  0  0
   -3.5867   -2.0567    0.7181 C   0  0  0  0  0  0  0  0  0  0  0  0
   -4.6958   -3.0979    0.6464 C   0  0  0  0  0  0  0  0  0  0  0  0
   -5.0442   -1.6360    0.8554 C   0  0  0  0  0  0  0  0  0  0  0  0
   -0.5396    0.9665    0.2329 C   0  0  0  0  0  0  0  0  0  0  0  0
    0.8033    0.3546    0.1750 C   0  0  0  0  0  0  0  0  0  0  0  0
    1.5933    0.2489    1.3293 C   0  0  0  0  0  0  0  0  0  0  0  0
    2.8642   -0.3295    1.2624 C   0  0  0  0  0  0  0  0  0  0  0  0
    3.3547   -0.8171    0.0438 C   0  0  0  0  0  0  0  0  0  0  0  0
    2.5663   -0.7147   -1.1099 C   0  0  0  0  0  0  0  0  0  0  0  0
    1.2952   -0.1374   -1.0438 C   0  0  0  0  0  0  0  0  0  0  0  0
    4.9625   -1.5282   -0.0426 S   0  0  0  0  0  6  0  0  0  0  0  0
    6.1527   -0.2545   -0.3925 C   0  0  0  0  0  0  0  0  0  0  0  0
    5.2998   -2.1860    1.2662 O   0  0  0  0  0  0  0  0  0  0  0  0
    5.0030   -2.5665   -1.1286 O   0  0  0  0  0  0  0  0  0  0  0  0
   -0.4242    4.3956   -0.3549 H   0  0  0  0  0  0  0  0  0  0  0  0
    0.9749    3.2538   -0.4089 H   0  0  0  0  0  0  0  0  0  0  0  0
   -0.4118    3.0431   -1.5459 H   0  0  0  0  0  0  0  0  0  0  0  0
    0.6184    2.8723    2.0873 H   0  0  0  0  0  0  0  0  0  0  0  0
   -0.8881    3.8514    2.1600 H   0  0  0  0  0  0  0  0  0  0  0  0
   -0.9252    2.1237    2.6677 H   0  0  0  0  0  0  0  0  0  0  0  0
   -3.5755   -1.2457   -1.3467 H   0  0  0  0  0  0  0  0  0  0  0  0
   -2.6334   -2.7451   -1.0950 H   0  0  0  0  0  0  0  0  0  0  0  0
   -2.9834   -2.1099    1.6497 H   0  0  0  0  0  0  0  0  0  0  0  0
   -4.9538   -3.4763   -0.3665 H   0  0  0  0  0  0  0  0  0  0  0  0
   -4.8093   -3.7193    1.5598 H   0  0  0  0  0  0  0  0  0  0  0  0
   -5.3570   -1.3937    1.8928 H   0  0  0  0  0  0  0  0  0  0  0  0
   -5.5181   -1.1656   -0.0321 H   0  0  0  0  0  0  0  0  0  0  0  0
    1.2220    0.5908    2.2859 H   0  0  0  0  0  0  0  0  0  0  0  0
    3.4633   -0.3994    2.1613 H   0  0  0  0  0  0  0  0  0  0  0  0
    2.9357   -1.0777   -2.0605 H   0  0  0  0  0  0  0  0  0  0  0  0
    0.6984   -0.0627   -1.9448 H   0  0  0  0  0  0  0  0  0  0  0  0
    6.1272    0.5081    0.4130 H   0  0  0  0  0  0  0  0  0  0  0  0
    7.1678   -0.6989   -0.4479 H   0  0  0  0  0  0  0  0  0  0  0  0
    5.9070    0.2261   -1.3620 H   0  0  0  0  0  0  0  0  0  0  0  0
  1  2  1  0
  2  3  1  0
  2  4  1  0
  4  5  1  0
  5  6  2  0
  5  7  1  0
  7  8  1  0
  8  9  1  0
  9 10  1  0
 10 11  1  0
 11 12  1  0
  7 13  2  0
 13 14  1  0
 14 15  2  0
 15 16  1  0
 16 17  2  0
 17 18  1  0
 18 19  2  0
 17 20  1  0
 20 21  1  0
 20 22  2  0
 20 23  2  0
 13  2  1  0
 19 14  1  0
 12 10  1  0
  1 24  1  0
  1 25  1  0
  1 26  1  0
  3 27  1  0
  3 28  1  0
  3 29  1  0
  9 30  1  0
  9 31  1  0
 10 32  1  0
 11 33  1  0
 11 34  1  0
 12 35  1  0
 12 36  1  0
 15 37  1  0
 16 38  1  0
 18 39  1  0
 19 40  1  0
 21 41  1  0
 21 42  1  0
 21 43  1  0
M  END
$$$$
