
     RDKit          3D

 45 47  0  0  0  0  0  0  0  0999 V2000
   -7.5768    0.3046   -1.7934 C   0  0  0  0  0  0  0  0  0  0  0  0
   -6.8742   -0.8943   -1.1652 C   0  0  0  0  0  0  0  0  0  0  0  0
   -5.5796   -0.4765   -0.5222 C   0  0  0  0  0  0  0  0  0  0  0  0
   -4.3876   -0.4595   -1.2610 C   0  0  0  0  0  0  0  0  0  0  0  0
   -3.2282   -0.0515   -0.6798 N   0  0  0  0  0  0  0  0  0  0  0  0
   -3.1791    0.3657    0.6151 C   0  0  0  0  0  0  0  0  0  0  0  0
   -1.8640    0.7707    1.2131 C   0  0  0  0  0  0  0  0  0  0  0  0
   -1.1808   -0.4301    1.8724 C   0  0  0  0  0  0  0  0  0  0  0  0
    0.0791   -0.0503    2.4262 O   0  0  0  0  0  0  0  0  0  0  0  0
    1.2550    0.1846    1.6945 C   0  0  0  0  0  0  0  0  0  0  0  0
    1.3473   -0.0358    0.3061 C   0  0  0  0  0  0  0  0  0  0  0  0
    2.5452    0.2147   -0.3697 C   0  0  0  0  0  0  0  0  0  0  0  0
    3.6677    0.6890    0.3265 C   0  0  0  0  0  0  0  0  0  0  0  0
    4.9685    0.9363   -0.3945 C   0  0  0  0  0  0  0  0  0  0  0  0
    5.9583   -0.2209   -0.1859 C   0  0  0  0  0  0  0  0  0  0  0  0
    5.3467   -1.7612   -0.9965 S   0  0  0  0  0  0  0  0  0  0  0  0
    6.7582   -1.7583   -2.0889 C   0  0  0  0  0  0  0  0  0  0  0  0
    6.9016   -2.6034   -3.0102 O   0  0  0  0  0  0  0  0  0  0  0  0
    7.7051   -0.7367   -1.8590 N   0  0  0  0  0  0  0  0  0  0  0  0
    7.2877    0.1030   -0.8000 C   0  0  0  0  0  0  0  0  0  0  0  0
    8.0046    1.0569   -0.3963 O   0  0  0  0  0  0  0  0  0  0  0  0
    3.5778    0.8986    1.7108 C   0  0  0  0  0  0  0  0  0  0  0  0
    2.3800    0.6489    2.3859 C   0  0  0  0  0  0  0  0  0  0  0  0
   -4.3483    0.3651    1.3880 C   0  0  0  0  0  0  0  0  0  0  0  0
   -5.5506   -0.0485    0.8124 C   0  0  0  0  0  0  0  0  0  0  0  0
   -8.5282   -0.0251   -2.2614 H   0  0  0  0  0  0  0  0  0  0  0  0
   -7.8070    1.0663   -1.0179 H   0  0  0  0  0  0  0  0  0  0  0  0
   -6.9344    0.7610   -2.5766 H   0  0  0  0  0  0  0  0  0  0  0  0
   -6.6821   -1.6590   -1.9491 H   0  0  0  0  0  0  0  0  0  0  0  0
   -7.5445   -1.3571   -0.4084 H   0  0  0  0  0  0  0  0  0  0  0  0
   -4.3797   -0.7716   -2.2974 H   0  0  0  0  0  0  0  0  0  0  0  0
   -2.0194    1.5698    1.9705 H   0  0  0  0  0  0  0  0  0  0  0  0
   -1.2150    1.1911    0.4164 H   0  0  0  0  0  0  0  0  0  0  0  0
   -1.8240   -0.7958    2.7013 H   0  0  0  0  0  0  0  0  0  0  0  0
   -1.0558   -1.2707    1.1564 H   0  0  0  0  0  0  0  0  0  0  0  0
    0.5053   -0.4032   -0.2627 H   0  0  0  0  0  0  0  0  0  0  0  0
    2.5982    0.0343   -1.4363 H   0  0  0  0  0  0  0  0  0  0  0  0
    5.4129    1.8805   -0.0089 H   0  0  0  0  0  0  0  0  0  0  0  0
    4.7878    1.0852   -1.4823 H   0  0  0  0  0  0  0  0  0  0  0  0
    6.1021   -0.4146    0.8991 H   0  0  0  0  0  0  0  0  0  0  0  0
    8.5928   -0.6183   -2.3962 H   0  0  0  0  0  0  0  0  0  0  0  0
    4.4366    1.2540    2.2670 H   0  0  0  0  0  0  0  0  0  0  0  0
    2.3250    0.8171    3.4540 H   0  0  0  0  0  0  0  0  0  0  0  0
   -4.3278    0.6824    2.4233 H   0  0  0  0  0  0  0  0  0  0  0  0
   -6.4568   -0.0374    1.4054 H   0  0  0  0  0  0  0  0  0  0  0  0
  1  2  1  0
  2  3  1  0
  3  4  2  0
  4  5  1  0
  5  6  2  0
  6  7  1  0
  7  8  1  0
  8  9  1  0
  9 10  1  0
 10 11  2  0
 11 12  1  0
 12 13  2  0
 13 14  1  0
 14 15  1  0
 15 16  1  0
 16 17  1  0
 17 18  2  0
 17 19  1  0
 19 20  1  0
 20 21  2  0
 13 22  1  0
 22 23  2  0
  6 24  1  0
 24 25  2  0
 25  3  1  0
 23 10  1  0
 20 15  1  0
  1 26  1  0
  1 27  1  0
  1 28  1  0
  2 29  1  0
  2 30  1  0
  4 31  1  0
  7 32  1  0
  7 33  1  0
  8 34  1  0
  8 35  1  0
 11 36  1  0
 12 37  1  0
 14 38  1  0
 14 39  1  0
 15 40  1  0
 19 41  1  0
 22 42  1  0
 23 43  1  0
 24 44  1  0
 25 45  1  0
M  END
$$$$
