
     RDKit          3D

 67 70  0  0  0  0  0  0  0  0999 V2000
   -5.2269    2.9368   -1.3380 C   0  0  0  0  0  0  0  0  0  0  0  0
   -5.7129    1.7460   -0.5129 C   0  0  0  0  0  0  0  0  0  0  0  0
   -5.2450    1.8047    0.9514 C   0  0  0  0  0  0  0  0  0  0  0  0
   -3.7271    1.6351    1.1220 C   0  0  0  0  0  0  0  0  0  0  0  0
   -3.2694    0.3666    0.5122 N   0  0  0  0  0  0  0  0  0  0  0  0
   -3.3190   -0.7656    1.4670 C   0  0  0  0  0  0  0  0  0  0  0  0
   -3.1760   -2.1348    0.7785 C   0  0  0  0  0  0  0  0  0  0  0  0
   -4.1804   -2.3621   -0.3652 C   0  0  0  0  0  0  0  0  0  0  0  0
   -5.6277   -2.4282    0.1208 C   0  0  0  0  0  0  0  0  0  0  0  0
   -2.0172    0.5028   -0.2782 C   0  0  0  0  0  0  0  0  0  0  0  0
   -0.7113    0.6336    0.5566 C   0  0  0  0  0  0  0  0  0  0  0  0
   -0.6903    1.8594    1.2403 O   0  0  0  0  0  0  0  0  0  0  0  0
    0.5649    0.5206   -0.2666 C   0  0  0  0  0  0  0  0  0  0  0  0
    1.7889    0.0713    0.2999 C   0  0  0  0  0  0  0  0  0  0  0  0
    2.9178   -0.1289   -0.4990 C   0  0  0  0  0  0  0  0  0  0  0  0
    2.8748    0.1074   -1.8758 C   0  0  0  0  0  0  0  0  0  0  0  0
    1.7163    0.6500   -2.4330 C   0  0  0  0  0  0  0  0  0  0  0  0
    1.6666    1.0158   -4.1485 Cl  0  0  0  0  0  0  0  0  0  0  0  0
    0.5833    0.8747   -1.6386 C   0  0  0  0  0  0  0  0  0  0  0  0
    4.0067   -0.7131    0.3123 C   0  0  0  0  0  0  0  0  0  0  0  0
    5.2803   -0.9922   -0.0208 C   0  0  0  0  0  0  0  0  0  0  0  0
    5.9301   -0.5729   -1.2722 C   0  0  0  0  0  0  0  0  0  0  0  0
    6.5632   -1.5275   -2.0806 C   0  0  0  0  0  0  0  0  0  0  0  0
    7.2216   -1.1332   -3.2497 C   0  0  0  0  0  0  0  0  0  0  0  0
    7.2700    0.2191   -3.6058 C   0  0  0  0  0  0  0  0  0  0  0  0
    8.0954    0.7115   -5.0730 Cl  0  0  0  0  0  0  0  0  0  0  0  0
    6.6673    1.1790   -2.7858 C   0  0  0  0  0  0  0  0  0  0  0  0
    6.0093    0.7874   -1.6161 C   0  0  0  0  0  0  0  0  0  0  0  0
    3.4330   -0.8750    1.6509 C   0  0  0  0  0  0  0  0  0  0  0  0
    2.1413   -0.3658    1.6711 C   0  0  0  0  0  0  0  0  0  0  0  0
    1.4502   -0.2540    2.8883 C   0  0  0  0  0  0  0  0  0  0  0  0
    2.0518   -0.7367    4.0599 C   0  0  0  0  0  0  0  0  0  0  0  0
    3.3419   -1.2915    4.0233 C   0  0  0  0  0  0  0  0  0  0  0  0
    4.0853   -1.8753    5.5008 Cl  0  0  0  0  0  0  0  0  0  0  0  0
    4.0502   -1.3473    2.8153 C   0  0  0  0  0  0  0  0  0  0  0  0
   -4.1261    2.9003   -1.4703 H   0  0  0  0  0  0  0  0  0  0  0  0
   -5.6960    2.9042   -2.3438 H   0  0  0  0  0  0  0  0  0  0  0  0
   -5.5100    3.8918   -0.8467 H   0  0  0  0  0  0  0  0  0  0  0  0
   -6.8243    1.7459   -0.5234 H   0  0  0  0  0  0  0  0  0  0  0  0
   -5.3782    0.8006   -0.9910 H   0  0  0  0  0  0  0  0  0  0  0  0
   -5.7673    1.0064    1.5200 H   0  0  0  0  0  0  0  0  0  0  0  0
   -5.5541    2.7738    1.4002 H   0  0  0  0  0  0  0  0  0  0  0  0
   -3.4861    1.6646    2.2082 H   0  0  0  0  0  0  0  0  0  0  0  0
   -3.2253    2.5186    0.6712 H   0  0  0  0  0  0  0  0  0  0  0  0
   -4.2915   -0.7617    2.0033 H   0  0  0  0  0  0  0  0  0  0  0  0
   -2.5532   -0.6572    2.2623 H   0  0  0  0  0  0  0  0  0  0  0  0
   -3.3052   -2.9330    1.5417 H   0  0  0  0  0  0  0  0  0  0  0  0
   -2.1442   -2.2458    0.3833 H   0  0  0  0  0  0  0  0  0  0  0  0
   -3.9336   -3.3272   -0.8580 H   0  0  0  0  0  0  0  0  0  0  0  0
   -4.0855   -1.5654   -1.1330 H   0  0  0  0  0  0  0  0  0  0  0  0
   -6.2867   -2.7232   -0.7227 H   0  0  0  0  0  0  0  0  0  0  0  0
   -5.7322   -3.1802    0.9314 H   0  0  0  0  0  0  0  0  0  0  0  0
   -5.9635   -1.4367    0.4886 H   0  0  0  0  0  0  0  0  0  0  0  0
   -1.9248   -0.3700   -0.9579 H   0  0  0  0  0  0  0  0  0  0  0  0
   -2.1221    1.3828   -0.9471 H   0  0  0  0  0  0  0  0  0  0  0  0
   -0.6959   -0.2267    1.2497 H   0  0  0  0  0  0  0  0  0  0  0  0
   -1.1015    1.7070    2.1297 H   0  0  0  0  0  0  0  0  0  0  0  0
    3.7023   -0.1333   -2.5230 H   0  0  0  0  0  0  0  0  0  0  0  0
   -0.2856    1.2920   -2.1234 H   0  0  0  0  0  0  0  0  0  0  0  0
    5.9093   -1.5126    0.6884 H   0  0  0  0  0  0  0  0  0  0  0  0
    6.5376   -2.5765   -1.8115 H   0  0  0  0  0  0  0  0  0  0  0  0
    7.6960   -1.8783   -3.8755 H   0  0  0  0  0  0  0  0  0  0  0  0
    6.7118    2.2276   -3.0510 H   0  0  0  0  0  0  0  0  0  0  0  0
    5.5560    1.5403   -0.9829 H   0  0  0  0  0  0  0  0  0  0  0  0
    0.4916    0.2228    2.9729 H   0  0  0  0  0  0  0  0  0  0  0  0
    1.5222   -0.6619    5.0012 H   0  0  0  0  0  0  0  0  0  0  0  0
    5.0591   -1.7356    2.7984 H   0  0  0  0  0  0  0  0  0  0  0  0
  1  2  1  0
  2  3  1  0
  3  4  1  0
  4  5  1  0
  5  6  1  0
  6  7  1  0
  7  8  1  0
  8  9  1  0
  5 10  1  0
 10 11  1  0
 11 12  1  0
 11 13  1  0
 13 14  2  0
 14 15  1  0
 15 16  2  0
 16 17  1  0
 17 18  1  0
 17 19  2  0
 15 20  1  0
 20 21  2  0
 21 22  1  0
 22 23  2  0
 23 24  1  0
 24 25  2  0
 25 26  1  0
 25 27  1  0
 27 28  2  0
 20 29  1  0
 29 30  2  0
 30 31  1  0
 31 32  2  0
 32 33  1  0
 33 34  1  0
 33 35  2  0
 19 13  1  0
 28 22  1  0
 35 29  1  0
 30 14  1  0
  1 36  1  0
  1 37  1  0
  1 38  1  0
  2 39  1  0
  2 40  1  0
  3 41  1  0
  3 42  1  0
  4 43  1  0
  4 44  1  0
  6 45  1  0
  6 46  1  0
  7 47  1  0
  7 48  1  0
  8 49  1  0
  8 50  1  0
  9 51  1  0
  9 52  1  0
  9 53  1  0
 10 54  1  0
 10 55  1  0
 11 56  1  0
 12 57  1  0
 16 58  1  0
 19 59  1  0
 21 60  1  0
 23 61  1  0
 24 62  1  0
 27 63  1  0
 28 64  1  0
 31 65  1  0
 32 66  1  0
 35 67  1  0
M  END
$$$$
