
     RDKit          3D

 64 68  0  0  0  0  0  0  0  0999 V2000
    5.0774   -0.5663   -1.3161 C   0  0  0  0  0  0  0  0  0  0  0  0
    3.6020   -0.9440   -1.1272 C   0  0  0  0  0  0  0  0  0  0  0  0
    3.0591   -1.5553   -2.4223 C   0  0  0  0  0  0  0  0  0  0  0  0
    3.4974   -1.8998   -0.0951 O   0  0  0  0  0  0  0  0  0  0  0  0
    2.7830   -1.2916    0.9391 C   0  0  2  0  0  0  0  0  0  0  0  0
    1.3721   -1.9117    1.0483 C   0  0  0  0  0  0  0  0  0  0  0  0
    0.4575   -0.8540    0.4471 C   0  0  1  0  0  0  0  0  0  0  0  0
   -1.0590   -0.9168    0.7264 C   0  0  2  0  0  0  0  0  0  0  0  0
   -1.6230   -2.3104    0.3463 C   0  0  0  0  0  0  0  0  0  0  0  0
   -3.1505   -2.3609    0.4677 C   0  0  2  0  0  0  0  0  0  0  0  0
   -3.6053   -3.6127    0.0829 F   0  0  0  0  0  0  0  0  0  0  0  0
   -3.7303   -1.2515   -0.3822 C   0  0  0  0  0  0  0  0  0  0  0  0
   -4.2302   -1.5440   -1.6011 C   0  0  0  0  0  0  0  0  0  0  0  0
   -4.4382   -0.5124   -2.6265 C   0  0  0  0  0  0  0  0  0  0  0  0
   -4.9666   -0.8218   -3.7272 O   0  0  0  0  0  0  0  0  0  0  0  0
   -3.9444    0.8793   -2.4025 C   0  0  0  0  0  0  0  0  0  0  0  0
   -4.0422    1.2201   -0.9180 C   0  0  0  0  0  0  0  0  0  0  0  0
   -3.3302    0.1787    0.0071 C   0  0  1  0  0  0  0  0  0  0  0  0
   -3.8352    0.4698    1.4484 C   0  0  0  0  0  0  0  0  0  0  0  0
   -1.7537    0.2270   -0.1071 C   0  0  1  0  0  0  0  0  0  0  0  0
   -1.0953    1.6334    0.1116 C   0  0  1  0  0  0  0  0  0  0  0  0
   -1.4814    2.1875    1.3407 O   0  0  0  0  0  0  0  0  0  0  0  0
    0.4567    1.5992   -0.0047 C   0  0  0  0  0  0  0  0  0  0  0  0
    1.0990    0.4785    0.8542 C   0  0  1  0  0  0  0  0  0  0  0  0
    0.9300    0.8023    2.3780 C   0  0  0  0  0  0  0  0  0  0  0  0
    2.6027    0.1809    0.5528 C   0  0  2  0  0  0  0  0  0  0  0  0
    2.8562    0.2165   -0.8251 O   0  0  0  0  0  0  0  0  0  0  0  0
    3.5702    1.1395    1.2495 C   0  0  0  0  0  0  0  0  0  0  0  0
    4.0998    0.8274    2.3065 O   0  0  0  0  0  0  0  0  0  0  0  0
    3.8581    2.5000    0.6780 C   0  0  0  0  0  0  0  0  0  0  0  0
    3.4485    3.4833    1.5862 O   0  0  0  0  0  0  0  0  0  0  0  0
    5.6738   -1.4591   -1.6018 H   0  0  0  0  0  0  0  0  0  0  0  0
    5.4951   -0.1600   -0.3713 H   0  0  0  0  0  0  0  0  0  0  0  0
    5.1808    0.2064   -2.1079 H   0  0  0  0  0  0  0  0  0  0  0  0
    3.1118   -0.8173   -3.2512 H   0  0  0  0  0  0  0  0  0  0  0  0
    2.0006   -1.8605   -2.2901 H   0  0  0  0  0  0  0  0  0  0  0  0
    3.6462   -2.4560   -2.7031 H   0  0  0  0  0  0  0  0  0  0  0  0
    3.3258   -1.4403    1.8970 H   0  0  0  0  0  0  0  0  0  0  0  0
    1.1074   -2.0941    2.1125 H   0  0  0  0  0  0  0  0  0  0  0  0
    1.2991   -2.8713    0.4906 H   0  0  0  0  0  0  0  0  0  0  0  0
    0.5616   -0.9684   -0.6579 H   0  0  0  0  0  0  0  0  0  0  0  0
   -1.2382   -0.7867    1.8085 H   0  0  0  0  0  0  0  0  0  0  0  0
   -1.3328   -2.5655   -0.6976 H   0  0  0  0  0  0  0  0  0  0  0  0
   -1.1913   -3.0836    1.0180 H   0  0  0  0  0  0  0  0  0  0  0  0
   -3.4426   -2.2222    1.5288 H   0  0  0  0  0  0  0  0  0  0  0  0
   -4.4270   -2.5702   -1.8849 H   0  0  0  0  0  0  0  0  0  0  0  0
   -2.8962    0.9660   -2.7566 H   0  0  0  0  0  0  0  0  0  0  0  0
   -4.5644    1.5965   -2.9830 H   0  0  0  0  0  0  0  0  0  0  0  0
   -3.6621    2.2473   -0.7448 H   0  0  0  0  0  0  0  0  0  0  0  0
   -5.1264    1.2549   -0.6629 H   0  0  0  0  0  0  0  0  0  0  0  0
   -3.2479   -0.0425    2.2325 H   0  0  0  0  0  0  0  0  0  0  0  0
   -3.8183    1.5563    1.6738 H   0  0  0  0  0  0  0  0  0  0  0  0
   -4.8918    0.1408    1.5557 H   0  0  0  0  0  0  0  0  0  0  0  0
   -1.5276   -0.0146   -1.1709 H   0  0  0  0  0  0  0  0  0  0  0  0
   -1.4450    2.3019   -0.7075 H   0  0  0  0  0  0  0  0  0  0  0  0
   -1.3002    3.1625    1.2907 H   0  0  0  0  0  0  0  0  0  0  0  0
    0.7115    1.4479   -1.0764 H   0  0  0  0  0  0  0  0  0  0  0  0
    0.8744    2.5876    0.2839 H   0  0  0  0  0  0  0  0  0  0  0  0
    1.4828    0.0807    3.0145 H   0  0  0  0  0  0  0  0  0  0  0  0
    1.3258    1.8156    2.6006 H   0  0  0  0  0  0  0  0  0  0  0  0
   -0.1162    0.7926    2.7267 H   0  0  0  0  0  0  0  0  0  0  0  0
    4.9516    2.5871    0.4935 H   0  0  0  0  0  0  0  0  0  0  0  0
    3.3274    2.6431   -0.2886 H   0  0  0  0  0  0  0  0  0  0  0  0
    3.6676    4.3550    1.1655 H   0  0  0  0  0  0  0  0  0  0  0  0
  1  2  1  0
  2  3  1  0
  2  4  1  0
  4  5  1  0
  5  6  1  0
  6  7  1  0
  7  8  1  0
  8  9  1  0
  9 10  1  0
 10 11  1  0
 10 12  1  0
 12 13  2  0
 13 14  1  0
 14 15  2  0
 14 16  1  0
 16 17  1  0
 17 18  1  0
 18 19  1  1
 18 20  1  0
 20 21  1  0
 21 22  1  0
 21 23  1  0
 23 24  1  0
 24 25  1  1
 24 26  1  0
 26 27  1  0
 26 28  1  1
 28 29  2  0
 28 30  1  0
 30 31  1  0
 27  2  1  0
 26  5  1  0
 24  7  1  0
 20  8  1  0
 18 12  1  0
  1 32  1  0
  1 33  1  0
  1 34  1  0
  3 35  1  0
  3 36  1  0
  3 37  1  0
  5 38  1  1
  6 39  1  0
  6 40  1  0
  7 41  1  6
  8 42  1  1
  9 43  1  0
  9 44  1  0
 10 45  1  1
 13 46  1  0
 16 47  1  0
 16 48  1  0
 17 49  1  0
 17 50  1  0
 19 51  1  0
 19 52  1  0
 19 53  1  0
 20 54  1  6
 21 55  1  6
 22 56  1  0
 23 57  1  0
 23 58  1  0
 25 59  1  0
 25 60  1  0
 25 61  1  0
 30 62  1  0
 30 63  1  0
 31 64  1  0
M  END
$$$$
