
     RDKit          3D

 46 47  0  0  0  0  0  0  0  0999 V2000
   -4.8197    2.8608   -0.4368 C   0  0  0  0  0  0  0  0  0  0  0  0
   -4.7027    1.5132    0.0021 O   0  0  0  0  0  0  0  0  0  0  0  0
   -3.8841    1.1383    1.0716 C   0  0  0  0  0  0  0  0  0  0  0  0
   -3.2426    2.0086    1.7213 O   0  0  0  0  0  0  0  0  0  0  0  0
   -3.8205   -0.2826    1.4703 C   0  0  0  0  0  0  0  0  0  0  0  0
   -2.5946   -1.0041    1.5071 C   0  0  0  0  0  0  0  0  0  0  0  0
   -1.2953   -0.3573    1.0553 C   0  0  0  0  0  0  0  0  0  0  0  0
   -1.1294   -0.4860   -0.4615 C   0  0  0  0  0  0  0  0  0  0  0  0
    0.1649    0.1282   -0.9004 C   0  0  0  0  0  0  0  0  0  0  0  0
    0.1648    1.2886   -1.3940 O   0  0  0  0  0  0  0  0  0  0  0  0
    1.3928   -0.5994   -0.7457 N   0  0  0  0  0  0  0  0  0  0  0  0
    2.6881   -0.0105   -0.9470 C   0  0  0  0  0  0  0  0  0  0  0  0
    3.7000   -0.7156   -1.6306 C   0  0  0  0  0  0  0  0  0  0  0  0
    3.4654   -1.9667   -2.2038 O   0  0  0  0  0  0  0  0  0  0  0  0
    4.9734   -0.1518   -1.7646 C   0  0  0  0  0  0  0  0  0  0  0  0
    5.2601    1.1180   -1.2292 C   0  0  0  0  0  0  0  0  0  0  0  0
    6.5275    1.7093   -1.3549 O   0  0  0  0  0  0  0  0  0  0  0  0
    7.6357    1.1111   -2.0196 C   0  0  0  0  0  0  0  0  0  0  0  0
    4.2500    1.8166   -0.5464 C   0  0  0  0  0  0  0  0  0  0  0  0
    4.4919    3.0743    0.0064 O   0  0  0  0  0  0  0  0  0  0  0  0
    2.9792    1.2519   -0.4054 C   0  0  0  0  0  0  0  0  0  0  0  0
   -2.6144   -2.3805    1.8547 C   0  0  0  0  0  0  0  0  0  0  0  0
   -1.1298   -3.3421    1.8371 Cl  0  0  0  0  0  0  0  0  0  0  0  0
   -3.8313   -3.0062    2.1907 C   0  0  0  0  0  0  0  0  0  0  0  0
   -3.8944   -4.3527    2.5556 O   0  0  0  0  0  0  0  0  0  0  0  0
   -5.0193   -2.2801    2.1572 C   0  0  0  0  0  0  0  0  0  0  0  0
   -5.0244   -0.9330    1.7930 C   0  0  0  0  0  0  0  0  0  0  0  0
   -6.2308   -0.2312    1.7609 O   0  0  0  0  0  0  0  0  0  0  0  0
   -5.2174    3.4948    0.3838 H   0  0  0  0  0  0  0  0  0  0  0  0
   -5.5192    2.9047   -1.2965 H   0  0  0  0  0  0  0  0  0  0  0  0
   -3.8278    3.2424   -0.7596 H   0  0  0  0  0  0  0  0  0  0  0  0
   -0.4256   -0.8164    1.5701 H   0  0  0  0  0  0  0  0  0  0  0  0
   -1.2531    0.7105    1.3443 H   0  0  0  0  0  0  0  0  0  0  0  0
   -1.9753    0.0199   -0.9768 H   0  0  0  0  0  0  0  0  0  0  0  0
   -1.1429   -1.5579   -0.7552 H   0  0  0  0  0  0  0  0  0  0  0  0
    1.3378   -1.6075   -0.4773 H   0  0  0  0  0  0  0  0  0  0  0  0
    2.5551   -2.4087   -2.2071 H   0  0  0  0  0  0  0  0  0  0  0  0
    5.7314   -0.7112   -2.2960 H   0  0  0  0  0  0  0  0  0  0  0  0
    7.9075    0.1551   -1.5242 H   0  0  0  0  0  0  0  0  0  0  0  0
    7.3896    0.9329   -3.0877 H   0  0  0  0  0  0  0  0  0  0  0  0
    8.5046    1.7984   -1.9655 H   0  0  0  0  0  0  0  0  0  0  0  0
    5.3934    3.5307   -0.0631 H   0  0  0  0  0  0  0  0  0  0  0  0
    2.2238    1.7916    0.1518 H   0  0  0  0  0  0  0  0  0  0  0  0
   -3.0805   -4.9510    2.6120 H   0  0  0  0  0  0  0  0  0  0  0  0
   -5.9501   -2.7719    2.4121 H   0  0  0  0  0  0  0  0  0  0  0  0
   -7.1119   -0.6755    1.9915 H   0  0  0  0  0  0  0  0  0  0  0  0
  1  2  1  0
  2  3  1  0
  3  4  2  0
  3  5  1  0
  5  6  2  0
  6  7  1  0
  7  8  1  0
  8  9  1  0
  9 10  2  0
  9 11  1  0
 11 12  1  0
 12 13  2  0
 13 14  1  0
 13 15  1  0
 15 16  2  0
 16 17  1  0
 17 18  1  0
 16 19  1  0
 19 20  1  0
 19 21  2  0
  6 22  1  0
 22 23  1  0
 22 24  2  0
 24 25  1  0
 24 26  1  0
 26 27  2  0
 27 28  1  0
 27  5  1  0
 21 12  1  0
  1 29  1  0
  1 30  1  0
  1 31  1  0
  7 32  1  0
  7 33  1  0
  8 34  1  0
  8 35  1  0
 11 36  1  0
 14 37  1  0
 15 38  1  0
 18 39  1  0
 18 40  1  0
 18 41  1  0
 20 42  1  0
 21 43  1  0
 25 44  1  0
 26 45  1  0
 28 46  1  0
M  END
$$$$
