
     RDKit          3D

 12 11  0  0  0  0  0  0  0  0999 V2000
   -1.0209   -1.1937    0.3151 N   0  0  0  0  0  0  0  0  0  0  0  0
   -0.0432   -0.1210    0.1393 C   0  0  1  0  0  0  0  0  0  0  0  0
    1.1827   -0.6569   -0.4679 C   0  0  0  0  0  0  0  0  0  0  0  0
    2.1892   -1.0972   -0.9650 C   0  0  0  0  0  0  0  0  0  0  0  0
   -0.6033    0.9542   -0.7431 C   0  0  0  0  0  0  0  0  0  0  0  0
   -0.4940    2.2879   -0.3618 O   0  0  0  0  0  0  0  0  0  0  0  0
   -1.1508    0.6574   -1.8397 O   0  0  0  0  0  0  0  0  0  0  0  0
   -1.8648   -0.7932    0.7867 H   0  0  0  0  0  0  0  0  0  0  0  0
   -0.6243   -1.8951    0.9832 H   0  0  0  0  0  0  0  0  0  0  0  0
    0.2149    0.3133    1.1308 H   0  0  0  0  0  0  0  0  0  0  0  0
    3.0725   -1.4836   -1.4013 H   0  0  0  0  0  0  0  0  0  0  0  0
   -0.8581    3.0279   -0.9500 H   0  0  0  0  0  0  0  0  0  0  0  0
  1  2  1  0
  2  3  1  0
  3  4  3  0
  2  5  1  0
  5  6  1  0
  5  7  2  0
  1  8  1  0
  1  9  1  0
  2 10  1  1
  4 11  1  0
  6 12  1  0
M  END
$$$$
