
     RDKit          3D

 75 80  0  0  0  0  0  0  0  0999 V2000
   -5.1461    0.7439    3.0985 C   0  0  0  0  0  0  0  0  0  0  0  0
   -5.3941    0.4538    1.7269 O   0  0  0  0  0  0  0  0  0  0  0  0
   -6.6244    0.6490    1.0757 C   0  0  0  0  0  0  0  0  0  0  0  0
   -7.7445    1.1597    1.7584 C   0  0  0  0  0  0  0  0  0  0  0  0
   -8.9536    1.3501    1.0920 C   0  0  0  0  0  0  0  0  0  0  0  0
   -9.0689    1.0353   -0.2604 C   0  0  0  0  0  0  0  0  0  0  0  0
   -7.9664    0.5227   -0.9683 C   0  0  0  0  0  0  0  0  0  0  0  0
   -6.7353    0.3283   -0.2974 C   0  0  0  0  0  0  0  0  0  0  0  0
   -5.6618   -0.1697   -0.9810 N   0  0  0  0  0  0  0  0  0  0  0  0
   -5.7160   -0.4648   -2.3169 C   0  0  0  0  0  0  0  0  0  0  0  0
   -6.9441   -0.3188   -3.0115 C   0  0  0  0  0  0  0  0  0  0  0  0
   -7.0271   -0.6925   -4.3657 C   0  0  0  0  0  0  0  0  0  0  0  0
   -5.9151   -1.2104   -5.0248 C   0  0  0  0  0  0  0  0  0  0  0  0
   -4.7000   -1.3394   -4.3570 C   0  0  0  0  0  0  0  0  0  0  0  0
   -4.5752   -0.9497   -3.0148 C   0  0  0  0  0  0  0  0  0  0  0  0
   -3.2365   -1.0269   -2.3908 C   0  0  0  0  0  0  0  0  0  0  0  0
   -2.5393   -2.0665   -2.5448 O   0  0  0  0  0  0  0  0  0  0  0  0
   -2.6960    0.1087   -1.6973 N   0  0  0  0  0  0  0  0  0  0  0  0
   -1.6490    0.0291   -0.7153 C   0  0  0  0  0  0  0  0  0  0  0  0
   -1.4733   -1.1183    0.0790 C   0  0  0  0  0  0  0  0  0  0  0  0
   -0.4699   -1.1575    1.0515 C   0  0  0  0  0  0  0  0  0  0  0  0
    0.3585   -0.0445    1.2607 C   0  0  0  0  0  0  0  0  0  0  0  0
    1.4630   -0.0986    2.2828 C   0  0  0  0  0  0  0  0  0  0  0  0
    2.7769   -0.5533    1.6330 C   0  0  0  0  0  0  0  0  0  0  0  0
    3.8181   -0.8356    2.6499 N   0  0  0  0  0  0  0  0  0  0  0  0
    4.3423    0.3684    3.3321 C   0  0  0  0  0  0  0  0  0  0  0  0
    5.0826    1.3200    2.3780 C   0  0  0  0  0  0  0  0  0  0  0  0
    5.9506    0.5891    1.3848 C   0  0  0  0  0  0  0  0  0  0  0  0
    6.8314    1.3243    0.5798 C   0  0  0  0  0  0  0  0  0  0  0  0
    7.6228    0.6837   -0.3918 C   0  0  0  0  0  0  0  0  0  0  0  0
    8.5169    1.3926   -1.2102 O   0  0  0  0  0  0  0  0  0  0  0  0
    8.7203    2.8008   -1.1539 C   0  0  0  0  0  0  0  0  0  0  0  0
    7.5262   -0.7050   -0.5595 C   0  0  0  0  0  0  0  0  0  0  0  0
    8.3336   -1.3161   -1.5322 O   0  0  0  0  0  0  0  0  0  0  0  0
    8.3418   -2.7118   -1.8146 C   0  0  0  0  0  0  0  0  0  0  0  0
    6.6348   -1.4424    0.2420 C   0  0  0  0  0  0  0  0  0  0  0  0
    5.8344   -0.8015    1.1977 C   0  0  0  0  0  0  0  0  0  0  0  0
    4.9323   -1.6255    2.0870 C   0  0  0  0  0  0  0  0  0  0  0  0
    0.1802    1.1027    0.4727 C   0  0  0  0  0  0  0  0  0  0  0  0
   -0.8240    1.1423   -0.4985 C   0  0  0  0  0  0  0  0  0  0  0  0
   -8.0663    0.1866   -2.3297 C   0  0  0  0  0  0  0  0  0  0  0  0
   -9.1630    0.3365   -2.9390 O   0  0  0  0  0  0  0  0  0  0  0  0
   -5.8099    0.1315    3.7445 H   0  0  0  0  0  0  0  0  0  0  0  0
   -5.3089    1.8245    3.2958 H   0  0  0  0  0  0  0  0  0  0  0  0
   -4.0915    0.4948    3.3357 H   0  0  0  0  0  0  0  0  0  0  0  0
   -7.6909    1.4145    2.8079 H   0  0  0  0  0  0  0  0  0  0  0  0
   -9.8078    1.7438    1.6280 H   0  0  0  0  0  0  0  0  0  0  0  0
  -10.0228    1.1927   -0.7488 H   0  0  0  0  0  0  0  0  0  0  0  0
   -4.7838   -0.3541   -0.4506 H   0  0  0  0  0  0  0  0  0  0  0  0
   -7.9548   -0.5960   -4.9165 H   0  0  0  0  0  0  0  0  0  0  0  0
   -5.9921   -1.5021   -6.0644 H   0  0  0  0  0  0  0  0  0  0  0  0
   -3.8428   -1.7189   -4.9003 H   0  0  0  0  0  0  0  0  0  0  0  0
   -3.0791    1.0516   -1.9365 H   0  0  0  0  0  0  0  0  0  0  0  0
   -2.1231   -1.9757   -0.0332 H   0  0  0  0  0  0  0  0  0  0  0  0
   -0.3434   -2.0537    1.6463 H   0  0  0  0  0  0  0  0  0  0  0  0
    1.5833    0.9090    2.7329 H   0  0  0  0  0  0  0  0  0  0  0  0
    1.1904   -0.8006    3.1013 H   0  0  0  0  0  0  0  0  0  0  0  0
    2.5574   -1.4841    1.0627 H   0  0  0  0  0  0  0  0  0  0  0  0
    3.1183    0.2028    0.8941 H   0  0  0  0  0  0  0  0  0  0  0  0
    5.0457    0.0511    4.1341 H   0  0  0  0  0  0  0  0  0  0  0  0
    3.5288    0.9141    3.8518 H   0  0  0  0  0  0  0  0  0  0  0  0
    5.7105    2.0115    2.9811 H   0  0  0  0  0  0  0  0  0  0  0  0
    4.3447    1.9403    1.8256 H   0  0  0  0  0  0  0  0  0  0  0  0
    6.8917    2.3960    0.7159 H   0  0  0  0  0  0  0  0  0  0  0  0
    9.0909    3.0934   -0.1488 H   0  0  0  0  0  0  0  0  0  0  0  0
    9.4800    3.0876   -1.9095 H   0  0  0  0  0  0  0  0  0  0  0  0
    7.7729    3.3330   -1.3830 H   0  0  0  0  0  0  0  0  0  0  0  0
    7.3352   -3.0395   -2.1502 H   0  0  0  0  0  0  0  0  0  0  0  0
    8.6497   -3.2821   -0.9128 H   0  0  0  0  0  0  0  0  0  0  0  0
    9.0696   -2.9128   -2.6271 H   0  0  0  0  0  0  0  0  0  0  0  0
    6.5583   -2.5158    0.1303 H   0  0  0  0  0  0  0  0  0  0  0  0
    5.5433   -2.0356    2.9202 H   0  0  0  0  0  0  0  0  0  0  0  0
    4.5384   -2.5057    1.5318 H   0  0  0  0  0  0  0  0  0  0  0  0
    0.8186    1.9666    0.6116 H   0  0  0  0  0  0  0  0  0  0  0  0
   -0.9536    2.0390   -1.0914 H   0  0  0  0  0  0  0  0  0  0  0  0
  1  2  1  0
  2  3  1  0
  3  4  2  0
  4  5  1  0
  5  6  2  0
  6  7  1  0
  7  8  2  0
  8  9  1  0
  9 10  1  0
 10 11  2  0
 11 12  1  0
 12 13  2  0
 13 14  1  0
 14 15  2  0
 15 16  1  0
 16 17  2  0
 16 18  1  0
 18 19  1  0
 19 20  2  0
 20 21  1  0
 21 22  2  0
 22 23  1  0
 23 24  1  0
 24 25  1  0
 25 26  1  0
 26 27  1  0
 27 28  1  0
 28 29  2  0
 29 30  1  0
 30 31  1  0
 31 32  1  0
 30 33  2  0
 33 34  1  0
 34 35  1  0
 33 36  1  0
 36 37  2  0
 37 38  1  0
 22 39  1  0
 39 40  2  0
 11 41  1  0
 41 42  2  0
  8  3  1  0
 15 10  1  0
 40 19  1  0
 41  7  1  0
 38 25  1  0
 37 28  1  0
  1 43  1  0
  1 44  1  0
  1 45  1  0
  4 46  1  0
  5 47  1  0
  6 48  1  0
  9 49  1  0
 12 50  1  0
 13 51  1  0
 14 52  1  0
 18 53  1  0
 20 54  1  0
 21 55  1  0
 23 56  1  0
 23 57  1  0
 24 58  1  0
 24 59  1  0
 26 60  1  0
 26 61  1  0
 27 62  1  0
 27 63  1  0
 29 64  1  0
 32 65  1  0
 32 66  1  0
 32 67  1  0
 35 68  1  0
 35 69  1  0
 35 70  1  0
 36 71  1  0
 38 72  1  0
 38 73  1  0
 39 74  1  0
 40 75  1  0
M  END
$$$$
