
     RDKit          3D

 40 41  0  0  0  0  0  0  0  0999 V2000
   -0.5928   -1.4754    0.0874 C   0  0  2  0  0  0  0  0  0  0  0  0
   -1.1489   -2.9066    0.2046 C   0  0  0  0  0  0  0  0  0  0  0  0
   -1.9806   -3.2762   -1.0227 C   0  0  0  0  0  0  0  0  0  0  0  0
   -3.1549   -2.3081   -1.1821 C   0  0  0  0  0  0  0  0  0  0  0  0
   -2.7702   -0.8648   -0.9820 C   0  0  0  0  0  0  0  0  0  0  0  0
   -1.6647   -0.4742   -0.3156 C   0  0  0  0  0  0  0  0  0  0  0  0
   -1.4456    0.9673   -0.0446 C   0  0  0  0  0  0  0  0  0  0  0  0
   -0.5082    1.3276    0.7188 O   0  0  0  0  0  0  0  0  0  0  0  0
   -2.2832    1.9285   -0.6258 O   0  0  0  0  0  0  0  0  0  0  0  0
   -2.0810    3.3333   -0.4870 C   0  0  0  0  0  0  0  0  0  0  0  0
   -0.9235    3.7972   -1.3636 C   0  0  0  0  0  0  0  0  0  0  0  0
    0.7871   -1.3941   -1.0722 S   0  0  0  0  0  6  0  0  0  0  0  0
    1.6335   -2.6346   -0.9997 O   0  0  0  0  0  0  0  0  0  0  0  0
    0.2530   -1.2664   -2.4719 O   0  0  0  0  0  0  0  0  0  0  0  0
    1.7731   -0.0048   -0.7349 N   0  0  0  0  0  0  0  0  0  0  0  0
    2.4758    0.2159    0.5064 C   0  0  0  0  0  0  0  0  0  0  0  0
    3.0675    1.4723    0.7768 C   0  0  0  0  0  0  0  0  0  0  0  0
    2.9708    2.8129   -0.3597 Cl  0  0  0  0  0  0  0  0  0  0  0  0
    3.7461    1.6861    1.9829 C   0  0  0  0  0  0  0  0  0  0  0  0
    3.8481    0.6640    2.9269 C   0  0  0  0  0  0  0  0  0  0  0  0
    4.5067    0.8797    4.0923 F   0  0  0  0  0  0  0  0  0  0  0  0
    3.2730   -0.5799    2.6706 C   0  0  0  0  0  0  0  0  0  0  0  0
    2.5935   -0.8061    1.4713 C   0  0  0  0  0  0  0  0  0  0  0  0
   -0.2092   -1.1993    1.0919 H   0  0  0  0  0  0  0  0  0  0  0  0
   -1.7914   -2.9745    1.1105 H   0  0  0  0  0  0  0  0  0  0  0  0
   -0.3237   -3.6384    0.3361 H   0  0  0  0  0  0  0  0  0  0  0  0
   -2.3712   -4.3101   -0.9060 H   0  0  0  0  0  0  0  0  0  0  0  0
   -1.3490   -3.2593   -1.9358 H   0  0  0  0  0  0  0  0  0  0  0  0
   -3.9400   -2.5629   -0.4380 H   0  0  0  0  0  0  0  0  0  0  0  0
   -3.5938   -2.4311   -2.1951 H   0  0  0  0  0  0  0  0  0  0  0  0
   -3.5080   -0.1301   -1.2802 H   0  0  0  0  0  0  0  0  0  0  0  0
   -1.8892    3.5944    0.5765 H   0  0  0  0  0  0  0  0  0  0  0  0
   -3.0052    3.8574   -0.8094 H   0  0  0  0  0  0  0  0  0  0  0  0
    0.0222    3.3137   -1.0430 H   0  0  0  0  0  0  0  0  0  0  0  0
   -0.8081    4.8982   -1.2787 H   0  0  0  0  0  0  0  0  0  0  0  0
   -1.1235    3.5361   -2.4243 H   0  0  0  0  0  0  0  0  0  0  0  0
    1.7990    0.7210   -1.4834 H   0  0  0  0  0  0  0  0  0  0  0  0
    4.1952    2.6494    2.1897 H   0  0  0  0  0  0  0  0  0  0  0  0
    3.3538   -1.3737    3.4022 H   0  0  0  0  0  0  0  0  0  0  0  0
    2.1676   -1.7845    1.3110 H   0  0  0  0  0  0  0  0  0  0  0  0
  1  2  1  0
  2  3  1  0
  3  4  1  0
  4  5  1  0
  5  6  2  0
  6  7  1  0
  7  8  2  0
  7  9  1  0
  9 10  1  0
 10 11  1  0
  1 12  1  0
 12 13  2  0
 12 14  2  0
 12 15  1  0
 15 16  1  0
 16 17  2  0
 17 18  1  0
 17 19  1  0
 19 20  2  0
 20 21  1  0
 20 22  1  0
 22 23  2  0
  6  1  1  0
 23 16  1  0
  1 24  1  1
  2 25  1  0
  2 26  1  0
  3 27  1  0
  3 28  1  0
  4 29  1  0
  4 30  1  0
  5 31  1  0
 10 32  1  0
 10 33  1  0
 11 34  1  0
 11 35  1  0
 11 36  1  0
 15 37  1  0
 19 38  1  0
 22 39  1  0
 23 40  1  0
M  END
$$$$
