
     RDKit          3D

 38 40  0  0  0  0  0  0  0  0999 V2000
   -1.4352   -0.2477    0.0448 C   0  0  0  0  0  0  0  0  0  0  0  0
   -0.4857   -1.3248    0.0656 N   0  0  0  0  0  0  0  0  0  0  0  0
    0.9100   -1.1256    0.3517 C   0  0  0  0  0  0  0  0  0  0  0  0
    1.8482   -2.0639   -0.1066 C   0  0  0  0  0  0  0  0  0  0  0  0
    3.2088   -1.9000    0.1679 C   0  0  0  0  0  0  0  0  0  0  0  0
    3.6499   -0.8033    0.9177 C   0  0  0  0  0  0  0  0  0  0  0  0
    2.7189    0.1319    1.3880 C   0  0  0  0  0  0  0  0  0  0  0  0
    1.3576   -0.0295    1.1135 C   0  0  0  0  0  0  0  0  0  0  0  0
    5.3697   -0.5971    1.2417 S   0  0  0  0  0  6  0  0  0  0  0  0
    5.5700    0.3608    2.3840 O   0  0  0  0  0  0  0  0  0  0  0  0
    5.9573   -1.9255    1.6271 O   0  0  0  0  0  0  0  0  0  0  0  0
    6.1799   -0.0033   -0.1761 N   0  0  0  0  0  0  0  0  0  0  0  0
    5.6416    1.3054   -0.5403 C   0  0  0  0  0  0  0  0  0  0  0  0
   -2.7603   -0.4511    0.0676 C   0  0  0  0  0  0  0  0  0  0  0  0
   -3.5190   -1.7065    0.2038 C   0  0  0  0  0  0  0  0  0  0  0  0
   -3.0313   -2.8574    0.3519 O   0  0  0  0  0  0  0  0  0  0  0  0
   -4.9213   -1.4538    0.1976 N   0  0  0  0  0  0  0  0  0  0  0  0
   -5.0360   -0.0416    0.0748 C   0  0  0  0  0  0  0  0  0  0  0  0
   -6.2217    0.6906    0.0357 C   0  0  0  0  0  0  0  0  0  0  0  0
   -6.1378    2.0876   -0.0856 C   0  0  0  0  0  0  0  0  0  0  0  0
   -4.8817    2.7228   -0.1642 C   0  0  0  0  0  0  0  0  0  0  0  0
   -3.6976    1.9671   -0.1219 C   0  0  0  0  0  0  0  0  0  0  0  0
   -3.8020    0.5786   -0.0006 C   0  0  0  0  0  0  0  0  0  0  0  0
   -1.0707    0.7690   -0.0167 H   0  0  0  0  0  0  0  0  0  0  0  0
   -0.7803   -2.2675   -0.2711 H   0  0  0  0  0  0  0  0  0  0  0  0
    1.5251   -2.9194   -0.6865 H   0  0  0  0  0  0  0  0  0  0  0  0
    3.9185   -2.6274   -0.2057 H   0  0  0  0  0  0  0  0  0  0  0  0
    3.0437    0.9861    1.9681 H   0  0  0  0  0  0  0  0  0  0  0  0
    0.6594    0.6933    1.5134 H   0  0  0  0  0  0  0  0  0  0  0  0
    7.1859    0.1265    0.0786 H   0  0  0  0  0  0  0  0  0  0  0  0
    5.7524    2.0294    0.2963 H   0  0  0  0  0  0  0  0  0  0  0  0
    4.5715    1.2168   -0.8229 H   0  0  0  0  0  0  0  0  0  0  0  0
    6.1950    1.6977   -1.4193 H   0  0  0  0  0  0  0  0  0  0  0  0
   -5.6935   -2.1497    0.2956 H   0  0  0  0  0  0  0  0  0  0  0  0
   -7.1824    0.1961    0.0973 H   0  0  0  0  0  0  0  0  0  0  0  0
   -7.0431    2.6797   -0.1187 H   0  0  0  0  0  0  0  0  0  0  0  0
   -4.8287    3.7997   -0.2577 H   0  0  0  0  0  0  0  0  0  0  0  0
   -2.7348    2.4561   -0.1825 H   0  0  0  0  0  0  0  0  0  0  0  0
  1  2  1  0
  2  3  1  0
  3  4  2  0
  4  5  1  0
  5  6  2  0
  6  7  1  0
  7  8  2  0
  6  9  1  0
  9 10  2  0
  9 11  2  0
  9 12  1  0
 12 13  1  0
  1 14  2  0
 14 15  1  0
 15 16  2  0
 15 17  1  0
 17 18  1  0
 18 19  2  0
 19 20  1  0
 20 21  2  0
 21 22  1  0
 22 23  2  0
  8  3  1  0
 23 14  1  0
 23 18  1  0
  1 24  1  0
  2 25  1  0
  4 26  1  0
  5 27  1  0
  7 28  1  0
  8 29  1  0
 12 30  1  0
 13 31  1  0
 13 32  1  0
 13 33  1  0
 17 34  1  0
 19 35  1  0
 20 36  1  0
 21 37  1  0
 22 38  1  0
M  END
$$$$
