
     RDKit          3D

 56 59  0  0  0  0  0  0  0  0999 V2000
   -5.8327    1.2158   -1.7594 C   0  0  0  0  0  0  0  0  0  0  0  0
   -4.4777    1.8376   -2.0957 C   0  0  0  0  0  0  0  0  0  0  0  0
   -3.5744    1.9978   -0.8624 C   0  0  0  0  0  0  0  0  0  0  0  0
   -3.0998    0.6365   -0.2897 C   0  0  0  0  0  0  0  0  0  0  0  0
   -2.0411    0.7642    0.7781 N   0  0  0  0  0  4  0  0  0  0  0  0
   -2.6492    1.5596    1.9004 C   0  0  0  0  0  0  0  0  0  0  0  0
   -1.5348   -0.5412    1.2881 C   0  0  1  0  0  0  0  0  0  0  0  0
   -1.1882   -1.5125    0.1215 C   0  0  0  0  0  0  0  0  0  0  0  0
   -0.2249   -0.8805   -0.9367 C   0  0  1  0  0  0  0  0  0  0  0  0
   -0.2879    0.6846   -1.0214 C   0  0  0  0  0  0  0  0  0  0  0  0
   -0.7486    1.3460    0.3105 C   0  0  2  0  0  0  0  0  0  0  0  0
    0.3252    0.9677    1.3518 C   0  0  1  0  0  0  0  0  0  0  0  0
   -0.0795    0.9733    2.6973 O   0  0  0  0  0  0  0  0  0  0  0  0
   -0.1914   -0.2523    2.0052 C   0  0  1  0  0  0  0  0  0  0  0  0
    1.1098   -1.2945   -0.6358 O   0  0  0  0  0  0  0  0  0  0  0  0
    2.1716   -1.2178   -1.5457 C   0  0  0  0  0  0  0  0  0  0  0  0
    1.9654   -0.8825   -2.7444 O   0  0  0  0  0  0  0  0  0  0  0  0
    3.5637   -1.5657   -1.1003 C   0  0  2  0  0  0  0  0  0  0  0  0
    3.7375   -3.0914   -1.0283 C   0  0  0  0  0  0  0  0  0  0  0  0
    5.0300   -3.4069   -0.5882 O   0  0  0  0  0  0  0  0  0  0  0  0
    3.8858   -0.8629    0.2083 C   0  0  0  0  0  0  0  0  0  0  0  0
    3.3764   -1.3236    1.4397 C   0  0  0  0  0  0  0  0  0  0  0  0
    3.6428   -0.6273    2.6222 C   0  0  0  0  0  0  0  0  0  0  0  0
    4.4091    0.5392    2.5913 C   0  0  0  0  0  0  0  0  0  0  0  0
    4.9084    1.0140    1.3769 C   0  0  0  0  0  0  0  0  0  0  0  0
    4.6452    0.3217    0.1910 C   0  0  0  0  0  0  0  0  0  0  0  0
   -6.4837    1.2422   -2.6586 H   0  0  0  0  0  0  0  0  0  0  0  0
   -6.3308    1.7846   -0.9457 H   0  0  0  0  0  0  0  0  0  0  0  0
   -5.7130    0.1564   -1.4518 H   0  0  0  0  0  0  0  0  0  0  0  0
   -4.6552    2.8438   -2.5337 H   0  0  0  0  0  0  0  0  0  0  0  0
   -3.9667    1.2226   -2.8681 H   0  0  0  0  0  0  0  0  0  0  0  0
   -2.6956    2.5998   -1.1718 H   0  0  0  0  0  0  0  0  0  0  0  0
   -4.1216    2.5821   -0.0928 H   0  0  0  0  0  0  0  0  0  0  0  0
   -2.7808    0.0237   -1.1513 H   0  0  0  0  0  0  0  0  0  0  0  0
   -3.9766    0.0932    0.1279 H   0  0  0  0  0  0  0  0  0  0  0  0
   -2.3394    1.2312    2.9126 H   0  0  0  0  0  0  0  0  0  0  0  0
   -3.7556    1.4471    1.9464 H   0  0  0  0  0  0  0  0  0  0  0  0
   -2.4322    2.6452    1.7973 H   0  0  0  0  0  0  0  0  0  0  0  0
   -2.2587   -1.0260    1.9812 H   0  0  0  0  0  0  0  0  0  0  0  0
   -0.7230   -2.4321    0.5415 H   0  0  0  0  0  0  0  0  0  0  0  0
   -2.1173   -1.8793   -0.3627 H   0  0  0  0  0  0  0  0  0  0  0  0
   -0.5030   -1.2995   -1.9296 H   0  0  0  0  0  0  0  0  0  0  0  0
   -0.9452    0.9973   -1.8586 H   0  0  0  0  0  0  0  0  0  0  0  0
    0.7097    1.0922   -1.2948 H   0  0  0  0  0  0  0  0  0  0  0  0
   -0.7968    2.4504    0.1924 H   0  0  0  0  0  0  0  0  0  0  0  0
    1.4216    0.9977    1.1765 H   0  0  0  0  0  0  0  0  0  0  0  0
    0.5694   -1.0206    2.2554 H   0  0  0  0  0  0  0  0  0  0  0  0
    4.2732   -1.2063   -1.8804 H   0  0  0  0  0  0  0  0  0  0  0  0
    2.9826   -3.5458   -0.3490 H   0  0  0  0  0  0  0  0  0  0  0  0
    3.5818   -3.5211   -2.0438 H   0  0  0  0  0  0  0  0  0  0  0  0
    5.0768   -4.3977   -0.5581 H   0  0  0  0  0  0  0  0  0  0  0  0
    2.7589   -2.2097    1.4896 H   0  0  0  0  0  0  0  0  0  0  0  0
    3.2451   -0.9874    3.5622 H   0  0  0  0  0  0  0  0  0  0  0  0
    4.6103    1.0790    3.5075 H   0  0  0  0  0  0  0  0  0  0  0  0
    5.4952    1.9231    1.3530 H   0  0  0  0  0  0  0  0  0  0  0  0
    5.0297    0.7149   -0.7418 H   0  0  0  0  0  0  0  0  0  0  0  0
  1  2  1  0
  2  3  1  0
  3  4  1  0
  4  5  1  0
  5  6  1  0
  5  7  1  0
  7  8  1  0
  8  9  1  0
  9 10  1  0
 10 11  1  0
 11 12  1  0
 12 13  1  0
 13 14  1  0
  9 15  1  0
 15 16  1  0
 16 17  2  0
 16 18  1  0
 18 19  1  0
 19 20  1  0
 18 21  1  0
 21 22  2  0
 22 23  1  0
 23 24  2  0
 24 25  1  0
 25 26  2  0
 11  5  1  0
 14 12  1  0
 26 21  1  0
 14  7  1  0
  1 27  1  0
  1 28  1  0
  1 29  1  0
  2 30  1  0
  2 31  1  0
  3 32  1  0
  3 33  1  0
  4 34  1  0
  4 35  1  0
  6 36  1  0
  6 37  1  0
  6 38  1  0
  7 39  1  1
  8 40  1  0
  8 41  1  0
  9 42  1  6
 10 43  1  0
 10 44  1  0
 11 45  1  6
 12 46  1  1
 14 47  1  1
 18 48  1  6
 19 49  1  0
 19 50  1  0
 20 51  1  0
 22 52  1  0
 23 53  1  0
 24 54  1  0
 25 55  1  0
 26 56  1  0
M  CHG  1   5   1
M  END
$$$$
