
     RDKit          3D

 22 21  0  0  0  0  0  0  0  0999 V2000
   -3.6976    0.5456    0.5207 O   0  0  0  0  0  0  0  0  0  0  0  0
   -2.9745   -0.6250    0.2492 C   0  0  0  0  0  0  0  0  0  0  0  0
   -1.5781   -0.2949   -0.2895 C   0  0  0  0  0  0  0  0  0  0  0  0
   -0.7236    0.4366    0.7583 C   0  0  0  0  0  0  0  0  0  0  0  0
    0.6430    0.8726    0.2067 C   0  0  0  0  0  0  0  0  0  0  0  0
    1.5958   -0.3109   -0.0183 C   0  0  0  0  0  0  0  0  0  0  0  0
    2.9861    0.1744   -0.4374 C   0  0  0  0  0  0  0  0  0  0  0  0
    3.8288   -0.9192   -0.6792 O   0  0  0  0  0  0  0  0  0  0  0  0
   -3.9799    0.9151   -0.3565 H   0  0  0  0  0  0  0  0  0  0  0  0
   -3.5224   -1.2495   -0.4926 H   0  0  0  0  0  0  0  0  0  0  0  0
   -2.8849   -1.2186    1.1839 H   0  0  0  0  0  0  0  0  0  0  0  0
   -1.0863   -1.2487   -0.5741 H   0  0  0  0  0  0  0  0  0  0  0  0
   -1.6768    0.3308   -1.2034 H   0  0  0  0  0  0  0  0  0  0  0  0
   -1.2631    1.3504    1.0903 H   0  0  0  0  0  0  0  0  0  0  0  0
   -0.5806   -0.2118    1.6505 H   0  0  0  0  0  0  0  0  0  0  0  0
    1.1032    1.5674    0.9434 H   0  0  0  0  0  0  0  0  0  0  0  0
    0.5043    1.4338   -0.7435 H   0  0  0  0  0  0  0  0  0  0  0  0
    1.1975   -0.9718   -0.8170 H   0  0  0  0  0  0  0  0  0  0  0  0
    1.6852   -0.9017    0.9195 H   0  0  0  0  0  0  0  0  0  0  0  0
    2.9047    0.7688   -1.3725 H   0  0  0  0  0  0  0  0  0  0  0  0
    3.4225    0.8300    0.3508 H   0  0  0  0  0  0  0  0  0  0  0  0
    4.0965   -1.2734    0.2089 H   0  0  0  0  0  0  0  0  0  0  0  0
  1  2  1  0
  2  3  1  0
  3  4  1  0
  4  5  1  0
  5  6  1  0
  6  7  1  0
  7  8  1  0
  1  9  1  0
  2 10  1  0
  2 11  1  0
  3 12  1  0
  3 13  1  0
  4 14  1  0
  4 15  1  0
  5 16  1  0
  5 17  1  0
  6 18  1  0
  6 19  1  0
  7 20  1  0
  7 21  1  0
  8 22  1  0
M  END
$$$$
