
     RDKit          3D

 41 44  0  0  0  0  0  0  0  0999 V2000
   -3.9309   -0.7499    0.9616 C   0  0  0  0  0  0  0  0  0  0  0  0
   -2.7922   -0.2879    0.1690 N   0  0  0  0  0  0  0  0  0  0  0  0
   -1.5398   -0.8093    0.1543 C   0  0  0  0  0  0  0  0  0  0  0  0
   -0.7183   -0.0909   -0.6914 C   0  0  0  0  0  0  0  0  0  0  0  0
   -1.4858    0.9435   -1.1875 C   0  0  0  0  0  0  0  0  0  0  0  0
   -1.1770    1.9918   -2.0549 C   0  0  0  0  0  0  0  0  0  0  0  0
   -2.1932    2.9149   -2.3567 C   0  0  0  0  0  0  0  0  0  0  0  0
   -3.4786    2.7760   -1.7905 C   0  0  0  0  0  0  0  0  0  0  0  0
   -3.7638    1.7109   -0.9174 C   0  0  0  0  0  0  0  0  0  0  0  0
   -2.7407    0.8001   -0.6348 C   0  0  0  0  0  0  0  0  0  0  0  0
    0.6764   -0.4695   -0.9478 C   0  0  0  0  0  0  0  0  0  0  0  0
    1.3225    0.0794   -1.8799 O   0  0  0  0  0  0  0  0  0  0  0  0
    1.2524   -1.6545   -0.1946 C   0  0  0  0  0  0  0  0  0  0  0  0
    2.7733   -1.5138    0.0741 C   0  0  0  0  0  0  0  0  0  0  0  0
    3.0823   -0.6400    1.2146 N   0  0  0  0  0  0  0  0  0  0  0  0
    3.2680   -1.0515    2.4821 C   0  0  0  0  0  0  0  0  0  0  0  0
    3.5341    0.0501    3.2611 C   0  0  0  0  0  0  0  0  0  0  0  0
    3.5277    1.1573    2.4935 N   0  0  0  0  0  0  0  0  0  0  0  0
    3.2613    0.7024    1.2504 C   0  0  0  0  0  0  0  0  0  0  0  0
    3.1493    1.6224    0.0765 C   0  0  0  0  0  0  0  0  0  0  0  0
    0.4520   -1.9596    1.1067 C   0  0  0  0  0  0  0  0  0  0  0  0
   -1.0682   -2.0454    0.8664 C   0  0  0  0  0  0  0  0  0  0  0  0
   -3.9533   -0.2090    1.9305 H   0  0  0  0  0  0  0  0  0  0  0  0
   -3.8570   -1.8410    1.1507 H   0  0  0  0  0  0  0  0  0  0  0  0
   -4.8804   -0.5706    0.4160 H   0  0  0  0  0  0  0  0  0  0  0  0
   -0.1889    2.1037   -2.4800 H   0  0  0  0  0  0  0  0  0  0  0  0
   -1.9869    3.7409   -3.0248 H   0  0  0  0  0  0  0  0  0  0  0  0
   -4.2505    3.4963   -2.0282 H   0  0  0  0  0  0  0  0  0  0  0  0
   -4.7482    1.6121   -0.4805 H   0  0  0  0  0  0  0  0  0  0  0  0
    1.1261   -2.5324   -0.8663 H   0  0  0  0  0  0  0  0  0  0  0  0
    3.1816   -2.5277    0.2815 H   0  0  0  0  0  0  0  0  0  0  0  0
    3.3050   -1.1620   -0.8346 H   0  0  0  0  0  0  0  0  0  0  0  0
    3.2037   -2.0781    2.8193 H   0  0  0  0  0  0  0  0  0  0  0  0
    3.7200    0.0479    4.3266 H   0  0  0  0  0  0  0  0  0  0  0  0
    3.7101    2.5588    0.2792 H   0  0  0  0  0  0  0  0  0  0  0  0
    2.0844    1.8820   -0.0918 H   0  0  0  0  0  0  0  0  0  0  0  0
    3.5799    1.1556   -0.8320 H   0  0  0  0  0  0  0  0  0  0  0  0
    0.8054   -2.9176    1.5457 H   0  0  0  0  0  0  0  0  0  0  0  0
    0.6232   -1.1554    1.8543 H   0  0  0  0  0  0  0  0  0  0  0  0
   -1.3023   -2.9357    0.2448 H   0  0  0  0  0  0  0  0  0  0  0  0
   -1.5828   -2.1442    1.8455 H   0  0  0  0  0  0  0  0  0  0  0  0
  1  2  1  0
  2  3  1  0
  3  4  2  0
  4  5  1  0
  5  6  2  0
  6  7  1  0
  7  8  2  0
  8  9  1  0
  9 10  2  0
  4 11  1  0
 11 12  2  0
 11 13  1  0
 13 14  1  0
 14 15  1  0
 15 16  1  0
 16 17  2  0
 17 18  1  0
 18 19  2  0
 19 20  1  0
 13 21  1  0
 21 22  1  0
 10  2  1  0
 19 15  1  0
 22  3  1  0
 10  5  1  0
  1 23  1  0
  1 24  1  0
  1 25  1  0
  6 26  1  0
  7 27  1  0
  8 28  1  0
  9 29  1  0
 13 30  1  0
 14 31  1  0
 14 32  1  0
 16 33  1  0
 17 34  1  0
 20 35  1  0
 20 36  1  0
 20 37  1  0
 21 38  1  0
 21 39  1  0
 22 40  1  0
 22 41  1  0
M  END
$$$$
