
     RDKit          3D

 44 47  0  0  0  0  0  0  0  0999 V2000
    8.2341    2.4908   -0.8869 F   0  0  0  0  0  0  0  0  0  0  0  0
    8.0318    1.2176   -1.3902 C   0  0  0  0  0  0  0  0  0  0  0  0
    8.0769    1.2698   -2.7713 F   0  0  0  0  0  0  0  0  0  0  0  0
    9.0416    0.3907   -0.9325 F   0  0  0  0  0  0  0  0  0  0  0  0
    6.7011    0.6816   -0.9500 C   0  0  0  0  0  0  0  0  0  0  0  0
    6.3026   -0.6120   -1.3142 C   0  0  0  0  0  0  0  0  0  0  0  0
    5.0582   -1.0898   -0.8998 C   0  0  0  0  0  0  0  0  0  0  0  0
    4.2221   -0.2827   -0.1170 C   0  0  0  0  0  0  0  0  0  0  0  0
    2.8617   -0.7695    0.3023 C   0  0  0  0  0  0  0  0  0  0  0  0
    1.8601   -0.4353   -0.7098 N   0  0  0  0  0  0  0  0  0  0  0  0
    0.4803   -0.7911   -0.5457 C   0  0  0  0  0  0  0  0  0  0  0  0
    0.0688   -1.4554    0.5703 N   0  0  0  0  0  0  0  0  0  0  0  0
   -1.2299   -1.8090    0.7610 C   0  0  0  0  0  0  0  0  0  0  0  0
   -2.1955   -1.4982   -0.2074 C   0  0  0  0  0  0  0  0  0  0  0  0
   -3.6406   -1.8491    0.0155 C   0  0  0  0  0  0  0  0  0  0  0  0
   -4.3077   -0.7896    0.8392 C   0  0  0  0  0  0  0  0  0  0  0  0
   -4.3420   -0.7208    2.2314 C   0  0  0  0  0  0  0  0  0  0  0  0
   -4.9506    0.4188    2.6353 N   0  0  0  0  0  0  0  0  0  0  0  0
   -5.2851    1.0676    1.5087 C   0  0  0  0  0  0  0  0  0  0  0  0
   -5.8983    2.2751    1.4342 N   0  0  0  0  0  0  0  0  0  0  0  0
   -6.1532    2.8156    0.2046 C   0  0  0  0  0  0  0  0  0  0  0  0
   -5.7785    2.1288   -0.9740 C   0  0  0  0  0  0  0  0  0  0  0  0
   -6.1066    2.8328   -2.5461 Cl  0  0  0  0  0  0  0  0  0  0  0  0
   -5.1398    0.8789   -0.8810 C   0  0  0  0  0  0  0  0  0  0  0  0
   -4.9079    0.3720    0.3946 C   0  0  0  0  0  0  0  0  0  0  0  0
   -1.7948   -0.8050   -1.3579 C   0  0  0  0  0  0  0  0  0  0  0  0
   -0.4553   -0.4535   -1.5318 C   0  0  0  0  0  0  0  0  0  0  0  0
    4.6492    1.0118    0.2109 C   0  0  0  0  0  0  0  0  0  0  0  0
    5.8649    1.4566   -0.2049 N   0  0  0  0  0  0  0  0  0  0  0  0
    6.9475   -1.2408   -1.9157 H   0  0  0  0  0  0  0  0  0  0  0  0
    4.7464   -2.0857   -1.1894 H   0  0  0  0  0  0  0  0  0  0  0  0
    2.8847   -1.8713    0.4502 H   0  0  0  0  0  0  0  0  0  0  0  0
    2.5771   -0.3051    1.2717 H   0  0  0  0  0  0  0  0  0  0  0  0
    2.1494    0.0754   -1.5760 H   0  0  0  0  0  0  0  0  0  0  0  0
   -1.5102   -2.3289    1.6681 H   0  0  0  0  0  0  0  0  0  0  0  0
   -4.1694   -1.9602   -0.9556 H   0  0  0  0  0  0  0  0  0  0  0  0
   -3.7166   -2.8269    0.5387 H   0  0  0  0  0  0  0  0  0  0  0  0
   -3.9294   -1.4571    2.9088 H   0  0  0  0  0  0  0  0  0  0  0  0
   -5.1092    0.7338    3.6180 H   0  0  0  0  0  0  0  0  0  0  0  0
   -6.6433    3.7778    0.1378 H   0  0  0  0  0  0  0  0  0  0  0  0
   -4.8442    0.3335   -1.7673 H   0  0  0  0  0  0  0  0  0  0  0  0
   -2.5166   -0.5378   -2.1191 H   0  0  0  0  0  0  0  0  0  0  0  0
   -0.1501    0.0787   -2.4239 H   0  0  0  0  0  0  0  0  0  0  0  0
    4.0160    1.6675    0.7947 H   0  0  0  0  0  0  0  0  0  0  0  0
  1  2  1  0
  2  3  1  0
  2  4  1  0
  2  5  1  0
  5  6  2  0
  6  7  1  0
  7  8  2  0
  8  9  1  0
  9 10  1  0
 10 11  1  0
 11 12  2  0
 12 13  1  0
 13 14  2  0
 14 15  1  0
 15 16  1  0
 16 17  2  0
 17 18  1  0
 18 19  1  0
 19 20  2  0
 20 21  1  0
 21 22  2  0
 22 23  1  0
 22 24  1  0
 24 25  2  0
 14 26  1  0
 26 27  2  0
  8 28  1  0
 28 29  2  0
 29  5  1  0
 27 11  1  0
 25 16  1  0
 25 19  1  0
  6 30  1  0
  7 31  1  0
  9 32  1  0
  9 33  1  0
 10 34  1  0
 13 35  1  0
 15 36  1  0
 15 37  1  0
 17 38  1  0
 18 39  1  0
 21 40  1  0
 24 41  1  0
 26 42  1  0
 27 43  1  0
 28 44  1  0
M  END
$$$$
