
     RDKit          3D

 24 24  0  0  0  0  0  0  0  0999 V2000
   -1.9237    0.3556    0.3381 C   0  0  1  0  0  0  0  0  0  0  0  0
   -1.9059   -0.8475    1.1748 N   0  0  0  0  0  0  0  0  0  0  0  0
   -1.0208    0.2073   -0.9050 C   0  0  0  0  0  0  0  0  0  0  0  0
    0.4318    0.0656   -0.5275 C   0  0  0  0  0  0  0  0  0  0  0  0
    1.1845    1.1977   -0.1837 C   0  0  0  0  0  0  0  0  0  0  0  0
    2.5262    1.0741    0.1946 C   0  0  0  0  0  0  0  0  0  0  0  0
    3.5742    2.8477    0.6915 I   0  0  0  0  0  0  0  0  0  0  0  0
    3.1281   -0.2004    0.2374 C   0  0  0  0  0  0  0  0  0  0  0  0
    4.4631   -0.3663    0.6094 O   0  0  0  0  0  0  0  0  0  0  0  0
    2.3718   -1.3334   -0.0992 C   0  0  0  0  0  0  0  0  0  0  0  0
    3.2296   -3.2654   -0.0393 I   0  0  0  0  0  0  0  0  0  0  0  0
    1.0324   -1.2004   -0.4765 C   0  0  0  0  0  0  0  0  0  0  0  0
   -3.3348    0.6435   -0.0849 C   0  0  0  0  0  0  0  0  0  0  0  0
   -4.0835   -0.3366   -0.7306 O   0  0  0  0  0  0  0  0  0  0  0  0
   -3.8381    1.7796    0.1260 O   0  0  0  0  0  0  0  0  0  0  0  0
   -1.5593    1.2154    0.9455 H   0  0  0  0  0  0  0  0  0  0  0  0
   -2.0376   -1.6963    0.5771 H   0  0  0  0  0  0  0  0  0  0  0  0
   -0.9706   -0.9279    1.6356 H   0  0  0  0  0  0  0  0  0  0  0  0
   -1.1345    1.1060   -1.5513 H   0  0  0  0  0  0  0  0  0  0  0  0
   -1.3480   -0.6652   -1.5132 H   0  0  0  0  0  0  0  0  0  0  0  0
    0.7254    2.1784   -0.2082 H   0  0  0  0  0  0  0  0  0  0  0  0
    5.0648    0.4057    0.8635 H   0  0  0  0  0  0  0  0  0  0  0  0
    0.4589   -2.0847   -0.7252 H   0  0  0  0  0  0  0  0  0  0  0  0
   -5.0340   -0.1523   -1.0284 H   0  0  0  0  0  0  0  0  0  0  0  0
  1  2  1  0
  1  3  1  0
  3  4  1  0
  4  5  2  0
  5  6  1  0
  6  7  1  0
  6  8  2  0
  8  9  1  0
  8 10  1  0
 10 11  1  0
 10 12  2  0
  1 13  1  0
 13 14  1  0
 13 15  2  0
 12  4  1  0
  1 16  1  1
  2 17  1  0
  2 18  1  0
  3 19  1  0
  3 20  1  0
  5 21  1  0
  9 22  1  0
 12 23  1  0
 14 24  1  0
M  END
$$$$
