
     RDKit          3D

 40 41  0  0  0  0  0  0  0  0999 V2000
   -5.6832    1.2921    1.0126 C   0  0  0  0  0  0  0  0  0  0  0  0
   -4.5698    0.3427    0.8983 N   0  0  0  0  0  0  0  0  0  0  0  0
   -3.2807    0.7983    0.3528 C   0  0  0  0  0  0  0  0  0  0  0  0
   -3.0583    0.2306   -1.0530 C   0  0  0  0  0  0  0  0  0  0  0  0
   -1.9486    0.8692   -1.6857 O   0  0  0  0  0  0  0  0  0  0  0  0
   -0.5946    0.6467   -1.3866 C   0  0  0  0  0  0  0  0  0  0  0  0
    0.3584    1.4721   -1.9926 C   0  0  0  0  0  0  0  0  0  0  0  0
    1.7205    1.2989   -1.7325 C   0  0  0  0  0  0  0  0  0  0  0  0
    2.1568    0.2885   -0.8579 C   0  0  0  0  0  0  0  0  0  0  0  0
    1.1993   -0.5451   -0.2538 C   0  0  0  0  0  0  0  0  0  0  0  0
   -0.1626   -0.3708   -0.5163 C   0  0  0  0  0  0  0  0  0  0  0  0
    3.6039    0.1032   -0.5785 C   0  0  0  0  0  0  0  0  0  0  0  0
    4.0493   -0.1884    0.7243 C   0  0  0  0  0  0  0  0  0  0  0  0
    5.4117   -0.3622    0.9863 C   0  0  0  0  0  0  0  0  0  0  0  0
    6.3466   -0.2483   -0.0486 C   0  0  0  0  0  0  0  0  0  0  0  0
    5.9143    0.0408   -1.3478 C   0  0  0  0  0  0  0  0  0  0  0  0
    4.5525    0.2161   -1.6121 C   0  0  0  0  0  0  0  0  0  0  0  0
    7.7489   -0.4280    0.2223 C   0  0  0  0  0  0  0  0  0  0  0  0
    8.8763   -0.5724    0.4401 N   0  0  0  0  0  0  0  0  0  0  0  0
   -4.7914   -1.0296    1.2978 C   0  0  0  0  0  0  0  0  0  0  0  0
   -5.9639   -1.4240    1.5454 O   0  0  0  0  0  0  0  0  0  0  0  0
   -3.7092   -1.9605    1.4299 N   0  0  0  0  0  0  0  0  0  0  0  0
   -3.9600   -3.2572    1.7305 O   0  0  0  0  0  0  0  0  0  0  0  0
   -6.0052    1.3647    2.0729 H   0  0  0  0  0  0  0  0  0  0  0  0
   -5.4010    2.3078    0.6645 H   0  0  0  0  0  0  0  0  0  0  0  0
   -6.5375    0.9451    0.3935 H   0  0  0  0  0  0  0  0  0  0  0  0
   -3.2545    1.9073    0.2848 H   0  0  0  0  0  0  0  0  0  0  0  0
   -2.4526    0.5220    1.0361 H   0  0  0  0  0  0  0  0  0  0  0  0
   -2.9210   -0.8706   -1.0352 H   0  0  0  0  0  0  0  0  0  0  0  0
   -3.9627    0.4388   -1.6633 H   0  0  0  0  0  0  0  0  0  0  0  0
    0.0402    2.2587   -2.6651 H   0  0  0  0  0  0  0  0  0  0  0  0
    2.4310    1.9677   -2.2020 H   0  0  0  0  0  0  0  0  0  0  0  0
    1.5048   -1.3465    0.4073 H   0  0  0  0  0  0  0  0  0  0  0  0
   -0.8648   -1.0407   -0.0449 H   0  0  0  0  0  0  0  0  0  0  0  0
    3.3460   -0.2644    1.5441 H   0  0  0  0  0  0  0  0  0  0  0  0
    5.7357   -0.5821    1.9966 H   0  0  0  0  0  0  0  0  0  0  0  0
    6.6291    0.1275   -2.1573 H   0  0  0  0  0  0  0  0  0  0  0  0
    4.2401    0.4221   -2.6281 H   0  0  0  0  0  0  0  0  0  0  0  0
   -2.7162   -1.6579    1.3483 H   0  0  0  0  0  0  0  0  0  0  0  0
   -4.0276   -3.7125    0.8525 H   0  0  0  0  0  0  0  0  0  0  0  0
  1  2  1  0
  2  3  1  0
  3  4  1  0
  4  5  1  0
  5  6  1  0
  6  7  2  0
  7  8  1  0
  8  9  2  0
  9 10  1  0
 10 11  2  0
  9 12  1  0
 12 13  2  0
 13 14  1  0
 14 15  2  0
 15 16  1  0
 16 17  2  0
 15 18  1  0
 18 19  3  0
  2 20  1  0
 20 21  2  0
 20 22  1  0
 22 23  1  0
 11  6  1  0
 17 12  1  0
  1 24  1  0
  1 25  1  0
  1 26  1  0
  3 27  1  0
  3 28  1  0
  4 29  1  0
  4 30  1  0
  7 31  1  0
  8 32  1  0
 10 33  1  0
 11 34  1  0
 13 35  1  0
 14 36  1  0
 16 37  1  0
 17 38  1  0
 22 39  1  0
 23 40  1  0
M  END
$$$$
