
     RDKit          3D

 45 48  0  0  0  0  0  0  0  0999 V2000
   -1.0705   -4.8991   -0.0065 C   0  0  0  0  0  0  0  0  0  0  0  0
   -1.8693   -4.1818    1.0756 C   0  0  0  0  0  0  0  0  0  0  0  0
   -1.7658   -2.6964    0.9128 C   0  0  0  0  0  0  0  0  0  0  0  0
   -2.6623   -1.9472    0.2208 N   0  0  0  0  0  0  0  0  0  0  0  0
   -2.2315   -0.6893    0.2198 N   0  0  0  0  0  0  0  0  0  0  0  0
   -1.0749   -0.6367    0.9002 C   0  0  0  0  0  0  0  0  0  0  0  0
   -0.7380   -1.8726    1.3433 C   0  0  0  0  0  0  0  0  0  0  0  0
    0.4489   -2.0562    2.0430 C   0  0  0  0  0  0  0  0  0  0  0  0
    0.7989   -3.1942    2.4547 O   0  0  0  0  0  0  0  0  0  0  0  0
    1.2360   -0.9598    2.2680 N   0  0  0  0  0  0  0  0  0  0  0  0
    0.8603    0.2895    1.8270 C   0  0  0  0  0  0  0  0  0  0  0  0
    1.7605    1.4707    2.0272 C   0  0  0  0  0  0  0  0  0  0  0  0
    2.5666    1.7095    0.7808 C   0  0  0  0  0  0  0  0  0  0  0  0
    3.8073    1.0759    0.6074 C   0  0  0  0  0  0  0  0  0  0  0  0
    4.5373    1.2544   -0.5734 C   0  0  0  0  0  0  0  0  0  0  0  0
    5.7695    0.6162   -0.7109 O   0  0  0  0  0  0  0  0  0  0  0  0
    4.0210    2.0656   -1.5987 C   0  0  0  0  0  0  0  0  0  0  0  0
    4.7429    2.2472   -2.7773 O   0  0  0  0  0  0  0  0  0  0  0  0
    2.7760    2.6878   -1.4323 C   0  0  0  0  0  0  0  0  0  0  0  0
    2.0509    2.5078   -0.2520 C   0  0  0  0  0  0  0  0  0  0  0  0
   -0.3044    0.4523    1.1283 N   0  0  0  0  0  0  0  0  0  0  0  0
   -2.9137    0.3997   -0.4178 C   0  0  0  0  0  0  0  0  0  0  0  0
   -2.3000    1.1154   -1.4674 C   0  0  0  0  0  0  0  0  0  0  0  0
   -0.7146    0.6644   -2.0845 Cl  0  0  0  0  0  0  0  0  0  0  0  0
   -2.9734    2.1814   -2.0738 C   0  0  0  0  0  0  0  0  0  0  0  0
   -4.2554    2.5388   -1.6489 C   0  0  0  0  0  0  0  0  0  0  0  0
   -5.0923    3.8766   -2.4151 Cl  0  0  0  0  0  0  0  0  0  0  0  0
   -4.8727    1.8275   -0.6170 C   0  0  0  0  0  0  0  0  0  0  0  0
   -4.2104    0.7596   -0.0019 C   0  0  0  0  0  0  0  0  0  0  0  0
   -5.0105   -0.0854    1.3171 Cl  0  0  0  0  0  0  0  0  0  0  0  0
    0.0041   -4.6253    0.0598 H   0  0  0  0  0  0  0  0  0  0  0  0
   -1.4558   -4.6280   -1.0128 H   0  0  0  0  0  0  0  0  0  0  0  0
   -1.1661   -5.9971    0.1274 H   0  0  0  0  0  0  0  0  0  0  0  0
   -1.4956   -4.4800    2.0779 H   0  0  0  0  0  0  0  0  0  0  0  0
   -2.9358   -4.4858    1.0051 H   0  0  0  0  0  0  0  0  0  0  0  0
    2.1399   -1.0791    2.7796 H   0  0  0  0  0  0  0  0  0  0  0  0
    2.4323    1.3024    2.8969 H   0  0  0  0  0  0  0  0  0  0  0  0
    1.1468    2.3670    2.2642 H   0  0  0  0  0  0  0  0  0  0  0  0
    4.2057    0.4388    1.3878 H   0  0  0  0  0  0  0  0  0  0  0  0
    6.3351    0.7124   -1.5457 H   0  0  0  0  0  0  0  0  0  0  0  0
    4.3911    2.8259   -3.5311 H   0  0  0  0  0  0  0  0  0  0  0  0
    2.3668    3.3075   -2.2200 H   0  0  0  0  0  0  0  0  0  0  0  0
    1.0840    2.9844   -0.1457 H   0  0  0  0  0  0  0  0  0  0  0  0
   -2.5030    2.7276   -2.8819 H   0  0  0  0  0  0  0  0  0  0  0  0
   -5.8661    2.1077   -0.2896 H   0  0  0  0  0  0  0  0  0  0  0  0
  1  2  1  0
  2  3  1  0
  3  4  2  0
  4  5  1  0
  5  6  1  0
  6  7  2  0
  7  8  1  0
  8  9  2  0
  8 10  1  0
 10 11  1  0
 11 12  1  0
 12 13  1  0
 13 14  2  0
 14 15  1  0
 15 16  1  0
 15 17  2  0
 17 18  1  0
 17 19  1  0
 19 20  2  0
 11 21  2  0
  5 22  1  0
 22 23  2  0
 23 24  1  0
 23 25  1  0
 25 26  2  0
 26 27  1  0
 26 28  1  0
 28 29  2  0
 29 30  1  0
  7  3  1  0
 20 13  1  0
 29 22  1  0
 21  6  1  0
  1 31  1  0
  1 32  1  0
  1 33  1  0
  2 34  1  0
  2 35  1  0
 10 36  1  0
 12 37  1  0
 12 38  1  0
 14 39  1  0
 16 40  1  0
 18 41  1  0
 19 42  1  0
 20 43  1  0
 25 44  1  0
 28 45  1  0
M  END
$$$$
