
     RDKit          3D

 66 70  0  0  0  0  0  0  0  0999 V2000
   10.1962    0.8165    0.7939 C   0  0  0  0  0  0  0  0  0  0  0  0
    9.5268   -0.4098    1.8974 S   0  0  0  0  0  6  0  0  0  0  0  0
   10.3863   -0.4773    3.1279 O   0  0  0  0  0  0  0  0  0  0  0  0
    9.5386   -1.7505    1.2184 O   0  0  0  0  0  0  0  0  0  0  0  0
    7.8561    0.0121    2.3838 C   0  0  0  0  0  0  0  0  0  0  0  0
    6.9360    0.2464    1.1801 C   0  0  0  0  0  0  0  0  0  0  0  0
    6.8562   -0.9482    0.3237 N   0  0  0  0  0  0  0  0  0  0  0  0
    5.8253   -1.8999    0.7679 C   0  0  0  0  0  0  0  0  0  0  0  0
    4.4415   -1.4164    0.4420 C   0  0  0  0  0  0  0  0  0  0  0  0
    3.4920   -1.0058    1.3550 C   0  0  0  0  0  0  0  0  0  0  0  0
    2.3921   -0.6379    0.6104 C   0  0  0  0  0  0  0  0  0  0  0  0
    2.7406   -0.8477   -0.7165 C   0  0  0  0  0  0  0  0  0  0  0  0
    3.9697   -1.3116   -0.7779 O   0  0  0  0  0  0  0  0  0  0  0  0
    1.9013   -0.6008   -1.9135 C   0  0  0  0  0  0  0  0  0  0  0  0
    0.5750   -0.1404   -1.8011 C   0  0  0  0  0  0  0  0  0  0  0  0
   -0.2028    0.0929   -2.9527 C   0  0  0  0  0  0  0  0  0  0  0  0
    0.3528   -0.1685   -4.2245 C   0  0  0  0  0  0  0  0  0  0  0  0
    1.6680   -0.6253   -4.3353 C   0  0  0  0  0  0  0  0  0  0  0  0
    2.4376   -0.8362   -3.1903 C   0  0  0  0  0  0  0  0  0  0  0  0
   -0.3929    0.0160   -5.3440 N   0  0  0  0  0  0  0  0  0  0  0  0
   -1.6744    0.4518   -5.2659 C   0  0  0  0  0  0  0  0  0  0  0  0
   -2.2300    0.7201   -4.0577 N   0  0  0  0  0  0  0  0  0  0  0  0
   -1.5371    0.5535   -2.8978 C   0  0  0  0  0  0  0  0  0  0  0  0
   -2.1605    0.9072   -1.6509 N   0  0  0  0  0  0  0  0  0  0  0  0
   -3.5713    0.7714   -1.4058 C   0  0  0  0  0  0  0  0  0  0  0  0
   -4.3333   -0.2197   -2.0479 C   0  0  0  0  0  0  0  0  0  0  0  0
   -5.7004   -0.3487   -1.7795 C   0  0  0  0  0  0  0  0  0  0  0  0
   -6.6208   -1.5998   -2.6014 Cl  0  0  0  0  0  0  0  0  0  0  0  0
   -6.3257    0.5003   -0.8537 C   0  0  0  0  0  0  0  0  0  0  0  0
   -7.7002    0.3354   -0.6110 O   0  0  0  0  0  0  0  0  0  0  0  0
   -8.4537    1.0287    0.3845 C   0  0  0  0  0  0  0  0  0  0  0  0
   -8.0621    0.5732    1.7653 C   0  0  0  0  0  0  0  0  0  0  0  0
   -7.7324    1.5092    2.7601 C   0  0  0  0  0  0  0  0  0  0  0  0
   -7.3781    1.0784    4.0429 C   0  0  0  0  0  0  0  0  0  0  0  0
   -7.0538    1.9858    4.9967 F   0  0  0  0  0  0  0  0  0  0  0  0
   -7.3597   -0.2868    4.3430 C   0  0  0  0  0  0  0  0  0  0  0  0
   -7.6988   -1.2228    3.3622 C   0  0  0  0  0  0  0  0  0  0  0  0
   -8.0531   -0.7961    2.0788 C   0  0  0  0  0  0  0  0  0  0  0  0
   -5.5581    1.4835   -0.2007 C   0  0  0  0  0  0  0  0  0  0  0  0
   -4.1931    1.6095   -0.4705 C   0  0  0  0  0  0  0  0  0  0  0  0
    9.6684    0.7724   -0.1809 H   0  0  0  0  0  0  0  0  0  0  0  0
   11.2757    0.6184    0.6312 H   0  0  0  0  0  0  0  0  0  0  0  0
   10.0701    1.8251    1.2386 H   0  0  0  0  0  0  0  0  0  0  0  0
    7.8929    0.9411    2.9913 H   0  0  0  0  0  0  0  0  0  0  0  0
    7.4522   -0.7956    3.0282 H   0  0  0  0  0  0  0  0  0  0  0  0
    7.3357    1.0990    0.5890 H   0  0  0  0  0  0  0  0  0  0  0  0
    5.9313    0.5593    1.5395 H   0  0  0  0  0  0  0  0  0  0  0  0
    6.6462   -0.6489   -0.6579 H   0  0  0  0  0  0  0  0  0  0  0  0
    5.9871   -2.8650    0.2433 H   0  0  0  0  0  0  0  0  0  0  0  0
    5.9182   -2.1067    1.8556 H   0  0  0  0  0  0  0  0  0  0  0  0
    3.5902   -0.9716    2.4320 H   0  0  0  0  0  0  0  0  0  0  0  0
    1.4594   -0.2592    1.0040 H   0  0  0  0  0  0  0  0  0  0  0  0
    0.1496    0.0155   -0.8221 H   0  0  0  0  0  0  0  0  0  0  0  0
    2.0965   -0.8218   -5.3106 H   0  0  0  0  0  0  0  0  0  0  0  0
    3.4545   -1.1909   -3.3046 H   0  0  0  0  0  0  0  0  0  0  0  0
   -2.2524    0.5927   -6.1686 H   0  0  0  0  0  0  0  0  0  0  0  0
   -1.5869    1.4073   -0.9351 H   0  0  0  0  0  0  0  0  0  0  0  0
   -3.8663   -0.9064   -2.7418 H   0  0  0  0  0  0  0  0  0  0  0  0
   -8.3331    2.1262    0.2560 H   0  0  0  0  0  0  0  0  0  0  0  0
   -9.5292    0.7993    0.2337 H   0  0  0  0  0  0  0  0  0  0  0  0
   -7.7454    2.5699    2.5421 H   0  0  0  0  0  0  0  0  0  0  0  0
   -7.0859   -0.6201    5.3357 H   0  0  0  0  0  0  0  0  0  0  0  0
   -7.6884   -2.2793    3.5970 H   0  0  0  0  0  0  0  0  0  0  0  0
   -8.3171   -1.5314    1.3286 H   0  0  0  0  0  0  0  0  0  0  0  0
   -6.0036    2.1588    0.5149 H   0  0  0  0  0  0  0  0  0  0  0  0
   -3.6196    2.3703    0.0442 H   0  0  0  0  0  0  0  0  0  0  0  0
  1  2  1  0
  2  3  2  0
  2  4  2  0
  2  5  1  0
  5  6  1  0
  6  7  1  0
  7  8  1  0
  8  9  1  0
  9 10  2  0
 10 11  1  0
 11 12  2  0
 12 13  1  0
 12 14  1  0
 14 15  2  0
 15 16  1  0
 16 17  2  0
 17 18  1  0
 18 19  2  0
 17 20  1  0
 20 21  2  0
 21 22  1  0
 22 23  2  0
 23 24  1  0
 24 25  1  0
 25 26  2  0
 26 27  1  0
 27 28  1  0
 27 29  2  0
 29 30  1  0
 30 31  1  0
 31 32  1  0
 32 33  2  0
 33 34  1  0
 34 35  1  0
 34 36  2  0
 36 37  1  0
 37 38  2  0
 29 39  1  0
 39 40  2  0
 13  9  1  0
 19 14  1  0
 40 25  1  0
 23 16  1  0
 38 32  1  0
  1 41  1  0
  1 42  1  0
  1 43  1  0
  5 44  1  0
  5 45  1  0
  6 46  1  0
  6 47  1  0
  7 48  1  0
  8 49  1  0
  8 50  1  0
 10 51  1  0
 11 52  1  0
 15 53  1  0
 18 54  1  0
 19 55  1  0
 21 56  1  0
 24 57  1  0
 26 58  1  0
 31 59  1  0
 31 60  1  0
 33 61  1  0
 36 62  1  0
 37 63  1  0
 38 64  1  0
 39 65  1  0
 40 66  1  0
M  END
$$$$
