
     RDKit          3D

 17 16  0  0  0  0  0  0  0  0999 V2000
   -1.9394   -1.3946   -0.7285 O   0  0  0  0  0  0  0  0  0  0  0  0
   -1.8556   -0.0646   -0.2875 C   0  0  2  0  0  0  0  0  0  0  0  0
   -0.4053    0.4292   -0.3759 C   0  0  0  0  0  0  0  0  0  0  0  0
    0.4260   -0.3930    0.4115 O   0  0  0  0  0  0  0  0  0  0  0  0
    2.0209    0.2035    0.3165 P   0  0  0  0  0  5  0  0  0  0  0  0
    3.0455   -0.8411    1.1660 O   0  0  0  0  0  0  0  0  0  0  0  0
    2.5249    0.2829   -1.2979 O   0  0  0  0  0  0  0  0  0  0  0  0
    2.0952    1.5812    0.9366 O   0  0  0  0  0  0  0  0  0  0  0  0
   -2.3660    0.0207    1.1233 C   0  0  0  0  0  0  0  0  0  0  0  0
   -2.4932    1.1051    1.6699 O   0  0  0  0  0  0  0  0  0  0  0  0
   -1.8681   -1.3735   -1.7188 H   0  0  0  0  0  0  0  0  0  0  0  0
   -2.5009    0.5830   -0.9256 H   0  0  0  0  0  0  0  0  0  0  0  0
   -0.3689    1.4875   -0.0284 H   0  0  0  0  0  0  0  0  0  0  0  0
   -0.0946    0.3919   -1.4445 H   0  0  0  0  0  0  0  0  0  0  0  0
    3.9566   -0.4875    1.0055 H   0  0  0  0  0  0  0  0  0  0  0  0
    2.4608   -0.6491   -1.6269 H   0  0  0  0  0  0  0  0  0  0  0  0
   -2.6378   -0.8814    1.6626 H   0  0  0  0  0  0  0  0  0  0  0  0
  1  2  1  0
  2  3  1  0
  3  4  1  0
  4  5  1  0
  5  6  1  0
  5  7  1  0
  5  8  2  0
  2  9  1  0
  9 10  2  0
  1 11  1  0
  2 12  1  6
  3 13  1  0
  3 14  1  0
  6 15  1  0
  7 16  1  0
  9 17  1  0
M  END
$$$$
