
     RDKit          3D

 68 69  0  0  0  0  0  0  0  0999 V2000
   -4.2600    1.6213   -1.7447 C   0  0  1  0  0  0  0  0  0  0  0  0
   -4.2758    0.3487   -2.3406 O   0  0  0  0  0  0  0  0  0  0  0  0
   -3.6500    1.5252   -0.3470 C   0  0  0  0  0  0  0  0  0  0  0  0
   -2.1380    1.2355   -0.4284 C   0  0  2  0  0  0  0  0  0  0  0  0
   -1.5976    1.2261    0.8817 O   0  0  0  0  0  0  0  0  0  0  0  0
   -1.7700   -0.0252    1.5362 C   0  0  2  0  0  0  0  0  0  0  0  0
   -2.3703    0.2297    2.9499 C   0  0  1  0  0  0  0  0  0  0  0  0
   -3.3416   -0.8068    3.3218 N   0  0  0  0  0  0  0  0  0  0  0  0
   -1.2602    0.3338    4.0140 C   0  0  1  0  0  0  0  0  0  0  0  0
   -1.8338    0.5156    5.2849 O   0  0  0  0  0  0  0  0  0  0  0  0
   -0.2929   -0.9002    3.9584 C   0  0  1  0  0  0  0  0  0  0  0  0
   -0.5179   -1.8903    5.1117 C   0  0  0  0  0  0  0  0  0  0  0  0
    0.3549   -2.9784    4.9783 O   0  0  0  0  0  0  0  0  0  0  0  0
   -0.3976   -1.6168    2.7342 O   0  0  0  0  0  0  0  0  0  0  0  0
   -0.3970   -0.7302    1.6288 C   0  0  1  0  0  0  0  0  0  0  0  0
   -0.1806   -1.4530    0.4322 O   0  0  0  0  0  0  0  0  0  0  0  0
    1.1258   -1.9944    0.4124 C   0  0  0  0  0  0  0  0  0  0  0  0
    1.4228   -2.5764   -0.9724 C   0  0  0  0  0  0  0  0  0  0  0  0
    1.2737   -1.5577   -2.1193 C   0  0  0  0  0  0  0  0  0  0  0  0
    2.1588   -0.3036   -1.9972 C   0  0  0  0  0  0  0  0  0  0  0  0
    3.6590   -0.6285   -1.9495 C   0  0  0  0  0  0  0  0  0  0  0  0
    4.4993    0.6567   -1.9874 C   0  0  0  0  0  0  0  0  0  0  0  0
    6.0087    0.3738   -2.0368 C   0  0  0  0  0  0  0  0  0  0  0  0
    6.5516   -0.1745   -0.7173 C   0  0  0  0  0  0  0  0  0  0  0  0
   -1.4761    2.2606   -1.1533 O   0  0  0  0  0  0  0  0  0  0  0  0
   -1.9278    2.3736   -2.4980 C   0  0  1  0  0  0  0  0  0  0  0  0
   -1.4123    1.2272   -3.3869 C   0  0  0  0  0  0  0  0  0  0  0  0
   -3.4569    2.6246   -2.5886 C   0  0  1  0  0  0  0  0  0  0  0  0
   -3.9000    2.5974   -3.9216 O   0  0  0  0  0  0  0  0  0  0  0  0
   -5.3059    1.9948   -1.6363 H   0  0  0  0  0  0  0  0  0  0  0  0
   -4.9728    0.3677   -3.0472 H   0  0  0  0  0  0  0  0  0  0  0  0
   -3.8094    2.4849    0.1926 H   0  0  0  0  0  0  0  0  0  0  0  0
   -4.1716    0.7273    0.2236 H   0  0  0  0  0  0  0  0  0  0  0  0
   -1.9536    0.2572   -0.9302 H   0  0  0  0  0  0  0  0  0  0  0  0
   -2.4712   -0.7076    0.9963 H   0  0  0  0  0  0  0  0  0  0  0  0
   -2.9120    1.2035    2.9374 H   0  0  0  0  0  0  0  0  0  0  0  0
   -4.1864   -0.7021    2.7137 H   0  0  0  0  0  0  0  0  0  0  0  0
   -2.9453   -1.7552    3.1316 H   0  0  0  0  0  0  0  0  0  0  0  0
   -0.6654    1.2437    3.7572 H   0  0  0  0  0  0  0  0  0  0  0  0
   -1.1350    0.9273    5.8578 H   0  0  0  0  0  0  0  0  0  0  0  0
    0.7520   -0.5271    4.0634 H   0  0  0  0  0  0  0  0  0  0  0  0
   -1.5696   -2.2528    5.0990 H   0  0  0  0  0  0  0  0  0  0  0  0
   -0.3210   -1.3871    6.0845 H   0  0  0  0  0  0  0  0  0  0  0  0
    0.1558   -3.5865    5.7370 H   0  0  0  0  0  0  0  0  0  0  0  0
    0.3950    0.0534    1.7421 H   0  0  0  0  0  0  0  0  0  0  0  0
    1.9004   -1.2338    0.6592 H   0  0  0  0  0  0  0  0  0  0  0  0
    1.2050   -2.8207    1.1534 H   0  0  0  0  0  0  0  0  0  0  0  0
    2.4446   -3.0113   -0.9792 H   0  0  0  0  0  0  0  0  0  0  0  0
    0.7176   -3.4153   -1.1596 H   0  0  0  0  0  0  0  0  0  0  0  0
    1.5089   -2.0702   -3.0774 H   0  0  0  0  0  0  0  0  0  0  0  0
    0.2116   -1.2360   -2.1800 H   0  0  0  0  0  0  0  0  0  0  0  0
    1.9617    0.3342   -2.8858 H   0  0  0  0  0  0  0  0  0  0  0  0
    1.8659    0.2862   -1.1023 H   0  0  0  0  0  0  0  0  0  0  0  0
    3.8825   -1.1796   -1.0133 H   0  0  0  0  0  0  0  0  0  0  0  0
    3.9253   -1.2709   -2.8174 H   0  0  0  0  0  0  0  0  0  0  0  0
    4.2302    1.2358   -2.8979 H   0  0  0  0  0  0  0  0  0  0  0  0
    4.2633    1.2896   -1.1037 H   0  0  0  0  0  0  0  0  0  0  0  0
    6.2385   -0.3380   -2.8592 H   0  0  0  0  0  0  0  0  0  0  0  0
    6.5364    1.3263   -2.2603 H   0  0  0  0  0  0  0  0  0  0  0  0
    6.2809    0.4978    0.1244 H   0  0  0  0  0  0  0  0  0  0  0  0
    7.6586   -0.2408   -0.7737 H   0  0  0  0  0  0  0  0  0  0  0  0
    6.1556   -1.1921   -0.5208 H   0  0  0  0  0  0  0  0  0  0  0  0
   -1.4474    3.2909   -2.9038 H   0  0  0  0  0  0  0  0  0  0  0  0
   -1.5745    1.4725   -4.4577 H   0  0  0  0  0  0  0  0  0  0  0  0
   -0.3225    1.0996   -3.2286 H   0  0  0  0  0  0  0  0  0  0  0  0
   -1.9162    0.2648   -3.1744 H   0  0  0  0  0  0  0  0  0  0  0  0
   -3.6577    3.6369   -2.1635 H   0  0  0  0  0  0  0  0  0  0  0  0
   -3.5505    3.4188   -4.3563 H   0  0  0  0  0  0  0  0  0  0  0  0
  1  2  1  0
  1  3  1  0
  3  4  1  0
  4  5  1  0
  5  6  1  0
  6  7  1  0
  7  8  1  0
  7  9  1  0
  9 10  1  0
  9 11  1  0
 11 12  1  0
 12 13  1  0
 11 14  1  0
 14 15  1  0
 15 16  1  0
 16 17  1  0
 17 18  1  0
 18 19  1  0
 19 20  1  0
 20 21  1  0
 21 22  1  0
 22 23  1  0
 23 24  1  0
  4 25  1  0
 25 26  1  0
 26 27  1  0
 26 28  1  0
 28 29  1  0
 28  1  1  0
 15  6  1  0
  1 30  1  1
  2 31  1  0
  3 32  1  0
  3 33  1  0
  4 34  1  6
  6 35  1  6
  7 36  1  6
  8 37  1  0
  8 38  1  0
  9 39  1  6
 10 40  1  0
 11 41  1  1
 12 42  1  0
 12 43  1  0
 13 44  1  0
 15 45  1  1
 17 46  1  0
 17 47  1  0
 18 48  1  0
 18 49  1  0
 19 50  1  0
 19 51  1  0
 20 52  1  0
 20 53  1  0
 21 54  1  0
 21 55  1  0
 22 56  1  0
 22 57  1  0
 23 58  1  0
 23 59  1  0
 24 60  1  0
 24 61  1  0
 24 62  1  0
 26 63  1  6
 27 64  1  0
 27 65  1  0
 27 66  1  0
 28 67  1  1
 29 68  1  0
M  END
$$$$
