
     RDKit          3D

 29 30  0  0  0  0  0  0  0  0999 V2000
    5.1694   -0.6899    0.8209 N   0  0  0  0  0  0  0  0  0  0  0  0
    3.7628   -0.6925    0.5892 C   0  0  0  0  0  0  0  0  0  0  0  0
    3.1178    0.4654    0.3099 N   0  0  0  0  0  0  0  0  0  0  0  0
    1.7797    0.4724    0.0871 C   0  0  0  0  0  0  0  0  0  0  0  0
    1.2088    1.5695   -0.1542 O   0  0  0  0  0  0  0  0  0  0  0  0
    1.0671   -0.7003    0.1316 N   0  0  0  0  0  0  0  0  0  0  0  0
    1.7277   -1.8580    0.4335 C   0  0  0  0  0  0  0  0  0  0  0  0
    3.0652   -1.8512    0.6549 N   0  0  0  0  0  0  0  0  0  0  0  0
   -0.3942   -0.7457   -0.0797 C   0  0  2  0  0  0  0  0  0  0  0  0
   -0.7738    0.0738   -1.1609 O   0  0  0  0  0  0  0  0  0  0  0  0
   -2.0630    0.5848   -0.8748 C   0  0  2  0  0  0  0  0  0  0  0  0
   -2.0753    2.1017   -1.1094 C   0  0  0  0  0  0  0  0  0  0  0  0
   -1.7607    2.3939   -2.4444 O   0  0  0  0  0  0  0  0  0  0  0  0
   -2.4475    0.2383    0.5762 C   0  0  1  0  0  0  0  0  0  0  0  0
   -3.4281   -0.7683    0.5909 O   0  0  0  0  0  0  0  0  0  0  0  0
   -1.1460   -0.2652    1.1557 C   0  0  1  0  0  0  0  0  0  0  0  0
   -1.3132   -1.2646    2.1350 O   0  0  0  0  0  0  0  0  0  0  0  0
    5.6709   -1.5794    1.0393 H   0  0  0  0  0  0  0  0  0  0  0  0
    5.7113    0.2014    0.7742 H   0  0  0  0  0  0  0  0  0  0  0  0
    1.1942   -2.7982    0.5013 H   0  0  0  0  0  0  0  0  0  0  0  0
   -0.7113   -1.7832   -0.3381 H   0  0  0  0  0  0  0  0  0  0  0  0
   -2.7877    0.1235   -1.5827 H   0  0  0  0  0  0  0  0  0  0  0  0
   -3.0921    2.4965   -0.8977 H   0  0  0  0  0  0  0  0  0  0  0  0
   -1.3632    2.6095   -0.4188 H   0  0  0  0  0  0  0  0  0  0  0  0
   -0.7711    2.3649   -2.5181 H   0  0  0  0  0  0  0  0  0  0  0  0
   -2.8028    1.1214    1.1592 H   0  0  0  0  0  0  0  0  0  0  0  0
   -4.2905   -0.3240    0.3796 H   0  0  0  0  0  0  0  0  0  0  0  0
   -0.6079    0.5930    1.6157 H   0  0  0  0  0  0  0  0  0  0  0  0
   -1.6467   -2.0894    1.6953 H   0  0  0  0  0  0  0  0  0  0  0  0
  1  2  1  0
  2  3  2  0
  3  4  1  0
  4  5  2  0
  4  6  1  0
  6  7  1  0
  7  8  2  0
  6  9  1  0
  9 10  1  0
 10 11  1  0
 11 12  1  0
 12 13  1  0
 11 14  1  0
 14 15  1  0
 14 16  1  0
 16 17  1  0
  8  2  1  0
 16  9  1  0
  1 18  1  0
  1 19  1  0
  7 20  1  0
  9 21  1  6
 11 22  1  6
 12 23  1  0
 12 24  1  0
 13 25  1  0
 14 26  1  1
 15 27  1  0
 16 28  1  1
 17 29  1  0
M  END
$$$$
