
     RDKit          3D

 41 44  0  0  0  0  0  0  0  0999 V2000
   -3.0397   -2.3659    4.1157 F   0  0  0  0  0  0  0  0  0  0  0  0
   -2.4774   -1.9301    2.9617 C   0  0  0  0  0  0  0  0  0  0  0  0
   -2.1225   -2.8458    1.9674 C   0  0  0  0  0  0  0  0  0  0  0  0
   -1.5395   -2.3986    0.7778 C   0  0  0  0  0  0  0  0  0  0  0  0
   -1.2911   -1.0294    0.5810 C   0  0  0  0  0  0  0  0  0  0  0  0
   -1.6786   -0.1137    1.5735 C   0  0  0  0  0  0  0  0  0  0  0  0
   -2.2601   -0.5641    2.7623 C   0  0  0  0  0  0  0  0  0  0  0  0
   -0.6899   -0.5534   -0.6345 N   0  0  0  0  0  0  0  0  0  0  0  0
   -1.0706    0.5655   -1.2325 N   0  0  0  0  0  0  0  0  0  0  0  0
   -0.3595    0.6865   -2.3722 C   0  0  0  0  0  0  0  0  0  0  0  0
    0.5014   -0.3871   -2.5120 C   0  0  0  0  0  0  0  0  0  0  0  0
    0.2698   -1.1426   -1.3840 C   0  0  0  0  0  0  0  0  0  0  0  0
    1.0346   -2.2958   -1.0150 N   0  0  0  0  0  0  0  0  0  0  0  0
    1.9117   -2.3869    0.4810 S   0  0  0  0  0  6  0  0  0  0  0  0
    3.3433   -2.7390    0.1912 O   0  0  0  0  0  0  0  0  0  0  0  0
    1.3102   -3.4666    1.3362 O   0  0  0  0  0  0  0  0  0  0  0  0
    1.8869   -0.8459    1.3384 C   0  0  0  0  0  0  0  0  0  0  0  0
    2.3427    0.3153    0.6981 C   0  0  0  0  0  0  0  0  0  0  0  0
    2.2972    1.5464    1.3588 C   0  0  0  0  0  0  0  0  0  0  0  0
    1.8069    1.6221    2.6655 C   0  0  0  0  0  0  0  0  0  0  0  0
    1.3659    0.4653    3.3149 C   0  0  0  0  0  0  0  0  0  0  0  0
    0.8875    0.5397    4.5813 F   0  0  0  0  0  0  0  0  0  0  0  0
    1.4087   -0.7675    2.6556 C   0  0  0  0  0  0  0  0  0  0  0  0
   -0.4880    1.8178   -3.3000 C   0  0  0  0  0  0  0  0  0  0  0  0
   -1.3451    2.9004   -3.1462 C   0  0  0  0  0  0  0  0  0  0  0  0
   -1.2501    3.8313   -4.1878 C   0  0  0  0  0  0  0  0  0  0  0  0
   -0.3214    3.4868   -5.1615 C   0  0  0  0  0  0  0  0  0  0  0  0
    0.3821    2.0228   -4.7258 S   0  0  0  0  0  0  0  0  0  0  0  0
   -2.3022   -3.9028    2.1156 H   0  0  0  0  0  0  0  0  0  0  0  0
   -1.2906   -3.1190    0.0099 H   0  0  0  0  0  0  0  0  0  0  0  0
   -1.5052    0.9462    1.4363 H   0  0  0  0  0  0  0  0  0  0  0  0
   -2.5384    0.1466    3.5296 H   0  0  0  0  0  0  0  0  0  0  0  0
    1.2277   -0.5668   -3.2938 H   0  0  0  0  0  0  0  0  0  0  0  0
    1.3635   -2.9221   -1.7829 H   0  0  0  0  0  0  0  0  0  0  0  0
    2.7212    0.2681   -0.3151 H   0  0  0  0  0  0  0  0  0  0  0  0
    2.6404    2.4419    0.8572 H   0  0  0  0  0  0  0  0  0  0  0  0
    1.7702    2.5768    3.1739 H   0  0  0  0  0  0  0  0  0  0  0  0
    1.0531   -1.6528    3.1662 H   0  0  0  0  0  0  0  0  0  0  0  0
   -2.0197    3.0182   -2.3081 H   0  0  0  0  0  0  0  0  0  0  0  0
   -1.8439    4.7346   -4.2303 H   0  0  0  0  0  0  0  0  0  0  0  0
   -0.0916    4.0635   -6.0472 H   0  0  0  0  0  0  0  0  0  0  0  0
  1  2  1  0
  2  3  2  0
  3  4  1  0
  4  5  2  0
  5  6  1  0
  6  7  2  0
  5  8  1  0
  8  9  1  0
  9 10  2  0
 10 11  1  0
 11 12  2  0
 12 13  1  0
 13 14  1  0
 14 15  2  0
 14 16  2  0
 14 17  1  0
 17 18  2  0
 18 19  1  0
 19 20  2  0
 20 21  1  0
 21 22  1  0
 21 23  2  0
 10 24  1  0
 24 25  2  0
 25 26  1  0
 26 27  2  0
 27 28  1  0
  7  2  1  0
 12  8  1  0
 23 17  1  0
 28 24  1  0
  3 29  1  0
  4 30  1  0
  6 31  1  0
  7 32  1  0
 11 33  1  0
 13 34  1  0
 18 35  1  0
 19 36  1  0
 20 37  1  0
 23 38  1  0
 25 39  1  0
 26 40  1  0
 27 41  1  0
M  END
$$$$
