
     RDKit          3D

 33 35  0  0  0  0  0  0  0  0999 V2000
    4.7920    0.9831    0.1055 N   0  0  0  0  0  0  0  0  0  0  0  0
    3.9355    0.3117   -1.2380 S   0  0  0  0  0  6  0  0  0  0  0  0
    3.5238    1.4249   -2.1611 O   0  0  0  0  0  0  0  0  0  0  0  0
    4.8308   -0.6330   -1.9892 O   0  0  0  0  0  0  0  0  0  0  0  0
    2.5144   -0.5623   -0.6529 C   0  0  0  0  0  0  0  0  0  0  0  0
    2.6457   -1.6678    0.2104 C   0  0  0  0  0  0  0  0  0  0  0  0
    4.2185   -2.2509    0.7450 Cl  0  0  0  0  0  0  0  0  0  0  0  0
    1.5038   -2.3249    0.6766 C   0  0  0  0  0  0  0  0  0  0  0  0
    0.2332   -1.8999    0.2871 C   0  0  0  0  0  0  0  0  0  0  0  0
    0.0813   -0.8166   -0.5969 C   0  0  0  0  0  0  0  0  0  0  0  0
    1.2330   -0.1398   -1.0408 C   0  0  0  0  0  0  0  0  0  0  0  0
   -1.3048   -0.3112   -0.9768 C   0  0  0  0  0  0  0  0  0  0  0  0
   -1.3006    0.3706   -2.2057 O   0  0  0  0  0  0  0  0  0  0  0  0
   -2.2896   -1.4044   -1.0207 N   0  0  0  0  0  0  0  0  0  0  0  0
   -3.3030   -1.1433   -0.0593 C   0  0  0  0  0  0  0  0  0  0  0  0
   -4.2924   -1.8942    0.1458 O   0  0  0  0  0  0  0  0  0  0  0  0
   -3.0198    0.0907    0.6269 C   0  0  0  0  0  0  0  0  0  0  0  0
   -3.7214    0.7463    1.6371 C   0  0  0  0  0  0  0  0  0  0  0  0
   -3.2035    1.9594    2.1195 C   0  0  0  0  0  0  0  0  0  0  0  0
   -2.0098    2.4865    1.5858 C   0  0  0  0  0  0  0  0  0  0  0  0
   -1.3240    1.8039    0.5663 C   0  0  0  0  0  0  0  0  0  0  0  0
   -1.8492    0.5949    0.1005 C   0  0  0  0  0  0  0  0  0  0  0  0
    4.1443    1.6547    0.5753 H   0  0  0  0  0  0  0  0  0  0  0  0
    5.5806    1.5461   -0.2846 H   0  0  0  0  0  0  0  0  0  0  0  0
    1.5994   -3.1659    1.3519 H   0  0  0  0  0  0  0  0  0  0  0  0
   -0.6313   -2.4161    0.6843 H   0  0  0  0  0  0  0  0  0  0  0  0
    1.1303    0.7243   -1.6837 H   0  0  0  0  0  0  0  0  0  0  0  0
   -1.0661   -0.2943   -2.9053 H   0  0  0  0  0  0  0  0  0  0  0  0
   -2.2601   -2.2294   -1.6605 H   0  0  0  0  0  0  0  0  0  0  0  0
   -4.6385    0.3348    2.0382 H   0  0  0  0  0  0  0  0  0  0  0  0
   -3.7245    2.4929    2.9038 H   0  0  0  0  0  0  0  0  0  0  0  0
   -1.6193    3.4229    1.9625 H   0  0  0  0  0  0  0  0  0  0  0  0
   -0.4084    2.2063    0.1529 H   0  0  0  0  0  0  0  0  0  0  0  0
  1  2  1  0
  2  3  2  0
  2  4  2  0
  2  5  1  0
  5  6  2  0
  6  7  1  0
  6  8  1  0
  8  9  2  0
  9 10  1  0
 10 11  2  0
 10 12  1  0
 12 13  1  0
 12 14  1  0
 14 15  1  0
 15 16  2  0
 15 17  1  0
 17 18  2  0
 18 19  1  0
 19 20  2  0
 20 21  1  0
 21 22  2  0
 11  5  1  0
 22 12  1  0
 22 17  1  0
  1 23  1  0
  1 24  1  0
  8 25  1  0
  9 26  1  0
 11 27  1  0
 13 28  1  0
 14 29  1  0
 18 30  1  0
 19 31  1  0
 20 32  1  0
 21 33  1  0
M  END
$$$$
