
     RDKit          3D

 27 29  0  0  0  0  0  0  0  0999 V2000
   -5.7582   -0.7300   -0.6713 O   0  0  0  0  0  0  0  0  0  0  0  0
   -4.3904   -0.5588   -0.4709 C   0  0  0  0  0  0  0  0  0  0  0  0
   -3.6829   -1.4887    0.2957 C   0  0  0  0  0  0  0  0  0  0  0  0
   -2.3095   -1.3308    0.5060 C   0  0  0  0  0  0  0  0  0  0  0  0
   -1.6244   -0.2343   -0.0516 C   0  0  0  0  0  0  0  0  0  0  0  0
   -2.3446    0.6963   -0.8216 C   0  0  0  0  0  0  0  0  0  0  0  0
   -3.7176    0.5348   -1.0295 C   0  0  0  0  0  0  0  0  0  0  0  0
   -0.1698   -0.0426    0.1552 C   0  0  0  0  0  0  0  0  0  0  0  0
    0.6855   -0.8701    0.8888 C   0  0  0  0  0  0  0  0  0  0  0  0
    1.9189   -0.2718    0.7805 C   0  0  0  0  0  0  0  0  0  0  0  0
    1.7563    0.8489    0.0140 C   0  0  0  0  0  0  0  0  0  0  0  0
    0.5057    0.9754   -0.3535 O   0  0  0  0  0  0  0  0  0  0  0  0
    2.8235    1.6898   -0.2901 C   0  0  0  0  0  0  0  0  0  0  0  0
    4.0914    1.3521    0.2187 C   0  0  0  0  0  0  0  0  0  0  0  0
    4.2616    0.1909    1.0134 C   0  0  0  0  0  0  0  0  0  0  0  0
    5.5165   -0.1431    1.5168 O   0  0  0  0  0  0  0  0  0  0  0  0
    3.1586   -0.6365    1.3005 C   0  0  0  0  0  0  0  0  0  0  0  0
   -6.2989   -0.0732   -1.2221 H   0  0  0  0  0  0  0  0  0  0  0  0
   -4.1985   -2.3361    0.7297 H   0  0  0  0  0  0  0  0  0  0  0  0
   -1.7931   -2.0685    1.1039 H   0  0  0  0  0  0  0  0  0  0  0  0
   -1.8464    1.5501   -1.2638 H   0  0  0  0  0  0  0  0  0  0  0  0
   -4.2573    1.2604   -1.6248 H   0  0  0  0  0  0  0  0  0  0  0  0
    0.4510   -1.7784    1.4266 H   0  0  0  0  0  0  0  0  0  0  0  0
    2.6825    2.5740   -0.8978 H   0  0  0  0  0  0  0  0  0  0  0  0
    4.9393    1.9878   -0.0018 H   0  0  0  0  0  0  0  0  0  0  0  0
    6.3309    0.4299    1.3295 H   0  0  0  0  0  0  0  0  0  0  0  0
    3.2699   -1.5273    1.9057 H   0  0  0  0  0  0  0  0  0  0  0  0
  1  2  1  0
  2  3  2  0
  3  4  1  0
  4  5  2  0
  5  6  1  0
  6  7  2  0
  5  8  1  0
  8  9  2  0
  9 10  1  0
 10 11  2  0
 11 12  1  0
 11 13  1  0
 13 14  2  0
 14 15  1  0
 15 16  1  0
 15 17  2  0
  7  2  1  0
 12  8  1  0
 17 10  1  0
  1 18  1  0
  3 19  1  0
  4 20  1  0
  6 21  1  0
  7 22  1  0
  9 23  1  0
 13 24  1  0
 14 25  1  0
 16 26  1  0
 17 27  1  0
M  END
$$$$
