
     RDKit          3D

126125  0  0  0  0  0  0  0  0999 V2000
   13.7111    2.2650    3.4708 C   0  0  0  0  0  0  0  0  0  0  0  0
   13.7884    0.7934    3.8764 C   0  0  0  0  0  0  0  0  0  0  0  0
   12.3989    0.1301    3.9794 C   0  0  0  0  0  0  0  0  0  0  0  0
   12.0408   -0.7531    2.7691 C   0  0  0  0  0  0  0  0  0  0  0  0
   11.8555    0.0038    1.4404 C   0  0  0  0  0  0  0  0  0  0  0  0
   10.7270    1.0515    1.4402 C   0  0  0  0  0  0  0  0  0  0  0  0
    9.3372    0.4327    1.6705 C   0  0  0  0  0  0  0  0  0  0  0  0
    8.2109    1.4604    1.4885 C   0  0  0  0  0  0  0  0  0  0  0  0
    7.9966    1.8207    0.0369 C   0  0  0  0  0  0  0  0  0  0  0  0
    7.0943    2.7259   -0.3819 C   0  0  0  0  0  0  0  0  0  0  0  0
    6.1461    3.4734    0.5243 C   0  0  0  0  0  0  0  0  0  0  0  0
    4.8688    2.6718    0.8284 C   0  0  0  0  0  0  0  0  0  0  0  0
    4.0563    2.2848   -0.4203 C   0  0  0  0  0  0  0  0  0  0  0  0
    3.4958    3.5072   -1.1683 C   0  0  0  0  0  0  0  0  0  0  0  0
    2.4191    3.1284   -2.1962 C   0  0  0  0  0  0  0  0  0  0  0  0
    2.9819    2.3125   -3.3724 C   0  0  0  0  0  0  0  0  0  0  0  0
    1.9242    2.0567   -4.4535 C   0  0  0  0  0  0  0  0  0  0  0  0
    0.8511    1.1354   -3.9617 C   0  0  0  0  0  0  0  0  0  0  0  0
   -0.2646    1.6058   -3.6078 O   0  0  0  0  0  0  0  0  0  0  0  0
    1.1126   -0.2367   -3.8730 O   0  0  0  0  0  0  0  0  0  0  0  0
    0.2111   -1.1752   -3.2880 C   0  0  0  0  0  0  0  0  0  0  0  0
    0.4110   -1.2404   -1.7663 C   0  0  2  0  0  0  0  0  0  0  0  0
   -0.4871   -2.3179   -1.1424 C   0  0  0  0  0  0  0  0  0  0  0  0
   -1.8375   -1.9669   -1.3340 O   0  0  0  0  0  0  0  0  0  0  0  0
   -2.8302   -3.1827   -0.6631 P   0  0  2  0  0  5  0  0  0  0  0  0
   -2.6915   -3.1651    1.0249 O   0  0  0  0  0  0  0  0  0  0  0  0
   -2.4393   -4.5475   -1.1902 O   0  0  0  0  0  0  0  0  0  0  0  0
   -4.4552   -2.8684   -1.0706 O   0  0  0  0  0  0  0  0  0  0  0  0
   -4.5390   -2.7082   -2.4686 C   0  0  0  0  0  0  0  0  0  0  0  0
   -5.9869   -2.3958   -2.8822 C   0  0  2  0  0  0  0  0  0  0  0  0
   -6.3854   -1.1416   -2.3882 O   0  0  0  0  0  0  0  0  0  0  0  0
   -6.9776   -3.4901   -2.4441 C   0  0  0  0  0  0  0  0  0  0  0  0
   -6.6393   -4.7279   -3.0098 O   0  0  0  0  0  0  0  0  0  0  0  0
    0.1139    0.0308   -1.1886 O   0  0  0  0  0  0  0  0  0  0  0  0
    0.5429    0.4172    0.0854 C   0  0  0  0  0  0  0  0  0  0  0  0
    1.3372   -0.3060    0.7468 O   0  0  0  0  0  0  0  0  0  0  0  0
    0.0423    1.7008    0.6701 C   0  0  0  0  0  0  0  0  0  0  0  0
   -0.8380    1.4647    1.9070 C   0  0  0  0  0  0  0  0  0  0  0  0
   -2.0839    0.5985    1.6441 C   0  0  0  0  0  0  0  0  0  0  0  0
   -3.1104    1.2942    0.7333 C   0  0  0  0  0  0  0  0  0  0  0  0
   -4.4081    0.4835    0.5808 C   0  0  0  0  0  0  0  0  0  0  0  0
   -5.2893    0.5354    1.8421 C   0  0  0  0  0  0  0  0  0  0  0  0
   -6.6441   -0.1579    1.6399 C   0  0  0  0  0  0  0  0  0  0  0  0
   -6.5098   -1.6595    1.5344 C   0  0  0  0  0  0  0  0  0  0  0  0
   -7.5586   -2.4929    1.4122 C   0  0  0  0  0  0  0  0  0  0  0  0
   -8.9981   -2.0474    1.3446 C   0  0  0  0  0  0  0  0  0  0  0  0
   -9.4095   -1.7337   -0.1006 C   0  0  0  0  0  0  0  0  0  0  0  0
  -10.8050   -1.0976   -0.1967 C   0  0  0  0  0  0  0  0  0  0  0  0
  -11.9325   -2.0986    0.1084 C   0  0  0  0  0  0  0  0  0  0  0  0
  -13.3281   -1.4661   -0.0092 C   0  0  0  0  0  0  0  0  0  0  0  0
  -13.7403   -1.2039   -1.4578 C   0  0  0  0  0  0  0  0  0  0  0  0
   13.2884    2.3776    2.4532 H   0  0  0  0  0  0  0  0  0  0  0  0
   14.7318    2.7020    3.4723 H   0  0  0  0  0  0  0  0  0  0  0  0
   13.0853    2.8324    4.1922 H   0  0  0  0  0  0  0  0  0  0  0  0
   14.4430    0.2455    3.1643 H   0  0  0  0  0  0  0  0  0  0  0  0
   14.2809    0.7455    4.8723 H   0  0  0  0  0  0  0  0  0  0  0  0
   12.4078   -0.5358    4.8701 H   0  0  0  0  0  0  0  0  0  0  0  0
   11.6010    0.8774    4.1741 H   0  0  0  0  0  0  0  0  0  0  0  0
   12.8425   -1.5111    2.6309 H   0  0  0  0  0  0  0  0  0  0  0  0
   11.1175   -1.3243    3.0014 H   0  0  0  0  0  0  0  0  0  0  0  0
   11.6462   -0.7411    0.6419 H   0  0  0  0  0  0  0  0  0  0  0  0
   12.8102    0.4959    1.1608 H   0  0  0  0  0  0  0  0  0  0  0  0
   10.7448    1.5574    0.4513 H   0  0  0  0  0  0  0  0  0  0  0  0
   10.9202    1.8334    2.2032 H   0  0  0  0  0  0  0  0  0  0  0  0
    9.1768   -0.4264    0.9822 H   0  0  0  0  0  0  0  0  0  0  0  0
    9.2799    0.0507    2.7119 H   0  0  0  0  0  0  0  0  0  0  0  0
    8.4499    2.3727    2.0765 H   0  0  0  0  0  0  0  0  0  0  0  0
    7.2756    1.0212    1.8924 H   0  0  0  0  0  0  0  0  0  0  0  0
    8.6102    1.3385   -0.7195 H   0  0  0  0  0  0  0  0  0  0  0  0
    7.0353    2.9340   -1.4466 H   0  0  0  0  0  0  0  0  0  0  0  0
    5.8729    4.4341    0.0401 H   0  0  0  0  0  0  0  0  0  0  0  0
    6.6487    3.7444    1.4762 H   0  0  0  0  0  0  0  0  0  0  0  0
    5.1367    1.7431    1.3735 H   0  0  0  0  0  0  0  0  0  0  0  0
    4.2259    3.2690    1.5111 H   0  0  0  0  0  0  0  0  0  0  0  0
    4.6872    1.6758   -1.1014 H   0  0  0  0  0  0  0  0  0  0  0  0
    3.2138    1.6427   -0.0877 H   0  0  0  0  0  0  0  0  0  0  0  0
    4.3184    4.0485   -1.6831 H   0  0  0  0  0  0  0  0  0  0  0  0
    3.0355    4.2042   -0.4342 H   0  0  0  0  0  0  0  0  0  0  0  0
    1.9730    4.0678   -2.5898 H   0  0  0  0  0  0  0  0  0  0  0  0
    1.6104    2.5603   -1.6911 H   0  0  0  0  0  0  0  0  0  0  0  0
    3.3751    1.3374   -3.0123 H   0  0  0  0  0  0  0  0  0  0  0  0
    3.8248    2.8724   -3.8331 H   0  0  0  0  0  0  0  0  0  0  0  0
    1.4810    3.0191   -4.7913 H   0  0  0  0  0  0  0  0  0  0  0  0
    2.4151    1.5880   -5.3332 H   0  0  0  0  0  0  0  0  0  0  0  0
   -0.8401   -0.9173   -3.5449 H   0  0  0  0  0  0  0  0  0  0  0  0
    0.4278   -2.1740   -3.7232 H   0  0  0  0  0  0  0  0  0  0  0  0
    1.4764   -1.5001   -1.5744 H   0  0  0  0  0  0  0  0  0  0  0  0
   -0.2518   -2.3861   -0.0572 H   0  0  0  0  0  0  0  0  0  0  0  0
   -0.2523   -3.2941   -1.6240 H   0  0  0  0  0  0  0  0  0  0  0  0
   -1.8785   -3.6939    1.2248 H   0  0  0  0  0  0  0  0  0  0  0  0
   -4.2122   -3.6354   -2.9923 H   0  0  0  0  0  0  0  0  0  0  0  0
   -3.9039   -1.8594   -2.8097 H   0  0  0  0  0  0  0  0  0  0  0  0
   -6.0139   -2.3376   -3.9922 H   0  0  0  0  0  0  0  0  0  0  0  0
   -6.3646   -1.1878   -1.3974 H   0  0  0  0  0  0  0  0  0  0  0  0
   -6.9710   -3.5907   -1.3385 H   0  0  0  0  0  0  0  0  0  0  0  0
   -8.0095   -3.2024   -2.7481 H   0  0  0  0  0  0  0  0  0  0  0  0
   -6.9033   -4.6851   -3.9658 H   0  0  0  0  0  0  0  0  0  0  0  0
   -0.5168    2.2749   -0.0980 H   0  0  0  0  0  0  0  0  0  0  0  0
    0.9162    2.3201    0.9660 H   0  0  0  0  0  0  0  0  0  0  0  0
   -1.1545    2.4488    2.3160 H   0  0  0  0  0  0  0  0  0  0  0  0
   -0.2242    0.9712    2.6924 H   0  0  0  0  0  0  0  0  0  0  0  0
   -1.7887   -0.3777    1.2034 H   0  0  0  0  0  0  0  0  0  0  0  0
   -2.5451    0.3868    2.6303 H   0  0  0  0  0  0  0  0  0  0  0  0
   -3.3447    2.3088    1.1232 H   0  0  0  0  0  0  0  0  0  0  0  0
   -2.6686    1.4138   -0.2789 H   0  0  0  0  0  0  0  0  0  0  0  0
   -4.9812    0.9078   -0.2724 H   0  0  0  0  0  0  0  0  0  0  0  0
   -4.1593   -0.5667    0.3263 H   0  0  0  0  0  0  0  0  0  0  0  0
   -4.7713    0.0644    2.7037 H   0  0  0  0  0  0  0  0  0  0  0  0
   -5.4811    1.5991    2.1031 H   0  0  0  0  0  0  0  0  0  0  0  0
   -7.2804    0.0829    2.5182 H   0  0  0  0  0  0  0  0  0  0  0  0
   -7.1389    0.2477    0.7324 H   0  0  0  0  0  0  0  0  0  0  0  0
   -5.5197   -2.1042    1.5840 H   0  0  0  0  0  0  0  0  0  0  0  0
   -7.3608   -3.5600    1.3635 H   0  0  0  0  0  0  0  0  0  0  0  0
   -9.6246   -2.8791    1.7290 H   0  0  0  0  0  0  0  0  0  0  0  0
   -9.1732   -1.1722    2.0048 H   0  0  0  0  0  0  0  0  0  0  0  0
   -9.3793   -2.6640   -0.7080 H   0  0  0  0  0  0  0  0  0  0  0  0
   -8.6824   -1.0215   -0.5436 H   0  0  0  0  0  0  0  0  0  0  0  0
  -10.9260   -0.7154   -1.2320 H   0  0  0  0  0  0  0  0  0  0  0  0
  -10.8702   -0.2281    0.4936 H   0  0  0  0  0  0  0  0  0  0  0  0
  -11.8206   -2.4671    1.1497 H   0  0  0  0  0  0  0  0  0  0  0  0
  -11.8582   -2.9761   -0.5709 H   0  0  0  0  0  0  0  0  0  0  0  0
  -14.0680   -2.1638    0.4397 H   0  0  0  0  0  0  0  0  0  0  0  0
  -13.3691   -0.5170    0.5684 H   0  0  0  0  0  0  0  0  0  0  0  0
  -13.6533   -2.1322   -2.0615 H   0  0  0  0  0  0  0  0  0  0  0  0
  -14.7974   -0.8649   -1.4839 H   0  0  0  0  0  0  0  0  0  0  0  0
  -13.1133   -0.4081   -1.9094 H   0  0  0  0  0  0  0  0  0  0  0  0
  1  2  1  0
  2  3  1  0
  3  4  1  0
  4  5  1  0
  5  6  1  0
  6  7  1  0
  7  8  1  0
  8  9  1  0
  9 10  2  0
 10 11  1  0
 11 12  1  0
 12 13  1  0
 13 14  1  0
 14 15  1  0
 15 16  1  0
 16 17  1  0
 17 18  1  0
 18 19  2  0
 18 20  1  0
 20 21  1  0
 21 22  1  0
 22 23  1  0
 23 24  1  0
 25 24  1  6
 25 26  1  0
 25 27  2  0
 25 28  1  0
 28 29  1  0
 29 30  1  0
 30 31  1  0
 30 32  1  0
 32 33  1  0
 22 34  1  0
 34 35  1  0
 35 36  2  0
 35 37  1  0
 37 38  1  0
 38 39  1  0
 39 40  1  0
 40 41  1  0
 41 42  1  0
 42 43  1  0
 43 44  1  0
 44 45  2  0
 45 46  1  0
 46 47  1  0
 47 48  1  0
 48 49  1  0
 49 50  1  0
 50 51  1  0
  1 52  1  0
  1 53  1  0
  1 54  1  0
  2 55  1  0
  2 56  1  0
  3 57  1  0
  3 58  1  0
  4 59  1  0
  4 60  1  0
  5 61  1  0
  5 62  1  0
  6 63  1  0
  6 64  1  0
  7 65  1  0
  7 66  1  0
  8 67  1  0
  8 68  1  0
  9 69  1  0
 10 70  1  0
 11 71  1  0
 11 72  1  0
 12 73  1  0
 12 74  1  0
 13 75  1  0
 13 76  1  0
 14 77  1  0
 14 78  1  0
 15 79  1  0
 15 80  1  0
 16 81  1  0
 16 82  1  0
 17 83  1  0
 17 84  1  0
 21 85  1  0
 21 86  1  0
 22 87  1  6
 23 88  1  0
 23 89  1  0
 26 90  1  0
 29 91  1  0
 29 92  1  0
 30 93  1  6
 31 94  1  0
 32 95  1  0
 32 96  1  0
 33 97  1  0
 37 98  1  0
 37 99  1  0
 38100  1  0
 38101  1  0
 39102  1  0
 39103  1  0
 40104  1  0
 40105  1  0
 41106  1  0
 41107  1  0
 42108  1  0
 42109  1  0
 43110  1  0
 43111  1  0
 44112  1  0
 45113  1  0
 46114  1  0
 46115  1  0
 47116  1  0
 47117  1  0
 48118  1  0
 48119  1  0
 49120  1  0
 49121  1  0
 50122  1  0
 50123  1  0
 51124  1  0
 51125  1  0
 51126  1  0
M  END
$$$$
