
     RDKit          3D

 44 46  0  0  0  0  0  0  0  0999 V2000
   -2.8817    0.0323    1.1290 C   0  0  1  0  0  0  0  0  0  0  0  0
   -3.2541   -0.7733    2.3928 C   0  0  0  0  0  0  0  0  0  0  0  0
   -4.5738   -0.5089    2.7795 O   0  0  0  0  0  0  0  0  0  0  0  0
   -1.4282   -0.0370    0.9171 N   0  0  0  0  0  0  0  0  0  0  0  0
   -0.6613    0.9006    0.1395 C   0  0  0  0  0  0  0  0  0  0  0  0
    0.6682    0.6578   -0.0543 N   0  0  0  0  0  0  0  0  0  0  0  0
    1.3965    1.5069   -0.7761 N   0  0  0  0  0  0  0  0  0  0  0  0
    0.9094    2.6308   -1.3122 C   0  0  0  0  0  0  0  0  0  0  0  0
   -0.4310    2.9564   -1.1605 C   0  0  0  0  0  0  0  0  0  0  0  0
   -1.2316    2.0721   -0.4230 C   0  0  0  0  0  0  0  0  0  0  0  0
    1.8451    3.3627   -1.9498 N   0  0  0  0  0  0  0  0  0  0  0  0
    2.9794    2.6351   -1.7864 C   0  0  0  0  0  0  0  0  0  0  0  0
    2.7077    1.4795   -1.0616 C   0  0  0  0  0  0  0  0  0  0  0  0
    3.6758    0.4314   -0.6604 C   0  0  0  0  0  0  0  0  0  0  0  0
    3.2741   -0.9099   -0.5230 C   0  0  0  0  0  0  0  0  0  0  0  0
    4.1979   -1.8960   -0.1457 C   0  0  0  0  0  0  0  0  0  0  0  0
    3.7812   -3.2573   -0.0091 N   0  0  0  0  0  0  0  0  0  0  0  0
    5.5325   -1.5417    0.0899 C   0  0  0  0  0  0  0  0  0  0  0  0
    5.9420   -0.2149   -0.0558 C   0  0  0  0  0  0  0  0  0  0  0  0
    5.0218    0.7668   -0.4321 C   0  0  0  0  0  0  0  0  0  0  0  0
   -3.6263   -0.4193   -0.1663 C   0  0  0  0  0  0  0  0  0  0  0  0
   -5.1285   -0.1046   -0.1299 C   0  0  0  0  0  0  0  0  0  0  0  0
   -3.3939   -1.8973   -0.5181 C   0  0  0  0  0  0  0  0  0  0  0  0
   -3.1517    1.0870    1.3530 H   0  0  0  0  0  0  0  0  0  0  0  0
   -3.1094   -1.8629    2.2286 H   0  0  0  0  0  0  0  0  0  0  0  0
   -2.5755   -0.4672    3.2209 H   0  0  0  0  0  0  0  0  0  0  0  0
   -4.7464   -1.0731    3.5775 H   0  0  0  0  0  0  0  0  0  0  0  0
   -0.9036   -0.8389    1.3370 H   0  0  0  0  0  0  0  0  0  0  0  0
   -0.8423    3.8620   -1.5875 H   0  0  0  0  0  0  0  0  0  0  0  0
   -2.2767    2.3130   -0.2961 H   0  0  0  0  0  0  0  0  0  0  0  0
    3.9426    2.9287   -2.1818 H   0  0  0  0  0  0  0  0  0  0  0  0
    2.2541   -1.2017   -0.7338 H   0  0  0  0  0  0  0  0  0  0  0  0
    2.7889   -3.5332   -0.1827 H   0  0  0  0  0  0  0  0  0  0  0  0
    4.4617   -3.9995    0.2683 H   0  0  0  0  0  0  0  0  0  0  0  0
    6.2549   -2.2937    0.3815 H   0  0  0  0  0  0  0  0  0  0  0  0
    6.9747    0.0541    0.1252 H   0  0  0  0  0  0  0  0  0  0  0  0
    5.3601    1.7907   -0.5284 H   0  0  0  0  0  0  0  0  0  0  0  0
   -3.2106    0.1733   -1.0098 H   0  0  0  0  0  0  0  0  0  0  0  0
   -5.5623   -0.2269   -1.1455 H   0  0  0  0  0  0  0  0  0  0  0  0
   -5.2986    0.9450    0.1912 H   0  0  0  0  0  0  0  0  0  0  0  0
   -5.6687   -0.7903    0.5550 H   0  0  0  0  0  0  0  0  0  0  0  0
   -2.3094   -2.1350   -0.5157 H   0  0  0  0  0  0  0  0  0  0  0  0
   -3.9161   -2.5683    0.1953 H   0  0  0  0  0  0  0  0  0  0  0  0
   -3.7868   -2.1071   -1.5359 H   0  0  0  0  0  0  0  0  0  0  0  0
  1  2  1  0
  2  3  1  0
  1  4  1  0
  4  5  1  0
  5  6  2  0
  6  7  1  0
  7  8  1  0
  8  9  1  0
  9 10  2  0
  8 11  2  0
 11 12  1  0
 12 13  2  0
 13 14  1  0
 14 15  2  0
 15 16  1  0
 16 17  1  0
 16 18  2  0
 18 19  1  0
 19 20  2  0
  1 21  1  0
 21 22  1  0
 21 23  1  0
 10  5  1  0
 20 14  1  0
 13  7  1  0
  1 24  1  1
  2 25  1  0
  2 26  1  0
  3 27  1  0
  4 28  1  0
  9 29  1  0
 10 30  1  0
 12 31  1  0
 15 32  1  0
 17 33  1  0
 17 34  1  0
 18 35  1  0
 19 36  1  0
 20 37  1  0
 21 38  1  0
 22 39  1  0
 22 40  1  0
 22 41  1  0
 23 42  1  0
 23 43  1  0
 23 44  1  0
M  END
$$$$
