
     RDKit          3D

 49 51  0  0  0  0  0  0  0  0999 V2000
   -8.7387   -0.4342   -0.2279 N   0  0  0  0  0  0  0  0  0  0  0  0
   -7.9035   -0.7452   -1.3466 C   0  0  0  0  0  0  0  0  0  0  0  0
   -8.4451   -1.0675   -2.4385 O   0  0  0  0  0  0  0  0  0  0  0  0
   -6.4244   -0.6801   -1.2521 C   0  0  0  0  0  0  0  0  0  0  0  0
   -5.7671   -0.7920   -0.0136 C   0  0  0  0  0  0  0  0  0  0  0  0
   -4.3721   -0.7325    0.0581 C   0  0  0  0  0  0  0  0  0  0  0  0
   -3.6066   -0.5508   -1.1058 C   0  0  0  0  0  0  0  0  0  0  0  0
   -2.1702   -0.5102   -1.0598 N   0  0  0  0  0  0  0  0  0  0  0  0
   -1.4140    0.0975   -0.0027 C   0  0  0  0  0  0  0  0  0  0  0  0
   -0.0731   -0.1022    0.0607 N   0  0  0  0  0  0  0  0  0  0  0  0
    0.6891    0.4764    1.0282 C   0  0  0  0  0  0  0  0  0  0  0  0
    2.0675    0.2420    1.0659 O   0  0  0  0  0  0  0  0  0  0  0  0
    2.7412   -0.5822    0.1184 C   0  0  0  0  0  0  0  0  0  0  0  0
    4.2460   -0.6193    0.4314 C   0  0  0  0  0  0  0  0  0  0  0  0
    4.8398    0.8147    0.4382 C   0  0  0  0  0  0  0  0  0  0  0  0
    6.3456    0.8018    0.1581 C   0  0  0  0  0  0  0  0  0  0  0  0
    6.6576    0.2235   -1.2369 C   0  0  0  0  0  0  0  0  0  0  0  0
    5.6230   -0.8149   -1.7161 C   0  0  0  0  0  0  0  0  0  0  0  0
    4.9951   -1.5719   -0.5403 C   0  0  0  0  0  0  0  0  0  0  0  0
    0.0803    1.3111    1.9856 C   0  0  0  0  0  0  0  0  0  0  0  0
    0.8279    1.9511    3.0306 N   0  0  0  0  0  0  0  0  0  0  0  0
    2.0612    1.8114    3.1622 O   0  0  0  0  0  0  0  0  0  0  0  0
   -1.3073    1.5161    1.8948 C   0  0  0  0  0  0  0  0  0  0  0  0
   -1.9952    2.3553    2.8267 N   0  0  0  0  0  0  0  0  0  0  0  0
   -2.0140    0.9111    0.9050 N   0  0  0  0  0  0  0  0  0  0  0  0
   -4.2574   -0.4760   -2.3442 C   0  0  0  0  0  0  0  0  0  0  0  0
   -5.6518   -0.5355   -2.4181 C   0  0  0  0  0  0  0  0  0  0  0  0
   -9.7742   -0.5447   -0.3056 H   0  0  0  0  0  0  0  0  0  0  0  0
   -8.3542   -0.0132    0.6456 H   0  0  0  0  0  0  0  0  0  0  0  0
   -6.3215   -0.9585    0.8999 H   0  0  0  0  0  0  0  0  0  0  0  0
   -3.8932   -0.8601    1.0198 H   0  0  0  0  0  0  0  0  0  0  0  0
   -1.6404   -0.8722   -1.8850 H   0  0  0  0  0  0  0  0  0  0  0  0
    2.3236   -1.6116    0.1738 H   0  0  0  0  0  0  0  0  0  0  0  0
    2.5765   -0.1851   -0.9076 H   0  0  0  0  0  0  0  0  0  0  0  0
    4.3586   -1.0401    1.4561 H   0  0  0  0  0  0  0  0  0  0  0  0
    4.3463    1.4475   -0.3332 H   0  0  0  0  0  0  0  0  0  0  0  0
    4.6544    1.2885    1.4267 H   0  0  0  0  0  0  0  0  0  0  0  0
    6.8522    0.1898    0.9368 H   0  0  0  0  0  0  0  0  0  0  0  0
    6.7473    1.8356    0.2297 H   0  0  0  0  0  0  0  0  0  0  0  0
    6.6988    1.0510   -1.9784 H   0  0  0  0  0  0  0  0  0  0  0  0
    7.6653   -0.2456   -1.2093 H   0  0  0  0  0  0  0  0  0  0  0  0
    4.8179   -0.3022   -2.2870 H   0  0  0  0  0  0  0  0  0  0  0  0
    6.1139   -1.5365   -2.4043 H   0  0  0  0  0  0  0  0  0  0  0  0
    5.8069   -2.0935    0.0137 H   0  0  0  0  0  0  0  0  0  0  0  0
    4.3180   -2.3631   -0.9301 H   0  0  0  0  0  0  0  0  0  0  0  0
   -3.0267    2.4932    2.7408 H   0  0  0  0  0  0  0  0  0  0  0  0
   -1.4949    2.8421    3.6029 H   0  0  0  0  0  0  0  0  0  0  0  0
   -3.6820   -0.3597   -3.2542 H   0  0  0  0  0  0  0  0  0  0  0  0
   -6.1264   -0.4591   -3.3886 H   0  0  0  0  0  0  0  0  0  0  0  0
  1  2  1  0
  2  3  2  0
  2  4  1  0
  4  5  2  0
  5  6  1  0
  6  7  2  0
  7  8  1  0
  8  9  1  0
  9 10  2  0
 10 11  1  0
 11 12  1  0
 12 13  1  0
 13 14  1  0
 14 15  1  0
 15 16  1  0
 16 17  1  0
 17 18  1  0
 18 19  1  0
 11 20  2  0
 20 21  1  0
 21 22  2  0
 20 23  1  0
 23 24  1  0
 23 25  2  0
  7 26  1  0
 26 27  2  0
 27  4  1  0
 25  9  1  0
 19 14  1  0
  1 28  1  0
  1 29  1  0
  5 30  1  0
  6 31  1  0
  8 32  1  0
 13 33  1  0
 13 34  1  0
 14 35  1  0
 15 36  1  0
 15 37  1  0
 16 38  1  0
 16 39  1  0
 17 40  1  0
 17 41  1  0
 18 42  1  0
 18 43  1  0
 19 44  1  0
 19 45  1  0
 24 46  1  0
 24 47  1  0
 26 48  1  0
 27 49  1  0
M  END
$$$$
