
     RDKit          3D

 40 41  0  0  0  0  0  0  0  0999 V2000
    4.0508    0.7678   -1.5910 C   0  0  0  0  0  0  0  0  0  0  0  0
    2.9301   -0.1862   -1.6177 N   0  0  0  0  0  0  0  0  0  0  0  0
    3.4502   -1.5459   -1.8474 C   0  0  0  0  0  0  0  0  0  0  0  0
    2.1708   -0.1133   -0.3503 C   0  0  0  0  0  0  0  0  0  0  0  0
    0.7671   -0.7335   -0.5148 C   0  0  0  0  0  0  0  0  0  0  0  0
   -0.2569   -0.3104    0.5839 C   0  0  0  0  0  0  0  0  0  0  0  0
    0.3050   -0.6370    1.8381 O   0  0  0  0  0  0  0  0  0  0  0  0
   -1.5207   -1.1475    0.3617 C   0  0  0  0  0  0  0  0  0  0  0  0
   -2.3931   -0.8487   -0.7075 C   0  0  0  0  0  0  0  0  0  0  0  0
   -3.5327   -1.6239   -0.9379 C   0  0  0  0  0  0  0  0  0  0  0  0
   -3.8128   -2.7183   -0.1192 C   0  0  0  0  0  0  0  0  0  0  0  0
   -2.9489   -3.0455    0.9266 C   0  0  0  0  0  0  0  0  0  0  0  0
   -1.8068   -2.2747    1.1631 C   0  0  0  0  0  0  0  0  0  0  0  0
   -0.6552    1.1874    0.5754 C   0  0  0  0  0  0  0  0  0  0  0  0
   -0.3637    2.0314   -0.5245 C   0  0  0  0  0  0  0  0  0  0  0  0
   -0.7503    3.3728   -0.5266 C   0  0  0  0  0  0  0  0  0  0  0  0
   -1.4535    3.9019    0.5514 C   0  0  0  0  0  0  0  0  0  0  0  0
   -1.7857    3.0877    1.6312 C   0  0  0  0  0  0  0  0  0  0  0  0
   -1.4066    1.7400    1.6506 C   0  0  0  0  0  0  0  0  0  0  0  0
   -1.9379    0.7830    3.0329 Cl  0  0  0  0  0  0  0  0  0  0  0  0
    4.7366    0.5598   -0.7392 H   0  0  0  0  0  0  0  0  0  0  0  0
    3.6663    1.8068   -1.5032 H   0  0  0  0  0  0  0  0  0  0  0  0
    4.6252    0.7163   -2.5413 H   0  0  0  0  0  0  0  0  0  0  0  0
    4.0246   -1.5818   -2.7983 H   0  0  0  0  0  0  0  0  0  0  0  0
    2.6150   -2.2681   -1.9555 H   0  0  0  0  0  0  0  0  0  0  0  0
    4.1127   -1.8736   -1.0154 H   0  0  0  0  0  0  0  0  0  0  0  0
    2.7186   -0.6288    0.4714 H   0  0  0  0  0  0  0  0  0  0  0  0
    2.0594    0.9472   -0.0380 H   0  0  0  0  0  0  0  0  0  0  0  0
    0.3665   -0.5148   -1.5279 H   0  0  0  0  0  0  0  0  0  0  0  0
    0.8824   -1.8390   -0.4678 H   0  0  0  0  0  0  0  0  0  0  0  0
    0.9897    0.0456    2.0651 H   0  0  0  0  0  0  0  0  0  0  0  0
   -2.1910   -0.0154   -1.3678 H   0  0  0  0  0  0  0  0  0  0  0  0
   -4.1968   -1.3781   -1.7565 H   0  0  0  0  0  0  0  0  0  0  0  0
   -4.6952   -3.3183   -0.3005 H   0  0  0  0  0  0  0  0  0  0  0  0
   -3.1615   -3.9020    1.5534 H   0  0  0  0  0  0  0  0  0  0  0  0
   -1.1521   -2.5670    1.9732 H   0  0  0  0  0  0  0  0  0  0  0  0
    0.1631    1.6740   -1.3953 H   0  0  0  0  0  0  0  0  0  0  0  0
   -0.5076    4.0033   -1.3724 H   0  0  0  0  0  0  0  0  0  0  0  0
   -1.7536    4.9418    0.5443 H   0  0  0  0  0  0  0  0  0  0  0  0
   -2.3518    3.5052    2.4544 H   0  0  0  0  0  0  0  0  0  0  0  0
  1  2  1  0
  2  3  1  0
  2  4  1  0
  4  5  1  0
  5  6  1  0
  6  7  1  0
  6  8  1  0
  8  9  2  0
  9 10  1  0
 10 11  2  0
 11 12  1  0
 12 13  2  0
  6 14  1  0
 14 15  2  0
 15 16  1  0
 16 17  2  0
 17 18  1  0
 18 19  2  0
 19 20  1  0
 13  8  1  0
 19 14  1  0
  1 21  1  0
  1 22  1  0
  1 23  1  0
  3 24  1  0
  3 25  1  0
  3 26  1  0
  4 27  1  0
  4 28  1  0
  5 29  1  0
  5 30  1  0
  7 31  1  0
  9 32  1  0
 10 33  1  0
 11 34  1  0
 12 35  1  0
 13 36  1  0
 15 37  1  0
 16 38  1  0
 17 39  1  0
 18 40  1  0
M  END
$$$$
