
     RDKit          3D

 45 48  0  0  0  0  0  0  0  0999 V2000
   -2.3685   -0.1781   -0.1399 C   0  0  0  0  0  0  0  0  0  0  0  0
   -2.0890    0.9134    0.8918 C   0  0  0  0  0  0  0  0  0  0  0  0
   -0.5846    1.1671    1.0640 C   0  0  0  0  0  0  0  0  0  0  0  0
    0.3408   -0.0361    0.8719 C   0  0  0  0  0  0  0  0  0  0  0  0
   -0.2436   -1.4015    0.4988 C   0  0  0  0  0  0  0  0  0  0  0  0
   -1.7709   -1.4842    0.3805 C   0  0  0  0  0  0  0  0  0  0  0  0
    1.7047    0.1395    0.8707 C   0  0  0  0  0  0  0  0  0  0  0  0
    2.3634    1.4746    1.0704 C   0  0  0  0  0  0  0  0  0  0  0  0
    1.7498    2.4384    1.8761 O   0  0  0  0  0  0  0  0  0  0  0  0
    3.5710    1.7399    0.5216 C   0  0  0  0  0  0  0  0  0  0  0  0
    4.1444    2.9945    0.7501 O   0  0  0  0  0  0  0  0  0  0  0  0
    4.2979    0.7024   -0.2726 C   0  0  0  0  0  0  0  0  0  0  0  0
    5.4177    1.0241   -1.0658 C   0  0  0  0  0  0  0  0  0  0  0  0
    6.1203    0.0222   -1.7409 C   0  0  0  0  0  0  0  0  0  0  0  0
    5.7160   -1.3087   -1.6399 C   0  0  0  0  0  0  0  0  0  0  0  0
    4.5939   -1.6417   -0.8805 C   0  0  0  0  0  0  0  0  0  0  0  0
    3.8728   -0.6404   -0.2083 C   0  0  0  0  0  0  0  0  0  0  0  0
    2.6467   -0.9657    0.5385 C   0  0  0  0  0  0  0  0  0  0  0  0
    2.4358   -2.1509    0.9131 O   0  0  0  0  0  0  0  0  0  0  0  0
   -3.8566   -0.3175   -0.4101 C   0  0  0  0  0  0  0  0  0  0  0  0
   -4.7586   -0.6613    0.6166 C   0  0  0  0  0  0  0  0  0  0  0  0
   -6.1249   -0.7842    0.3478 C   0  0  0  0  0  0  0  0  0  0  0  0
   -6.6084   -0.5663   -0.9453 C   0  0  0  0  0  0  0  0  0  0  0  0
   -8.3233   -0.7212   -1.2796 Cl  0  0  0  0  0  0  0  0  0  0  0  0
   -5.7233   -0.2245   -1.9715 C   0  0  0  0  0  0  0  0  0  0  0  0
   -4.3560   -0.1004   -1.7074 C   0  0  0  0  0  0  0  0  0  0  0  0
   -1.8482    0.0932   -1.0874 H   0  0  0  0  0  0  0  0  0  0  0  0
   -2.5819    1.8605    0.5785 H   0  0  0  0  0  0  0  0  0  0  0  0
   -2.5217    0.6294    1.8769 H   0  0  0  0  0  0  0  0  0  0  0  0
   -0.2938    1.9518    0.3310 H   0  0  0  0  0  0  0  0  0  0  0  0
   -0.4503    1.5681    2.0904 H   0  0  0  0  0  0  0  0  0  0  0  0
    0.1836   -1.7080   -0.4816 H   0  0  0  0  0  0  0  0  0  0  0  0
    0.0566   -2.1493    1.2628 H   0  0  0  0  0  0  0  0  0  0  0  0
   -2.1971   -1.7320    1.3782 H   0  0  0  0  0  0  0  0  0  0  0  0
   -2.0355   -2.3185   -0.3065 H   0  0  0  0  0  0  0  0  0  0  0  0
    2.1500    3.3509    2.0586 H   0  0  0  0  0  0  0  0  0  0  0  0
    5.0946    3.2287    0.4984 H   0  0  0  0  0  0  0  0  0  0  0  0
    5.7515    2.0436   -1.1880 H   0  0  0  0  0  0  0  0  0  0  0  0
    6.9805    0.2795   -2.3455 H   0  0  0  0  0  0  0  0  0  0  0  0
    6.2638   -2.0815   -2.1636 H   0  0  0  0  0  0  0  0  0  0  0  0
    4.2777   -2.6765   -0.8352 H   0  0  0  0  0  0  0  0  0  0  0  0
   -4.4088   -0.8348    1.6256 H   0  0  0  0  0  0  0  0  0  0  0  0
   -6.8068   -1.0490    1.1459 H   0  0  0  0  0  0  0  0  0  0  0  0
   -6.0932   -0.0546   -2.9747 H   0  0  0  0  0  0  0  0  0  0  0  0
   -3.6885    0.1654   -2.5175 H   0  0  0  0  0  0  0  0  0  0  0  0
  1  2  1  0
  2  3  1  0
  3  4  1  0
  4  5  1  0
  5  6  1  0
  4  7  2  3
  7  8  1  0
  8  9  1  0
  8 10  2  0
 10 11  1  0
 10 12  1  0
 12 13  2  0
 13 14  1  0
 14 15  2  0
 15 16  1  0
 16 17  2  0
 17 18  1  0
 18 19  2  0
  1 20  1  0
 20 21  2  0
 21 22  1  0
 22 23  2  0
 23 24  1  0
 23 25  1  0
 25 26  2  0
  6  1  1  0
 18  7  1  0
 26 20  1  0
 17 12  1  0
  1 27  1  0
  2 28  1  0
  2 29  1  0
  3 30  1  0
  3 31  1  0
  5 32  1  0
  5 33  1  0
  6 34  1  0
  6 35  1  0
  9 36  1  0
 11 37  1  0
 13 38  1  0
 14 39  1  0
 15 40  1  0
 16 41  1  0
 21 42  1  0
 22 43  1  0
 25 44  1  0
 26 45  1  0
M  END
$$$$
