
     RDKit          3D

 54 57  0  0  0  0  0  0  0  0999 V2000
    4.9010    0.2362    4.1985 C   0  0  0  0  0  0  0  0  0  0  0  0
    3.8785   -0.8870    4.0644 C   0  0  0  0  0  0  0  0  0  0  0  0
    2.9573   -0.6331    2.9087 C   0  0  0  0  0  0  0  0  0  0  0  0
    3.2600   -0.7763    1.5513 C   0  0  0  0  0  0  0  0  0  0  0  0
    4.5297   -1.2415    0.9547 C   0  0  0  0  0  0  0  0  0  0  0  0
    5.1286   -2.2166    1.4828 O   0  0  0  0  0  0  0  0  0  0  0  0
    5.1183   -0.5887   -0.2385 C   0  0  0  0  0  0  0  0  0  0  0  0
    5.9419   -1.3213   -1.1075 C   0  0  0  0  0  0  0  0  0  0  0  0
    6.5053   -0.7138   -2.2339 C   0  0  0  0  0  0  0  0  0  0  0  0
    7.6093   -1.7556   -3.3997 Br  0  0  0  0  0  0  0  0  0  0  0  0
    6.2608    0.6404   -2.5043 C   0  0  0  0  0  0  0  0  0  0  0  0
    6.8336    1.2183   -3.6388 O   0  0  0  0  0  0  0  0  0  0  0  0
    5.4479    1.3864   -1.6286 C   0  0  0  0  0  0  0  0  0  0  0  0
    5.0742    3.2425   -1.9242 Br  0  0  0  0  0  0  0  0  0  0  0  0
    4.8895    0.7726   -0.5022 C   0  0  0  0  0  0  0  0  0  0  0  0
    2.1064   -0.3913    0.8937 C   0  0  0  0  0  0  0  0  0  0  0  0
    1.2046   -0.0374    1.8634 C   0  0  0  0  0  0  0  0  0  0  0  0
    1.7244   -0.1834    3.0579 O   0  0  0  0  0  0  0  0  0  0  0  0
   -0.0788    0.4008    1.5481 C   0  0  0  0  0  0  0  0  0  0  0  0
   -0.4408    0.4685    0.1870 C   0  0  0  0  0  0  0  0  0  0  0  0
    0.4836    0.0775   -0.8114 C   0  0  0  0  0  0  0  0  0  0  0  0
    1.7726   -0.3613   -0.4610 C   0  0  0  0  0  0  0  0  0  0  0  0
   -2.0567    0.9951   -0.2696 S   0  0  0  0  0  6  0  0  0  0  0  0
   -1.9912    1.7064   -1.5924 O   0  0  0  0  0  0  0  0  0  0  0  0
   -2.5887    1.9365    0.7750 O   0  0  0  0  0  0  0  0  0  0  0  0
   -3.0890   -0.3936   -0.3941 N   0  0  0  0  0  0  0  0  0  0  0  0
   -4.4791   -0.3361   -0.7617 C   0  0  0  0  0  0  0  0  0  0  0  0
   -5.2148   -1.5295   -0.8391 C   0  0  0  0  0  0  0  0  0  0  0  0
   -6.5668   -1.5110   -1.1927 C   0  0  0  0  0  0  0  0  0  0  0  0
   -7.2035   -0.2977   -1.4798 C   0  0  0  0  0  0  0  0  0  0  0  0
   -6.4800    0.8981   -1.3969 C   0  0  0  0  0  0  0  0  0  0  0  0
   -5.1274    0.8819   -1.0433 C   0  0  0  0  0  0  0  0  0  0  0  0
   -8.9113   -0.2724   -1.9084 S   0  0  0  0  0  6  0  0  0  0  0  0
   -9.8667   -0.1102   -0.4772 N   0  0  0  0  0  0  0  0  0  0  0  0
   -9.2781   -1.5479   -2.6139 O   0  0  0  0  0  0  0  0  0  0  0  0
   -9.1877    0.8830   -2.8292 O   0  0  0  0  0  0  0  0  0  0  0  0
    4.3862    1.2091    4.3503 H   0  0  0  0  0  0  0  0  0  0  0  0
    5.5346    0.2958    3.2881 H   0  0  0  0  0  0  0  0  0  0  0  0
    5.5558    0.0395    5.0733 H   0  0  0  0  0  0  0  0  0  0  0  0
    3.2820   -0.9478    4.9998 H   0  0  0  0  0  0  0  0  0  0  0  0
    4.3995   -1.8580    3.9325 H   0  0  0  0  0  0  0  0  0  0  0  0
    6.1378   -2.3699   -0.9197 H   0  0  0  0  0  0  0  0  0  0  0  0
    6.6966    2.1885   -3.8906 H   0  0  0  0  0  0  0  0  0  0  0  0
    4.2824    1.3649    0.1708 H   0  0  0  0  0  0  0  0  0  0  0  0
   -0.7739    0.6722    2.3321 H   0  0  0  0  0  0  0  0  0  0  0  0
    0.2020    0.1062   -1.8561 H   0  0  0  0  0  0  0  0  0  0  0  0
    2.4728   -0.6733   -1.2240 H   0  0  0  0  0  0  0  0  0  0  0  0
   -2.6570   -1.3225   -0.1894 H   0  0  0  0  0  0  0  0  0  0  0  0
   -4.7392   -2.4780   -0.6227 H   0  0  0  0  0  0  0  0  0  0  0  0
   -7.1161   -2.4426   -1.2395 H   0  0  0  0  0  0  0  0  0  0  0  0
   -6.9629    1.8449   -1.6031 H   0  0  0  0  0  0  0  0  0  0  0  0
   -4.6018    1.8240   -0.9911 H   0  0  0  0  0  0  0  0  0  0  0  0
   -9.5518    0.7628    0.0023 H   0  0  0  0  0  0  0  0  0  0  0  0
   -9.6136   -0.9062    0.1502 H   0  0  0  0  0  0  0  0  0  0  0  0
  1  2  1  0
  2  3  1  0
  3  4  2  0
  4  5  1  0
  5  6  2  0
  5  7  1  0
  7  8  2  0
  8  9  1  0
  9 10  1  0
  9 11  2  0
 11 12  1  0
 11 13  1  0
 13 14  1  0
 13 15  2  0
  4 16  1  0
 16 17  2  0
 17 18  1  0
 17 19  1  0
 19 20  2  0
 20 21  1  0
 21 22  2  0
 20 23  1  0
 23 24  2  0
 23 25  2  0
 23 26  1  0
 26 27  1  0
 27 28  2  0
 28 29  1  0
 29 30  2  0
 30 31  1  0
 31 32  2  0
 30 33  1  0
 33 34  1  0
 33 35  2  0
 33 36  2  0
 18  3  1  0
 32 27  1  0
 15  7  1  0
 22 16  1  0
  1 37  1  0
  1 38  1  0
  1 39  1  0
  2 40  1  0
  2 41  1  0
  8 42  1  0
 12 43  1  0
 15 44  1  0
 19 45  1  0
 21 46  1  0
 22 47  1  0
 26 48  1  0
 28 49  1  0
 29 50  1  0
 31 51  1  0
 32 52  1  0
 34 53  1  0
 34 54  1  0
M  END
$$$$
