
     RDKit          3D

 31 32  0  0  0  0  0  0  0  0999 V2000
   -2.9832    1.8165    0.0448 C   0  0  0  0  0  0  0  0  0  0  0  0
   -2.9527    0.5455    0.7855 N   0  0  0  0  0  0  0  0  0  0  0  0
   -3.9771   -0.3857    0.2878 C   0  0  0  0  0  0  0  0  0  0  0  0
   -1.6020   -0.0573    0.8413 C   0  0  0  0  0  0  0  0  0  0  0  0
   -1.0398   -0.4837   -0.5295 C   0  0  0  0  0  0  0  0  0  0  0  0
    0.3419   -1.0442   -0.3711 C   0  0  0  0  0  0  0  0  0  0  0  0
    0.6810   -2.3842   -0.2099 C   0  0  0  0  0  0  0  0  0  0  0  0
    2.0142   -2.5137   -0.0216 N   0  0  0  0  0  0  0  0  0  0  0  0
    2.5165   -1.2668   -0.0492 C   0  0  0  0  0  0  0  0  0  0  0  0
    1.5254   -0.3422   -0.2543 C   0  0  0  0  0  0  0  0  0  0  0  0
    1.7931    1.0261   -0.2972 C   0  0  0  0  0  0  0  0  0  0  0  0
    3.1307    1.4417   -0.1304 C   0  0  0  0  0  0  0  0  0  0  0  0
    3.4586    2.7949   -0.1661 O   0  0  0  0  0  0  0  0  0  0  0  0
    4.1510    0.4849    0.0761 C   0  0  0  0  0  0  0  0  0  0  0  0
    3.8469   -0.8880    0.1206 C   0  0  0  0  0  0  0  0  0  0  0  0
   -2.8989    1.6543   -1.0515 H   0  0  0  0  0  0  0  0  0  0  0  0
   -3.9406    2.3417    0.2481 H   0  0  0  0  0  0  0  0  0  0  0  0
   -2.1606    2.4842    0.3803 H   0  0  0  0  0  0  0  0  0  0  0  0
   -3.9032   -1.3629    0.8118 H   0  0  0  0  0  0  0  0  0  0  0  0
   -3.8838   -0.5493   -0.8077 H   0  0  0  0  0  0  0  0  0  0  0  0
   -4.9872    0.0271    0.4957 H   0  0  0  0  0  0  0  0  0  0  0  0
   -1.6286   -0.9434    1.5136 H   0  0  0  0  0  0  0  0  0  0  0  0
   -0.9028    0.6669    1.3153 H   0  0  0  0  0  0  0  0  0  0  0  0
   -0.9914    0.3814   -1.2219 H   0  0  0  0  0  0  0  0  0  0  0  0
   -1.6856   -1.2608   -0.9885 H   0  0  0  0  0  0  0  0  0  0  0  0
   -0.0115   -3.2159   -0.2185 H   0  0  0  0  0  0  0  0  0  0  0  0
    2.5405   -3.4029    0.1300 H   0  0  0  0  0  0  0  0  0  0  0  0
    0.9993    1.7458   -0.4517 H   0  0  0  0  0  0  0  0  0  0  0  0
    2.7519    3.5064   -0.3115 H   0  0  0  0  0  0  0  0  0  0  0  0
    5.1758    0.8089    0.2049 H   0  0  0  0  0  0  0  0  0  0  0  0
    4.6222   -1.6251    0.2849 H   0  0  0  0  0  0  0  0  0  0  0  0
  1  2  1  0
  2  3  1  0
  2  4  1  0
  4  5  1  0
  5  6  1  0
  6  7  2  0
  7  8  1  0
  8  9  1  0
  9 10  2  0
 10 11  1  0
 11 12  2  0
 12 13  1  0
 12 14  1  0
 14 15  2  0
 10  6  1  0
 15  9  1  0
  1 16  1  0
  1 17  1  0
  1 18  1  0
  3 19  1  0
  3 20  1  0
  3 21  1  0
  4 22  1  0
  4 23  1  0
  5 24  1  0
  5 25  1  0
  7 26  1  0
  8 27  1  0
 11 28  1  0
 13 29  1  0
 14 30  1  0
 15 31  1  0
M  END
$$$$
