
     RDKit          3D

 41 41  0  0  0  0  0  0  0  0999 V2000
    6.2128   -0.0479    1.8380 C   0  0  0  0  0  0  0  0  0  0  0  0
    5.5088    0.9043    1.0474 O   0  0  0  0  0  0  0  0  0  0  0  0
    4.2800    0.6566    0.4178 C   0  0  0  0  0  0  0  0  0  0  0  0
    3.6187   -0.5832    0.5126 C   0  0  0  0  0  0  0  0  0  0  0  0
    2.3945   -0.7791   -0.1334 C   0  0  0  0  0  0  0  0  0  0  0  0
    1.8152    0.2550   -0.8787 C   0  0  0  0  0  0  0  0  0  0  0  0
    2.4721    1.4889   -0.9761 C   0  0  0  0  0  0  0  0  0  0  0  0
    3.6962    1.6858   -0.3305 C   0  0  0  0  0  0  0  0  0  0  0  0
    0.2638   -0.0097   -1.6728 S   0  0  0  0  0  6  0  0  0  0  0  0
    0.4235   -1.1521   -2.6366 O   0  0  0  0  0  0  0  0  0  0  0  0
   -0.1404    1.2142   -2.4483 O   0  0  0  0  0  0  0  0  0  0  0  0
   -0.9747   -0.4093   -0.5020 N   0  0  0  0  0  0  0  0  0  0  0  0
   -2.2884   -0.5360   -1.1692 C   0  0  0  0  0  0  0  0  0  0  0  0
   -3.2948   -1.3489   -0.3253 C   0  0  0  0  0  0  0  0  0  0  0  0
   -4.6342   -1.4604   -1.0637 C   0  0  0  0  0  0  0  0  0  0  0  0
   -2.7503   -2.7475   -0.0036 C   0  0  0  0  0  0  0  0  0  0  0  0
   -0.9635    0.5122    0.6592 C   0  0  0  0  0  0  0  0  0  0  0  0
   -1.3454    1.9321    0.3260 C   0  0  0  0  0  0  0  0  0  0  0  0
   -0.4573    2.7515   -0.0312 O   0  0  0  0  0  0  0  0  0  0  0  0
   -2.7060    2.3609    0.4293 N   0  0  0  0  0  0  0  0  0  0  0  0
   -3.0539    3.6301    0.1096 O   0  0  0  0  0  0  0  0  0  0  0  0
    5.5947   -0.3529    2.7088 H   0  0  0  0  0  0  0  0  0  0  0  0
    6.4734   -0.9359    1.2242 H   0  0  0  0  0  0  0  0  0  0  0  0
    7.1500    0.4131    2.2116 H   0  0  0  0  0  0  0  0  0  0  0  0
    4.0406   -1.3995    1.0827 H   0  0  0  0  0  0  0  0  0  0  0  0
    1.8942   -1.7357   -0.0488 H   0  0  0  0  0  0  0  0  0  0  0  0
    2.0401    2.3002   -1.5470 H   0  0  0  0  0  0  0  0  0  0  0  0
    4.1942    2.6437   -0.4112 H   0  0  0  0  0  0  0  0  0  0  0  0
   -2.7079    0.4626   -1.4151 H   0  0  0  0  0  0  0  0  0  0  0  0
   -2.1647   -1.0679   -2.1391 H   0  0  0  0  0  0  0  0  0  0  0  0
   -3.4939   -0.8218    0.6308 H   0  0  0  0  0  0  0  0  0  0  0  0
   -5.0436   -0.4479   -1.2681 H   0  0  0  0  0  0  0  0  0  0  0  0
   -5.3717   -2.0099   -0.4404 H   0  0  0  0  0  0  0  0  0  0  0  0
   -4.5088   -1.9984   -2.0281 H   0  0  0  0  0  0  0  0  0  0  0  0
   -3.4946   -3.3223    0.5877 H   0  0  0  0  0  0  0  0  0  0  0  0
   -1.8220   -2.6719    0.6012 H   0  0  0  0  0  0  0  0  0  0  0  0
   -2.5262   -3.3055   -0.9381 H   0  0  0  0  0  0  0  0  0  0  0  0
   -1.6357    0.1280    1.4527 H   0  0  0  0  0  0  0  0  0  0  0  0
    0.0433    0.5102    1.1267 H   0  0  0  0  0  0  0  0  0  0  0  0
   -3.4413    1.7024    0.7705 H   0  0  0  0  0  0  0  0  0  0  0  0
   -3.2970    3.5919   -0.8507 H   0  0  0  0  0  0  0  0  0  0  0  0
  1  2  1  0
  2  3  1  0
  3  4  2  0
  4  5  1  0
  5  6  2  0
  6  7  1  0
  7  8  2  0
  6  9  1  0
  9 10  2  0
  9 11  2  0
  9 12  1  0
 12 13  1  0
 13 14  1  0
 14 15  1  0
 14 16  1  0
 12 17  1  0
 17 18  1  0
 18 19  2  0
 18 20  1  0
 20 21  1  0
  8  3  1  0
  1 22  1  0
  1 23  1  0
  1 24  1  0
  4 25  1  0
  5 26  1  0
  7 27  1  0
  8 28  1  0
 13 29  1  0
 13 30  1  0
 14 31  1  0
 15 32  1  0
 15 33  1  0
 15 34  1  0
 16 35  1  0
 16 36  1  0
 16 37  1  0
 17 38  1  0
 17 39  1  0
 20 40  1  0
 21 41  1  0
M  END
$$$$
