
     RDKit          3D

 33 35  0  0  0  0  0  0  0  0999 V2000
    5.2241    0.9748   -0.9231 C   0  0  0  0  0  0  0  0  0  0  0  0
    5.0788   -0.1832   -0.1073 O   0  0  0  0  0  0  0  0  0  0  0  0
    3.8482   -0.7065    0.3177 C   0  0  0  0  0  0  0  0  0  0  0  0
    3.8587   -1.8524    1.1189 C   0  0  0  0  0  0  0  0  0  0  0  0
    2.6624   -2.4151    1.5642 C   0  0  0  0  0  0  0  0  0  0  0  0
    1.4413   -1.8358    1.2149 C   0  0  0  0  0  0  0  0  0  0  0  0
    1.4015   -0.6796    0.4150 C   0  0  0  0  0  0  0  0  0  0  0  0
    2.6148   -0.1218   -0.0344 C   0  0  0  0  0  0  0  0  0  0  0  0
    0.0921   -0.0786    0.0546 C   0  0  0  0  0  0  0  0  0  0  0  0
   -1.0932   -0.6920    0.3203 N   0  0  0  0  0  0  0  0  0  0  0  0
   -2.0084    0.1744   -0.1529 C   0  0  0  0  0  0  0  0  0  0  0  0
   -1.3837    1.2682   -0.6747 C   0  0  0  0  0  0  0  0  0  0  0  0
   -0.0579    1.1274   -0.5542 N   0  0  0  0  0  0  0  0  0  0  0  0
   -2.0866    2.3369   -1.2210 C   0  0  0  0  0  0  0  0  0  0  0  0
   -3.4891    2.2565   -1.2273 C   0  0  0  0  0  0  0  0  0  0  0  0
   -4.1462    1.1273   -0.6889 C   0  0  0  0  0  0  0  0  0  0  0  0
   -3.4071    0.0563   -0.1284 C   0  0  0  0  0  0  0  0  0  0  0  0
   -4.0754   -1.1414    0.4373 C   0  0  0  0  0  0  0  0  0  0  0  0
   -5.4277   -1.0905    0.8995 N   0  0  0  0  0  0  0  0  0  0  0  0
   -3.4439   -2.2287    0.5238 O   0  0  0  0  0  0  0  0  0  0  0  0
    6.3032    1.1601   -1.1005 H   0  0  0  0  0  0  0  0  0  0  0  0
    4.7911    1.8599   -0.4106 H   0  0  0  0  0  0  0  0  0  0  0  0
    4.7251    0.8171   -1.9025 H   0  0  0  0  0  0  0  0  0  0  0  0
    4.8001   -2.3099    1.3958 H   0  0  0  0  0  0  0  0  0  0  0  0
    2.6814   -3.3032    2.1828 H   0  0  0  0  0  0  0  0  0  0  0  0
    0.5280   -2.2914    1.5766 H   0  0  0  0  0  0  0  0  0  0  0  0
    2.6054    0.7537   -0.6641 H   0  0  0  0  0  0  0  0  0  0  0  0
    0.6710    1.8132   -0.8493 H   0  0  0  0  0  0  0  0  0  0  0  0
   -1.5731    3.1977   -1.6292 H   0  0  0  0  0  0  0  0  0  0  0  0
   -4.0702    3.0643   -1.6529 H   0  0  0  0  0  0  0  0  0  0  0  0
   -5.2259    1.0915   -0.7368 H   0  0  0  0  0  0  0  0  0  0  0  0
   -5.8939   -1.9603    1.2409 H   0  0  0  0  0  0  0  0  0  0  0  0
   -5.9452   -0.1890    0.9860 H   0  0  0  0  0  0  0  0  0  0  0  0
  1  2  1  0
  2  3  1  0
  3  4  2  0
  4  5  1  0
  5  6  2  0
  6  7  1  0
  7  8  2  0
  7  9  1  0
  9 10  2  0
 10 11  1  0
 11 12  2  0
 12 13  1  0
 12 14  1  0
 14 15  2  0
 15 16  1  0
 16 17  2  0
 17 18  1  0
 18 19  1  0
 18 20  2  0
  8  3  1  0
 13  9  1  0
 17 11  1  0
  1 21  1  0
  1 22  1  0
  1 23  1  0
  4 24  1  0
  5 25  1  0
  6 26  1  0
  8 27  1  0
 13 28  1  0
 14 29  1  0
 15 30  1  0
 16 31  1  0
 19 32  1  0
 19 33  1  0
M  END
$$$$
