
     RDKit          3D

104107  0  0  0  0  0  0  0  0999 V2000
    2.9613   -1.3775   -2.3266 N   0  0  0  0  0  0  0  0  0  0  0  0
    1.7996   -1.9799   -1.6668 C   0  0  1  0  0  0  0  0  0  0  0  0
    2.0873   -3.4442   -1.2925 C   0  0  0  0  0  0  0  0  0  0  0  0
    2.3404   -4.3089   -2.5391 C   0  0  0  0  0  0  0  0  0  0  0  0
    2.4893   -5.8009   -2.2033 C   0  0  0  0  0  0  0  0  0  0  0  0
    3.8087   -6.1163   -1.4802 C   0  0  0  0  0  0  0  0  0  0  0  0
    3.9743   -7.5588   -1.3044 N   0  0  0  0  0  4  0  0  0  0  0  0
    1.4637   -1.1913   -0.4304 C   0  0  0  0  0  0  0  0  0  0  0  0
    2.3908   -0.8141    0.3368 O   0  0  0  0  0  0  0  0  0  0  0  0
    0.0963   -0.9062   -0.1028 N   0  0  0  0  0  0  0  0  0  0  0  0
   -0.2720   -0.0779    1.0491 C   0  0  1  0  0  0  0  0  0  0  0  0
   -0.0025    1.4167    0.7699 C   0  0  0  0  0  0  0  0  0  0  0  0
   -0.8576    1.9965   -0.3309 C   0  0  0  0  0  0  0  0  0  0  0  0
   -0.5425    1.7524   -1.6773 C   0  0  0  0  0  0  0  0  0  0  0  0
   -1.3417    2.2790   -2.6961 C   0  0  0  0  0  0  0  0  0  0  0  0
   -2.4557    3.0607   -2.3787 C   0  0  0  0  0  0  0  0  0  0  0  0
   -2.7696    3.3197   -1.0419 C   0  0  0  0  0  0  0  0  0  0  0  0
   -1.9763    2.7900   -0.0208 C   0  0  0  0  0  0  0  0  0  0  0  0
   -2.0119   -0.3853    1.5242 P   0  0  0  0  0  5  0  0  0  0  0  0
   -2.9959   -0.2635    0.1492 O   0  0  0  0  0  0  0  0  0  0  0  0
   -2.1246   -1.7732    2.1157 O   0  0  0  0  0  0  0  0  0  0  0  0
   -2.5030    0.8166    2.7152 N   0  0  0  0  0  0  0  0  0  0  0  0
   -3.9166    0.6561    3.1058 C   0  0  1  0  0  0  0  0  0  0  0  0
   -4.0514   -0.0805    4.4458 C   0  0  0  0  0  0  0  0  0  0  0  0
   -4.5514    2.0218    3.2077 C   0  0  0  0  0  0  0  0  0  0  0  0
   -3.8896    2.9581    3.7349 O   0  0  0  0  0  0  0  0  0  0  0  0
   -5.9002    2.2773    2.7635 N   0  0  0  0  0  0  0  0  0  0  0  0
   -6.5305    3.5784    2.9262 C   0  0  0  0  0  0  0  0  0  0  0  0
   -7.9403    3.4315    2.3692 C   0  0  0  0  0  0  0  0  0  0  0  0
   -8.2023    1.9303    2.3083 C   0  0  0  0  0  0  0  0  0  0  0  0
   -6.8223    1.2759    2.2392 C   0  0  1  0  0  0  0  0  0  0  0  0
   -6.4710    0.9292    0.8186 C   0  0  0  0  0  0  0  0  0  0  0  0
   -6.5225   -0.2731    0.4406 O   0  0  0  0  0  0  0  0  0  0  0  0
   -6.1353    1.9437   -0.0835 O   0  0  0  0  0  0  0  0  0  0  0  0
   -5.8344    1.6833   -1.4489 C   0  0  0  0  0  0  0  0  0  0  0  0
    2.8311   -0.2884   -3.2529 C   0  0  0  0  0  0  0  0  0  0  0  0
    1.7232   -0.0587   -3.8086 O   0  0  0  0  0  0  0  0  0  0  0  0
    4.0201    0.5640   -3.6133 C   0  0  2  0  0  0  0  0  0  0  0  0
    4.9325   -0.1462   -4.6159 C   0  0  0  0  0  0  0  0  0  0  0  0
    6.1389   -0.6338   -3.8150 C   0  0  0  0  0  0  0  0  0  0  0  0
    6.1706    0.2111   -2.5476 C   0  0  0  0  0  0  0  0  0  0  0  0
    4.8548    0.8160   -2.4468 N   0  0  0  0  0  0  0  0  0  0  0  0
    4.4579    1.6225   -1.3283 C   0  0  0  0  0  0  0  0  0  0  0  0
    3.2850    2.0830   -1.2651 O   0  0  0  0  0  0  0  0  0  0  0  0
    5.3826    1.8958   -0.3135 O   0  0  0  0  0  0  0  0  0  0  0  0
    5.0592    2.6192    0.8723 C   0  0  0  0  0  0  0  0  0  0  0  0
    4.2718    1.7588    1.8236 C   0  0  0  0  0  0  0  0  0  0  0  0
    4.7413    0.4808    2.1714 C   0  0  0  0  0  0  0  0  0  0  0  0
    4.0282   -0.3095    3.0784 C   0  0  0  0  0  0  0  0  0  0  0  0
    2.8498    0.1740    3.6530 C   0  0  0  0  0  0  0  0  0  0  0  0
    2.3866    1.4512    3.3270 C   0  0  0  0  0  0  0  0  0  0  0  0
    3.0946    2.2436    2.4175 C   0  0  0  0  0  0  0  0  0  0  0  0
    3.9124   -1.6124   -1.9624 H   0  0  0  0  0  0  0  0  0  0  0  0
    0.9269   -1.9632   -2.3566 H   0  0  0  0  0  0  0  0  0  0  0  0
    1.2123   -3.8534   -0.7400 H   0  0  0  0  0  0  0  0  0  0  0  0
    2.9704   -3.4823   -0.6189 H   0  0  0  0  0  0  0  0  0  0  0  0
    3.2487   -3.9548   -3.0740 H   0  0  0  0  0  0  0  0  0  0  0  0
    1.4782   -4.1982   -3.2327 H   0  0  0  0  0  0  0  0  0  0  0  0
    1.6292   -6.1372   -1.5839 H   0  0  0  0  0  0  0  0  0  0  0  0
    2.4600   -6.3719   -3.1569 H   0  0  0  0  0  0  0  0  0  0  0  0
    3.8191   -5.6287   -0.4816 H   0  0  0  0  0  0  0  0  0  0  0  0
    4.6639   -5.7193   -2.0711 H   0  0  0  0  0  0  0  0  0  0  0  0
    4.8706   -7.7411   -0.7979 H   0  0  0  0  0  0  0  0  0  0  0  0
    3.1823   -7.9451   -0.7409 H   0  0  0  0  0  0  0  0  0  0  0  0
    4.0105   -8.0330   -2.2360 H   0  0  0  0  0  0  0  0  0  0  0  0
   -0.6540   -1.3130   -0.7060 H   0  0  0  0  0  0  0  0  0  0  0  0
    0.3470   -0.3805    1.9211 H   0  0  0  0  0  0  0  0  0  0  0  0
    1.0658    1.5508    0.4985 H   0  0  0  0  0  0  0  0  0  0  0  0
   -0.1532    1.9923    1.7088 H   0  0  0  0  0  0  0  0  0  0  0  0
    0.3230    1.1586   -1.9356 H   0  0  0  0  0  0  0  0  0  0  0  0
   -1.0954    2.0833   -3.7317 H   0  0  0  0  0  0  0  0  0  0  0  0
   -3.0739    3.4681   -3.1681 H   0  0  0  0  0  0  0  0  0  0  0  0
   -3.6298    3.9288   -0.7961 H   0  0  0  0  0  0  0  0  0  0  0  0
   -2.2349    2.9995    1.0092 H   0  0  0  0  0  0  0  0  0  0  0  0
   -3.6870   -0.9642    0.2572 H   0  0  0  0  0  0  0  0  0  0  0  0
   -1.8650    0.7328    3.5404 H   0  0  0  0  0  0  0  0  0  0  0  0
   -4.4661    0.0631    2.3493 H   0  0  0  0  0  0  0  0  0  0  0  0
   -3.5867   -1.0862    4.3750 H   0  0  0  0  0  0  0  0  0  0  0  0
   -3.5531    0.4882    5.2603 H   0  0  0  0  0  0  0  0  0  0  0  0
   -5.1236   -0.2097    4.7060 H   0  0  0  0  0  0  0  0  0  0  0  0
   -5.9653    4.3545    2.3658 H   0  0  0  0  0  0  0  0  0  0  0  0
   -6.5685    3.8426    4.0055 H   0  0  0  0  0  0  0  0  0  0  0  0
   -7.9822    3.8562    1.3420 H   0  0  0  0  0  0  0  0  0  0  0  0
   -8.6874    3.9480    3.0101 H   0  0  0  0  0  0  0  0  0  0  0  0
   -8.7105    1.6138    3.2460 H   0  0  0  0  0  0  0  0  0  0  0  0
   -8.8563    1.6661    1.4474 H   0  0  0  0  0  0  0  0  0  0  0  0
   -6.8106    0.3658    2.8790 H   0  0  0  0  0  0  0  0  0  0  0  0
   -4.9339    1.0380   -1.5231 H   0  0  0  0  0  0  0  0  0  0  0  0
   -5.6346    2.6428   -1.9679 H   0  0  0  0  0  0  0  0  0  0  0  0
   -6.6962    1.1840   -1.9401 H   0  0  0  0  0  0  0  0  0  0  0  0
    3.6749    1.5327   -4.0394 H   0  0  0  0  0  0  0  0  0  0  0  0
    4.4306   -0.9899   -5.1401 H   0  0  0  0  0  0  0  0  0  0  0  0
    5.2767    0.5853   -5.3801 H   0  0  0  0  0  0  0  0  0  0  0  0
    7.0803   -0.5270   -4.3963 H   0  0  0  0  0  0  0  0  0  0  0  0
    5.9963   -1.7038   -3.5468 H   0  0  0  0  0  0  0  0  0  0  0  0
    6.9418    1.0076   -2.6288 H   0  0  0  0  0  0  0  0  0  0  0  0
    6.3740   -0.4242   -1.6581 H   0  0  0  0  0  0  0  0  0  0  0  0
    4.5103    3.5499    0.6083 H   0  0  0  0  0  0  0  0  0  0  0  0
    6.0039    2.9196    1.3718 H   0  0  0  0  0  0  0  0  0  0  0  0
    5.6563    0.0965    1.7378 H   0  0  0  0  0  0  0  0  0  0  0  0
    4.3892   -1.2969    3.3353 H   0  0  0  0  0  0  0  0  0  0  0  0
    2.2971   -0.4395    4.3524 H   0  0  0  0  0  0  0  0  0  0  0  0
    1.4761    1.8259    3.7764 H   0  0  0  0  0  0  0  0  0  0  0  0
    2.7219    3.2310    2.1752 H   0  0  0  0  0  0  0  0  0  0  0  0
  1  2  1  0
  2  3  1  0
  3  4  1  0
  4  5  1  0
  5  6  1  0
  6  7  1  0
  2  8  1  0
  8  9  2  0
  8 10  1  0
 10 11  1  0
 11 12  1  0
 12 13  1  0
 13 14  2  0
 14 15  1  0
 15 16  2  0
 16 17  1  0
 17 18  2  0
 11 19  1  0
 19 20  1  0
 19 21  2  0
 19 22  1  0
 22 23  1  0
 23 24  1  0
 23 25  1  0
 25 26  2  0
 25 27  1  0
 27 28  1  0
 28 29  1  0
 29 30  1  0
 30 31  1  0
 31 32  1  0
 32 33  2  0
 32 34  1  0
 34 35  1  0
  1 36  1  0
 36 37  2  0
 36 38  1  0
 38 39  1  0
 39 40  1  0
 40 41  1  0
 41 42  1  0
 42 43  1  0
 43 44  2  0
 43 45  1  0
 45 46  1  0
 46 47  1  0
 47 48  2  0
 48 49  1  0
 49 50  2  0
 50 51  1  0
 51 52  2  0
 18 13  1  0
 31 27  1  0
 42 38  1  0
 52 47  1  0
  1 53  1  0
  2 54  1  6
  3 55  1  0
  3 56  1  0
  4 57  1  0
  4 58  1  0
  5 59  1  0
  5 60  1  0
  6 61  1  0
  6 62  1  0
  7 63  1  0
  7 64  1  0
  7 65  1  0
 10 66  1  0
 11 67  1  1
 12 68  1  0
 12 69  1  0
 14 70  1  0
 15 71  1  0
 16 72  1  0
 17 73  1  0
 18 74  1  0
 20 75  1  0
 22 76  1  0
 23 77  1  6
 24 78  1  0
 24 79  1  0
 24 80  1  0
 28 81  1  0
 28 82  1  0
 29 83  1  0
 29 84  1  0
 30 85  1  0
 30 86  1  0
 31 87  1  1
 35 88  1  0
 35 89  1  0
 35 90  1  0
 38 91  1  6
 39 92  1  0
 39 93  1  0
 40 94  1  0
 40 95  1  0
 41 96  1  0
 41 97  1  0
 46 98  1  0
 46 99  1  0
 48100  1  0
 49101  1  0
 50102  1  0
 51103  1  0
 52104  1  0
M  CHG  1   7   1
M  END
$$$$
