
     RDKit          3D

 61 64  0  0  0  0  0  0  0  0999 V2000
    4.9106    3.2647    2.7599 C   0  0  0  0  0  0  0  0  0  0  0  0
    5.1455    2.7731    1.3274 C   0  0  0  0  0  0  0  0  0  0  0  0
    5.1390    3.9534    0.3356 C   0  0  0  0  0  0  0  0  0  0  0  0
    4.1767    1.6968    0.9896 N   0  0  0  0  0  0  0  0  0  0  0  0
    4.7260    0.7448   -0.0053 C   0  0  0  0  0  0  0  0  0  0  0  0
    3.6583   -0.2326   -0.5439 C   0  0  0  0  0  0  0  0  0  0  0  0
    2.4799   -0.3668    0.4339 C   0  0  0  0  0  0  0  0  0  0  0  0
    1.8205    1.0101    0.6783 C   0  0  0  0  0  0  0  0  0  0  0  0
    2.8303    2.1697    0.6063 C   0  0  0  0  0  0  0  0  0  0  0  0
    1.4904   -1.3205   -0.0782 N   0  0  0  0  0  0  0  0  0  0  0  0
    0.4333   -1.8365    0.7461 C   0  0  0  0  0  0  0  0  0  0  0  0
    0.3903   -1.5348    1.9686 O   0  0  0  0  0  0  0  0  0  0  0  0
   -0.6005   -2.7251    0.1706 C   0  0  0  0  0  0  0  0  0  0  0  0
   -0.3856   -3.5644   -0.9205 C   0  0  0  0  0  0  0  0  0  0  0  0
   -1.5967   -4.1695   -1.1592 C   0  0  0  0  0  0  0  0  0  0  0  0
   -2.4936   -3.6944   -0.2353 C   0  0  0  0  0  0  0  0  0  0  0  0
   -3.8328   -4.1079   -0.2539 C   0  0  0  0  0  0  0  0  0  0  0  0
   -4.2271   -5.0332   -1.2372 C   0  0  0  0  0  0  0  0  0  0  0  0
   -3.2948   -5.5210   -2.1768 C   0  0  0  0  0  0  0  0  0  0  0  0
   -1.9596   -5.0850   -2.1446 C   0  0  0  0  0  0  0  0  0  0  0  0
   -1.8937   -2.8128    0.5985 N   0  0  0  0  0  0  0  0  0  0  0  0
   -2.5416   -2.0035    1.6397 C   0  0  0  0  0  0  0  0  0  0  0  0
   -2.7300   -0.5963    1.1589 C   0  0  0  0  0  0  0  0  0  0  0  0
   -1.9973    0.3187    1.6228 O   0  0  0  0  0  0  0  0  0  0  0  0
   -3.6872   -0.3156    0.1255 N   0  0  0  0  0  0  0  0  0  0  0  0
   -4.0040    1.0066   -0.3410 C   0  0  0  0  0  0  0  0  0  0  0  0
   -4.0677    2.1014    0.5407 C   0  0  0  0  0  0  0  0  0  0  0  0
   -4.3978    3.3735    0.0628 C   0  0  0  0  0  0  0  0  0  0  0  0
   -4.6801    3.5625   -1.2936 C   0  0  0  0  0  0  0  0  0  0  0  0
   -5.0953    5.1588   -1.8904 Cl  0  0  0  0  0  0  0  0  0  0  0  0
   -4.6412    2.4750   -2.1716 C   0  0  0  0  0  0  0  0  0  0  0  0
   -4.3124    1.2019   -1.6962 C   0  0  0  0  0  0  0  0  0  0  0  0
    3.9465    3.8065    2.8495 H   0  0  0  0  0  0  0  0  0  0  0  0
    5.7282    3.9524    3.0651 H   0  0  0  0  0  0  0  0  0  0  0  0
    4.9025    2.4013    3.4586 H   0  0  0  0  0  0  0  0  0  0  0  0
    6.1762    2.3492    1.3204 H   0  0  0  0  0  0  0  0  0  0  0  0
    5.2683    3.5949   -0.7059 H   0  0  0  0  0  0  0  0  0  0  0  0
    4.1947    4.5335    0.4036 H   0  0  0  0  0  0  0  0  0  0  0  0
    5.9806    4.6407    0.5666 H   0  0  0  0  0  0  0  0  0  0  0  0
    5.1826    1.2822   -0.8649 H   0  0  0  0  0  0  0  0  0  0  0  0
    5.5285    0.1502    0.4834 H   0  0  0  0  0  0  0  0  0  0  0  0
    4.1199   -1.2290   -0.7194 H   0  0  0  0  0  0  0  0  0  0  0  0
    3.2802    0.1415   -1.5215 H   0  0  0  0  0  0  0  0  0  0  0  0
    2.8863   -0.7533    1.3962 H   0  0  0  0  0  0  0  0  0  0  0  0
    1.3409    1.0041    1.6813 H   0  0  0  0  0  0  0  0  0  0  0  0
    1.0199    1.1908   -0.0727 H   0  0  0  0  0  0  0  0  0  0  0  0
    2.4812    2.9776    1.2832 H   0  0  0  0  0  0  0  0  0  0  0  0
    2.8469    2.5771   -0.4301 H   0  0  0  0  0  0  0  0  0  0  0  0
    1.5317   -1.6021   -1.0837 H   0  0  0  0  0  0  0  0  0  0  0  0
    0.5333   -3.7140   -1.4720 H   0  0  0  0  0  0  0  0  0  0  0  0
   -4.5597   -3.7374    0.4541 H   0  0  0  0  0  0  0  0  0  0  0  0
   -5.2544   -5.3716   -1.2748 H   0  0  0  0  0  0  0  0  0  0  0  0
   -3.6107   -6.2310   -2.9299 H   0  0  0  0  0  0  0  0  0  0  0  0
   -1.2388   -5.4457   -2.8672 H   0  0  0  0  0  0  0  0  0  0  0  0
   -1.9371   -2.0221    2.5698 H   0  0  0  0  0  0  0  0  0  0  0  0
   -3.5280   -2.4238    1.9182 H   0  0  0  0  0  0  0  0  0  0  0  0
   -4.0966   -1.1265   -0.3911 H   0  0  0  0  0  0  0  0  0  0  0  0
   -3.8890    1.9721    1.5996 H   0  0  0  0  0  0  0  0  0  0  0  0
   -4.4426    4.2095    0.7493 H   0  0  0  0  0  0  0  0  0  0  0  0
   -4.8670    2.6141   -3.2211 H   0  0  0  0  0  0  0  0  0  0  0  0
   -4.2865    0.3675   -2.3859 H   0  0  0  0  0  0  0  0  0  0  0  0
  1  2  1  0
  2  3  1  0
  2  4  1  0
  4  5  1  0
  5  6  1  0
  6  7  1  0
  7  8  1  0
  8  9  1  0
  7 10  1  0
 10 11  1  0
 11 12  2  0
 11 13  1  0
 13 14  2  0
 14 15  1  0
 15 16  2  0
 16 17  1  0
 17 18  2  0
 18 19  1  0
 19 20  2  0
 16 21  1  0
 21 22  1  0
 22 23  1  0
 23 24  2  0
 23 25  1  0
 25 26  1  0
 26 27  2  0
 27 28  1  0
 28 29  2  0
 29 30  1  0
 29 31  1  0
 31 32  2  0
  9  4  1  0
 21 13  1  0
 32 26  1  0
 20 15  1  0
  1 33  1  0
  1 34  1  0
  1 35  1  0
  2 36  1  0
  3 37  1  0
  3 38  1  0
  3 39  1  0
  5 40  1  0
  5 41  1  0
  6 42  1  0
  6 43  1  0
  7 44  1  0
  8 45  1  0
  8 46  1  0
  9 47  1  0
  9 48  1  0
 10 49  1  0
 14 50  1  0
 17 51  1  0
 18 52  1  0
 19 53  1  0
 20 54  1  0
 22 55  1  0
 22 56  1  0
 25 57  1  0
 27 58  1  0
 28 59  1  0
 31 60  1  0
 32 61  1  0
M  END
$$$$
