
     RDKit          3D

 61 65  0  0  0  0  0  0  0  0999 V2000
   -7.6879   -4.2922   -1.0288 C   0  0  0  0  0  0  0  0  0  0  0  0
   -6.5809   -3.3606   -0.6641 C   0  0  0  0  0  0  0  0  0  0  0  0
   -6.7305   -2.0651   -0.2245 C   0  0  0  0  0  0  0  0  0  0  0  0
   -5.5055   -1.5824    0.0567 N   0  0  0  0  0  0  0  0  0  0  0  0
   -4.6512   -2.5967   -0.2057 C   0  0  0  0  0  0  0  0  0  0  0  0
   -5.2794   -3.7093   -0.6414 N   0  0  0  0  0  0  0  0  0  0  0  0
   -5.1748   -0.2666    0.5463 C   0  0  0  0  0  0  0  0  0  0  0  0
   -3.9132    0.2942    0.2839 C   0  0  0  0  0  0  0  0  0  0  0  0
   -3.5856    1.5784    0.7501 C   0  0  0  0  0  0  0  0  0  0  0  0
   -2.3118    2.1774    0.4539 N   0  0  0  0  0  0  0  0  0  0  0  0
   -1.0917    1.4288    0.3186 C   0  0  0  0  0  0  0  0  0  0  0  0
   -0.9984    0.2865    0.8467 O   0  0  0  0  0  0  0  0  0  0  0  0
    0.0772    2.0010   -0.3934 C   0  0  0  0  0  0  0  0  0  0  0  0
   -0.0798    3.0586   -1.3031 C   0  0  0  0  0  0  0  0  0  0  0  0
    1.0258    3.5931   -1.9664 C   0  0  0  0  0  0  0  0  0  0  0  0
    2.3104    3.0712   -1.7514 C   0  0  0  0  0  0  0  0  0  0  0  0
    3.4841    3.6684   -2.4793 C   0  0  0  0  0  0  0  0  0  0  0  0
    2.4816    1.9972   -0.8505 C   0  0  0  0  0  0  0  0  0  0  0  0
    3.7941    1.4715   -0.5820 N   0  0  0  0  0  0  0  0  0  0  0  0
    4.0797    0.0704   -0.4702 C   0  0  0  0  0  0  0  0  0  0  0  0
    3.1544   -0.8599   -0.8289 N   0  0  0  0  0  0  0  0  0  0  0  0
    3.4294   -2.1861   -0.7501 C   0  0  0  0  0  0  0  0  0  0  0  0
    4.6779   -2.6144   -0.3020 C   0  0  0  0  0  0  0  0  0  0  0  0
    5.6310   -1.6504    0.0645 C   0  0  0  0  0  0  0  0  0  0  0  0
    5.3051   -0.3322   -0.0406 N   0  0  0  0  0  0  0  0  0  0  0  0
    6.9867   -2.0289    0.5404 C   0  0  0  0  0  0  0  0  0  0  0  0
    7.2292   -3.2529    1.1934 C   0  0  0  0  0  0  0  0  0  0  0  0
    8.4803   -3.5654    1.6254 N   0  0  0  0  0  0  0  0  0  0  0  0
    9.5308   -2.7225    1.4491 C   0  0  0  0  0  0  0  0  0  0  0  0
    9.3408   -1.4937    0.8182 C   0  0  0  0  0  0  0  0  0  0  0  0
    8.0665   -1.1455    0.3677 C   0  0  0  0  0  0  0  0  0  0  0  0
    1.3631    1.4781   -0.1747 C   0  0  0  0  0  0  0  0  0  0  0  0
   -4.5421    2.3141    1.4622 C   0  0  0  0  0  0  0  0  0  0  0  0
   -5.7981    1.7618    1.7602 C   0  0  0  0  0  0  0  0  0  0  0  0
   -6.1128    0.4792    1.2816 C   0  0  0  0  0  0  0  0  0  0  0  0
   -6.8325    2.5731    2.5007 C   0  0  0  0  0  0  0  0  0  0  0  0
   -7.6625    1.7485    3.2405 F   0  0  0  0  0  0  0  0  0  0  0  0
   -7.5951    3.2786    1.5889 F   0  0  0  0  0  0  0  0  0  0  0  0
   -6.2273    3.4658    3.3685 F   0  0  0  0  0  0  0  0  0  0  0  0
   -7.3091   -5.0839   -1.7087 H   0  0  0  0  0  0  0  0  0  0  0  0
   -8.4996   -3.7361   -1.5433 H   0  0  0  0  0  0  0  0  0  0  0  0
   -8.0925   -4.7637   -0.1093 H   0  0  0  0  0  0  0  0  0  0  0  0
   -7.6611   -1.5204   -0.1318 H   0  0  0  0  0  0  0  0  0  0  0  0
   -3.5803   -2.5454   -0.0595 H   0  0  0  0  0  0  0  0  0  0  0  0
   -3.2040   -0.2487   -0.3252 H   0  0  0  0  0  0  0  0  0  0  0  0
   -2.2504    3.2206    0.4522 H   0  0  0  0  0  0  0  0  0  0  0  0
   -1.0580    3.4689   -1.5170 H   0  0  0  0  0  0  0  0  0  0  0  0
    0.8750    4.4136   -2.6573 H   0  0  0  0  0  0  0  0  0  0  0  0
    3.1553    4.3421   -3.2991 H   0  0  0  0  0  0  0  0  0  0  0  0
    4.1031    2.8640   -2.9300 H   0  0  0  0  0  0  0  0  0  0  0  0
    4.1031    4.2549   -1.7687 H   0  0  0  0  0  0  0  0  0  0  0  0
    4.5978    2.1361   -0.5172 H   0  0  0  0  0  0  0  0  0  0  0  0
    2.6804   -2.9090   -1.0445 H   0  0  0  0  0  0  0  0  0  0  0  0
    4.8946   -3.6736   -0.2721 H   0  0  0  0  0  0  0  0  0  0  0  0
    6.4274   -3.9522    1.3849 H   0  0  0  0  0  0  0  0  0  0  0  0
   10.5130   -3.0048    1.8039 H   0  0  0  0  0  0  0  0  0  0  0  0
   10.1738   -0.8167    0.6788 H   0  0  0  0  0  0  0  0  0  0  0  0
    7.9287   -0.1918   -0.1264 H   0  0  0  0  0  0  0  0  0  0  0  0
    1.5025    0.6843    0.5485 H   0  0  0  0  0  0  0  0  0  0  0  0
   -4.2993    3.3174    1.7904 H   0  0  0  0  0  0  0  0  0  0  0  0
   -7.0873    0.0585    1.4911 H   0  0  0  0  0  0  0  0  0  0  0  0
  1  2  1  0
  2  3  2  0
  3  4  1  0
  4  5  1  0
  5  6  2  0
  4  7  1  0
  7  8  2  0
  8  9  1  0
  9 10  1  0
 10 11  1  0
 11 12  2  0
 11 13  1  0
 13 14  2  0
 14 15  1  0
 15 16  2  0
 16 17  1  0
 16 18  1  0
 18 19  1  0
 19 20  1  0
 20 21  2  0
 21 22  1  0
 22 23  2  0
 23 24  1  0
 24 25  2  0
 24 26  1  0
 26 27  2  0
 27 28  1  0
 28 29  2  0
 29 30  1  0
 30 31  2  0
 18 32  2  0
  9 33  2  0
 33 34  1  0
 34 35  2  0
 34 36  1  0
 36 37  1  0
 36 38  1  0
 36 39  1  0
  6  2  1  0
 35  7  1  0
 32 13  1  0
 25 20  1  0
 31 26  1  0
  1 40  1  0
  1 41  1  0
  1 42  1  0
  3 43  1  0
  5 44  1  0
  8 45  1  0
 10 46  1  0
 14 47  1  0
 15 48  1  0
 17 49  1  0
 17 50  1  0
 17 51  1  0
 19 52  1  0
 22 53  1  0
 23 54  1  0
 27 55  1  0
 29 56  1  0
 30 57  1  0
 31 58  1  0
 32 59  1  0
 33 60  1  0
 35 61  1  0
M  END
$$$$
