
     RDKit          3D

 74 76  0  0  0  0  0  0  0  0999 V2000
   -1.7153   -0.2499   -0.3731 C   0  0  1  0  0  0  0  0  0  0  0  0
   -1.2751    0.2692    1.0200 C   0  0  0  0  0  0  0  0  0  0  0  0
    0.2142    0.6240    0.9200 C   0  0  0  0  0  0  0  0  0  0  0  0
    0.5324    0.5061   -0.5673 C   0  0  1  0  0  0  0  0  0  0  0  0
    1.9607    0.2966   -1.0246 C   0  0  0  0  0  0  0  0  0  0  0  0
    2.1359   -0.1011   -2.4819 C   0  0  0  0  0  0  0  0  0  0  0  0
    0.8323    0.0600   -3.2965 C   0  0  0  0  0  0  0  0  0  0  0  0
   -0.4231   -0.5785   -2.6423 C   0  0  0  0  0  0  0  0  0  0  0  0
   -0.3788   -0.6244   -1.0800 C   0  0  2  0  0  0  0  0  0  0  0  0
    0.1278   -2.0272   -0.6133 C   0  0  0  0  0  0  0  0  0  0  0  0
    3.0114    0.5361   -0.2162 C   0  0  0  0  0  0  0  0  0  0  0  0
    4.4176    0.3070   -0.6223 C   0  0  0  0  0  0  0  0  0  0  0  0
    5.4814    0.7784    0.0599 C   0  0  0  0  0  0  0  0  0  0  0  0
    6.8710    0.3150   -0.3014 C   0  0  0  0  0  0  0  0  0  0  0  0
    7.6449   -0.1026    0.9632 C   0  0  1  0  0  0  0  0  0  0  0  0
    8.9556   -0.4879    0.6332 O   0  0  0  0  0  0  0  0  0  0  0  0
    7.6625    1.0301    2.0126 C   0  0  0  0  0  0  0  0  0  0  0  0
    6.2466    1.5025    2.4072 C   0  0  2  0  0  0  0  0  0  0  0  0
    5.6303    0.5850    3.2770 O   0  0  0  0  0  0  0  0  0  0  0  0
    5.3845    1.7467    1.1846 C   0  0  0  0  0  0  0  0  0  0  0  0
    4.6269    2.8472    1.0994 C   0  0  0  0  0  0  0  0  0  0  0  0
   -2.8172   -1.3527   -0.2733 C   0  0  2  0  0  0  0  0  0  0  0  0
   -3.3240   -1.8153   -1.6481 C   0  0  0  0  0  0  0  0  0  0  0  0
   -3.9878   -0.8814    0.5666 C   0  0  0  0  0  0  0  0  0  0  0  0
   -4.7551    0.1683    0.2184 C   0  0  0  0  0  0  0  0  0  0  0  0
   -5.9212    0.6659    1.0509 C   0  0  2  0  0  0  0  0  0  0  0  0
   -5.5216    0.9166    2.5144 C   0  0  0  0  0  0  0  0  0  0  0  0
   -7.2077   -0.2018    0.9105 C   0  0  0  0  0  0  0  0  0  0  0  0
   -7.7400   -0.1708   -0.5306 C   0  0  0  0  0  0  0  0  0  0  0  0
   -7.0448   -1.6584    1.3758 C   0  0  0  0  0  0  0  0  0  0  0  0
   -2.1527    0.6196   -0.9159 H   0  0  0  0  0  0  0  0  0  0  0  0
   -1.4151   -0.5074    1.8043 H   0  0  0  0  0  0  0  0  0  0  0  0
   -1.8711    1.1649    1.3022 H   0  0  0  0  0  0  0  0  0  0  0  0
    0.8145   -0.0982    1.5155 H   0  0  0  0  0  0  0  0  0  0  0  0
    0.4085    1.6544    1.2903 H   0  0  0  0  0  0  0  0  0  0  0  0
    0.2029    1.4697   -1.0250 H   0  0  0  0  0  0  0  0  0  0  0  0
    2.4868   -1.1528   -2.5442 H   0  0  0  0  0  0  0  0  0  0  0  0
    2.9059    0.5465   -2.9550 H   0  0  0  0  0  0  0  0  0  0  0  0
    0.6440    1.1478   -3.4349 H   0  0  0  0  0  0  0  0  0  0  0  0
    0.9796   -0.3701   -4.3107 H   0  0  0  0  0  0  0  0  0  0  0  0
   -0.5425   -1.6024   -3.0573 H   0  0  0  0  0  0  0  0  0  0  0  0
   -1.3099   -0.0044   -2.9869 H   0  0  0  0  0  0  0  0  0  0  0  0
    0.1267   -2.1213    0.4921 H   0  0  0  0  0  0  0  0  0  0  0  0
    1.1562   -2.2359   -0.9665 H   0  0  0  0  0  0  0  0  0  0  0  0
   -0.5135   -2.8359   -1.0191 H   0  0  0  0  0  0  0  0  0  0  0  0
    2.8299    0.8841    0.7907 H   0  0  0  0  0  0  0  0  0  0  0  0
    4.5991   -0.3459   -1.4671 H   0  0  0  0  0  0  0  0  0  0  0  0
    6.8453   -0.5486   -1.0022 H   0  0  0  0  0  0  0  0  0  0  0  0
    7.3989    1.1498   -0.8117 H   0  0  0  0  0  0  0  0  0  0  0  0
    7.1419   -0.9904    1.4037 H   0  0  0  0  0  0  0  0  0  0  0  0
    9.4109    0.2999    0.2349 H   0  0  0  0  0  0  0  0  0  0  0  0
    8.2020    0.6842    2.9211 H   0  0  0  0  0  0  0  0  0  0  0  0
    8.2242    1.8985    1.6018 H   0  0  0  0  0  0  0  0  0  0  0  0
    6.3741    2.4530    2.9714 H   0  0  0  0  0  0  0  0  0  0  0  0
    5.4136   -0.2343    2.7607 H   0  0  0  0  0  0  0  0  0  0  0  0
    4.5787    3.5560    1.9163 H   0  0  0  0  0  0  0  0  0  0  0  0
    4.0593    3.0682    0.2045 H   0  0  0  0  0  0  0  0  0  0  0  0
   -2.3992   -2.2406    0.2469 H   0  0  0  0  0  0  0  0  0  0  0  0
   -2.5480   -2.4021   -2.1761 H   0  0  0  0  0  0  0  0  0  0  0  0
   -3.6145   -0.9483   -2.2785 H   0  0  0  0  0  0  0  0  0  0  0  0
   -4.2079   -2.4785   -1.5282 H   0  0  0  0  0  0  0  0  0  0  0  0
   -4.1943   -1.4221    1.4844 H   0  0  0  0  0  0  0  0  0  0  0  0
   -4.5276    0.7134   -0.6929 H   0  0  0  0  0  0  0  0  0  0  0  0
   -6.1784    1.6710    0.6469 H   0  0  0  0  0  0  0  0  0  0  0  0
   -4.6620    1.6196    2.5552 H   0  0  0  0  0  0  0  0  0  0  0  0
   -6.3686    1.3761    3.0670 H   0  0  0  0  0  0  0  0  0  0  0  0
   -5.2300   -0.0187    3.0326 H   0  0  0  0  0  0  0  0  0  0  0  0
   -7.9928    0.2593    1.5509 H   0  0  0  0  0  0  0  0  0  0  0  0
   -7.0183   -0.6466   -1.2287 H   0  0  0  0  0  0  0  0  0  0  0  0
   -7.9157    0.8769   -0.8550 H   0  0  0  0  0  0  0  0  0  0  0  0
   -8.7064   -0.7152   -0.5941 H   0  0  0  0  0  0  0  0  0  0  0  0
   -8.0334   -2.1653    1.3691 H   0  0  0  0  0  0  0  0  0  0  0  0
   -6.3702   -2.2231    0.6992 H   0  0  0  0  0  0  0  0  0  0  0  0
   -6.6555   -1.7070    2.4124 H   0  0  0  0  0  0  0  0  0  0  0  0
  1  2  1  0
  2  3  1  0
  3  4  1  0
  4  5  1  0
  5  6  1  0
  6  7  1  0
  7  8  1  0
  8  9  1  0
  9 10  1  6
  5 11  2  0
 11 12  1  0
 12 13  2  0
 13 14  1  0
 14 15  1  0
 15 16  1  0
 15 17  1  0
 17 18  1  0
 18 19  1  0
 18 20  1  0
 20 21  2  3
  1 22  1  0
 22 23  1  0
 22 24  1  0
 24 25  2  0
 25 26  1  0
 26 27  1  0
 26 28  1  0
 28 29  1  0
 28 30  1  0
  9  1  1  0
 20 13  1  0
  9  4  1  0
  1 31  1  6
  2 32  1  0
  2 33  1  0
  3 34  1  0
  3 35  1  0
  4 36  1  6
  6 37  1  0
  6 38  1  0
  7 39  1  0
  7 40  1  0
  8 41  1  0
  8 42  1  0
 10 43  1  0
 10 44  1  0
 10 45  1  0
 11 46  1  0
 12 47  1  0
 14 48  1  0
 14 49  1  0
 15 50  1  1
 16 51  1  0
 17 52  1  0
 17 53  1  0
 18 54  1  1
 19 55  1  0
 21 56  1  0
 21 57  1  0
 22 58  1  1
 23 59  1  0
 23 60  1  0
 23 61  1  0
 24 62  1  0
 25 63  1  0
 26 64  1  6
 27 65  1  0
 27 66  1  0
 27 67  1  0
 28 68  1  0
 29 69  1  0
 29 70  1  0
 29 71  1  0
 30 72  1  0
 30 73  1  0
 30 74  1  0
M  END
$$$$
