
     RDKit          3D

 22 21  0  0  0  0  0  0  0  0999 V2000
    1.2513   -2.9001   -0.0898 C   0  0  0  0  0  0  0  0  0  0  0  0
    1.6680   -1.5540   -0.0159 O   0  0  0  0  0  0  0  0  0  0  0  0
    0.6739   -0.6913   -0.5418 C   0  0  0  0  0  0  0  0  0  0  0  0
   -0.1339   -0.0847    0.6200 C   0  0  0  0  0  0  0  0  0  0  0  0
   -1.2947    0.6682    0.1407 N   0  0  0  0  0  0  0  0  0  0  0  0
   -2.1545    1.3709    1.0457 C   0  0  0  0  0  0  0  0  0  0  0  0
   -3.2825    2.0887    0.5476 N   0  0  0  0  0  0  0  0  0  0  0  0
   -1.9212    1.3604    2.2845 O   0  0  0  0  0  0  0  0  0  0  0  0
    1.3808    0.4115   -1.3268 C   0  0  0  0  0  0  0  0  0  0  0  0
    2.6130    1.4961   -0.0295 Hg  0  0  0  0  0  2  0  0  0  0  0  0
    3.9954    2.7176    1.4555 Cl  0  0  0  0  0  0  0  0  0  0  0  0
    2.0095   -3.5340    0.4139 H   0  0  0  0  0  0  0  0  0  0  0  0
    1.1817   -3.2321   -1.1491 H   0  0  0  0  0  0  0  0  0  0  0  0
    0.2802   -3.0561    0.4302 H   0  0  0  0  0  0  0  0  0  0  0  0
   -0.0235   -1.2054   -1.2488 H   0  0  0  0  0  0  0  0  0  0  0  0
   -0.4916   -0.9007    1.2839 H   0  0  0  0  0  0  0  0  0  0  0  0
    0.5207    0.5825    1.2229 H   0  0  0  0  0  0  0  0  0  0  0  0
   -1.5268    0.6868   -0.8781 H   0  0  0  0  0  0  0  0  0  0  0  0
   -3.4900    2.1087   -0.4754 H   0  0  0  0  0  0  0  0  0  0  0  0
   -3.9124    2.6025    1.2030 H   0  0  0  0  0  0  0  0  0  0  0  0
    0.6490    1.1009   -1.7974 H   0  0  0  0  0  0  0  0  0  0  0  0
    2.0074   -0.0363   -2.1272 H   0  0  0  0  0  0  0  0  0  0  0  0
  1  2  1  0
  2  3  1  0
  3  4  1  0
  4  5  1  0
  5  6  1  0
  6  7  1  0
  6  8  2  0
  3  9  1  0
  9 10  1  0
 10 11  1  0
  1 12  1  0
  1 13  1  0
  1 14  1  0
  3 15  1  0
  4 16  1  0
  4 17  1  0
  5 18  1  0
  7 19  1  0
  7 20  1  0
  9 21  1  0
  9 22  1  0
M  END
$$$$
