
     RDKit          3D

 37 39  0  0  0  0  0  0  0  0999 V2000
   -1.4473   -0.9185   -1.4078 C   0  0  2  0  0  0  0  0  0  0  0  0
   -2.0362   -2.3238   -1.5034 C   0  0  0  0  0  0  0  0  0  0  0  0
   -0.1658   -0.9958   -0.7778 O   0  0  0  0  0  0  0  0  0  0  0  0
    0.7618    0.0531   -0.6548 C   0  0  0  0  0  0  0  0  0  0  0  0
    1.9398   -0.1256    0.1218 C   0  0  0  0  0  0  0  0  0  0  0  0
    2.3133   -1.3520    0.7370 C   0  0  0  0  0  0  0  0  0  0  0  0
    1.6335   -2.5860    0.4851 N   0  0  0  0  0  0  0  0  0  0  0  0
    3.3954   -1.3838    1.5593 N   0  0  0  0  0  0  0  0  0  0  0  0
    4.1598   -0.2874    1.7844 C   0  0  0  0  0  0  0  0  0  0  0  0
    5.2885   -0.3699    2.6512 N   0  0  0  0  0  0  0  0  0  0  0  0
    3.8616    0.8815    1.1686 N   0  0  0  0  0  0  0  0  0  0  0  0
    2.7857    0.9911    0.3487 C   0  0  0  0  0  0  0  0  0  0  0  0
    2.5147    2.2217   -0.2531 C   0  0  0  0  0  0  0  0  0  0  0  0
    1.3970    2.3716   -1.0672 C   0  0  0  0  0  0  0  0  0  0  0  0
    0.5238    1.3037   -1.2630 C   0  0  0  0  0  0  0  0  0  0  0  0
   -2.3787   -0.0210   -0.6228 C   0  0  0  0  0  0  0  0  0  0  0  0
   -2.4148   -0.0782    0.7824 C   0  0  0  0  0  0  0  0  0  0  0  0
   -3.2881    0.7458    1.5007 C   0  0  0  0  0  0  0  0  0  0  0  0
   -3.3173    0.6760    3.2531 Cl  0  0  0  0  0  0  0  0  0  0  0  0
   -4.1389    1.6233    0.8214 C   0  0  0  0  0  0  0  0  0  0  0  0
   -4.1201    1.6750   -0.5747 C   0  0  0  0  0  0  0  0  0  0  0  0
   -3.2481    0.8541   -1.2957 C   0  0  0  0  0  0  0  0  0  0  0  0
   -1.3185   -0.5420   -2.4468 H   0  0  0  0  0  0  0  0  0  0  0  0
   -2.1536   -2.7674   -0.4913 H   0  0  0  0  0  0  0  0  0  0  0  0
   -1.3601   -2.9736   -2.0985 H   0  0  0  0  0  0  0  0  0  0  0  0
   -3.0274   -2.2923   -2.0047 H   0  0  0  0  0  0  0  0  0  0  0  0
    1.7690   -3.3864    1.1419 H   0  0  0  0  0  0  0  0  0  0  0  0
    1.2513   -2.8156   -0.4572 H   0  0  0  0  0  0  0  0  0  0  0  0
    5.5281   -1.2700    3.1231 H   0  0  0  0  0  0  0  0  0  0  0  0
    5.8857    0.4693    2.8229 H   0  0  0  0  0  0  0  0  0  0  0  0
    3.1705    3.0676   -0.0864 H   0  0  0  0  0  0  0  0  0  0  0  0
    1.1941    3.3272   -1.5336 H   0  0  0  0  0  0  0  0  0  0  0  0
   -0.3462    1.4709   -1.8809 H   0  0  0  0  0  0  0  0  0  0  0  0
   -1.7642   -0.7593    1.3173 H   0  0  0  0  0  0  0  0  0  0  0  0
   -4.8166    2.2621    1.3733 H   0  0  0  0  0  0  0  0  0  0  0  0
   -4.7831    2.3510   -1.0990 H   0  0  0  0  0  0  0  0  0  0  0  0
   -3.2487    0.9033   -2.3774 H   0  0  0  0  0  0  0  0  0  0  0  0
  1  2  1  0
  1  3  1  0
  3  4  1  0
  4  5  1  0
  5  6  2  0
  6  7  1  0
  6  8  1  0
  8  9  2  0
  9 10  1  0
  9 11  1  0
 11 12  2  0
 12 13  1  0
 13 14  2  0
 14 15  1  0
  1 16  1  0
 16 17  2  0
 17 18  1  0
 18 19  1  0
 18 20  2  0
 20 21  1  0
 21 22  2  0
 15  4  2  0
 22 16  1  0
 12  5  1  0
  1 23  1  6
  2 24  1  0
  2 25  1  0
  2 26  1  0
  7 27  1  0
  7 28  1  0
 10 29  1  0
 10 30  1  0
 13 31  1  0
 14 32  1  0
 15 33  1  0
 17 34  1  0
 20 35  1  0
 21 36  1  0
 22 37  1  0
M  END
$$$$
