
     RDKit          3D

 55 58  0  0  0  0  0  0  0  0999 V2000
   -2.6104   -2.0911   -0.3859 C   0  0  0  0  0  0  0  0  0  0  0  0
   -2.6151   -0.5308   -0.5320 C   0  0  2  0  0  0  0  0  0  0  0  0
   -1.8417   -0.1344   -1.8185 C   0  0  0  0  0  0  0  0  0  0  0  0
   -0.3378   -0.4780   -1.6988 C   0  0  0  0  0  0  0  0  0  0  0  0
    0.3209    0.1339   -0.4200 C   0  0  1  0  0  0  0  0  0  0  0  0
   -0.4856   -0.2222    0.8768 C   0  0  1  0  0  0  0  0  0  0  0  0
    0.1082    0.5047    2.0974 C   0  0  0  0  0  0  0  0  0  0  0  0
    1.5908    0.1710    2.2727 C   0  0  0  0  0  0  0  0  0  0  0  0
    2.3891    0.5437    1.0096 C   0  0  1  0  0  0  0  0  0  0  0  0
    3.9071    0.3419    1.2391 C   0  0  0  0  0  0  0  0  0  0  0  0
    4.7379    0.4042   -0.0678 C   0  0  2  0  0  0  0  0  0  0  0  0
    5.9742    1.0343    0.1582 O   0  0  0  0  0  0  0  0  0  0  0  0
    3.9787    1.0962   -1.2102 C   0  0  0  0  0  0  0  0  0  0  0  0
    2.6356    0.4040   -1.5279 C   0  0  0  0  0  0  0  0  0  0  0  0
    1.8634   -0.1740   -0.2822 C   0  0  2  0  0  0  0  0  0  0  0  0
    2.1097   -1.7126   -0.2036 C   0  0  0  0  0  0  0  0  0  0  0  0
   -1.9588    0.1896    0.6567 C   0  0  2  0  0  0  0  0  0  0  0  0
   -2.9494    0.0234    1.8027 C   0  0  0  0  0  0  0  0  0  0  0  0
   -4.3317    0.0166    1.1209 C   0  0  0  0  0  0  0  0  0  0  0  0
   -4.0875   -0.0194   -0.4123 C   0  0  2  0  0  0  0  0  0  0  0  0
   -5.0128   -0.8870   -1.0233 O   0  0  0  0  0  0  0  0  0  0  0  0
   -4.2740    1.3462   -0.9643 C   0  0  0  0  0  0  0  0  0  0  0  0
   -4.4272    2.4557   -1.4110 C   0  0  0  0  0  0  0  0  0  0  0  0
   -3.0667   -2.5603   -1.2832 H   0  0  0  0  0  0  0  0  0  0  0  0
   -1.5990   -2.5251   -0.2885 H   0  0  0  0  0  0  0  0  0  0  0  0
   -3.1919   -2.4272    0.4970 H   0  0  0  0  0  0  0  0  0  0  0  0
   -1.9232    0.9567   -2.0107 H   0  0  0  0  0  0  0  0  0  0  0  0
   -2.2730   -0.6575   -2.6993 H   0  0  0  0  0  0  0  0  0  0  0  0
   -0.2147   -1.5768   -1.7239 H   0  0  0  0  0  0  0  0  0  0  0  0
    0.1656   -0.0900   -2.6083 H   0  0  0  0  0  0  0  0  0  0  0  0
    0.2353    1.2390   -0.5439 H   0  0  0  0  0  0  0  0  0  0  0  0
   -0.4379   -1.3069    1.0896 H   0  0  0  0  0  0  0  0  0  0  0  0
   -0.4307    0.1949    3.0187 H   0  0  0  0  0  0  0  0  0  0  0  0
   -0.0120    1.6053    1.9858 H   0  0  0  0  0  0  0  0  0  0  0  0
    1.7115   -0.9059    2.5165 H   0  0  0  0  0  0  0  0  0  0  0  0
    1.9797    0.7509    3.1383 H   0  0  0  0  0  0  0  0  0  0  0  0
    2.2393    1.6393    0.8642 H   0  0  0  0  0  0  0  0  0  0  0  0
    4.0950   -0.6353    1.7358 H   0  0  0  0  0  0  0  0  0  0  0  0
    4.2540    1.1255    1.9486 H   0  0  0  0  0  0  0  0  0  0  0  0
    4.9623   -0.6318   -0.3989 H   0  0  0  0  0  0  0  0  0  0  0  0
    5.7915    1.9823    0.3916 H   0  0  0  0  0  0  0  0  0  0  0  0
    3.7874    2.1570   -0.9342 H   0  0  0  0  0  0  0  0  0  0  0  0
    4.6111    1.1038   -2.1247 H   0  0  0  0  0  0  0  0  0  0  0  0
    2.8188   -0.3960   -2.2786 H   0  0  0  0  0  0  0  0  0  0  0  0
    2.0205    1.1669   -2.0523 H   0  0  0  0  0  0  0  0  0  0  0  0
    1.5367   -2.1930    0.6113 H   0  0  0  0  0  0  0  0  0  0  0  0
    1.8331   -2.2152   -1.1521 H   0  0  0  0  0  0  0  0  0  0  0  0
    3.1748   -1.9540   -0.0322 H   0  0  0  0  0  0  0  0  0  0  0  0
   -1.9427    1.2854    0.4365 H   0  0  0  0  0  0  0  0  0  0  0  0
   -2.7718   -0.9352    2.3375 H   0  0  0  0  0  0  0  0  0  0  0  0
   -2.8668    0.8636    2.5264 H   0  0  0  0  0  0  0  0  0  0  0  0
   -4.9247    0.9052    1.4348 H   0  0  0  0  0  0  0  0  0  0  0  0
   -4.8935   -0.8864    1.4473 H   0  0  0  0  0  0  0  0  0  0  0  0
   -4.7907   -0.9246   -1.9911 H   0  0  0  0  0  0  0  0  0  0  0  0
   -4.5608    3.4294   -1.8031 H   0  0  0  0  0  0  0  0  0  0  0  0
  2  1  1  1
  2  3  1  0
  3  4  1  0
  4  5  1  0
  5  6  1  0
  6  7  1  0
  7  8  1  0
  8  9  1  0
  9 10  1  0
 10 11  1  0
 11 12  1  0
 11 13  1  0
 13 14  1  0
 14 15  1  0
 15 16  1  1
  6 17  1  0
 17 18  1  0
 18 19  1  0
 19 20  1  0
 20 21  1  0
 20 22  1  6
 22 23  3  0
 17  2  1  0
 20  2  1  0
 15  5  1  0
 15  9  1  0
  1 24  1  0
  1 25  1  0
  1 26  1  0
  3 27  1  0
  3 28  1  0
  4 29  1  0
  4 30  1  0
  5 31  1  6
  6 32  1  1
  7 33  1  0
  7 34  1  0
  8 35  1  0
  8 36  1  0
  9 37  1  6
 10 38  1  0
 10 39  1  0
 11 40  1  6
 12 41  1  0
 13 42  1  0
 13 43  1  0
 14 44  1  0
 14 45  1  0
 16 46  1  0
 16 47  1  0
 16 48  1  0
 17 49  1  6
 18 50  1  0
 18 51  1  0
 19 52  1  0
 19 53  1  0
 21 54  1  0
 23 55  1  0
M  END
$$$$
