
     RDKit          3D

 43 44  0  0  0  0  0  0  0  0999 V2000
    2.2452   -1.5954    0.5151 C   0  0  0  0  0  0  0  0  0  0  0  0
    2.9307   -0.3010    0.3474 N   0  0  0  0  0  0  0  0  0  0  0  0
    4.0628   -0.3781   -0.6008 C   0  0  0  0  0  0  0  0  0  0  0  0
    5.3042   -0.9582    0.0776 C   0  0  0  0  0  0  0  0  0  0  0  0
    5.6380   -0.1895    1.2000 O   0  0  0  0  0  0  0  0  0  0  0  0
    1.9936    0.8112    0.0597 C   0  0  0  0  0  0  0  0  0  0  0  0
    1.1520    0.6370   -1.2358 C   0  0  0  0  0  0  0  0  0  0  0  0
    1.9725    0.6140   -2.3761 O   0  0  0  0  0  0  0  0  0  0  0  0
    0.0964    1.7531   -1.3820 C   0  0  0  0  0  0  0  0  0  0  0  0
   -0.9467    1.6403   -0.3593 N   0  0  0  0  0  0  0  0  0  0  0  0
   -1.0382    2.3704    0.7803 C   0  0  0  0  0  0  0  0  0  0  0  0
   -2.0862    2.0113    1.5652 N   0  0  0  0  0  0  0  0  0  0  0  0
   -2.6572    1.0117    0.8643 C   0  0  0  0  0  0  0  0  0  0  0  0
   -1.9817    0.7826   -0.2859 C   0  0  0  0  0  0  0  0  0  0  0  0
   -2.4030   -0.2132   -1.1605 C   0  0  0  0  0  0  0  0  0  0  0  0
   -1.8016   -0.4069   -2.2521 O   0  0  0  0  0  0  0  0  0  0  0  0
   -3.4940   -0.9737   -0.8050 N   0  0  0  0  0  0  0  0  0  0  0  0
   -3.9785   -2.0284   -1.7115 C   0  0  0  0  0  0  0  0  0  0  0  0
   -4.1781   -0.7066    0.3695 C   0  0  0  0  0  0  0  0  0  0  0  0
   -5.1943   -1.3936    0.6738 O   0  0  0  0  0  0  0  0  0  0  0  0
   -3.7652    0.3027    1.2121 N   0  0  0  0  0  0  0  0  0  0  0  0
   -4.4584    0.5626    2.4811 C   0  0  0  0  0  0  0  0  0  0  0  0
    1.9766   -2.0466   -0.4645 H   0  0  0  0  0  0  0  0  0  0  0  0
    1.3227   -1.4763    1.1238 H   0  0  0  0  0  0  0  0  0  0  0  0
    2.9024   -2.3019    1.0621 H   0  0  0  0  0  0  0  0  0  0  0  0
    4.3361    0.6354   -0.9703 H   0  0  0  0  0  0  0  0  0  0  0  0
    3.8062   -0.9995   -1.4874 H   0  0  0  0  0  0  0  0  0  0  0  0
    5.1205   -2.0128    0.3777 H   0  0  0  0  0  0  0  0  0  0  0  0
    6.1482   -0.9460   -0.6476 H   0  0  0  0  0  0  0  0  0  0  0  0
    6.4443   -0.6135    1.5936 H   0  0  0  0  0  0  0  0  0  0  0  0
    2.5559    1.7699    0.0133 H   0  0  0  0  0  0  0  0  0  0  0  0
    1.3093    0.9134    0.9283 H   0  0  0  0  0  0  0  0  0  0  0  0
    0.6100   -0.3286   -1.1917 H   0  0  0  0  0  0  0  0  0  0  0  0
    2.4299    1.4938   -2.4337 H   0  0  0  0  0  0  0  0  0  0  0  0
    0.5881    2.7484   -1.3102 H   0  0  0  0  0  0  0  0  0  0  0  0
   -0.3695    1.7004   -2.3890 H   0  0  0  0  0  0  0  0  0  0  0  0
   -0.3414    3.1545    1.0475 H   0  0  0  0  0  0  0  0  0  0  0  0
   -4.7448   -1.6074   -2.3959 H   0  0  0  0  0  0  0  0  0  0  0  0
   -4.4214   -2.8734   -1.1424 H   0  0  0  0  0  0  0  0  0  0  0  0
   -3.1497   -2.4584   -2.3135 H   0  0  0  0  0  0  0  0  0  0  0  0
   -4.2562    1.5901    2.8516 H   0  0  0  0  0  0  0  0  0  0  0  0
   -5.5582    0.4754    2.3504 H   0  0  0  0  0  0  0  0  0  0  0  0
   -4.1215   -0.1692    3.2452 H   0  0  0  0  0  0  0  0  0  0  0  0
  1  2  1  0
  2  3  1  0
  3  4  1  0
  4  5  1  0
  2  6  1  0
  6  7  1  0
  7  8  1  0
  7  9  1  0
  9 10  1  0
 10 11  1  0
 11 12  2  0
 12 13  1  0
 13 14  2  0
 14 15  1  0
 15 16  2  0
 15 17  1  0
 17 18  1  0
 17 19  1  0
 19 20  2  0
 19 21  1  0
 21 22  1  0
 14 10  1  0
 21 13  1  0
  1 23  1  0
  1 24  1  0
  1 25  1  0
  3 26  1  0
  3 27  1  0
  4 28  1  0
  4 29  1  0
  5 30  1  0
  6 31  1  0
  6 32  1  0
  7 33  1  0
  8 34  1  0
  9 35  1  0
  9 36  1  0
 11 37  1  0
 18 38  1  0
 18 39  1  0
 18 40  1  0
 22 41  1  0
 22 42  1  0
 22 43  1  0
M  END
$$$$
