
     RDKit          3D

 25 26  0  0  0  0  0  0  0  0999 V2000
   -4.0900    1.9077   -0.5536 O   0  0  0  0  0  0  0  0  0  0  0  0
   -2.8961    1.3223   -0.1379 C   0  0  0  0  0  0  0  0  0  0  0  0
   -2.9054    0.1811    0.6720 C   0  0  0  0  0  0  0  0  0  0  0  0
   -1.7007   -0.4064    1.0827 C   0  0  0  0  0  0  0  0  0  0  0  0
   -1.7231   -1.5503    1.8813 O   0  0  0  0  0  0  0  0  0  0  0  0
   -0.4716    0.1508    0.6774 C   0  0  0  0  0  0  0  0  0  0  0  0
    0.8018   -0.4638    1.1155 C   0  0  0  0  0  0  0  0  0  0  0  0
    0.9687   -0.7185    2.3394 O   0  0  0  0  0  0  0  0  0  0  0  0
    1.8423   -0.7842    0.1761 N   0  0  0  0  0  0  0  0  0  0  0  0
    1.7178   -0.9073   -1.1616 C   0  0  0  0  0  0  0  0  0  0  0  0
    2.9303   -1.2676   -1.7128 C   0  0  0  0  0  0  0  0  0  0  0  0
    3.8236   -1.3757   -0.6652 C   0  0  0  0  0  0  0  0  0  0  0  0
    3.1212   -1.0779    0.4846 C   0  0  0  0  0  0  0  0  0  0  0  0
   -0.4674    1.3123   -0.1218 C   0  0  0  0  0  0  0  0  0  0  0  0
    0.7393    1.9072   -0.4914 O   0  0  0  0  0  0  0  0  0  0  0  0
   -1.6798    1.8840   -0.5318 C   0  0  0  0  0  0  0  0  0  0  0  0
   -4.9892    1.5257   -0.2846 H   0  0  0  0  0  0  0  0  0  0  0  0
   -3.8488   -0.2522    0.9796 H   0  0  0  0  0  0  0  0  0  0  0  0
   -2.5942   -1.9718    2.1819 H   0  0  0  0  0  0  0  0  0  0  0  0
    0.7977   -0.7620   -1.7130 H   0  0  0  0  0  0  0  0  0  0  0  0
    3.1378   -1.4425   -2.7599 H   0  0  0  0  0  0  0  0  0  0  0  0
    4.8681   -1.6490   -0.7321 H   0  0  0  0  0  0  0  0  0  0  0  0
    3.5279   -1.0788    1.4879 H   0  0  0  0  0  0  0  0  0  0  0  0
    0.7670    2.7437   -1.0626 H   0  0  0  0  0  0  0  0  0  0  0  0
   -1.6774    2.7731   -1.1499 H   0  0  0  0  0  0  0  0  0  0  0  0
  1  2  1  0
  2  3  2  0
  3  4  1  0
  4  5  1  0
  4  6  2  0
  6  7  1  0
  7  8  2  0
  7  9  1  0
  9 10  1  0
 10 11  2  0
 11 12  1  0
 12 13  2  0
  6 14  1  0
 14 15  1  0
 14 16  2  0
 16  2  1  0
 13  9  1  0
  1 17  1  0
  3 18  1  0
  5 19  1  0
 10 20  1  0
 11 21  1  0
 12 22  1  0
 13 23  1  0
 15 24  1  0
 16 25  1  0
M  END
$$$$
