
     RDKit          3D

104110  0  0  0  0  0  0  0  0999 V2000
   -0.7352   -2.7062   -3.7863 C   0  0  0  0  0  0  0  0  0  0  0  0
   -1.4416   -1.5832   -2.9900 C   0  0  0  0  0  0  0  0  0  0  0  0
   -2.8837   -2.0511   -2.6864 C   0  0  0  0  0  0  0  0  0  0  0  0
   -1.4903   -0.3291   -3.8958 C   0  0  0  0  0  0  0  0  0  0  0  0
   -0.6109   -1.2879   -1.6879 C   0  0  2  0  0  0  0  0  0  0  0  0
   -0.5056   -2.4761   -0.8242 N   0  0  0  0  0  0  0  0  0  0  0  0
   -1.3746   -2.7588    0.2840 C   0  0  0  0  0  0  0  0  0  0  0  0
   -1.0379   -3.6369    1.1234 O   0  0  0  0  0  0  0  0  0  0  0  0
   -2.5740   -2.0535    0.4405 O   0  0  0  0  0  0  0  0  0  0  0  0
   -3.3456   -2.0580    1.6406 C   0  0  2  0  0  0  0  0  0  0  0  0
   -3.9955   -3.4132    1.9018 C   0  0  0  0  0  0  0  0  0  0  0  0
   -5.3231   -3.1195    2.5978 C   0  0  0  0  0  0  0  0  0  0  0  0
   -5.5263   -1.6077    2.5413 C   0  0  0  0  0  0  0  0  0  0  0  0
   -4.5111   -1.0859    1.5256 C   0  0  1  0  0  0  0  0  0  0  0  0
   -4.0793    0.2342    1.8098 O   0  0  0  0  0  0  0  0  0  0  0  0
   -5.1252    1.1694    1.6075 C   0  0  0  0  0  0  0  0  0  0  0  0
   -4.5550    2.4721    1.1278 C   0  0  0  0  0  0  0  0  0  0  0  0
   -3.7012    3.1933    1.8731 C   0  0  0  0  0  0  0  0  0  0  0  0
   -3.1292    4.4991    1.3776 C   0  0  0  0  0  0  0  0  0  0  0  0
   -4.1663    5.3797    1.1159 F   0  0  0  0  0  0  0  0  0  0  0  0
   -2.3340    5.0586    2.3632 F   0  0  0  0  0  0  0  0  0  0  0  0
   -2.3165    4.2732    0.1260 C   0  0  0  0  0  0  0  0  0  0  0  0
   -2.8963    4.4952   -1.0872 N   0  0  0  0  0  0  0  0  0  0  0  0
   -2.2686    4.1746   -2.2478 C   0  0  0  0  0  0  0  0  0  0  0  0
   -0.9915    3.5873   -2.1985 C   0  0  0  0  0  0  0  0  0  0  0  0
   -0.3403    3.2236   -3.3817 C   0  0  0  0  0  0  0  0  0  0  0  0
   -0.9644    3.4444   -4.6142 C   0  0  0  0  0  0  0  0  0  0  0  0
   -2.2350    4.0307   -4.6644 C   0  0  0  0  0  0  0  0  0  0  0  0
   -2.8885    4.3970   -3.4821 C   0  0  0  0  0  0  0  0  0  0  0  0
   -0.4141    3.3598   -0.9929 N   0  0  0  0  0  0  0  0  0  0  0  0
   -1.0405    3.6753    0.1722 C   0  0  0  0  0  0  0  0  0  0  0  0
   -0.4385    3.3816    1.4062 O   0  0  0  0  0  0  0  0  0  0  0  0
    0.2557    2.1617    1.7078 C   0  0  2  0  0  0  0  0  0  0  0  0
    1.5328    1.9763    0.8731 C   0  0  0  0  0  0  0  0  0  0  0  0
    1.2104    0.8948   -0.1717 C   0  0  2  0  0  0  0  0  0  0  0  0
   -0.1410    0.4428    0.1318 N   0  0  0  0  0  0  0  0  0  0  0  0
   -0.6248    0.9572    1.3999 C   0  0  0  0  0  0  0  0  0  0  0  0
   -1.0281   -0.0794   -0.8697 C   0  0  0  0  0  0  0  0  0  0  0  0
   -2.1852    0.4084   -0.9782 O   0  0  0  0  0  0  0  0  0  0  0  0
    2.1787   -0.2542   -0.1008 C   0  0  0  0  0  0  0  0  0  0  0  0
    2.0443   -1.1327    0.7945 O   0  0  0  0  0  0  0  0  0  0  0  0
    3.2638   -0.3334   -1.0330 N   0  0  0  0  0  0  0  0  0  0  0  0
    4.2317   -1.4250   -0.9982 C   0  0  2  0  0  0  0  0  0  0  0  0
    4.5963   -1.9628   -2.3796 C   0  0  0  0  0  0  0  0  0  0  0  0
    3.7055   -2.7875   -1.4514 C   0  0  1  0  0  0  0  0  0  0  0  0
    4.3727   -4.0503   -0.8970 C   0  0  0  0  0  0  0  0  0  0  0  0
    4.2926   -5.0551   -1.8426 F   0  0  0  0  0  0  0  0  0  0  0  0
    3.7018   -4.4549    0.2413 F   0  0  0  0  0  0  0  0  0  0  0  0
    5.3608   -1.2938   -0.0179 C   0  0  0  0  0  0  0  0  0  0  0  0
    6.4292   -0.7286   -0.3746 O   0  0  0  0  0  0  0  0  0  0  0  0
    5.1860   -1.7284    1.3352 N   0  0  0  0  0  0  0  0  0  0  0  0
    6.2944   -1.3130    2.6032 S   0  0  0  0  0  6  0  0  0  0  0  0
    6.2543   -2.3924    3.6475 O   0  0  0  0  0  0  0  0  0  0  0  0
    7.6918   -1.2332    2.0556 O   0  0  0  0  0  0  0  0  0  0  0  0
    5.8620    0.2501    3.3705 C   0  0  0  0  0  0  0  0  0  0  0  0
    6.7606    0.7686    4.4933 C   0  0  0  0  0  0  0  0  0  0  0  0
    5.1934    1.2932    2.4877 C   0  0  0  0  0  0  0  0  0  0  0  0
    4.3724    0.5214    3.5184 C   0  0  0  0  0  0  0  0  0  0  0  0
    0.3097   -2.4181   -4.0335 H   0  0  0  0  0  0  0  0  0  0  0  0
   -0.7073   -3.6519   -3.2040 H   0  0  0  0  0  0  0  0  0  0  0  0
   -1.2694   -2.9131   -4.7391 H   0  0  0  0  0  0  0  0  0  0  0  0
   -3.4284   -2.2589   -3.6328 H   0  0  0  0  0  0  0  0  0  0  0  0
   -2.8810   -2.9889   -2.0925 H   0  0  0  0  0  0  0  0  0  0  0  0
   -3.4651   -1.2858   -2.1366 H   0  0  0  0  0  0  0  0  0  0  0  0
   -0.4653    0.0554   -4.0878 H   0  0  0  0  0  0  0  0  0  0  0  0
   -1.9583   -0.5688   -4.8751 H   0  0  0  0  0  0  0  0  0  0  0  0
   -2.0881    0.4864   -3.4409 H   0  0  0  0  0  0  0  0  0  0  0  0
    0.4173   -1.0568   -2.0424 H   0  0  0  0  0  0  0  0  0  0  0  0
    0.3257   -3.0959   -0.9533 H   0  0  0  0  0  0  0  0  0  0  0  0
   -2.7037   -1.7738    2.5063 H   0  0  0  0  0  0  0  0  0  0  0  0
   -4.1864   -3.9372    0.9387 H   0  0  0  0  0  0  0  0  0  0  0  0
   -3.3442   -4.0502    2.5387 H   0  0  0  0  0  0  0  0  0  0  0  0
   -5.2965   -3.4654    3.6544 H   0  0  0  0  0  0  0  0  0  0  0  0
   -6.1533   -3.6402    2.0718 H   0  0  0  0  0  0  0  0  0  0  0  0
   -5.3220   -1.1677    3.5429 H   0  0  0  0  0  0  0  0  0  0  0  0
   -6.5644   -1.3532    2.2360 H   0  0  0  0  0  0  0  0  0  0  0  0
   -4.9284   -1.1642    0.4925 H   0  0  0  0  0  0  0  0  0  0  0  0
   -5.6584    1.3385    2.5678 H   0  0  0  0  0  0  0  0  0  0  0  0
   -5.8745    0.8384    0.8506 H   0  0  0  0  0  0  0  0  0  0  0  0
   -4.8579    2.8369    0.1500 H   0  0  0  0  0  0  0  0  0  0  0  0
   -3.4049    2.8293    2.8534 H   0  0  0  0  0  0  0  0  0  0  0  0
    0.6395    2.7634   -3.3489 H   0  0  0  0  0  0  0  0  0  0  0  0
   -0.4649    3.1586   -5.5307 H   0  0  0  0  0  0  0  0  0  0  0  0
   -2.7145    4.1981   -5.6201 H   0  0  0  0  0  0  0  0  0  0  0  0
   -3.8737    4.8441   -3.5275 H   0  0  0  0  0  0  0  0  0  0  0  0
    0.5116    2.1710    2.7898 H   0  0  0  0  0  0  0  0  0  0  0  0
    1.8411    2.9264    0.3858 H   0  0  0  0  0  0  0  0  0  0  0  0
    2.3621    1.6598    1.5433 H   0  0  0  0  0  0  0  0  0  0  0  0
    1.2346    1.3400   -1.1902 H   0  0  0  0  0  0  0  0  0  0  0  0
   -1.6940    1.2445    1.3478 H   0  0  0  0  0  0  0  0  0  0  0  0
   -0.5037    0.1731    2.1783 H   0  0  0  0  0  0  0  0  0  0  0  0
    3.4348    0.4648   -1.6853 H   0  0  0  0  0  0  0  0  0  0  0  0
    4.0471   -1.5032   -3.2291 H   0  0  0  0  0  0  0  0  0  0  0  0
    5.6380   -2.3344   -2.4933 H   0  0  0  0  0  0  0  0  0  0  0  0
    2.6431   -2.8316   -1.7726 H   0  0  0  0  0  0  0  0  0  0  0  0
    5.4425   -3.8915   -0.6445 H   0  0  0  0  0  0  0  0  0  0  0  0
    4.3210   -2.2491    1.5985 H   0  0  0  0  0  0  0  0  0  0  0  0
    6.3986    1.7368    4.9013 H   0  0  0  0  0  0  0  0  0  0  0  0
    7.7901    0.9119    4.1045 H   0  0  0  0  0  0  0  0  0  0  0  0
    6.7879    0.0254    5.3171 H   0  0  0  0  0  0  0  0  0  0  0  0
    5.3639    2.3542    2.7687 H   0  0  0  0  0  0  0  0  0  0  0  0
    4.9702    0.9997    1.4428 H   0  0  0  0  0  0  0  0  0  0  0  0
    4.0705    1.1374    4.3921 H   0  0  0  0  0  0  0  0  0  0  0  0
    3.6870   -0.2261    3.0670 H   0  0  0  0  0  0  0  0  0  0  0  0
  1  2  1  0
  2  3  1  0
  2  4  1  0
  2  5  1  0
  5  6  1  0
  6  7  1  0
  7  8  2  0
  7  9  1  0
  9 10  1  0
 10 11  1  0
 11 12  1  0
 12 13  1  0
 13 14  1  0
 14 15  1  0
 15 16  1  0
 16 17  1  0
 17 18  2  0
 18 19  1  0
 19 20  1  0
 19 21  1  0
 19 22  1  0
 22 23  2  0
 23 24  1  0
 24 25  2  0
 25 26  1  0
 26 27  2  0
 27 28  1  0
 28 29  2  0
 25 30  1  0
 30 31  2  0
 31 32  1  0
 32 33  1  0
 33 34  1  0
 34 35  1  0
 35 36  1  0
 36 37  1  0
 36 38  1  0
 38 39  2  0
 35 40  1  0
 40 41  2  0
 40 42  1  0
 43 42  1  6
 43 44  1  0
 44 45  1  0
 45 46  1  0
 46 47  1  0
 46 48  1  0
 43 49  1  0
 49 50  2  0
 49 51  1  0
 51 52  1  0
 52 53  2  0
 52 54  2  0
 52 55  1  0
 55 56  1  0
 55 57  1  0
 57 58  1  0
 38  5  1  0
 45 43  1  0
 58 55  1  0
 14 10  1  0
 31 22  1  0
 37 33  1  0
 29 24  1  0
  1 59  1  0
  1 60  1  0
  1 61  1  0
  3 62  1  0
  3 63  1  0
  3 64  1  0
  4 65  1  0
  4 66  1  0
  4 67  1  0
  5 68  1  6
  6 69  1  0
 10 70  1  1
 11 71  1  0
 11 72  1  0
 12 73  1  0
 12 74  1  0
 13 75  1  0
 13 76  1  0
 14 77  1  6
 16 78  1  0
 16 79  1  0
 17 80  1  0
 18 81  1  0
 26 82  1  0
 27 83  1  0
 28 84  1  0
 29 85  1  0
 33 86  1  1
 34 87  1  0
 34 88  1  0
 35 89  1  6
 37 90  1  0
 37 91  1  0
 42 92  1  0
 44 93  1  0
 44 94  1  0
 45 95  1  6
 46 96  1  0
 51 97  1  0
 56 98  1  0
 56 99  1  0
 56100  1  0
 57101  1  0
 57102  1  0
 58103  1  0
 58104  1  0
M  END
$$$$
