
     RDKit          3D

 23 24  0  0  0  0  0  0  0  0999 V2000
    4.5533    0.3476    0.4151 N   0  0  0  0  0  0  0  0  0  0  0  0
    3.2954    0.0348   -0.1762 C   0  0  0  0  0  0  0  0  0  0  0  0
    2.9061   -1.2266   -0.4607 N   0  0  0  0  0  0  0  0  0  0  0  0
    1.6639   -1.2506   -1.0120 C   0  0  0  0  0  0  0  0  0  0  0  0
    1.0746   -0.0001   -1.1729 C   0  0  0  0  0  0  0  0  0  0  0  0
   -0.3080    0.2572   -1.6822 C   0  0  0  0  0  0  0  0  0  0  0  0
   -1.2962    0.1894   -0.5510 C   0  0  0  0  0  0  0  0  0  0  0  0
   -1.5920    1.3383    0.2019 C   0  0  0  0  0  0  0  0  0  0  0  0
   -2.4842    1.2655    1.2763 C   0  0  0  0  0  0  0  0  0  0  0  0
   -3.0789    0.0460    1.6118 C   0  0  0  0  0  0  0  0  0  0  0  0
   -2.7794   -1.1039    0.8759 C   0  0  0  0  0  0  0  0  0  0  0  0
   -1.8878   -1.0356   -0.1992 C   0  0  0  0  0  0  0  0  0  0  0  0
    2.1276    1.1747   -0.5832 S   0  0  0  0  0  0  0  0  0  0  0  0
    4.8073    1.3390    0.6210 H   0  0  0  0  0  0  0  0  0  0  0  0
    5.2299   -0.4129    0.6464 H   0  0  0  0  0  0  0  0  0  0  0  0
    1.1786   -2.1762   -1.2921 H   0  0  0  0  0  0  0  0  0  0  0  0
   -0.5638   -0.4914   -2.4633 H   0  0  0  0  0  0  0  0  0  0  0  0
   -0.3443    1.2574   -2.1655 H   0  0  0  0  0  0  0  0  0  0  0  0
   -1.1303    2.2872   -0.0416 H   0  0  0  0  0  0  0  0  0  0  0  0
   -2.7117    2.1539    1.8511 H   0  0  0  0  0  0  0  0  0  0  0  0
   -3.7681   -0.0089    2.4445 H   0  0  0  0  0  0  0  0  0  0  0  0
   -3.2354   -2.0490    1.1408 H   0  0  0  0  0  0  0  0  0  0  0  0
   -1.6566   -1.9358   -0.7553 H   0  0  0  0  0  0  0  0  0  0  0  0
  1  2  1  0
  2  3  2  0
  3  4  1  0
  4  5  2  0
  5  6  1  0
  6  7  1  0
  7  8  2  0
  8  9  1  0
  9 10  2  0
 10 11  1  0
 11 12  2  0
  5 13  1  0
 13  2  1  0
 12  7  1  0
  1 14  1  0
  1 15  1  0
  4 16  1  0
  6 17  1  0
  6 18  1  0
  8 19  1  0
  9 20  1  0
 10 21  1  0
 11 22  1  0
 12 23  1  0
M  END
$$$$
