
     RDKit          3D

 40 41  0  0  0  0  0  0  0  0999 V2000
   -4.7453    0.1286   -0.1181 N   0  0  0  0  0  0  0  0  0  0  0  0
   -3.9256    0.5671   -1.2498 C   0  0  0  0  0  0  0  0  0  0  0  0
   -4.7969    1.2945   -2.2733 C   0  0  0  0  0  0  0  0  0  0  0  0
   -4.0172    1.7291   -3.3539 O   0  0  0  0  0  0  0  0  0  0  0  0
   -3.7898   -0.8489    0.9557 S   0  0  0  0  0  6  0  0  0  0  0  0
   -4.6131   -1.2237    2.1558 O   0  0  0  0  0  0  0  0  0  0  0  0
   -3.3927   -2.1154    0.2487 O   0  0  0  0  0  0  0  0  0  0  0  0
   -2.3446    0.0298    1.4818 C   0  0  0  0  0  0  0  0  0  0  0  0
   -2.4238    1.1030    2.3937 C   0  0  0  0  0  0  0  0  0  0  0  0
   -3.9522    1.6350    3.0859 Cl  0  0  0  0  0  0  0  0  0  0  0  0
   -1.2623    1.7909    2.7595 C   0  0  0  0  0  0  0  0  0  0  0  0
   -0.0247    1.4228    2.2299 C   0  0  0  0  0  0  0  0  0  0  0  0
    0.0713    0.3529    1.3292 C   0  0  0  0  0  0  0  0  0  0  0  0
   -1.0963   -0.3266    0.9471 C   0  0  0  0  0  0  0  0  0  0  0  0
    1.3858   -0.0140    0.7596 C   0  0  0  0  0  0  0  0  0  0  0  0
    1.9116   -1.3006    0.5628 C   0  0  0  0  0  0  0  0  0  0  0  0
    1.2137   -2.5728    0.9320 C   0  0  0  0  0  0  0  0  0  0  0  0
    3.1534   -1.3272    0.0060 N   0  0  0  0  0  0  0  0  0  0  0  0
    3.6311   -0.0851   -0.2261 C   0  0  0  0  0  0  0  0  0  0  0  0
    2.5409    1.1016    0.2446 S   0  0  0  0  0  0  0  0  0  0  0  0
    4.9154    0.1901   -0.8001 N   0  0  0  0  0  0  0  0  0  0  0  0
    5.8489   -0.8253   -1.1976 C   0  0  0  0  0  0  0  0  0  0  0  0
    7.1635   -0.4321   -1.7891 C   0  0  0  0  0  0  0  0  0  0  0  0
    5.5826   -2.0469   -1.0366 O   0  0  0  0  0  0  0  0  0  0  0  0
   -5.0413    0.9759    0.4186 H   0  0  0  0  0  0  0  0  0  0  0  0
   -3.1220    1.2547   -0.9029 H   0  0  0  0  0  0  0  0  0  0  0  0
   -3.4582   -0.3125   -1.7449 H   0  0  0  0  0  0  0  0  0  0  0  0
   -5.6130    0.6241   -2.6279 H   0  0  0  0  0  0  0  0  0  0  0  0
   -5.2641    2.1821   -1.7959 H   0  0  0  0  0  0  0  0  0  0  0  0
   -3.8392    0.9299   -3.9155 H   0  0  0  0  0  0  0  0  0  0  0  0
   -1.3176    2.6179    3.4562 H   0  0  0  0  0  0  0  0  0  0  0  0
    0.8605    1.9686    2.5324 H   0  0  0  0  0  0  0  0  0  0  0  0
   -1.0392   -1.1132    0.2079 H   0  0  0  0  0  0  0  0  0  0  0  0
    0.5535   -2.8928    0.0998 H   0  0  0  0  0  0  0  0  0  0  0  0
    1.9606   -3.3729    1.1186 H   0  0  0  0  0  0  0  0  0  0  0  0
    0.6154   -2.4367    1.8571 H   0  0  0  0  0  0  0  0  0  0  0  0
    5.1839    1.1906   -0.9366 H   0  0  0  0  0  0  0  0  0  0  0  0
    7.7808    0.0717   -1.0164 H   0  0  0  0  0  0  0  0  0  0  0  0
    6.9980    0.2653   -2.6366 H   0  0  0  0  0  0  0  0  0  0  0  0
    7.7083   -1.3256   -2.1618 H   0  0  0  0  0  0  0  0  0  0  0  0
  1  2  1  0
  2  3  1  0
  3  4  1  0
  1  5  1  0
  5  6  2  0
  5  7  2  0
  5  8  1  0
  8  9  2  0
  9 10  1  0
  9 11  1  0
 11 12  2  0
 12 13  1  0
 13 14  2  0
 13 15  1  0
 15 16  2  0
 16 17  1  0
 16 18  1  0
 18 19  2  0
 19 20  1  0
 19 21  1  0
 21 22  1  0
 22 23  1  0
 22 24  2  0
 14  8  1  0
 20 15  1  0
  1 25  1  0
  2 26  1  0
  2 27  1  0
  3 28  1  0
  3 29  1  0
  4 30  1  0
 11 31  1  0
 12 32  1  0
 14 33  1  0
 17 34  1  0
 17 35  1  0
 17 36  1  0
 21 37  1  0
 23 38  1  0
 23 39  1  0
 23 40  1  0
M  END
$$$$
