
     RDKit          3D

 45 45  0  0  0  0  0  0  0  0999 V2000
   -1.5148   -2.0368    1.6168 C   0  0  2  0  0  0  0  0  0  0  0  0
   -1.0119   -3.4157    1.6533 N   0  0  0  0  0  0  0  0  0  0  0  0
   -1.7752   -1.5673    0.1551 C   0  0  0  0  0  0  0  0  0  0  0  0
   -3.0798   -0.7762    0.0181 C   0  0  0  0  0  0  0  0  0  0  0  0
   -3.2757   -0.2125   -1.7114 S   0  0  0  0  0  0  0  0  0  0  0  0
   -4.6812    0.9563   -1.4966 C   0  0  0  0  0  0  0  0  0  0  0  0
   -5.8758    0.3242   -0.7765 C   0  0  0  0  0  0  0  0  0  0  0  0
   -4.2354    2.2567   -0.8233 C   0  0  0  0  0  0  0  0  0  0  0  0
   -0.5726   -1.0998    2.4277 C   0  0  2  0  0  0  0  0  0  0  0  0
   -1.2143    0.1251    2.6863 O   0  0  0  0  0  0  0  0  0  0  0  0
    0.8041   -0.8687    1.8283 C   0  0  0  0  0  0  0  0  0  0  0  0
    1.2957   -1.6915    1.0099 O   0  0  0  0  0  0  0  0  0  0  0  0
    1.5922    0.2460    2.2714 N   0  0  0  0  0  0  0  0  0  0  0  0
    2.7797    0.6352    1.6258 N   0  0  0  0  0  0  0  0  0  0  0  0
    2.8927    0.6850    0.1944 C   0  0  0  0  0  0  0  0  0  0  0  0
    1.8474    0.6686   -0.5118 O   0  0  0  0  0  0  0  0  0  0  0  0
    4.2174    0.7959   -0.4632 C   0  0  0  0  0  0  0  0  0  0  0  0
    5.3969    0.4406    0.2190 C   0  0  0  0  0  0  0  0  0  0  0  0
    6.6408    0.5431   -0.4146 C   0  0  0  0  0  0  0  0  0  0  0  0
    8.1029    0.0957    0.4456 Cl  0  0  0  0  0  0  0  0  0  0  0  0
    6.7190    0.9955   -1.7346 C   0  0  0  0  0  0  0  0  0  0  0  0
    5.5552    1.3411   -2.4241 C   0  0  0  0  0  0  0  0  0  0  0  0
    4.3105    1.2397   -1.7958 C   0  0  0  0  0  0  0  0  0  0  0  0
   -2.4860   -2.0412    2.1642 H   0  0  0  0  0  0  0  0  0  0  0  0
   -1.7997   -4.0607    1.4122 H   0  0  0  0  0  0  0  0  0  0  0  0
   -0.2811   -3.5556    0.9197 H   0  0  0  0  0  0  0  0  0  0  0  0
   -1.8508   -2.4509   -0.5164 H   0  0  0  0  0  0  0  0  0  0  0  0
   -0.9327   -0.9489   -0.2201 H   0  0  0  0  0  0  0  0  0  0  0  0
   -3.9320   -1.4376    0.2819 H   0  0  0  0  0  0  0  0  0  0  0  0
   -3.0686    0.0902    0.7044 H   0  0  0  0  0  0  0  0  0  0  0  0
   -5.0170    1.2174   -2.5236 H   0  0  0  0  0  0  0  0  0  0  0  0
   -6.7657    0.9813   -0.8784 H   0  0  0  0  0  0  0  0  0  0  0  0
   -6.1161   -0.6610   -1.2290 H   0  0  0  0  0  0  0  0  0  0  0  0
   -5.6695    0.1902    0.3058 H   0  0  0  0  0  0  0  0  0  0  0  0
   -3.3431    2.6667   -1.3419 H   0  0  0  0  0  0  0  0  0  0  0  0
   -3.9901    2.0991    0.2463 H   0  0  0  0  0  0  0  0  0  0  0  0
   -5.0498    3.0098   -0.8846 H   0  0  0  0  0  0  0  0  0  0  0  0
   -0.4034   -1.5850    3.4133 H   0  0  0  0  0  0  0  0  0  0  0  0
   -1.1640    0.6747    1.8611 H   0  0  0  0  0  0  0  0  0  0  0  0
    1.3498    0.6989    3.1810 H   0  0  0  0  0  0  0  0  0  0  0  0
    3.5246    1.0865    2.2019 H   0  0  0  0  0  0  0  0  0  0  0  0
    5.3583    0.0654    1.2332 H   0  0  0  0  0  0  0  0  0  0  0  0
    7.6794    1.0755   -2.2278 H   0  0  0  0  0  0  0  0  0  0  0  0
    5.6171    1.6884   -3.4474 H   0  0  0  0  0  0  0  0  0  0  0  0
    3.4223    1.5169   -2.3499 H   0  0  0  0  0  0  0  0  0  0  0  0
  1  2  1  0
  1  3  1  0
  3  4  1  0
  4  5  1  0
  5  6  1  0
  6  7  1  0
  6  8  1  0
  1  9  1  0
  9 10  1  0
  9 11  1  0
 11 12  2  0
 11 13  1  0
 13 14  1  0
 14 15  1  0
 15 16  2  0
 15 17  1  0
 17 18  2  0
 18 19  1  0
 19 20  1  0
 19 21  2  0
 21 22  1  0
 22 23  2  0
 23 17  1  0
  1 24  1  1
  2 25  1  0
  2 26  1  0
  3 27  1  0
  3 28  1  0
  4 29  1  0
  4 30  1  0
  6 31  1  0
  7 32  1  0
  7 33  1  0
  7 34  1  0
  8 35  1  0
  8 36  1  0
  8 37  1  0
  9 38  1  1
 10 39  1  0
 13 40  1  0
 14 41  1  0
 18 42  1  0
 21 43  1  0
 22 44  1  0
 23 45  1  0
M  END
$$$$
