
     RDKit          3D

 31 31  0  0  0  0  0  0  0  0999 V2000
   -2.5955   -0.3628    1.8742 C   0  0  0  0  0  0  0  0  0  0  0  0
   -2.7685    0.8292    0.9385 C   0  0  0  0  0  0  0  0  0  0  0  0
   -3.1599    0.3687   -0.4486 C   0  0  0  0  0  0  0  0  0  0  0  0
   -4.4567    0.3287   -0.7803 C   0  0  0  0  0  0  0  0  0  0  0  0
   -2.1307   -0.1375   -1.3973 C   0  0  0  0  0  0  0  0  0  0  0  0
   -2.4737   -0.8546   -2.3767 O   0  0  0  0  0  0  0  0  0  0  0  0
   -0.6951    0.1423   -1.2042 C   0  0  0  0  0  0  0  0  0  0  0  0
   -0.1760    1.4487   -1.3144 C   0  0  0  0  0  0  0  0  0  0  0  0
   -1.2348    2.7978   -1.7387 Cl  0  0  0  0  0  0  0  0  0  0  0  0
    1.1993    1.6728   -1.1120 C   0  0  0  0  0  0  0  0  0  0  0  0
    1.8678    3.2996   -1.2317 Cl  0  0  0  0  0  0  0  0  0  0  0  0
    2.0576    0.6019   -0.8128 C   0  0  0  0  0  0  0  0  0  0  0  0
    3.4232    0.8704   -0.6118 O   0  0  0  0  0  0  0  0  0  0  0  0
    4.4100   -0.0910   -0.2386 C   0  0  0  0  0  0  0  0  0  0  0  0
    4.2112   -0.5280    1.1784 C   0  0  0  0  0  0  0  0  0  0  0  0
    3.9586    0.4179    2.1669 O   0  0  0  0  0  0  0  0  0  0  0  0
    4.3044   -1.7472    1.4821 O   0  0  0  0  0  0  0  0  0  0  0  0
    1.5304   -0.6995   -0.7292 C   0  0  0  0  0  0  0  0  0  0  0  0
    0.1686   -0.9241   -0.9283 C   0  0  0  0  0  0  0  0  0  0  0  0
   -2.3153   -0.0034    2.8867 H   0  0  0  0  0  0  0  0  0  0  0  0
   -1.7925   -1.0339    1.5015 H   0  0  0  0  0  0  0  0  0  0  0  0
   -3.5453   -0.9342    1.9494 H   0  0  0  0  0  0  0  0  0  0  0  0
   -1.8223    1.4068    0.9090 H   0  0  0  0  0  0  0  0  0  0  0  0
   -3.5399    1.5111    1.3595 H   0  0  0  0  0  0  0  0  0  0  0  0
   -4.7810   -0.0209   -1.7524 H   0  0  0  0  0  0  0  0  0  0  0  0
   -5.2207    0.6514   -0.0839 H   0  0  0  0  0  0  0  0  0  0  0  0
    5.4107    0.3814   -0.3192 H   0  0  0  0  0  0  0  0  0  0  0  0
    4.3892   -0.9565   -0.9357 H   0  0  0  0  0  0  0  0  0  0  0  0
    3.8314    0.1390    3.1323 H   0  0  0  0  0  0  0  0  0  0  0  0
    2.1628   -1.5479   -0.5100 H   0  0  0  0  0  0  0  0  0  0  0  0
   -0.2172   -1.9338   -0.8528 H   0  0  0  0  0  0  0  0  0  0  0  0
  1  2  1  0
  2  3  1  0
  3  4  2  3
  3  5  1  0
  5  6  2  0
  5  7  1  0
  7  8  2  0
  8  9  1  0
  8 10  1  0
 10 11  1  0
 10 12  2  0
 12 13  1  0
 13 14  1  0
 14 15  1  0
 15 16  1  0
 15 17  2  0
 12 18  1  0
 18 19  2  0
 19  7  1  0
  1 20  1  0
  1 21  1  0
  1 22  1  0
  2 23  1  0
  2 24  1  0
  4 25  1  0
  4 26  1  0
 14 27  1  0
 14 28  1  0
 16 29  1  0
 18 30  1  0
 19 31  1  0
M  END
$$$$
