
     RDKit          3D

 47 48  0  0  0  0  0  0  0  0999 V2000
   -3.6002    0.3964   -0.0997 C   0  0  1  0  0  0  0  0  0  0  0  0
   -4.0410   -0.9384   -0.1906 O   0  0  0  0  0  0  0  0  0  0  0  0
   -3.0553    0.6545    1.1844 O   0  0  0  0  0  0  0  0  0  0  0  0
   -1.9119   -0.1475    1.4426 C   0  0  2  0  0  0  0  0  0  0  0  0
   -1.4726    0.0843    2.8977 C   0  0  0  0  0  0  0  0  0  0  0  0
   -1.0977    1.4198    3.1097 O   0  0  0  0  0  0  0  0  0  0  0  0
   -0.7716    0.1721    0.4450 C   0  0  1  0  0  0  0  0  0  0  0  0
    0.3190   -0.7075    0.6783 O   0  0  0  0  0  0  0  0  0  0  0  0
    1.4882   -0.0050    1.0591 C   0  0  2  0  0  0  0  0  0  0  0  0
    2.0082    0.7258   -0.0553 O   0  0  0  0  0  0  0  0  0  0  0  0
    2.8465    0.1522   -1.0219 C   0  0  0  0  0  0  0  0  0  0  0  0
    3.3698   -1.0683   -0.8260 C   0  0  0  0  0  0  0  0  0  0  0  0
    3.0325   -1.8883    0.3913 C   0  0  2  0  0  0  0  0  0  0  0  0
    2.0532   -2.8303    0.0379 O   0  0  0  0  0  0  0  0  0  0  0  0
    2.5416   -1.0067    1.5633 C   0  0  1  0  0  0  0  0  0  0  0  0
    3.6486   -0.2945    2.0856 O   0  0  0  0  0  0  0  0  0  0  0  0
    3.6052   -0.2993    3.7825 S   0  0  0  0  0  6  0  0  0  0  0  0
    4.8298    0.6956    4.3573 O   0  0  0  0  0  1  0  0  0  0  0  0
    2.2841    0.2188    4.2796 O   0  0  0  0  0  0  0  0  0  0  0  0
    3.8274   -1.6943    4.2965 O   0  0  0  0  0  0  0  0  0  0  0  0
    3.1563    0.9288   -2.2342 C   0  0  0  0  0  0  0  0  0  0  0  0
    3.9967    0.4174   -3.2169 O   0  0  0  0  0  1  0  0  0  0  0  0
    2.6531    2.0723   -2.3887 O   0  0  0  0  0  0  0  0  0  0  0  0
   -1.2774   -0.0505   -0.9890 C   0  0  2  0  0  0  0  0  0  0  0  0
   -0.2943    0.3841   -1.8931 O   0  0  0  0  0  0  0  0  0  0  0  0
   -2.5877    0.7390   -1.2127 C   0  0  1  0  0  0  0  0  0  0  0  0
   -3.1968    0.4534   -2.5278 N   0  0  0  0  0  0  0  0  0  0  0  0
   -3.0203    1.7932   -3.6226 S   0  0  0  0  0  6  0  0  0  0  0  0
   -3.7903    3.1453   -2.9885 O   0  0  0  0  0  1  0  0  0  0  0  0
   -3.6508    1.4414   -4.9400 O   0  0  0  0  0  0  0  0  0  0  0  0
   -1.5655    2.1019   -3.8380 O   0  0  0  0  0  0  0  0  0  0  0  0
   -4.4752    1.0770   -0.2194 H   0  0  0  0  0  0  0  0  0  0  0  0
   -4.7452   -0.9673   -0.8898 H   0  0  0  0  0  0  0  0  0  0  0  0
   -2.1714   -1.2288    1.3657 H   0  0  0  0  0  0  0  0  0  0  0  0
   -0.6114   -0.5730    3.1425 H   0  0  0  0  0  0  0  0  0  0  0  0
   -2.3007   -0.1980    3.5876 H   0  0  0  0  0  0  0  0  0  0  0  0
   -1.9366    1.9400    3.2137 H   0  0  0  0  0  0  0  0  0  0  0  0
   -0.5101    1.2552    0.5448 H   0  0  0  0  0  0  0  0  0  0  0  0
    1.2661    0.7063    1.8855 H   0  0  0  0  0  0  0  0  0  0  0  0
    4.0057   -1.5199   -1.5779 H   0  0  0  0  0  0  0  0  0  0  0  0
    3.9591   -2.4216    0.7077 H   0  0  0  0  0  0  0  0  0  0  0  0
    2.0690   -3.5374    0.7349 H   0  0  0  0  0  0  0  0  0  0  0  0
    2.0649   -1.6816    2.3137 H   0  0  0  0  0  0  0  0  0  0  0  0
   -1.4727   -1.1431   -1.1227 H   0  0  0  0  0  0  0  0  0  0  0  0
   -0.3427   -0.2079   -2.6882 H   0  0  0  0  0  0  0  0  0  0  0  0
   -2.3550    1.8241   -1.1063 H   0  0  0  0  0  0  0  0  0  0  0  0
   -2.7707   -0.3897   -2.9766 H   0  0  0  0  0  0  0  0  0  0  0  0
  1  2  1  0
  1  3  1  0
  3  4  1  0
  4  5  1  0
  5  6  1  0
  4  7  1  0
  7  8  1  0
  8  9  1  0
  9 10  1  0
 10 11  1  0
 11 12  2  0
 12 13  1  0
 13 14  1  0
 13 15  1  0
 15 16  1  0
 16 17  1  0
 17 18  1  0
 17 19  2  0
 17 20  2  0
 11 21  1  0
 21 22  1  0
 21 23  2  0
  7 24  1  0
 24 25  1  0
 24 26  1  0
 26 27  1  0
 27 28  1  0
 28 29  1  0
 28 30  2  0
 28 31  2  0
 26  1  1  0
 15  9  1  0
  1 32  1  6
  2 33  1  0
  4 34  1  1
  5 35  1  0
  5 36  1  0
  6 37  1  0
  7 38  1  6
  9 39  1  1
 12 40  1  0
 13 41  1  1
 14 42  1  0
 15 43  1  1
 24 44  1  6
 25 45  1  0
 26 46  1  6
 27 47  1  0
M  CHG  3  18  -1  22  -1  29  -1
M  END
$$$$
