
     RDKit          3D

 41 43  0  0  0  0  0  0  0  0999 V2000
   -2.6916   -0.5326   -0.6812 C   0  0  1  0  0  0  0  0  0  0  0  0
   -3.3619    0.8192   -0.9458 C   0  0  0  0  0  0  0  0  0  0  0  0
   -4.6012    0.8677   -0.2779 O   0  0  0  0  0  0  0  0  0  0  0  0
   -5.2921    2.4060   -0.5342 P   0  0  0  0  0  5  0  0  0  0  0  0
   -6.8386    2.4354    0.1508 O   0  0  0  0  0  0  0  0  0  0  0  0
   -5.4133    2.7316   -2.1914 O   0  0  0  0  0  0  0  0  0  0  0  0
   -4.4435    3.4692    0.1264 O   0  0  0  0  0  0  0  0  0  0  0  0
   -1.4799   -0.6103   -1.3994 O   0  0  0  0  0  0  0  0  0  0  0  0
   -0.5404   -1.3011   -0.5995 C   0  0  1  0  0  0  0  0  0  0  0  0
    0.6480   -0.4663   -0.4090 N   0  0  0  0  0  0  0  0  0  0  0  0
    0.7048    0.8752   -0.1957 C   0  0  0  0  0  0  0  0  0  0  0  0
    1.9646    1.3307    0.0509 N   0  0  0  0  0  0  0  0  0  0  0  0
    2.7016    0.2059   -0.0056 C   0  0  0  0  0  0  0  0  0  0  0  0
    1.9183   -0.8640   -0.2702 C   0  0  0  0  0  0  0  0  0  0  0  0
    2.4050   -2.1265   -0.3453 N   0  0  0  0  0  0  0  0  0  0  0  0
    3.7469   -2.3064   -0.1544 C   0  0  0  0  0  0  0  0  0  0  0  0
    4.5619   -1.2349    0.1109 N   0  0  0  0  0  0  0  0  0  0  0  0
    4.0639    0.0375    0.1937 C   0  0  0  0  0  0  0  0  0  0  0  0
    4.8841    1.1332    0.4716 O   0  0  0  0  0  0  0  0  0  0  0  0
    6.5772    0.9778    0.7263 P   0  0  0  0  0  5  0  0  0  0  0  0
    7.2349    2.4994    1.0651 O   0  0  0  0  0  0  0  0  0  0  0  0
    6.8582   -0.0592    2.0336 O   0  0  0  0  0  0  0  0  0  0  0  0
    7.2275    0.4132   -0.5167 O   0  0  0  0  0  0  0  0  0  0  0  0
   -1.1738   -1.6454    0.7539 C   0  0  2  0  0  0  0  0  0  0  0  0
   -1.5120   -3.0120    0.8289 O   0  0  0  0  0  0  0  0  0  0  0  0
   -2.3914   -0.7509    0.7972 C   0  0  2  0  0  0  0  0  0  0  0  0
   -3.4777   -1.3554    1.4506 O   0  0  0  0  0  0  0  0  0  0  0  0
   -3.3648   -1.3390   -1.0523 H   0  0  0  0  0  0  0  0  0  0  0  0
   -3.5112    0.9163   -2.0449 H   0  0  0  0  0  0  0  0  0  0  0  0
   -2.6825    1.6307   -0.5974 H   0  0  0  0  0  0  0  0  0  0  0  0
   -7.3165    1.6791   -0.2741 H   0  0  0  0  0  0  0  0  0  0  0  0
   -5.9615    1.9909   -2.5542 H   0  0  0  0  0  0  0  0  0  0  0  0
   -0.2441   -2.2306   -1.1349 H   0  0  0  0  0  0  0  0  0  0  0  0
   -0.1636    1.5204   -0.2031 H   0  0  0  0  0  0  0  0  0  0  0  0
    4.1686   -3.3004   -0.2109 H   0  0  0  0  0  0  0  0  0  0  0  0
    6.9534    3.0703    0.3062 H   0  0  0  0  0  0  0  0  0  0  0  0
    7.8409   -0.0501    2.1566 H   0  0  0  0  0  0  0  0  0  0  0  0
   -0.4931   -1.4075    1.6013 H   0  0  0  0  0  0  0  0  0  0  0  0
   -2.1085   -3.2275    0.0642 H   0  0  0  0  0  0  0  0  0  0  0  0
   -2.1259    0.2155    1.2890 H   0  0  0  0  0  0  0  0  0  0  0  0
   -3.2705   -1.3283    2.4210 H   0  0  0  0  0  0  0  0  0  0  0  0
  1  2  1  0
  2  3  1  0
  3  4  1  0
  4  5  1  0
  4  6  1  0
  4  7  2  0
  1  8  1  0
  8  9  1  0
  9 10  1  0
 10 11  1  0
 11 12  2  0
 12 13  1  0
 13 14  2  0
 14 15  1  0
 15 16  2  0
 16 17  1  0
 17 18  2  0
 18 19  1  0
 19 20  1  0
 20 21  1  0
 20 22  1  0
 20 23  2  0
  9 24  1  0
 24 25  1  0
 24 26  1  0
 26 27  1  0
 26  1  1  0
 14 10  1  0
 18 13  1  0
  1 28  1  6
  2 29  1  0
  2 30  1  0
  5 31  1  0
  6 32  1  0
  9 33  1  6
 11 34  1  0
 16 35  1  0
 21 36  1  0
 22 37  1  0
 24 38  1  1
 25 39  1  0
 26 40  1  1
 27 41  1  0
M  END
$$$$
