
     RDKit          3D

 37 39  0  0  0  0  0  0  0  0999 V2000
   -1.0164   -0.7938    0.9734 C   0  0  2  0  0  0  0  0  0  0  0  0
    0.5093   -0.8842    0.8128 C   0  0  0  0  0  0  0  0  0  0  0  0
    1.0420    0.0117   -0.3156 C   0  0  0  0  0  0  0  0  0  0  0  0
    2.4921   -0.1284   -0.4351 N   0  0  0  0  0  0  0  0  0  0  0  0
    3.4019    0.4721    0.5008 C   0  0  0  0  0  0  0  0  0  0  0  0
    2.9577    1.2045    1.4265 O   0  0  0  0  0  0  0  0  0  0  0  0
    4.8571    0.2529    0.3960 C   0  0  0  0  0  0  0  0  0  0  0  0
    5.5301   -0.5517   -0.5054 C   0  0  0  0  0  0  0  0  0  0  0  0
    6.8202   -0.4834   -0.2684 O   0  0  0  0  0  0  0  0  0  0  0  0
    7.0279    0.3256    0.7457 C   0  0  0  0  0  0  0  0  0  0  0  0
    5.8237    0.8171    1.2042 C   0  0  0  0  0  0  0  0  0  0  0  0
   -1.7029   -1.2305   -0.2457 N   0  0  0  0  0  0  0  0  0  0  0  0
   -3.0368   -0.7757   -0.5058 C   0  0  0  0  0  0  0  0  0  0  0  0
   -3.8734   -1.4758   -1.3895 C   0  0  0  0  0  0  0  0  0  0  0  0
   -3.4192   -2.5705   -2.0500 F   0  0  0  0  0  0  0  0  0  0  0  0
   -5.1928   -1.0603   -1.5778 C   0  0  0  0  0  0  0  0  0  0  0  0
   -5.6871    0.0405   -0.8767 C   0  0  0  0  0  0  0  0  0  0  0  0
   -4.8588    0.7535   -0.0041 C   0  0  0  0  0  0  0  0  0  0  0  0
   -5.3998    1.7733    0.7068 F   0  0  0  0  0  0  0  0  0  0  0  0
   -3.5103    0.3700    0.1608 C   0  0  0  0  0  0  0  0  0  0  0  0
   -2.5451    1.1177    1.0144 C   0  0  0  0  0  0  0  0  0  0  0  0
   -2.7743    2.4791    1.3893 N   0  0  0  0  0  0  0  0  0  0  0  0
   -1.4046    0.5751    1.3293 N   0  0  0  0  0  0  0  0  0  0  0  0
   -1.3215   -1.4687    1.8024 H   0  0  0  0  0  0  0  0  0  0  0  0
    0.9852   -0.5948    1.7745 H   0  0  0  0  0  0  0  0  0  0  0  0
    0.7913   -1.9395    0.6045 H   0  0  0  0  0  0  0  0  0  0  0  0
    0.5722   -0.2876   -1.2775 H   0  0  0  0  0  0  0  0  0  0  0  0
    0.7839    1.0767   -0.1294 H   0  0  0  0  0  0  0  0  0  0  0  0
    2.8637   -0.6342   -1.2690 H   0  0  0  0  0  0  0  0  0  0  0  0
    5.0943   -1.1553   -1.2892 H   0  0  0  0  0  0  0  0  0  0  0  0
    8.0035    0.5606    1.1495 H   0  0  0  0  0  0  0  0  0  0  0  0
    5.6739    1.5030    2.0277 H   0  0  0  0  0  0  0  0  0  0  0  0
   -1.3290   -2.0567   -0.7658 H   0  0  0  0  0  0  0  0  0  0  0  0
   -5.8412   -1.6053   -2.2518 H   0  0  0  0  0  0  0  0  0  0  0  0
   -6.7204    0.3372   -1.0039 H   0  0  0  0  0  0  0  0  0  0  0  0
   -2.1262    2.9491    2.0600 H   0  0  0  0  0  0  0  0  0  0  0  0
   -3.4701    3.0767    0.8941 H   0  0  0  0  0  0  0  0  0  0  0  0
  1  2  1  0
  2  3  1  0
  3  4  1  0
  4  5  1  0
  5  6  2  0
  5  7  1  0
  7  8  2  0
  8  9  1  0
  9 10  1  0
 10 11  2  0
  1 12  1  0
 12 13  1  0
 13 14  2  0
 14 15  1  0
 14 16  1  0
 16 17  2  0
 17 18  1  0
 18 19  1  0
 18 20  2  0
 20 21  1  0
 21 22  1  0
 21 23  2  0
 23  1  1  0
 11  7  1  0
 20 13  1  0
  1 24  1  1
  2 25  1  0
  2 26  1  0
  3 27  1  0
  3 28  1  0
  4 29  1  0
  8 30  1  0
 10 31  1  0
 11 32  1  0
 12 33  1  0
 16 34  1  0
 17 35  1  0
 22 36  1  0
 22 37  1  0
M  END
$$$$
