
     RDKit          3D

  9  9  0  0  0  0  0  0  0  0999 V2000
    0.6700    0.7090   -0.2857 N   0  0  0  0  0  0  0  0  0  0  0  0
   -0.6705    0.6732   -0.2849 C   0  0  0  0  0  0  0  0  0  0  0  0
   -1.0652   -0.6290   -0.0801 C   0  0  0  0  0  0  0  0  0  0  0  0
    0.0235   -1.4136    0.0482 N   0  0  0  0  0  0  0  0  0  0  0  0
    1.0620   -0.5620   -0.0830 C   0  0  0  0  0  0  0  0  0  0  0  0
    1.2802    1.5459   -0.4161 H   0  0  0  0  0  0  0  0  0  0  0  0
   -1.3134    1.5323   -0.4233 H   0  0  0  0  0  0  0  0  0  0  0  0
   -2.0847   -0.9864   -0.0272 H   0  0  0  0  0  0  0  0  0  0  0  0
    2.0981   -0.8695   -0.0305 H   0  0  0  0  0  0  0  0  0  0  0  0
  1  2  1  0
  2  3  2  0
  3  4  1  0
  4  5  2  0
  5  1  1  0
  1  6  1  0
  2  7  1  0
  3  8  1  0
  5  9  1  0
M  END
$$$$
