
     RDKit          3D

 38 39  0  0  0  0  0  0  0  0999 V2000
   -3.5234    2.7063   -0.0596 C   0  0  0  0  0  0  0  0  0  0  0  0
   -3.5102    1.2502   -0.1558 N   0  0  0  0  0  0  0  0  0  0  0  0
   -4.4690    0.4592   -0.6970 C   0  0  0  0  0  0  0  0  0  0  0  0
   -4.1584   -0.8627   -0.6538 N   0  0  0  0  0  0  0  0  0  0  0  0
   -2.9501   -0.8671   -0.0550 C   0  0  0  0  0  0  0  0  0  0  0  0
   -2.5570    0.3917    0.2429 C   0  0  0  0  0  0  0  0  0  0  0  0
   -1.3280    0.6222    0.8461 C   0  0  0  0  0  0  0  0  0  0  0  0
   -0.9613    1.7981    1.1186 O   0  0  0  0  0  0  0  0  0  0  0  0
   -0.5247   -0.4620    1.1258 N   0  0  0  0  0  0  0  0  0  0  0  0
    0.8050   -0.2624    1.7398 C   0  0  0  0  0  0  0  0  0  0  0  0
    1.9274   -0.3242    0.6924 C   0  0  0  0  0  0  0  0  0  0  0  0
    1.8524    0.8353   -0.3138 C   0  0  0  0  0  0  0  0  0  0  0  0
    2.9988    0.7912   -1.3336 C   0  0  0  0  0  0  0  0  0  0  0  0
    4.3343    1.0702   -0.6964 C   0  0  0  0  0  0  0  0  0  0  0  0
    5.4100    0.0266   -0.7011 C   0  0  0  0  0  0  0  0  0  0  0  0
    4.5515    2.1629   -0.1945 O   0  0  0  0  0  0  0  0  0  0  0  0
   -0.9501   -1.7430    0.8071 C   0  0  0  0  0  0  0  0  0  0  0  0
   -0.1998   -2.7309    1.0483 O   0  0  0  0  0  0  0  0  0  0  0  0
   -2.1827   -1.9544    0.2272 N   0  0  0  0  0  0  0  0  0  0  0  0
   -2.6244   -3.3045   -0.1468 C   0  0  0  0  0  0  0  0  0  0  0  0
   -3.4363    3.0125    1.0039 H   0  0  0  0  0  0  0  0  0  0  0  0
   -2.6745    3.1272   -0.6381 H   0  0  0  0  0  0  0  0  0  0  0  0
   -4.4716    3.1140   -0.4700 H   0  0  0  0  0  0  0  0  0  0  0  0
   -5.3887    0.8371   -1.1249 H   0  0  0  0  0  0  0  0  0  0  0  0
    0.8606    0.7019    2.2906 H   0  0  0  0  0  0  0  0  0  0  0  0
    0.9860   -1.0472    2.5068 H   0  0  0  0  0  0  0  0  0  0  0  0
    2.8986   -0.2827    1.2308 H   0  0  0  0  0  0  0  0  0  0  0  0
    1.8822   -1.2931    0.1502 H   0  0  0  0  0  0  0  0  0  0  0  0
    1.8651    1.8085    0.2245 H   0  0  0  0  0  0  0  0  0  0  0  0
    0.8964    0.7687   -0.8759 H   0  0  0  0  0  0  0  0  0  0  0  0
    2.8151    1.5584   -2.1162 H   0  0  0  0  0  0  0  0  0  0  0  0
    3.0093   -0.2000   -1.8379 H   0  0  0  0  0  0  0  0  0  0  0  0
    5.7024   -0.2012   -1.7473 H   0  0  0  0  0  0  0  0  0  0  0  0
    5.0349   -0.8993   -0.2172 H   0  0  0  0  0  0  0  0  0  0  0  0
    6.3047    0.3824   -0.1469 H   0  0  0  0  0  0  0  0  0  0  0  0
   -3.7300   -3.3578   -0.2407 H   0  0  0  0  0  0  0  0  0  0  0  0
   -2.1652   -3.5905   -1.1164 H   0  0  0  0  0  0  0  0  0  0  0  0
   -2.3289   -4.0418    0.6300 H   0  0  0  0  0  0  0  0  0  0  0  0
  1  2  1  0
  2  3  1  0
  3  4  2  0
  4  5  1  0
  5  6  2  0
  6  7  1  0
  7  8  2  0
  7  9  1  0
  9 10  1  0
 10 11  1  0
 11 12  1  0
 12 13  1  0
 13 14  1  0
 14 15  1  0
 14 16  2  0
  9 17  1  0
 17 18  2  0
 17 19  1  0
 19 20  1  0
  6  2  1  0
 19  5  1  0
  1 21  1  0
  1 22  1  0
  1 23  1  0
  3 24  1  0
 10 25  1  0
 10 26  1  0
 11 27  1  0
 11 28  1  0
 12 29  1  0
 12 30  1  0
 13 31  1  0
 13 32  1  0
 15 33  1  0
 15 34  1  0
 15 35  1  0
 20 36  1  0
 20 37  1  0
 20 38  1  0
M  END
$$$$
