
     RDKit          3D

 27 27  0  0  0  0  0  0  0  0999 V2000
    3.2417   -1.4654    0.9821 N   0  0  0  0  0  0  0  0  0  0  0  0
    3.1270   -0.7126   -0.2690 C   0  0  1  0  0  0  0  0  0  0  0  0
    1.9435    0.2645   -0.2053 C   0  0  0  0  0  0  0  0  0  0  0  0
    0.3514   -0.6326   -0.2337 S   0  0  0  0  0  0  0  0  0  0  0  0
   -0.6730    0.8716   -0.1229 C   0  0  0  0  0  0  0  0  0  0  0  0
   -2.1244    0.4884   -0.1226 C   0  0  0  0  0  0  0  0  0  0  0  0
   -2.7813    0.2015    1.0857 C   0  0  0  0  0  0  0  0  0  0  0  0
   -4.1246   -0.1877    1.0815 C   0  0  0  0  0  0  0  0  0  0  0  0
   -4.8169   -0.3027   -0.1272 C   0  0  0  0  0  0  0  0  0  0  0  0
   -4.1659   -0.0330   -1.3342 C   0  0  0  0  0  0  0  0  0  0  0  0
   -2.8227    0.3564   -1.3346 C   0  0  0  0  0  0  0  0  0  0  0  0
    4.3959    0.0553   -0.5105 C   0  0  0  0  0  0  0  0  0  0  0  0
    4.9292    0.8545    0.4969 O   0  0  0  0  0  0  0  0  0  0  0  0
    4.9656   -0.0036   -1.6330 O   0  0  0  0  0  0  0  0  0  0  0  0
    2.4057   -2.0857    1.0784 H   0  0  0  0  0  0  0  0  0  0  0  0
    4.0624   -2.1100    0.9043 H   0  0  0  0  0  0  0  0  0  0  0  0
    2.9680   -1.4217   -1.1140 H   0  0  0  0  0  0  0  0  0  0  0  0
    2.0106    0.8781    0.7196 H   0  0  0  0  0  0  0  0  0  0  0  0
    1.9750    0.9435   -1.0855 H   0  0  0  0  0  0  0  0  0  0  0  0
   -0.4545    1.5374   -0.9856 H   0  0  0  0  0  0  0  0  0  0  0  0
   -0.4250    1.4252    0.8084 H   0  0  0  0  0  0  0  0  0  0  0  0
   -2.2537    0.2778    2.0284 H   0  0  0  0  0  0  0  0  0  0  0  0
   -4.6278   -0.4034    2.0151 H   0  0  0  0  0  0  0  0  0  0  0  0
   -5.8561   -0.6053   -0.1288 H   0  0  0  0  0  0  0  0  0  0  0  0
   -4.7011   -0.1291   -2.2701 H   0  0  0  0  0  0  0  0  0  0  0  0
   -2.3274    0.5535   -2.2773 H   0  0  0  0  0  0  0  0  0  0  0  0
    5.7784    1.3851    0.3442 H   0  0  0  0  0  0  0  0  0  0  0  0
  1  2  1  0
  2  3  1  0
  3  4  1  0
  4  5  1  0
  5  6  1  0
  6  7  2  0
  7  8  1  0
  8  9  2  0
  9 10  1  0
 10 11  2  0
  2 12  1  0
 12 13  1  0
 12 14  2  0
 11  6  1  0
  1 15  1  0
  1 16  1  0
  2 17  1  6
  3 18  1  0
  3 19  1  0
  5 20  1  0
  5 21  1  0
  7 22  1  0
  8 23  1  0
  9 24  1  0
 10 25  1  0
 11 26  1  0
 13 27  1  0
M  END
$$$$
