
     RDKit          3D

 35 36  0  0  0  0  0  0  0  0999 V2000
    7.3600   -1.4189    1.1879 O   0  0  0  0  0  0  0  0  0  0  0  0
    6.4019   -0.6687    0.5929 N   0  0  0  0  0  0  0  0  0  0  0  0
    5.7207    0.3547    1.3231 C   0  0  0  0  0  0  0  0  0  0  0  0
    5.9881    0.5434    2.5403 O   0  0  0  0  0  0  0  0  0  0  0  0
    4.6554    1.1746    0.6606 C   0  0  0  0  0  0  0  0  0  0  0  0
    3.3186    0.4404    0.6872 C   0  0  0  0  0  0  0  0  0  0  0  0
    2.3264    1.2429    0.0526 O   0  0  0  0  0  0  0  0  0  0  0  0
    0.9829    0.8695   -0.0996 C   0  0  0  0  0  0  0  0  0  0  0  0
    0.1156    1.7567   -0.7450 C   0  0  0  0  0  0  0  0  0  0  0  0
   -1.2323    1.4323   -0.9218 C   0  0  0  0  0  0  0  0  0  0  0  0
   -1.7386    0.2068   -0.4541 C   0  0  0  0  0  0  0  0  0  0  0  0
   -0.8657   -0.6849    0.1944 C   0  0  0  0  0  0  0  0  0  0  0  0
    0.4820   -0.3582    0.3713 C   0  0  0  0  0  0  0  0  0  0  0  0
   -3.1708   -0.1401   -0.6417 C   0  0  0  0  0  0  0  0  0  0  0  0
   -4.1718    0.8335   -0.4653 C   0  0  0  0  0  0  0  0  0  0  0  0
   -5.5195    0.5056   -0.6417 C   0  0  0  0  0  0  0  0  0  0  0  0
   -5.8852   -0.7974   -0.9973 C   0  0  0  0  0  0  0  0  0  0  0  0
   -4.8978   -1.7728   -1.1757 C   0  0  0  0  0  0  0  0  0  0  0  0
   -3.5495   -1.4477   -0.9989 C   0  0  0  0  0  0  0  0  0  0  0  0
   -7.2731   -1.1336   -1.1791 C   0  0  0  0  0  0  0  0  0  0  0  0
   -8.3888   -1.4038   -1.3253 N   0  0  0  0  0  0  0  0  0  0  0  0
    6.8784   -2.2076    1.5467 H   0  0  0  0  0  0  0  0  0  0  0  0
    6.1768   -0.8330   -0.4139 H   0  0  0  0  0  0  0  0  0  0  0  0
    4.9468    1.3799   -0.3921 H   0  0  0  0  0  0  0  0  0  0  0  0
    4.5533    2.1499    1.1848 H   0  0  0  0  0  0  0  0  0  0  0  0
    3.4152   -0.5267    0.1461 H   0  0  0  0  0  0  0  0  0  0  0  0
    3.0220    0.2483    1.7419 H   0  0  0  0  0  0  0  0  0  0  0  0
    0.4897    2.7029   -1.1152 H   0  0  0  0  0  0  0  0  0  0  0  0
   -1.8743    2.1331   -1.4406 H   0  0  0  0  0  0  0  0  0  0  0  0
   -1.2290   -1.6286    0.5814 H   0  0  0  0  0  0  0  0  0  0  0  0
    1.1240   -1.0656    0.8781 H   0  0  0  0  0  0  0  0  0  0  0  0
   -3.9140    1.8438   -0.1735 H   0  0  0  0  0  0  0  0  0  0  0  0
   -6.2761    1.2677   -0.4974 H   0  0  0  0  0  0  0  0  0  0  0  0
   -5.1694   -2.7839   -1.4547 H   0  0  0  0  0  0  0  0  0  0  0  0
   -2.8021   -2.2146   -1.1591 H   0  0  0  0  0  0  0  0  0  0  0  0
  1  2  1  0
  2  3  1  0
  3  4  2  0
  3  5  1  0
  5  6  1  0
  6  7  1  0
  7  8  1  0
  8  9  2  0
  9 10  1  0
 10 11  2  0
 11 12  1  0
 12 13  2  0
 11 14  1  0
 14 15  2  0
 15 16  1  0
 16 17  2  0
 17 18  1  0
 18 19  2  0
 17 20  1  0
 20 21  3  0
 13  8  1  0
 19 14  1  0
  1 22  1  0
  2 23  1  0
  5 24  1  0
  5 25  1  0
  6 26  1  0
  6 27  1  0
  9 28  1  0
 10 29  1  0
 12 30  1  0
 13 31  1  0
 15 32  1  0
 16 33  1  0
 18 34  1  0
 19 35  1  0
M  END
$$$$
