
     RDKit          3D

 43 45  0  0  0  0  0  0  0  0999 V2000
   -1.4695    0.1803   -1.4289 C   0  0  1  0  0  0  0  0  0  0  0  0
   -1.7762   -1.3228   -0.4362 S   0  0  0  0  0  0  0  0  0  0  0  0
   -3.4073   -0.6573    0.1435 C   0  0  0  0  0  0  0  0  0  0  0  0
   -3.6896   -1.1972    1.5532 C   0  0  0  0  0  0  0  0  0  0  0  0
   -4.4860   -1.1744   -0.8305 C   0  0  0  0  0  0  0  0  0  0  0  0
   -3.2902    0.9016    0.1615 C   0  0  1  0  0  0  0  0  0  0  0  0
   -2.2192    1.1961   -0.7564 N   0  0  0  0  0  0  0  0  0  0  0  0
   -0.9817    2.0026   -0.6537 C   0  0  0  0  0  0  0  0  0  0  0  0
   -0.6884    3.1286   -0.1740 O   0  0  0  0  0  0  0  0  0  0  0  0
   -0.2129    0.8816   -1.2812 C   0  0  1  0  0  0  0  0  0  0  0  0
    0.7189    0.2610   -0.3363 N   0  0  0  0  0  0  0  0  0  0  0  0
    1.6002   -0.7984   -0.7383 C   0  0  0  0  0  0  0  0  0  0  0  0
    1.6051   -1.1941   -1.9359 O   0  0  0  0  0  0  0  0  0  0  0  0
    2.5490   -1.4244    0.2449 C   0  0  2  0  0  0  0  0  0  0  0  0
    1.8539   -1.7024    1.4990 N   0  0  0  0  0  0  0  0  0  0  0  0
    2.3998   -2.3419    2.3991 N   0  0  0  0  0  4  0  0  0  0  0  0
    2.9451   -2.9800    3.2980 N   0  0  0  0  0  2  0  0  0  0  0  0
    3.7419   -0.5163    0.4598 C   0  0  0  0  0  0  0  0  0  0  0  0
    4.9111   -0.7118   -0.2970 C   0  0  0  0  0  0  0  0  0  0  0  0
    6.0083    0.1401   -0.1380 C   0  0  0  0  0  0  0  0  0  0  0  0
    5.9463    1.2011    0.7684 C   0  0  0  0  0  0  0  0  0  0  0  0
    4.7854    1.4147    1.5150 C   0  0  0  0  0  0  0  0  0  0  0  0
    3.6853    0.5659    1.3599 C   0  0  0  0  0  0  0  0  0  0  0  0
   -4.5398    1.6461   -0.2197 C   0  0  0  0  0  0  0  0  0  0  0  0
   -4.7685    2.0056   -1.5453 O   0  0  0  0  0  0  0  0  0  0  0  0
   -5.4028    1.9108    0.6592 O   0  0  0  0  0  0  0  0  0  0  0  0
   -1.7993    0.0768   -2.4863 H   0  0  0  0  0  0  0  0  0  0  0  0
   -2.8755   -0.9058    2.2511 H   0  0  0  0  0  0  0  0  0  0  0  0
   -3.7524   -2.3066    1.5408 H   0  0  0  0  0  0  0  0  0  0  0  0
   -4.6494   -0.7907    1.9381 H   0  0  0  0  0  0  0  0  0  0  0  0
   -4.4571   -2.2839   -0.8856 H   0  0  0  0  0  0  0  0  0  0  0  0
   -5.5019   -0.8755   -0.4945 H   0  0  0  0  0  0  0  0  0  0  0  0
   -4.3134   -0.7738   -1.8521 H   0  0  0  0  0  0  0  0  0  0  0  0
   -2.9720    1.2510    1.1693 H   0  0  0  0  0  0  0  0  0  0  0  0
    0.2672    1.1862   -2.2367 H   0  0  0  0  0  0  0  0  0  0  0  0
    0.7531    0.6035    0.6505 H   0  0  0  0  0  0  0  0  0  0  0  0
    2.8931   -2.3975   -0.1745 H   0  0  0  0  0  0  0  0  0  0  0  0
    4.9729   -1.5228   -1.0120 H   0  0  0  0  0  0  0  0  0  0  0  0
    6.9059   -0.0202   -0.7212 H   0  0  0  0  0  0  0  0  0  0  0  0
    6.7963    1.8602    0.8891 H   0  0  0  0  0  0  0  0  0  0  0  0
    4.7364    2.2406    2.2129 H   0  0  0  0  0  0  0  0  0  0  0  0
    2.7943    0.7524    1.9451 H   0  0  0  0  0  0  0  0  0  0  0  0
   -5.6162    2.4913   -1.8130 H   0  0  0  0  0  0  0  0  0  0  0  0
  1  2  1  0
  2  3  1  0
  3  4  1  0
  3  5  1  0
  3  6  1  0
  6  7  1  0
  7  8  1  0
  8  9  2  0
  8 10  1  0
 10 11  1  0
 11 12  1  0
 12 13  2  0
 12 14  1  0
 14 15  1  0
 15 16  2  0
 16 17  2  0
 14 18  1  0
 18 19  2  0
 19 20  1  0
 20 21  2  0
 21 22  1  0
 22 23  2  0
  6 24  1  0
 24 25  1  0
 24 26  2  0
  7  1  1  0
 23 18  1  0
 10  1  1  0
  1 27  1  6
  4 28  1  0
  4 29  1  0
  4 30  1  0
  5 31  1  0
  5 32  1  0
  5 33  1  0
  6 34  1  1
 10 35  1  6
 11 36  1  0
 14 37  1  6
 19 38  1  0
 20 39  1  0
 21 40  1  0
 22 41  1  0
 23 42  1  0
 25 43  1  0
M  CHG  2  16   1  17  -1
M  END
$$$$
