
     RDKit          3D

 48 46  0  0  0  0  0  0  0  0999 V2000
    0.0000    0.0000    0.0000 Gd  0  0  0  0  0 15  0  0  0  0  0  0
    3.2063    2.4666   -2.2930 O   0  0  0  0  0  0  0  0  0  0  0  0
    4.0799    2.1513   -1.2571 C   0  0  0  0  0  0  0  0  0  0  0  0
    5.3222    2.1305   -1.4679 O   0  0  0  0  0  0  0  0  0  0  0  0
    3.5414    1.8271    0.1108 C   0  0  0  0  0  0  0  0  0  0  0  0
    3.0920    0.4203    0.2490 N   0  0  0  0  0  0  0  0  0  0  0  0
    1.9784    0.0943   -0.6693 C   0  0  0  0  0  0  0  0  0  0  0  0
    1.0166   -0.8978   -0.0078 C   0  0  0  0  0  0  0  0  0  0  0  0
   -0.1487   -1.1367   -0.8917 N   0  0  0  0  0  0  0  0  0  0  0  0
   -1.4217   -1.2544   -0.1473 C   0  0  0  0  0  0  0  0  0  0  0  0
   -2.0051    0.1376    0.1282 C   0  0  0  0  0  0  0  0  0  0  0  0
   -3.2603    0.0229    0.9045 N   0  0  0  0  0  0  0  0  0  0  0  0
   -3.4176    1.1214    1.8891 C   0  0  0  0  0  0  0  0  0  0  0  0
   -3.5042    2.4843    1.2555 C   0  0  0  0  0  0  0  0  0  0  0  0
   -2.3431    3.1575    0.8884 O   0  0  0  0  0  0  0  0  0  0  0  0
   -4.6287    3.0148    1.0502 O   0  0  0  0  0  0  0  0  0  0  0  0
   -4.4426   -0.1332    0.0271 C   0  0  0  0  0  0  0  0  0  0  0  0
   -5.5953   -0.7052    0.7913 C   0  0  0  0  0  0  0  0  0  0  0  0
   -6.7036    0.0828    1.0749 O   0  0  0  0  0  1  0  0  0  0  0  0
   -5.5553   -1.8961    1.1977 O   0  0  0  0  0  0  0  0  0  0  0  0
    0.0685   -2.2564   -1.8383 C   0  0  0  0  0  0  0  0  0  0  0  0
    0.1135   -3.6050   -1.1690 C   0  0  0  0  0  0  0  0  0  0  0  0
   -1.0652   -4.2684   -0.8520 O   0  0  0  0  0  1  0  0  0  0  0  0
    1.2197   -4.1399   -0.8939 O   0  0  0  0  0  0  0  0  0  0  0  0
    4.2041   -0.5498    0.1342 C   0  0  0  0  0  0  0  0  0  0  0  0
    5.0729   -0.5001    1.3519 C   0  0  0  0  0  0  0  0  0  0  0  0
    4.5721   -0.9169    2.5785 O   0  0  0  0  0  1  0  0  0  0  0  0
    6.2521   -0.0657    1.2736 O   0  0  0  0  0  0  0  0  0  0  0  0
    3.5549    2.6805   -3.2197 H   0  0  0  0  0  0  0  0  0  0  0  0
    4.3145    2.0553    0.8760 H   0  0  0  0  0  0  0  0  0  0  0  0
    2.6929    2.5100    0.3332 H   0  0  0  0  0  0  0  0  0  0  0  0
    2.3625   -0.3134   -1.6309 H   0  0  0  0  0  0  0  0  0  0  0  0
    1.3845    1.0048   -0.9115 H   0  0  0  0  0  0  0  0  0  0  0  0
    1.5409   -1.8428    0.2409 H   0  0  0  0  0  0  0  0  0  0  0  0
    0.7034   -0.4570    0.9644 H   0  0  0  0  0  0  0  0  0  0  0  0
   -1.2732   -1.8031    0.8104 H   0  0  0  0  0  0  0  0  0  0  0  0
   -2.1681   -1.8254   -0.7404 H   0  0  0  0  0  0  0  0  0  0  0  0
   -2.1750    0.6735   -0.8335 H   0  0  0  0  0  0  0  0  0  0  0  0
   -1.2449    0.7211    0.6915 H   0  0  0  0  0  0  0  0  0  0  0  0
   -2.5609    1.1088    2.5974 H   0  0  0  0  0  0  0  0  0  0  0  0
   -4.3206    0.9456    2.5126 H   0  0  0  0  0  0  0  0  0  0  0  0
   -2.3876    4.0722    0.4556 H   0  0  0  0  0  0  0  0  0  0  0  0
   -4.2237   -0.8335   -0.8070 H   0  0  0  0  0  0  0  0  0  0  0  0
   -4.7330    0.8322   -0.4399 H   0  0  0  0  0  0  0  0  0  0  0  0
    1.0101   -2.0956   -2.4061 H   0  0  0  0  0  0  0  0  0  0  0  0
   -0.7445   -2.2596   -2.5961 H   0  0  0  0  0  0  0  0  0  0  0  0
    4.8059   -0.3729   -0.7835 H   0  0  0  0  0  0  0  0  0  0  0  0
    3.8133   -1.5867    0.0601 H   0  0  0  0  0  0  0  0  0  0  0  0
  2  3  1  0
  3  4  2  0
  3  5  1  0
  5  6  1  0
  6  7  1  0
  7  8  1  0
  8  9  1  0
  9 10  1  0
 10 11  1  0
 11 12  1  0
 12 13  1  0
 13 14  1  0
 14 15  1  0
 14 16  2  0
 12 17  1  0
 17 18  1  0
 18 19  1  0
 18 20  2  0
  9 21  1  0
 21 22  1  0
 22 23  1  0
 22 24  2  0
  6 25  1  0
 25 26  1  0
 26 27  1  0
 26 28  2  0
  2 29  1  0
  5 30  1  0
  5 31  1  0
  7 32  1  0
  7 33  1  0
  8 34  1  0
  8 35  1  0
 10 36  1  0
 10 37  1  0
 11 38  1  0
 11 39  1  0
 13 40  1  0
 13 41  1  0
 15 42  1  0
 17 43  1  0
 17 44  1  0
 21 45  1  0
 21 46  1  0
 25 47  1  0
 25 48  1  0
M  CHG  4   1   3  19  -1  23  -1  27  -1
M  END
$$$$
