
     RDKit          3D

 46 47  0  0  0  0  0  0  0  0999 V2000
   -5.3031   -0.7255    0.7011 C   0  0  0  0  0  0  0  0  0  0  0  0
   -4.7285    0.0975   -0.4745 C   0  0  0  0  0  0  0  0  0  0  0  0
   -5.0095    1.6006   -0.2560 C   0  0  0  0  0  0  0  0  0  0  0  0
   -5.4495   -0.3328   -1.7697 C   0  0  0  0  0  0  0  0  0  0  0  0
   -3.2739   -0.1404   -0.6585 N   0  0  0  0  0  0  0  0  0  0  0  0
   -2.4471    0.0513    0.5464 C   0  0  0  0  0  0  0  0  0  0  0  0
   -0.9643    0.1621    0.1572 C   0  0  2  0  0  0  0  0  0  0  0  0
   -0.5332   -1.0419   -0.4235 O   0  0  0  0  0  0  0  0  0  0  0  0
   -0.1065    0.4753    1.3928 C   0  0  0  0  0  0  0  0  0  0  0  0
    1.2578    0.6903    1.0259 O   0  0  0  0  0  0  0  0  0  0  0  0
    2.2277   -0.3026    0.7915 C   0  0  0  0  0  0  0  0  0  0  0  0
    1.9965   -1.6611    1.0840 C   0  0  0  0  0  0  0  0  0  0  0  0
    2.9750   -2.6185    0.8206 C   0  0  0  0  0  0  0  0  0  0  0  0
    4.1942   -2.2427    0.2609 C   0  0  0  0  0  0  0  0  0  0  0  0
    4.4537   -0.8956   -0.0355 C   0  0  0  0  0  0  0  0  0  0  0  0
    3.4750    0.0851    0.2544 C   0  0  0  0  0  0  0  0  0  0  0  0
    3.7264    1.5375   -0.0979 C   0  0  0  0  0  0  0  0  0  0  0  0
    5.2207    1.8792   -0.0878 C   0  0  0  0  0  0  0  0  0  0  0  0
    6.0034    0.9376   -1.0043 C   0  0  0  0  0  0  0  0  0  0  0  0
    5.7495   -0.4949   -0.6357 C   0  0  0  0  0  0  0  0  0  0  0  0
    6.6328   -1.3585   -0.8879 O   0  0  0  0  0  0  0  0  0  0  0  0
   -6.4100   -0.6316    0.7394 H   0  0  0  0  0  0  0  0  0  0  0  0
   -4.9054   -0.3687    1.6746 H   0  0  0  0  0  0  0  0  0  0  0  0
   -5.0451   -1.8000    0.5848 H   0  0  0  0  0  0  0  0  0  0  0  0
   -4.4829    2.2066   -1.0243 H   0  0  0  0  0  0  0  0  0  0  0  0
   -4.6852    1.9414    0.7482 H   0  0  0  0  0  0  0  0  0  0  0  0
   -6.0986    1.8113   -0.3286 H   0  0  0  0  0  0  0  0  0  0  0  0
   -5.3006   -1.4178   -1.9599 H   0  0  0  0  0  0  0  0  0  0  0  0
   -5.0481    0.2299   -2.6402 H   0  0  0  0  0  0  0  0  0  0  0  0
   -6.5428   -0.1428   -1.7021 H   0  0  0  0  0  0  0  0  0  0  0  0
   -3.1333   -1.1292   -0.9765 H   0  0  0  0  0  0  0  0  0  0  0  0
   -2.5778   -0.8071    1.2433 H   0  0  0  0  0  0  0  0  0  0  0  0
   -2.7326    0.9809    1.0781 H   0  0  0  0  0  0  0  0  0  0  0  0
   -0.8444    1.0082   -0.5615 H   0  0  0  0  0  0  0  0  0  0  0  0
   -0.6782   -0.9635   -1.4024 H   0  0  0  0  0  0  0  0  0  0  0  0
   -0.4780    1.4175    1.8494 H   0  0  0  0  0  0  0  0  0  0  0  0
   -0.1992   -0.3106    2.1710 H   0  0  0  0  0  0  0  0  0  0  0  0
    1.0638   -1.9967    1.5116 H   0  0  0  0  0  0  0  0  0  0  0  0
    2.7846   -3.6599    1.0465 H   0  0  0  0  0  0  0  0  0  0  0  0
    4.9333   -3.0077    0.0581 H   0  0  0  0  0  0  0  0  0  0  0  0
    3.2188    2.2075    0.6291 H   0  0  0  0  0  0  0  0  0  0  0  0
    3.3049    1.7403   -1.1063 H   0  0  0  0  0  0  0  0  0  0  0  0
    5.6131    1.8005    0.9504 H   0  0  0  0  0  0  0  0  0  0  0  0
    5.3617    2.9272   -0.4297 H   0  0  0  0  0  0  0  0  0  0  0  0
    7.0883    1.1629   -0.9165 H   0  0  0  0  0  0  0  0  0  0  0  0
    5.6965    1.0995   -2.0601 H   0  0  0  0  0  0  0  0  0  0  0  0
  1  2  1  0
  2  3  1  0
  2  4  1  0
  2  5  1  0
  5  6  1  0
  6  7  1  0
  7  8  1  0
  7  9  1  0
  9 10  1  0
 10 11  1  0
 11 12  2  0
 12 13  1  0
 13 14  2  0
 14 15  1  0
 15 16  2  0
 16 17  1  0
 17 18  1  0
 18 19  1  0
 19 20  1  0
 20 21  2  0
 16 11  1  0
 20 15  1  0
  1 22  1  0
  1 23  1  0
  1 24  1  0
  3 25  1  0
  3 26  1  0
  3 27  1  0
  4 28  1  0
  4 29  1  0
  4 30  1  0
  5 31  1  0
  6 32  1  0
  6 33  1  0
  7 34  1  6
  8 35  1  0
  9 36  1  0
  9 37  1  0
 12 38  1  0
 13 39  1  0
 14 40  1  0
 17 41  1  0
 17 42  1  0
 18 43  1  0
 18 44  1  0
 19 45  1  0
 19 46  1  0
M  END
$$$$
