
     RDKit          3D

 33 34  0  0  0  0  0  0  0  0999 V2000
   -6.0064   -0.0368    0.1667 C   0  0  0  0  0  0  0  0  0  0  0  0
   -5.0971   -0.9719    0.7379 O   0  0  0  0  0  0  0  0  0  0  0  0
   -3.7110   -0.9650    0.5205 C   0  0  0  0  0  0  0  0  0  0  0  0
   -3.0803   -0.0102   -0.3010 C   0  0  0  0  0  0  0  0  0  0  0  0
   -1.6894   -0.0443   -0.4883 C   0  0  0  0  0  0  0  0  0  0  0  0
   -0.9188   -1.0434    0.1516 C   0  0  0  0  0  0  0  0  0  0  0  0
   -1.5528   -1.9897    0.9687 C   0  0  0  0  0  0  0  0  0  0  0  0
   -2.9375   -1.9477    1.1488 C   0  0  0  0  0  0  0  0  0  0  0  0
    0.4716   -1.0770   -0.0351 C   0  0  0  0  0  0  0  0  0  0  0  0
    1.1001   -0.1310   -0.8606 C   0  0  0  0  0  0  0  0  0  0  0  0
    2.5962   -0.1481   -1.0300 C   0  0  0  0  0  0  0  0  0  0  0  0
    3.2713    0.6978    0.0586 C   0  0  0  0  0  0  0  0  0  0  0  0
    4.7769    0.7205   -0.0566 C   0  0  0  0  0  0  0  0  0  0  0  0
    5.5915    1.5000    0.9301 C   0  0  0  0  0  0  0  0  0  0  0  0
    5.3492    0.1095   -0.9477 O   0  0  0  0  0  0  0  0  0  0  0  0
    0.3307    0.8655   -1.4810 C   0  0  0  0  0  0  0  0  0  0  0  0
   -1.0543    0.9062   -1.3010 C   0  0  0  0  0  0  0  0  0  0  0  0
   -5.7541    0.9926    0.4983 H   0  0  0  0  0  0  0  0  0  0  0  0
   -5.9741   -0.1008   -0.9415 H   0  0  0  0  0  0  0  0  0  0  0  0
   -7.0345   -0.2772    0.5063 H   0  0  0  0  0  0  0  0  0  0  0  0
   -3.6632    0.7574   -0.7935 H   0  0  0  0  0  0  0  0  0  0  0  0
   -0.9787   -2.7615    1.4675 H   0  0  0  0  0  0  0  0  0  0  0  0
   -3.4145   -2.6850    1.7821 H   0  0  0  0  0  0  0  0  0  0  0  0
    1.0672   -1.8353    0.4607 H   0  0  0  0  0  0  0  0  0  0  0  0
    2.8646    0.2491   -2.0339 H   0  0  0  0  0  0  0  0  0  0  0  0
    2.9675   -1.1954   -0.9755 H   0  0  0  0  0  0  0  0  0  0  0  0
    3.0007    0.2923    1.0579 H   0  0  0  0  0  0  0  0  0  0  0  0
    2.8974    1.7430   -0.0054 H   0  0  0  0  0  0  0  0  0  0  0  0
    6.2848    0.8163    1.4632 H   0  0  0  0  0  0  0  0  0  0  0  0
    4.9381    1.9996    1.6765 H   0  0  0  0  0  0  0  0  0  0  0  0
    6.1812    2.2746    0.3966 H   0  0  0  0  0  0  0  0  0  0  0  0
    0.8051    1.6134   -2.1043 H   0  0  0  0  0  0  0  0  0  0  0  0
   -1.6275    1.6824   -1.7940 H   0  0  0  0  0  0  0  0  0  0  0  0
  1  2  1  0
  2  3  1  0
  3  4  2  0
  4  5  1  0
  5  6  2  0
  6  7  1  0
  7  8  2  0
  6  9  1  0
  9 10  2  0
 10 11  1  0
 11 12  1  0
 12 13  1  0
 13 14  1  0
 13 15  2  0
 10 16  1  0
 16 17  2  0
  8  3  1  0
 17  5  1  0
  1 18  1  0
  1 19  1  0
  1 20  1  0
  4 21  1  0
  7 22  1  0
  8 23  1  0
  9 24  1  0
 11 25  1  0
 11 26  1  0
 12 27  1  0
 12 28  1  0
 14 29  1  0
 14 30  1  0
 14 31  1  0
 16 32  1  0
 17 33  1  0
M  END
$$$$
