
     RDKit          3D

 45 47  0  0  0  0  0  0  0  0999 V2000
   -3.6854    3.4554   -1.7236 C   0  0  0  0  0  0  0  0  0  0  0  0
   -3.4447    2.1064   -1.0524 C   0  0  0  0  0  0  0  0  0  0  0  0
   -3.4026    0.9736   -2.0878 C   0  0  0  0  0  0  0  0  0  0  0  0
   -3.1740   -0.3949   -1.4317 C   0  0  0  0  0  0  0  0  0  0  0  0
   -1.8108   -0.5237   -0.9103 N   0  0  0  0  0  0  0  0  0  0  0  0
   -1.3472   -1.6918   -0.2085 C   0  0  0  0  0  0  0  0  0  0  0  0
   -2.1601   -2.8269   -0.0059 C   0  0  0  0  0  0  0  0  0  0  0  0
   -1.6279   -3.9358    0.6916 C   0  0  0  0  0  0  0  0  0  0  0  0
   -2.4684   -5.1516    0.9181 C   0  0  0  0  0  0  0  0  0  0  0  0
   -0.3442   -3.9038    1.1587 N   0  0  0  0  0  0  0  0  0  0  0  0
    0.4033   -2.7960    0.9418 C   0  0  0  0  0  0  0  0  0  0  0  0
    1.6734   -2.6174    1.3437 N   0  0  0  0  0  0  0  0  0  0  0  0
    1.9117   -1.3661    0.8682 C   0  0  0  0  0  0  0  0  0  0  0  0
    3.1557   -0.6852    1.0750 N   0  0  0  0  0  0  0  0  0  0  0  0
    3.4656    0.5908    0.4861 C   0  0  0  0  0  0  0  0  0  0  0  0
    3.1355    0.8481   -0.8572 C   0  0  0  0  0  0  0  0  0  0  0  0
    3.4553    2.0742   -1.4459 C   0  0  0  0  0  0  0  0  0  0  0  0
    3.0313    2.3805   -3.1203 Cl  0  0  0  0  0  0  0  0  0  0  0  0
    4.1227    3.0509   -0.7052 C   0  0  0  0  0  0  0  0  0  0  0  0
    4.4726    2.8048    0.6237 C   0  0  0  0  0  0  0  0  0  0  0  0
    4.1460    1.5812    1.2331 C   0  0  0  0  0  0  0  0  0  0  0  0
    4.5344    1.3421    2.6669 C   0  0  0  0  0  0  0  0  0  0  0  0
    0.8501   -0.8134    0.2303 N   0  0  0  0  0  0  0  0  0  0  0  0
   -0.0840   -1.7409    0.2873 N   0  0  0  0  0  0  0  0  0  0  0  0
   -4.6556    3.4498   -2.2648 H   0  0  0  0  0  0  0  0  0  0  0  0
   -3.7135    4.2544   -0.9530 H   0  0  0  0  0  0  0  0  0  0  0  0
   -2.8667    3.6812   -2.4397 H   0  0  0  0  0  0  0  0  0  0  0  0
   -2.4847    2.1530   -0.4951 H   0  0  0  0  0  0  0  0  0  0  0  0
   -4.2630    1.9173   -0.3240 H   0  0  0  0  0  0  0  0  0  0  0  0
   -2.6007    1.1664   -2.8341 H   0  0  0  0  0  0  0  0  0  0  0  0
   -4.3730    0.9441   -2.6302 H   0  0  0  0  0  0  0  0  0  0  0  0
   -3.3438   -1.1848   -2.1949 H   0  0  0  0  0  0  0  0  0  0  0  0
   -3.9071   -0.5390   -0.6083 H   0  0  0  0  0  0  0  0  0  0  0  0
   -1.1332    0.2577   -1.0607 H   0  0  0  0  0  0  0  0  0  0  0  0
   -3.1765   -2.8637   -0.3750 H   0  0  0  0  0  0  0  0  0  0  0  0
   -2.7678   -5.5871   -0.0583 H   0  0  0  0  0  0  0  0  0  0  0  0
   -1.9031   -5.9163    1.4920 H   0  0  0  0  0  0  0  0  0  0  0  0
   -3.3788   -4.8768    1.4912 H   0  0  0  0  0  0  0  0  0  0  0  0
    3.8348   -1.1143    1.7426 H   0  0  0  0  0  0  0  0  0  0  0  0
    2.6507    0.0878   -1.4559 H   0  0  0  0  0  0  0  0  0  0  0  0
    4.3771    3.9998   -1.1601 H   0  0  0  0  0  0  0  0  0  0  0  0
    4.9972    3.5731    1.1782 H   0  0  0  0  0  0  0  0  0  0  0  0
    4.8613    2.2811    3.1624 H   0  0  0  0  0  0  0  0  0  0  0  0
    5.3700    0.6126    2.7093 H   0  0  0  0  0  0  0  0  0  0  0  0
    3.6677    0.9435    3.2355 H   0  0  0  0  0  0  0  0  0  0  0  0
  1  2  1  0
  2  3  1  0
  3  4  1  0
  4  5  1  0
  5  6  1  0
  6  7  2  0
  7  8  1  0
  8  9  1  0
  8 10  2  0
 10 11  1  0
 11 12  2  0
 12 13  1  0
 13 14  1  0
 14 15  1  0
 15 16  2  0
 16 17  1  0
 17 18  1  0
 17 19  2  0
 19 20  1  0
 20 21  2  0
 21 22  1  0
 13 23  2  0
 23 24  1  0
 24  6  1  0
 24 11  1  0
 21 15  1  0
  1 25  1  0
  1 26  1  0
  1 27  1  0
  2 28  1  0
  2 29  1  0
  3 30  1  0
  3 31  1  0
  4 32  1  0
  4 33  1  0
  5 34  1  0
  7 35  1  0
  9 36  1  0
  9 37  1  0
  9 38  1  0
 14 39  1  0
 16 40  1  0
 19 41  1  0
 20 42  1  0
 22 43  1  0
 22 44  1  0
 22 45  1  0
M  END
$$$$
