
     RDKit          3D

 19 18  0  0  0  0  0  0  0  0999 V2000
    4.3782    1.8196   -1.2547 S   0  0  0  0  0  0  0  0  0  0  0  0
    3.3206    0.5904   -0.4927 C   0  0  0  0  0  0  0  0  0  0  0  0
    2.0054    0.8013   -0.3850 C   0  0  0  0  0  0  0  0  0  0  0  0
    1.1143   -0.2244    0.2529 C   0  0  0  0  0  0  0  0  0  0  0  0
   -0.6018    0.3383    0.2582 S   0  0  0  0  0  4  0  0  0  0  0  0
   -0.6138    1.4510    1.2988 O   0  0  0  0  0  0  0  0  0  0  0  0
   -1.4994   -1.0084    1.0618 C   0  0  0  0  0  0  0  0  0  0  0  0
   -2.9582   -0.6759    1.1741 C   0  0  0  0  0  0  0  0  0  0  0  0
   -3.7442   -0.5994    0.0964 C   0  0  0  0  0  0  0  0  0  0  0  0
    4.6129    2.4586   -0.0229 H   0  0  0  0  0  0  0  0  0  0  0  0
    3.7661   -0.3276   -0.1209 H   0  0  0  0  0  0  0  0  0  0  0  0
    1.5814    1.7274   -0.7641 H   0  0  0  0  0  0  0  0  0  0  0  0
    1.4421   -0.4083    1.2985 H   0  0  0  0  0  0  0  0  0  0  0  0
    1.1768   -1.1753   -0.3176 H   0  0  0  0  0  0  0  0  0  0  0  0
   -1.3687   -1.9437    0.4769 H   0  0  0  0  0  0  0  0  0  0  0  0
   -1.0788   -1.1683    2.0772 H   0  0  0  0  0  0  0  0  0  0  0  0
   -3.3904   -0.5204    2.1581 H   0  0  0  0  0  0  0  0  0  0  0  0
   -4.7987   -0.3697    0.2084 H   0  0  0  0  0  0  0  0  0  0  0  0
   -3.3439   -0.7651   -0.8994 H   0  0  0  0  0  0  0  0  0  0  0  0
  1  2  1  0
  2  3  2  0
  3  4  1  0
  5  4  1  1
  5  6  2  0
  5  7  1  0
  7  8  1  0
  8  9  2  3
  1 10  1  0
  2 11  1  0
  3 12  1  0
  4 13  1  0
  4 14  1  0
  7 15  1  0
  7 16  1  0
  8 17  1  0
  9 18  1  0
  9 19  1  0
M  END
$$$$
