
     RDKit          3D

 48 51  0  0  0  0  0  0  0  0999 V2000
   -6.4427   -1.3881    1.0076 C   0  0  0  0  0  0  0  0  0  0  0  0
   -5.7581   -0.4816    2.0380 C   0  0  0  0  0  0  0  0  0  0  0  0
   -6.5339    0.8141    2.2977 C   0  0  0  0  0  0  0  0  0  0  0  0
   -4.3485   -0.2173    1.7074 N   0  0  0  0  0  0  0  0  0  0  0  0
   -3.7979    0.1084    0.4126 C   0  0  0  0  0  0  0  0  0  0  0  0
   -2.4468   -0.2239    0.1536 C   0  0  0  0  0  0  0  0  0  0  0  0
   -1.9107    0.0919   -1.0978 C   0  0  0  0  0  0  0  0  0  0  0  0
   -2.6428    0.7591   -2.0356 C   0  0  0  0  0  0  0  0  0  0  0  0
   -1.7870    0.9892   -3.0898 C   0  0  0  0  0  0  0  0  0  0  0  0
   -0.5775    0.4680   -2.7752 N   0  0  0  0  0  0  0  0  0  0  0  0
   -0.6583   -0.0875   -1.5701 N   0  0  0  0  0  0  0  0  0  0  0  0
    0.4539   -0.7322   -0.9335 C   0  0  0  0  0  0  0  0  0  0  0  0
    1.6999   -0.2039   -1.0644 N   0  0  0  0  0  0  0  0  0  0  0  0
    2.7974   -0.7877   -0.5077 C   0  0  0  0  0  0  0  0  0  0  0  0
    2.6277   -1.9855    0.2084 C   0  0  0  0  0  0  0  0  0  0  0  0
    1.3887   -2.5315    0.3168 N   0  0  0  0  0  0  0  0  0  0  0  0
    0.3011   -1.9384   -0.2383 C   0  0  0  0  0  0  0  0  0  0  0  0
    4.0910   -0.1730   -0.6721 N   0  0  0  0  0  0  0  0  0  0  0  0
    4.3406    0.9372   -1.4007 C   0  0  0  0  0  0  0  0  0  0  0  0
    5.6795    1.2643   -1.3298 C   0  0  0  0  0  0  0  0  0  0  0  0
    6.2665    0.3039   -0.5304 C   0  0  0  0  0  0  0  0  0  0  0  0
    7.6973    0.2674   -0.0945 C   0  0  0  0  0  0  0  0  0  0  0  0
    7.8681    1.0511    1.1662 C   0  0  0  0  0  0  0  0  0  0  0  0
    8.1099    2.4198    1.1034 O   0  0  0  0  0  0  0  0  0  0  0  0
    7.7528    0.4819    2.2845 O   0  0  0  0  0  0  0  0  0  0  0  0
    5.2670   -0.5602   -0.1301 C   0  0  0  0  0  0  0  0  0  0  0  0
   -3.9653    1.1251   -1.8232 C   0  0  0  0  0  0  0  0  0  0  0  0
   -4.5470    0.7907   -0.5872 C   0  0  0  0  0  0  0  0  0  0  0  0
   -6.6382   -0.8604    0.0539 H   0  0  0  0  0  0  0  0  0  0  0  0
   -5.8080   -2.2767    0.8049 H   0  0  0  0  0  0  0  0  0  0  0  0
   -7.4171   -1.7403    1.4081 H   0  0  0  0  0  0  0  0  0  0  0  0
   -5.7709   -1.0425    3.0001 H   0  0  0  0  0  0  0  0  0  0  0  0
   -6.7369    1.3813    1.3711 H   0  0  0  0  0  0  0  0  0  0  0  0
   -7.5115    0.5750    2.7683 H   0  0  0  0  0  0  0  0  0  0  0  0
   -5.9630    1.4619    2.9964 H   0  0  0  0  0  0  0  0  0  0  0  0
   -3.6623   -0.4574    2.4594 H   0  0  0  0  0  0  0  0  0  0  0  0
   -1.8444   -0.6968    0.9164 H   0  0  0  0  0  0  0  0  0  0  0  0
   -2.0135    1.5112   -4.0099 H   0  0  0  0  0  0  0  0  0  0  0  0
    3.4619   -2.4967    0.6644 H   0  0  0  0  0  0  0  0  0  0  0  0
   -0.6635   -2.4215   -0.1639 H   0  0  0  0  0  0  0  0  0  0  0  0
    3.5922    1.4933   -1.9511 H   0  0  0  0  0  0  0  0  0  0  0  0
    6.1658    2.1111   -1.7958 H   0  0  0  0  0  0  0  0  0  0  0  0
    8.3426    0.6987   -0.8895 H   0  0  0  0  0  0  0  0  0  0  0  0
    8.0143   -0.7855    0.0680 H   0  0  0  0  0  0  0  0  0  0  0  0
    8.2110    2.9686    1.9488 H   0  0  0  0  0  0  0  0  0  0  0  0
    5.4059   -1.4039    0.5315 H   0  0  0  0  0  0  0  0  0  0  0  0
   -4.5250    1.6647   -2.5764 H   0  0  0  0  0  0  0  0  0  0  0  0
   -5.5643    1.0940   -0.4205 H   0  0  0  0  0  0  0  0  0  0  0  0
  1  2  1  0
  2  3  1  0
  2  4  1  0
  4  5  1  0
  5  6  2  0
  6  7  1  0
  7  8  2  0
  8  9  1  0
  9 10  2  0
 10 11  1  0
 11 12  1  0
 12 13  2  0
 13 14  1  0
 14 15  2  0
 15 16  1  0
 16 17  2  0
 14 18  1  0
 18 19  1  0
 19 20  2  0
 20 21  1  0
 21 22  1  0
 22 23  1  0
 23 24  1  0
 23 25  2  0
 21 26  2  0
  8 27  1  0
 27 28  2  0
 28  5  1  0
 11  7  1  0
 17 12  1  0
 26 18  1  0
  1 29  1  0
  1 30  1  0
  1 31  1  0
  2 32  1  0
  3 33  1  0
  3 34  1  0
  3 35  1  0
  4 36  1  0
  6 37  1  0
  9 38  1  0
 15 39  1  0
 17 40  1  0
 19 41  1  0
 20 42  1  0
 22 43  1  0
 22 44  1  0
 24 45  1  0
 26 46  1  0
 27 47  1  0
 28 48  1  0
M  END
$$$$
