
     RDKit          3D

 35 36  0  0  0  0  0  0  0  0999 V2000
   -4.7437   -2.1263   -0.1194 C   0  0  0  0  0  0  0  0  0  0  0  0
   -3.4468   -1.8353   -0.6304 O   0  0  0  0  0  0  0  0  0  0  0  0
   -2.6939   -0.7025   -0.2858 C   0  0  0  0  0  0  0  0  0  0  0  0
   -1.4302   -0.5459   -0.8662 C   0  0  0  0  0  0  0  0  0  0  0  0
   -0.6194    0.5698   -0.5624 C   0  0  0  0  0  0  0  0  0  0  0  0
   -1.1140    1.5371    0.3534 C   0  0  0  0  0  0  0  0  0  0  0  0
   -0.3344    2.6523    0.6881 C   0  0  0  0  0  0  0  0  0  0  0  0
    0.9298    2.8183    0.1297 C   0  0  0  0  0  0  0  0  0  0  0  0
    1.4291    1.8794   -0.7704 C   0  0  0  0  0  0  0  0  0  0  0  0
    0.6705    0.7527   -1.1362 C   0  0  0  0  0  0  0  0  0  0  0  0
    1.2990   -0.2471   -2.0872 C   0  0  0  0  0  0  0  0  0  0  0  0
    1.8848   -1.4528   -1.3423 C   0  0  0  0  0  0  0  0  0  0  0  0
    2.9719   -1.0360   -0.4567 N   0  0  0  0  0  0  0  0  0  0  0  0
    2.7785   -0.7783    0.9413 C   0  0  0  0  0  0  0  0  0  0  0  0
    3.8827   -0.1764    1.7468 C   0  0  0  0  0  0  0  0  0  0  0  0
    1.6681   -1.0163    1.4893 O   0  0  0  0  0  0  0  0  0  0  0  0
   -2.3817    1.3758    0.9300 C   0  0  0  0  0  0  0  0  0  0  0  0
   -3.1658    0.2671    0.6143 C   0  0  0  0  0  0  0  0  0  0  0  0
   -5.1009   -3.0799   -0.5591 H   0  0  0  0  0  0  0  0  0  0  0  0
   -4.7029   -2.2371    0.9848 H   0  0  0  0  0  0  0  0  0  0  0  0
   -5.4535   -1.3187   -0.3971 H   0  0  0  0  0  0  0  0  0  0  0  0
   -1.1003   -1.3134   -1.5508 H   0  0  0  0  0  0  0  0  0  0  0  0
   -0.7017    3.3945    1.3871 H   0  0  0  0  0  0  0  0  0  0  0  0
    1.5292    3.6784    0.3991 H   0  0  0  0  0  0  0  0  0  0  0  0
    2.4216    2.0286   -1.1779 H   0  0  0  0  0  0  0  0  0  0  0  0
    2.1101    0.2352   -2.6763 H   0  0  0  0  0  0  0  0  0  0  0  0
    0.5568   -0.5883   -2.8382 H   0  0  0  0  0  0  0  0  0  0  0  0
    1.0950   -1.9871   -0.7729 H   0  0  0  0  0  0  0  0  0  0  0  0
    2.2886   -2.1701   -2.0884 H   0  0  0  0  0  0  0  0  0  0  0  0
    3.8906   -0.7898   -0.8899 H   0  0  0  0  0  0  0  0  0  0  0  0
    3.6729   -0.2790    2.8328 H   0  0  0  0  0  0  0  0  0  0  0  0
    3.9762    0.9005    1.4950 H   0  0  0  0  0  0  0  0  0  0  0  0
    4.8394   -0.6907    1.5179 H   0  0  0  0  0  0  0  0  0  0  0  0
   -2.7670    2.1086    1.6294 H   0  0  0  0  0  0  0  0  0  0  0  0
   -4.1383    0.1725    1.0777 H   0  0  0  0  0  0  0  0  0  0  0  0
  1  2  1  0
  2  3  1  0
  3  4  2  0
  4  5  1  0
  5  6  2  0
  6  7  1  0
  7  8  2  0
  8  9  1  0
  9 10  2  0
 10 11  1  0
 11 12  1  0
 12 13  1  0
 13 14  1  0
 14 15  1  0
 14 16  2  0
  6 17  1  0
 17 18  2  0
 18  3  1  0
 10  5  1  0
  1 19  1  0
  1 20  1  0
  1 21  1  0
  4 22  1  0
  7 23  1  0
  8 24  1  0
  9 25  1  0
 11 26  1  0
 11 27  1  0
 12 28  1  0
 12 29  1  0
 13 30  1  0
 15 31  1  0
 15 32  1  0
 15 33  1  0
 17 34  1  0
 18 35  1  0
M  END
$$$$
