
     RDKit          3D

 35 37  0  0  0  0  0  0  0  0999 V2000
    1.1198   -0.7975    1.0022 C   0  0  1  0  0  0  0  0  0  0  0  0
    2.0474    0.3335    0.5470 C   0  0  0  0  0  0  0  0  0  0  0  0
    3.2194   -0.2147   -0.0088 O   0  0  0  0  0  0  0  0  0  0  0  0
    4.1664    1.0519   -0.6488 P   0  0  0  0  0  5  0  0  0  0  0  0
    3.4184    1.6991   -2.0256 O   0  0  0  0  0  0  0  0  0  0  0  0
    4.4165    2.2619    0.5125 O   0  0  0  0  0  0  0  0  0  0  0  0
    5.5093    0.4887   -1.0521 O   0  0  0  0  0  0  0  0  0  0  0  0
   -0.0306   -0.2522    1.6070 O   0  0  0  0  0  0  0  0  0  0  0  0
   -1.1100   -1.1250    1.3406 C   0  0  1  0  0  0  0  0  0  0  0  0
   -2.2510   -0.3578    0.8348 N   0  0  0  0  0  0  0  0  0  0  0  0
   -3.5650   -0.5587    1.1157 C   0  0  0  0  0  0  0  0  0  0  0  0
   -4.3996    0.2634    0.4202 N   0  0  0  0  0  0  0  0  0  0  0  0
   -3.5455    0.9896   -0.3238 C   0  0  0  0  0  0  0  0  0  0  0  0
   -3.8173    1.9811   -1.2540 C   0  0  0  0  0  0  0  0  0  0  0  0
   -2.7568    2.5488   -1.9022 N   0  0  0  0  0  0  0  0  0  0  0  0
   -1.4679    2.1527   -1.6464 C   0  0  0  0  0  0  0  0  0  0  0  0
   -1.2136    1.1720   -0.7284 N   0  0  0  0  0  0  0  0  0  0  0  0
   -2.2684    0.6169   -0.0845 C   0  0  0  0  0  0  0  0  0  0  0  0
   -0.6746   -2.1843    0.3171 C   0  0  2  0  0  0  0  0  0  0  0  0
   -0.5930   -3.4624    0.9060 O   0  0  0  0  0  0  0  0  0  0  0  0
    0.6730   -1.6814   -0.1554 C   0  0  2  0  0  0  0  0  0  0  0  0
    1.5883   -2.7232   -0.3780 O   0  0  0  0  0  0  0  0  0  0  0  0
    1.6551   -1.4113    1.7628 H   0  0  0  0  0  0  0  0  0  0  0  0
    2.2995    0.9480    1.4400 H   0  0  0  0  0  0  0  0  0  0  0  0
    1.5020    0.9652   -0.1897 H   0  0  0  0  0  0  0  0  0  0  0  0
    2.7563    2.3517   -1.6857 H   0  0  0  0  0  0  0  0  0  0  0  0
    3.6075    2.8318    0.4781 H   0  0  0  0  0  0  0  0  0  0  0  0
   -1.4044   -1.6112    2.2977 H   0  0  0  0  0  0  0  0  0  0  0  0
   -3.9195   -1.3064    1.8133 H   0  0  0  0  0  0  0  0  0  0  0  0
   -4.8304    2.2950   -1.4671 H   0  0  0  0  0  0  0  0  0  0  0  0
   -0.6475    2.6176   -2.1756 H   0  0  0  0  0  0  0  0  0  0  0  0
   -1.3792   -2.2413   -0.5422 H   0  0  0  0  0  0  0  0  0  0  0  0
    0.0389   -3.4114    1.6711 H   0  0  0  0  0  0  0  0  0  0  0  0
    0.5404   -1.0731   -1.0818 H   0  0  0  0  0  0  0  0  0  0  0  0
    1.3164   -3.1572   -1.2284 H   0  0  0  0  0  0  0  0  0  0  0  0
  1  2  1  0
  2  3  1  0
  3  4  1  0
  4  5  1  0
  4  6  1  0
  4  7  2  0
  1  8  1  0
  8  9  1  0
  9 10  1  0
 10 11  1  0
 11 12  2  0
 12 13  1  0
 13 14  2  0
 14 15  1  0
 15 16  2  0
 16 17  1  0
 17 18  2  0
  9 19  1  0
 19 20  1  0
 19 21  1  0
 21 22  1  0
 21  1  1  0
 18 10  1  0
 18 13  1  0
  1 23  1  1
  2 24  1  0
  2 25  1  0
  5 26  1  0
  6 27  1  0
  9 28  1  1
 11 29  1  0
 14 30  1  0
 16 31  1  0
 19 32  1  6
 20 33  1  0
 21 34  1  6
 22 35  1  0
M  END
$$$$
