
     RDKit          3D

 71 75  0  0  0  0  0  0  0  0999 V2000
   -3.5319   -1.4201   -1.9750 C   0  0  0  0  0  0  0  0  0  0  0  0
   -2.7301   -2.5130   -1.2614 C   0  0  0  0  0  0  0  0  0  0  0  0
   -2.9425   -3.8729   -1.9355 C   0  0  0  0  0  0  0  0  0  0  0  0
   -3.1188   -2.5754    0.2029 C   0  0  0  0  0  0  0  0  0  0  0  0
   -4.3670   -3.0126    0.5307 N   0  0  0  0  0  0  0  0  0  0  0  0
   -4.8036   -3.0696    1.8142 C   0  0  0  0  0  0  0  0  0  0  0  0
   -3.9719   -2.6635    2.8550 C   0  0  0  0  0  0  0  0  0  0  0  0
   -2.6811   -2.1996    2.5704 C   0  0  0  0  0  0  0  0  0  0  0  0
   -1.7884   -1.7331    3.6877 C   0  0  0  0  0  0  0  0  0  0  0  0
   -2.2425   -2.1533    1.2303 C   0  0  0  0  0  0  0  0  0  0  0  0
   -0.9281   -1.6503    0.9174 N   0  0  0  0  0  0  0  0  0  0  0  0
    0.1389   -2.5068    0.8663 C   0  0  0  0  0  0  0  0  0  0  0  0
   -0.0123   -3.7363    1.1020 O   0  0  0  0  0  0  0  0  0  0  0  0
    1.3753   -2.0410    0.5564 N   0  0  0  0  0  0  0  0  0  0  0  0
    1.5977   -0.7292    0.2895 C   0  0  0  0  0  0  0  0  0  0  0  0
    2.9264   -0.2954   -0.0372 N   0  0  0  0  0  0  0  0  0  0  0  0
    3.7686    0.1750    1.0729 C   0  0  0  0  0  0  0  0  0  0  0  0
    5.2506    0.1791    0.6932 C   0  0  0  0  0  0  0  0  0  0  0  0
    5.4316    0.8252   -0.6097 N   0  0  0  0  0  0  0  0  0  0  0  0
    4.5372    0.5013   -1.7308 C   0  0  0  0  0  0  0  0  0  0  0  0
    3.5239   -0.5981   -1.3544 C   0  0  2  0  0  0  0  0  0  0  0  0
    2.4669   -0.7291   -2.4648 C   0  0  0  0  0  0  0  0  0  0  0  0
    6.3677    1.9070   -0.7435 C   0  0  0  0  0  0  0  0  0  0  0  0
    6.3053    2.8814    0.0528 O   0  0  0  0  0  0  0  0  0  0  0  0
    7.3985    1.9169   -1.7969 C   0  0  0  0  0  0  0  0  0  0  0  0
    7.8284    0.8058   -2.3908 C   0  0  0  0  0  0  0  0  0  0  0  0
    0.5257    0.1748    0.3266 C   0  0  0  0  0  0  0  0  0  0  0  0
    0.6763    1.5410    0.0425 C   0  0  0  0  0  0  0  0  0  0  0  0
   -0.4307    2.3898    0.0889 C   0  0  0  0  0  0  0  0  0  0  0  0
   -0.2641    3.7169   -0.1416 F   0  0  0  0  0  0  0  0  0  0  0  0
   -1.6927    1.8629    0.4091 C   0  0  0  0  0  0  0  0  0  0  0  0
   -1.8116    0.5372    0.6871 N   0  0  0  0  0  0  0  0  0  0  0  0
   -0.7525   -0.3190    0.6514 C   0  0  0  0  0  0  0  0  0  0  0  0
   -2.8970    2.7177    0.4736 C   0  0  0  0  0  0  0  0  0  0  0  0
   -3.2678    3.5381   -0.6132 C   0  0  0  0  0  0  0  0  0  0  0  0
   -2.5085    3.5441   -1.7835 O   0  0  0  0  0  0  0  0  0  0  0  0
   -4.4193    4.3340   -0.5257 C   0  0  0  0  0  0  0  0  0  0  0  0
   -5.2124    4.3022    0.6229 C   0  0  0  0  0  0  0  0  0  0  0  0
   -4.8641    3.4734    1.6903 C   0  0  0  0  0  0  0  0  0  0  0  0
   -3.7158    2.6795    1.6183 C   0  0  0  0  0  0  0  0  0  0  0  0
   -3.3922    1.8895    2.6741 F   0  0  0  0  0  0  0  0  0  0  0  0
   -3.2164   -1.3467   -3.0376 H   0  0  0  0  0  0  0  0  0  0  0  0
   -4.6205   -1.6412   -1.9397 H   0  0  0  0  0  0  0  0  0  0  0  0
   -3.3508   -0.4362   -1.4922 H   0  0  0  0  0  0  0  0  0  0  0  0
   -1.6543   -2.2637   -1.3760 H   0  0  0  0  0  0  0  0  0  0  0  0
   -2.5956   -3.8339   -2.9903 H   0  0  0  0  0  0  0  0  0  0  0  0
   -4.0162   -4.1594   -1.9255 H   0  0  0  0  0  0  0  0  0  0  0  0
   -2.3562   -4.6544   -1.4063 H   0  0  0  0  0  0  0  0  0  0  0  0
   -5.8029   -3.4256    2.0260 H   0  0  0  0  0  0  0  0  0  0  0  0
   -4.3361   -2.7064    3.8740 H   0  0  0  0  0  0  0  0  0  0  0  0
   -2.2662   -1.8755    4.6802 H   0  0  0  0  0  0  0  0  0  0  0  0
   -0.8385   -2.3072    3.6763 H   0  0  0  0  0  0  0  0  0  0  0  0
   -1.5638   -0.6533    3.5603 H   0  0  0  0  0  0  0  0  0  0  0  0
    3.4593    1.2042    1.3545 H   0  0  0  0  0  0  0  0  0  0  0  0
    3.6332   -0.4840    1.9586 H   0  0  0  0  0  0  0  0  0  0  0  0
    5.8345    0.6971    1.4855 H   0  0  0  0  0  0  0  0  0  0  0  0
    5.6199   -0.8674    0.6317 H   0  0  0  0  0  0  0  0  0  0  0  0
    3.9881    1.4243   -2.0214 H   0  0  0  0  0  0  0  0  0  0  0  0
    5.1297    0.1631   -2.6062 H   0  0  0  0  0  0  0  0  0  0  0  0
    4.0649   -1.5675   -1.2815 H   0  0  0  0  0  0  0  0  0  0  0  0
    2.9605   -0.8909   -3.4468 H   0  0  0  0  0  0  0  0  0  0  0  0
    1.8456    0.1902   -2.5229 H   0  0  0  0  0  0  0  0  0  0  0  0
    1.8073   -1.6014   -2.2722 H   0  0  0  0  0  0  0  0  0  0  0  0
    7.8695    2.8583   -2.0523 H   0  0  0  0  0  0  0  0  0  0  0  0
    8.6068    0.8621   -3.1404 H   0  0  0  0  0  0  0  0  0  0  0  0
    7.4379   -0.1675   -2.1231 H   0  0  0  0  0  0  0  0  0  0  0  0
    1.6430    1.9554   -0.2139 H   0  0  0  0  0  0  0  0  0  0  0  0
   -2.7609    4.1201   -2.5780 H   0  0  0  0  0  0  0  0  0  0  0  0
   -4.7066    4.9695   -1.3537 H   0  0  0  0  0  0  0  0  0  0  0  0
   -6.1022    4.9157    0.6828 H   0  0  0  0  0  0  0  0  0  0  0  0
   -5.4850    3.4475    2.5765 H   0  0  0  0  0  0  0  0  0  0  0  0
  1  2  1  0
  2  3  1  0
  2  4  1  0
  4  5  2  0
  5  6  1  0
  6  7  2  0
  7  8  1  0
  8  9  1  0
  8 10  2  0
 10 11  1  0
 11 12  1  0
 12 13  2  0
 12 14  1  0
 14 15  2  0
 15 16  1  0
 16 17  1  0
 17 18  1  0
 18 19  1  0
 19 20  1  0
 20 21  1  0
 21 22  1  0
 19 23  1  0
 23 24  2  0
 23 25  1  0
 25 26  2  3
 15 27  1  0
 27 28  2  0
 28 29  1  0
 29 30  1  0
 29 31  2  0
 31 32  1  0
 32 33  2  0
 31 34  1  0
 34 35  2  0
 35 36  1  0
 35 37  1  0
 37 38  2  0
 38 39  1  0
 39 40  2  0
 40 41  1  0
 10  4  1  0
 33 11  1  0
 40 34  1  0
 21 16  1  0
 33 27  1  0
  1 42  1  0
  1 43  1  0
  1 44  1  0
  2 45  1  0
  3 46  1  0
  3 47  1  0
  3 48  1  0
  6 49  1  0
  7 50  1  0
  9 51  1  0
  9 52  1  0
  9 53  1  0
 17 54  1  0
 17 55  1  0
 18 56  1  0
 18 57  1  0
 20 58  1  0
 20 59  1  0
 21 60  1  1
 22 61  1  0
 22 62  1  0
 22 63  1  0
 25 64  1  0
 26 65  1  0
 26 66  1  0
 28 67  1  0
 36 68  1  0
 37 69  1  0
 38 70  1  0
 39 71  1  0
M  END
$$$$
