
     RDKit          3D

102107  0  0  0  0  0  0  0  0999 V2000
   -6.0121   -0.1662   -2.1459 C   0  0  0  0  0  0  0  0  0  0  0  0
   -5.9486    0.2437   -0.6582 C   0  0  0  0  0  0  0  0  0  0  0  0
   -6.6478   -0.7705    0.2661 C   0  0  0  0  0  0  0  0  0  0  0  0
   -4.5010    0.4123   -0.2222 C   0  0  0  0  0  0  0  0  0  0  0  0
   -3.5600   -0.5334   -0.4125 C   0  0  0  0  0  0  0  0  0  0  0  0
   -2.1127   -0.2685   -0.3567 C   0  0  0  0  0  0  0  0  0  0  0  0
   -1.2348   -1.2713   -0.2980 C   0  0  0  0  0  0  0  0  0  0  0  0
    0.2130   -1.0079   -0.2773 C   0  0  0  0  0  0  0  0  0  0  0  0
    1.0941   -2.0094   -0.2455 C   0  0  0  0  0  0  0  0  0  0  0  0
    2.5397   -1.7393   -0.2491 C   0  0  0  0  0  0  0  0  0  0  0  0
    3.4254   -2.7308   -0.3585 C   0  0  0  0  0  0  0  0  0  0  0  0
    4.8757   -2.4651   -0.4711 C   0  0  0  0  0  0  0  0  0  0  0  0
    5.5555   -2.7063   -1.5568 N   0  0  0  0  0  4  0  0  0  0  0  0
    5.0155   -3.1546   -2.8505 C   0  0  0  0  0  0  0  0  0  0  0  0
    4.8344   -1.9772   -3.8197 C   0  0  0  0  0  0  0  0  0  0  0  0
    3.7644   -0.9939   -3.3317 C   0  0  0  0  0  0  0  0  0  0  0  0
    3.5010    0.1071   -4.3579 C   0  0  0  0  0  0  0  0  0  0  0  0
    2.2422    1.2235   -3.7580 S   0  0  0  0  0  6  0  0  0  0  0  0
    2.6893    1.8464   -2.2614 O   0  0  0  0  0  0  0  0  0  0  0  0
    0.9428    0.4823   -3.6143 O   0  0  0  0  0  0  0  0  0  0  0  0
    2.0619    2.3505   -4.7354 O   0  0  0  0  0  0  0  0  0  0  0  0
    6.9190   -2.4047   -1.2948 C   0  0  0  0  0  0  0  0  0  0  0  0
    7.1039   -1.9907    0.0076 C   0  0  0  0  0  0  0  0  0  0  0  0
    8.3973   -1.6626    0.4807 C   0  0  0  0  0  0  0  0  0  0  0  0
    8.6535   -1.2533    1.8033 C   0  0  0  0  0  0  0  0  0  0  0  0
    9.9537   -0.9403    2.2084 C   0  0  0  0  0  0  0  0  0  0  0  0
   11.0150   -1.0315    1.3079 C   0  0  0  0  0  0  0  0  0  0  0  0
   10.7864   -1.4395   -0.0067 C   0  0  0  0  0  0  0  0  0  0  0  0
    9.4880   -1.7589   -0.4326 C   0  0  0  0  0  0  0  0  0  0  0  0
    9.2672   -2.1764   -1.7605 C   0  0  0  0  0  0  0  0  0  0  0  0
    7.9804   -2.5049   -2.1964 C   0  0  0  0  0  0  0  0  0  0  0  0
    5.7476   -1.9893    0.6856 C   0  0  0  0  0  0  0  0  0  0  0  0
    5.6768   -3.0074    1.8379 C   0  0  0  0  0  0  0  0  0  0  0  0
    5.3341   -0.5745    1.1296 C   0  0  0  0  0  0  0  0  0  0  0  0
   -4.2477    1.7156    0.3283 N   0  0  0  0  0  0  0  0  0  0  0  0
   -3.4897    1.9359    1.5724 C   0  0  0  0  0  0  0  0  0  0  0  0
   -4.2907    1.4513    2.7882 C   0  0  0  0  0  0  0  0  0  0  0  0
   -3.5384    1.7318    4.0958 C   0  0  0  0  0  0  0  0  0  0  0  0
   -4.2452    1.1376    5.3212 C   0  0  0  0  0  0  0  0  0  0  0  0
   -5.8042    1.9420    5.6772 S   0  0  0  0  0  6  0  0  0  0  0  0
   -5.6644    3.6005    5.4358 O   0  0  0  0  0  0  0  0  0  0  0  0
   -6.8748    1.3890    4.7785 O   0  0  0  0  0  0  0  0  0  0  0  0
   -6.1746    1.6772    7.1093 O   0  0  0  0  0  0  0  0  0  0  0  0
   -5.4481    2.4408    0.0736 C   0  0  0  0  0  0  0  0  0  0  0  0
   -6.4653    1.6555   -0.4484 C   0  0  0  0  0  0  0  0  0  0  0  0
   -7.7498    2.2141   -0.6803 C   0  0  0  0  0  0  0  0  0  0  0  0
   -8.8431    1.4661   -1.1620 C   0  0  0  0  0  0  0  0  0  0  0  0
  -10.0823    2.0750   -1.3758 C   0  0  0  0  0  0  0  0  0  0  0  0
  -10.2570    3.4323   -1.1108 C   0  0  0  0  0  0  0  0  0  0  0  0
   -9.1947    4.1925   -0.6228 C   0  0  0  0  0  0  0  0  0  0  0  0
   -7.9427    3.5986   -0.3995 C   0  0  0  0  0  0  0  0  0  0  0  0
   -6.8842    4.3736    0.1082 C   0  0  0  0  0  0  0  0  0  0  0  0
   -5.6381    3.7959    0.3537 C   0  0  0  0  0  0  0  0  0  0  0  0
   -5.4485    0.5600   -2.7711 H   0  0  0  0  0  0  0  0  0  0  0  0
   -7.0479   -0.2114   -2.5267 H   0  0  0  0  0  0  0  0  0  0  0  0
   -5.5712   -1.1736   -2.2968 H   0  0  0  0  0  0  0  0  0  0  0  0
   -6.6253   -0.4158    1.3195 H   0  0  0  0  0  0  0  0  0  0  0  0
   -7.7025   -0.9365   -0.0218 H   0  0  0  0  0  0  0  0  0  0  0  0
   -6.1352   -1.7546    0.2196 H   0  0  0  0  0  0  0  0  0  0  0  0
   -3.8700   -1.5186   -0.7385 H   0  0  0  0  0  0  0  0  0  0  0  0
   -1.7544    0.7519   -0.4221 H   0  0  0  0  0  0  0  0  0  0  0  0
   -1.5886   -2.2961   -0.2616 H   0  0  0  0  0  0  0  0  0  0  0  0
    0.5647    0.0184   -0.2992 H   0  0  0  0  0  0  0  0  0  0  0  0
    0.7453   -3.0365   -0.2377 H   0  0  0  0  0  0  0  0  0  0  0  0
    2.8796   -0.7113   -0.2259 H   0  0  0  0  0  0  0  0  0  0  0  0
    3.0837   -3.7535   -0.4636 H   0  0  0  0  0  0  0  0  0  0  0  0
    5.7118   -3.8918   -3.3033 H   0  0  0  0  0  0  0  0  0  0  0  0
    4.0498   -3.6882   -2.7211 H   0  0  0  0  0  0  0  0  0  0  0  0
    5.8013   -1.4443   -3.9477 H   0  0  0  0  0  0  0  0  0  0  0  0
    4.5337   -2.3843   -4.8097 H   0  0  0  0  0  0  0  0  0  0  0  0
    2.8179   -1.5450   -3.1403 H   0  0  0  0  0  0  0  0  0  0  0  0
    4.1088   -0.5216   -2.3875 H   0  0  0  0  0  0  0  0  0  0  0  0
    4.4330    0.6830   -4.5422 H   0  0  0  0  0  0  0  0  0  0  0  0
    3.1575   -0.3380   -5.3161 H   0  0  0  0  0  0  0  0  0  0  0  0
    3.5797    2.2542   -2.4099 H   0  0  0  0  0  0  0  0  0  0  0  0
    7.8713   -1.1711    2.5375 H   0  0  0  0  0  0  0  0  0  0  0  0
   10.1394   -0.6259    3.2275 H   0  0  0  0  0  0  0  0  0  0  0  0
   12.0189   -0.7872    1.6306 H   0  0  0  0  0  0  0  0  0  0  0  0
   11.6245   -1.5068   -0.6902 H   0  0  0  0  0  0  0  0  0  0  0  0
   10.0925   -2.2519   -2.4585 H   0  0  0  0  0  0  0  0  0  0  0  0
    7.8240   -2.8281   -3.2163 H   0  0  0  0  0  0  0  0  0  0  0  0
    6.2938   -2.6969    2.7019 H   0  0  0  0  0  0  0  0  0  0  0  0
    6.0267   -4.0061    1.4971 H   0  0  0  0  0  0  0  0  0  0  0  0
    4.6303   -3.1087    2.1973 H   0  0  0  0  0  0  0  0  0  0  0  0
    6.0503   -0.1418    1.8523 H   0  0  0  0  0  0  0  0  0  0  0  0
    5.2785    0.1077    0.2535 H   0  0  0  0  0  0  0  0  0  0  0  0
    4.3433   -0.5990    1.6295 H   0  0  0  0  0  0  0  0  0  0  0  0
   -2.5204    1.4064    1.5534 H   0  0  0  0  0  0  0  0  0  0  0  0
   -3.2547    3.0153    1.6817 H   0  0  0  0  0  0  0  0  0  0  0  0
   -4.4738    0.3589    2.6911 H   0  0  0  0  0  0  0  0  0  0  0  0
   -5.2695    1.9744    2.8053 H   0  0  0  0  0  0  0  0  0  0  0  0
   -2.5249    1.2783    4.0330 H   0  0  0  0  0  0  0  0  0  0  0  0
   -3.4082    2.8274    4.2309 H   0  0  0  0  0  0  0  0  0  0  0  0
   -3.5833    1.2622    6.2044 H   0  0  0  0  0  0  0  0  0  0  0  0
   -4.4167    0.0495    5.1765 H   0  0  0  0  0  0  0  0  0  0  0  0
   -6.5711    3.9610    5.6063 H   0  0  0  0  0  0  0  0  0  0  0  0
   -8.7714    0.4145   -1.3710 H   0  0  0  0  0  0  0  0  0  0  0  0
  -10.9135    1.4891   -1.7472 H   0  0  0  0  0  0  0  0  0  0  0  0
  -11.2206    3.8958   -1.2791 H   0  0  0  0  0  0  0  0  0  0  0  0
   -9.3524    5.2446   -0.4161 H   0  0  0  0  0  0  0  0  0  0  0  0
   -7.0256    5.4261    0.3241 H   0  0  0  0  0  0  0  0  0  0  0  0
   -4.8361    4.4029    0.7504 H   0  0  0  0  0  0  0  0  0  0  0  0
  1  2  1  0
  2  3  1  0
  2  4  1  0
  4  5  2  0
  5  6  1  0
  6  7  2  0
  7  8  1  0
  8  9  2  0
  9 10  1  0
 10 11  2  0
 11 12  1  0
 12 13  2  0
 13 14  1  0
 14 15  1  0
 15 16  1  0
 16 17  1  0
 17 18  1  0
 18 19  1  0
 18 20  2  0
 18 21  2  0
 13 22  1  0
 22 23  2  0
 23 24  1  0
 24 25  2  0
 25 26  1  0
 26 27  2  0
 27 28  1  0
 28 29  2  0
 29 30  1  0
 30 31  2  0
 23 32  1  0
 32 33  1  0
 32 34  1  0
  4 35  1  0
 35 36  1  0
 36 37  1  0
 37 38  1  0
 38 39  1  0
 39 40  1  0
 40 41  1  0
 40 42  2  0
 40 43  2  0
 35 44  1  0
 44 45  2  0
 45 46  1  0
 46 47  2  0
 47 48  1  0
 48 49  2  0
 49 50  1  0
 50 51  2  0
 51 52  1  0
 52 53  2  0
 45  2  1  0
 51 46  1  0
 32 12  1  0
 53 44  1  0
 31 22  1  0
 29 24  1  0
  1 54  1  0
  1 55  1  0
  1 56  1  0
  3 57  1  0
  3 58  1  0
  3 59  1  0
  5 60  1  0
  6 61  1  0
  7 62  1  0
  8 63  1  0
  9 64  1  0
 10 65  1  0
 11 66  1  0
 14 67  1  0
 14 68  1  0
 15 69  1  0
 15 70  1  0
 16 71  1  0
 16 72  1  0
 17 73  1  0
 17 74  1  0
 19 75  1  0
 25 76  1  0
 26 77  1  0
 27 78  1  0
 28 79  1  0
 30 80  1  0
 31 81  1  0
 33 82  1  0
 33 83  1  0
 33 84  1  0
 34 85  1  0
 34 86  1  0
 34 87  1  0
 36 88  1  0
 36 89  1  0
 37 90  1  0
 37 91  1  0
 38 92  1  0
 38 93  1  0
 39 94  1  0
 39 95  1  0
 41 96  1  0
 47 97  1  0
 48 98  1  0
 49 99  1  0
 50100  1  0
 52101  1  0
 53102  1  0
M  CHG  1  13   1
M  END
$$$$
