
     RDKit          3D

 27 28  0  0  0  0  0  0  0  0999 V2000
    5.7604    0.3521   -0.1845 O   0  0  0  0  0  0  0  0  0  0  0  0
    4.3689    0.2996   -0.1489 C   0  0  0  0  0  0  0  0  0  0  0  0
    3.6655   -0.5869   -0.9751 C   0  0  0  0  0  0  0  0  0  0  0  0
    2.2684   -0.6312   -0.9312 C   0  0  0  0  0  0  0  0  0  0  0  0
    1.5594    0.2153   -0.0560 C   0  0  0  0  0  0  0  0  0  0  0  0
    0.1593    0.2104    0.0268 O   0  0  0  0  0  0  0  0  0  0  0  0
   -0.6910   -0.6316   -0.7465 C   0  0  0  0  0  0  0  0  0  0  0  0
   -2.1203   -0.3539   -0.3843 C   0  0  0  0  0  0  0  0  0  0  0  0
   -2.7304   -1.0479    0.6738 C   0  0  0  0  0  0  0  0  0  0  0  0
   -4.0509   -0.7613    1.0347 C   0  0  0  0  0  0  0  0  0  0  0  0
   -4.7654    0.2265    0.3513 C   0  0  0  0  0  0  0  0  0  0  0  0
   -4.1590    0.9331   -0.6911 C   0  0  0  0  0  0  0  0  0  0  0  0
   -2.8388    0.6496   -1.0552 C   0  0  0  0  0  0  0  0  0  0  0  0
    2.2710    1.0980    0.7659 C   0  0  0  0  0  0  0  0  0  0  0  0
    3.6678    1.1407    0.7204 C   0  0  0  0  0  0  0  0  0  0  0  0
    6.2971   -0.2444   -0.8035 H   0  0  0  0  0  0  0  0  0  0  0  0
    4.2002   -1.2419   -1.6514 H   0  0  0  0  0  0  0  0  0  0  0  0
    1.7511   -1.3248   -1.5796 H   0  0  0  0  0  0  0  0  0  0  0  0
   -0.5297   -0.4365   -1.8294 H   0  0  0  0  0  0  0  0  0  0  0  0
   -0.4492   -1.6981   -0.5442 H   0  0  0  0  0  0  0  0  0  0  0  0
   -2.1846   -1.8087    1.2180 H   0  0  0  0  0  0  0  0  0  0  0  0
   -4.5188   -1.3024    1.8470 H   0  0  0  0  0  0  0  0  0  0  0  0
   -5.7867    0.4481    0.6328 H   0  0  0  0  0  0  0  0  0  0  0  0
   -4.7107    1.7032   -1.2145 H   0  0  0  0  0  0  0  0  0  0  0  0
   -2.3773    1.2113   -1.8580 H   0  0  0  0  0  0  0  0  0  0  0  0
    1.7383    1.7538    1.4429 H   0  0  0  0  0  0  0  0  0  0  0  0
    4.2055    1.8279    1.3613 H   0  0  0  0  0  0  0  0  0  0  0  0
  1  2  1  0
  2  3  2  0
  3  4  1  0
  4  5  2  0
  5  6  1  0
  6  7  1  0
  7  8  1  0
  8  9  2  0
  9 10  1  0
 10 11  2  0
 11 12  1  0
 12 13  2  0
  5 14  1  0
 14 15  2  0
 15  2  1  0
 13  8  1  0
  1 16  1  0
  3 17  1  0
  4 18  1  0
  7 19  1  0
  7 20  1  0
  9 21  1  0
 10 22  1  0
 11 23  1  0
 12 24  1  0
 13 25  1  0
 14 26  1  0
 15 27  1  0
M  END
$$$$
