
     RDKit          3D

 27 27  0  0  0  0  0  0  0  0999 V2000
   -0.2162    1.0084   -0.7481 C   0  0  1  0  0  0  0  0  0  0  0  0
    0.1661    1.6887    0.4251 O   0  0  0  0  0  0  0  0  0  0  0  0
    0.9282    0.6827   -1.5231 O   0  0  0  0  0  0  0  0  0  0  0  0
    1.8690   -0.1386   -0.8313 C   0  0  1  0  0  0  0  0  0  0  0  0
    2.9261    0.7032   -0.1662 C   0  0  0  0  0  0  0  0  0  0  0  0
    2.9843    2.0736   -0.4049 O   0  0  0  0  0  0  0  0  0  0  0  0
    3.7942    0.1616    0.5702 O   0  0  0  0  0  0  0  0  0  0  0  0
    1.2153   -1.1474    0.1608 C   0  0  2  0  0  0  0  0  0  0  0  0
    2.0170   -2.2886    0.3509 O   0  0  0  0  0  0  0  0  0  0  0  0
   -0.1942   -1.5242   -0.3253 C   0  0  2  0  0  0  0  0  0  0  0  0
   -0.1222   -2.1461   -1.5865 O   0  0  0  0  0  0  0  0  0  0  0  0
   -1.0705   -0.2543   -0.4306 C   0  0  1  0  0  0  0  0  0  0  0  0
   -1.7600   -0.0773    0.7945 O   0  0  0  0  0  0  0  0  0  0  0  0
   -3.3670    0.3832    0.5040 S   0  0  0  0  0  6  0  0  0  0  0  0
   -3.4304    1.6943   -0.5480 O   0  0  0  0  0  0  0  0  0  0  0  0
   -4.1246   -0.7714   -0.0895 O   0  0  0  0  0  0  0  0  0  0  0  0
   -4.0100    0.7667    1.8069 O   0  0  0  0  0  0  0  0  0  0  0  0
   -0.8383    1.6914   -1.3713 H   0  0  0  0  0  0  0  0  0  0  0  0
   -0.5973    2.2633    0.6940 H   0  0  0  0  0  0  0  0  0  0  0  0
    2.3930   -0.7243   -1.6168 H   0  0  0  0  0  0  0  0  0  0  0  0
    3.7015    2.6460    0.0241 H   0  0  0  0  0  0  0  0  0  0  0  0
    1.1031   -0.6606    1.1557 H   0  0  0  0  0  0  0  0  0  0  0  0
    2.1590   -2.7182   -0.5320 H   0  0  0  0  0  0  0  0  0  0  0  0
   -0.6590   -2.2216    0.4134 H   0  0  0  0  0  0  0  0  0  0  0  0
   -0.0409   -3.1230   -1.4291 H   0  0  0  0  0  0  0  0  0  0  0  0
   -1.7663   -0.4215   -1.2882 H   0  0  0  0  0  0  0  0  0  0  0  0
   -3.0598    2.4542   -0.0320 H   0  0  0  0  0  0  0  0  0  0  0  0
  1  2  1  0
  1  3  1  0
  3  4  1  0
  4  5  1  0
  5  6  1  0
  5  7  2  0
  4  8  1  0
  8  9  1  0
  8 10  1  0
 10 11  1  0
 10 12  1  0
 12 13  1  0
 13 14  1  0
 14 15  1  0
 14 16  2  0
 14 17  2  0
 12  1  1  0
  1 18  1  6
  2 19  1  0
  4 20  1  6
  6 21  1  0
  8 22  1  1
  9 23  1  0
 10 24  1  1
 11 25  1  0
 12 26  1  6
 15 27  1  0
M  END
$$$$
