
     RDKit          3D

 40 43  0  0  0  0  0  0  0  0999 V2000
    0.6114   -4.5616    0.1647 O   0  0  0  0  0  0  0  0  0  0  0  0
    0.4118   -3.3163    0.1749 C   0  0  0  0  0  0  0  0  0  0  0  0
    1.4989   -2.4475    0.2723 C   0  0  0  0  0  0  0  0  0  0  0  0
    1.2729   -1.0594    0.2878 C   0  0  0  0  0  0  0  0  0  0  0  0
    0.0249   -0.6016    0.2184 O   0  0  0  0  0  0  0  0  0  0  0  0
   -1.0449   -1.3863    0.1179 C   0  0  0  0  0  0  0  0  0  0  0  0
   -0.8877   -2.7912    0.0955 C   0  0  0  0  0  0  0  0  0  0  0  0
   -2.0216   -3.6163    0.0086 C   0  0  0  0  0  0  0  0  0  0  0  0
   -3.2959   -3.0507   -0.0507 C   0  0  0  0  0  0  0  0  0  0  0  0
   -3.4537   -1.6636   -0.0284 C   0  0  0  0  0  0  0  0  0  0  0  0
   -2.3344   -0.8170    0.0481 C   0  0  0  0  0  0  0  0  0  0  0  0
   -2.5259    0.6549    0.0644 C   0  0  0  0  0  0  0  0  0  0  0  0
   -3.4688    1.2380    0.9300 C   0  0  0  0  0  0  0  0  0  0  0  0
   -3.6461    2.6249    0.9511 C   0  0  0  0  0  0  0  0  0  0  0  0
   -2.8888    3.4412    0.1074 C   0  0  0  0  0  0  0  0  0  0  0  0
   -1.9552    2.8720   -0.7620 C   0  0  0  0  0  0  0  0  0  0  0  0
   -1.7752    1.4859   -0.7879 C   0  0  0  0  0  0  0  0  0  0  0  0
    2.3603   -0.1133    0.3855 N   0  0  0  0  0  0  0  0  0  0  0  0
    3.7473   -0.5086    0.1017 C   0  0  0  0  0  0  0  0  0  0  0  0
    4.5755    0.7065   -0.3286 C   0  0  0  0  0  0  0  0  0  0  0  0
    4.4215    1.7731    0.5857 O   0  0  0  0  0  0  0  0  0  0  0  0
    3.0869    2.2362    0.5471 C   0  0  0  0  0  0  0  0  0  0  0  0
    2.1265    1.1654    1.0700 C   0  0  0  0  0  0  0  0  0  0  0  0
    2.4971   -2.8567    0.3569 H   0  0  0  0  0  0  0  0  0  0  0  0
   -1.9263   -4.6951   -0.0091 H   0  0  0  0  0  0  0  0  0  0  0  0
   -4.1665   -3.6906   -0.1162 H   0  0  0  0  0  0  0  0  0  0  0  0
   -4.4525   -1.2488   -0.0870 H   0  0  0  0  0  0  0  0  0  0  0  0
   -4.0559    0.6214    1.5994 H   0  0  0  0  0  0  0  0  0  0  0  0
   -4.3693    3.0671    1.6241 H   0  0  0  0  0  0  0  0  0  0  0  0
   -3.0271    4.5145    0.1257 H   0  0  0  0  0  0  0  0  0  0  0  0
   -1.3731    3.5049   -1.4194 H   0  0  0  0  0  0  0  0  0  0  0  0
   -1.0597    1.0621   -1.4815 H   0  0  0  0  0  0  0  0  0  0  0  0
    3.7793   -1.2510   -0.7248 H   0  0  0  0  0  0  0  0  0  0  0  0
    4.1933   -0.9606    1.0139 H   0  0  0  0  0  0  0  0  0  0  0  0
    5.6467    0.4152   -0.3538 H   0  0  0  0  0  0  0  0  0  0  0  0
    4.3012    1.0186   -1.3627 H   0  0  0  0  0  0  0  0  0  0  0  0
    2.7964    2.5522   -0.4813 H   0  0  0  0  0  0  0  0  0  0  0  0
    3.0058    3.1338    1.1958 H   0  0  0  0  0  0  0  0  0  0  0  0
    2.2850    1.0263    2.1611 H   0  0  0  0  0  0  0  0  0  0  0  0
    1.0862    1.5221    0.9093 H   0  0  0  0  0  0  0  0  0  0  0  0
  1  2  2  0
  2  3  1  0
  3  4  2  0
  4  5  1  0
  5  6  1  0
  6  7  2  0
  7  8  1  0
  8  9  2  0
  9 10  1  0
 10 11  2  0
 11 12  1  0
 12 13  2  0
 13 14  1  0
 14 15  2  0
 15 16  1  0
 16 17  2  0
  4 18  1  0
 18 19  1  0
 19 20  1  0
 20 21  1  0
 21 22  1  0
 22 23  1  0
  7  2  1  0
 17 12  1  0
 23 18  1  0
 11  6  1  0
  3 24  1  0
  8 25  1  0
  9 26  1  0
 10 27  1  0
 13 28  1  0
 14 29  1  0
 15 30  1  0
 16 31  1  0
 17 32  1  0
 19 33  1  0
 19 34  1  0
 20 35  1  0
 20 36  1  0
 22 37  1  0
 22 38  1  0
 23 39  1  0
 23 40  1  0
M  END
$$$$
