
     RDKit          3D

 54 58  0  0  0  0  0  0  0  0999 V2000
   -5.0305    0.3798    0.3178 C   0  0  2  0  0  0  0  0  0  0  0  0
   -4.8115    1.5725    1.2736 C   0  0  0  0  0  0  0  0  0  0  0  0
   -3.7903    2.5670    0.7770 C   0  0  0  0  0  0  0  0  0  0  0  0
   -3.8980    3.1468   -0.5248 N   0  0  0  0  0  0  0  0  0  0  0  0
   -2.8783    2.9649    1.5491 O   0  0  0  0  0  0  0  0  0  0  0  0
   -6.2867   -0.4331    0.7069 C   0  0  0  0  0  0  0  0  0  0  0  0
   -6.6159   -1.5928   -0.2845 C   0  0  0  0  0  0  0  0  0  0  0  0
   -5.6095   -1.7685   -1.4455 C   0  0  0  0  0  0  0  0  0  0  0  0
   -4.2130   -1.5639   -0.9475 C   0  0  0  0  0  0  0  0  0  0  0  0
   -3.8993   -0.6042    0.0159 C   0  0  0  0  0  0  0  0  0  0  0  0
   -2.5306   -0.6990    0.4040 C   0  0  0  0  0  0  0  0  0  0  0  0
   -1.8351   -1.6053   -0.3894 C   0  0  0  0  0  0  0  0  0  0  0  0
   -2.8464   -2.3995   -1.4615 S   0  0  0  0  0  0  0  0  0  0  0  0
   -0.5139   -1.8476   -0.2391 N   0  0  0  0  0  0  0  0  0  0  0  0
    0.1792   -1.2048    0.7385 C   0  0  0  0  0  0  0  0  0  0  0  0
   -0.4833   -0.3725    1.6008 N   0  0  0  0  0  0  0  0  0  0  0  0
   -1.8260   -0.1463    1.4887 C   0  0  0  0  0  0  0  0  0  0  0  0
   -2.4135    0.4743    2.4064 O   0  0  0  0  0  0  0  0  0  0  0  0
    1.6305   -1.4470    0.8858 C   0  0  0  0  0  0  0  0  0  0  0  0
    2.2730   -0.8516    1.7932 O   0  0  0  0  0  0  0  0  0  0  0  0
    2.3144   -2.3519    0.0037 N   0  0  0  0  0  0  0  0  0  0  0  0
    3.7598   -2.5584    0.0627 C   0  0  0  0  0  0  0  0  0  0  0  0
    4.4795   -1.3616   -0.4968 C   0  0  0  0  0  0  0  0  0  0  0  0
    4.4397   -1.1018   -1.8764 C   0  0  0  0  0  0  0  0  0  0  0  0
    5.0826    0.0228   -2.4020 C   0  0  0  0  0  0  0  0  0  0  0  0
    5.7734    0.8945   -1.5557 C   0  0  0  0  0  0  0  0  0  0  0  0
    6.4094    2.0251   -2.0826 O   0  0  0  0  0  0  0  0  0  0  0  0
    7.3902    2.7754   -1.3596 C   0  0  0  0  0  0  0  0  0  0  0  0
    7.1592    2.7062    0.1234 C   0  0  0  0  0  0  0  0  0  0  0  0
    7.6376    3.5942    0.8777 O   0  0  0  0  0  0  0  0  0  0  0  0
    6.4635    1.5893    0.6846 N   0  0  0  0  0  0  0  0  0  0  0  0
    5.8065    0.6516   -0.1743 C   0  0  0  0  0  0  0  0  0  0  0  0
    5.1592   -0.4737    0.3537 C   0  0  0  0  0  0  0  0  0  0  0  0
   -5.2876    0.8425   -0.6598 H   0  0  0  0  0  0  0  0  0  0  0  0
   -5.7685    2.1326    1.3523 H   0  0  0  0  0  0  0  0  0  0  0  0
   -4.6054    1.2261    2.3043 H   0  0  0  0  0  0  0  0  0  0  0  0
   -3.1710    3.8173   -0.8595 H   0  0  0  0  0  0  0  0  0  0  0  0
   -4.7283    2.9719   -1.1318 H   0  0  0  0  0  0  0  0  0  0  0  0
   -6.1360   -0.8576    1.7242 H   0  0  0  0  0  0  0  0  0  0  0  0
   -7.1651    0.2470    0.7638 H   0  0  0  0  0  0  0  0  0  0  0  0
   -6.6559   -2.5450    0.2889 H   0  0  0  0  0  0  0  0  0  0  0  0
   -7.6287   -1.4365   -0.7153 H   0  0  0  0  0  0  0  0  0  0  0  0
   -5.8199   -1.0216   -2.2406 H   0  0  0  0  0  0  0  0  0  0  0  0
   -5.7153   -2.7843   -1.8828 H   0  0  0  0  0  0  0  0  0  0  0  0
    0.0325    0.0714    2.3946 H   0  0  0  0  0  0  0  0  0  0  0  0
    1.7731   -2.8888   -0.7105 H   0  0  0  0  0  0  0  0  0  0  0  0
    4.0281   -3.4533   -0.5400 H   0  0  0  0  0  0  0  0  0  0  0  0
    4.0685   -2.7683    1.1101 H   0  0  0  0  0  0  0  0  0  0  0  0
    3.9068   -1.7689   -2.5429 H   0  0  0  0  0  0  0  0  0  0  0  0
    5.0459    0.2158   -3.4665 H   0  0  0  0  0  0  0  0  0  0  0  0
    7.3630    3.8314   -1.7016 H   0  0  0  0  0  0  0  0  0  0  0  0
    8.3953    2.3584   -1.5797 H   0  0  0  0  0  0  0  0  0  0  0  0
    6.4135    1.4801    1.7229 H   0  0  0  0  0  0  0  0  0  0  0  0
    5.1793   -0.6509    1.4221 H   0  0  0  0  0  0  0  0  0  0  0  0
  1  2  1  0
  2  3  1  0
  3  4  1  0
  3  5  2  0
  1  6  1  0
  6  7  1  0
  7  8  1  0
  8  9  1  0
  9 10  2  0
 10 11  1  0
 11 12  2  0
 12 13  1  0
 12 14  1  0
 14 15  2  0
 15 16  1  0
 16 17  1  0
 17 18  2  0
 15 19  1  0
 19 20  2  0
 19 21  1  0
 21 22  1  0
 22 23  1  0
 23 24  2  0
 24 25  1  0
 25 26  2  0
 26 27  1  0
 27 28  1  0
 28 29  1  0
 29 30  2  0
 29 31  1  0
 31 32  1  0
 32 33  2  0
 10  1  1  0
 17 11  1  0
 33 23  1  0
 13  9  1  0
 32 26  1  0
  1 34  1  6
  2 35  1  0
  2 36  1  0
  4 37  1  0
  4 38  1  0
  6 39  1  0
  6 40  1  0
  7 41  1  0
  7 42  1  0
  8 43  1  0
  8 44  1  0
 16 45  1  0
 21 46  1  0
 22 47  1  0
 22 48  1  0
 24 49  1  0
 25 50  1  0
 28 51  1  0
 28 52  1  0
 31 53  1  0
 33 54  1  0
M  END
$$$$
