
     RDKit          3D

 64 67  0  0  0  0  0  0  0  0999 V2000
   -7.3980    2.8607   -0.6331 F   0  0  0  0  0  0  0  0  0  0  0  0
   -6.3096    2.0525   -0.6223 C   0  0  0  0  0  0  0  0  0  0  0  0
   -5.2355    2.3154   -1.4761 C   0  0  0  0  0  0  0  0  0  0  0  0
   -4.1122    1.4832   -1.4674 C   0  0  0  0  0  0  0  0  0  0  0  0
   -4.0476    0.3819   -0.5944 C   0  0  0  0  0  0  0  0  0  0  0  0
   -5.1425    0.1189    0.2520 C   0  0  0  0  0  0  0  0  0  0  0  0
   -6.2631    0.9544    0.2400 C   0  0  0  0  0  0  0  0  0  0  0  0
   -2.8362   -0.5362   -0.6235 C   0  0  0  0  0  0  0  0  0  0  0  0
   -2.3925   -0.9275    0.7482 N   0  0  0  0  0  0  0  0  0  0  0  0
   -2.0806    0.2251    1.6256 C   0  0  0  0  0  0  0  0  0  0  0  0
   -0.8134    0.9756    1.1931 C   0  0  0  0  0  0  0  0  0  0  0  0
    0.3091    0.0498    0.9831 N   0  0  0  0  0  0  0  0  0  0  0  0
    0.0585   -1.2189    0.2833 C   0  0  0  0  0  0  0  0  0  0  0  0
   -1.2477   -1.8681    0.7600 C   0  0  0  0  0  0  0  0  0  0  0  0
    1.6639    0.5376    1.1011 C   0  0  0  0  0  0  0  0  0  0  0  0
    2.7116   -0.2487    0.7383 N   0  0  0  0  0  0  0  0  0  0  0  0
    3.9873    0.2061    0.8377 C   0  0  0  0  0  0  0  0  0  0  0  0
    5.0893   -0.6228    0.4487 N   0  0  0  0  0  0  0  0  0  0  0  0
    4.9108   -1.9857   -0.0490 C   0  0  0  0  0  0  0  0  0  0  0  0
    4.2545   -1.9751   -1.4007 C   0  0  0  0  0  0  0  0  0  0  0  0
    4.8598   -1.4442   -2.4663 C   0  0  0  0  0  0  0  0  0  0  0  0
    4.2178    1.4581    1.3058 N   0  0  0  0  0  0  0  0  0  0  0  0
    3.1806    2.2536    1.6758 C   0  0  0  0  0  0  0  0  0  0  0  0
    3.4163    3.5765    2.1736 N   0  0  0  0  0  0  0  0  0  0  0  0
    4.7579    4.1335    2.3258 C   0  0  0  0  0  0  0  0  0  0  0  0
    5.4468    3.5048    3.5045 C   0  0  0  0  0  0  0  0  0  0  0  0
    6.5059    2.7034    3.3596 C   0  0  0  0  0  0  0  0  0  0  0  0
    1.9089    1.7906    1.5703 N   0  0  0  0  0  0  0  0  0  0  0  0
   -3.1924   -1.7426   -1.4775 C   0  0  0  0  0  0  0  0  0  0  0  0
   -2.7844   -1.7932   -2.8228 C   0  0  0  0  0  0  0  0  0  0  0  0
   -3.1338   -2.8808   -3.6287 C   0  0  0  0  0  0  0  0  0  0  0  0
   -3.9014   -3.9238   -3.1046 C   0  0  0  0  0  0  0  0  0  0  0  0
   -4.2394   -4.9772   -3.8883 F   0  0  0  0  0  0  0  0  0  0  0  0
   -4.3234   -3.8792   -1.7737 C   0  0  0  0  0  0  0  0  0  0  0  0
   -3.9772   -2.7937   -0.9639 C   0  0  0  0  0  0  0  0  0  0  0  0
   -5.2735    3.1627   -2.1486 H   0  0  0  0  0  0  0  0  0  0  0  0
   -3.2937    1.6975   -2.1434 H   0  0  0  0  0  0  0  0  0  0  0  0
   -5.1245   -0.7229    0.9312 H   0  0  0  0  0  0  0  0  0  0  0  0
   -7.0960    0.7488    0.9000 H   0  0  0  0  0  0  0  0  0  0  0  0
   -2.0049    0.0063   -1.1232 H   0  0  0  0  0  0  0  0  0  0  0  0
   -1.9399   -0.1405    2.6670 H   0  0  0  0  0  0  0  0  0  0  0  0
   -2.9294    0.9378    1.6747 H   0  0  0  0  0  0  0  0  0  0  0  0
   -0.5714    1.7069    1.9941 H   0  0  0  0  0  0  0  0  0  0  0  0
   -1.0010    1.5494    0.2611 H   0  0  0  0  0  0  0  0  0  0  0  0
    0.8789   -1.9426    0.4794 H   0  0  0  0  0  0  0  0  0  0  0  0
    0.0260   -1.0391   -0.8119 H   0  0  0  0  0  0  0  0  0  0  0  0
   -1.4560   -2.7673    0.1446 H   0  0  0  0  0  0  0  0  0  0  0  0
   -1.1002   -2.2459    1.7960 H   0  0  0  0  0  0  0  0  0  0  0  0
    6.0603   -0.2493    0.5486 H   0  0  0  0  0  0  0  0  0  0  0  0
    4.2881   -2.5645    0.6666 H   0  0  0  0  0  0  0  0  0  0  0  0
    5.8989   -2.4893   -0.1246 H   0  0  0  0  0  0  0  0  0  0  0  0
    3.2670   -2.4132   -1.5128 H   0  0  0  0  0  0  0  0  0  0  0  0
    4.3643   -1.4503   -3.4315 H   0  0  0  0  0  0  0  0  0  0  0  0
    5.8479   -1.0014   -2.3835 H   0  0  0  0  0  0  0  0  0  0  0  0
    2.5955    4.1736    2.4229 H   0  0  0  0  0  0  0  0  0  0  0  0
    5.3336    3.9952    1.3841 H   0  0  0  0  0  0  0  0  0  0  0  0
    4.6815    5.2260    2.5118 H   0  0  0  0  0  0  0  0  0  0  0  0
    5.0526    3.6874    4.4998 H   0  0  0  0  0  0  0  0  0  0  0  0
    6.9160    2.4853    2.3782 H   0  0  0  0  0  0  0  0  0  0  0  0
    6.9692    2.2547    4.2322 H   0  0  0  0  0  0  0  0  0  0  0  0
   -2.1968   -0.9899   -3.2497 H   0  0  0  0  0  0  0  0  0  0  0  0
   -2.8113   -2.9121   -4.6615 H   0  0  0  0  0  0  0  0  0  0  0  0
   -4.9200   -4.6860   -1.3677 H   0  0  0  0  0  0  0  0  0  0  0  0
   -4.3093   -2.7815    0.0655 H   0  0  0  0  0  0  0  0  0  0  0  0
  1  2  1  0
  2  3  2  0
  3  4  1  0
  4  5  2  0
  5  6  1  0
  6  7  2  0
  5  8  1  0
  8  9  1  0
  9 10  1  0
 10 11  1  0
 11 12  1  0
 12 13  1  0
 13 14  1  0
 12 15  1  0
 15 16  2  0
 16 17  1  0
 17 18  1  0
 18 19  1  0
 19 20  1  0
 20 21  2  3
 17 22  2  0
 22 23  1  0
 23 24  1  0
 24 25  1  0
 25 26  1  0
 26 27  2  3
 23 28  2  0
  8 29  1  0
 29 30  2  0
 30 31  1  0
 31 32  2  0
 32 33  1  0
 32 34  1  0
 34 35  2  0
  7  2  1  0
 14  9  1  0
 28 15  1  0
 35 29  1  0
  3 36  1  0
  4 37  1  0
  6 38  1  0
  7 39  1  0
  8 40  1  0
 10 41  1  0
 10 42  1  0
 11 43  1  0
 11 44  1  0
 13 45  1  0
 13 46  1  0
 14 47  1  0
 14 48  1  0
 18 49  1  0
 19 50  1  0
 19 51  1  0
 20 52  1  0
 21 53  1  0
 21 54  1  0
 24 55  1  0
 25 56  1  0
 25 57  1  0
 26 58  1  0
 27 59  1  0
 27 60  1  0
 30 61  1  0
 31 62  1  0
 34 63  1  0
 35 64  1  0
M  END
$$$$
