
     RDKit          3D

 33 35  0  0  0  0  0  0  0  0999 V2000
   -0.8100   -3.1451   -0.1583 C   0  0  0  0  0  0  0  0  0  0  0  0
   -1.1564   -1.7243   -0.2464 N   0  0  0  0  0  0  0  0  0  0  0  0
   -0.3363   -0.7973   -1.0147 C   0  0  0  0  0  0  0  0  0  0  0  0
    0.8670   -1.3129   -1.7181 C   0  0  0  0  0  0  0  0  0  0  0  0
    0.7325   -2.2338   -2.5668 O   0  0  0  0  0  0  0  0  0  0  0  0
    2.1720   -0.7482   -1.5046 N   0  0  0  0  0  0  0  0  0  0  0  0
    2.5576    0.0093   -0.3466 C   0  0  0  0  0  0  0  0  0  0  0  0
    2.0399   -0.2780    0.9284 C   0  0  0  0  0  0  0  0  0  0  0  0
    2.4537    0.4814    2.0243 C   0  0  0  0  0  0  0  0  0  0  0  0
    3.3874    1.5031    1.8492 C   0  0  0  0  0  0  0  0  0  0  0  0
    3.9022    1.7453    0.5745 C   0  0  0  0  0  0  0  0  0  0  0  0
    3.4841    0.9983   -0.4821 N   0  0  0  0  0  0  0  0  0  0  0  0
   -0.6175    0.5297   -1.1147 C   0  0  0  0  0  0  0  0  0  0  0  0
    0.2005    1.3326   -1.9161 O   0  0  0  0  0  0  0  0  0  0  0  0
   -1.7601    1.1648   -0.4180 C   0  0  0  0  0  0  0  0  0  0  0  0
   -2.6667    0.5152    0.3931 C   0  0  0  0  0  0  0  0  0  0  0  0
   -3.6545    1.3374    0.9450 C   0  0  0  0  0  0  0  0  0  0  0  0
   -3.5154    2.6610    0.5558 C   0  0  0  0  0  0  0  0  0  0  0  0
   -4.5543    3.9847    1.0390 Cl  0  0  0  0  0  0  0  0  0  0  0  0
   -2.1804    2.7976   -0.4592 S   0  0  0  0  0  0  0  0  0  0  0  0
   -2.5309   -1.1856    0.6656 S   0  0  0  0  0  6  0  0  0  0  0  0
   -3.7715   -1.8819    0.1819 O   0  0  0  0  0  0  0  0  0  0  0  0
   -2.3119   -1.4514    2.1283 O   0  0  0  0  0  0  0  0  0  0  0  0
    0.2347   -3.2614    0.1989 H   0  0  0  0  0  0  0  0  0  0  0  0
   -1.4768   -3.6759    0.5538 H   0  0  0  0  0  0  0  0  0  0  0  0
   -0.9245   -3.6239   -1.1525 H   0  0  0  0  0  0  0  0  0  0  0  0
    2.8750   -0.8524   -2.2706 H   0  0  0  0  0  0  0  0  0  0  0  0
    1.3427   -1.0899    1.0812 H   0  0  0  0  0  0  0  0  0  0  0  0
    2.0579    0.2716    3.0096 H   0  0  0  0  0  0  0  0  0  0  0  0
    3.7163    2.0946    2.6938 H   0  0  0  0  0  0  0  0  0  0  0  0
    4.6352    2.5266    0.4246 H   0  0  0  0  0  0  0  0  0  0  0  0
    0.0461    2.3263   -2.0302 H   0  0  0  0  0  0  0  0  0  0  0  0
   -4.4378    0.9824    1.6018 H   0  0  0  0  0  0  0  0  0  0  0  0
  1  2  1  0
  2  3  1  0
  3  4  1  0
  4  5  2  0
  4  6  1  0
  6  7  1  0
  7  8  2  0
  8  9  1  0
  9 10  2  0
 10 11  1  0
 11 12  2  0
  3 13  2  0
 13 14  1  0
 13 15  1  0
 15 16  2  0
 16 17  1  0
 17 18  2  0
 18 19  1  0
 18 20  1  0
 16 21  1  0
 21 22  2  0
 21 23  2  0
 21  2  1  0
 12  7  1  0
 20 15  1  0
  1 24  1  0
  1 25  1  0
  1 26  1  0
  6 27  1  0
  8 28  1  0
  9 29  1  0
 10 30  1  0
 11 31  1  0
 14 32  1  0
 17 33  1  0
M  END
$$$$
