
     RDKit          2D

 48 50  0  0  0  0  0  0  0  0999 V2000
    0.0000    9.2028    0.0000 Br  0  0  0  0  0 15  0  0  0  0  0  0
   -1.8596   -1.2135    0.0000 C   0  0  0  0  0  0  0  0  0  0  0  0
   -3.3596   -1.3846    0.0000 C   0  0  0  0  0  0  0  0  0  0  0  0
   -4.1096   -0.0855    0.0000 C   0  0  0  0  0  0  0  0  0  0  0  0
   -3.3596    1.2135    0.0000 C   0  0  0  0  0  0  0  0  0  0  0  0
   -1.8596    1.2135    0.0000 C   0  0  0  0  0  0  0  0  0  0  0  0
   -0.4330    0.7500    0.0000 C   0  0  0  0  0  0  0  0  0  0  0  0
    0.8660    0.0000    0.0000 O   0  0  0  0  0  0  0  0  0  0  0  0
   -0.4330   -0.7500    0.0000 C   0  0  0  0  0  0  0  0  0  0  0  0
   -2.7413    0.0000    0.0000 N   0  0  0  0  0  4  0  0  0  0  0  0
   -3.8560    1.0037    0.0000 C   0  0  0  0  0  0  0  0  0  0  0  0
   -3.8560   -1.0037    0.0000 C   0  0  0  0  0  0  0  0  0  0  0  0
   -5.2587    0.8787    0.0000 O   0  0  0  0  0  0  0  0  0  0  0  0
   -4.9982    2.3559    0.0000 C   0  0  0  0  0  0  0  0  0  0  0  0
   -3.5887    2.8689    0.0000 O   0  0  0  0  0  0  0  0  0  0  0  0
   -6.1473    3.3201    0.0000 C   0  0  0  0  0  0  0  0  0  0  0  0
   -5.1831    4.4691    0.0000 C   0  0  0  0  0  0  0  0  0  0  0  0
   -4.2189    5.6182    0.0000 O   0  0  0  0  0  0  0  0  0  0  0  0
   -7.2963    4.2842    0.0000 C   0  0  0  0  0  0  0  0  0  0  0  0
   -7.0359    5.7615    0.0000 C   0  0  0  0  0  0  0  0  0  0  0  0
   -8.1849    6.7256    0.0000 C   0  0  0  0  0  0  0  0  0  0  0  0
   -9.5945    6.2126    0.0000 C   0  0  0  0  0  0  0  0  0  0  0  0
   -9.8549    4.7354    0.0000 C   0  0  0  0  0  0  0  0  0  0  0  0
   -8.7059    3.7712    0.0000 C   0  0  0  0  0  0  0  0  0  0  0  0
   -1.9642   -2.7099    0.0000 H   0  0  0  0  0  0  0  0  0  0  0  0
   -4.6961   -2.0656    0.0000 H   0  0  0  0  0  0  0  0  0  0  0  0
   -3.0991   -2.8618    0.0000 H   0  0  0  0  0  0  0  0  0  0  0  0
   -5.2587   -1.0497    0.0000 H   0  0  0  0  0  0  0  0  0  0  0  0
   -2.9210    2.6480    0.0000 H   0  0  0  0  0  0  0  0  0  0  0  0
   -4.4916    2.1977    0.0000 H   0  0  0  0  0  0  0  0  0  0  0  0
   -1.9642    2.7099    0.0000 H   0  0  0  0  0  0  0  0  0  0  0  0
    0.1771    2.1203    0.0000 H   0  0  0  0  0  0  0  0  0  0  0  0
    0.1771   -2.1203    0.0000 H   0  0  0  0  0  0  0  0  0  0  0  0
   -4.8401    2.1358    0.0000 H   0  0  0  0  0  0  0  0  0  0  0  0
   -3.1519    2.3282    0.0000 H   0  0  0  0  0  0  0  0  0  0  0  0
   -5.1926    0.3228    0.0000 H   0  0  0  0  0  0  0  0  0  0  0  0
   -5.0847   -1.8640    0.0000 H   0  0  0  0  0  0  0  0  0  0  0  0
   -3.1519   -2.3282    0.0000 H   0  0  0  0  0  0  0  0  0  0  0  0
   -5.3176   -0.6665    0.0000 H   0  0  0  0  0  0  0  0  0  0  0  0
   -7.1114    2.1710    0.0000 H   0  0  0  0  0  0  0  0  0  0  0  0
   -6.0647    5.6827    0.0000 H   0  0  0  0  0  0  0  0  0  0  0  0
   -3.9250    3.6522    0.0000 H   0  0  0  0  0  0  0  0  0  0  0  0
   -4.7319    7.0277    0.0000 H   0  0  0  0  0  0  0  0  0  0  0  0
   -5.6263    6.2745    0.0000 H   0  0  0  0  0  0  0  0  0  0  0  0
   -7.9244    8.2028    0.0000 H   0  0  0  0  0  0  0  0  0  0  0  0
  -10.7435    7.1768    0.0000 H   0  0  0  0  0  0  0  0  0  0  0  0
  -11.2645    4.2224    0.0000 H   0  0  0  0  0  0  0  0  0  0  0  0
   -8.9663    2.2940    0.0000 H   0  0  0  0  0  0  0  0  0  0  0  0
  2  3  1  0
  3  4  1  0
  4  5  1  0
  5  6  1  0
  6  7  1  0
  7  8  1  0
  8  9  1  0
  6 10  1  0
 10 11  1  0
 10 12  1  0
  4 13  1  0
 13 14  1  0
 14 15  2  0
 14 16  1  0
 16 17  1  0
 17 18  1  0
 16 19  1  0
 19 20  2  0
 20 21  1  0
 21 22  2  0
 22 23  1  0
 23 24  2  0
  9  2  1  0
 24 19  1  0
 10  2  1  0
  9  7  1  0
  2 25  1  1
  3 26  1  0
  3 27  1  0
  4 28  1  0
  5 29  1  0
  5 30  1  0
  6 31  1  6
  7 32  1  0
  9 33  1  0
 11 34  1  0
 11 35  1  0
 11 36  1  0
 12 37  1  0
 12 38  1  0
 12 39  1  0
 16 40  1  6
 17 41  1  0
 17 42  1  0
 18 43  1  0
 20 44  1  0
 21 45  1  0
 22 46  1  0
 23 47  1  0
 24 48  1  0
M  CHG  2   1  -1  10   1
M  END
$$$$
