
     RDKit          3D

 57 60  0  0  0  0  0  0  0  0999 V2000
    7.0482    0.0759    2.2702 C   0  0  0  0  0  0  0  0  0  0  0  0
    5.9024    0.1359    1.4273 O   0  0  0  0  0  0  0  0  0  0  0  0
    5.9466    0.2148    0.0262 C   0  0  0  0  0  0  0  0  0  0  0  0
    7.1673    0.2609   -0.6774 C   0  0  0  0  0  0  0  0  0  0  0  0
    7.1768    0.3646   -2.0703 C   0  0  0  0  0  0  0  0  0  0  0  0
    5.9754    0.4230   -2.7764 C   0  0  0  0  0  0  0  0  0  0  0  0
    4.7595    0.3743   -2.0926 C   0  0  0  0  0  0  0  0  0  0  0  0
    4.7341    0.2648   -0.6931 C   0  0  0  0  0  0  0  0  0  0  0  0
    3.4698    0.2065   -0.0096 N   0  0  0  0  0  0  0  0  0  0  0  0
    3.1682   -0.9037    0.9001 C   0  0  0  0  0  0  0  0  0  0  0  0
    1.6988   -1.3568    0.7629 C   0  0  0  0  0  0  0  0  0  0  0  0
    0.7845   -0.2964    0.2605 N   0  0  0  0  0  0  0  0  0  0  0  0
   -0.6073   -0.5141    0.7131 C   0  0  0  0  0  0  0  0  0  0  0  0
   -1.2324   -1.7560    0.0392 C   0  0  0  0  0  0  0  0  0  0  0  0
   -1.1085   -1.6908   -1.3603 O   0  0  0  0  0  0  0  0  0  0  0  0
   -2.7015   -1.9465    0.4446 C   0  0  0  0  0  0  0  0  0  0  0  0
   -3.4825   -0.8280    0.0282 O   0  0  0  0  0  0  0  0  0  0  0  0
   -4.8617   -0.6834    0.2518 C   0  0  0  0  0  0  0  0  0  0  0  0
   -5.6114   -1.6765    0.9123 C   0  0  0  0  0  0  0  0  0  0  0  0
   -6.9814   -1.5100    1.1225 C   0  0  0  0  0  0  0  0  0  0  0  0
   -7.6275   -0.3558    0.6807 C   0  0  0  0  0  0  0  0  0  0  0  0
   -6.9045    0.6474    0.0213 C   0  0  0  0  0  0  0  0  0  0  0  0
   -7.5516    1.8108   -0.4242 C   0  0  0  0  0  0  0  0  0  0  0  0
   -6.8286    2.8094   -1.0804 C   0  0  0  0  0  0  0  0  0  0  0  0
   -5.4580    2.6567   -1.2971 C   0  0  0  0  0  0  0  0  0  0  0  0
   -4.7997    1.5043   -0.8597 C   0  0  0  0  0  0  0  0  0  0  0  0
   -5.5116    0.4864   -0.1967 C   0  0  0  0  0  0  0  0  0  0  0  0
    1.2460    1.0518    0.6377 C   0  0  0  0  0  0  0  0  0  0  0  0
    2.5558    1.3505   -0.0920 C   0  0  0  0  0  0  0  0  0  0  0  0
    7.6495   -0.8271    2.0332 H   0  0  0  0  0  0  0  0  0  0  0  0
    6.7170    0.0146    3.3270 H   0  0  0  0  0  0  0  0  0  0  0  0
    7.6641    0.9911    2.1432 H   0  0  0  0  0  0  0  0  0  0  0  0
    8.1143    0.2230   -0.1568 H   0  0  0  0  0  0  0  0  0  0  0  0
    8.1183    0.4011   -2.6031 H   0  0  0  0  0  0  0  0  0  0  0  0
    5.9860    0.5021   -3.8559 H   0  0  0  0  0  0  0  0  0  0  0  0
    3.8350    0.4051   -2.6548 H   0  0  0  0  0  0  0  0  0  0  0  0
    3.8399   -1.7682    0.7013 H   0  0  0  0  0  0  0  0  0  0  0  0
    3.3494   -0.5675    1.9442 H   0  0  0  0  0  0  0  0  0  0  0  0
    1.6694   -2.2040    0.0444 H   0  0  0  0  0  0  0  0  0  0  0  0
    1.3677   -1.7485    1.7513 H   0  0  0  0  0  0  0  0  0  0  0  0
   -1.2319    0.3677    0.4459 H   0  0  0  0  0  0  0  0  0  0  0  0
   -0.6493   -0.6188    1.8211 H   0  0  0  0  0  0  0  0  0  0  0  0
   -0.6857   -2.6587    0.3861 H   0  0  0  0  0  0  0  0  0  0  0  0
   -1.5425   -0.8509   -1.6640 H   0  0  0  0  0  0  0  0  0  0  0  0
   -2.7667   -2.0587    1.5490 H   0  0  0  0  0  0  0  0  0  0  0  0
   -3.0912   -2.8711   -0.0343 H   0  0  0  0  0  0  0  0  0  0  0  0
   -5.1442   -2.5844    1.2680 H   0  0  0  0  0  0  0  0  0  0  0  0
   -7.5457   -2.2811    1.6313 H   0  0  0  0  0  0  0  0  0  0  0  0
   -8.6915   -0.2472    0.8544 H   0  0  0  0  0  0  0  0  0  0  0  0
   -8.6146    1.9474   -0.2649 H   0  0  0  0  0  0  0  0  0  0  0  0
   -7.3322    3.7046   -1.4218 H   0  0  0  0  0  0  0  0  0  0  0  0
   -4.9031    3.4344   -1.8060 H   0  0  0  0  0  0  0  0  0  0  0  0
   -3.7358    1.4148   -1.0420 H   0  0  0  0  0  0  0  0  0  0  0  0
    1.3927    1.1227    1.7397 H   0  0  0  0  0  0  0  0  0  0  0  0
    0.5049    1.8253    0.3366 H   0  0  0  0  0  0  0  0  0  0  0  0
    2.3241    1.5638   -1.1577 H   0  0  0  0  0  0  0  0  0  0  0  0
    3.0370    2.2485    0.3518 H   0  0  0  0  0  0  0  0  0  0  0  0
  1  2  1  0
  2  3  1  0
  3  4  2  0
  4  5  1  0
  5  6  2  0
  6  7  1  0
  7  8  2  0
  8  9  1  0
  9 10  1  0
 10 11  1  0
 11 12  1  0
 12 13  1  0
 13 14  1  0
 14 15  1  0
 14 16  1  0
 16 17  1  0
 17 18  1  0
 18 19  2  0
 19 20  1  0
 20 21  2  0
 21 22  1  0
 22 23  2  0
 23 24  1  0
 24 25  2  0
 25 26  1  0
 26 27  2  0
 12 28  1  0
 28 29  1  0
  8  3  1  0
 29  9  1  0
 27 18  1  0
 27 22  1  0
  1 30  1  0
  1 31  1  0
  1 32  1  0
  4 33  1  0
  5 34  1  0
  6 35  1  0
  7 36  1  0
 10 37  1  0
 10 38  1  0
 11 39  1  0
 11 40  1  0
 13 41  1  0
 13 42  1  0
 14 43  1  0
 15 44  1  0
 16 45  1  0
 16 46  1  0
 19 47  1  0
 20 48  1  0
 21 49  1  0
 23 50  1  0
 24 51  1  0
 25 52  1  0
 26 53  1  0
 28 54  1  0
 28 55  1  0
 29 56  1  0
 29 57  1  0
M  END
$$$$
