
     RDKit          3D

 93 97  0  0  0  0  0  0  0  0999 V2000
   -7.0715   -1.5431   -0.5212 C   0  0  1  0  0  0  0  0  0  0  0  0
   -6.5939   -2.7303    0.3209 C   0  0  0  0  0  0  0  0  0  0  0  0
   -7.8713   -0.5513    0.3482 C   0  0  0  0  0  0  0  0  0  0  0  0
   -8.4957    0.5731   -0.4786 C   0  0  0  0  0  0  0  0  0  0  0  0
   -5.8860   -0.8768   -1.1625 C   0  0  0  0  0  0  0  0  0  0  0  0
   -5.6928   -0.9978   -2.4031 O   0  0  0  0  0  0  0  0  0  0  0  0
   -4.9902   -0.1541   -0.3677 O   0  0  0  0  0  0  0  0  0  0  0  0
   -3.8119    0.4753   -0.8706 C   0  0  1  0  0  0  0  0  0  0  0  0
   -4.2022    1.7320   -1.7127 C   0  0  0  0  0  0  0  0  0  0  0  0
   -3.4864    3.0304   -1.2710 C   0  0  1  0  0  0  0  0  0  0  0  0
   -4.0938    4.2565   -1.9588 C   0  0  0  0  0  0  0  0  0  0  0  0
   -3.5519    3.1626    0.2300 C   0  0  0  0  0  0  0  0  0  0  0  0
   -3.2790    2.0969    0.9911 C   0  0  0  0  0  0  0  0  0  0  0  0
   -3.4111    2.1710    2.4602 C   0  0  0  0  0  0  0  0  0  0  0  0
   -3.5359    1.0567    3.1814 C   0  0  0  0  0  0  0  0  0  0  0  0
   -3.6710   -0.2752    2.4914 C   0  0  2  0  0  0  0  0  0  0  0  0
   -3.6091   -1.4414    3.4893 C   0  0  0  0  0  0  0  0  0  0  0  0
   -2.6583   -0.3895    1.3099 C   0  0  2  0  0  0  0  0  0  0  0  0
   -1.1812   -0.4565    1.7947 C   0  0  0  0  0  0  0  0  0  0  0  0
   -0.2593   -1.1221    0.7537 C   0  0  0  0  0  0  0  0  0  0  0  0
    1.2435   -0.8579    1.0054 C   0  0  1  0  0  0  0  0  0  0  0  0
    1.7603   -1.3016    2.3962 C   0  0  0  0  0  0  0  0  0  0  0  0
    1.9132   -2.8246    2.5347 C   0  0  1  0  0  0  0  0  0  0  0  0
    0.6558   -3.4476    2.5005 O   0  0  0  0  0  0  0  0  0  0  0  0
    2.8306   -3.3884    1.4393 C   0  0  0  0  0  0  0  0  0  0  0  0
    2.4932   -2.8465    0.0820 C   0  0  0  0  0  0  0  0  0  0  0  0
    2.7136   -3.5573   -0.9356 O   0  0  0  0  0  0  0  0  0  0  0  0
    2.0307   -1.4899   -0.0657 N   0  0  0  0  0  0  0  0  0  0  0  0
    2.2583   -0.7706   -1.3262 C   0  0  0  0  0  0  0  0  0  0  0  0
    3.7129   -0.4084   -1.4551 C   0  0  0  0  0  0  0  0  0  0  0  0
    4.2509    0.6152   -0.6665 C   0  0  0  0  0  0  0  0  0  0  0  0
    5.6149    0.9363   -0.7457 C   0  0  0  0  0  0  0  0  0  0  0  0
    6.4679    0.2292   -1.6338 C   0  0  0  0  0  0  0  0  0  0  0  0
    5.9093   -0.8134   -2.4073 C   0  0  0  0  0  0  0  0  0  0  0  0
    4.5514   -1.1256   -2.3153 C   0  0  0  0  0  0  0  0  0  0  0  0
    7.8470    0.5834   -1.7082 C   0  0  0  0  0  0  0  0  0  0  0  0
    8.8096   -0.1233   -2.6456 C   0  0  0  0  0  0  0  0  0  0  0  0
    9.3357   -1.2663   -2.0287 O   0  0  0  0  0  0  0  0  0  0  0  0
    8.3543    1.5892   -0.8514 C   0  0  0  0  0  0  0  0  0  0  0  0
    9.7278    1.8891   -0.8880 O   0  0  0  0  0  0  0  0  0  0  0  0
   10.3677    2.8723   -0.0806 C   0  0  0  0  0  0  0  0  0  0  0  0
    7.4854    2.2678    0.0199 C   0  0  0  0  0  0  0  0  0  0  0  0
    6.1326    1.9506    0.0648 C   0  0  0  0  0  0  0  0  0  0  0  0
   -2.8531    0.8060    0.3078 C   0  0  1  0  0  0  0  0  0  0  0  0
   -7.7431   -1.9395   -1.3159 H   0  0  0  0  0  0  0  0  0  0  0  0
   -6.0309   -3.4479   -0.3139 H   0  0  0  0  0  0  0  0  0  0  0  0
   -5.9332   -2.3885    1.1468 H   0  0  0  0  0  0  0  0  0  0  0  0
   -7.4642   -3.2650    0.7574 H   0  0  0  0  0  0  0  0  0  0  0  0
   -8.6931   -1.0957    0.8629 H   0  0  0  0  0  0  0  0  0  0  0  0
   -7.2176   -0.1090    1.1322 H   0  0  0  0  0  0  0  0  0  0  0  0
   -9.1070    1.2230    0.1823 H   0  0  0  0  0  0  0  0  0  0  0  0
   -7.7075    1.1970   -0.9497 H   0  0  0  0  0  0  0  0  0  0  0  0
   -9.1531    0.1524   -1.2689 H   0  0  0  0  0  0  0  0  0  0  0  0
   -3.2788   -0.2467   -1.5304 H   0  0  0  0  0  0  0  0  0  0  0  0
   -5.3009    1.8932   -1.6422 H   0  0  0  0  0  0  0  0  0  0  0  0
   -3.9745    1.5393   -2.7840 H   0  0  0  0  0  0  0  0  0  0  0  0
   -2.4168    2.9642   -1.5704 H   0  0  0  0  0  0  0  0  0  0  0  0
   -5.1599    4.3811   -1.6700 H   0  0  0  0  0  0  0  0  0  0  0  0
   -4.0310    4.1443   -3.0622 H   0  0  0  0  0  0  0  0  0  0  0  0
   -3.5342    5.1718   -1.6697 H   0  0  0  0  0  0  0  0  0  0  0  0
   -3.8798    4.0910    0.6851 H   0  0  0  0  0  0  0  0  0  0  0  0
   -3.4077    3.1323    2.9598 H   0  0  0  0  0  0  0  0  0  0  0  0
   -3.5953    1.1250    4.2612 H   0  0  0  0  0  0  0  0  0  0  0  0
   -4.6943   -0.3039    2.0621 H   0  0  0  0  0  0  0  0  0  0  0  0
   -2.7453   -1.3474    4.1798 H   0  0  0  0  0  0  0  0  0  0  0  0
   -3.5464   -2.4097    2.9490 H   0  0  0  0  0  0  0  0  0  0  0  0
   -4.5319   -1.4510    4.1082 H   0  0  0  0  0  0  0  0  0  0  0  0
   -2.8793   -1.3448    0.7813 H   0  0  0  0  0  0  0  0  0  0  0  0
   -0.8184    0.5673    2.0343 H   0  0  0  0  0  0  0  0  0  0  0  0
   -1.1064   -1.0574    2.7196 H   0  0  0  0  0  0  0  0  0  0  0  0
   -0.4664   -2.2112    0.7161 H   0  0  0  0  0  0  0  0  0  0  0  0
   -0.4997   -0.7365   -0.2590 H   0  0  0  0  0  0  0  0  0  0  0  0
    1.3918    0.2445    0.9572 H   0  0  0  0  0  0  0  0  0  0  0  0
    2.7611   -0.8405    2.5516 H   0  0  0  0  0  0  0  0  0  0  0  0
    1.1155   -0.9104    3.2097 H   0  0  0  0  0  0  0  0  0  0  0  0
    2.3887   -3.0235    3.5239 H   0  0  0  0  0  0  0  0  0  0  0  0
    0.7739   -4.3580    2.8788 H   0  0  0  0  0  0  0  0  0  0  0  0
    2.7703   -4.4986    1.4325 H   0  0  0  0  0  0  0  0  0  0  0  0
    3.8819   -3.1097    1.6676 H   0  0  0  0  0  0  0  0  0  0  0  0
    1.9195   -1.3932   -2.1829 H   0  0  0  0  0  0  0  0  0  0  0  0
    1.6524    0.1613   -1.3638 H   0  0  0  0  0  0  0  0  0  0  0  0
    3.6044    1.1560    0.0157 H   0  0  0  0  0  0  0  0  0  0  0  0
    6.5043   -1.4124   -3.0792 H   0  0  0  0  0  0  0  0  0  0  0  0
    4.1551   -1.9354   -2.9154 H   0  0  0  0  0  0  0  0  0  0  0  0
    8.3374   -0.3735   -3.6195 H   0  0  0  0  0  0  0  0  0  0  0  0
    9.6526    0.5453   -2.9180 H   0  0  0  0  0  0  0  0  0  0  0  0
    8.6412   -1.9719   -2.0922 H   0  0  0  0  0  0  0  0  0  0  0  0
   10.2465    2.6219    0.9944 H   0  0  0  0  0  0  0  0  0  0  0  0
    9.9422    3.8760   -0.2917 H   0  0  0  0  0  0  0  0  0  0  0  0
   11.4505    2.8889   -0.3208 H   0  0  0  0  0  0  0  0  0  0  0  0
    7.8485    3.0475    0.6750 H   0  0  0  0  0  0  0  0  0  0  0  0
    5.4897    2.4938    0.7478 H   0  0  0  0  0  0  0  0  0  0  0  0
   -1.8717    1.0306   -0.1644 H   0  0  0  0  0  0  0  0  0  0  0  0
  1  2  1  0
  1  3  1  0
  3  4  1  0
  1  5  1  0
  5  6  2  0
  5  7  1  0
  7  8  1  0
  8  9  1  0
  9 10  1  0
 10 11  1  0
 10 12  1  0
 12 13  2  0
 13 14  1  0
 14 15  2  0
 15 16  1  0
 16 17  1  0
 16 18  1  0
 18 19  1  0
 19 20  1  0
 20 21  1  0
 21 22  1  0
 22 23  1  0
 23 24  1  0
 23 25  1  0
 25 26  1  0
 26 27  2  0
 26 28  1  0
 28 29  1  0
 29 30  1  0
 30 31  2  0
 31 32  1  0
 32 33  2  0
 33 34  1  0
 34 35  2  0
 33 36  1  0
 36 37  1  0
 37 38  1  0
 36 39  2  0
 39 40  1  0
 40 41  1  0
 39 42  1  0
 42 43  2  0
 18 44  1  0
 44  8  1  0
 44 13  1  0
 28 21  1  0
 35 30  1  0
 43 32  1  0
  1 45  1  6
  2 46  1  0
  2 47  1  0
  2 48  1  0
  3 49  1  0
  3 50  1  0
  4 51  1  0
  4 52  1  0
  4 53  1  0
  8 54  1  6
  9 55  1  0
  9 56  1  0
 10 57  1  1
 11 58  1  0
 11 59  1  0
 11 60  1  0
 12 61  1  0
 14 62  1  0
 15 63  1  0
 16 64  1  6
 17 65  1  0
 17 66  1  0
 17 67  1  0
 18 68  1  6
 19 69  1  0
 19 70  1  0
 20 71  1  0
 20 72  1  0
 21 73  1  1
 22 74  1  0
 22 75  1  0
 23 76  1  1
 24 77  1  0
 25 78  1  0
 25 79  1  0
 29 80  1  0
 29 81  1  0
 31 82  1  0
 34 83  1  0
 35 84  1  0
 37 85  1  0
 37 86  1  0
 38 87  1  0
 41 88  1  0
 41 89  1  0
 41 90  1  0
 42 91  1  0
 43 92  1  0
 44 93  1  6
M  END
$$$$
