
     RDKit          3D

 28 29  0  0  0  0  0  0  0  0999 V2000
   -3.7386    1.7817    0.3541 C   0  0  0  0  0  0  0  0  0  0  0  0
   -2.9228    0.5892   -0.0499 C   0  0  0  0  0  0  0  0  0  0  0  0
   -1.5379    0.7135   -0.2432 C   0  0  0  0  0  0  0  0  0  0  0  0
   -0.7701   -0.3867   -0.6660 C   0  0  0  0  0  0  0  0  0  0  0  0
   -1.4106   -1.6199   -0.8835 C   0  0  0  0  0  0  0  0  0  0  0  0
   -2.7913   -1.7410   -0.7086 C   0  0  0  0  0  0  0  0  0  0  0  0
   -3.5476   -0.6400   -0.3029 C   0  0  0  0  0  0  0  0  0  0  0  0
    0.6545   -0.2515   -0.8417 N   0  0  0  0  0  0  0  0  0  0  0  0
    1.5218    0.6443   -0.0819 C   0  0  0  0  0  0  0  0  0  0  0  0
    2.9693    0.2975   -0.5335 C   0  0  0  0  0  0  0  0  0  0  0  0
    3.8147   -0.2626    0.6161 C   0  0  0  0  0  0  0  0  0  0  0  0
    5.0947   -0.6057    0.1591 O   0  0  0  0  0  0  0  0  0  0  0  0
    2.8207   -0.6861   -1.5526 O   0  0  0  0  0  0  0  0  0  0  0  0
    1.4895   -0.9875   -1.7171 C   0  0  0  0  0  0  0  0  0  0  0  0
    1.0681   -1.7857   -2.5948 O   0  0  0  0  0  0  0  0  0  0  0  0
   -3.1447    2.4601    1.0031 H   0  0  0  0  0  0  0  0  0  0  0  0
   -4.6402    1.4671    0.9217 H   0  0  0  0  0  0  0  0  0  0  0  0
   -4.0571    2.3355   -0.5535 H   0  0  0  0  0  0  0  0  0  0  0  0
   -1.0638    1.6717   -0.0746 H   0  0  0  0  0  0  0  0  0  0  0  0
   -0.8459   -2.4972   -1.1662 H   0  0  0  0  0  0  0  0  0  0  0  0
   -3.2760   -2.6928   -0.8840 H   0  0  0  0  0  0  0  0  0  0  0  0
   -4.6182   -0.7477   -0.1798 H   0  0  0  0  0  0  0  0  0  0  0  0
    1.2917    1.7002   -0.3399 H   0  0  0  0  0  0  0  0  0  0  0  0
    1.3669    0.4872    1.0081 H   0  0  0  0  0  0  0  0  0  0  0  0
    3.4622    1.1987   -0.9598 H   0  0  0  0  0  0  0  0  0  0  0  0
    3.3291   -1.1743    1.0258 H   0  0  0  0  0  0  0  0  0  0  0  0
    3.8875    0.4867    1.4373 H   0  0  0  0  0  0  0  0  0  0  0  0
    5.5941    0.2452    0.0476 H   0  0  0  0  0  0  0  0  0  0  0  0
  1  2  1  0
  2  3  2  0
  3  4  1  0
  4  5  2  0
  5  6  1  0
  6  7  2  0
  4  8  1  0
  8  9  1  0
  9 10  1  0
 10 11  1  0
 11 12  1  0
 10 13  1  0
 13 14  1  0
 14 15  2  0
  7  2  1  0
 14  8  1  0
  1 16  1  0
  1 17  1  0
  1 18  1  0
  3 19  1  0
  5 20  1  0
  6 21  1  0
  7 22  1  0
  9 23  1  0
  9 24  1  0
 10 25  1  0
 11 26  1  0
 11 27  1  0
 12 28  1  0
M  END
$$$$
