
     RDKit          3D

 35 36  0  0  0  0  0  0  0  0999 V2000
   -3.8239    1.8818   -0.2807 F   0  0  0  0  0  0  0  0  0  0  0  0
   -2.9267    1.8753   -1.3326 C   0  0  0  0  0  0  0  0  0  0  0  0
   -1.8410    2.6707   -1.0151 F   0  0  0  0  0  0  0  0  0  0  0  0
   -3.5463    2.4016   -2.4513 F   0  0  0  0  0  0  0  0  0  0  0  0
   -2.4715    0.4453   -1.6322 C   0  0  0  0  0  0  0  0  0  0  0  0
   -1.9783   -0.2338   -0.4230 N   0  0  0  0  0  0  0  0  0  0  0  0
   -2.6004   -1.4856    0.0382 C   0  0  0  0  0  0  0  0  0  0  0  0
   -3.1424   -1.3570    1.4635 C   0  0  0  0  0  0  0  0  0  0  0  0
   -3.8727   -2.4883    1.7786 F   0  0  0  0  0  0  0  0  0  0  0  0
   -2.1019   -1.2385    2.3665 F   0  0  0  0  0  0  0  0  0  0  0  0
   -3.9663   -0.2512    1.5645 F   0  0  0  0  0  0  0  0  0  0  0  0
   -0.6925    0.1332    0.1005 C   0  0  0  0  0  0  0  0  0  0  0  0
    0.4707   -0.4201   -0.4494 C   0  0  0  0  0  0  0  0  0  0  0  0
    1.7440   -0.0714    0.0521 C   0  0  0  0  0  0  0  0  0  0  0  0
    1.8218    0.8534    1.1271 C   0  0  0  0  0  0  0  0  0  0  0  0
    3.0339    1.2133    1.6366 N   0  0  0  0  0  0  0  0  0  0  0  0
    4.1934    0.7074    1.1414 C   0  0  0  0  0  0  0  0  0  0  0  0
    5.2964    1.0624    1.6368 O   0  0  0  0  0  0  0  0  0  0  0  0
    4.1706   -0.2040    0.0860 C   0  0  0  0  0  0  0  0  0  0  0  0
    2.9477   -0.6101   -0.4778 C   0  0  0  0  0  0  0  0  0  0  0  0
    2.9472   -1.6038   -1.6265 C   0  0  0  0  0  0  0  0  0  0  0  0
    2.2426   -2.7373   -1.2626 F   0  0  0  0  0  0  0  0  0  0  0  0
    4.2295   -1.9919   -1.9763 F   0  0  0  0  0  0  0  0  0  0  0  0
    2.3565   -1.0310   -2.7386 F   0  0  0  0  0  0  0  0  0  0  0  0
    0.6477    1.3999    1.6683 C   0  0  0  0  0  0  0  0  0  0  0  0
   -0.5989    1.0419    1.1582 C   0  0  0  0  0  0  0  0  0  0  0  0
   -3.3288   -0.1064   -2.0741 H   0  0  0  0  0  0  0  0  0  0  0  0
   -1.6695    0.4667   -2.4021 H   0  0  0  0  0  0  0  0  0  0  0  0
   -3.4405   -1.7787   -0.6274 H   0  0  0  0  0  0  0  0  0  0  0  0
   -1.8548   -2.3097   -0.0004 H   0  0  0  0  0  0  0  0  0  0  0  0
    0.3565   -1.1187   -1.2657 H   0  0  0  0  0  0  0  0  0  0  0  0
    3.0834    1.8952    2.4288 H   0  0  0  0  0  0  0  0  0  0  0  0
    5.1123   -0.5885   -0.2858 H   0  0  0  0  0  0  0  0  0  0  0  0
    0.6982    2.1058    2.4882 H   0  0  0  0  0  0  0  0  0  0  0  0
   -1.4958    1.4719    1.5861 H   0  0  0  0  0  0  0  0  0  0  0  0
  1  2  1  0
  2  3  1  0
  2  4  1  0
  2  5  1  0
  5  6  1  0
  6  7  1  0
  7  8  1  0
  8  9  1  0
  8 10  1  0
  8 11  1  0
  6 12  1  0
 12 13  2  0
 13 14  1  0
 14 15  2  0
 15 16  1  0
 16 17  1  0
 17 18  2  0
 17 19  1  0
 19 20  2  0
 20 21  1  0
 21 22  1  0
 21 23  1  0
 21 24  1  0
 15 25  1  0
 25 26  2  0
 26 12  1  0
 20 14  1  0
  5 27  1  0
  5 28  1  0
  7 29  1  0
  7 30  1  0
 13 31  1  0
 16 32  1  0
 19 33  1  0
 25 34  1  0
 26 35  1  0
M  END
$$$$
