
     RDKit          3D

 45 46  0  0  0  0  0  0  0  0999 V2000
   -5.3353   -1.0379   -1.3993 C   0  0  0  0  0  0  0  0  0  0  0  0
   -5.5292   -0.5203    0.0409 C   0  0  0  0  0  0  0  0  0  0  0  0
   -6.9579    0.0240    0.1758 C   0  0  0  0  0  0  0  0  0  0  0  0
   -4.6315    0.5719    0.2972 O   0  0  0  0  0  0  0  0  0  0  0  0
   -3.2230    0.5577    0.3175 C   0  0  0  0  0  0  0  0  0  0  0  0
   -2.4526   -0.6218    0.2654 C   0  0  0  0  0  0  0  0  0  0  0  0
   -1.0563   -0.5555    0.2922 C   0  0  0  0  0  0  0  0  0  0  0  0
   -0.4055    0.6832    0.3853 C   0  0  0  0  0  0  0  0  0  0  0  0
    1.0979    0.7536    0.3783 C   0  0  0  0  0  0  0  0  0  0  0  0
    1.6263    0.8395   -1.0559 C   0  0  0  0  0  0  0  0  0  0  0  0
    3.0852    0.9296   -1.0573 N   0  0  0  0  0  0  0  0  0  0  0  0
    3.9247   -0.1994   -0.7633 C   0  0  0  0  0  0  0  0  0  0  0  0
    3.4127   -1.3493   -0.6745 O   0  0  0  0  0  0  0  0  0  0  0  0
    5.3876   -0.0391   -0.5815 C   0  0  0  0  0  0  0  0  0  0  0  0
    5.9410    1.1952   -0.1915 C   0  0  0  0  0  0  0  0  0  0  0  0
    7.3220    1.3289   -0.0170 C   0  0  0  0  0  0  0  0  0  0  0  0
    8.1655    0.2338   -0.2232 C   0  0  0  0  0  0  0  0  0  0  0  0
    9.8973    0.4048   -0.0024 Cl  0  0  0  0  0  0  0  0  0  0  0  0
    7.6262   -0.9993   -0.5994 C   0  0  0  0  0  0  0  0  0  0  0  0
    6.2459   -1.1378   -0.7740 C   0  0  0  0  0  0  0  0  0  0  0  0
   -1.1700    1.8576    0.4310 C   0  0  0  0  0  0  0  0  0  0  0  0
   -2.5655    1.7910    0.4047 C   0  0  0  0  0  0  0  0  0  0  0  0
   -5.3543   -1.6192    1.0641 C   0  0  0  0  0  0  0  0  0  0  0  0
   -5.6113   -2.9456    0.7262 O   0  0  0  0  0  0  0  0  0  0  0  0
   -5.0313   -1.3312    2.2484 O   0  0  0  0  0  0  0  0  0  0  0  0
   -4.3486   -1.5220   -1.5349 H   0  0  0  0  0  0  0  0  0  0  0  0
   -5.4044   -0.1943   -2.1191 H   0  0  0  0  0  0  0  0  0  0  0  0
   -6.1179   -1.7833   -1.6595 H   0  0  0  0  0  0  0  0  0  0  0  0
   -7.1199    0.4356    1.1957 H   0  0  0  0  0  0  0  0  0  0  0  0
   -7.7076   -0.7772   -0.0051 H   0  0  0  0  0  0  0  0  0  0  0  0
   -7.1305    0.8428   -0.5556 H   0  0  0  0  0  0  0  0  0  0  0  0
   -2.9082   -1.5974    0.2132 H   0  0  0  0  0  0  0  0  0  0  0  0
   -0.4812   -1.4721    0.2422 H   0  0  0  0  0  0  0  0  0  0  0  0
    1.5167   -0.1436    0.8836 H   0  0  0  0  0  0  0  0  0  0  0  0
    1.4394    1.6433    0.9519 H   0  0  0  0  0  0  0  0  0  0  0  0
    1.3032   -0.0474   -1.6439 H   0  0  0  0  0  0  0  0  0  0  0  0
    1.2061    1.7455   -1.5455 H   0  0  0  0  0  0  0  0  0  0  0  0
    3.5168    1.8261   -1.3743 H   0  0  0  0  0  0  0  0  0  0  0  0
    5.3112    2.0530    0.0032 H   0  0  0  0  0  0  0  0  0  0  0  0
    7.7344    2.2832    0.2851 H   0  0  0  0  0  0  0  0  0  0  0  0
    8.2750   -1.8515   -0.7569 H   0  0  0  0  0  0  0  0  0  0  0  0
    5.8509   -2.1019   -1.0698 H   0  0  0  0  0  0  0  0  0  0  0  0
   -0.6858    2.8249    0.4859 H   0  0  0  0  0  0  0  0  0  0  0  0
   -3.1421    2.7065    0.4453 H   0  0  0  0  0  0  0  0  0  0  0  0
   -5.5162   -3.6845    1.4125 H   0  0  0  0  0  0  0  0  0  0  0  0
  1  2  1  0
  2  3  1  0
  2  4  1  0
  4  5  1  0
  5  6  2  0
  6  7  1  0
  7  8  2  0
  8  9  1  0
  9 10  1  0
 10 11  1  0
 11 12  1  0
 12 13  2  0
 12 14  1  0
 14 15  2  0
 15 16  1  0
 16 17  2  0
 17 18  1  0
 17 19  1  0
 19 20  2  0
  8 21  1  0
 21 22  2  0
  2 23  1  0
 23 24  1  0
 23 25  2  0
 22  5  1  0
 20 14  1  0
  1 26  1  0
  1 27  1  0
  1 28  1  0
  3 29  1  0
  3 30  1  0
  3 31  1  0
  6 32  1  0
  7 33  1  0
  9 34  1  0
  9 35  1  0
 10 36  1  0
 10 37  1  0
 11 38  1  0
 15 39  1  0
 16 40  1  0
 19 41  1  0
 20 42  1  0
 21 43  1  0
 22 44  1  0
 24 45  1  0
M  END
$$$$
