
     RDKit          3D

 38 40  0  0  0  0  0  0  0  0999 V2000
    1.4469   -1.9401   -2.5970 O   0  0  0  0  0  0  0  0  0  0  0  0
    0.2180   -1.7151   -2.0236 N   0  0  0  0  0  0  0  0  0  0  0  0
    0.0721   -1.0064   -0.9468 C   0  0  0  0  0  0  0  0  0  0  0  0
    1.1053   -0.3275   -0.1451 C   0  0  0  0  0  0  0  0  0  0  0  0
    2.4929   -0.2504   -0.3027 C   0  0  0  0  0  0  0  0  0  0  0  0
    3.2425    0.4890    0.6439 C   0  0  0  0  0  0  0  0  0  0  0  0
    4.6369    0.6163    0.5591 O   0  0  0  0  0  0  0  0  0  0  0  0
    5.4386    0.0312   -0.4626 C   0  0  0  0  0  0  0  0  0  0  0  0
    6.8681    0.3849   -0.2270 C   0  0  0  0  0  0  0  0  0  0  0  0
    7.4009    1.5351   -0.8001 O   0  0  0  0  0  0  0  0  0  0  0  0
    7.5797   -0.3324    0.5256 O   0  0  0  0  0  0  0  0  0  0  0  0
    2.5812    1.1261    1.7154 C   0  0  0  0  0  0  0  0  0  0  0  0
    1.1882    1.0381    1.8580 C   0  0  0  0  0  0  0  0  0  0  0  0
    0.4728    0.3051    0.9142 C   0  0  0  0  0  0  0  0  0  0  0  0
   -0.9643    0.0538    0.8236 C   0  0  0  0  0  0  0  0  0  0  0  0
   -1.2026   -0.7298   -0.2883 C   0  0  0  0  0  0  0  0  0  0  0  0
   -2.4926   -1.1320   -0.6309 C   0  0  0  0  0  0  0  0  0  0  0  0
   -3.5669   -0.7230    0.1813 C   0  0  0  0  0  0  0  0  0  0  0  0
   -4.8599   -1.1364   -0.1791 O   0  0  0  0  0  0  0  0  0  0  0  0
   -6.0610   -0.7705    0.4995 C   0  0  0  0  0  0  0  0  0  0  0  0
   -6.3833    0.6709    0.2616 C   0  0  0  0  0  0  0  0  0  0  0  0
   -6.2997    1.1972   -1.0236 O   0  0  0  0  0  0  0  0  0  0  0  0
   -6.7612    1.3996    1.2173 O   0  0  0  0  0  0  0  0  0  0  0  0
   -3.3135    0.0815    1.3255 C   0  0  0  0  0  0  0  0  0  0  0  0
   -2.0040    0.4742    1.6500 C   0  0  0  0  0  0  0  0  0  0  0  0
    1.5184   -2.4990   -3.4376 H   0  0  0  0  0  0  0  0  0  0  0  0
    2.9795   -0.7444   -1.1285 H   0  0  0  0  0  0  0  0  0  0  0  0
    5.1253    0.4184   -1.4561 H   0  0  0  0  0  0  0  0  0  0  0  0
    5.3227   -1.0744   -0.4481 H   0  0  0  0  0  0  0  0  0  0  0  0
    8.3652    1.7985   -0.6358 H   0  0  0  0  0  0  0  0  0  0  0  0
    3.1538    1.6916    2.4395 H   0  0  0  0  0  0  0  0  0  0  0  0
    0.6863    1.5287    2.6816 H   0  0  0  0  0  0  0  0  0  0  0  0
   -2.6640   -1.7459   -1.5060 H   0  0  0  0  0  0  0  0  0  0  0  0
   -6.8939   -1.3836    0.0977 H   0  0  0  0  0  0  0  0  0  0  0  0
   -5.9735   -0.9913    1.5854 H   0  0  0  0  0  0  0  0  0  0  0  0
   -6.5244    2.1686   -1.2027 H   0  0  0  0  0  0  0  0  0  0  0  0
   -4.1188    0.4065    1.9685 H   0  0  0  0  0  0  0  0  0  0  0  0
   -1.8116    1.0871    2.5208 H   0  0  0  0  0  0  0  0  0  0  0  0
  1  2  1  0
  2  3  2  3
  3  4  1  0
  4  5  2  0
  5  6  1  0
  6  7  1  0
  7  8  1  0
  8  9  1  0
  9 10  1  0
  9 11  2  0
  6 12  2  0
 12 13  1  0
 13 14  2  0
 14 15  1  0
 15 16  2  0
 16 17  1  0
 17 18  2  0
 18 19  1  0
 19 20  1  0
 20 21  1  0
 21 22  1  0
 21 23  2  0
 18 24  1  0
 24 25  2  0
 16  3  1  0
 14  4  1  0
 25 15  1  0
  1 26  1  0
  5 27  1  0
  8 28  1  0
  8 29  1  0
 10 30  1  0
 12 31  1  0
 13 32  1  0
 17 33  1  0
 20 34  1  0
 20 35  1  0
 22 36  1  0
 24 37  1  0
 25 38  1  0
M  END
$$$$
