
     RDKit          3D

 29 30  0  0  0  0  0  0  0  0999 V2000
   -2.9214    0.4864    0.0239 C   0  0  1  0  0  0  0  0  0  0  0  0
   -2.5176    0.5848    1.4287 N   0  0  0  0  0  0  0  0  0  0  0  0
   -1.8924    1.1744   -0.8967 C   0  0  0  0  0  0  0  0  0  0  0  0
   -0.5089    0.5775   -0.7870 C   0  0  0  0  0  0  0  0  0  0  0  0
   -0.1126   -0.4529   -1.6548 C   0  0  0  0  0  0  0  0  0  0  0  0
    1.1569   -1.0255   -1.5438 C   0  0  0  0  0  0  0  0  0  0  0  0
    2.0495   -0.5768   -0.5603 C   0  0  0  0  0  0  0  0  0  0  0  0
    3.3267   -1.1462   -0.4390 C   0  0  0  0  0  0  0  0  0  0  0  0
    4.2070   -0.6909    0.5468 C   0  0  0  0  0  0  0  0  0  0  0  0
    3.8207    0.3326    1.4164 C   0  0  0  0  0  0  0  0  0  0  0  0
    2.5516    0.9080    1.3063 C   0  0  0  0  0  0  0  0  0  0  0  0
    1.6580    0.4604    0.3205 C   0  0  0  0  0  0  0  0  0  0  0  0
    0.3812    1.0295    0.2009 C   0  0  0  0  0  0  0  0  0  0  0  0
   -3.1245   -0.9519   -0.3708 C   0  0  0  0  0  0  0  0  0  0  0  0
   -4.0547   -1.2698   -1.3553 O   0  0  0  0  0  0  0  0  0  0  0  0
   -2.4275   -1.8643    0.1509 O   0  0  0  0  0  0  0  0  0  0  0  0
   -3.8944    1.0133   -0.1034 H   0  0  0  0  0  0  0  0  0  0  0  0
   -2.4679    1.5975    1.6862 H   0  0  0  0  0  0  0  0  0  0  0  0
   -3.2784    0.1755    2.0191 H   0  0  0  0  0  0  0  0  0  0  0  0
   -2.2462    1.1165   -1.9499 H   0  0  0  0  0  0  0  0  0  0  0  0
   -1.8482    2.2573   -0.6469 H   0  0  0  0  0  0  0  0  0  0  0  0
   -0.7909   -0.8168   -2.4167 H   0  0  0  0  0  0  0  0  0  0  0  0
    1.4394   -1.8197   -2.2245 H   0  0  0  0  0  0  0  0  0  0  0  0
    3.6430   -1.9408   -1.1043 H   0  0  0  0  0  0  0  0  0  0  0  0
    5.1910   -1.1325    0.6372 H   0  0  0  0  0  0  0  0  0  0  0  0
    4.5067    0.6807    2.1779 H   0  0  0  0  0  0  0  0  0  0  0  0
    2.2693    1.7003    1.9895 H   0  0  0  0  0  0  0  0  0  0  0  0
    0.0769    1.8226    0.8745 H   0  0  0  0  0  0  0  0  0  0  0  0
   -4.1923   -2.2293   -1.6494 H   0  0  0  0  0  0  0  0  0  0  0  0
  1  2  1  0
  1  3  1  0
  3  4  1  0
  4  5  2  0
  5  6  1  0
  6  7  2  0
  7  8  1  0
  8  9  2  0
  9 10  1  0
 10 11  2  0
 11 12  1  0
 12 13  2  0
  1 14  1  0
 14 15  1  0
 14 16  2  0
 13  4  1  0
 12  7  1  0
  1 17  1  1
  2 18  1  0
  2 19  1  0
  3 20  1  0
  3 21  1  0
  5 22  1  0
  6 23  1  0
  8 24  1  0
  9 25  1  0
 10 26  1  0
 11 27  1  0
 13 28  1  0
 15 29  1  0
M  END
$$$$
