
     RDKit          3D

 53 54  0  0  0  0  0  0  0  0999 V2000
    3.0459    3.8501   -0.9810 C   0  0  0  0  0  0  0  0  0  0  0  0
    1.5689    3.6397   -0.6910 C   0  0  0  0  0  0  0  0  0  0  0  0
    1.3209    2.2600   -0.4415 O   0  0  0  0  0  0  0  0  0  0  0  0
    0.0445    1.7626   -0.1590 C   0  0  0  0  0  0  0  0  0  0  0  0
   -0.9435    2.5468   -0.1422 O   0  0  0  0  0  0  0  0  0  0  0  0
   -0.1697    0.3068    0.0571 C   0  0  0  0  0  0  0  0  0  0  0  0
    0.7533   -0.4876    0.6468 C   0  0  0  0  0  0  0  0  0  0  0  0
    2.0297    0.0421    1.2514 C   0  0  0  0  0  0  0  0  0  0  0  0
    3.0241    0.0979    0.2512 O   0  0  0  0  0  0  0  0  0  0  0  0
    4.2449    0.5205    0.8214 C   0  0  0  0  0  0  0  0  0  0  0  0
    5.3062    0.6228   -0.2710 C   0  0  0  0  0  0  0  0  0  0  0  0
    5.5273   -0.6793   -0.8931 N   0  0  0  0  0  0  0  0  0  0  0  0
    0.5431   -1.9062    0.6770 N   0  0  0  0  0  0  0  0  0  0  0  0
   -0.5198   -2.5398   -0.0493 C   0  0  0  0  0  0  0  0  0  0  0  0
   -0.4651   -4.0376   -0.2076 C   0  0  0  0  0  0  0  0  0  0  0  0
   -1.5143   -1.7824   -0.5729 C   0  0  0  0  0  0  0  0  0  0  0  0
   -1.5152   -0.2751   -0.3548 C   0  0  0  0  0  0  0  0  0  0  0  0
   -2.5826    0.0924    0.6689 C   0  0  0  0  0  0  0  0  0  0  0  0
   -2.4603   -0.3819    1.9916 C   0  0  0  0  0  0  0  0  0  0  0  0
   -3.4226   -0.0727    2.9543 C   0  0  0  0  0  0  0  0  0  0  0  0
   -4.5230    0.7127    2.6155 C   0  0  0  0  0  0  0  0  0  0  0  0
   -4.6644    1.1913    1.3128 C   0  0  0  0  0  0  0  0  0  0  0  0
   -3.7072    0.8898    0.3357 C   0  0  0  0  0  0  0  0  0  0  0  0
   -3.9664    1.5436   -1.2798 Cl  0  0  0  0  0  0  0  0  0  0  0  0
   -2.6805   -2.3574   -1.3020 C   0  0  0  0  0  0  0  0  0  0  0  0
   -3.0601   -3.5423   -1.0940 O   0  0  0  0  0  0  0  0  0  0  0  0
   -3.3943   -1.5486   -2.1921 O   0  0  0  0  0  0  0  0  0  0  0  0
   -4.5513   -2.0006   -2.8848 C   0  0  0  0  0  0  0  0  0  0  0  0
    3.2357    4.9218   -1.2004 H   0  0  0  0  0  0  0  0  0  0  0  0
    3.6521    3.5515   -0.1006 H   0  0  0  0  0  0  0  0  0  0  0  0
    3.3503    3.2425   -1.8593 H   0  0  0  0  0  0  0  0  0  0  0  0
    0.9729    3.9751   -1.5674 H   0  0  0  0  0  0  0  0  0  0  0  0
    1.2798    4.2398    0.1989 H   0  0  0  0  0  0  0  0  0  0  0  0
    2.3388   -0.6422    2.0744 H   0  0  0  0  0  0  0  0  0  0  0  0
    1.8550    1.0415    1.7101 H   0  0  0  0  0  0  0  0  0  0  0  0
    4.5949   -0.2043    1.5917 H   0  0  0  0  0  0  0  0  0  0  0  0
    4.1350    1.5242    1.2915 H   0  0  0  0  0  0  0  0  0  0  0  0
    6.2569    0.9993    0.1684 H   0  0  0  0  0  0  0  0  0  0  0  0
    4.9675    1.3477   -1.0427 H   0  0  0  0  0  0  0  0  0  0  0  0
    6.0047   -1.2976   -0.1972 H   0  0  0  0  0  0  0  0  0  0  0  0
    6.2011   -0.5444   -1.6812 H   0  0  0  0  0  0  0  0  0  0  0  0
    1.2468   -2.5060    1.1639 H   0  0  0  0  0  0  0  0  0  0  0  0
   -1.2369   -4.5146    0.4319 H   0  0  0  0  0  0  0  0  0  0  0  0
   -0.6139   -4.3225   -1.2706 H   0  0  0  0  0  0  0  0  0  0  0  0
    0.5258   -4.4310    0.1013 H   0  0  0  0  0  0  0  0  0  0  0  0
   -1.7409    0.1786   -1.3407 H   0  0  0  0  0  0  0  0  0  0  0  0
   -1.6174   -0.9962    2.2799 H   0  0  0  0  0  0  0  0  0  0  0  0
   -3.3147   -0.4441    3.9652 H   0  0  0  0  0  0  0  0  0  0  0  0
   -5.2681    0.9511    3.3636 H   0  0  0  0  0  0  0  0  0  0  0  0
   -5.5235    1.8009    1.0622 H   0  0  0  0  0  0  0  0  0  0  0  0
   -4.2952   -2.8705   -3.5259 H   0  0  0  0  0  0  0  0  0  0  0  0
   -4.9346   -1.1807   -3.5262 H   0  0  0  0  0  0  0  0  0  0  0  0
   -5.3406   -2.2875   -2.1582 H   0  0  0  0  0  0  0  0  0  0  0  0
  1  2  1  0
  2  3  1  0
  3  4  1  0
  4  5  2  0
  4  6  1  0
  6  7  2  0
  7  8  1  0
  8  9  1  0
  9 10  1  0
 10 11  1  0
 11 12  1  0
  7 13  1  0
 13 14  1  0
 14 15  1  0
 14 16  2  0
 16 17  1  0
 17 18  1  0
 18 19  2  0
 19 20  1  0
 20 21  2  0
 21 22  1  0
 22 23  2  0
 23 24  1  0
 16 25  1  0
 25 26  2  0
 25 27  1  0
 27 28  1  0
 17  6  1  0
 23 18  1  0
  1 29  1  0
  1 30  1  0
  1 31  1  0
  2 32  1  0
  2 33  1  0
  8 34  1  0
  8 35  1  0
 10 36  1  0
 10 37  1  0
 11 38  1  0
 11 39  1  0
 12 40  1  0
 12 41  1  0
 13 42  1  0
 15 43  1  0
 15 44  1  0
 15 45  1  0
 17 46  1  0
 19 47  1  0
 20 48  1  0
 21 49  1  0
 22 50  1  0
 28 51  1  0
 28 52  1  0
 28 53  1  0
M  END
$$$$
