
     RDKit          3D

 69 73  0  0  0  0  0  0  0  0999 V2000
   -3.8137    1.4343    3.3572 C   0  0  0  0  0  0  0  0  0  0  0  0
   -3.2298    2.1071    2.1527 C   0  0  0  0  0  0  0  0  0  0  0  0
   -3.3822    1.7327    0.8178 C   0  0  0  0  0  0  0  0  0  0  0  0
   -2.6313    2.5295    0.0084 N   0  0  0  0  0  0  0  0  0  0  0  0
   -2.4203    2.3546   -1.4351 C   0  0  0  0  0  0  0  0  0  0  0  0
   -1.5475    1.1549   -1.6913 C   0  0  0  0  0  0  0  0  0  0  0  0
   -0.1950    1.1773   -1.3214 C   0  0  0  0  0  0  0  0  0  0  0  0
    0.6081    0.0489   -1.5075 C   0  0  0  0  0  0  0  0  0  0  0  0
    0.0656   -1.1256   -2.0655 C   0  0  0  0  0  0  0  0  0  0  0  0
    0.8222   -2.2919   -2.2674 O   0  0  0  0  0  0  0  0  0  0  0  0
    2.1719   -2.4864   -1.8448 C   0  0  0  0  0  0  0  0  0  0  0  0
    2.2259   -2.7341   -0.3273 C   0  0  0  0  0  0  0  0  0  0  0  0
    3.5972   -2.8728    0.2081 N   0  0  0  0  0  0  0  0  0  0  0  0
    4.5186   -3.8352   -0.4191 C   0  0  0  0  0  0  0  0  0  0  0  0
    5.5155   -3.1724   -1.3852 C   0  0  0  0  0  0  0  0  0  0  0  0
    6.5914   -2.3629   -0.6455 C   0  0  0  0  0  0  0  0  0  0  0  0
    6.2004   -0.9007   -0.3656 C   0  0  0  0  0  0  0  0  0  0  0  0
    4.7489   -0.6569    0.0888 C   0  0  0  0  0  0  0  0  0  0  0  0
    4.1684   -1.7583    0.9866 C   0  0  0  0  0  0  0  0  0  0  0  0
   -1.2823   -1.1402   -2.4417 C   0  0  0  0  0  0  0  0  0  0  0  0
   -2.0849   -0.0117   -2.2570 C   0  0  0  0  0  0  0  0  0  0  0  0
   -1.9866    3.3882    0.8330 C   0  0  0  0  0  0  0  0  0  0  0  0
   -2.3310    3.1544    2.1433 C   0  0  0  0  0  0  0  0  0  0  0  0
   -1.7716    3.8802    3.1956 C   0  0  0  0  0  0  0  0  0  0  0  0
   -0.8337    4.8836    2.8835 C   0  0  0  0  0  0  0  0  0  0  0  0
   -0.2473    5.6411    3.8945 O   0  0  0  0  0  0  0  0  0  0  0  0
   -0.4774    5.1262    1.5397 C   0  0  0  0  0  0  0  0  0  0  0  0
   -1.0493    4.3737    0.4991 C   0  0  0  0  0  0  0  0  0  0  0  0
   -4.1614    0.5702    0.3510 C   0  0  0  0  0  0  0  0  0  0  0  0
   -3.8093   -0.7236    0.7638 C   0  0  0  0  0  0  0  0  0  0  0  0
   -4.5272   -1.8294    0.2991 C   0  0  0  0  0  0  0  0  0  0  0  0
   -5.6049   -1.6517   -0.5748 C   0  0  0  0  0  0  0  0  0  0  0  0
   -6.3098   -2.7626   -1.0324 O   0  0  0  0  0  0  0  0  0  0  0  0
   -5.9653   -0.3594   -0.9810 C   0  0  0  0  0  0  0  0  0  0  0  0
   -5.2473    0.7476   -0.5187 C   0  0  0  0  0  0  0  0  0  0  0  0
   -4.7735    0.9414    3.0969 H   0  0  0  0  0  0  0  0  0  0  0  0
   -4.0121    2.1801    4.1546 H   0  0  0  0  0  0  0  0  0  0  0  0
   -3.1018    0.6722    3.7364 H   0  0  0  0  0  0  0  0  0  0  0  0
   -1.9507    3.2538   -1.8819 H   0  0  0  0  0  0  0  0  0  0  0  0
   -3.4003    2.2470   -1.9449 H   0  0  0  0  0  0  0  0  0  0  0  0
    0.2369    2.0668   -0.8806 H   0  0  0  0  0  0  0  0  0  0  0  0
    1.6445    0.1031   -1.2082 H   0  0  0  0  0  0  0  0  0  0  0  0
    2.5615   -3.3786   -2.3760 H   0  0  0  0  0  0  0  0  0  0  0  0
    2.7915   -1.6256   -2.1578 H   0  0  0  0  0  0  0  0  0  0  0  0
    1.6876   -1.9193    0.2009 H   0  0  0  0  0  0  0  0  0  0  0  0
    1.6671   -3.6688   -0.1065 H   0  0  0  0  0  0  0  0  0  0  0  0
    3.9440   -4.6133   -0.9665 H   0  0  0  0  0  0  0  0  0  0  0  0
    5.0709   -4.3791    0.3775 H   0  0  0  0  0  0  0  0  0  0  0  0
    6.0248   -3.9861   -1.9462 H   0  0  0  0  0  0  0  0  0  0  0  0
    4.9956   -2.5433   -2.1366 H   0  0  0  0  0  0  0  0  0  0  0  0
    7.5132   -2.3513   -1.2674 H   0  0  0  0  0  0  0  0  0  0  0  0
    6.8699   -2.8658    0.3064 H   0  0  0  0  0  0  0  0  0  0  0  0
    6.8895   -0.5069    0.4133 H   0  0  0  0  0  0  0  0  0  0  0  0
    6.3804   -0.2995   -1.2836 H   0  0  0  0  0  0  0  0  0  0  0  0
    4.1034   -0.4980   -0.7944 H   0  0  0  0  0  0  0  0  0  0  0  0
    4.7280    0.3013    0.6527 H   0  0  0  0  0  0  0  0  0  0  0  0
    3.3780   -1.3158    1.6312 H   0  0  0  0  0  0  0  0  0  0  0  0
    4.9454   -2.1401    1.6838 H   0  0  0  0  0  0  0  0  0  0  0  0
   -1.7125   -2.0354   -2.8726 H   0  0  0  0  0  0  0  0  0  0  0  0
   -3.1276   -0.0538   -2.5458 H   0  0  0  0  0  0  0  0  0  0  0  0
   -2.0444    3.6751    4.2227 H   0  0  0  0  0  0  0  0  0  0  0  0
   -0.4795    5.4920    4.8696 H   0  0  0  0  0  0  0  0  0  0  0  0
    0.2479    5.8949    1.3055 H   0  0  0  0  0  0  0  0  0  0  0  0
   -0.7557    4.5637   -0.5231 H   0  0  0  0  0  0  0  0  0  0  0  0
   -2.9693   -0.8764    1.4301 H   0  0  0  0  0  0  0  0  0  0  0  0
   -4.2438   -2.8252    0.6152 H   0  0  0  0  0  0  0  0  0  0  0  0
   -7.0946   -2.6671   -1.6663 H   0  0  0  0  0  0  0  0  0  0  0  0
   -6.7999   -0.2121   -1.6545 H   0  0  0  0  0  0  0  0  0  0  0  0
   -5.5391    1.7411   -0.8357 H   0  0  0  0  0  0  0  0  0  0  0  0
  1  2  1  0
  2  3  2  0
  3  4  1  0
  4  5  1  0
  5  6  1  0
  6  7  2  0
  7  8  1  0
  8  9  2  0
  9 10  1  0
 10 11  1  0
 11 12  1  0
 12 13  1  0
 13 14  1  0
 14 15  1  0
 15 16  1  0
 16 17  1  0
 17 18  1  0
 18 19  1  0
  9 20  1  0
 20 21  2  0
  4 22  1  0
 22 23  2  0
 23 24  1  0
 24 25  2  0
 25 26  1  0
 25 27  1  0
 27 28  2  0
  3 29  1  0
 29 30  2  0
 30 31  1  0
 31 32  2  0
 32 33  1  0
 32 34  1  0
 34 35  2  0
 23  2  1  0
 35 29  1  0
 21  6  1  0
 28 22  1  0
 19 13  1  0
  1 36  1  0
  1 37  1  0
  1 38  1  0
  5 39  1  0
  5 40  1  0
  7 41  1  0
  8 42  1  0
 11 43  1  0
 11 44  1  0
 12 45  1  0
 12 46  1  0
 14 47  1  0
 14 48  1  0
 15 49  1  0
 15 50  1  0
 16 51  1  0
 16 52  1  0
 17 53  1  0
 17 54  1  0
 18 55  1  0
 18 56  1  0
 19 57  1  0
 19 58  1  0
 20 59  1  0
 21 60  1  0
 24 61  1  0
 26 62  1  0
 27 63  1  0
 28 64  1  0
 30 65  1  0
 31 66  1  0
 33 67  1  0
 34 68  1  0
 35 69  1  0
M  END
$$$$
