
     RDKit          3D

 44 46  0  0  0  0  0  0  0  0999 V2000
    4.8271    0.7673    1.7720 C   0  0  0  0  0  0  0  0  0  0  0  0
    3.5117    0.2341    1.3744 N   0  0  0  0  0  0  0  0  0  0  0  0
    2.5412    1.2944    1.0760 C   0  0  1  0  0  0  0  0  0  0  0  0
    2.8582    1.7782   -0.3486 C   0  0  0  0  0  0  0  0  0  0  0  0
    3.5426    0.5884   -1.0025 C   0  0  0  0  0  0  0  0  0  0  0  0
    3.5589   -0.4868    0.0963 C   0  0  2  0  0  0  0  0  0  0  0  0
    2.2889   -1.3784    0.0072 C   0  0  0  0  0  0  0  0  0  0  0  0
    1.1273   -0.8757    0.9107 C   0  0  1  0  0  0  0  0  0  0  0  0
    1.1214    0.6667    1.1374 C   0  0  0  0  0  0  0  0  0  0  0  0
   -0.1175   -1.3013    0.3558 O   0  0  0  0  0  0  0  0  0  0  0  0
   -1.3249   -1.2834    1.0626 C   0  0  0  0  0  0  0  0  0  0  0  0
   -1.3481   -0.9638    2.2838 O   0  0  0  0  0  0  0  0  0  0  0  0
   -2.6018   -1.5813    0.3237 C   0  0  0  0  0  0  0  0  0  0  0  0
   -3.6890   -2.1615    1.2489 C   0  0  0  0  0  0  0  0  0  0  0  0
   -4.8348   -2.5011    0.5144 O   0  0  0  0  0  0  0  0  0  0  0  0
   -3.0888   -0.3372   -0.3923 C   0  0  0  0  0  0  0  0  0  0  0  0
   -3.2714   -0.3520   -1.7871 C   0  0  0  0  0  0  0  0  0  0  0  0
   -3.7208    0.7917   -2.4541 C   0  0  0  0  0  0  0  0  0  0  0  0
   -3.9945    1.9592   -1.7377 C   0  0  0  0  0  0  0  0  0  0  0  0
   -3.8209    1.9854   -0.3521 C   0  0  0  0  0  0  0  0  0  0  0  0
   -3.3724    0.8446    0.3201 C   0  0  0  0  0  0  0  0  0  0  0  0
    5.5328   -0.0716    1.9499 H   0  0  0  0  0  0  0  0  0  0  0  0
    5.2604    1.4419    1.0029 H   0  0  0  0  0  0  0  0  0  0  0  0
    4.7303    1.3286    2.7255 H   0  0  0  0  0  0  0  0  0  0  0  0
    2.6077    2.1377    1.8007 H   0  0  0  0  0  0  0  0  0  0  0  0
    3.5575    2.6419   -0.3058 H   0  0  0  0  0  0  0  0  0  0  0  0
    1.9583    2.0939   -0.9194 H   0  0  0  0  0  0  0  0  0  0  0  0
    4.5851    0.8565   -1.2818 H   0  0  0  0  0  0  0  0  0  0  0  0
    3.0122    0.2705   -1.9260 H   0  0  0  0  0  0  0  0  0  0  0  0
    4.4687   -1.1236    0.0092 H   0  0  0  0  0  0  0  0  0  0  0  0
    1.9397   -1.4751   -1.0438 H   0  0  0  0  0  0  0  0  0  0  0  0
    2.5567   -2.4079    0.3318 H   0  0  0  0  0  0  0  0  0  0  0  0
    1.2622   -1.3619    1.9043 H   0  0  0  0  0  0  0  0  0  0  0  0
    0.6953    0.8660    2.1447 H   0  0  0  0  0  0  0  0  0  0  0  0
    0.4329    1.1556    0.4141 H   0  0  0  0  0  0  0  0  0  0  0  0
   -2.3577   -2.3690   -0.4237 H   0  0  0  0  0  0  0  0  0  0  0  0
   -3.9751   -1.4186    2.0237 H   0  0  0  0  0  0  0  0  0  0  0  0
   -3.2978   -3.0610    1.7778 H   0  0  0  0  0  0  0  0  0  0  0  0
   -4.6190   -3.3344    0.0198 H   0  0  0  0  0  0  0  0  0  0  0  0
   -3.0658   -1.2475   -2.3601 H   0  0  0  0  0  0  0  0  0  0  0  0
   -3.8572    0.7725   -3.5277 H   0  0  0  0  0  0  0  0  0  0  0  0
   -4.3420    2.8434   -2.2563 H   0  0  0  0  0  0  0  0  0  0  0  0
   -4.0342    2.8903    0.2020 H   0  0  0  0  0  0  0  0  0  0  0  0
   -3.2434    0.8843    1.3941 H   0  0  0  0  0  0  0  0  0  0  0  0
  1  2  1  0
  2  3  1  0
  3  4  1  0
  4  5  1  0
  5  6  1  0
  6  7  1  0
  7  8  1  0
  8  9  1  0
  8 10  1  0
 10 11  1  0
 11 12  2  0
 11 13  1  0
 13 14  1  0
 14 15  1  0
 13 16  1  0
 16 17  2  0
 17 18  1  0
 18 19  2  0
 19 20  1  0
 20 21  2  0
  6  2  1  0
 21 16  1  0
  9  3  1  0
  1 22  1  0
  1 23  1  0
  1 24  1  0
  3 25  1  1
  4 26  1  0
  4 27  1  0
  5 28  1  0
  5 29  1  0
  6 30  1  1
  7 31  1  0
  7 32  1  0
  8 33  1  1
  9 34  1  0
  9 35  1  0
 13 36  1  0
 14 37  1  0
 14 38  1  0
 15 39  1  0
 17 40  1  0
 18 41  1  0
 19 42  1  0
 20 43  1  0
 21 44  1  0
M  END
$$$$
