
     RDKit          3D

 78 81  0  0  0  0  0  0  0  0999 V2000
   -2.5549    4.7029   -4.4019 C   0  0  0  0  0  0  0  0  0  0  0  0
   -3.4017    4.1091   -3.4444 O   0  0  0  0  0  0  0  0  0  0  0  0
   -3.5444    4.9775   -2.3395 C   0  0  0  0  0  0  0  0  0  0  0  0
   -4.2782    4.2470   -1.2141 C   0  0  0  0  0  0  0  0  0  0  0  0
   -3.6207    3.0349   -0.8997 O   0  0  0  0  0  0  0  0  0  0  0  0
   -2.6410    3.2256    0.1065 C   0  0  0  0  0  0  0  0  0  0  0  0
   -1.4760    2.2392   -0.0942 C   0  0  2  0  0  0  0  0  0  0  0  0
   -0.8055    2.4586   -1.4831 C   0  0  0  0  0  0  0  0  0  0  0  0
    0.5105    1.6559   -1.7755 C   0  0  0  0  0  0  0  0  0  0  0  0
    1.1408    2.1611   -3.1013 C   0  0  0  0  0  0  0  0  0  0  0  0
    0.9372    1.0676   -4.1363 C   0  0  0  0  0  0  0  0  0  0  0  0
    0.8689   -0.2197   -3.3462 C   0  0  0  0  0  0  0  0  0  0  0  0
    0.1879    0.1585   -2.0418 C   0  0  0  0  0  0  0  0  0  0  0  0
    1.5343    1.8357   -0.6546 C   0  0  0  0  0  0  0  0  0  0  0  0
    1.5624    2.9134    0.0010 O   0  0  0  0  0  0  0  0  0  0  0  0
    2.5522    0.8519   -0.4153 N   0  0  0  0  0  0  0  0  0  0  0  0
    3.1012    0.6253    0.9254 C   0  0  1  0  0  0  0  0  0  0  0  0
    2.0213   -0.0486    1.8091 C   0  0  0  0  0  0  0  0  0  0  0  0
    2.6278   -0.9741    2.8685 C   0  0  0  0  0  0  0  0  0  0  0  0
    3.4533   -2.1183    2.2264 C   0  0  2  0  0  0  0  0  0  0  0  0
    4.1254   -1.7069    0.8895 C   0  0  0  0  0  0  0  0  0  0  0  0
    4.4092   -0.2018    0.8439 C   0  0  0  0  0  0  0  0  0  0  0  0
    2.6096   -3.3529    2.0447 C   0  0  0  0  0  0  0  0  0  0  0  0
    2.8039   -4.4510    2.8766 O   0  0  0  0  0  0  0  0  0  0  0  0
    1.7081   -3.3881    1.1643 O   0  0  0  0  0  0  0  0  0  0  0  0
   -1.9344    0.8240    0.1336 C   0  0  0  0  0  0  0  0  0  0  0  0
   -2.8773    0.3416   -0.5516 O   0  0  0  0  0  0  0  0  0  0  0  0
   -1.3405    0.0880    1.1665 O   0  0  0  0  0  0  0  0  0  0  0  0
   -1.3987   -1.3026    1.3412 C   0  0  0  0  0  0  0  0  0  0  0  0
   -1.1196   -1.8142    2.6197 C   0  0  0  0  0  0  0  0  0  0  0  0
   -1.1182   -3.1954    2.8176 C   0  0  0  0  0  0  0  0  0  0  0  0
   -1.3814   -4.0588    1.7872 C   0  0  0  0  0  0  0  0  0  0  0  0
   -1.2803   -5.4747    2.2069 C   0  0  0  0  0  0  0  0  0  0  0  0
   -0.9699   -5.3956    3.7143 C   0  0  0  0  0  0  0  0  0  0  0  0
   -0.8026   -3.9072    4.0761 C   0  0  0  0  0  0  0  0  0  0  0  0
   -1.6542   -3.5859    0.5029 C   0  0  0  0  0  0  0  0  0  0  0  0
   -1.6603   -2.2009    0.2777 C   0  0  0  0  0  0  0  0  0  0  0  0
   -2.5057    4.0397   -5.2897 H   0  0  0  0  0  0  0  0  0  0  0  0
   -1.5204    4.8100   -4.0063 H   0  0  0  0  0  0  0  0  0  0  0  0
   -2.9485    5.6885   -4.7376 H   0  0  0  0  0  0  0  0  0  0  0  0
   -4.1434    5.8700   -2.6289 H   0  0  0  0  0  0  0  0  0  0  0  0
   -2.5551    5.3183   -1.9568 H   0  0  0  0  0  0  0  0  0  0  0  0
   -5.3010    3.9990   -1.5690 H   0  0  0  0  0  0  0  0  0  0  0  0
   -4.4067    4.9147   -0.3297 H   0  0  0  0  0  0  0  0  0  0  0  0
   -2.2130    4.2561    0.1150 H   0  0  0  0  0  0  0  0  0  0  0  0
   -3.1065    3.0537    1.1021 H   0  0  0  0  0  0  0  0  0  0  0  0
   -0.7406    2.4763    0.7016 H   0  0  0  0  0  0  0  0  0  0  0  0
   -0.5677    3.5433   -1.5608 H   0  0  0  0  0  0  0  0  0  0  0  0
   -1.5454    2.2517   -2.2880 H   0  0  0  0  0  0  0  0  0  0  0  0
    0.6958    3.1138   -3.4644 H   0  0  0  0  0  0  0  0  0  0  0  0
    2.2361    2.3341   -2.9940 H   0  0  0  0  0  0  0  0  0  0  0  0
    1.7656    1.0447   -4.8772 H   0  0  0  0  0  0  0  0  0  0  0  0
   -0.0273    1.2307   -4.6669 H   0  0  0  0  0  0  0  0  0  0  0  0
    1.8953   -0.5978   -3.1513 H   0  0  0  0  0  0  0  0  0  0  0  0
    0.2964   -0.9989   -3.8952 H   0  0  0  0  0  0  0  0  0  0  0  0
   -0.8997    0.0032   -2.2009 H   0  0  0  0  0  0  0  0  0  0  0  0
    0.4993   -0.5170   -1.2167 H   0  0  0  0  0  0  0  0  0  0  0  0
    2.8365    0.2194   -1.1952 H   0  0  0  0  0  0  0  0  0  0  0  0
    3.3690    1.6082    1.3734 H   0  0  0  0  0  0  0  0  0  0  0  0
    1.3414   -0.6546    1.1737 H   0  0  0  0  0  0  0  0  0  0  0  0
    1.4053    0.7323    2.3053 H   0  0  0  0  0  0  0  0  0  0  0  0
    1.8200   -1.3826    3.5152 H   0  0  0  0  0  0  0  0  0  0  0  0
    3.2888   -0.3683    3.5271 H   0  0  0  0  0  0  0  0  0  0  0  0
    4.2650   -2.3730    2.9441 H   0  0  0  0  0  0  0  0  0  0  0  0
    3.4818   -1.9622    0.0187 H   0  0  0  0  0  0  0  0  0  0  0  0
    5.0791   -2.2654    0.7684 H   0  0  0  0  0  0  0  0  0  0  0  0
    4.9702    0.0481   -0.0830 H   0  0  0  0  0  0  0  0  0  0  0  0
    5.0684    0.0629    1.7002 H   0  0  0  0  0  0  0  0  0  0  0  0
    2.2360   -5.2839    2.7771 H   0  0  0  0  0  0  0  0  0  0  0  0
   -0.8913   -1.1450    3.4397 H   0  0  0  0  0  0  0  0  0  0  0  0
   -0.4524   -5.9744    1.6591 H   0  0  0  0  0  0  0  0  0  0  0  0
   -2.2403   -6.0032    2.0224 H   0  0  0  0  0  0  0  0  0  0  0  0
   -0.0410   -5.9592    3.9499 H   0  0  0  0  0  0  0  0  0  0  0  0
   -1.8088   -5.8349    4.2973 H   0  0  0  0  0  0  0  0  0  0  0  0
   -1.5103   -3.6077    4.8788 H   0  0  0  0  0  0  0  0  0  0  0  0
    0.2434   -3.6895    4.3826 H   0  0  0  0  0  0  0  0  0  0  0  0
   -1.8373   -4.2752   -0.3112 H   0  0  0  0  0  0  0  0  0  0  0  0
   -1.8253   -1.8471   -0.7288 H   0  0  0  0  0  0  0  0  0  0  0  0
  1  2  1  0
  2  3  1  0
  3  4  1  0
  4  5  1  0
  5  6  1  0
  6  7  1  0
  7  8  1  0
  8  9  1  0
  9 10  1  0
 10 11  1  0
 11 12  1  0
 12 13  1  0
  9 14  1  0
 14 15  2  0
 14 16  1  0
 16 17  1  0
 17 18  1  0
 18 19  1  0
 19 20  1  0
 20 21  1  0
 21 22  1  0
 20 23  1  0
 23 24  1  0
 23 25  2  0
  7 26  1  0
 26 27  2  0
 26 28  1  0
 28 29  1  0
 29 30  2  0
 30 31  1  0
 31 32  2  0
 32 33  1  0
 33 34  1  0
 34 35  1  0
 32 36  1  0
 36 37  2  0
 13  9  1  0
 22 17  1  0
 37 29  1  0
 35 31  1  0
  1 38  1  0
  1 39  1  0
  1 40  1  0
  3 41  1  0
  3 42  1  0
  4 43  1  0
  4 44  1  0
  6 45  1  0
  6 46  1  0
  7 47  1  1
  8 48  1  0
  8 49  1  0
 10 50  1  0
 10 51  1  0
 11 52  1  0
 11 53  1  0
 12 54  1  0
 12 55  1  0
 13 56  1  0
 13 57  1  0
 16 58  1  0
 17 59  1  1
 18 60  1  0
 18 61  1  0
 19 62  1  0
 19 63  1  0
 20 64  1  1
 21 65  1  0
 21 66  1  0
 22 67  1  0
 22 68  1  0
 24 69  1  0
 30 70  1  0
 33 71  1  0
 33 72  1  0
 34 73  1  0
 34 74  1  0
 35 75  1  0
 35 76  1  0
 36 77  1  0
 37 78  1  0
M  END
$$$$
