
     RDKit          3D

 22 24  0  0  0  0  0  0  0  0999 V2000
    4.0216    0.5934   -1.0634 N   0  0  0  0  0  0  0  0  0  0  0  0
    4.2506   -0.2438   -0.0361 C   0  0  0  0  0  0  0  0  0  0  0  0
    3.0413   -0.6081    0.5159 C   0  0  0  0  0  0  0  0  0  0  0  0
    2.1036    0.0626   -0.2467 C   0  0  0  0  0  0  0  0  0  0  0  0
    2.7202    0.7867   -1.2006 N   0  0  0  0  0  0  0  0  0  0  0  0
    0.6471    0.0114   -0.0661 C   0  0  0  0  0  0  0  0  0  0  0  0
    0.0461   -0.7277    0.9052 N   0  0  0  0  0  0  0  0  0  0  0  0
   -1.2600   -0.4798    0.7002 C   0  0  0  0  0  0  0  0  0  0  0  0
   -2.3457   -0.9817    1.4142 C   0  0  0  0  0  0  0  0  0  0  0  0
   -3.6342   -0.5783    1.0136 C   0  0  0  0  0  0  0  0  0  0  0  0
   -3.8011    0.3060   -0.0777 C   0  0  0  0  0  0  0  0  0  0  0  0
   -2.6809    0.7940   -0.7770 C   0  0  0  0  0  0  0  0  0  0  0  0
   -1.4234    0.3724   -0.3510 C   0  0  0  0  0  0  0  0  0  0  0  0
   -0.2243    0.6948   -0.8499 N   0  0  0  0  0  0  0  0  0  0  0  0
    4.7479    1.0330   -1.6707 H   0  0  0  0  0  0  0  0  0  0  0  0
    5.2306   -0.5670    0.2891 H   0  0  0  0  0  0  0  0  0  0  0  0
    2.8703   -1.2691    1.3553 H   0  0  0  0  0  0  0  0  0  0  0  0
   -2.2050   -1.6578    2.2475 H   0  0  0  0  0  0  0  0  0  0  0  0
   -4.5021   -0.9475    1.5443 H   0  0  0  0  0  0  0  0  0  0  0  0
   -4.7958    0.6095   -0.3771 H   0  0  0  0  0  0  0  0  0  0  0  0
   -2.7936    1.4711   -1.6138 H   0  0  0  0  0  0  0  0  0  0  0  0
   -0.0129    1.3258   -1.6550 H   0  0  0  0  0  0  0  0  0  0  0  0
  1  2  1  0
  2  3  2  0
  3  4  1  0
  4  5  2  0
  4  6  1  0
  6  7  2  0
  7  8  1  0
  8  9  2  0
  9 10  1  0
 10 11  2  0
 11 12  1  0
 12 13  2  0
 13 14  1  0
  5  1  1  0
 14  6  1  0
 13  8  1  0
  1 15  1  0
  2 16  1  0
  3 17  1  0
  9 18  1  0
 10 19  1  0
 11 20  1  0
 12 21  1  0
 14 22  1  0
M  END
$$$$
