
     RDKit          3D

 54 57  0  0  0  0  0  0  0  0999 V2000
    1.3646    0.2464   -2.0698 C   0  0  1  0  0  0  0  0  0  0  0  0
    1.8259   -0.1870   -0.3367 S   0  0  0  0  0  0  0  0  0  0  0  0
    0.1386   -0.4904    0.3270 C   0  0  0  0  0  0  0  0  0  0  0  0
   -0.6640   -1.4624   -0.5224 C   0  0  0  0  0  0  0  0  0  0  0  0
   -1.2906   -2.6621    0.1519 C   0  0  0  0  0  0  0  0  0  0  0  0
   -0.5753   -4.2056   -0.5123 S   0  0  0  0  0  0  0  0  0  0  0  0
   -1.3393   -5.2539    0.7371 C   0  0  0  0  0  0  0  0  0  0  0  0
   -0.6746   -5.4455    1.9046 N   0  0  0  0  0  0  0  0  0  0  0  0
   -1.1981   -6.2143    2.8876 C   0  0  0  0  0  0  0  0  0  0  0  0
   -0.5628   -6.3775    3.9631 O   0  0  0  0  0  0  0  0  0  0  0  0
   -2.4405   -6.8128    2.6924 C   0  0  0  0  0  0  0  0  0  0  0  0
   -2.9602   -7.5290    3.5908 O   0  0  0  0  0  0  0  0  0  0  0  0
   -3.0887   -6.6127    1.5144 N   0  0  0  0  0  0  0  0  0  0  0  0
   -2.5537   -5.8625    0.5405 N   0  0  0  0  0  0  0  0  0  0  0  0
   -3.3019   -5.6694   -0.7066 C   0  0  0  0  0  0  0  0  0  0  0  0
   -0.8177   -1.1678   -1.8349 C   0  0  0  0  0  0  0  0  0  0  0  0
   -0.0044   -0.1177   -2.3463 N   0  0  0  0  0  0  0  0  0  0  0  0
   -0.2584    1.2760   -2.7743 C   0  0  0  0  0  0  0  0  0  0  0  0
   -1.2567    1.9058   -3.2110 O   0  0  0  0  0  0  0  0  0  0  0  0
    1.1504    1.6378   -2.4076 C   0  0  1  0  0  0  0  0  0  0  0  0
    1.1990    2.5634   -1.2713 N   0  0  0  0  0  0  0  0  0  0  0  0
    2.4346    3.1622   -0.8505 C   0  0  0  0  0  0  0  0  0  0  0  0
    3.5218    2.7799   -1.3632 O   0  0  0  0  0  0  0  0  0  0  0  0
    2.4427    4.2527    0.1558 C   0  0  0  0  0  0  0  0  0  0  0  0
    3.2469    5.2663    0.0316 N   0  0  0  0  0  0  0  0  0  0  0  0
    4.1187    5.3982   -1.0270 O   0  0  0  0  0  0  0  0  0  0  0  0
    4.9750    6.5244   -1.1134 C   0  0  0  0  0  0  0  0  0  0  0  0
    1.5258    4.2304    1.3135 C   0  0  0  0  0  0  0  0  0  0  0  0
    0.9789    3.0639    1.8518 C   0  0  0  0  0  0  0  0  0  0  0  0
    0.0304    3.4865    3.1758 S   0  0  0  0  0  0  0  0  0  0  0  0
    0.3643    5.1231    3.0109 C   0  0  0  0  0  0  0  0  0  0  0  0
   -0.1452    6.1414    3.8672 N   0  0  0  0  0  0  0  0  0  0  0  0
    1.1872    5.3736    1.9720 N   0  0  0  0  0  0  0  0  0  0  0  0
   -1.7129   -1.8736   -2.7813 C   0  0  0  0  0  0  0  0  0  0  0  0
   -2.7462   -2.6938   -2.3431 O   0  0  0  0  0  0  0  0  0  0  0  0
   -1.5565   -1.6981   -4.0194 O   0  0  0  0  0  0  0  0  0  0  0  0
    2.0489   -0.2543   -2.7901 H   0  0  0  0  0  0  0  0  0  0  0  0
   -0.4046    0.4775    0.3721 H   0  0  0  0  0  0  0  0  0  0  0  0
    0.2474   -0.8530    1.3698 H   0  0  0  0  0  0  0  0  0  0  0  0
   -2.3925   -2.6487    0.0375 H   0  0  0  0  0  0  0  0  0  0  0  0
   -1.0955   -2.6324    1.2446 H   0  0  0  0  0  0  0  0  0  0  0  0
   -4.0239   -7.0618    1.3795 H   0  0  0  0  0  0  0  0  0  0  0  0
   -2.6371   -5.8041   -1.5859 H   0  0  0  0  0  0  0  0  0  0  0  0
   -3.7463   -4.6531   -0.7215 H   0  0  0  0  0  0  0  0  0  0  0  0
   -4.1229   -6.4115   -0.7996 H   0  0  0  0  0  0  0  0  0  0  0  0
    1.7289    1.9964   -3.2873 H   0  0  0  0  0  0  0  0  0  0  0  0
    0.3032    2.9217   -0.8682 H   0  0  0  0  0  0  0  0  0  0  0  0
    5.5939    6.4449   -2.0306 H   0  0  0  0  0  0  0  0  0  0  0  0
    4.3698    7.4539   -1.1612 H   0  0  0  0  0  0  0  0  0  0  0  0
    5.6411    6.5590   -0.2259 H   0  0  0  0  0  0  0  0  0  0  0  0
    1.1548    2.0570    1.5057 H   0  0  0  0  0  0  0  0  0  0  0  0
    0.1095    7.1408    3.7058 H   0  0  0  0  0  0  0  0  0  0  0  0
   -0.7765    5.8956    4.6613 H   0  0  0  0  0  0  0  0  0  0  0  0
   -3.3553   -3.1625   -3.0030 H   0  0  0  0  0  0  0  0  0  0  0  0
  1  2  1  0
  2  3  1  0
  3  4  1  0
  4  5  1  0
  5  6  1  0
  6  7  1  0
  7  8  2  0
  8  9  1  0
  9 10  2  0
  9 11  1  0
 11 12  2  0
 11 13  1  0
 13 14  1  0
 14 15  1  0
  4 16  2  0
 16 17  1  0
 17 18  1  0
 18 19  2  0
 18 20  1  0
 20 21  1  0
 21 22  1  0
 22 23  2  0
 22 24  1  0
 24 25  2  0
 25 26  1  0
 26 27  1  0
 24 28  1  0
 28 29  2  0
 29 30  1  0
 30 31  1  0
 31 32  1  0
 31 33  2  0
 16 34  1  0
 34 35  1  0
 34 36  2  0
 17  1  1  0
 33 28  1  0
 20  1  1  0
 14  7  1  0
  1 37  1  6
  3 38  1  0
  3 39  1  0
  5 40  1  0
  5 41  1  0
 13 42  1  0
 15 43  1  0
 15 44  1  0
 15 45  1  0
 20 46  1  6
 21 47  1  0
 27 48  1  0
 27 49  1  0
 27 50  1  0
 29 51  1  0
 32 52  1  0
 32 53  1  0
 35 54  1  0
M  END
$$$$
