
     RDKit          3D

 24 24  0  0  0  0  0  0  0  0999 V2000
   -1.6859   -0.4726   -0.2951 C   0  0  1  0  0  0  0  0  0  0  0  0
   -2.2268   -0.6382    0.9907 O   0  0  0  0  0  0  0  0  0  0  0  0
   -2.1278    0.8785   -0.8719 C   0  0  0  0  0  0  0  0  0  0  0  0
   -3.5767    0.9077   -1.0525 N   0  0  0  0  0  0  0  0  0  0  0  0
   -0.1748   -0.5469   -0.2406 C   0  0  0  0  0  0  0  0  0  0  0  0
    0.5295   -1.2939   -1.1981 C   0  0  0  0  0  0  0  0  0  0  0  0
    1.9236   -1.3568   -1.1571 C   0  0  0  0  0  0  0  0  0  0  0  0
    2.6303   -0.6620   -0.1730 C   0  0  0  0  0  0  0  0  0  0  0  0
    1.9478    0.1245    0.7707 C   0  0  0  0  0  0  0  0  0  0  0  0
    0.5422    0.1611    0.7411 C   0  0  0  0  0  0  0  0  0  0  0  0
    2.7054    0.8425    1.8593 C   0  0  0  0  0  0  0  0  0  0  0  0
    2.0443    2.0006    2.2306 F   0  0  0  0  0  0  0  0  0  0  0  0
    2.8148    0.0136    2.9601 F   0  0  0  0  0  0  0  0  0  0  0  0
    3.9743    1.1890    1.4280 F   0  0  0  0  0  0  0  0  0  0  0  0
   -2.0818   -1.2746   -0.9623 H   0  0  0  0  0  0  0  0  0  0  0  0
   -2.1151   -1.5966    1.2260 H   0  0  0  0  0  0  0  0  0  0  0  0
   -1.8140    1.7079   -0.1983 H   0  0  0  0  0  0  0  0  0  0  0  0
   -1.6393    1.0300   -1.8604 H   0  0  0  0  0  0  0  0  0  0  0  0
   -4.0245    0.9754   -0.1096 H   0  0  0  0  0  0  0  0  0  0  0  0
   -3.8165    1.7925   -1.5558 H   0  0  0  0  0  0  0  0  0  0  0  0
   -0.0001   -1.8345   -1.9728 H   0  0  0  0  0  0  0  0  0  0  0  0
    2.4585   -1.9485   -1.8889 H   0  0  0  0  0  0  0  0  0  0  0  0
    3.7101   -0.7384   -0.1513 H   0  0  0  0  0  0  0  0  0  0  0  0
    0.0025    0.7396    1.4811 H   0  0  0  0  0  0  0  0  0  0  0  0
  1  2  1  0
  1  3  1  0
  3  4  1  0
  1  5  1  0
  5  6  2  0
  6  7  1  0
  7  8  2  0
  8  9  1  0
  9 10  2  0
  9 11  1  0
 11 12  1  0
 11 13  1  0
 11 14  1  0
 10  5  1  0
  1 15  1  6
  2 16  1  0
  3 17  1  0
  3 18  1  0
  4 19  1  0
  4 20  1  0
  6 21  1  0
  7 22  1  0
  8 23  1  0
 10 24  1  0
M  END
$$$$
