
     RDKit          3D

 51 54  0  0  0  0  0  0  0  0999 V2000
   -0.8605   -0.1852    0.6921 C   0  0  2  0  0  0  0  0  0  0  0  0
   -1.9454   -0.9009    1.4762 C   0  0  0  0  0  0  0  0  0  0  0  0
   -3.2582   -0.3514    0.8985 C   0  0  0  0  0  0  0  0  0  0  0  0
   -2.9185    0.4807   -0.3806 C   0  0  1  0  0  0  0  0  0  0  0  0
   -3.7981    0.1176   -1.4199 O   0  0  0  0  0  0  0  0  0  0  0  0
   -3.0813    2.0098   -0.0742 C   0  0  0  0  0  0  0  0  0  0  0  0
   -4.5410    2.4508    0.0933 C   0  0  0  0  0  0  0  0  0  0  0  0
   -1.4353    0.0643   -0.7132 C   0  0  2  0  0  0  0  0  0  0  0  0
   -1.3506   -1.1533   -1.7204 C   0  0  0  0  0  0  0  0  0  0  0  0
   -1.9911   -2.4856   -1.3236 C   0  0  0  0  0  0  0  0  0  0  0  0
   -0.5592    1.1294   -1.3469 C   0  0  0  0  0  0  0  0  0  0  0  0
    0.7740    1.1300   -1.1525 C   0  0  0  0  0  0  0  0  0  0  0  0
    1.4431    0.2156   -0.1547 C   0  0  0  0  0  0  0  0  0  0  0  0
    2.7931    0.2208    0.0379 C   0  0  0  0  0  0  0  0  0  0  0  0
    3.7107    1.0965   -0.8099 C   0  0  0  0  0  0  0  0  0  0  0  0
    5.1296    1.2397   -0.2453 C   0  0  0  0  0  0  0  0  0  0  0  0
    5.6376   -0.0572    0.2930 C   0  0  0  0  0  0  0  0  0  0  0  0
    6.8528   -0.3655    0.1723 O   0  0  0  0  0  0  0  0  0  0  0  0
    4.7357   -0.9103    1.0684 C   0  0  0  0  0  0  0  0  0  0  0  0
    3.4079   -0.7340    1.0218 C   0  0  0  0  0  0  0  0  0  0  0  0
    2.5409   -1.5828    1.9188 C   0  0  0  0  0  0  0  0  0  0  0  0
    1.1357   -0.9997    2.0380 C   0  0  0  0  0  0  0  0  0  0  0  0
    0.5628   -0.7646    0.6347 C   0  0  1  0  0  0  0  0  0  0  0  0
   -0.7564    0.8041    1.2035 H   0  0  0  0  0  0  0  0  0  0  0  0
   -1.8852   -2.0004    1.3693 H   0  0  0  0  0  0  0  0  0  0  0  0
   -1.8640   -0.6639    2.5602 H   0  0  0  0  0  0  0  0  0  0  0  0
   -3.9494   -1.1895    0.6684 H   0  0  0  0  0  0  0  0  0  0  0  0
   -3.7578    0.2568    1.6809 H   0  0  0  0  0  0  0  0  0  0  0  0
   -3.5683    0.6746   -2.2095 H   0  0  0  0  0  0  0  0  0  0  0  0
   -2.5188    2.2849    0.8435 H   0  0  0  0  0  0  0  0  0  0  0  0
   -2.6719    2.6169   -0.9063 H   0  0  0  0  0  0  0  0  0  0  0  0
   -4.5717    3.5397    0.3089 H   0  0  0  0  0  0  0  0  0  0  0  0
   -5.1138    2.2694   -0.8404 H   0  0  0  0  0  0  0  0  0  0  0  0
   -5.0381    1.9229    0.9311 H   0  0  0  0  0  0  0  0  0  0  0  0
   -0.2905   -1.3710   -1.9763 H   0  0  0  0  0  0  0  0  0  0  0  0
   -1.8072   -0.8447   -2.6861 H   0  0  0  0  0  0  0  0  0  0  0  0
   -1.4105   -2.9856   -0.5249 H   0  0  0  0  0  0  0  0  0  0  0  0
   -3.0504   -2.3671   -1.0324 H   0  0  0  0  0  0  0  0  0  0  0  0
   -1.9700   -3.1656   -2.2015 H   0  0  0  0  0  0  0  0  0  0  0  0
   -0.9700    1.7714   -2.1159 H   0  0  0  0  0  0  0  0  0  0  0  0
    1.3461    1.8283   -1.7442 H   0  0  0  0  0  0  0  0  0  0  0  0
    3.7676    0.6620   -1.8316 H   0  0  0  0  0  0  0  0  0  0  0  0
    3.3068    2.1274   -0.8833 H   0  0  0  0  0  0  0  0  0  0  0  0
    5.8074    1.6172   -1.0417 H   0  0  0  0  0  0  0  0  0  0  0  0
    5.1238    1.9812    0.5830 H   0  0  0  0  0  0  0  0  0  0  0  0
    5.1647   -1.6738    1.7075 H   0  0  0  0  0  0  0  0  0  0  0  0
    2.4840   -2.6116    1.5005 H   0  0  0  0  0  0  0  0  0  0  0  0
    2.9859   -1.6454    2.9364 H   0  0  0  0  0  0  0  0  0  0  0  0
    1.1725   -0.0430    2.6056 H   0  0  0  0  0  0  0  0  0  0  0  0
    0.4986   -1.7166    2.5993 H   0  0  0  0  0  0  0  0  0  0  0  0
    0.5516   -1.7432    0.1109 H   0  0  0  0  0  0  0  0  0  0  0  0
  1  2  1  0
  2  3  1  0
  3  4  1  0
  4  5  1  6
  4  6  1  0
  6  7  1  0
  4  8  1  0
  8  9  1  6
  9 10  1  0
  8 11  1  0
 11 12  2  0
 12 13  1  0
 13 14  2  0
 14 15  1  0
 15 16  1  0
 16 17  1  0
 17 18  2  0
 17 19  1  0
 19 20  2  0
 20 21  1  0
 21 22  1  0
 22 23  1  0
  8  1  1  0
 23 13  1  0
 23  1  1  0
 20 14  1  0
  1 24  1  1
  2 25  1  0
  2 26  1  0
  3 27  1  0
  3 28  1  0
  5 29  1  0
  6 30  1  0
  6 31  1  0
  7 32  1  0
  7 33  1  0
  7 34  1  0
  9 35  1  0
  9 36  1  0
 10 37  1  0
 10 38  1  0
 10 39  1  0
 11 40  1  0
 12 41  1  0
 15 42  1  0
 15 43  1  0
 16 44  1  0
 16 45  1  0
 19 46  1  0
 21 47  1  0
 21 48  1  0
 22 49  1  0
 22 50  1  0
 23 51  1  6
M  END
$$$$
