
     RDKit          3D

 56 57  0  0  0  0  0  0  0  0999 V2000
   -2.1615   -0.4396   -0.0852 C   0  0  2  0  0  0  0  0  0  0  0  0
   -3.2427   -0.7200   -1.1513 C   0  0  0  0  0  0  0  0  0  0  0  0
   -4.2385    0.4090   -1.2320 C   0  0  0  0  0  0  0  0  0  0  0  0
   -5.3030    0.4799   -0.3178 C   0  0  0  0  0  0  0  0  0  0  0  0
   -6.2061    1.5463   -0.3695 C   0  0  0  0  0  0  0  0  0  0  0  0
   -6.0487    2.5518   -1.3274 C   0  0  0  0  0  0  0  0  0  0  0  0
   -4.9865    2.4939   -2.2338 C   0  0  0  0  0  0  0  0  0  0  0  0
   -4.0817    1.4290   -2.1862 C   0  0  0  0  0  0  0  0  0  0  0  0
   -1.4323    0.7976   -0.3917 N   0  0  0  0  0  0  0  0  0  0  0  0
   -0.5430    0.9541   -1.5115 C   0  0  0  0  0  0  0  0  0  0  0  0
   -0.3285   -0.0130   -2.2915 O   0  0  0  0  0  0  0  0  0  0  0  0
    0.1437    2.2404   -1.7454 C   0  0  0  0  0  0  0  0  0  0  0  0
   -0.1909    3.2591   -1.0832 O   0  0  0  0  0  0  0  0  0  0  0  0
    1.2751    2.3448   -2.7280 C   0  0  0  0  0  0  0  0  0  0  0  0
    2.4487    1.5632   -2.2243 C   0  0  0  0  0  0  0  0  0  0  0  0
    2.8080    0.5159   -2.8275 O   0  0  0  0  0  0  0  0  0  0  0  0
    3.1140    1.9683   -1.0212 N   0  0  0  0  0  0  0  0  0  0  0  0
    3.8115    1.0123   -0.1656 C   0  0  0  0  0  0  0  0  0  0  0  0
    2.7992    0.0825    0.5094 C   0  0  0  0  0  0  0  0  0  0  0  0
    3.4793   -0.8612    1.4554 C   0  0  0  0  0  0  0  0  0  0  0  0
    3.4944   -0.5846    2.7889 N   0  0  0  0  0  0  0  0  0  0  0  0
    4.0972   -1.4101    3.6857 C   0  0  0  0  0  0  0  0  0  0  0  0
    4.7277   -2.5771    3.2484 C   0  0  0  0  0  0  0  0  0  0  0  0
    4.7345   -2.8798    1.8857 C   0  0  0  0  0  0  0  0  0  0  0  0
    4.1121   -2.0191    0.9797 C   0  0  0  0  0  0  0  0  0  0  0  0
   -1.1983   -1.6006    0.0899 C   0  0  0  0  0  0  0  0  0  0  0  0
   -1.1003   -2.4614   -0.8290 O   0  0  0  0  0  0  0  0  0  0  0  0
   -0.3625   -1.7240    1.2634 N   0  0  0  0  0  0  0  0  0  0  0  0
    0.5585   -2.8616    1.3610 C   0  0  0  0  0  0  0  0  0  0  0  0
   -0.4318   -0.7439    2.3533 C   0  0  0  0  0  0  0  0  0  0  0  0
   -2.6981   -0.3025    0.8787 H   0  0  0  0  0  0  0  0  0  0  0  0
   -2.7775   -0.8848   -2.1471 H   0  0  0  0  0  0  0  0  0  0  0  0
   -3.7799   -1.6587   -0.8906 H   0  0  0  0  0  0  0  0  0  0  0  0
   -5.4304   -0.2882    0.4350 H   0  0  0  0  0  0  0  0  0  0  0  0
   -7.0259    1.5950    0.3354 H   0  0  0  0  0  0  0  0  0  0  0  0
   -6.7475    3.3774   -1.3649 H   0  0  0  0  0  0  0  0  0  0  0  0
   -4.8623    3.2760   -2.9715 H   0  0  0  0  0  0  0  0  0  0  0  0
   -3.2586    1.4014   -2.8894 H   0  0  0  0  0  0  0  0  0  0  0  0
   -1.5712    1.6066    0.2550 H   0  0  0  0  0  0  0  0  0  0  0  0
    0.9467    1.9588   -3.7174 H   0  0  0  0  0  0  0  0  0  0  0  0
    1.5739    3.4071   -2.8596 H   0  0  0  0  0  0  0  0  0  0  0  0
    2.9837    2.9455   -0.6743 H   0  0  0  0  0  0  0  0  0  0  0  0
    4.3764    1.5684    0.6145 H   0  0  0  0  0  0  0  0  0  0  0  0
    4.5393    0.4272   -0.7690 H   0  0  0  0  0  0  0  0  0  0  0  0
    2.0581    0.6951    1.0669 H   0  0  0  0  0  0  0  0  0  0  0  0
    2.2430   -0.4984   -0.2581 H   0  0  0  0  0  0  0  0  0  0  0  0
    4.0867   -1.1605    4.7382 H   0  0  0  0  0  0  0  0  0  0  0  0
    5.2079   -3.2383    3.9581 H   0  0  0  0  0  0  0  0  0  0  0  0
    5.2214   -3.7794    1.5323 H   0  0  0  0  0  0  0  0  0  0  0  0
    4.1161   -2.2532   -0.0777 H   0  0  0  0  0  0  0  0  0  0  0  0
    1.2566   -2.8542    0.4977 H   0  0  0  0  0  0  0  0  0  0  0  0
    1.1611   -2.8294    2.2928 H   0  0  0  0  0  0  0  0  0  0  0  0
   -0.0180   -3.8105    1.3533 H   0  0  0  0  0  0  0  0  0  0  0  0
   -1.4400   -0.7655    2.8164 H   0  0  0  0  0  0  0  0  0  0  0  0
    0.3125   -0.9598    3.1481 H   0  0  0  0  0  0  0  0  0  0  0  0
   -0.2215    0.2732    1.9654 H   0  0  0  0  0  0  0  0  0  0  0  0
  1  2  1  0
  2  3  1  0
  3  4  2  0
  4  5  1  0
  5  6  2  0
  6  7  1  0
  7  8  2  0
  1  9  1  0
  9 10  1  0
 10 11  2  0
 10 12  1  0
 12 13  2  0
 12 14  1  0
 14 15  1  0
 15 16  2  0
 15 17  1  0
 17 18  1  0
 18 19  1  0
 19 20  1  0
 20 21  2  0
 21 22  1  0
 22 23  2  0
 23 24  1  0
 24 25  2  0
  1 26  1  0
 26 27  2  0
 26 28  1  0
 28 29  1  0
 28 30  1  0
  8  3  1  0
 25 20  1  0
  1 31  1  1
  2 32  1  0
  2 33  1  0
  4 34  1  0
  5 35  1  0
  6 36  1  0
  7 37  1  0
  8 38  1  0
  9 39  1  0
 14 40  1  0
 14 41  1  0
 17 42  1  0
 18 43  1  0
 18 44  1  0
 19 45  1  0
 19 46  1  0
 22 47  1  0
 23 48  1  0
 24 49  1  0
 25 50  1  0
 29 51  1  0
 29 52  1  0
 29 53  1  0
 30 54  1  0
 30 55  1  0
 30 56  1  0
M  END
$$$$
