
     RDKit          3D

 51 53  0  0  0  0  0  0  0  0999 V2000
   -4.2850    2.0764    1.5708 C   0  0  0  0  0  0  0  0  0  0  0  0
   -3.9334    1.5394    0.1645 C   0  0  0  0  0  0  0  0  0  0  0  0
   -4.4026    2.5708   -0.8919 C   0  0  0  0  0  0  0  0  0  0  0  0
   -4.7102    0.2286   -0.1134 C   0  0  0  0  0  0  0  0  0  0  0  0
   -4.1163   -0.9618    0.6295 C   0  0  0  0  0  0  0  0  0  0  0  0
   -2.6609   -1.2616    0.1908 C   0  0  0  0  0  0  0  0  0  0  0  0
   -2.0643   -2.2241    1.2485 C   0  0  0  0  0  0  0  0  0  0  0  0
   -2.6585   -1.9720   -1.1821 C   0  0  0  0  0  0  0  0  0  0  0  0
   -1.8237    0.0237    0.0894 C   0  0  0  0  0  0  0  0  0  0  0  0
   -2.4150    1.3231    0.0762 C   0  0  0  0  0  0  0  0  0  0  0  0
   -1.5643    2.4503    0.0595 C   0  0  0  0  0  0  0  0  0  0  0  0
   -0.1837    2.3138   -0.0492 C   0  0  0  0  0  0  0  0  0  0  0  0
    0.3957    1.0508   -0.1522 C   0  0  0  0  0  0  0  0  0  0  0  0
    1.8240    0.9364   -0.2777 N   0  0  0  0  0  0  0  0  0  0  0  0
    2.4776   -0.1242   -0.9955 C   0  0  0  0  0  0  0  0  0  0  0  0
    1.8433   -0.7625   -1.8801 O   0  0  0  0  0  0  0  0  0  0  0  0
    3.9035   -0.4463   -0.7446 C   0  0  0  0  0  0  0  0  0  0  0  0
    4.6415   -1.1760   -1.6927 C   0  0  0  0  0  0  0  0  0  0  0  0
    5.9841   -1.4892   -1.4617 C   0  0  0  0  0  0  0  0  0  0  0  0
    6.6166   -1.0854   -0.2737 C   0  0  0  0  0  0  0  0  0  0  0  0
    5.8774   -0.3657    0.6791 C   0  0  0  0  0  0  0  0  0  0  0  0
    4.5350   -0.0515    0.4478 C   0  0  0  0  0  0  0  0  0  0  0  0
    8.0374   -1.4149   -0.0245 C   0  0  0  0  0  0  0  0  0  0  0  0
    8.6549   -1.0112    1.1567 O   0  0  0  0  0  0  0  0  0  0  0  0
    8.7020   -2.0632   -0.8777 O   0  0  0  0  0  0  0  0  0  0  0  0
   -0.4224   -0.0839   -0.0668 C   0  0  0  0  0  0  0  0  0  0  0  0
   -3.8967    1.4066    2.3660 H   0  0  0  0  0  0  0  0  0  0  0  0
   -5.3852    2.1730    1.6939 H   0  0  0  0  0  0  0  0  0  0  0  0
   -3.8367    3.0797    1.7343 H   0  0  0  0  0  0  0  0  0  0  0  0
   -4.0370    2.2861   -1.9023 H   0  0  0  0  0  0  0  0  0  0  0  0
   -5.5130    2.6193   -0.9241 H   0  0  0  0  0  0  0  0  0  0  0  0
   -4.0440    3.5960   -0.6657 H   0  0  0  0  0  0  0  0  0  0  0  0
   -4.7196    0.0062   -1.2022 H   0  0  0  0  0  0  0  0  0  0  0  0
   -5.7753    0.3423    0.1876 H   0  0  0  0  0  0  0  0  0  0  0  0
   -4.1600   -0.7634    1.7220 H   0  0  0  0  0  0  0  0  0  0  0  0
   -4.7616   -1.8509    0.4527 H   0  0  0  0  0  0  0  0  0  0  0  0
   -2.7516   -3.0791    1.4303 H   0  0  0  0  0  0  0  0  0  0  0  0
   -1.9070   -1.6930    2.2123 H   0  0  0  0  0  0  0  0  0  0  0  0
   -1.0961   -2.6578    0.9246 H   0  0  0  0  0  0  0  0  0  0  0  0
   -1.6334   -2.3025   -1.4547 H   0  0  0  0  0  0  0  0  0  0  0  0
   -3.0133   -1.2940   -1.9860 H   0  0  0  0  0  0  0  0  0  0  0  0
   -3.3105   -2.8718   -1.1635 H   0  0  0  0  0  0  0  0  0  0  0  0
   -1.9640    3.4517    0.1324 H   0  0  0  0  0  0  0  0  0  0  0  0
    0.4369    3.2010   -0.0734 H   0  0  0  0  0  0  0  0  0  0  0  0
    2.4104    1.7292    0.0681 H   0  0  0  0  0  0  0  0  0  0  0  0
    4.1835   -1.4983   -2.6197 H   0  0  0  0  0  0  0  0  0  0  0  0
    6.5261   -2.0478   -2.2146 H   0  0  0  0  0  0  0  0  0  0  0  0
    6.3340   -0.0481    1.6082 H   0  0  0  0  0  0  0  0  0  0  0  0
    3.9909    0.4838    1.2148 H   0  0  0  0  0  0  0  0  0  0  0  0
    9.6270   -1.2315    1.3372 H   0  0  0  0  0  0  0  0  0  0  0  0
    0.0432   -1.0570   -0.1050 H   0  0  0  0  0  0  0  0  0  0  0  0
  1  2  1  0
  2  3  1  0
  2  4  1  0
  4  5  1  0
  5  6  1  0
  6  7  1  0
  6  8  1  0
  6  9  1  0
  9 10  2  0
 10 11  1  0
 11 12  2  0
 12 13  1  0
 13 14  1  0
 14 15  1  0
 15 16  2  0
 15 17  1  0
 17 18  2  0
 18 19  1  0
 19 20  2  0
 20 21  1  0
 21 22  2  0
 20 23  1  0
 23 24  1  0
 23 25  2  0
 13 26  2  0
 10  2  1  0
 22 17  1  0
 26  9  1  0
  1 27  1  0
  1 28  1  0
  1 29  1  0
  3 30  1  0
  3 31  1  0
  3 32  1  0
  4 33  1  0
  4 34  1  0
  5 35  1  0
  5 36  1  0
  7 37  1  0
  7 38  1  0
  7 39  1  0
  8 40  1  0
  8 41  1  0
  8 42  1  0
 11 43  1  0
 12 44  1  0
 14 45  1  0
 18 46  1  0
 19 47  1  0
 21 48  1  0
 22 49  1  0
 24 50  1  0
 26 51  1  0
M  END
$$$$
