
     RDKit          3D

 50 54  0  0  0  0  0  0  0  0999 V2000
    0.3426    2.1659    2.1942 O   0  0  0  0  0  0  0  0  0  0  0  0
    0.1302    1.1335    1.2763 C   0  0  0  0  0  0  0  0  0  0  0  0
    1.1987    0.6401    0.4970 C   0  0  0  0  0  0  0  0  0  0  0  0
    0.9790   -0.3850   -0.3927 N   0  0  0  0  0  0  0  0  0  0  0  0
    2.0618   -0.8625   -1.2733 C   0  0  0  0  0  0  0  0  0  0  0  0
    3.4139   -0.8470   -0.5548 C   0  0  1  0  0  0  0  0  0  0  0  0
    4.4240   -1.2916   -1.4700 O   0  0  0  0  0  0  0  0  0  0  0  0
    5.7300   -0.7912   -1.1922 C   0  0  2  0  0  0  0  0  0  0  0  0
    6.2005   -1.1354    0.2309 C   0  0  0  0  0  0  0  0  0  0  0  0
    5.8044    0.0818    1.0731 C   0  0  0  0  0  0  0  0  0  0  0  0
    5.0435    0.9862    0.1003 C   0  0  1  0  0  0  0  0  0  0  0  0
    5.7093    0.7220   -1.2247 C   0  0  0  0  0  0  0  0  0  0  0  0
    3.6598    0.5071   -0.0127 N   0  0  0  0  0  0  0  0  0  0  0  0
    2.5724    1.1914    0.6305 C   0  0  0  0  0  0  0  0  0  0  0  0
    2.7881    2.2469    1.2863 O   0  0  0  0  0  0  0  0  0  0  0  0
   -0.2690   -0.9182   -0.5527 C   0  0  0  0  0  0  0  0  0  0  0  0
   -1.3536   -0.4723    0.2129 C   0  0  0  0  0  0  0  0  0  0  0  0
   -2.6863   -1.0917    0.0174 C   0  0  0  0  0  0  0  0  0  0  0  0
   -3.0289   -1.4711   -1.1357 O   0  0  0  0  0  0  0  0  0  0  0  0
   -3.5754   -1.2927    1.1268 N   0  0  0  0  0  0  0  0  0  0  0  0
   -4.9819   -1.6448    0.9477 C   0  0  0  0  0  0  0  0  0  0  0  0
   -5.7478   -0.4647    0.4051 C   0  0  0  0  0  0  0  0  0  0  0  0
   -6.2215   -0.4569   -0.9216 C   0  0  0  0  0  0  0  0  0  0  0  0
   -6.0206   -1.5219   -1.7385 F   0  0  0  0  0  0  0  0  0  0  0  0
   -6.9083    0.6569   -1.4159 C   0  0  0  0  0  0  0  0  0  0  0  0
   -7.1250    1.7691   -0.5989 C   0  0  0  0  0  0  0  0  0  0  0  0
   -7.7902    2.8467   -1.0832 F   0  0  0  0  0  0  0  0  0  0  0  0
   -6.6544    1.7719    0.7162 C   0  0  0  0  0  0  0  0  0  0  0  0
   -5.9670    0.6628    1.2190 C   0  0  0  0  0  0  0  0  0  0  0  0
   -5.5118    0.6891    2.4976 F   0  0  0  0  0  0  0  0  0  0  0  0
   -1.1486    0.5776    1.1232 C   0  0  0  0  0  0  0  0  0  0  0  0
   -2.1143    1.0438    1.7872 O   0  0  0  0  0  0  0  0  0  0  0  0
   -0.3995    2.5422    2.7722 H   0  0  0  0  0  0  0  0  0  0  0  0
    2.1124   -0.2088   -2.1714 H   0  0  0  0  0  0  0  0  0  0  0  0
    1.8635   -1.9031   -1.6157 H   0  0  0  0  0  0  0  0  0  0  0  0
    3.3563   -1.5663    0.2920 H   0  0  0  0  0  0  0  0  0  0  0  0
    6.4401   -1.1881   -1.9491 H   0  0  0  0  0  0  0  0  0  0  0  0
    7.3052   -1.2639    0.2467 H   0  0  0  0  0  0  0  0  0  0  0  0
    5.7255   -2.0681    0.6047 H   0  0  0  0  0  0  0  0  0  0  0  0
    5.1731   -0.2093    1.9412 H   0  0  0  0  0  0  0  0  0  0  0  0
    6.7135    0.6050    1.4436 H   0  0  0  0  0  0  0  0  0  0  0  0
    5.1030    2.0606    0.3792 H   0  0  0  0  0  0  0  0  0  0  0  0
    6.7410    1.1402   -1.2479 H   0  0  0  0  0  0  0  0  0  0  0  0
    5.1191    1.1168   -2.0813 H   0  0  0  0  0  0  0  0  0  0  0  0
   -0.4277   -1.7104   -1.2765 H   0  0  0  0  0  0  0  0  0  0  0  0
   -3.2060   -1.2172    2.1012 H   0  0  0  0  0  0  0  0  0  0  0  0
   -5.0648   -2.5346    0.2876 H   0  0  0  0  0  0  0  0  0  0  0  0
   -5.4162   -1.9346    1.9291 H   0  0  0  0  0  0  0  0  0  0  0  0
   -7.2718    0.6581   -2.4356 H   0  0  0  0  0  0  0  0  0  0  0  0
   -6.8205    2.6358    1.3470 H   0  0  0  0  0  0  0  0  0  0  0  0
  1  2  1  0
  2  3  2  0
  3  4  1  0
  4  5  1  0
  5  6  1  0
  6  7  1  0
  7  8  1  0
  8  9  1  0
  9 10  1  0
 10 11  1  0
 11 12  1  0
 11 13  1  0
 13 14  1  0
 14 15  2  0
  4 16  1  0
 16 17  2  0
 17 18  1  0
 18 19  2  0
 18 20  1  0
 20 21  1  0
 21 22  1  0
 22 23  2  0
 23 24  1  0
 23 25  1  0
 25 26  2  0
 26 27  1  0
 26 28  1  0
 28 29  2  0
 29 30  1  0
 17 31  1  0
 31 32  2  0
 31  2  1  0
 14  3  1  0
 29 22  1  0
 13  6  1  0
 12  8  1  0
  1 33  1  0
  5 34  1  0
  5 35  1  0
  6 36  1  1
  8 37  1  6
  9 38  1  0
  9 39  1  0
 10 40  1  0
 10 41  1  0
 11 42  1  1
 12 43  1  0
 12 44  1  0
 16 45  1  0
 20 46  1  0
 21 47  1  0
 21 48  1  0
 25 49  1  0
 28 50  1  0
M  END
$$$$
