
     RDKit          3D

 29 31  0  0  0  0  0  0  0  0999 V2000
   -5.5910   -1.2591   -0.2658 O   0  0  0  0  0  0  0  0  0  0  0  0
   -4.1783   -1.6272   -0.3292 B   0  0  0  0  0  0  0  0  0  0  0  0
   -3.6422   -2.7613    0.4480 O   0  0  0  0  0  0  0  0  0  0  0  0
   -2.3455   -2.3448    0.8600 C   0  0  0  0  0  0  0  0  0  0  0  0
   -2.0315   -1.0455    0.1880 C   0  0  0  0  0  0  0  0  0  0  0  0
   -3.0941   -0.5749   -0.5160 C   0  0  0  0  0  0  0  0  0  0  0  0
   -3.0867    0.6730   -1.1341 C   0  0  0  0  0  0  0  0  0  0  0  0
   -1.9135    1.4401   -1.0568 C   0  0  0  0  0  0  0  0  0  0  0  0
   -0.7866    0.9565   -0.3589 C   0  0  0  0  0  0  0  0  0  0  0  0
    0.3579    1.7642   -0.2882 O   0  0  0  0  0  0  0  0  0  0  0  0
    1.6756    1.2979   -0.1713 C   0  0  0  0  0  0  0  0  0  0  0  0
    2.0879    0.0793   -0.7415 C   0  0  0  0  0  0  0  0  0  0  0  0
    3.4148   -0.3438   -0.6168 C   0  0  0  0  0  0  0  0  0  0  0  0
    4.3438    0.4504    0.0667 C   0  0  0  0  0  0  0  0  0  0  0  0
    3.9419    1.6733    0.6180 C   0  0  0  0  0  0  0  0  0  0  0  0
    2.6148    2.0961    0.4928 C   0  0  0  0  0  0  0  0  0  0  0  0
    5.7100    0.0153    0.1942 C   0  0  0  0  0  0  0  0  0  0  0  0
    6.8084   -0.3345    0.2967 N   0  0  0  0  0  0  0  0  0  0  0  0
   -0.8571   -0.2963    0.2939 C   0  0  0  0  0  0  0  0  0  0  0  0
   -5.7065   -0.8447    0.6268 H   0  0  0  0  0  0  0  0  0  0  0  0
   -2.3285   -2.2144    1.9633 H   0  0  0  0  0  0  0  0  0  0  0  0
   -1.5978   -3.1119    0.5667 H   0  0  0  0  0  0  0  0  0  0  0  0
   -3.9591    1.0422   -1.6577 H   0  0  0  0  0  0  0  0  0  0  0  0
   -1.8770    2.4105   -1.5351 H   0  0  0  0  0  0  0  0  0  0  0  0
    1.3909   -0.5332   -1.2980 H   0  0  0  0  0  0  0  0  0  0  0  0
    3.7175   -1.2855   -1.0589 H   0  0  0  0  0  0  0  0  0  0  0  0
    4.6535    2.2997    1.1425 H   0  0  0  0  0  0  0  0  0  0  0  0
    2.3126    3.0439    0.9200 H   0  0  0  0  0  0  0  0  0  0  0  0
   -0.0340   -0.6654    0.8915 H   0  0  0  0  0  0  0  0  0  0  0  0
  1  2  1  0
  2  3  1  0
  3  4  1  0
  4  5  1  0
  5  6  2  0
  6  7  1  0
  7  8  2  0
  8  9  1  0
  9 10  1  0
 10 11  1  0
 11 12  2  0
 12 13  1  0
 13 14  2  0
 14 15  1  0
 15 16  2  0
 14 17  1  0
 17 18  3  0
  9 19  2  0
  6  2  1  0
 16 11  1  0
 19  5  1  0
  1 20  1  0
  4 21  1  0
  4 22  1  0
  7 23  1  0
  8 24  1  0
 12 25  1  0
 13 26  1  0
 15 27  1  0
 16 28  1  0
 19 29  1  0
M  END
$$$$
