
     RDKit          3D

 30 30  0  0  0  0  0  0  0  0999 V2000
   -1.4472    2.4017    0.9872 C   0  0  0  0  0  0  0  0  0  0  0  0
   -1.8624    1.0967    0.2936 C   0  0  0  0  0  0  0  0  0  0  0  0
   -0.6664    0.2861   -0.3061 C   0  0  0  0  0  0  0  0  0  0  0  0
   -1.1894   -0.9620   -1.0773 C   0  0  0  0  0  0  0  0  0  0  0  0
   -1.9263   -2.0031   -0.2265 C   0  0  0  0  0  0  0  0  0  0  0  0
    0.0708    1.1548   -1.3175 C   0  0  0  0  0  0  0  0  0  0  0  0
   -0.5710    1.9155   -2.0927 O   0  0  0  0  0  0  0  0  0  0  0  0
    1.4907    1.0725   -1.4459 N   0  0  0  0  0  0  0  0  0  0  0  0
    2.2177   -0.0260   -0.8309 C   0  0  0  0  0  0  0  0  0  0  0  0
    1.8028   -0.1805    0.6382 C   0  0  0  0  0  0  0  0  0  0  0  0
    2.3963   -1.4754    1.2101 C   0  0  0  0  0  0  0  0  0  0  0  0
    0.2915   -0.1510    0.8124 C   0  0  0  0  0  0  0  0  0  0  0  0
   -0.1703   -0.4690    1.9006 O   0  0  0  0  0  0  0  0  0  0  0  0
   -2.3472    2.8934    1.4129 H   0  0  0  0  0  0  0  0  0  0  0  0
   -0.7369    2.2019    1.8160 H   0  0  0  0  0  0  0  0  0  0  0  0
   -0.9793    3.1055    0.2685 H   0  0  0  0  0  0  0  0  0  0  0  0
   -2.4074    0.4850    1.0428 H   0  0  0  0  0  0  0  0  0  0  0  0
   -2.5930    1.3431   -0.5081 H   0  0  0  0  0  0  0  0  0  0  0  0
   -0.3373   -1.4774   -1.5714 H   0  0  0  0  0  0  0  0  0  0  0  0
   -1.8775   -0.6341   -1.8880 H   0  0  0  0  0  0  0  0  0  0  0  0
   -2.2281   -2.8524   -0.8751 H   0  0  0  0  0  0  0  0  0  0  0  0
   -1.2691   -2.4055    0.5712 H   0  0  0  0  0  0  0  0  0  0  0  0
   -2.8478   -1.5791    0.2204 H   0  0  0  0  0  0  0  0  0  0  0  0
    2.0036    1.7737   -2.0263 H   0  0  0  0  0  0  0  0  0  0  0  0
    2.0006   -0.9595   -1.3939 H   0  0  0  0  0  0  0  0  0  0  0  0
    3.3104    0.1680   -0.8984 H   0  0  0  0  0  0  0  0  0  0  0  0
    2.2241    0.6746    1.2113 H   0  0  0  0  0  0  0  0  0  0  0  0
    2.1970   -1.5435    2.3009 H   0  0  0  0  0  0  0  0  0  0  0  0
    1.9538   -2.3629    0.7079 H   0  0  0  0  0  0  0  0  0  0  0  0
    3.4976   -1.4909    1.0640 H   0  0  0  0  0  0  0  0  0  0  0  0
  1  2  1  0
  2  3  1  0
  3  4  1  0
  4  5  1  0
  3  6  1  0
  6  7  2  0
  6  8  1  0
  8  9  1  0
  9 10  1  0
 10 11  1  0
 10 12  1  0
 12 13  2  0
 12  3  1  0
  1 14  1  0
  1 15  1  0
  1 16  1  0
  2 17  1  0
  2 18  1  0
  4 19  1  0
  4 20  1  0
  5 21  1  0
  5 22  1  0
  5 23  1  0
  8 24  1  0
  9 25  1  0
  9 26  1  0
 10 27  1  0
 11 28  1  0
 11 29  1  0
 11 30  1  0
M  END
$$$$
