
     RDKit          3D

 23 23  0  0  0  0  0  0  0  0999 V2000
    1.5795   -1.0387   -0.4346 C   0  0  1  0  0  0  0  0  0  0  0  0
    1.8770   -1.3546   -1.7725 O   0  0  0  0  0  0  0  0  0  0  0  0
    2.5771   -0.0113    0.1284 C   0  0  0  0  0  0  0  0  0  0  0  0
    2.3406    0.1915    1.5512 N   0  0  0  0  0  0  0  0  0  0  0  0
    3.0376    0.9739    2.1971 N   0  0  0  0  0  4  0  0  0  0  0  0
    3.7339    1.7557    2.8428 N   0  0  0  0  0  2  0  0  0  0  0  0
    0.1421   -0.5687   -0.3043 C   0  0  0  0  0  0  0  0  0  0  0  0
   -0.3133    0.5690   -0.9936 C   0  0  0  0  0  0  0  0  0  0  0  0
   -1.6370    0.9975   -0.8604 C   0  0  0  0  0  0  0  0  0  0  0  0
   -2.5342    0.2997   -0.0348 C   0  0  0  0  0  0  0  0  0  0  0  0
   -2.0779   -0.8366    0.6563 C   0  0  0  0  0  0  0  0  0  0  0  0
   -0.7542   -1.2650    0.5233 C   0  0  0  0  0  0  0  0  0  0  0  0
   -3.8966    0.7444    0.1000 N   0  0  0  0  0  4  0  0  0  0  0  0
   -4.3393    1.8573   -0.5777 O   0  0  0  0  0  1  0  0  0  0  0  0
   -4.6982    0.1284    0.8329 O   0  0  0  0  0  0  0  0  0  0  0  0
    1.7147   -1.9748    0.1510 H   0  0  0  0  0  0  0  0  0  0  0  0
    1.9311   -0.5070   -2.2860 H   0  0  0  0  0  0  0  0  0  0  0  0
    2.4829    0.9589   -0.4063 H   0  0  0  0  0  0  0  0  0  0  0  0
    3.6118   -0.3910   -0.0189 H   0  0  0  0  0  0  0  0  0  0  0  0
    0.3547    1.1309   -1.6333 H   0  0  0  0  0  0  0  0  0  0  0  0
   -1.9573    1.8770   -1.4038 H   0  0  0  0  0  0  0  0  0  0  0  0
   -2.7445   -1.3946    1.3013 H   0  0  0  0  0  0  0  0  0  0  0  0
   -0.4302   -2.1419    1.0699 H   0  0  0  0  0  0  0  0  0  0  0  0
  1  2  1  0
  1  3  1  0
  3  4  1  0
  4  5  2  0
  5  6  2  0
  1  7  1  0
  7  8  2  0
  8  9  1  0
  9 10  2  0
 10 11  1  0
 11 12  2  0
 10 13  1  0
 13 14  1  0
 13 15  2  0
 12  7  1  0
  1 16  1  1
  2 17  1  0
  3 18  1  0
  3 19  1  0
  8 20  1  0
  9 21  1  0
 11 22  1  0
 12 23  1  0
M  CHG  4   5   1   6  -1  13   1  14  -1
M  END
$$$$
