
     RDKit          3D

106109  0  0  0  0  0  0  0  0999 V2000
    2.4949    0.3020   -0.4218 C   0  0  2  0  0  0  0  0  0  0  0  0
    3.9066    0.2221   -1.0241 C   0  0  0  0  0  0  0  0  0  0  0  0
    3.8675   -0.5381   -2.3532 C   0  0  0  0  0  0  0  0  0  0  0  0
    2.7869   -0.0282   -3.2845 C   0  0  0  0  0  0  0  0  0  0  0  0
    2.8585   -0.3817   -4.7446 C   0  0  0  0  0  0  0  0  0  0  0  0
    1.7060    0.6374   -2.8242 C   0  0  0  0  0  0  0  0  0  0  0  0
    1.5501    1.0749   -1.3792 C   0  0  1  0  0  0  0  0  0  0  0  0
    0.0925    0.9464   -0.9292 C   0  0  0  0  0  0  0  0  0  0  0  0
   -0.6042    2.0145   -0.2917 C   0  0  0  0  0  0  0  0  0  0  0  0
   -0.0398    3.2690   -0.0399 O   0  0  0  0  0  0  0  0  0  0  0  0
   -1.9261    1.8326    0.1281 C   0  0  0  0  0  0  0  0  0  0  0  0
   -2.5812    0.6109   -0.0488 C   0  0  0  0  0  0  0  0  0  0  0  0
   -3.9882    0.4238    0.4610 C   0  0  0  0  0  0  0  0  0  0  0  0
   -4.0370    0.2666    1.9911 C   0  0  0  0  0  0  0  0  0  0  0  0
   -3.2581   -0.9473    2.5295 C   0  0  0  0  0  0  0  0  0  0  0  0
   -3.8931   -2.2857    2.1267 C   0  0  0  0  0  0  0  0  0  0  0  0
   -3.1546   -3.4574    2.7673 C   0  0  0  0  0  0  0  0  0  0  0  0
   -1.9012   -0.4475   -0.6560 C   0  0  0  0  0  0  0  0  0  0  0  0
   -0.5801   -0.2934   -1.0902 C   0  0  0  0  0  0  0  0  0  0  0  0
    0.0673   -1.3804   -1.6800 O   0  0  0  0  0  0  0  0  0  0  0  0
    2.5195    0.9214    0.9718 C   0  0  0  0  0  0  0  0  0  0  0  0
    3.1384    2.2740    1.2232 C   0  0  0  0  0  0  0  0  0  0  0  0
    1.9451    0.2788    2.0016 C   0  0  0  0  0  0  0  0  0  0  0  0
   -2.9179    0.8619    0.1025 C   0  0  2  0  0  0  0  0  0  0  0  0
   -4.4743    0.8908    0.1379 C   0  0  0  0  0  0  0  0  0  0  0  0
   -5.1320   -0.4583   -0.2560 C   0  0  0  0  0  0  0  0  0  0  0  0
   -4.2121   -1.3609   -1.0580 C   0  0  0  0  0  0  0  0  0  0  0  0
   -4.7368   -2.1575   -2.2200 C   0  0  0  0  0  0  0  0  0  0  0  0
   -2.9112   -1.4421   -0.7206 C   0  0  0  0  0  0  0  0  0  0  0  0
   -2.3831   -0.5650    0.3956 C   0  0  1  0  0  0  0  0  0  0  0  0
   -0.8630   -0.6087    0.5136 C   0  0  0  0  0  0  0  0  0  0  0  0
   -0.1512   -1.8321    0.6121 C   0  0  0  0  0  0  0  0  0  0  0  0
   -0.7959   -3.0654    0.7304 O   0  0  0  0  0  0  0  0  0  0  0  0
    1.2478   -1.8257    0.6187 C   0  0  0  0  0  0  0  0  0  0  0  0
    1.9600   -0.6197    0.6165 C   0  0  0  0  0  0  0  0  0  0  0  0
    3.4657   -0.6249    0.5927 C   0  0  0  0  0  0  0  0  0  0  0  0
    3.9783   -0.5877   -0.8537 C   0  0  0  0  0  0  0  0  0  0  0  0
    5.5069   -0.7153   -0.9440 C   0  0  0  0  0  0  0  0  0  0  0  0
    6.2346    0.5456   -0.4551 C   0  0  0  0  0  0  0  0  0  0  0  0
    7.7394    0.4342   -0.6830 C   0  0  0  0  0  0  0  0  0  0  0  0
    1.2584    0.5914    0.6192 C   0  0  0  0  0  0  0  0  0  0  0  0
   -0.1382    0.6026    0.6089 C   0  0  0  0  0  0  0  0  0  0  0  0
   -0.7997    1.8337    0.7077 O   0  0  0  0  0  0  0  0  0  0  0  0
   -2.2015    1.9406    0.9643 C   0  0  0  0  0  0  0  0  0  0  0  0
   -2.4349    1.7650    2.4807 C   0  0  0  0  0  0  0  0  0  0  0  0
   -2.6433    3.3534    0.5472 C   0  0  0  0  0  0  0  0  0  0  0  0
    2.1341   -0.7481   -0.3391 H   0  0  0  0  0  0  0  0  0  0  0  0
    4.5890   -0.3072   -0.3235 H   0  0  0  0  0  0  0  0  0  0  0  0
    4.3171    1.2385   -1.2066 H   0  0  0  0  0  0  0  0  0  0  0  0
    4.8601   -0.4449   -2.8443 H   0  0  0  0  0  0  0  0  0  0  0  0
    3.6839   -1.6165   -2.1562 H   0  0  0  0  0  0  0  0  0  0  0  0
    2.8930    0.5463   -5.3536 H   0  0  0  0  0  0  0  0  0  0  0  0
    1.9658   -0.9759   -5.0338 H   0  0  0  0  0  0  0  0  0  0  0  0
    3.7655   -0.9831   -4.9660 H   0  0  0  0  0  0  0  0  0  0  0  0
    0.9493    0.9665   -3.5329 H   0  0  0  0  0  0  0  0  0  0  0  0
    1.8746    2.1279   -1.4027 H   0  0  0  0  0  0  0  0  0  0  0  0
    0.9100    3.5363   -0.2445 H   0  0  0  0  0  0  0  0  0  0  0  0
   -2.4433    2.6523    0.6125 H   0  0  0  0  0  0  0  0  0  0  0  0
   -4.5911    1.3145    0.1797 H   0  0  0  0  0  0  0  0  0  0  0  0
   -4.4764   -0.4442   -0.0307 H   0  0  0  0  0  0  0  0  0  0  0  0
   -5.0992    0.1914    2.3108 H   0  0  0  0  0  0  0  0  0  0  0  0
   -3.6242    1.1866    2.4597 H   0  0  0  0  0  0  0  0  0  0  0  0
   -2.2012   -0.9085    2.1882 H   0  0  0  0  0  0  0  0  0  0  0  0
   -3.2472   -0.8778    3.6394 H   0  0  0  0  0  0  0  0  0  0  0  0
   -3.8563   -2.4119    1.0248 H   0  0  0  0  0  0  0  0  0  0  0  0
   -4.9563   -2.3104    2.4503 H   0  0  0  0  0  0  0  0  0  0  0  0
   -3.2001   -3.3841    3.8748 H   0  0  0  0  0  0  0  0  0  0  0  0
   -3.6293   -4.4115    2.4552 H   0  0  0  0  0  0  0  0  0  0  0  0
   -2.0920   -3.4664    2.4430 H   0  0  0  0  0  0  0  0  0  0  0  0
   -2.3950   -1.4027   -0.7845 H   0  0  0  0  0  0  0  0  0  0  0  0
   -0.3922   -2.2752   -1.8020 H   0  0  0  0  0  0  0  0  0  0  0  0
    2.4006    2.9425    1.7154 H   0  0  0  0  0  0  0  0  0  0  0  0
    4.0213    2.1613    1.8869 H   0  0  0  0  0  0  0  0  0  0  0  0
    3.4640    2.7607    0.2825 H   0  0  0  0  0  0  0  0  0  0  0  0
    1.4642   -0.6854    1.8674 H   0  0  0  0  0  0  0  0  0  0  0  0
    1.9415    0.7145    2.9964 H   0  0  0  0  0  0  0  0  0  0  0  0
   -2.6336    1.0923   -0.9531 H   0  0  0  0  0  0  0  0  0  0  0  0
   -4.8452    1.1677    1.1447 H   0  0  0  0  0  0  0  0  0  0  0  0
   -4.8293    1.6788   -0.5621 H   0  0  0  0  0  0  0  0  0  0  0  0
   -6.0751   -0.2613   -0.8096 H   0  0  0  0  0  0  0  0  0  0  0  0
   -5.4063   -1.0038    0.6731 H   0  0  0  0  0  0  0  0  0  0  0  0
   -5.8273   -2.0005   -2.3549 H   0  0  0  0  0  0  0  0  0  0  0  0
   -4.5582   -3.2394   -2.0444 H   0  0  0  0  0  0  0  0  0  0  0  0
   -4.2171   -1.8485   -3.1514 H   0  0  0  0  0  0  0  0  0  0  0  0
   -2.2367   -2.0605   -1.3075 H   0  0  0  0  0  0  0  0  0  0  0  0
   -2.8096   -0.9271    1.3569 H   0  0  0  0  0  0  0  0  0  0  0  0
   -1.7893   -3.1575    0.8966 H   0  0  0  0  0  0  0  0  0  0  0  0
    1.7811   -2.7683    0.6497 H   0  0  0  0  0  0  0  0  0  0  0  0
    3.8477   -1.5355    1.1045 H   0  0  0  0  0  0  0  0  0  0  0  0
    3.8441    0.2543    1.1561 H   0  0  0  0  0  0  0  0  0  0  0  0
    3.5294   -1.4377   -1.4138 H   0  0  0  0  0  0  0  0  0  0  0  0
    3.6483    0.3523   -1.3487 H   0  0  0  0  0  0  0  0  0  0  0  0
    5.7730   -0.8921   -2.0094 H   0  0  0  0  0  0  0  0  0  0  0  0
    5.8467   -1.5995   -0.3612 H   0  0  0  0  0  0  0  0  0  0  0  0
    6.0556    0.6931    0.6307 H   0  0  0  0  0  0  0  0  0  0  0  0
    5.8546    1.4364   -1.0011 H   0  0  0  0  0  0  0  0  0  0  0  0
    8.2407    1.3531   -0.3124 H   0  0  0  0  0  0  0  0  0  0  0  0
    7.9591    0.3229   -1.7663 H   0  0  0  0  0  0  0  0  0  0  0  0
    8.1489   -0.4403   -0.1336 H   0  0  0  0  0  0  0  0  0  0  0  0
    1.7965    1.5312    0.6483 H   0  0  0  0  0  0  0  0  0  0  0  0
   -1.8284    2.5082    3.0414 H   0  0  0  0  0  0  0  0  0  0  0  0
   -2.1208    0.7589    2.8253 H   0  0  0  0  0  0  0  0  0  0  0  0
   -3.4972    1.9233    2.7557 H   0  0  0  0  0  0  0  0  0  0  0  0
   -2.0466    4.1179    1.0898 H   0  0  0  0  0  0  0  0  0  0  0  0
   -2.4843    3.5041   -0.5420 H   0  0  0  0  0  0  0  0  0  0  0  0
   -3.7166    3.5217    0.7783 H   0  0  0  0  0  0  0  0  0  0  0  0
  1  2  1  0
  2  3  1  0
  3  4  1  0
  4  5  1  0
  4  6  2  0
  6  7  1  0
  7  8  1  0
  8  9  2  0
  9 10  1  0
  9 11  1  0
 11 12  2  0
 12 13  1  0
 13 14  1  0
 14 15  1  0
 15 16  1  0
 16 17  1  0
 12 18  1  0
 18 19  2  0
 19 20  1  0
  1 21  1  0
 21 22  1  0
 21 23  2  3
 24 25  1  0
 25 26  1  0
 26 27  1  0
 27 28  1  0
 27 29  2  0
 29 30  1  0
 30 31  1  0
 31 32  2  0
 32 33  1  0
 32 34  1  0
 34 35  2  0
 35 36  1  0
 36 37  1  0
 37 38  1  0
 38 39  1  0
 39 40  1  0
 35 41  1  0
 41 42  2  0
 42 43  1  0
 43 44  1  0
 44 45  1  0
 44 46  1  0
  7  1  1  0
 19  8  1  0
 30 24  1  0
 42 31  1  0
 44 24  1  0
  1 47  1  1
  2 48  1  0
  2 49  1  0
  3 50  1  0
  3 51  1  0
  5 52  1  0
  5 53  1  0
  5 54  1  0
  6 55  1  0
  7 56  1  6
 10 57  1  0
 11 58  1  0
 13 59  1  0
 13 60  1  0
 14 61  1  0
 14 62  1  0
 15 63  1  0
 15 64  1  0
 16 65  1  0
 16 66  1  0
 17 67  1  0
 17 68  1  0
 17 69  1  0
 18 70  1  0
 20 71  1  0
 22 72  1  0
 22 73  1  0
 22 74  1  0
 23 75  1  0
 23 76  1  0
 24 77  1  6
 25 78  1  0
 25 79  1  0
 26 80  1  0
 26 81  1  0
 28 82  1  0
 28 83  1  0
 28 84  1  0
 29 85  1  0
 30 86  1  1
 33 87  1  0
 34 88  1  0
 36 89  1  0
 36 90  1  0
 37 91  1  0
 37 92  1  0
 38 93  1  0
 38 94  1  0
 39 95  1  0
 39 96  1  0
 40 97  1  0
 40 98  1  0
 40 99  1  0
 41100  1  0
 45101  1  0
 45102  1  0
 45103  1  0
 46104  1  0
 46105  1  0
 46106  1  0
M  END
$$$$
