
     RDKit          3D

 19 19  0  0  0  0  0  0  0  0999 V2000
   -1.8521    1.2519   -0.2219 C   0  0  0  0  0  0  0  0  0  0  0  0
   -0.4565    0.7929   -0.1484 N   0  0  0  0  0  0  0  0  0  0  0  0
    0.5337    1.7221   -0.3239 C   0  0  0  0  0  0  0  0  0  0  0  0
    1.8760    1.3635   -0.2515 C   0  0  0  0  0  0  0  0  0  0  0  0
    2.2197    0.0432    0.0104 C   0  0  0  0  0  0  0  0  0  0  0  0
    3.4346   -0.2820    0.0905 O   0  0  0  0  0  0  0  0  0  0  0  0
    1.2208   -0.9172    0.1866 C   0  0  0  0  0  0  0  0  0  0  0  0
    1.6064   -2.2320    0.4699 O   0  0  0  0  0  0  0  0  0  0  0  0
   -0.1401   -0.5334    0.0794 C   0  0  0  0  0  0  0  0  0  0  0  0
   -1.2106   -1.5935    0.2409 C   0  0  0  0  0  0  0  0  0  0  0  0
   -2.3984    0.9618    0.7009 H   0  0  0  0  0  0  0  0  0  0  0  0
   -1.9246    2.3581   -0.3062 H   0  0  0  0  0  0  0  0  0  0  0  0
   -2.3475    0.8140   -1.1143 H   0  0  0  0  0  0  0  0  0  0  0  0
    0.2934    2.7606   -0.5200 H   0  0  0  0  0  0  0  0  0  0  0  0
    2.6441    2.1146   -0.3908 H   0  0  0  0  0  0  0  0  0  0  0  0
    0.9518   -2.9797    0.6583 H   0  0  0  0  0  0  0  0  0  0  0  0
   -0.9988   -2.4479   -0.4357 H   0  0  0  0  0  0  0  0  0  0  0  0
   -2.2285   -1.2470   -0.0166 H   0  0  0  0  0  0  0  0  0  0  0  0
   -1.2235   -1.9498    1.2922 H   0  0  0  0  0  0  0  0  0  0  0  0
  1  2  1  0
  2  3  1  0
  3  4  2  0
  4  5  1  0
  5  6  2  0
  5  7  1  0
  7  8  1  0
  7  9  2  0
  9 10  1  0
  9  2  1  0
  1 11  1  0
  1 12  1  0
  1 13  1  0
  3 14  1  0
  4 15  1  0
  8 16  1  0
 10 17  1  0
 10 18  1  0
 10 19  1  0
M  END
$$$$
