
     RDKit          3D

 65 68  0  0  0  0  0  0  0  0999 V2000
   -6.2716    1.0409   -0.6459 C   0  0  0  0  0  0  0  0  0  0  0  0
   -5.4452    1.6447   -1.6990 N   0  0  0  0  0  0  0  0  0  0  0  0
   -6.2592    2.5489   -2.5206 C   0  0  0  0  0  0  0  0  0  0  0  0
   -4.1390    2.5448   -0.9701 S   0  0  0  0  0  6  0  0  0  0  0  0
   -3.2982    3.1804   -2.0423 O   0  0  0  0  0  0  0  0  0  0  0  0
   -4.6892    3.6302   -0.0851 O   0  0  0  0  0  0  0  0  0  0  0  0
   -3.1194    1.4585   -0.0298 C   0  0  0  0  0  0  0  0  0  0  0  0
   -2.3325    0.5059   -0.6899 C   0  0  0  0  0  0  0  0  0  0  0  0
   -1.5201   -0.3806    0.0409 C   0  0  0  0  0  0  0  0  0  0  0  0
   -1.5186   -0.3023    1.4470 C   0  0  0  0  0  0  0  0  0  0  0  0
   -0.4132   -1.3520    2.3934 S   0  0  0  0  0  0  0  0  0  0  0  0
   -0.8225   -2.8213    1.4504 C   0  0  0  0  0  0  0  0  0  0  0  0
   -1.0494   -4.0327    2.1118 C   0  0  0  0  0  0  0  0  0  0  0  0
   -1.2966   -5.1943    1.3772 C   0  0  0  0  0  0  0  0  0  0  0  0
   -1.3312   -5.1453   -0.0183 C   0  0  0  0  0  0  0  0  0  0  0  0
   -1.1298   -3.9325   -0.6844 C   0  0  0  0  0  0  0  0  0  0  0  0
   -0.8653   -2.7563    0.0435 C   0  0  0  0  0  0  0  0  0  0  0  0
   -0.8141   -1.4656   -0.6090 N   0  0  0  0  0  0  0  0  0  0  0  0
   -0.2843   -1.3386   -1.9804 C   0  0  0  0  0  0  0  0  0  0  0  0
    0.6403   -0.1186   -2.1493 C   0  0  0  0  0  0  0  0  0  0  0  0
    2.0179   -0.3167   -1.4995 C   0  0  0  0  0  0  0  0  0  0  0  0
    1.9071   -0.4065   -0.0242 N   0  0  0  0  0  0  0  0  0  0  0  0
    1.8749    0.9182    0.6337 C   0  0  0  0  0  0  0  0  0  0  0  0
    3.2377    1.6421    0.5961 C   0  0  0  0  0  0  0  0  0  0  0  0
    4.4407    0.6684    0.5782 C   0  0  0  0  0  0  0  0  0  0  0  0
    5.7012    1.2945    1.2179 C   0  0  0  0  0  0  0  0  0  0  0  0
    6.2238    2.5139    0.4506 C   0  0  0  0  0  0  0  0  0  0  0  0
    6.5926    2.1462   -0.8500 O   0  0  0  0  0  0  0  0  0  0  0  0
    4.0709   -0.6376    1.2936 C   0  0  0  0  0  0  0  0  0  0  0  0
    2.8840   -1.3382    0.6002 C   0  0  0  0  0  0  0  0  0  0  0  0
   -2.3287    0.6266    2.1055 C   0  0  0  0  0  0  0  0  0  0  0  0
   -3.1243    1.5071    1.3703 C   0  0  0  0  0  0  0  0  0  0  0  0
   -6.6916    1.8140    0.0351 H   0  0  0  0  0  0  0  0  0  0  0  0
   -7.1077    0.4659   -1.0988 H   0  0  0  0  0  0  0  0  0  0  0  0
   -5.6672    0.3232   -0.0521 H   0  0  0  0  0  0  0  0  0  0  0  0
   -6.6952    3.3708   -1.9103 H   0  0  0  0  0  0  0  0  0  0  0  0
   -7.0832    1.9842   -3.0075 H   0  0  0  0  0  0  0  0  0  0  0  0
   -5.6394    2.9878   -3.3310 H   0  0  0  0  0  0  0  0  0  0  0  0
   -2.3828    0.4420   -1.7682 H   0  0  0  0  0  0  0  0  0  0  0  0
   -1.0137   -4.0791    3.1928 H   0  0  0  0  0  0  0  0  0  0  0  0
   -1.4629   -6.1331    1.8896 H   0  0  0  0  0  0  0  0  0  0  0  0
   -1.5373   -6.0444   -0.5844 H   0  0  0  0  0  0  0  0  0  0  0  0
   -1.2261   -3.9105   -1.7616 H   0  0  0  0  0  0  0  0  0  0  0  0
   -1.1309   -1.2677   -2.6955 H   0  0  0  0  0  0  0  0  0  0  0  0
    0.2953   -2.2442   -2.2618 H   0  0  0  0  0  0  0  0  0  0  0  0
    0.1598    0.8073   -1.7763 H   0  0  0  0  0  0  0  0  0  0  0  0
    0.8017    0.0334   -3.2387 H   0  0  0  0  0  0  0  0  0  0  0  0
    2.4617   -1.2365   -1.9384 H   0  0  0  0  0  0  0  0  0  0  0  0
    2.6789    0.5214   -1.8061 H   0  0  0  0  0  0  0  0  0  0  0  0
    1.0946    1.5653    0.1807 H   0  0  0  0  0  0  0  0  0  0  0  0
    1.5748    0.7793    1.6951 H   0  0  0  0  0  0  0  0  0  0  0  0
    3.2915    2.3125    1.4820 H   0  0  0  0  0  0  0  0  0  0  0  0
    3.2844    2.2913   -0.3051 H   0  0  0  0  0  0  0  0  0  0  0  0
    4.6818    0.4110   -0.4772 H   0  0  0  0  0  0  0  0  0  0  0  0
    6.5136    0.5355    1.2528 H   0  0  0  0  0  0  0  0  0  0  0  0
    5.4820    1.5938    2.2664 H   0  0  0  0  0  0  0  0  0  0  0  0
    7.1120    2.9167    0.9863 H   0  0  0  0  0  0  0  0  0  0  0  0
    5.4491    3.3113    0.4186 H   0  0  0  0  0  0  0  0  0  0  0  0
    6.9106    2.9764   -1.2909 H   0  0  0  0  0  0  0  0  0  0  0  0
    4.9413   -1.3300    1.3065 H   0  0  0  0  0  0  0  0  0  0  0  0
    3.8025   -0.4163    2.3509 H   0  0  0  0  0  0  0  0  0  0  0  0
    2.3495   -1.9458    1.3602 H   0  0  0  0  0  0  0  0  0  0  0  0
    3.2818   -2.0739   -0.1318 H   0  0  0  0  0  0  0  0  0  0  0  0
   -2.3254    0.6828    3.1866 H   0  0  0  0  0  0  0  0  0  0  0  0
   -3.7424    2.2239    1.8948 H   0  0  0  0  0  0  0  0  0  0  0  0
  1  2  1  0
  2  3  1  0
  2  4  1  0
  4  5  2  0
  4  6  2  0
  4  7  1  0
  7  8  2  0
  8  9  1  0
  9 10  2  0
 10 11  1  0
 11 12  1  0
 12 13  2  0
 13 14  1  0
 14 15  2  0
 15 16  1  0
 16 17  2  0
 17 18  1  0
 18 19  1  0
 19 20  1  0
 20 21  1  0
 21 22  1  0
 22 23  1  0
 23 24  1  0
 24 25  1  0
 25 26  1  0
 26 27  1  0
 27 28  1  0
 25 29  1  0
 29 30  1  0
 10 31  1  0
 31 32  2  0
 32  7  1  0
 18  9  1  0
 30 22  1  0
 17 12  1  0
  1 33  1  0
  1 34  1  0
  1 35  1  0
  3 36  1  0
  3 37  1  0
  3 38  1  0
  8 39  1  0
 13 40  1  0
 14 41  1  0
 15 42  1  0
 16 43  1  0
 19 44  1  0
 19 45  1  0
 20 46  1  0
 20 47  1  0
 21 48  1  0
 21 49  1  0
 23 50  1  0
 23 51  1  0
 24 52  1  0
 24 53  1  0
 25 54  1  0
 26 55  1  0
 26 56  1  0
 27 57  1  0
 27 58  1  0
 28 59  1  0
 29 60  1  0
 29 61  1  0
 30 62  1  0
 30 63  1  0
 31 64  1  0
 32 65  1  0
M  END
$$$$
