
     RDKit          3D

 69 73  0  0  0  0  0  0  0  0999 V2000
   10.3454    1.1329   -0.5472 C   0  0  0  0  0  0  0  0  0  0  0  0
    9.4122    0.5022    0.4814 C   0  0  0  0  0  0  0  0  0  0  0  0
    8.5565   -0.5200   -0.1635 N   0  0  0  0  0  0  0  0  0  0  0  0
    8.2608   -1.6638    0.7203 C   0  0  0  0  0  0  0  0  0  0  0  0
    7.2395   -1.2947    1.8072 C   0  0  0  0  0  0  0  0  0  0  0  0
    5.9825   -0.7836    1.2284 N   0  0  0  0  0  0  0  0  0  0  0  0
    5.1611   -1.8516    0.6166 C   0  0  0  0  0  0  0  0  0  0  0  0
    3.7190   -1.4262    0.5420 C   0  0  0  0  0  0  0  0  0  0  0  0
    2.9667   -1.2672    1.7127 C   0  0  0  0  0  0  0  0  0  0  0  0
    1.6348   -0.8568    1.6380 C   0  0  0  0  0  0  0  0  0  0  0  0
    1.0573   -0.6017    0.3865 C   0  0  0  0  0  0  0  0  0  0  0  0
   -0.3157   -0.1776    0.3065 N   0  0  0  0  0  0  0  0  0  0  0  0
   -1.0176    0.1204   -0.9111 C   0  0  0  0  0  0  0  0  0  0  0  0
   -0.4049    0.0204   -2.1212 N   0  0  0  0  0  0  0  0  0  0  0  0
   -1.0711    0.2967   -3.2706 C   0  0  0  0  0  0  0  0  0  0  0  0
   -2.4064    0.6945   -3.2253 C   0  0  0  0  0  0  0  0  0  0  0  0
   -3.0801    0.9102   -4.3832 F   0  0  0  0  0  0  0  0  0  0  0  0
   -3.0314    0.8090   -1.9719 C   0  0  0  0  0  0  0  0  0  0  0  0
   -2.3193    0.5090   -0.8511 N   0  0  0  0  0  0  0  0  0  0  0  0
   -4.4474    1.2225   -1.8340 C   0  0  0  0  0  0  0  0  0  0  0  0
   -4.9925    2.2524   -2.6464 C   0  0  0  0  0  0  0  0  0  0  0  0
   -6.3347    2.6425   -2.5034 C   0  0  0  0  0  0  0  0  0  0  0  0
   -6.8637    3.6168   -3.2842 F   0  0  0  0  0  0  0  0  0  0  0  0
   -7.1016    2.0035   -1.5349 C   0  0  0  0  0  0  0  0  0  0  0  0
   -8.3986    2.2097   -1.2595 N   0  0  0  0  0  0  0  0  0  0  0  0
   -8.6503    1.3242   -0.2612 C   0  0  0  0  0  0  0  0  0  0  0  0
  -10.0130    1.2184    0.3501 C   0  0  0  0  0  0  0  0  0  0  0  0
   -7.5521    0.5955    0.1108 N   0  0  0  0  0  0  0  0  0  0  0  0
   -7.4266   -0.5007    1.0940 C   0  0  0  0  0  0  0  0  0  0  0  0
   -8.0863   -0.1679    2.4386 C   0  0  0  0  0  0  0  0  0  0  0  0
   -7.9546   -1.8127    0.5092 C   0  0  0  0  0  0  0  0  0  0  0  0
   -6.5883    1.0318   -0.7285 C   0  0  0  0  0  0  0  0  0  0  0  0
   -5.2592    0.6088   -0.8513 C   0  0  0  0  0  0  0  0  0  0  0  0
    1.8100   -0.7591   -0.7381 N   0  0  0  0  0  0  0  0  0  0  0  0
    3.1085   -1.1586   -0.6913 C   0  0  0  0  0  0  0  0  0  0  0  0
    6.2382    0.3503    0.3145 C   0  0  0  0  0  0  0  0  0  0  0  0
    7.3182    0.0408   -0.7460 C   0  0  0  0  0  0  0  0  0  0  0  0
   10.9522    0.3457   -1.0431 H   0  0  0  0  0  0  0  0  0  0  0  0
   11.0303    1.8460   -0.0415 H   0  0  0  0  0  0  0  0  0  0  0  0
    9.7683    1.6865   -1.3162 H   0  0  0  0  0  0  0  0  0  0  0  0
    8.8125    1.2978    0.9716 H   0  0  0  0  0  0  0  0  0  0  0  0
   10.0550    0.0493    1.2687 H   0  0  0  0  0  0  0  0  0  0  0  0
    9.1920   -2.0423    1.1959 H   0  0  0  0  0  0  0  0  0  0  0  0
    7.8695   -2.5055    0.1096 H   0  0  0  0  0  0  0  0  0  0  0  0
    7.6741   -0.5199    2.4753 H   0  0  0  0  0  0  0  0  0  0  0  0
    7.0426   -2.1806    2.4497 H   0  0  0  0  0  0  0  0  0  0  0  0
    5.5421   -2.1333   -0.3880 H   0  0  0  0  0  0  0  0  0  0  0  0
    5.1988   -2.7752    1.2357 H   0  0  0  0  0  0  0  0  0  0  0  0
    3.4128   -1.4597    2.6808 H   0  0  0  0  0  0  0  0  0  0  0  0
    1.0588   -0.7369    2.5469 H   0  0  0  0  0  0  0  0  0  0  0  0
   -0.8507   -0.0759    1.1989 H   0  0  0  0  0  0  0  0  0  0  0  0
   -0.5652    0.1964   -4.2215 H   0  0  0  0  0  0  0  0  0  0  0  0
   -4.3772    2.7658   -3.3735 H   0  0  0  0  0  0  0  0  0  0  0  0
  -10.3430    0.1623    0.3936 H   0  0  0  0  0  0  0  0  0  0  0  0
  -10.0063    1.6654    1.3652 H   0  0  0  0  0  0  0  0  0  0  0  0
  -10.7479    1.7771   -0.2670 H   0  0  0  0  0  0  0  0  0  0  0  0
   -6.3530   -0.6566    1.3275 H   0  0  0  0  0  0  0  0  0  0  0  0
   -7.8618    0.8808    2.7274 H   0  0  0  0  0  0  0  0  0  0  0  0
   -7.6829   -0.8380    3.2278 H   0  0  0  0  0  0  0  0  0  0  0  0
   -9.1836   -0.3204    2.4093 H   0  0  0  0  0  0  0  0  0  0  0  0
   -7.4108   -2.0501   -0.4298 H   0  0  0  0  0  0  0  0  0  0  0  0
   -9.0378   -1.7440    0.2837 H   0  0  0  0  0  0  0  0  0  0  0  0
   -7.7913   -2.6438    1.2281 H   0  0  0  0  0  0  0  0  0  0  0  0
   -4.8590   -0.1786   -0.2282 H   0  0  0  0  0  0  0  0  0  0  0  0
    3.6636   -1.2624   -1.6147 H   0  0  0  0  0  0  0  0  0  0  0  0
    5.3027    0.6556   -0.2012 H   0  0  0  0  0  0  0  0  0  0  0  0
    6.5450    1.2312    0.9163 H   0  0  0  0  0  0  0  0  0  0  0  0
    6.9147   -0.6764   -1.4913 H   0  0  0  0  0  0  0  0  0  0  0  0
    7.5402    0.9696   -1.3136 H   0  0  0  0  0  0  0  0  0  0  0  0
  1  2  1  0
  2  3  1  0
  3  4  1  0
  4  5  1  0
  5  6  1  0
  6  7  1  0
  7  8  1  0
  8  9  2  0
  9 10  1  0
 10 11  2  0
 11 12  1  0
 12 13  1  0
 13 14  2  0
 14 15  1  0
 15 16  2  0
 16 17  1  0
 16 18  1  0
 18 19  2  0
 18 20  1  0
 20 21  2  0
 21 22  1  0
 22 23  1  0
 22 24  2  0
 24 25  1  0
 25 26  2  0
 26 27  1  0
 26 28  1  0
 28 29  1  0
 29 30  1  0
 29 31  1  0
 28 32  1  0
 32 33  2  0
 11 34  1  0
 34 35  2  0
  6 36  1  0
 36 37  1  0
 37  3  1  0
 35  8  1  0
 19 13  1  0
 33 20  1  0
 32 24  1  0
  1 38  1  0
  1 39  1  0
  1 40  1  0
  2 41  1  0
  2 42  1  0
  4 43  1  0
  4 44  1  0
  5 45  1  0
  5 46  1  0
  7 47  1  0
  7 48  1  0
  9 49  1  0
 10 50  1  0
 12 51  1  0
 15 52  1  0
 21 53  1  0
 27 54  1  0
 27 55  1  0
 27 56  1  0
 29 57  1  0
 30 58  1  0
 30 59  1  0
 30 60  1  0
 31 61  1  0
 31 62  1  0
 31 63  1  0
 33 64  1  0
 35 65  1  0
 36 66  1  0
 36 67  1  0
 37 68  1  0
 37 69  1  0
M  END
$$$$
