
     RDKit          3D

 59 59  0  0  0  0  0  0  0  0999 V2000
    3.5758    0.1379   -0.6720 C   0  0  2  0  0  0  0  0  0  0  0  0
    4.7064    0.1737   -1.7064 C   0  0  0  0  0  0  0  0  0  0  0  0
    2.2910   -0.0766   -1.3384 N   0  0  0  0  0  0  0  0  0  0  0  0
    1.8377   -1.2011   -1.8165 C   0  0  0  0  0  0  0  0  0  0  0  0
    2.5481   -2.4005   -1.7128 O   0  0  0  0  0  0  0  0  0  0  0  0
    0.4929   -1.2199   -2.4634 C   0  0  0  0  0  0  0  0  0  0  0  0
   -0.5351   -1.2313   -1.4298 N   0  0  0  0  0  0  0  0  0  0  0  0
   -1.8177   -1.2316   -1.6508 C   0  0  0  0  0  0  0  0  0  0  0  0
   -2.3404   -1.2132   -2.9483 O   0  0  0  0  0  0  0  0  0  0  0  0
   -2.7591   -1.2234   -0.4729 C   0  0  2  0  0  0  0  0  0  0  0  0
   -4.0648   -1.7857   -0.8514 N   0  0  0  0  0  0  0  0  0  0  0  0
   -4.2976   -3.1803   -1.1285 C   0  0  0  0  0  0  0  0  0  0  0  0
   -5.6166   -3.6159   -1.4588 N   0  0  0  0  0  0  0  0  0  0  0  0
   -3.3396   -4.0548   -1.0890 N   0  0  0  0  0  0  0  0  0  0  0  0
   -2.8912    0.2112    0.1138 C   0  0  0  0  0  0  0  0  0  0  0  0
   -3.6244    0.1837    1.4748 C   0  0  0  0  0  0  0  0  0  0  0  0
   -3.8422    1.6059    2.0041 C   0  0  0  0  0  0  0  0  0  0  0  0
   -4.6251    2.5031    1.0205 C   0  0  0  0  0  0  0  0  0  0  0  0
   -4.8062    1.8818   -0.3731 C   0  0  0  0  0  0  0  0  0  0  0  0
   -3.5070    1.2426   -0.8826 C   0  0  0  0  0  0  0  0  0  0  0  0
    3.5186    1.4645    0.0523 C   0  0  0  0  0  0  0  0  0  0  0  0
    3.1930    2.5976   -0.6902 O   0  0  0  0  0  0  0  0  0  0  0  0
    3.7516    1.6030    1.3291 N   0  0  0  0  0  0  0  0  0  0  0  0
    4.1156    0.5684    2.2993 C   0  0  0  0  0  0  0  0  0  0  0  0
    5.5907    0.1537    2.1675 C   0  0  0  0  0  0  0  0  0  0  0  0
    6.5664    1.3206    2.3605 C   0  0  0  0  0  0  0  0  0  0  0  0
    6.5618    1.9134    4.0829 S   0  0  0  0  0  0  0  0  0  0  0  0
    3.7611   -0.6922    0.0346 H   0  0  0  0  0  0  0  0  0  0  0  0
    4.7935   -0.8023   -2.2262 H   0  0  0  0  0  0  0  0  0  0  0  0
    5.6763    0.3884   -1.2093 H   0  0  0  0  0  0  0  0  0  0  0  0
    4.5138    0.9590   -2.4688 H   0  0  0  0  0  0  0  0  0  0  0  0
    3.4491   -2.4813   -1.2616 H   0  0  0  0  0  0  0  0  0  0  0  0
    0.3781   -0.3169   -3.1025 H   0  0  0  0  0  0  0  0  0  0  0  0
    0.3997   -2.1282   -3.0973 H   0  0  0  0  0  0  0  0  0  0  0  0
   -1.7616   -1.2140   -3.7783 H   0  0  0  0  0  0  0  0  0  0  0  0
   -2.3207   -1.8615    0.3269 H   0  0  0  0  0  0  0  0  0  0  0  0
   -4.8916   -1.1511   -0.9126 H   0  0  0  0  0  0  0  0  0  0  0  0
   -6.4070   -2.9351   -1.4990 H   0  0  0  0  0  0  0  0  0  0  0  0
   -5.8076   -4.6219   -1.6645 H   0  0  0  0  0  0  0  0  0  0  0  0
   -2.3493   -3.8234   -0.8601 H   0  0  0  0  0  0  0  0  0  0  0  0
   -1.8556    0.5589    0.3367 H   0  0  0  0  0  0  0  0  0  0  0  0
   -4.6080   -0.3263    1.3841 H   0  0  0  0  0  0  0  0  0  0  0  0
   -3.0193   -0.3865    2.2133 H   0  0  0  0  0  0  0  0  0  0  0  0
   -4.3855    1.5534    2.9726 H   0  0  0  0  0  0  0  0  0  0  0  0
   -2.8499    2.0652    2.2091 H   0  0  0  0  0  0  0  0  0  0  0  0
   -5.6305    2.7239    1.4404 H   0  0  0  0  0  0  0  0  0  0  0  0
   -4.0940    3.4746    0.9159 H   0  0  0  0  0  0  0  0  0  0  0  0
   -5.1352    2.6685   -1.0861 H   0  0  0  0  0  0  0  0  0  0  0  0
   -5.6085    1.1136   -0.3352 H   0  0  0  0  0  0  0  0  0  0  0  0
   -3.7140    0.7822   -1.8713 H   0  0  0  0  0  0  0  0  0  0  0  0
   -2.7685    2.0544   -1.0652 H   0  0  0  0  0  0  0  0  0  0  0  0
    3.1398    3.5118   -0.2564 H   0  0  0  0  0  0  0  0  0  0  0  0
    3.9430    0.9719    3.3187 H   0  0  0  0  0  0  0  0  0  0  0  0
    3.4483   -0.3137    2.2003 H   0  0  0  0  0  0  0  0  0  0  0  0
    5.8121   -0.6352    2.9186 H   0  0  0  0  0  0  0  0  0  0  0  0
    5.7675   -0.2932    1.1683 H   0  0  0  0  0  0  0  0  0  0  0  0
    6.3157    2.1590    1.6766 H   0  0  0  0  0  0  0  0  0  0  0  0
    7.5930    0.9747    2.1154 H   0  0  0  0  0  0  0  0  0  0  0  0
    7.5335    2.8962    3.8150 H   0  0  0  0  0  0  0  0  0  0  0  0
  1  2  1  0
  1  3  1  0
  3  4  2  3
  4  5  1  0
  4  6  1  0
  6  7  1  0
  7  8  2  3
  8  9  1  0
  8 10  1  0
 10 11  1  0
 11 12  1  0
 12 13  1  0
 12 14  2  3
 10 15  1  0
 15 16  1  0
 16 17  1  0
 17 18  1  0
 18 19  1  0
 19 20  1  0
  1 21  1  0
 21 22  1  0
 21 23  2  3
 23 24  1  0
 24 25  1  0
 25 26  1  0
 26 27  1  0
 20 15  1  0
  1 28  1  1
  2 29  1  0
  2 30  1  0
  2 31  1  0
  5 32  1  0
  6 33  1  0
  6 34  1  0
  9 35  1  0
 10 36  1  1
 11 37  1  0
 13 38  1  0
 13 39  1  0
 14 40  1  0
 15 41  1  0
 16 42  1  0
 16 43  1  0
 17 44  1  0
 17 45  1  0
 18 46  1  0
 18 47  1  0
 19 48  1  0
 19 49  1  0
 20 50  1  0
 20 51  1  0
 22 52  1  0
 24 53  1  0
 24 54  1  0
 25 55  1  0
 25 56  1  0
 26 57  1  0
 26 58  1  0
 27 59  1  0
M  END
$$$$
