
     RDKit          3D

 29 31  0  0  0  0  0  0  0  0999 V2000
   -2.5983   -2.0001    0.2473 C   0  0  0  0  0  0  0  0  0  0  0  0
   -1.9878   -1.1001    1.3180 C   0  0  0  0  0  0  0  0  0  0  0  0
   -1.2191   -0.0084    0.7027 N   0  0  0  0  0  0  0  0  0  0  0  0
   -1.8495    1.1616    0.5683 N   0  0  0  0  0  0  0  0  0  0  0  0
   -1.2801    2.2613    0.0127 C   0  0  0  0  0  0  0  0  0  0  0  0
   -2.0890    3.4970   -0.0713 C   0  0  0  0  0  0  0  0  0  0  0  0
   -3.3928    3.4953    0.4164 O   0  0  0  0  0  0  0  0  0  0  0  0
   -1.6200    4.5523   -0.5766 O   0  0  0  0  0  0  0  0  0  0  0  0
    0.0404    2.1812   -0.4551 C   0  0  0  0  0  0  0  0  0  0  0  0
    0.5999    3.1874   -0.9731 O   0  0  0  0  0  0  0  0  0  0  0  0
    0.7327    0.9664   -0.3432 C   0  0  0  0  0  0  0  0  0  0  0  0
    2.0640    0.8440   -0.8120 C   0  0  0  0  0  0  0  0  0  0  0  0
    2.6942   -0.3855   -0.6837 C   0  0  0  0  0  0  0  0  0  0  0  0
    2.0771   -1.4544   -0.1305 C   0  0  0  0  0  0  0  0  0  0  0  0
    2.9361   -2.5368   -0.1376 O   0  0  0  0  0  0  0  0  0  0  0  0
    4.1717   -2.1182   -0.7329 C   0  0  0  0  0  0  0  0  0  0  0  0
    3.9739   -0.7379   -1.0673 O   0  0  0  0  0  0  0  0  0  0  0  0
    0.7741   -1.3921    0.3475 C   0  0  0  0  0  0  0  0  0  0  0  0
    0.0733   -0.1575    0.2492 C   0  0  0  0  0  0  0  0  0  0  0  0
   -3.1856   -2.8088    0.7309 H   0  0  0  0  0  0  0  0  0  0  0  0
   -3.2744   -1.4076   -0.4049 H   0  0  0  0  0  0  0  0  0  0  0  0
   -1.8064   -2.4607   -0.3785 H   0  0  0  0  0  0  0  0  0  0  0  0
   -1.3631   -1.6866    2.0232 H   0  0  0  0  0  0  0  0  0  0  0  0
   -2.8155   -0.6775    1.9301 H   0  0  0  0  0  0  0  0  0  0  0  0
   -3.9667    4.3289    0.3702 H   0  0  0  0  0  0  0  0  0  0  0  0
    2.5936    1.6731   -1.2644 H   0  0  0  0  0  0  0  0  0  0  0  0
    5.0025   -2.2207   -0.0037 H   0  0  0  0  0  0  0  0  0  0  0  0
    4.3747   -2.7095   -1.6504 H   0  0  0  0  0  0  0  0  0  0  0  0
    0.3401   -2.2861    0.7686 H   0  0  0  0  0  0  0  0  0  0  0  0
  1  2  1  0
  2  3  1  0
  3  4  1  0
  4  5  2  0
  5  6  1  0
  6  7  1  0
  6  8  2  0
  5  9  1  0
  9 10  2  0
  9 11  1  0
 11 12  2  0
 12 13  1  0
 13 14  2  0
 14 15  1  0
 15 16  1  0
 16 17  1  0
 14 18  1  0
 18 19  2  0
 19  3  1  0
 19 11  1  0
 17 13  1  0
  1 20  1  0
  1 21  1  0
  1 22  1  0
  2 23  1  0
  2 24  1  0
  7 25  1  0
 12 26  1  0
 16 27  1  0
 16 28  1  0
 18 29  1  0
M  END
$$$$
