
     RDKit          3D

 75 78  0  0  0  0  0  0  0  0999 V2000
    9.8078    1.9128   -2.5341 C   0  0  0  0  0  0  0  0  0  0  0  0
    8.9195    2.1477   -1.3158 C   0  0  0  0  0  0  0  0  0  0  0  0
    8.0453    0.9228   -1.0223 C   0  0  0  0  0  0  0  0  0  0  0  0
    7.1478    1.1696    0.1999 C   0  0  0  0  0  0  0  0  0  0  0  0
    6.3434   -0.0757    0.6073 C   0  0  0  0  0  0  0  0  0  0  0  0
    5.1643   -0.3525   -0.3409 C   0  0  0  0  0  0  0  0  0  0  0  0
    4.4013   -1.6419    0.0134 C   0  0  0  0  0  0  0  0  0  0  0  0
    3.7347   -1.6484    1.4046 C   0  0  0  0  0  0  0  0  0  0  0  0
    2.7251   -0.5131    1.6335 C   0  0  0  0  0  0  0  0  0  0  0  0
    1.6033   -0.5571    0.6437 C   0  0  0  0  0  0  0  0  0  0  0  0
    1.5408    0.3084   -0.2713 O   0  0  0  0  0  0  0  0  0  0  0  0
    0.6598   -1.5864    0.7238 O   0  0  0  0  0  0  0  0  0  0  0  0
   -0.4898   -1.6711   -0.1214 C   0  0  1  0  0  0  0  0  0  0  0  0
   -1.0331   -3.1151   -0.1473 C   0  0  0  0  0  0  0  0  0  0  0  0
   -2.5678   -3.0131   -0.1304 C   0  0  0  0  0  0  0  0  0  0  0  0
   -2.8408   -1.5280   -0.3270 C   0  0  1  0  0  0  0  0  0  0  0  0
   -4.2148   -0.9570    0.0760 C   0  0  2  0  0  0  0  0  0  0  0  0
   -5.3572   -1.7086   -0.6277 C   0  0  0  0  0  0  0  0  0  0  0  0
   -6.7153   -1.1673   -0.1837 C   0  0  0  0  0  0  0  0  0  0  0  0
   -6.7948    0.3338   -0.3304 C   0  0  0  0  0  0  0  0  0  0  0  0
   -7.9855    0.8855   -0.6250 C   0  0  0  0  0  0  0  0  0  0  0  0
   -8.1913    2.3394   -0.5978 C   0  0  0  0  0  0  0  0  0  0  0  0
   -9.3035    2.8211   -0.9402 O   0  0  0  0  0  0  0  0  0  0  0  0
   -7.1123    3.2405   -0.0895 C   0  0  0  0  0  0  0  0  0  0  0  0
   -5.7381    2.6467   -0.3987 C   0  0  0  0  0  0  0  0  0  0  0  0
   -5.6102    1.1915    0.1231 C   0  0  2  0  0  0  0  0  0  0  0  0
   -4.2622    0.5502   -0.3280 C   0  0  1  0  0  0  0  0  0  0  0  0
   -3.0272    1.3392    0.2087 C   0  0  0  0  0  0  0  0  0  0  0  0
   -1.6718    0.6495   -0.0804 C   0  0  0  0  0  0  0  0  0  0  0  0
   -1.6783   -0.8227    0.3825 C   0  0  2  0  0  0  0  0  0  0  0  0
   -1.7465   -0.8937    1.9421 C   0  0  0  0  0  0  0  0  0  0  0  0
   10.4817    1.0472   -2.3591 H   0  0  0  0  0  0  0  0  0  0  0  0
    9.1857    1.7178   -3.4336 H   0  0  0  0  0  0  0  0  0  0  0  0
   10.4288    2.8142   -2.7207 H   0  0  0  0  0  0  0  0  0  0  0  0
    9.5656    2.3672   -0.4379 H   0  0  0  0  0  0  0  0  0  0  0  0
    8.2731    3.0320   -1.5071 H   0  0  0  0  0  0  0  0  0  0  0  0
    7.4184    0.7092   -1.9137 H   0  0  0  0  0  0  0  0  0  0  0  0
    8.6996    0.0442   -0.8297 H   0  0  0  0  0  0  0  0  0  0  0  0
    6.4562    2.0172   -0.0010 H   0  0  0  0  0  0  0  0  0  0  0  0
    7.7908    1.4580    1.0605 H   0  0  0  0  0  0  0  0  0  0  0  0
    5.9490    0.1053    1.6294 H   0  0  0  0  0  0  0  0  0  0  0  0
    7.0139   -0.9616    0.6541 H   0  0  0  0  0  0  0  0  0  0  0  0
    5.5457   -0.4743   -1.3759 H   0  0  0  0  0  0  0  0  0  0  0  0
    4.4712    0.5147   -0.3519 H   0  0  0  0  0  0  0  0  0  0  0  0
    3.6245   -1.8175   -0.7620 H   0  0  0  0  0  0  0  0  0  0  0  0
    5.1048   -2.5010   -0.0426 H   0  0  0  0  0  0  0  0  0  0  0  0
    3.2114   -2.6211    1.5346 H   0  0  0  0  0  0  0  0  0  0  0  0
    4.5132   -1.6065    2.1949 H   0  0  0  0  0  0  0  0  0  0  0  0
    3.2336    0.4738    1.6034 H   0  0  0  0  0  0  0  0  0  0  0  0
    2.2944   -0.6219    2.6518 H   0  0  0  0  0  0  0  0  0  0  0  0
   -0.2174   -1.3849   -1.1639 H   0  0  0  0  0  0  0  0  0  0  0  0
   -0.6854   -3.6391   -1.0643 H   0  0  0  0  0  0  0  0  0  0  0  0
   -0.6857   -3.6873    0.7410 H   0  0  0  0  0  0  0  0  0  0  0  0
   -2.9743   -3.3615    0.8440 H   0  0  0  0  0  0  0  0  0  0  0  0
   -3.0158   -3.6161   -0.9502 H   0  0  0  0  0  0  0  0  0  0  0  0
   -2.7403   -1.3533   -1.4277 H   0  0  0  0  0  0  0  0  0  0  0  0
   -4.3671   -1.0672    1.1702 H   0  0  0  0  0  0  0  0  0  0  0  0
   -5.2611   -1.6124   -1.7322 H   0  0  0  0  0  0  0  0  0  0  0  0
   -5.3162   -2.7895   -0.3735 H   0  0  0  0  0  0  0  0  0  0  0  0
   -7.5026   -1.6714   -0.7870 H   0  0  0  0  0  0  0  0  0  0  0  0
   -6.8867   -1.4287    0.8831 H   0  0  0  0  0  0  0  0  0  0  0  0
   -8.8312    0.2562   -0.8776 H   0  0  0  0  0  0  0  0  0  0  0  0
   -7.1969    4.2409   -0.5668 H   0  0  0  0  0  0  0  0  0  0  0  0
   -7.2306    3.3621    1.0088 H   0  0  0  0  0  0  0  0  0  0  0  0
   -4.9805    3.2982    0.0845 H   0  0  0  0  0  0  0  0  0  0  0  0
   -5.5700    2.6714   -1.4985 H   0  0  0  0  0  0  0  0  0  0  0  0
   -5.6309    1.2206    1.2355 H   0  0  0  0  0  0  0  0  0  0  0  0
   -4.2169    0.6061   -1.4405 H   0  0  0  0  0  0  0  0  0  0  0  0
   -2.9848    2.3357   -0.2782 H   0  0  0  0  0  0  0  0  0  0  0  0
   -3.1363    1.5197    1.2986 H   0  0  0  0  0  0  0  0  0  0  0  0
   -0.8644    1.2104    0.4371 H   0  0  0  0  0  0  0  0  0  0  0  0
   -1.4676    0.7062   -1.1727 H   0  0  0  0  0  0  0  0  0  0  0  0
   -0.8712   -0.3734    2.3858 H   0  0  0  0  0  0  0  0  0  0  0  0
   -2.6462   -0.4058    2.3606 H   0  0  0  0  0  0  0  0  0  0  0  0
   -1.7344   -1.9410    2.3082 H   0  0  0  0  0  0  0  0  0  0  0  0
  1  2  1  0
  2  3  1  0
  3  4  1  0
  4  5  1  0
  5  6  1  0
  6  7  1  0
  7  8  1  0
  8  9  1  0
  9 10  1  0
 10 11  2  0
 10 12  1  0
 12 13  1  0
 13 14  1  0
 14 15  1  0
 15 16  1  0
 16 17  1  0
 17 18  1  0
 18 19  1  0
 19 20  1  0
 20 21  2  0
 21 22  1  0
 22 23  2  0
 22 24  1  0
 24 25  1  0
 25 26  1  0
 26 27  1  0
 27 28  1  0
 28 29  1  0
 29 30  1  0
 30 31  1  1
 30 13  1  0
 30 16  1  0
 27 17  1  0
 26 20  1  0
  1 32  1  0
  1 33  1  0
  1 34  1  0
  2 35  1  0
  2 36  1  0
  3 37  1  0
  3 38  1  0
  4 39  1  0
  4 40  1  0
  5 41  1  0
  5 42  1  0
  6 43  1  0
  6 44  1  0
  7 45  1  0
  7 46  1  0
  8 47  1  0
  8 48  1  0
  9 49  1  0
  9 50  1  0
 13 51  1  6
 14 52  1  0
 14 53  1  0
 15 54  1  0
 15 55  1  0
 16 56  1  6
 17 57  1  1
 18 58  1  0
 18 59  1  0
 19 60  1  0
 19 61  1  0
 21 62  1  0
 24 63  1  0
 24 64  1  0
 25 65  1  0
 25 66  1  0
 26 67  1  1
 27 68  1  6
 28 69  1  0
 28 70  1  0
 29 71  1  0
 29 72  1  0
 31 73  1  0
 31 74  1  0
 31 75  1  0
M  END
$$$$
