
     RDKit          3D

 51 54  0  0  0  0  0  0  0  0999 V2000
    2.3321   -1.3095    0.0226 C   0  0  2  0  0  0  0  0  0  0  0  0
    3.2411   -1.0804    1.2677 C   0  0  0  0  0  0  0  0  0  0  0  0
    4.2077    0.0370    0.9901 C   0  0  0  0  0  0  0  0  0  0  0  0
    5.3918    0.4243    1.6105 C   0  0  0  0  0  0  0  0  0  0  0  0
    5.8293    1.5988    1.0785 N   0  0  0  0  0  0  0  0  0  0  0  0
    4.9154    1.9499    0.1512 C   0  0  0  0  0  0  0  0  0  0  0  0
    4.8540    3.0998   -0.6359 C   0  0  0  0  0  0  0  0  0  0  0  0
    3.7326    3.2510   -1.4860 C   0  0  0  0  0  0  0  0  0  0  0  0
    2.7056    2.2695   -1.5160 C   0  0  0  0  0  0  0  0  0  0  0  0
    2.8077    1.1210   -0.6977 C   0  0  0  0  0  0  0  0  0  0  0  0
    3.9328    1.0189    0.0934 C   0  0  0  0  0  0  0  0  0  0  0  0
    1.8087    0.0264   -0.5545 C   0  0  0  0  0  0  0  0  0  0  0  0
    0.5053    0.2439   -0.7777 C   0  0  0  0  0  0  0  0  0  0  0  0
   -0.5292   -0.7960   -0.4684 C   0  0  1  0  0  0  0  0  0  0  0  0
   -0.0328   -1.7007    0.6683 C   0  0  0  0  0  0  0  0  0  0  0  0
    1.2764   -2.3041    0.3523 N   0  0  0  0  0  0  0  0  0  0  0  0
    1.1695   -3.3593   -0.6714 C   0  0  0  0  0  0  0  0  0  0  0  0
   -1.7815   -0.1494   -0.0679 N   0  0  0  0  0  0  0  0  0  0  0  0
   -3.0651   -0.7494   -0.3190 C   0  0  0  0  0  0  0  0  0  0  0  0
   -3.1157   -1.9047   -0.8249 O   0  0  0  0  0  0  0  0  0  0  0  0
   -4.2973   -0.0574   -0.0010 N   0  0  0  0  0  0  0  0  0  0  0  0
   -4.3154    1.3768    0.3306 C   0  0  0  0  0  0  0  0  0  0  0  0
   -3.9720    2.2223   -0.8927 C   0  0  0  0  0  0  0  0  0  0  0  0
   -5.5696   -0.7956   -0.0428 C   0  0  0  0  0  0  0  0  0  0  0  0
   -5.7167   -1.6753    1.1940 C   0  0  0  0  0  0  0  0  0  0  0  0
    3.0103   -1.7233   -0.7608 H   0  0  0  0  0  0  0  0  0  0  0  0
    2.6170   -0.8026    2.1439 H   0  0  0  0  0  0  0  0  0  0  0  0
    3.8009   -2.0102    1.5054 H   0  0  0  0  0  0  0  0  0  0  0  0
    5.8876   -0.1013    2.4158 H   0  0  0  0  0  0  0  0  0  0  0  0
    6.6796    2.1353    1.3601 H   0  0  0  0  0  0  0  0  0  0  0  0
    5.6292    3.8536   -0.5909 H   0  0  0  0  0  0  0  0  0  0  0  0
    3.6515    4.1296   -2.1125 H   0  0  0  0  0  0  0  0  0  0  0  0
    1.8577    2.4099   -2.1726 H   0  0  0  0  0  0  0  0  0  0  0  0
    0.1662    1.2035   -1.1474 H   0  0  0  0  0  0  0  0  0  0  0  0
   -0.6963   -1.3923   -1.3903 H   0  0  0  0  0  0  0  0  0  0  0  0
    0.0621   -1.1047    1.6032 H   0  0  0  0  0  0  0  0  0  0  0  0
   -0.7847   -2.4938    0.8760 H   0  0  0  0  0  0  0  0  0  0  0  0
    1.0073   -2.9274   -1.6824 H   0  0  0  0  0  0  0  0  0  0  0  0
    2.1064   -3.9559   -0.6886 H   0  0  0  0  0  0  0  0  0  0  0  0
    0.3409   -4.0602   -0.4328 H   0  0  0  0  0  0  0  0  0  0  0  0
   -1.7146    0.6912    0.5464 H   0  0  0  0  0  0  0  0  0  0  0  0
   -3.6181    1.5929    1.1656 H   0  0  0  0  0  0  0  0  0  0  0  0
   -5.3203    1.6853    0.6921 H   0  0  0  0  0  0  0  0  0  0  0  0
   -4.6900    2.0100   -1.7130 H   0  0  0  0  0  0  0  0  0  0  0  0
   -4.0366    3.2994   -0.6307 H   0  0  0  0  0  0  0  0  0  0  0  0
   -2.9428    2.0067   -1.2463 H   0  0  0  0  0  0  0  0  0  0  0  0
   -6.4341   -0.0983   -0.0883 H   0  0  0  0  0  0  0  0  0  0  0  0
   -5.6208   -1.4207   -0.9605 H   0  0  0  0  0  0  0  0  0  0  0  0
   -4.9019   -2.4285    1.2339 H   0  0  0  0  0  0  0  0  0  0  0  0
   -6.6911   -2.2065    1.1606 H   0  0  0  0  0  0  0  0  0  0  0  0
   -5.6802   -1.0496    2.1109 H   0  0  0  0  0  0  0  0  0  0  0  0
  1  2  1  0
  2  3  1  0
  3  4  2  0
  4  5  1  0
  5  6  1  0
  6  7  2  0
  7  8  1  0
  8  9  2  0
  9 10  1  0
 10 11  2  0
 10 12  1  0
 12 13  2  0
 13 14  1  0
 14 15  1  0
 15 16  1  0
 16 17  1  0
 14 18  1  0
 18 19  1  0
 19 20  2  0
 19 21  1  0
 21 22  1  0
 22 23  1  0
 21 24  1  0
 24 25  1  0
 12  1  1  0
 16  1  1  0
 11  3  1  0
 11  6  1  0
  1 26  1  6
  2 27  1  0
  2 28  1  0
  4 29  1  0
  5 30  1  0
  7 31  1  0
  8 32  1  0
  9 33  1  0
 13 34  1  0
 14 35  1  6
 15 36  1  0
 15 37  1  0
 17 38  1  0
 17 39  1  0
 17 40  1  0
 18 41  1  0
 22 42  1  0
 22 43  1  0
 23 44  1  0
 23 45  1  0
 23 46  1  0
 24 47  1  0
 24 48  1  0
 25 49  1  0
 25 50  1  0
 25 51  1  0
M  END
$$$$
