
     RDKit          3D

 55 57  0  0  0  0  0  0  0  0999 V2000
    7.2518   -2.2702   -0.5577 C   0  0  0  0  0  0  0  0  0  0  0  0
    5.9247   -2.6785   -0.2425 O   0  0  0  0  0  0  0  0  0  0  0  0
    4.8869   -1.7999    0.1023 C   0  0  0  0  0  0  0  0  0  0  0  0
    3.6274   -2.3377    0.3867 C   0  0  0  0  0  0  0  0  0  0  0  0
    2.5605   -1.5050    0.7342 C   0  0  0  0  0  0  0  0  0  0  0  0
    2.7386   -0.1120    0.8126 C   0  0  0  0  0  0  0  0  0  0  0  0
    4.0018    0.4282    0.5169 C   0  0  0  0  0  0  0  0  0  0  0  0
    5.0681   -0.4060    0.1689 C   0  0  0  0  0  0  0  0  0  0  0  0
    1.5792    0.8090    1.1441 C   0  0  2  0  0  0  0  0  0  0  0  0
    0.7722    0.2394    2.7002 S   0  0  0  0  0  0  0  0  0  0  0  0
   -0.6185    1.3771    2.6375 C   0  0  0  0  0  0  0  0  0  0  0  0
   -1.7115    1.1355    1.7761 C   0  0  0  0  0  0  0  0  0  0  0  0
   -2.8230    1.9957    1.8275 C   0  0  0  0  0  0  0  0  0  0  0  0
   -2.8357    3.0851    2.7026 C   0  0  0  0  0  0  0  0  0  0  0  0
   -1.7401    3.3308    3.5322 C   0  0  0  0  0  0  0  0  0  0  0  0
   -0.6345    2.4785    3.5010 C   0  0  0  0  0  0  0  0  0  0  0  0
   -1.6576    0.0711    0.7991 N   0  0  0  0  0  0  0  0  0  0  0  0
   -2.8023   -0.8382    0.6420 C   0  0  0  0  0  0  0  0  0  0  0  0
   -3.5303   -0.5767   -0.6857 C   0  0  0  0  0  0  0  0  0  0  0  0
   -4.8409   -1.2617   -0.7114 N   0  0  0  0  0  0  0  0  0  0  0  0
   -4.6843   -2.6925   -1.0280 C   0  0  0  0  0  0  0  0  0  0  0  0
   -5.7193   -0.6341   -1.7121 C   0  0  0  0  0  0  0  0  0  0  0  0
   -0.4883   -0.0913   -0.0374 C   0  0  0  0  0  0  0  0  0  0  0  0
   -0.3534   -1.1302   -0.7407 O   0  0  0  0  0  0  0  0  0  0  0  0
    0.5994    0.9607   -0.0537 C   0  0  2  0  0  0  0  0  0  0  0  0
    1.3151    0.9332   -1.2925 O   0  0  0  0  0  0  0  0  0  0  0  0
    0.7553    1.3181   -2.5159 C   0  0  0  0  0  0  0  0  0  0  0  0
    1.5691    1.2111   -3.7598 C   0  0  0  0  0  0  0  0  0  0  0  0
   -0.4397    1.7153   -2.5833 O   0  0  0  0  0  0  0  0  0  0  0  0
    7.7066   -1.7469    0.3098 H   0  0  0  0  0  0  0  0  0  0  0  0
    7.8613   -3.1672   -0.7909 H   0  0  0  0  0  0  0  0  0  0  0  0
    7.2454   -1.6039   -1.4461 H   0  0  0  0  0  0  0  0  0  0  0  0
    3.4738   -3.4082    0.3354 H   0  0  0  0  0  0  0  0  0  0  0  0
    1.5970   -1.9501    0.9447 H   0  0  0  0  0  0  0  0  0  0  0  0
    4.1628    1.4986    0.5499 H   0  0  0  0  0  0  0  0  0  0  0  0
    6.0271    0.0432   -0.0501 H   0  0  0  0  0  0  0  0  0  0  0  0
    1.9836    1.8217    1.3659 H   0  0  0  0  0  0  0  0  0  0  0  0
   -3.6711    1.8403    1.1753 H   0  0  0  0  0  0  0  0  0  0  0  0
   -3.6923    3.7461    2.7299 H   0  0  0  0  0  0  0  0  0  0  0  0
   -1.7510    4.1780    4.2057 H   0  0  0  0  0  0  0  0  0  0  0  0
    0.2027    2.6650    4.1616 H   0  0  0  0  0  0  0  0  0  0  0  0
   -3.5152   -0.7100    1.4864 H   0  0  0  0  0  0  0  0  0  0  0  0
   -2.4404   -1.8871    0.6818 H   0  0  0  0  0  0  0  0  0  0  0  0
   -3.6706    0.5229   -0.7805 H   0  0  0  0  0  0  0  0  0  0  0  0
   -2.8949   -0.8937   -1.5431 H   0  0  0  0  0  0  0  0  0  0  0  0
   -5.6767   -3.1928   -1.0428 H   0  0  0  0  0  0  0  0  0  0  0  0
   -4.1941   -2.8389   -2.0164 H   0  0  0  0  0  0  0  0  0  0  0  0
   -4.0852   -3.2015   -0.2455 H   0  0  0  0  0  0  0  0  0  0  0  0
   -5.2630   -0.6689   -2.7269 H   0  0  0  0  0  0  0  0  0  0  0  0
   -6.7046   -1.1480   -1.7385 H   0  0  0  0  0  0  0  0  0  0  0  0
   -5.9156    0.4248   -1.4378 H   0  0  0  0  0  0  0  0  0  0  0  0
    0.1185    1.9608    0.0302 H   0  0  0  0  0  0  0  0  0  0  0  0
    1.3205    0.2648   -4.2835 H   0  0  0  0  0  0  0  0  0  0  0  0
    2.6502    1.2142   -3.5071 H   0  0  0  0  0  0  0  0  0  0  0  0
    1.3546    2.0698   -4.4303 H   0  0  0  0  0  0  0  0  0  0  0  0
  1  2  1  0
  2  3  1  0
  3  4  2  0
  4  5  1  0
  5  6  2  0
  6  7  1  0
  7  8  2  0
  6  9  1  0
  9 10  1  0
 10 11  1  0
 11 12  2  0
 12 13  1  0
 13 14  2  0
 14 15  1  0
 15 16  2  0
 12 17  1  0
 17 18  1  0
 18 19  1  0
 19 20  1  0
 20 21  1  0
 20 22  1  0
 17 23  1  0
 23 24  2  0
 23 25  1  0
 25 26  1  0
 26 27  1  0
 27 28  1  0
 27 29  2  0
  8  3  1  0
 25  9  1  0
 16 11  1  0
  1 30  1  0
  1 31  1  0
  1 32  1  0
  4 33  1  0
  5 34  1  0
  7 35  1  0
  8 36  1  0
  9 37  1  1
 13 38  1  0
 14 39  1  0
 15 40  1  0
 16 41  1  0
 18 42  1  0
 18 43  1  0
 19 44  1  0
 19 45  1  0
 21 46  1  0
 21 47  1  0
 21 48  1  0
 22 49  1  0
 22 50  1  0
 22 51  1  0
 25 52  1  1
 28 53  1  0
 28 54  1  0
 28 55  1  0
M  END
$$$$
