
     RDKit          3D

 27 27  0  0  0  0  0  0  0  0999 V2000
   -1.5456    2.6249    0.0013 N   0  0  0  0  0  0  0  0  0  0  0  0
   -2.0964    1.3908   -0.4652 C   0  0  0  0  0  0  0  0  0  0  0  0
   -3.3478    1.2753   -0.5604 O   0  0  0  0  0  0  0  0  0  0  0  0
   -1.2222    0.2144   -0.8330 C   0  0  1  0  0  0  0  0  0  0  0  0
    0.1380    0.6025   -1.0219 O   0  0  0  0  0  0  0  0  0  0  0  0
    0.9529    0.3166    0.1012 C   0  0  2  0  0  0  0  0  0  0  0  0
    2.3272    0.9635   -0.1032 C   0  0  0  0  0  0  0  0  0  0  0  0
    2.1873    2.3536   -0.2012 O   0  0  0  0  0  0  0  0  0  0  0  0
    1.0936   -1.2182    0.2895 C   0  0  1  0  0  0  0  0  0  0  0  0
    1.5811   -1.5139    1.5756 O   0  0  0  0  0  0  0  0  0  0  0  0
   -0.2441   -1.9623    0.0207 C   0  0  2  0  0  0  0  0  0  0  0  0
   -0.2288   -2.5348   -1.2634 O   0  0  0  0  0  0  0  0  0  0  0  0
   -1.4404   -1.0004    0.1188 C   0  0  1  0  0  0  0  0  0  0  0  0
   -1.6052   -0.5673    1.4476 O   0  0  0  0  0  0  0  0  0  0  0  0
   -2.1802    3.4106    0.2663 H   0  0  0  0  0  0  0  0  0  0  0  0
   -0.5170    2.7785    0.0715 H   0  0  0  0  0  0  0  0  0  0  0  0
   -1.5743   -0.1176   -1.8345 H   0  0  0  0  0  0  0  0  0  0  0  0
    0.5134    0.7749    1.0171 H   0  0  0  0  0  0  0  0  0  0  0  0
    2.9863    0.7187    0.7600 H   0  0  0  0  0  0  0  0  0  0  0  0
    2.7932    0.5696   -1.0347 H   0  0  0  0  0  0  0  0  0  0  0  0
    3.1024    2.7140   -0.3340 H   0  0  0  0  0  0  0  0  0  0  0  0
    1.8475   -1.5956   -0.4370 H   0  0  0  0  0  0  0  0  0  0  0  0
    0.9006   -1.2129    2.2328 H   0  0  0  0  0  0  0  0  0  0  0  0
   -0.3865   -2.7741    0.7733 H   0  0  0  0  0  0  0  0  0  0  0  0
    0.3356   -3.3500   -1.2084 H   0  0  0  0  0  0  0  0  0  0  0  0
   -2.3651   -1.5362   -0.2037 H   0  0  0  0  0  0  0  0  0  0  0  0
   -2.0052   -1.3244    1.9503 H   0  0  0  0  0  0  0  0  0  0  0  0
  1  2  1  0
  2  3  2  0
  2  4  1  0
  4  5  1  0
  5  6  1  0
  6  7  1  0
  7  8  1  0
  6  9  1  0
  9 10  1  0
  9 11  1  0
 11 12  1  0
 11 13  1  0
 13 14  1  0
 13  4  1  0
  1 15  1  0
  1 16  1  0
  4 17  1  6
  6 18  1  1
  7 19  1  0
  7 20  1  0
  8 21  1  0
  9 22  1  6
 10 23  1  0
 11 24  1  1
 12 25  1  0
 13 26  1  6
 14 27  1  0
M  END
$$$$
