
     RDKit          3D

169173  0  0  0  0  0  0  0  0999 V2000
   -1.3670    1.3604   -0.3308 C   0  0  2  0  0  0  0  0  0  0  0  0
   -1.6235   -0.1577   -0.3075 C   0  0  0  0  0  0  0  0  0  0  0  0
   -2.3075   -0.6071    0.9992 C   0  0  0  0  0  0  0  0  0  0  0  0
   -2.8506    0.5700    1.8170 C   0  0  0  0  0  0  0  0  0  0  0  0
   -3.3932    1.5983    0.9179 N   0  0  0  0  0  0  0  0  0  0  0  0
   -2.6280    2.1129   -0.1608 N   0  0  0  0  0  0  0  0  0  0  0  0
   -4.7885    1.9311    1.0130 C   0  0  0  0  0  0  0  0  0  0  0  0
   -5.6342    0.9955    1.0092 O   0  0  0  0  0  0  0  0  0  0  0  0
   -5.2390    3.3751    1.1553 C   0  0  2  0  0  0  0  0  0  0  0  0
   -6.7791    3.5116    1.2374 C   0  0  0  0  0  0  0  0  0  0  0  0
   -7.3245    3.0654    2.5727 C   0  0  0  0  0  0  0  0  0  0  0  0
   -7.1414    3.8676    3.7116 C   0  0  0  0  0  0  0  0  0  0  0  0
   -7.6316    3.4540    4.9580 C   0  0  0  0  0  0  0  0  0  0  0  0
   -7.4455    4.2430    6.0909 O   0  0  0  0  0  0  0  0  0  0  0  0
   -8.3149    2.2390    5.0673 C   0  0  0  0  0  0  0  0  0  0  0  0
   -8.5131    1.4418    3.9371 C   0  0  0  0  0  0  0  0  0  0  0  0
   -8.0236    1.8525    2.6938 C   0  0  0  0  0  0  0  0  0  0  0  0
   -4.7458    4.1669    0.0258 N   0  0  0  0  0  0  0  0  0  0  0  0
   -4.1751    5.4798    0.1549 C   0  0  0  0  0  0  0  0  0  0  0  0
   -3.2846    5.8351   -0.6638 O   0  0  0  0  0  0  0  0  0  0  0  0
   -4.6709    6.4817    1.1789 C   0  0  1  0  0  0  0  0  0  0  0  0
   -3.5367    6.9433    1.9932 N   0  0  0  0  0  0  0  0  0  0  0  0
   -3.3321    6.5275    3.3601 C   0  0  0  0  0  0  0  0  0  0  0  0
   -4.1300    5.7039    3.8840 O   0  0  0  0  0  0  0  0  0  0  0  0
   -2.1682    7.0171    4.2064 C   0  0  2  0  0  0  0  0  0  0  0  0
   -1.6593    8.4485    3.8667 C   0  0  0  0  0  0  0  0  0  0  0  0
   -2.6752    9.5445    4.2349 C   0  0  0  0  0  0  0  0  0  0  0  0
   -2.7439    9.7733    5.7227 C   0  0  0  0  0  0  0  0  0  0  0  0
   -1.6440   10.4911    6.4458 C   0  0  0  0  0  0  0  0  0  0  0  0
   -3.6986    9.3501    6.3565 O   0  0  0  0  0  0  0  0  0  0  0  0
   -1.0453    5.9408    4.3932 C   0  0  2  0  0  0  0  0  0  0  0  0
   -0.0137    6.4518    5.2024 O   0  0  0  0  0  0  0  0  0  0  0  0
   -0.4101    5.2810    3.1275 C   0  0  1  0  0  0  0  0  0  0  0  0
   -1.3547    4.2642    2.4550 C   0  0  0  0  0  0  0  0  0  0  0  0
    0.1870    6.2802    2.1006 C   0  0  1  0  0  0  0  0  0  0  0  0
    1.0873    7.1526    2.7340 O   0  0  0  0  0  0  0  0  0  0  0  0
    0.8819    5.5699    0.9654 C   0  0  0  0  0  0  0  0  0  0  0  0
    1.9897    4.8387    1.1486 C   0  0  0  0  0  0  0  0  0  0  0  0
    2.5613    3.9797    0.0946 C   0  0  0  0  0  0  0  0  0  0  0  0
    2.4405    4.2348   -1.2144 C   0  0  0  0  0  0  0  0  0  0  0  0
    2.7402    3.1790   -2.2394 C   0  0  0  0  0  0  0  0  0  0  0  0
    1.4286    2.5249   -2.7032 C   0  0  2  0  0  0  0  0  0  0  0  0
    0.6866    2.0800   -1.5640 O   0  0  0  0  0  0  0  0  0  0  0  0
   -0.6728    1.7563   -1.6048 C   0  0  0  0  0  0  0  0  0  0  0  0
   -1.3010    1.7620   -2.6994 O   0  0  0  0  0  0  0  0  0  0  0  0
    1.7050    1.3673   -3.6425 C   0  0  0  0  0  0  0  0  0  0  0  0
    1.5413    1.5880   -5.1259 C   0  0  0  0  0  0  0  0  0  0  0  0
    2.1515    0.1970   -3.1392 C   0  0  0  0  0  0  0  0  0  0  0  0
    2.4585   -1.0042   -3.9372 C   0  0  0  0  0  0  0  0  0  0  0  0
    1.5666   -1.5674   -4.7591 C   0  0  0  0  0  0  0  0  0  0  0  0
    1.8802   -2.8287   -5.5107 C   0  0  0  0  0  0  0  0  0  0  0  0
    1.8896   -4.0431   -4.5691 C   0  0  0  0  0  0  0  0  0  0  0  0
    2.2646   -5.3604   -5.3031 C   0  0  2  0  0  0  0  0  0  0  0  0
    1.0253   -5.9278   -6.0228 C   0  0  0  0  0  0  0  0  0  0  0  0
    2.8604   -6.3988   -4.3040 C   0  0  1  0  0  0  0  0  0  0  0  0
    2.8239   -7.7040   -4.8318 O   0  0  0  0  0  0  0  0  0  0  0  0
    4.3213   -6.0455   -3.8958 C   0  0  0  0  0  0  0  0  0  0  0  0
    4.7146   -6.5631   -2.4942 C   0  0  2  0  0  0  0  0  0  0  0  0
    4.2787   -7.9069   -2.3681 O   0  0  0  0  0  0  0  0  0  0  0  0
    4.8987   -8.5964   -1.2859 C   0  0  2  0  0  0  0  0  0  0  0  0
    6.2815   -8.9473   -1.6877 N   0  0  0  0  0  0  0  0  0  0  0  0
    6.5904  -10.0883   -2.4990 C   0  0  0  0  0  0  0  0  0  0  0  0
    7.6474  -10.0944   -3.1858 O   0  0  0  0  0  0  0  0  0  0  0  0
    5.7037  -11.2995   -2.4960 C   0  0  1  0  0  0  0  0  0  0  0  0
    6.1681  -12.3249   -1.4350 C   0  0  0  0  0  0  0  0  0  0  0  0
    7.4728  -13.0196   -1.8261 C   0  0  0  0  0  0  0  0  0  0  0  0
    4.2444  -10.8727   -2.2772 C   0  0  0  0  0  0  0  0  0  0  0  0
    4.0864   -9.9241   -1.0686 C   0  0  2  0  0  0  0  0  0  0  0  0
    2.5842   -9.6844   -0.8164 C   0  0  0  0  0  0  0  0  0  0  0  0
    4.8689   -7.7353    0.0558 C   0  0  1  0  0  0  0  0  0  0  0  0
    6.2517   -7.3083    0.5925 C   0  0  0  0  0  0  0  0  0  0  0  0
    3.8907   -6.5347   -0.0745 C   0  0  1  0  0  0  0  0  0  0  0  0
    3.9030   -5.7522    1.0944 O   0  0  0  0  0  0  0  0  0  0  0  0
    4.1266   -5.6836   -1.3539 C   0  0  1  0  0  0  0  0  0  0  0  0
    4.9849   -4.4256   -1.1065 C   0  0  0  0  0  0  0  0  0  0  0  0
   -5.3595    7.6836    0.4710 C   0  0  0  0  0  0  0  0  0  0  0  0
   -6.6165    7.2415   -0.2977 C   0  0  0  0  0  0  0  0  0  0  0  0
   -5.7401    8.7842    1.4721 C   0  0  0  0  0  0  0  0  0  0  0  0
   -0.6822    1.6139    0.5072 H   0  0  0  0  0  0  0  0  0  0  0  0
   -0.6609   -0.7027   -0.4263 H   0  0  0  0  0  0  0  0  0  0  0  0
   -2.2721   -0.4310   -1.1696 H   0  0  0  0  0  0  0  0  0  0  0  0
   -1.5857   -1.1748    1.6259 H   0  0  0  0  0  0  0  0  0  0  0  0
   -3.1460   -1.2945    0.7521 H   0  0  0  0  0  0  0  0  0  0  0  0
   -3.6200    0.2077    2.5342 H   0  0  0  0  0  0  0  0  0  0  0  0
   -2.0290    1.0163    2.4179 H   0  0  0  0  0  0  0  0  0  0  0  0
   -3.1985    1.9699   -1.0276 H   0  0  0  0  0  0  0  0  0  0  0  0
   -4.7827    3.7592    2.0929 H   0  0  0  0  0  0  0  0  0  0  0  0
   -7.2553    2.9480    0.4049 H   0  0  0  0  0  0  0  0  0  0  0  0
   -7.0725    4.5698    1.0861 H   0  0  0  0  0  0  0  0  0  0  0  0
   -6.6242    4.8139    3.6299 H   0  0  0  0  0  0  0  0  0  0  0  0
   -6.9529    5.1274    6.0451 H   0  0  0  0  0  0  0  0  0  0  0  0
   -8.6960    1.9150    6.0273 H   0  0  0  0  0  0  0  0  0  0  0  0
   -9.0476    0.5047    4.0243 H   0  0  0  0  0  0  0  0  0  0  0  0
   -8.1917    1.2248    1.8278 H   0  0  0  0  0  0  0  0  0  0  0  0
   -4.7903    3.7517   -0.9324 H   0  0  0  0  0  0  0  0  0  0  0  0
   -5.4292    6.0117    1.8341 H   0  0  0  0  0  0  0  0  0  0  0  0
   -2.8328    7.5465    1.5184 H   0  0  0  0  0  0  0  0  0  0  0  0
   -2.5950    7.1127    5.2300 H   0  0  0  0  0  0  0  0  0  0  0  0
   -0.7133    8.6599    4.4078 H   0  0  0  0  0  0  0  0  0  0  0  0
   -1.4110    8.5570    2.7975 H   0  0  0  0  0  0  0  0  0  0  0  0
   -2.3794   10.4959    3.7424 H   0  0  0  0  0  0  0  0  0  0  0  0
   -3.6811    9.2767    3.8532 H   0  0  0  0  0  0  0  0  0  0  0  0
   -0.8568   10.8277    5.7385 H   0  0  0  0  0  0  0  0  0  0  0  0
   -1.1856    9.8107    7.1935 H   0  0  0  0  0  0  0  0  0  0  0  0
   -2.0584   11.3800    6.9658 H   0  0  0  0  0  0  0  0  0  0  0  0
   -1.5145    5.1021    4.9624 H   0  0  0  0  0  0  0  0  0  0  0  0
   -0.3818    6.5572    6.1189 H   0  0  0  0  0  0  0  0  0  0  0  0
    0.4369    4.6720    3.5174 H   0  0  0  0  0  0  0  0  0  0  0  0
   -0.7628    3.5500    1.8482 H   0  0  0  0  0  0  0  0  0  0  0  0
   -2.0685    4.7626    1.7759 H   0  0  0  0  0  0  0  0  0  0  0  0
   -1.9175    3.6707    3.2059 H   0  0  0  0  0  0  0  0  0  0  0  0
   -0.6457    6.8546    1.6495 H   0  0  0  0  0  0  0  0  0  0  0  0
    1.2040    7.9331    2.1312 H   0  0  0  0  0  0  0  0  0  0  0  0
    0.4056    5.6110   -0.0060 H   0  0  0  0  0  0  0  0  0  0  0  0
    2.4114    4.7539    2.1423 H   0  0  0  0  0  0  0  0  0  0  0  0
    3.0580    3.0726    0.4171 H   0  0  0  0  0  0  0  0  0  0  0  0
    1.9751    5.1494   -1.5588 H   0  0  0  0  0  0  0  0  0  0  0  0
    3.4331    2.4141   -1.8238 H   0  0  0  0  0  0  0  0  0  0  0  0
    3.2440    3.6555   -3.1079 H   0  0  0  0  0  0  0  0  0  0  0  0
    0.8332    3.3063   -3.2282 H   0  0  0  0  0  0  0  0  0  0  0  0
    0.6244    1.0829   -5.4900 H   0  0  0  0  0  0  0  0  0  0  0  0
    2.4274    1.2053   -5.6752 H   0  0  0  0  0  0  0  0  0  0  0  0
    1.4473    2.6691   -5.3602 H   0  0  0  0  0  0  0  0  0  0  0  0
    2.3720    0.1314   -2.0805 H   0  0  0  0  0  0  0  0  0  0  0  0
    3.4021   -1.5027   -3.7512 H   0  0  0  0  0  0  0  0  0  0  0  0
    0.5861   -1.1273   -4.8859 H   0  0  0  0  0  0  0  0  0  0  0  0
    2.8658   -2.7226   -6.0147 H   0  0  0  0  0  0  0  0  0  0  0  0
    1.1075   -2.9672   -6.2950 H   0  0  0  0  0  0  0  0  0  0  0  0
    0.8920   -4.1475   -4.0868 H   0  0  0  0  0  0  0  0  0  0  0  0
    2.6071   -3.8378   -3.7486 H   0  0  0  0  0  0  0  0  0  0  0  0
    3.0355   -5.1476   -6.0778 H   0  0  0  0  0  0  0  0  0  0  0  0
    1.3016   -6.7987   -6.6532 H   0  0  0  0  0  0  0  0  0  0  0  0
    0.5767   -5.1707   -6.6976 H   0  0  0  0  0  0  0  0  0  0  0  0
    0.2582   -6.2474   -5.2851 H   0  0  0  0  0  0  0  0  0  0  0  0
    2.2084   -6.4021   -3.4045 H   0  0  0  0  0  0  0  0  0  0  0  0
    3.3531   -7.7038   -5.6722 H   0  0  0  0  0  0  0  0  0  0  0  0
    4.5080   -4.9551   -3.9516 H   0  0  0  0  0  0  0  0  0  0  0  0
    5.0203   -6.4887   -4.6388 H   0  0  0  0  0  0  0  0  0  0  0  0
    5.8243   -6.5066   -2.4526 H   0  0  0  0  0  0  0  0  0  0  0  0
    7.0211   -8.2121   -1.6859 H   0  0  0  0  0  0  0  0  0  0  0  0
    5.7540  -11.7822   -3.4980 H   0  0  0  0  0  0  0  0  0  0  0  0
    5.3916  -13.1111   -1.3123 H   0  0  0  0  0  0  0  0  0  0  0  0
    6.3105  -11.8317   -0.4492 H   0  0  0  0  0  0  0  0  0  0  0  0
    7.7175  -13.7978   -1.0727 H   0  0  0  0  0  0  0  0  0  0  0  0
    8.3103  -12.2922   -1.8571 H   0  0  0  0  0  0  0  0  0  0  0  0
    7.3706  -13.5089   -2.8180 H   0  0  0  0  0  0  0  0  0  0  0  0
    3.6162  -11.7806   -2.1404 H   0  0  0  0  0  0  0  0  0  0  0  0
    3.8742  -10.3654   -3.1962 H   0  0  0  0  0  0  0  0  0  0  0  0
    4.4828  -10.4449   -0.1701 H   0  0  0  0  0  0  0  0  0  0  0  0
    2.0414  -10.6527   -0.7708 H   0  0  0  0  0  0  0  0  0  0  0  0
    2.1334   -9.0707   -1.6250 H   0  0  0  0  0  0  0  0  0  0  0  0
    2.4179   -9.1889    0.1606 H   0  0  0  0  0  0  0  0  0  0  0  0
    4.4630   -8.3633    0.8797 H   0  0  0  0  0  0  0  0  0  0  0  0
    6.1502   -6.7733    1.5601 H   0  0  0  0  0  0  0  0  0  0  0  0
    6.7864   -6.6481   -0.1150 H   0  0  0  0  0  0  0  0  0  0  0  0
    6.8764   -8.2066    0.7852 H   0  0  0  0  0  0  0  0  0  0  0  0
    2.8722   -6.9739   -0.1770 H   0  0  0  0  0  0  0  0  0  0  0  0
    3.0655   -5.2184    1.0934 H   0  0  0  0  0  0  0  0  0  0  0  0
    3.1281   -5.3044   -1.6620 H   0  0  0  0  0  0  0  0  0  0  0  0
    5.0996   -3.8408   -2.0419 H   0  0  0  0  0  0  0  0  0  0  0  0
    4.4922   -3.7581   -0.3688 H   0  0  0  0  0  0  0  0  0  0  0  0
    5.9946   -4.6803   -0.7342 H   0  0  0  0  0  0  0  0  0  0  0  0
   -4.6500    8.1287   -0.2623 H   0  0  0  0  0  0  0  0  0  0  0  0
   -7.0507    8.1038   -0.8473 H   0  0  0  0  0  0  0  0  0  0  0  0
   -7.3840    6.8470    0.4013 H   0  0  0  0  0  0  0  0  0  0  0  0
   -6.3709    6.4589   -1.0455 H   0  0  0  0  0  0  0  0  0  0  0  0
   -6.3374    9.5770    0.9728 H   0  0  0  0  0  0  0  0  0  0  0  0
   -4.8267    9.2678    1.8703 H   0  0  0  0  0  0  0  0  0  0  0  0
   -6.3326    8.3645    2.3134 H   0  0  0  0  0  0  0  0  0  0  0  0
  1  2  1  0
  2  3  1  0
  3  4  1  0
  4  5  1  0
  5  6  1  0
  5  7  1  0
  7  8  2  0
  7  9  1  0
  9 10  1  0
 10 11  1  0
 11 12  2  0
 12 13  1  0
 13 14  1  0
 13 15  2  0
 15 16  1  0
 16 17  2  0
  9 18  1  0
 18 19  1  0
 19 20  2  0
 19 21  1  0
 21 22  1  0
 22 23  1  0
 23 24  2  0
 23 25  1  0
 25 26  1  0
 26 27  1  0
 27 28  1  0
 28 29  1  0
 28 30  2  0
 25 31  1  0
 31 32  1  0
 31 33  1  0
 33 34  1  0
 33 35  1  0
 35 36  1  0
 35 37  1  0
 37 38  2  0
 38 39  1  0
 39 40  2  0
 40 41  1  0
 41 42  1  0
 42 43  1  0
 43 44  1  0
 44 45  2  0
 42 46  1  0
 46 47  1  0
 46 48  2  0
 48 49  1  0
 49 50  2  0
 50 51  1  0
 51 52  1  0
 52 53  1  0
 53 54  1  0
 53 55  1  0
 55 56  1  0
 55 57  1  0
 57 58  1  0
 58 59  1  0
 60 59  1  6
 60 61  1  0
 61 62  1  0
 62 63  2  0
 62 64  1  0
 64 65  1  0
 65 66  1  0
 64 67  1  0
 67 68  1  0
 68 69  1  0
 60 70  1  0
 70 71  1  0
 70 72  1  0
 72 73  1  0
 72 74  1  0
 74 75  1  0
 21 76  1  0
 76 77  1  0
 76 78  1  0
  6  1  1  0
 17 11  1  0
 74 58  1  0
 44  1  1  0
 68 60  1  0
  1 79  1  1
  2 80  1  0
  2 81  1  0
  3 82  1  0
  3 83  1  0
  4 84  1  0
  4 85  1  0
  6 86  1  0
  9 87  1  1
 10 88  1  0
 10 89  1  0
 12 90  1  0
 14 91  1  0
 15 92  1  0
 16 93  1  0
 17 94  1  0
 18 95  1  0
 21 96  1  1
 22 97  1  0
 25 98  1  1
 26 99  1  0
 26100  1  0
 27101  1  0
 27102  1  0
 29103  1  0
 29104  1  0
 29105  1  0
 31106  1  1
 32107  1  0
 33108  1  1
 34109  1  0
 34110  1  0
 34111  1  0
 35112  1  6
 36113  1  0
 37114  1  0
 38115  1  0
 39116  1  0
 40117  1  0
 41118  1  0
 41119  1  0
 42120  1  6
 47121  1  0
 47122  1  0
 47123  1  0
 48124  1  0
 49125  1  0
 50126  1  0
 51127  1  0
 51128  1  0
 52129  1  0
 52130  1  0
 53131  1  6
 54132  1  0
 54133  1  0
 54134  1  0
 55135  1  1
 56136  1  0
 57137  1  0
 57138  1  0
 58139  1  6
 61140  1  0
 64141  1  6
 65142  1  0
 65143  1  0
 66144  1  0
 66145  1  0
 66146  1  0
 67147  1  0
 67148  1  0
 68149  1  1
 69150  1  0
 69151  1  0
 69152  1  0
 70153  1  1
 71154  1  0
 71155  1  0
 71156  1  0
 72157  1  6
 73158  1  0
 74159  1  6
 75160  1  0
 75161  1  0
 75162  1  0
 76163  1  0
 77164  1  0
 77165  1  0
 77166  1  0
 78167  1  0
 78168  1  0
 78169  1  0
M  END
$$$$
