
     RDKit          3D

 40 41  0  0  0  0  0  0  0  0999 V2000
   -0.9535    0.6696   -1.7106 C   0  0  0  0  0  0  0  0  0  0  0  0
   -0.3136    0.7664   -0.3052 C   0  0  0  0  0  0  0  0  0  0  0  0
    1.2443    0.7119   -0.4117 C   0  0  0  0  0  0  0  0  0  0  0  0
    1.8027   -0.6684   -0.6759 C   0  0  0  0  0  0  0  0  0  0  0  0
    2.0299   -1.1097   -1.9911 C   0  0  0  0  0  0  0  0  0  0  0  0
    2.5287   -2.3943   -2.2280 C   0  0  0  0  0  0  0  0  0  0  0  0
    2.8115   -3.2450   -1.1562 C   0  0  0  0  0  0  0  0  0  0  0  0
    2.6024   -2.8103    0.1549 C   0  0  0  0  0  0  0  0  0  0  0  0
    2.1045   -1.5265    0.3963 C   0  0  0  0  0  0  0  0  0  0  0  0
   -0.7682   -0.3200    0.5951 N   0  0  0  0  0  0  0  0  0  0  0  0
   -1.1891   -1.6472    0.2229 C   0  0  0  0  0  0  0  0  0  0  0  0
   -1.0388   -2.0765   -0.9512 O   0  0  0  0  0  0  0  0  0  0  0  0
   -1.7460   -2.5716    1.2669 C   0  0  0  0  0  0  0  0  0  0  0  0
   -0.6787   -3.3079    1.9389 N   0  0  0  0  0  0  0  0  0  0  0  0
   -0.7908    2.1071    0.2874 C   0  0  0  0  0  0  0  0  0  0  0  0
   -2.0747    2.1905    0.8733 C   0  0  0  0  0  0  0  0  0  0  0  0
   -2.5604    3.4018    1.3726 C   0  0  0  0  0  0  0  0  0  0  0  0
   -1.7895    4.5592    1.2746 C   0  0  0  0  0  0  0  0  0  0  0  0
   -0.5367    4.5107    0.6642 C   0  0  0  0  0  0  0  0  0  0  0  0
   -0.0438    3.3027    0.1617 C   0  0  0  0  0  0  0  0  0  0  0  0
   -0.7599    1.5995   -2.2887 H   0  0  0  0  0  0  0  0  0  0  0  0
   -2.0535    0.5353   -1.6283 H   0  0  0  0  0  0  0  0  0  0  0  0
   -0.5380   -0.1628   -2.3090 H   0  0  0  0  0  0  0  0  0  0  0  0
    1.5963    1.3896   -1.2199 H   0  0  0  0  0  0  0  0  0  0  0  0
    1.6887    1.0897    0.5361 H   0  0  0  0  0  0  0  0  0  0  0  0
    1.8216   -0.4606   -2.8323 H   0  0  0  0  0  0  0  0  0  0  0  0
    2.6966   -2.7301   -3.2431 H   0  0  0  0  0  0  0  0  0  0  0  0
    3.1960   -4.2396   -1.3416 H   0  0  0  0  0  0  0  0  0  0  0  0
    2.8234   -3.4689    0.9848 H   0  0  0  0  0  0  0  0  0  0  0  0
    1.9445   -1.2041    1.4176 H   0  0  0  0  0  0  0  0  0  0  0  0
   -0.6768   -0.1433    1.6223 H   0  0  0  0  0  0  0  0  0  0  0  0
   -2.4477   -3.2926    0.7946 H   0  0  0  0  0  0  0  0  0  0  0  0
   -2.3205   -1.9872    2.0175 H   0  0  0  0  0  0  0  0  0  0  0  0
   -0.0309   -2.6237    2.3932 H   0  0  0  0  0  0  0  0  0  0  0  0
   -0.1308   -3.8377    1.2220 H   0  0  0  0  0  0  0  0  0  0  0  0
   -2.7098    1.3162    0.9395 H   0  0  0  0  0  0  0  0  0  0  0  0
   -3.5413    3.4439    1.8283 H   0  0  0  0  0  0  0  0  0  0  0  0
   -2.1689    5.4971    1.6592 H   0  0  0  0  0  0  0  0  0  0  0  0
    0.0520    5.4143    0.5711 H   0  0  0  0  0  0  0  0  0  0  0  0
    0.9189    3.3224   -0.3262 H   0  0  0  0  0  0  0  0  0  0  0  0
  1  2  1  0
  2  3  1  0
  3  4  1  0
  4  5  2  0
  5  6  1  0
  6  7  2  0
  7  8  1  0
  8  9  2  0
  2 10  1  0
 10 11  1  0
 11 12  2  0
 11 13  1  0
 13 14  1  0
  2 15  1  0
 15 16  2  0
 16 17  1  0
 17 18  2  0
 18 19  1  0
 19 20  2  0
  9  4  1  0
 20 15  1  0
  1 21  1  0
  1 22  1  0
  1 23  1  0
  3 24  1  0
  3 25  1  0
  5 26  1  0
  6 27  1  0
  7 28  1  0
  8 29  1  0
  9 30  1  0
 10 31  1  0
 13 32  1  0
 13 33  1  0
 14 34  1  0
 14 35  1  0
 16 36  1  0
 17 37  1  0
 18 38  1  0
 19 39  1  0
 20 40  1  0
M  END
$$$$
