
     RDKit          3D

 52 54  0  0  0  0  0  0  0  0999 V2000
   -1.3545    0.7008   -1.8840 C   0  0  0  0  0  0  0  0  0  0  0  0
   -0.5868    0.0015   -0.8052 C   0  0  0  0  0  0  0  0  0  0  0  0
   -1.1589   -0.8158    0.1823 C   0  0  0  0  0  0  0  0  0  0  0  0
    0.0899   -1.4255    1.1374 S   0  0  0  0  0  0  0  0  0  0  0  0
    1.2837   -0.6119    0.2820 C   0  0  0  0  0  0  0  0  0  0  0  0
    2.6808   -0.6801    0.5964 N   0  0  0  0  0  0  0  0  0  0  0  0
    3.7042   -0.0118   -0.1619 C   0  0  0  0  0  0  0  0  0  0  0  0
    3.4061    0.6008   -1.2234 O   0  0  0  0  0  0  0  0  0  0  0  0
    5.0769   -0.0445    0.2732 N   0  0  0  0  0  0  0  0  0  0  0  0
    5.4860   -0.4533    1.6068 C   0  0  0  0  0  0  0  0  0  0  0  0
    6.9236    0.0243    1.7640 C   0  0  0  0  0  0  0  0  0  0  0  0
    7.4309    0.2994    0.3515 C   0  0  0  0  0  0  0  0  0  0  0  0
    6.1795    0.5077   -0.5046 C   0  0  1  0  0  0  0  0  0  0  0  0
    6.3091   -0.1806   -1.8392 C   0  0  0  0  0  0  0  0  0  0  0  0
    6.6610    0.5662   -3.0035 N   0  0  0  0  0  0  0  0  0  0  0  0
    6.1477   -1.4280   -1.9252 O   0  0  0  0  0  0  0  0  0  0  0  0
    0.7675    0.1158   -0.7323 N   0  0  0  0  0  0  0  0  0  0  0  0
   -2.5891   -1.1353    0.3801 C   0  0  0  0  0  0  0  0  0  0  0  0
   -3.5708   -0.1361    0.3001 C   0  0  0  0  0  0  0  0  0  0  0  0
   -4.9284   -0.4604    0.4967 C   0  0  0  0  0  0  0  0  0  0  0  0
   -5.2572   -1.7584    0.7599 N   0  0  0  0  0  0  0  0  0  0  0  0
   -4.3258   -2.7410    0.8636 C   0  0  0  0  0  0  0  0  0  0  0  0
   -2.9757   -2.4464    0.6838 C   0  0  0  0  0  0  0  0  0  0  0  0
   -6.0321    0.5975    0.3692 C   0  0  0  0  0  0  0  0  0  0  0  0
   -7.3817    0.0290    0.8761 C   0  0  0  0  0  0  0  0  0  0  0  0
   -5.6936    1.8323    1.2375 C   0  0  0  0  0  0  0  0  0  0  0  0
   -6.1879    1.0158   -1.1184 C   0  0  0  0  0  0  0  0  0  0  0  0
   -7.2217    1.9263   -1.2618 F   0  0  0  0  0  0  0  0  0  0  0  0
   -6.4673   -0.0925   -1.9007 F   0  0  0  0  0  0  0  0  0  0  0  0
   -5.0280    1.6031   -1.5941 F   0  0  0  0  0  0  0  0  0  0  0  0
   -1.7123    1.6831   -1.5127 H   0  0  0  0  0  0  0  0  0  0  0  0
   -0.6987    0.8727   -2.7634 H   0  0  0  0  0  0  0  0  0  0  0  0
   -2.2177    0.0849   -2.2127 H   0  0  0  0  0  0  0  0  0  0  0  0
    2.9561   -1.2642    1.4162 H   0  0  0  0  0  0  0  0  0  0  0  0
    5.4313   -1.5603    1.6897 H   0  0  0  0  0  0  0  0  0  0  0  0
    4.8391    0.0201    2.3774 H   0  0  0  0  0  0  0  0  0  0  0  0
    7.5489   -0.7372    2.2789 H   0  0  0  0  0  0  0  0  0  0  0  0
    6.9405    0.9679    2.3528 H   0  0  0  0  0  0  0  0  0  0  0  0
    8.0863    1.1973    0.3293 H   0  0  0  0  0  0  0  0  0  0  0  0
    8.0191   -0.5803    0.0053 H   0  0  0  0  0  0  0  0  0  0  0  0
    6.0042    1.5967   -0.6508 H   0  0  0  0  0  0  0  0  0  0  0  0
    6.8252    1.5958   -2.9482 H   0  0  0  0  0  0  0  0  0  0  0  0
    6.7625    0.0870   -3.9255 H   0  0  0  0  0  0  0  0  0  0  0  0
   -3.2753    0.8833    0.1043 H   0  0  0  0  0  0  0  0  0  0  0  0
   -4.6357   -3.7542    1.0815 H   0  0  0  0  0  0  0  0  0  0  0  0
   -2.2420   -3.2393    0.7608 H   0  0  0  0  0  0  0  0  0  0  0  0
   -7.2937   -0.2996    1.9346 H   0  0  0  0  0  0  0  0  0  0  0  0
   -7.7035   -0.8417    0.2650 H   0  0  0  0  0  0  0  0  0  0  0  0
   -8.1847    0.7956    0.8232 H   0  0  0  0  0  0  0  0  0  0  0  0
   -5.4946    1.5248    2.2871 H   0  0  0  0  0  0  0  0  0  0  0  0
   -4.8037    2.3749    0.8578 H   0  0  0  0  0  0  0  0  0  0  0  0
   -6.5387    2.5543    1.2429 H   0  0  0  0  0  0  0  0  0  0  0  0
  1  2  1  0
  2  3  2  0
  3  4  1  0
  4  5  1  0
  5  6  1  0
  6  7  1  0
  7  8  2  0
  7  9  1  0
  9 10  1  0
 10 11  1  0
 11 12  1  0
 12 13  1  0
 13 14  1  0
 14 15  1  0
 14 16  2  0
  5 17  2  0
  3 18  1  0
 18 19  2  0
 19 20  1  0
 20 21  2  0
 21 22  1  0
 22 23  2  0
 20 24  1  0
 24 25  1  0
 24 26  1  0
 24 27  1  0
 27 28  1  0
 27 29  1  0
 27 30  1  0
 17  2  1  0
 23 18  1  0
 13  9  1  0
  1 31  1  0
  1 32  1  0
  1 33  1  0
  6 34  1  0
 10 35  1  0
 10 36  1  0
 11 37  1  0
 11 38  1  0
 12 39  1  0
 12 40  1  0
 13 41  1  6
 15 42  1  0
 15 43  1  0
 19 44  1  0
 22 45  1  0
 23 46  1  0
 25 47  1  0
 25 48  1  0
 25 49  1  0
 26 50  1  0
 26 51  1  0
 26 52  1  0
M  END
$$$$
