
     RDKit          3D

 62 66  0  0  0  0  0  0  0  0999 V2000
   -6.9820    3.4420   -1.1162 N   0  0  0  0  0  0  0  0  0  0  0  0
   -6.3449    2.2710   -0.6052 C   0  0  0  0  0  0  0  0  0  0  0  0
   -7.0607    1.1311   -0.4363 N   0  0  0  0  0  0  0  0  0  0  0  0
   -6.4886   -0.0023    0.0482 C   0  0  0  0  0  0  0  0  0  0  0  0
   -7.1971   -1.0380    0.1679 O   0  0  0  0  0  0  0  0  0  0  0  0
   -5.1593   -0.0134    0.3945 N   0  0  0  0  0  0  0  0  0  0  0  0
   -4.4095    1.1175    0.2095 C   0  0  0  0  0  0  0  0  0  0  0  0
   -4.9890    2.2830   -0.2862 C   0  0  0  0  0  0  0  0  0  0  0  0
   -4.5109   -1.2453    0.8908 C   0  0  1  0  0  0  0  0  0  0  0  0
   -3.7540   -1.9501   -0.2378 C   0  0  0  0  0  0  0  0  0  0  0  0
   -2.3101   -1.8587    0.1866 C   0  0  2  0  0  0  0  0  0  0  0  0
   -1.6029   -3.0497   -0.0938 O   0  0  0  0  0  0  0  0  0  0  0  0
   -0.9333   -3.0000   -1.6693 P   0  0  0  0  0  5  0  0  0  0  0  0
   -1.4418   -1.6476   -2.5603 O   0  0  0  0  0  0  0  0  0  0  0  0
   -1.3594   -4.2517   -2.4028 O   0  0  0  0  0  0  0  0  0  0  0  0
    0.7710   -3.0069   -1.5552 O   0  0  0  0  0  0  0  0  0  0  0  0
    1.2187   -1.8262   -0.9203 C   0  0  0  0  0  0  0  0  0  0  0  0
    1.7664   -0.8294   -1.9551 C   0  0  1  0  0  0  0  0  0  0  0  0
    1.9916    0.4122   -1.3212 O   0  0  0  0  0  0  0  0  0  0  0  0
    3.3850    0.6393   -1.2709 C   0  0  2  0  0  0  0  0  0  0  0  0
    4.1234   -0.5955   -1.7677 C   0  0  0  0  0  0  0  0  0  0  0  0
    3.0794   -1.3141   -2.5779 C   0  0  2  0  0  0  0  0  0  0  0  0
    3.1613   -0.9675   -3.9409 O   0  0  0  0  0  0  0  0  0  0  0  0
    3.7935    0.9758    0.0942 N   0  0  0  0  0  0  0  0  0  0  0  0
    3.2437    0.5561    1.2648 C   0  0  0  0  0  0  0  0  0  0  0  0
    3.9259    0.9804    2.3645 N   0  0  0  0  0  0  0  0  0  0  0  0
    4.9433    1.6819    1.8300 C   0  0  0  0  0  0  0  0  0  0  0  0
    5.9925    2.3397    2.4620 C   0  0  0  0  0  0  0  0  0  0  0  0
    6.9197    2.9583    1.6709 N   0  0  0  0  0  0  0  0  0  0  0  0
    6.8243    2.9313    0.3022 C   0  0  0  0  0  0  0  0  0  0  0  0
    5.7891    2.2792   -0.3085 N   0  0  0  0  0  0  0  0  0  0  0  0
    4.8688    1.6727    0.4798 C   0  0  0  0  0  0  0  0  0  0  0  0
    6.1131    2.3716    3.8841 N   0  0  0  0  0  0  0  0  0  0  0  0
   -2.4400   -1.6769    1.6927 C   0  0  1  0  0  0  0  0  0  0  0  0
   -1.2246   -0.9794    2.3160 C   0  0  0  0  0  0  0  0  0  0  0  0
   -1.0953    0.3259    1.8224 O   0  0  0  0  0  0  0  0  0  0  0  0
   -3.6112   -0.9372    1.9373 O   0  0  0  0  0  0  0  0  0  0  0  0
   -6.4462    4.3275   -1.2560 H   0  0  0  0  0  0  0  0  0  0  0  0
   -7.9979    3.4251   -1.3569 H   0  0  0  0  0  0  0  0  0  0  0  0
   -3.3519    1.1248    0.4406 H   0  0  0  0  0  0  0  0  0  0  0  0
   -4.3910    3.1752   -0.4231 H   0  0  0  0  0  0  0  0  0  0  0  0
   -5.2693   -1.9445    1.3086 H   0  0  0  0  0  0  0  0  0  0  0  0
   -3.9145   -1.4632   -1.2241 H   0  0  0  0  0  0  0  0  0  0  0  0
   -4.0777   -3.0131   -0.3038 H   0  0  0  0  0  0  0  0  0  0  0  0
   -1.8448   -0.9441   -0.2478 H   0  0  0  0  0  0  0  0  0  0  0  0
   -2.2798   -1.9294   -3.0063 H   0  0  0  0  0  0  0  0  0  0  0  0
    0.4543   -1.3246   -0.2886 H   0  0  0  0  0  0  0  0  0  0  0  0
    2.0335   -2.1041   -0.2181 H   0  0  0  0  0  0  0  0  0  0  0  0
    1.0007   -0.6854   -2.7474 H   0  0  0  0  0  0  0  0  0  0  0  0
    3.6154    1.4961   -1.9426 H   0  0  0  0  0  0  0  0  0  0  0  0
    4.4368   -1.2377   -0.9140 H   0  0  0  0  0  0  0  0  0  0  0  0
    5.0180   -0.3271   -2.3715 H   0  0  0  0  0  0  0  0  0  0  0  0
    3.2086   -2.4155   -2.4906 H   0  0  0  0  0  0  0  0  0  0  0  0
    3.0359    0.0149   -4.0211 H   0  0  0  0  0  0  0  0  0  0  0  0
    2.3577   -0.0622    1.3248 H   0  0  0  0  0  0  0  0  0  0  0  0
    7.5742    3.4278   -0.2979 H   0  0  0  0  0  0  0  0  0  0  0  0
    5.4089    1.9001    4.4944 H   0  0  0  0  0  0  0  0  0  0  0  0
    6.9131    2.8716    4.3315 H   0  0  0  0  0  0  0  0  0  0  0  0
   -2.5500   -2.6738    2.1801 H   0  0  0  0  0  0  0  0  0  0  0  0
   -1.3560   -0.9452    3.4204 H   0  0  0  0  0  0  0  0  0  0  0  0
   -0.3053   -1.5657    2.0913 H   0  0  0  0  0  0  0  0  0  0  0  0
   -0.2684    0.6935    2.2296 H   0  0  0  0  0  0  0  0  0  0  0  0
  1  2  1  0
  2  3  2  0
  3  4  1  0
  4  5  2  0
  4  6  1  0
  6  7  1  0
  7  8  2  0
  6  9  1  0
  9 10  1  0
 10 11  1  0
 11 12  1  0
 12 13  1  0
 13 14  1  0
 13 15  2  0
 13 16  1  0
 16 17  1  0
 17 18  1  0
 18 19  1  0
 19 20  1  0
 20 21  1  0
 21 22  1  0
 22 23  1  0
 20 24  1  0
 24 25  1  0
 25 26  2  0
 26 27  1  0
 27 28  2  0
 28 29  1  0
 29 30  2  0
 30 31  1  0
 31 32  2  0
 28 33  1  0
 11 34  1  0
 34 35  1  0
 35 36  1  0
 34 37  1  0
  8  2  1  0
 37  9  1  0
 22 18  1  0
 32 24  1  0
 32 27  1  0
  1 38  1  0
  1 39  1  0
  7 40  1  0
  8 41  1  0
  9 42  1  1
 10 43  1  0
 10 44  1  0
 11 45  1  6
 14 46  1  0
 17 47  1  0
 17 48  1  0
 18 49  1  6
 20 50  1  6
 21 51  1  0
 21 52  1  0
 22 53  1  6
 23 54  1  0
 25 55  1  0
 30 56  1  0
 33 57  1  0
 33 58  1  0
 34 59  1  1
 35 60  1  0
 35 61  1  0
 36 62  1  0
M  END
$$$$
