
     RDKit          3D

 36 38  0  0  0  0  0  0  0  0999 V2000
    3.2575    1.7597    0.9667 C   0  0  0  0  0  0  0  0  0  0  0  0
    3.2484    0.5174    0.1914 N   0  0  0  0  0  0  0  0  0  0  0  0
    4.3171   -0.0604   -0.3999 C   0  0  0  0  0  0  0  0  0  0  0  0
    3.9425   -1.2080   -1.0671 C   0  0  0  0  0  0  0  0  0  0  0  0
    2.5835   -1.3458   -0.8681 C   0  0  0  0  0  0  0  0  0  0  0  0
    2.1863   -0.2805   -0.0767 C   0  0  0  0  0  0  0  0  0  0  0  0
    0.8008   -0.0632    0.3968 C   0  0  0  0  0  0  0  0  0  0  0  0
    0.5448    0.2476    1.7384 C   0  0  0  0  0  0  0  0  0  0  0  0
   -0.7657    0.4097    2.1857 C   0  0  0  0  0  0  0  0  0  0  0  0
   -1.8417    0.2694    1.2999 C   0  0  0  0  0  0  0  0  0  0  0  0
   -3.1778    0.4227    1.7850 N   0  0  0  0  0  0  0  0  0  0  0  0
   -4.2593    0.4559    0.8598 C   0  0  0  0  0  0  0  0  0  0  0  0
   -5.7787    0.7738    1.3700 S   0  0  0  0  0  0  0  0  0  0  0  0
   -4.0119    0.2599   -0.4968 O   0  0  0  0  0  0  0  0  0  0  0  0
   -2.7853   -0.2759   -1.0117 C   0  0  0  0  0  0  0  0  0  0  0  0
   -2.5513    0.3925   -2.3784 C   0  0  0  0  0  0  0  0  0  0  0  0
   -2.9709   -1.7887   -1.1997 C   0  0  0  0  0  0  0  0  0  0  0  0
   -1.6064   -0.0303   -0.0603 C   0  0  0  0  0  0  0  0  0  0  0  0
   -0.2762   -0.2270   -0.4882 C   0  0  0  0  0  0  0  0  0  0  0  0
    5.6637    0.4492   -0.3455 C   0  0  0  0  0  0  0  0  0  0  0  0
    6.7451    0.8588   -0.3016 N   0  0  0  0  0  0  0  0  0  0  0  0
    4.0381    2.4502    0.5836 H   0  0  0  0  0  0  0  0  0  0  0  0
    2.2809    2.2804    0.8796 H   0  0  0  0  0  0  0  0  0  0  0  0
    3.4678    1.5335    2.0326 H   0  0  0  0  0  0  0  0  0  0  0  0
    4.5836   -1.8736   -1.6302 H   0  0  0  0  0  0  0  0  0  0  0  0
    1.9589   -2.1471   -1.2409 H   0  0  0  0  0  0  0  0  0  0  0  0
    1.3556    0.3326    2.4498 H   0  0  0  0  0  0  0  0  0  0  0  0
   -0.9448    0.6366    3.2293 H   0  0  0  0  0  0  0  0  0  0  0  0
   -3.3570    0.5800    2.8029 H   0  0  0  0  0  0  0  0  0  0  0  0
   -1.7438   -0.1060   -2.9538 H   0  0  0  0  0  0  0  0  0  0  0  0
   -3.4771    0.3394   -2.9910 H   0  0  0  0  0  0  0  0  0  0  0  0
   -2.2899    1.4636   -2.2408 H   0  0  0  0  0  0  0  0  0  0  0  0
   -3.1681   -2.2747   -0.2199 H   0  0  0  0  0  0  0  0  0  0  0  0
   -3.8354   -1.9909   -1.8679 H   0  0  0  0  0  0  0  0  0  0  0  0
   -2.0631   -2.2484   -1.6467 H   0  0  0  0  0  0  0  0  0  0  0  0
   -0.0703   -0.5123   -1.5106 H   0  0  0  0  0  0  0  0  0  0  0  0
  1  2  1  0
  2  3  1  0
  3  4  2  0
  4  5  1  0
  5  6  2  0
  6  7  1  0
  7  8  2  0
  8  9  1  0
  9 10  2  0
 10 11  1  0
 11 12  1  0
 12 13  2  0
 12 14  1  0
 14 15  1  0
 15 16  1  0
 15 17  1  0
 15 18  1  0
 18 19  2  0
  3 20  1  0
 20 21  3  0
  6  2  1  0
 19  7  1  0
 18 10  1  0
  1 22  1  0
  1 23  1  0
  1 24  1  0
  4 25  1  0
  5 26  1  0
  8 27  1  0
  9 28  1  0
 11 29  1  0
 16 30  1  0
 16 31  1  0
 16 32  1  0
 17 33  1  0
 17 34  1  0
 17 35  1  0
 19 36  1  0
M  END
$$$$
