
     RDKit          3D

 24 25  0  0  0  0  0  0  0  0999 V2000
   -2.7316   -0.0075    0.4114 C   0  0  1  0  0  0  0  0  0  0  0  0
   -4.1363   -0.2307    0.0637 N   0  0  0  0  0  0  0  0  0  0  0  0
   -1.8193   -1.0374   -0.2868 C   0  0  0  0  0  0  0  0  0  0  0  0
   -0.4025   -0.9310    0.1931 C   0  0  0  0  0  0  0  0  0  0  0  0
    0.6041   -0.2093   -0.4112 C   0  0  0  0  0  0  0  0  0  0  0  0
    1.6981   -0.3221    0.3588 N   0  0  0  0  0  0  0  0  0  0  0  0
    1.3387   -1.0924    1.4050 C   0  0  0  0  0  0  0  0  0  0  0  0
    0.0474   -1.4815    1.3404 N   0  0  0  0  0  0  0  0  0  0  0  0
    2.9808    0.2677    0.1229 C   0  0  0  0  0  0  0  0  0  0  0  0
    3.2730    1.0361   -0.9428 N   0  0  0  0  0  0  0  0  0  0  0  0
    4.5417    1.3562   -0.7557 N   0  0  0  0  0  0  0  0  0  0  0  0
    5.0051    0.8171    0.3598 N   0  0  0  0  0  0  0  0  0  0  0  0
    4.0412    0.1209    0.9407 N   0  0  0  0  0  0  0  0  0  0  0  0
   -2.3448    1.4045    0.0587 C   0  0  0  0  0  0  0  0  0  0  0  0
   -2.4040    1.7985   -1.0958 O   0  0  0  0  0  0  0  0  0  0  0  0
   -2.6241   -0.1265    1.5130 H   0  0  0  0  0  0  0  0  0  0  0  0
   -4.2370   -0.2638   -0.9775 H   0  0  0  0  0  0  0  0  0  0  0  0
   -4.4277   -1.1651    0.4332 H   0  0  0  0  0  0  0  0  0  0  0  0
   -1.8537   -0.9001   -1.3900 H   0  0  0  0  0  0  0  0  0  0  0  0
   -2.1857   -2.0634   -0.0668 H   0  0  0  0  0  0  0  0  0  0  0  0
    0.5388    0.3595   -1.3303 H   0  0  0  0  0  0  0  0  0  0  0  0
    2.0035   -1.3657    2.2143 H   0  0  0  0  0  0  0  0  0  0  0  0
    5.1027    1.9541   -1.4014 H   0  0  0  0  0  0  0  0  0  0  0  0
   -2.0084    2.0818    0.8369 H   0  0  0  0  0  0  0  0  0  0  0  0
  1  2  1  0
  1  3  1  0
  3  4  1  0
  4  5  2  0
  5  6  1  0
  6  7  1  0
  7  8  2  0
  6  9  1  0
  9 10  2  0
 10 11  1  0
 11 12  1  0
 12 13  2  0
  1 14  1  0
 14 15  2  0
  8  4  1  0
 13  9  1  0
  1 16  1  1
  2 17  1  0
  2 18  1  0
  3 19  1  0
  3 20  1  0
  5 21  1  0
  7 22  1  0
 11 23  1  0
 14 24  1  0
M  END
$$$$
