
     RDKit          3D

 58 57  0  0  0  0  0  0  0  0999 V2000
   -3.4230    0.4734   -0.2341 C   0  0  1  0  0  0  0  0  0  0  0  0
   -2.0300    0.9951   -0.6291 C   0  0  0  0  0  0  0  0  0  0  0  0
   -1.0144    0.3669    0.1319 O   0  0  0  0  0  0  0  0  0  0  0  0
   -0.4610   -0.7250   -0.5743 C   0  0  0  0  0  0  0  0  0  0  0  0
    0.4765   -1.5161    0.3432 C   0  0  0  0  0  0  0  0  0  0  0  0
    1.5698   -0.6603    1.0127 C   0  0  0  0  0  0  0  0  0  0  0  0
    2.4846    0.1107    0.0436 C   0  0  0  0  0  0  0  0  0  0  0  0
    3.3137   -0.8158   -0.8616 C   0  0  0  0  0  0  0  0  0  0  0  0
    4.2134   -0.0454   -1.8458 C   0  0  0  0  0  0  0  0  0  0  0  0
    5.2987    0.8295   -1.1921 C   0  0  0  0  0  0  0  0  0  0  0  0
    6.2717    0.0221   -0.3157 C   0  0  0  0  0  0  0  0  0  0  0  0
    7.5083    0.8361    0.0947 C   0  0  0  0  0  0  0  0  0  0  0  0
    7.1750    1.9597    1.0759 C   0  0  0  0  0  0  0  0  0  0  0  0
   -3.7399    0.7871    1.2434 C   0  0  0  0  0  0  0  0  0  0  0  0
   -2.8724    0.0901    2.1194 O   0  0  0  0  0  0  0  0  0  0  0  0
   -3.3598   -1.2071    2.4164 C   0  0  0  0  0  0  0  0  0  0  0  0
   -3.9394   -1.2412    3.8277 C   0  0  0  0  0  0  0  0  0  0  0  0
   -4.3373   -2.5298    4.1335 F   0  0  0  0  0  0  0  0  0  0  0  0
   -5.0335   -0.3998    3.9132 F   0  0  0  0  0  0  0  0  0  0  0  0
   -2.9813   -0.8364    4.7397 F   0  0  0  0  0  0  0  0  0  0  0  0
   -4.3784    1.1231   -1.0528 O   0  0  0  0  0  0  0  0  0  0  0  0
   -5.5416    0.0032   -1.6112 P   0  0  2  0  0  5  0  0  0  0  0  0
   -6.1656   -0.8776   -0.3029 O   0  0  0  0  0  0  0  0  0  0  0  0
   -4.8879   -0.9366   -2.6020 O   0  0  0  0  0  0  0  0  0  0  0  0
   -6.7906    0.8714   -2.3822 O   0  0  0  0  0  0  0  0  0  0  0  0
   -7.7997   -0.0361   -2.7484 C   0  0  0  0  0  0  0  0  0  0  0  0
   -3.4023   -0.6326   -0.3723 H   0  0  0  0  0  0  0  0  0  0  0  0
   -1.9829    2.0872   -0.4294 H   0  0  0  0  0  0  0  0  0  0  0  0
   -1.8853    0.8834   -1.7307 H   0  0  0  0  0  0  0  0  0  0  0  0
   -1.2560   -1.4221   -0.9238 H   0  0  0  0  0  0  0  0  0  0  0  0
    0.1034   -0.3687   -1.4641 H   0  0  0  0  0  0  0  0  0  0  0  0
   -0.1343   -1.9829    1.1463 H   0  0  0  0  0  0  0  0  0  0  0  0
    0.9371   -2.3489   -0.2284 H   0  0  0  0  0  0  0  0  0  0  0  0
    2.1966   -1.3233    1.6481 H   0  0  0  0  0  0  0  0  0  0  0  0
    1.0853    0.0709    1.6958 H   0  0  0  0  0  0  0  0  0  0  0  0
    1.8883    0.8172   -0.5715 H   0  0  0  0  0  0  0  0  0  0  0  0
    3.1722    0.7195    0.6671 H   0  0  0  0  0  0  0  0  0  0  0  0
    2.6271   -1.4374   -1.4731 H   0  0  0  0  0  0  0  0  0  0  0  0
    3.9218   -1.5101   -0.2443 H   0  0  0  0  0  0  0  0  0  0  0  0
    3.5746    0.6020   -2.4856 H   0  0  0  0  0  0  0  0  0  0  0  0
    4.7060   -0.7794   -2.5203 H   0  0  0  0  0  0  0  0  0  0  0  0
    4.8250    1.6384   -0.5992 H   0  0  0  0  0  0  0  0  0  0  0  0
    5.8709    1.3195   -2.0100 H   0  0  0  0  0  0  0  0  0  0  0  0
    5.7536   -0.3383    0.5989 H   0  0  0  0  0  0  0  0  0  0  0  0
    6.6191   -0.8679   -0.8846 H   0  0  0  0  0  0  0  0  0  0  0  0
    8.2338    0.1502    0.5835 H   0  0  0  0  0  0  0  0  0  0  0  0
    8.0032    1.2617   -0.8051 H   0  0  0  0  0  0  0  0  0  0  0  0
    6.6370    1.5569    1.9602 H   0  0  0  0  0  0  0  0  0  0  0  0
    6.5521    2.7366    0.5860 H   0  0  0  0  0  0  0  0  0  0  0  0
    8.1153    2.4381    1.4221 H   0  0  0  0  0  0  0  0  0  0  0  0
   -4.8131    0.5871    1.4662 H   0  0  0  0  0  0  0  0  0  0  0  0
   -3.6021    1.8757    1.4175 H   0  0  0  0  0  0  0  0  0  0  0  0
   -2.5024   -1.9116    2.3735 H   0  0  0  0  0  0  0  0  0  0  0  0
   -4.1156   -1.5908    1.6910 H   0  0  0  0  0  0  0  0  0  0  0  0
   -6.4048   -1.7636   -0.6754 H   0  0  0  0  0  0  0  0  0  0  0  0
   -7.4142   -0.8238   -3.4331 H   0  0  0  0  0  0  0  0  0  0  0  0
   -8.2773   -0.4889   -1.8523 H   0  0  0  0  0  0  0  0  0  0  0  0
   -8.5884    0.5190   -3.2964 H   0  0  0  0  0  0  0  0  0  0  0  0
  1  2  1  0
  2  3  1  0
  3  4  1  0
  4  5  1  0
  5  6  1  0
  6  7  1  0
  7  8  1  0
  8  9  1  0
  9 10  1  0
 10 11  1  0
 11 12  1  0
 12 13  1  0
  1 14  1  0
 14 15  1  0
 15 16  1  0
 16 17  1  0
 17 18  1  0
 17 19  1  0
 17 20  1  0
  1 21  1  0
 22 21  1  1
 22 23  1  0
 22 24  2  0
 22 25  1  0
 25 26  1  0
  1 27  1  1
  2 28  1  0
  2 29  1  0
  4 30  1  0
  4 31  1  0
  5 32  1  0
  5 33  1  0
  6 34  1  0
  6 35  1  0
  7 36  1  0
  7 37  1  0
  8 38  1  0
  8 39  1  0
  9 40  1  0
  9 41  1  0
 10 42  1  0
 10 43  1  0
 11 44  1  0
 11 45  1  0
 12 46  1  0
 12 47  1  0
 13 48  1  0
 13 49  1  0
 13 50  1  0
 14 51  1  0
 14 52  1  0
 16 53  1  0
 16 54  1  0
 23 55  1  0
 26 56  1  0
 26 57  1  0
 26 58  1  0
M  END
$$$$
