
     RDKit          3D

 42 46  0  0  0  0  0  0  0  0999 V2000
   -0.5631    2.0473    2.2063 C   0  0  0  0  0  0  0  0  0  0  0  0
   -0.7897    2.5308    0.8474 N   0  0  0  0  0  0  0  0  0  0  0  0
   -1.4322    3.6539    0.5840 N   0  0  0  0  0  0  0  0  0  0  0  0
   -1.5264    3.7230   -0.7570 C   0  0  0  0  0  0  0  0  0  0  0  0
   -0.9712    2.6558   -1.3688 N   0  0  0  0  0  0  0  0  0  0  0  0
   -0.5200    1.9233   -0.3307 C   0  0  0  0  0  0  0  0  0  0  0  0
    0.1617    0.5842   -0.5228 C   0  0  2  0  0  0  0  0  0  0  0  0
   -0.7147   -0.5810    0.0060 C   0  0  2  0  0  0  0  0  0  0  0  0
    0.0410   -1.8372   -0.0076 N   0  0  0  0  0  0  0  0  0  0  0  0
    1.4159   -1.8543    0.4004 C   0  0  0  0  0  0  0  0  0  0  0  0
    2.1434   -0.6520    0.4637 C   0  0  0  0  0  0  0  0  0  0  0  0
    1.5529    0.5605    0.0750 C   0  0  0  0  0  0  0  0  0  0  0  0
    2.2975    1.6987    0.1181 N   0  0  0  0  0  0  0  0  0  0  0  0
    3.5564    1.7059    0.5584 N   0  0  0  0  0  0  0  0  0  0  0  0
    4.1777    0.5631    0.9579 C   0  0  0  0  0  0  0  0  0  0  0  0
    5.3725    0.6110    1.3599 O   0  0  0  0  0  0  0  0  0  0  0  0
    3.4815   -0.6560    0.9098 C   0  0  0  0  0  0  0  0  0  0  0  0
    4.0826   -1.8733    1.2790 C   0  0  0  0  0  0  0  0  0  0  0  0
    3.3608   -3.0679    1.1961 C   0  0  0  0  0  0  0  0  0  0  0  0
    3.9486   -4.2380    1.5476 F   0  0  0  0  0  0  0  0  0  0  0  0
    2.0341   -3.0600    0.7572 C   0  0  0  0  0  0  0  0  0  0  0  0
   -1.9846   -0.7140   -0.8114 C   0  0  0  0  0  0  0  0  0  0  0  0
   -1.9502   -1.2476   -2.1132 C   0  0  0  0  0  0  0  0  0  0  0  0
   -3.1200   -1.3289   -2.8744 C   0  0  0  0  0  0  0  0  0  0  0  0
   -4.3311   -0.8700   -2.3495 C   0  0  0  0  0  0  0  0  0  0  0  0
   -5.4638   -0.9472   -3.0904 F   0  0  0  0  0  0  0  0  0  0  0  0
   -4.3731   -0.3258   -1.0631 C   0  0  0  0  0  0  0  0  0  0  0  0
   -3.2061   -0.2434   -0.2977 C   0  0  0  0  0  0  0  0  0  0  0  0
   -1.4367    1.4494    2.5389 H   0  0  0  0  0  0  0  0  0  0  0  0
    0.3544    1.4302    2.2656 H   0  0  0  0  0  0  0  0  0  0  0  0
   -0.4412    2.9097    2.8950 H   0  0  0  0  0  0  0  0  0  0  0  0
   -2.0036    4.5374   -1.2849 H   0  0  0  0  0  0  0  0  0  0  0  0
    0.3059    0.4340   -1.6160 H   0  0  0  0  0  0  0  0  0  0  0  0
   -0.9816   -0.3841    1.0650 H   0  0  0  0  0  0  0  0  0  0  0  0
   -0.4776   -2.7429   -0.0778 H   0  0  0  0  0  0  0  0  0  0  0  0
    4.0754    2.6121    0.5817 H   0  0  0  0  0  0  0  0  0  0  0  0
    5.1092   -1.9046    1.6231 H   0  0  0  0  0  0  0  0  0  0  0  0
    1.4829   -3.9907    0.7078 H   0  0  0  0  0  0  0  0  0  0  0  0
   -1.0177   -1.5972   -2.5383 H   0  0  0  0  0  0  0  0  0  0  0  0
   -3.0855   -1.7441   -3.8734 H   0  0  0  0  0  0  0  0  0  0  0  0
   -5.3095    0.0369   -0.6590 H   0  0  0  0  0  0  0  0  0  0  0  0
   -3.2545    0.1929    0.6923 H   0  0  0  0  0  0  0  0  0  0  0  0
  1  2  1  0
  2  3  1  0
  3  4  2  0
  4  5  1  0
  5  6  2  0
  6  7  1  0
  7  8  1  0
  8  9  1  0
  9 10  1  0
 10 11  2  0
 11 12  1  0
 12 13  2  0
 13 14  1  0
 14 15  1  0
 15 16  2  0
 15 17  1  0
 17 18  2  0
 18 19  1  0
 19 20  1  0
 19 21  2  0
  8 22  1  0
 22 23  2  0
 23 24  1  0
 24 25  2  0
 25 26  1  0
 25 27  1  0
 27 28  2  0
  6  2  1  0
 12  7  1  0
 28 22  1  0
 21 10  1  0
 17 11  1  0
  1 29  1  0
  1 30  1  0
  1 31  1  0
  4 32  1  0
  7 33  1  6
  8 34  1  1
  9 35  1  0
 14 36  1  0
 18 37  1  0
 21 38  1  0
 23 39  1  0
 24 40  1  0
 27 41  1  0
 28 42  1  0
M  END
$$$$
