
     RDKit          3D

 58 59  0  0  0  0  0  0  0  0999 V2000
    0.1083   -0.2581    1.4262 C   0  0  1  0  0  0  0  0  0  0  0  0
    1.4621    0.1314    1.0184 N   0  0  0  0  0  0  0  0  0  0  0  0
    2.3525   -0.7436    0.3156 C   0  0  0  0  0  0  0  0  0  0  0  0
    1.9879   -1.9094   -0.0015 O   0  0  0  0  0  0  0  0  0  0  0  0
    3.6324   -0.2902   -0.0136 O   0  0  0  0  0  0  0  0  0  0  0  0
    4.5778   -1.0957   -0.7087 C   0  0  0  0  0  0  0  0  0  0  0  0
    5.8439   -0.3146   -0.9040 C   0  0  0  0  0  0  0  0  0  0  0  0
    6.8480   -0.3365    0.0781 C   0  0  0  0  0  0  0  0  0  0  0  0
    8.0112    0.4220   -0.0877 C   0  0  0  0  0  0  0  0  0  0  0  0
    8.1739    1.2153   -1.2268 C   0  0  0  0  0  0  0  0  0  0  0  0
    7.1713    1.2553   -2.1999 C   0  0  0  0  0  0  0  0  0  0  0  0
    6.0066    0.4983   -2.0379 C   0  0  0  0  0  0  0  0  0  0  0  0
    0.0319   -0.5632    2.9476 C   0  0  0  0  0  0  0  0  0  0  0  0
    0.8347   -1.8275    3.2870 C   0  0  0  0  0  0  0  0  0  0  0  0
    0.4953    0.6013    3.8391 C   0  0  0  0  0  0  0  0  0  0  0  0
   -1.0821    1.0302    0.8946 P   0  0  1  0  0  5  0  0  0  0  0  0
   -2.6235    0.6944    1.5154 O   0  0  0  0  0  0  0  0  0  0  0  0
   -0.6317    2.3866    1.3886 O   0  0  0  0  0  0  0  0  0  0  0  0
   -1.1160    1.0732   -0.8142 O   0  0  0  0  0  0  0  0  0  0  0  0
   -1.9696    0.0600   -1.3113 C   0  0  2  0  0  0  0  0  0  0  0  0
   -1.5017   -0.3429   -2.6775 C   0  0  0  0  0  0  0  0  0  0  0  0
   -1.6028   -1.6717   -3.0782 O   0  0  0  0  0  0  0  0  0  0  0  0
   -1.0559    0.5217   -3.4797 O   0  0  0  0  0  0  0  0  0  0  0  0
   -3.3942    0.5612   -1.4087 C   0  0  0  0  0  0  0  0  0  0  0  0
   -4.4627   -0.2774   -1.0470 C   0  0  0  0  0  0  0  0  0  0  0  0
   -5.7892    0.1711   -1.1506 C   0  0  0  0  0  0  0  0  0  0  0  0
   -6.9229   -0.7161   -0.7165 C   0  0  0  0  0  0  0  0  0  0  0  0
   -7.1247   -0.5958    0.7233 N   0  0  0  0  0  0  0  0  0  0  0  0
   -6.0438    1.4736   -1.6060 C   0  0  0  0  0  0  0  0  0  0  0  0
   -4.9873    2.3065   -1.9810 C   0  0  0  0  0  0  0  0  0  0  0  0
   -3.6694    1.8533   -1.8900 C   0  0  0  0  0  0  0  0  0  0  0  0
   -0.1950   -1.1808    0.8878 H   0  0  0  0  0  0  0  0  0  0  0  0
    1.8183    1.0776    1.2815 H   0  0  0  0  0  0  0  0  0  0  0  0
    4.1598   -1.3990   -1.6938 H   0  0  0  0  0  0  0  0  0  0  0  0
    4.7846   -2.0194   -0.1248 H   0  0  0  0  0  0  0  0  0  0  0  0
    6.7298   -0.9392    0.9702 H   0  0  0  0  0  0  0  0  0  0  0  0
    8.7848    0.3978    0.6690 H   0  0  0  0  0  0  0  0  0  0  0  0
    9.0741    1.8029   -1.3529 H   0  0  0  0  0  0  0  0  0  0  0  0
    7.2949    1.8761   -3.0779 H   0  0  0  0  0  0  0  0  0  0  0  0
    5.2330    0.5460   -2.7944 H   0  0  0  0  0  0  0  0  0  0  0  0
   -1.0286   -0.7808    3.2022 H   0  0  0  0  0  0  0  0  0  0  0  0
    1.9187   -1.6686    3.1028 H   0  0  0  0  0  0  0  0  0  0  0  0
    0.6928   -2.0967    4.3555 H   0  0  0  0  0  0  0  0  0  0  0  0
    0.4868   -2.6838    2.6708 H   0  0  0  0  0  0  0  0  0  0  0  0
   -0.1452    1.4929    3.6919 H   0  0  0  0  0  0  0  0  0  0  0  0
    1.5531    0.8683    3.6347 H   0  0  0  0  0  0  0  0  0  0  0  0
    0.4117    0.3143    4.9091 H   0  0  0  0  0  0  0  0  0  0  0  0
   -2.5999    1.0127    2.4528 H   0  0  0  0  0  0  0  0  0  0  0  0
   -1.9277   -0.8622   -0.6856 H   0  0  0  0  0  0  0  0  0  0  0  0
   -1.3067   -1.9592   -4.0033 H   0  0  0  0  0  0  0  0  0  0  0  0
   -4.2637   -1.2774   -0.6799 H   0  0  0  0  0  0  0  0  0  0  0  0
   -6.6877   -1.7734   -0.9690 H   0  0  0  0  0  0  0  0  0  0  0  0
   -7.8591   -0.4467   -1.2556 H   0  0  0  0  0  0  0  0  0  0  0  0
   -7.5069    0.3580    0.9210 H   0  0  0  0  0  0  0  0  0  0  0  0
   -7.8692   -1.2767    0.9982 H   0  0  0  0  0  0  0  0  0  0  0  0
   -7.0597    1.8429   -1.6729 H   0  0  0  0  0  0  0  0  0  0  0  0
   -5.1904    3.3067   -2.3413 H   0  0  0  0  0  0  0  0  0  0  0  0
   -2.8632    2.5114   -2.1893 H   0  0  0  0  0  0  0  0  0  0  0  0
  1  2  1  0
  2  3  1  0
  3  4  2  0
  3  5  1  0
  5  6  1  0
  6  7  1  0
  7  8  2  0
  8  9  1  0
  9 10  2  0
 10 11  1  0
 11 12  2  0
  1 13  1  0
 13 14  1  0
 13 15  1  0
  1 16  1  0
 16 17  1  1
 16 18  2  0
 16 19  1  0
 19 20  1  0
 20 21  1  0
 21 22  1  0
 21 23  2  0
 20 24  1  0
 24 25  2  0
 25 26  1  0
 26 27  1  0
 27 28  1  0
 26 29  2  0
 29 30  1  0
 30 31  2  0
 12  7  1  0
 31 24  1  0
  1 32  1  6
  2 33  1  0
  6 34  1  0
  6 35  1  0
  8 36  1  0
  9 37  1  0
 10 38  1  0
 11 39  1  0
 12 40  1  0
 13 41  1  0
 14 42  1  0
 14 43  1  0
 14 44  1  0
 15 45  1  0
 15 46  1  0
 15 47  1  0
 17 48  1  0
 20 49  1  1
 22 50  1  0
 25 51  1  0
 27 52  1  0
 27 53  1  0
 28 54  1  0
 28 55  1  0
 29 56  1  0
 30 57  1  0
 31 58  1  0
M  END
$$$$
