
     RDKit          3D

 73 76  0  0  0  0  0  0  0  0999 V2000
    2.7088   -5.7347    0.5864 C   0  0  0  0  0  0  0  0  0  0  0  0
    1.8113   -4.5313    0.5013 C   0  0  0  0  0  0  0  0  0  0  0  0
    0.4503   -4.6892    0.2096 C   0  0  0  0  0  0  0  0  0  0  0  0
   -0.3620   -3.6056    0.1306 N   0  0  0  0  0  0  0  0  0  0  0  0
    0.1179   -2.3505    0.3332 C   0  0  0  0  0  0  0  0  0  0  0  0
   -0.7395   -1.2062    0.2167 N   0  0  0  0  0  0  0  0  0  0  0  0
   -2.1749   -1.2720    0.1728 C   0  0  0  0  0  0  0  0  0  0  0  0
   -2.8825   -0.3458   -0.6058 C   0  0  0  0  0  0  0  0  0  0  0  0
   -4.2795   -0.3726   -0.6478 C   0  0  0  0  0  0  0  0  0  0  0  0
   -4.9946   -1.3201    0.1101 C   0  0  0  0  0  0  0  0  0  0  0  0
   -6.3974   -1.3952    0.1072 O   0  0  0  0  0  0  0  0  0  0  0  0
   -7.2733   -0.4845   -0.5573 C   0  0  0  0  0  0  0  0  0  0  0  0
   -7.3652    0.8363    0.2162 C   0  0  0  0  0  0  0  0  0  0  0  0
   -8.3024    1.7655   -0.4549 N   0  0  0  0  0  0  0  0  0  0  0  0
   -8.7558    2.8198    0.4631 C   0  0  0  0  0  0  0  0  0  0  0  0
   -7.7852    3.9817    0.3468 C   0  0  0  0  0  0  0  0  0  0  0  0
   -7.1471    3.8265   -1.0197 C   0  0  0  0  0  0  0  0  0  0  0  0
   -7.6465    2.4898   -1.5570 C   0  0  0  0  0  0  0  0  0  0  0  0
   -4.2867   -2.2312    0.9020 C   0  0  0  0  0  0  0  0  0  0  0  0
   -2.8898   -2.2051    0.9428 C   0  0  0  0  0  0  0  0  0  0  0  0
    1.4389   -2.1722    0.5920 N   0  0  0  0  0  0  0  0  0  0  0  0
    2.2994   -3.2223    0.6907 C   0  0  0  0  0  0  0  0  0  0  0  0
    3.6964   -2.9773    0.9358 N   0  0  0  0  0  0  0  0  0  0  0  0
    4.1970   -1.7625    1.5190 C   0  0  0  0  0  0  0  0  0  0  0  0
    3.4791   -1.0821    2.5187 C   0  0  0  0  0  0  0  0  0  0  0  0
    3.9923    0.0897    3.0806 C   0  0  0  0  0  0  0  0  0  0  0  0
    5.2268    0.5887    2.6592 C   0  0  0  0  0  0  0  0  0  0  0  0
    5.9597   -0.0894    1.6754 C   0  0  0  0  0  0  0  0  0  0  0  0
    5.4486   -1.2702    1.1200 C   0  0  0  0  0  0  0  0  0  0  0  0
    7.5099    0.5327    1.1187 S   0  0  0  0  0  6  0  0  0  0  0  0
    8.5304   -0.5540    1.3082 O   0  0  0  0  0  0  0  0  0  0  0  0
    7.9352    1.7087    1.9532 O   0  0  0  0  0  0  0  0  0  0  0  0
    7.4862    0.9745   -0.5736 N   0  0  0  0  0  0  0  0  0  0  0  0
    6.4832    1.9803   -1.0070 C   0  0  0  0  0  0  0  0  0  0  0  0
    5.0573    1.3856   -1.0691 C   0  0  0  0  0  0  0  0  0  0  0  0
    6.4898    3.2348   -0.1074 C   0  0  0  0  0  0  0  0  0  0  0  0
    6.8800    2.4202   -2.4300 C   0  0  0  0  0  0  0  0  0  0  0  0
    2.1216   -6.6775    0.6061 H   0  0  0  0  0  0  0  0  0  0  0  0
    3.3148   -5.6924    1.5159 H   0  0  0  0  0  0  0  0  0  0  0  0
    3.3839   -5.7592   -0.2945 H   0  0  0  0  0  0  0  0  0  0  0  0
    0.0320   -5.6737    0.0441 H   0  0  0  0  0  0  0  0  0  0  0  0
   -0.2847   -0.2752    0.0781 H   0  0  0  0  0  0  0  0  0  0  0  0
   -2.3480    0.3919   -1.1914 H   0  0  0  0  0  0  0  0  0  0  0  0
   -4.7877    0.3480   -1.2721 H   0  0  0  0  0  0  0  0  0  0  0  0
   -6.9493   -0.3360   -1.6079 H   0  0  0  0  0  0  0  0  0  0  0  0
   -8.2850   -0.9414   -0.5917 H   0  0  0  0  0  0  0  0  0  0  0  0
   -6.3594    1.2969    0.3372 H   0  0  0  0  0  0  0  0  0  0  0  0
   -7.7322    0.5787    1.2347 H   0  0  0  0  0  0  0  0  0  0  0  0
   -8.8486    2.4763    1.5174 H   0  0  0  0  0  0  0  0  0  0  0  0
   -9.7657    3.1556    0.1397 H   0  0  0  0  0  0  0  0  0  0  0  0
   -7.0094    3.9032    1.1401 H   0  0  0  0  0  0  0  0  0  0  0  0
   -8.3125    4.9559    0.4426 H   0  0  0  0  0  0  0  0  0  0  0  0
   -6.0386    3.8182   -0.9283 H   0  0  0  0  0  0  0  0  0  0  0  0
   -7.4504    4.6565   -1.6948 H   0  0  0  0  0  0  0  0  0  0  0  0
   -6.8111    1.9191   -2.0187 H   0  0  0  0  0  0  0  0  0  0  0  0
   -8.3997    2.6718   -2.3544 H   0  0  0  0  0  0  0  0  0  0  0  0
   -4.8239   -2.9574    1.4990 H   0  0  0  0  0  0  0  0  0  0  0  0
   -2.3734   -2.8967    1.5950 H   0  0  0  0  0  0  0  0  0  0  0  0
    4.3967   -3.6644    0.5765 H   0  0  0  0  0  0  0  0  0  0  0  0
    2.5335   -1.4655    2.8786 H   0  0  0  0  0  0  0  0  0  0  0  0
    3.4333    0.6103    3.8475 H   0  0  0  0  0  0  0  0  0  0  0  0
    5.6062    1.5014    3.0994 H   0  0  0  0  0  0  0  0  0  0  0  0
    6.0136   -1.7938    0.3584 H   0  0  0  0  0  0  0  0  0  0  0  0
    7.3654    0.0936   -1.1256 H   0  0  0  0  0  0  0  0  0  0  0  0
    4.6146    1.2741   -0.0618 H   0  0  0  0  0  0  0  0  0  0  0  0
    5.0608    0.3962   -1.5742 H   0  0  0  0  0  0  0  0  0  0  0  0
    4.3779    2.0594   -1.6347 H   0  0  0  0  0  0  0  0  0  0  0  0
    7.5262    3.6130    0.0242 H   0  0  0  0  0  0  0  0  0  0  0  0
    6.0507    3.0194    0.8886 H   0  0  0  0  0  0  0  0  0  0  0  0
    5.8771    4.0445   -0.5597 H   0  0  0  0  0  0  0  0  0  0  0  0
    6.8652    1.5520   -3.1241 H   0  0  0  0  0  0  0  0  0  0  0  0
    7.9073    2.8450   -2.4306 H   0  0  0  0  0  0  0  0  0  0  0  0
    6.1826    3.1914   -2.8240 H   0  0  0  0  0  0  0  0  0  0  0  0
  1  2  1  0
  2  3  2  0
  3  4  1  0
  4  5  2  0
  5  6  1  0
  6  7  1  0
  7  8  2  0
  8  9  1  0
  9 10  2  0
 10 11  1  0
 11 12  1  0
 12 13  1  0
 13 14  1  0
 14 15  1  0
 15 16  1  0
 16 17  1  0
 17 18  1  0
 10 19  1  0
 19 20  2  0
  5 21  1  0
 21 22  2  0
 22 23  1  0
 23 24  1  0
 24 25  2  0
 25 26  1  0
 26 27  2  0
 27 28  1  0
 28 29  2  0
 28 30  1  0
 30 31  2  0
 30 32  2  0
 30 33  1  0
 33 34  1  0
 34 35  1  0
 34 36  1  0
 34 37  1  0
 22  2  1  0
 29 24  1  0
 20  7  1  0
 18 14  1  0
  1 38  1  0
  1 39  1  0
  1 40  1  0
  3 41  1  0
  6 42  1  0
  8 43  1  0
  9 44  1  0
 12 45  1  0
 12 46  1  0
 13 47  1  0
 13 48  1  0
 15 49  1  0
 15 50  1  0
 16 51  1  0
 16 52  1  0
 17 53  1  0
 17 54  1  0
 18 55  1  0
 18 56  1  0
 19 57  1  0
 20 58  1  0
 23 59  1  0
 25 60  1  0
 26 61  1  0
 27 62  1  0
 29 63  1  0
 33 64  1  0
 35 65  1  0
 35 66  1  0
 35 67  1  0
 36 68  1  0
 36 69  1  0
 36 70  1  0
 37 71  1  0
 37 72  1  0
 37 73  1  0
M  END
$$$$
