
     RDKit          3D

 25 25  0  0  0  0  0  0  0  0999 V2000
   -1.2071   -1.3043    0.0057 C   0  0  1  0  0  0  0  0  0  0  0  0
   -2.0088   -2.3600   -0.6121 N   0  0  0  0  0  0  0  0  0  0  0  0
    0.5795   -1.7084   -0.1801 S   0  0  0  0  0  0  0  0  0  0  0  0
    1.3042   -0.0156   -0.1055 C   0  0  2  0  0  0  0  0  0  0  0  0
    2.7556   -0.1283    0.3961 C   0  0  0  0  0  0  0  0  0  0  0  0
    3.5068   -0.9687   -0.4388 O   0  0  0  0  0  0  0  0  0  0  0  0
    0.4597    0.9151    0.7978 C   0  0  1  0  0  0  0  0  0  0  0  0
    1.1379    2.1141    1.0864 O   0  0  0  0  0  0  0  0  0  0  0  0
   -0.9231    1.2377    0.1688 C   0  0  2  0  0  0  0  0  0  0  0  0
   -1.8013    1.7155    1.1591 O   0  0  0  0  0  0  0  0  0  0  0  0
   -1.5489    0.0563   -0.6238 C   0  0  2  0  0  0  0  0  0  0  0  0
   -2.9447    0.2078   -0.6973 O   0  0  0  0  0  0  0  0  0  0  0  0
   -1.4482   -1.2769    1.0907 H   0  0  0  0  0  0  0  0  0  0  0  0
   -1.8036   -3.2598   -0.1199 H   0  0  0  0  0  0  0  0  0  0  0  0
   -1.7061   -2.4765   -1.6069 H   0  0  0  0  0  0  0  0  0  0  0  0
    1.3248    0.4023   -1.1362 H   0  0  0  0  0  0  0  0  0  0  0  0
    2.7617   -0.5515    1.4234 H   0  0  0  0  0  0  0  0  0  0  0  0
    3.2380    0.8740    0.4417 H   0  0  0  0  0  0  0  0  0  0  0  0
    3.6854   -0.4571   -1.2707 H   0  0  0  0  0  0  0  0  0  0  0  0
    0.3035    0.3876    1.7646 H   0  0  0  0  0  0  0  0  0  0  0  0
    1.3545    2.5525    0.2218 H   0  0  0  0  0  0  0  0  0  0  0  0
   -0.7865    2.0625   -0.5651 H   0  0  0  0  0  0  0  0  0  0  0  0
   -1.9816    0.9687    1.7875 H   0  0  0  0  0  0  0  0  0  0  0  0
   -1.1333    0.0577   -1.6597 H   0  0  0  0  0  0  0  0  0  0  0  0
   -3.1184    0.9551   -1.3278 H   0  0  0  0  0  0  0  0  0  0  0  0
  1  2  1  0
  1  3  1  0
  3  4  1  0
  4  5  1  0
  5  6  1  0
  4  7  1  0
  7  8  1  0
  7  9  1  0
  9 10  1  0
  9 11  1  0
 11 12  1  0
 11  1  1  0
  1 13  1  1
  2 14  1  0
  2 15  1  0
  4 16  1  6
  5 17  1  0
  5 18  1  0
  6 19  1  0
  7 20  1  1
  8 21  1  0
  9 22  1  6
 10 23  1  0
 11 24  1  6
 12 25  1  0
M  END
$$$$
