
     RDKit          3D

 70 74  0  0  0  0  0  0  0  0999 V2000
    0.0142   -6.8482   -0.3522 C   0  0  0  0  0  0  0  0  0  0  0  0
   -0.3296   -5.5764    0.1875 O   0  0  0  0  0  0  0  0  0  0  0  0
   -1.6433   -5.1444    0.4281 C   0  0  0  0  0  0  0  0  0  0  0  0
   -2.7626   -5.9529    0.1463 C   0  0  0  0  0  0  0  0  0  0  0  0
   -4.0534   -5.4844    0.4045 C   0  0  0  0  0  0  0  0  0  0  0  0
   -4.2411   -4.2149    0.9524 C   0  0  0  0  0  0  0  0  0  0  0  0
   -3.1388   -3.4069    1.2372 C   0  0  0  0  0  0  0  0  0  0  0  0
   -1.8363   -3.8603    0.9614 C   0  0  0  0  0  0  0  0  0  0  0  0
   -0.7127   -3.0708    1.2442 O   0  0  0  0  0  0  0  0  0  0  0  0
   -0.6943   -1.6686    1.2516 C   0  0  0  0  0  0  0  0  0  0  0  0
    0.0122   -0.9960    2.2534 C   0  0  0  0  0  0  0  0  0  0  0  0
    0.8008   -1.7239    3.1923 N   0  0  0  0  0  0  0  0  0  0  0  0
    2.4088   -2.1664    2.7295 S   0  0  0  0  0  6  0  0  0  0  0  0
    2.3925   -3.4851    2.0088 O   0  0  0  0  0  0  0  0  0  0  0  0
    3.2722   -2.2864    3.9535 O   0  0  0  0  0  0  0  0  0  0  0  0
    3.0482   -0.9029    1.6887 C   0  0  0  0  0  0  0  0  0  0  0  0
    3.7013    0.1533    2.2414 N   0  0  0  0  0  0  0  0  0  0  0  0
    4.0777    1.2317    1.5042 C   0  0  0  0  0  0  0  0  0  0  0  0
    3.7725    1.2968    0.1346 C   0  0  0  0  0  0  0  0  0  0  0  0
    3.0958    0.2119   -0.4494 C   0  0  0  0  0  0  0  0  0  0  0  0
    2.7380   -0.8913    0.3252 C   0  0  0  0  0  0  0  0  0  0  0  0
    4.1203    2.5351   -0.6685 C   0  0  0  0  0  0  0  0  0  0  0  0
    2.8496    3.2730   -1.1064 C   0  0  0  0  0  0  0  0  0  0  0  0
    5.0033    2.1914   -1.8742 C   0  0  0  0  0  0  0  0  0  0  0  0
    0.0812    0.3598    2.2406 N   0  0  0  0  0  0  0  0  0  0  0  0
   -0.5180    1.0924    1.2653 C   0  0  0  0  0  0  0  0  0  0  0  0
   -1.1995    0.4528    0.2779 N   0  0  0  0  0  0  0  0  0  0  0  0
   -1.3054   -0.9031    0.2440 C   0  0  0  0  0  0  0  0  0  0  0  0
   -1.9726   -1.5344   -0.8132 O   0  0  0  0  0  0  0  0  0  0  0  0
   -2.5546   -0.8346   -1.9126 C   0  0  0  0  0  0  0  0  0  0  0  0
   -3.8654   -0.1573   -1.5102 C   0  0  0  0  0  0  0  0  0  0  0  0
   -4.8074   -1.1143   -1.1077 O   0  0  0  0  0  0  0  0  0  0  0  0
   -0.3609    2.5661    1.2339 C   0  0  0  0  0  0  0  0  0  0  0  0
   -0.9156    3.3243    0.1875 C   0  0  0  0  0  0  0  0  0  0  0  0
   -0.7237    4.7142    0.1540 C   0  0  0  0  0  0  0  0  0  0  0  0
   -0.0046    5.3170    1.1391 N   0  0  0  0  0  0  0  0  0  0  0  0
    0.5409    4.6127    2.1642 C   0  0  0  0  0  0  0  0  0  0  0  0
    0.3760    3.2287    2.2303 C   0  0  0  0  0  0  0  0  0  0  0  0
   -1.2813    5.5317   -0.9353 C   0  0  0  0  0  0  0  0  0  0  0  0
   -1.1294    6.8665   -1.0296 N   0  0  0  0  0  0  0  0  0  0  0  0
   -1.7753    7.1837   -2.1380 N   0  0  0  0  0  0  0  0  0  0  0  0
   -2.2985    6.1083   -2.7008 N   0  0  0  0  0  0  0  0  0  0  0  0
   -2.0045    5.0482   -1.9660 N   0  0  0  0  0  0  0  0  0  0  0  0
    1.1180   -6.9208   -0.4334 H   0  0  0  0  0  0  0  0  0  0  0  0
   -0.4253   -6.9644   -1.3653 H   0  0  0  0  0  0  0  0  0  0  0  0
   -0.3471   -7.6573    0.3172 H   0  0  0  0  0  0  0  0  0  0  0  0
   -2.6457   -6.9434   -0.2714 H   0  0  0  0  0  0  0  0  0  0  0  0
   -4.9094   -6.1097    0.1856 H   0  0  0  0  0  0  0  0  0  0  0  0
   -5.2414   -3.8582    1.1613 H   0  0  0  0  0  0  0  0  0  0  0  0
   -3.2993   -2.4337    1.6825 H   0  0  0  0  0  0  0  0  0  0  0  0
    0.6084   -1.5903    4.2095 H   0  0  0  0  0  0  0  0  0  0  0  0
    4.5893    2.0498    1.9942 H   0  0  0  0  0  0  0  0  0  0  0  0
    2.8225    0.2281   -1.4962 H   0  0  0  0  0  0  0  0  0  0  0  0
    2.1839   -1.7063   -0.1229 H   0  0  0  0  0  0  0  0  0  0  0  0
    4.7035    3.2365   -0.0307 H   0  0  0  0  0  0  0  0  0  0  0  0
    2.2343    2.6434   -1.7839 H   0  0  0  0  0  0  0  0  0  0  0  0
    3.1164    4.2113   -1.6377 H   0  0  0  0  0  0  0  0  0  0  0  0
    2.2420    3.5410   -0.2166 H   0  0  0  0  0  0  0  0  0  0  0  0
    5.9065    1.6377   -1.5393 H   0  0  0  0  0  0  0  0  0  0  0  0
    5.3356    3.1239   -2.3785 H   0  0  0  0  0  0  0  0  0  0  0  0
    4.4534    1.5707   -2.6127 H   0  0  0  0  0  0  0  0  0  0  0  0
   -1.8400   -0.0797   -2.3071 H   0  0  0  0  0  0  0  0  0  0  0  0
   -2.7610   -1.5626   -2.7255 H   0  0  0  0  0  0  0  0  0  0  0  0
   -3.6917    0.5943   -0.7072 H   0  0  0  0  0  0  0  0  0  0  0  0
   -4.2697    0.3857   -2.3904 H   0  0  0  0  0  0  0  0  0  0  0  0
   -4.6532   -1.2770   -0.1413 H   0  0  0  0  0  0  0  0  0  0  0  0
   -1.4827    2.8404   -0.5983 H   0  0  0  0  0  0  0  0  0  0  0  0
    1.1088    5.1279    2.9273 H   0  0  0  0  0  0  0  0  0  0  0  0
    0.8277    2.6846    3.0501 H   0  0  0  0  0  0  0  0  0  0  0  0
   -1.8606    8.1520   -2.5176 H   0  0  0  0  0  0  0  0  0  0  0  0
  1  2  1  0
  2  3  1  0
  3  4  2  0
  4  5  1  0
  5  6  2  0
  6  7  1  0
  7  8  2  0
  8  9  1  0
  9 10  1  0
 10 11  1  0
 11 12  1  0
 12 13  1  0
 13 14  2  0
 13 15  2  0
 13 16  1  0
 16 17  2  0
 17 18  1  0
 18 19  2  0
 19 20  1  0
 20 21  2  0
 19 22  1  0
 22 23  1  0
 22 24  1  0
 11 25  2  0
 25 26  1  0
 26 27  2  0
 27 28  1  0
 28 29  1  0
 29 30  1  0
 30 31  1  0
 31 32  1  0
 26 33  1  0
 33 34  2  0
 34 35  1  0
 35 36  2  0
 36 37  1  0
 37 38  2  0
 35 39  1  0
 39 40  2  0
 40 41  1  0
 41 42  1  0
 42 43  2  0
  8  3  1  0
 28 10  2  0
 38 33  1  0
 43 39  1  0
 21 16  1  0
  1 44  1  0
  1 45  1  0
  1 46  1  0
  4 47  1  0
  5 48  1  0
  6 49  1  0
  7 50  1  0
 12 51  1  0
 18 52  1  0
 20 53  1  0
 21 54  1  0
 22 55  1  0
 23 56  1  0
 23 57  1  0
 23 58  1  0
 24 59  1  0
 24 60  1  0
 24 61  1  0
 30 62  1  0
 30 63  1  0
 31 64  1  0
 31 65  1  0
 32 66  1  0
 34 67  1  0
 37 68  1  0
 38 69  1  0
 41 70  1  0
M  END
$$$$
