
     RDKit          3D

 50 52  0  0  0  0  0  0  0  0999 V2000
   -1.6776    2.3680    2.4480 C   0  0  0  0  0  0  0  0  0  0  0  0
   -2.2226    1.1378    1.9996 O   0  0  0  0  0  0  0  0  0  0  0  0
   -1.5658    0.5863    0.8530 C   0  0  0  0  0  0  0  0  0  0  0  0
   -0.0588    0.2663    1.1755 C   0  0  2  0  0  0  0  0  0  0  0  0
    0.5643   -0.3713    0.0563 O   0  0  0  0  0  0  0  0  0  0  0  0
    1.9472   -0.5338   -0.0748 C   0  0  0  0  0  0  0  0  0  0  0  0
    2.4414   -1.1671   -1.1701 N   0  0  0  0  0  0  0  0  0  0  0  0
    3.7789   -1.3453   -1.3373 C   0  0  0  0  0  0  0  0  0  0  0  0
    4.2924   -2.0396   -2.5580 C   0  0  0  0  0  0  0  0  0  0  0  0
    4.6667   -0.8663   -0.3690 C   0  0  0  0  0  0  0  0  0  0  0  0
    4.1448   -0.2187    0.7548 C   0  0  0  0  0  0  0  0  0  0  0  0
    5.0557    0.3161    1.8131 C   0  0  0  0  0  0  0  0  0  0  0  0
    2.8000   -0.0639    0.8764 N   0  0  0  0  0  0  0  0  0  0  0  0
    0.0797   -0.6197    2.3900 C   0  0  0  0  0  0  0  0  0  0  0  0
   -0.0171   -2.0023    2.2588 O   0  0  0  0  0  0  0  0  0  0  0  0
    0.2738   -0.1130    3.5270 O   0  0  0  0  0  0  0  0  0  0  0  0
   -2.2620   -0.7454    0.5091 C   0  0  0  0  0  0  0  0  0  0  0  0
   -3.0218   -1.4415    1.4762 C   0  0  0  0  0  0  0  0  0  0  0  0
   -3.6210   -2.6663    1.1684 C   0  0  0  0  0  0  0  0  0  0  0  0
   -3.4659   -3.2247   -0.1004 C   0  0  0  0  0  0  0  0  0  0  0  0
   -2.7053   -2.5631   -1.0644 C   0  0  0  0  0  0  0  0  0  0  0  0
   -2.1026   -1.3389   -0.7644 C   0  0  0  0  0  0  0  0  0  0  0  0
   -1.7726    1.5441   -0.3428 C   0  0  0  0  0  0  0  0  0  0  0  0
   -0.7078    2.1471   -1.0522 C   0  0  0  0  0  0  0  0  0  0  0  0
   -0.9636    3.0159   -2.1173 C   0  0  0  0  0  0  0  0  0  0  0  0
   -2.2764    3.3081   -2.4874 C   0  0  0  0  0  0  0  0  0  0  0  0
   -3.3398    2.7373   -1.7890 C   0  0  0  0  0  0  0  0  0  0  0  0
   -3.0925    1.8683   -0.7235 C   0  0  0  0  0  0  0  0  0  0  0  0
   -1.4012    3.0629    1.6280 H   0  0  0  0  0  0  0  0  0  0  0  0
   -0.8016    2.1924    3.1036 H   0  0  0  0  0  0  0  0  0  0  0  0
   -2.4437    2.8832    3.0624 H   0  0  0  0  0  0  0  0  0  0  0  0
    0.4799    1.2178    1.3788 H   0  0  0  0  0  0  0  0  0  0  0  0
    4.9122   -1.3377   -3.1546 H   0  0  0  0  0  0  0  0  0  0  0  0
    3.4498   -2.3964   -3.1877 H   0  0  0  0  0  0  0  0  0  0  0  0
    4.9102   -2.9134   -2.2621 H   0  0  0  0  0  0  0  0  0  0  0  0
    5.7364   -0.9943   -0.4870 H   0  0  0  0  0  0  0  0  0  0  0  0
    5.7031   -0.4990    2.1999 H   0  0  0  0  0  0  0  0  0  0  0  0
    4.4686    0.7351    2.6577 H   0  0  0  0  0  0  0  0  0  0  0  0
    5.6928    1.1192    1.3868 H   0  0  0  0  0  0  0  0  0  0  0  0
    0.0658   -2.6082    3.0661 H   0  0  0  0  0  0  0  0  0  0  0  0
   -3.1460   -1.0504    2.4773 H   0  0  0  0  0  0  0  0  0  0  0  0
   -4.2020   -3.1867    1.9189 H   0  0  0  0  0  0  0  0  0  0  0  0
   -3.9298   -4.1742   -0.3346 H   0  0  0  0  0  0  0  0  0  0  0  0
   -2.5785   -3.0014   -2.0459 H   0  0  0  0  0  0  0  0  0  0  0  0
   -1.5105   -0.8543   -1.5302 H   0  0  0  0  0  0  0  0  0  0  0  0
    0.3246    1.9691   -0.7946 H   0  0  0  0  0  0  0  0  0  0  0  0
   -0.1397    3.4681   -2.6545 H   0  0  0  0  0  0  0  0  0  0  0  0
   -2.4695    3.9822   -3.3119 H   0  0  0  0  0  0  0  0  0  0  0  0
   -4.3585    2.9699   -2.0714 H   0  0  0  0  0  0  0  0  0  0  0  0
   -3.9343    1.4418   -0.1919 H   0  0  0  0  0  0  0  0  0  0  0  0
  1  2  1  0
  2  3  1  0
  3  4  1  0
  4  5  1  0
  5  6  1  0
  6  7  2  0
  7  8  1  0
  8  9  1  0
  8 10  2  0
 10 11  1  0
 11 12  1  0
 11 13  2  0
  4 14  1  0
 14 15  1  0
 14 16  2  0
  3 17  1  0
 17 18  2  0
 18 19  1  0
 19 20  2  0
 20 21  1  0
 21 22  2  0
  3 23  1  0
 23 24  2  0
 24 25  1  0
 25 26  2  0
 26 27  1  0
 27 28  2  0
 13  6  1  0
 22 17  1  0
 28 23  1  0
  1 29  1  0
  1 30  1  0
  1 31  1  0
  4 32  1  1
  9 33  1  0
  9 34  1  0
  9 35  1  0
 10 36  1  0
 12 37  1  0
 12 38  1  0
 12 39  1  0
 15 40  1  0
 18 41  1  0
 19 42  1  0
 20 43  1  0
 21 44  1  0
 22 45  1  0
 24 46  1  0
 25 47  1  0
 26 48  1  0
 27 49  1  0
 28 50  1  0
M  END
$$$$
