
     RDKit          3D

 56 56  0  0  0  0  0  0  0  0999 V2000
   -1.8427    1.4956   -4.0135 C   0  0  0  0  0  0  0  0  0  0  0  0
   -1.2135    2.0453   -2.7299 C   0  0  2  0  0  0  0  0  0  0  0  0
   -1.1716    1.0076   -1.6954 N   0  0  0  0  0  0  0  0  0  0  0  0
   -0.3758    1.1502   -0.5095 C   0  0  0  0  0  0  0  0  0  0  0  0
    0.3039    2.1972   -0.3243 O   0  0  0  0  0  0  0  0  0  0  0  0
   -0.3805    0.0709    0.5400 C   0  0  2  0  0  0  0  0  0  0  0  0
   -1.3063    0.4841    1.7024 C   0  0  0  0  0  0  0  0  0  0  0  0
   -1.4300   -0.5824    2.8063 C   0  0  0  0  0  0  0  0  0  0  0  0
   -2.1943   -1.8315    2.3501 C   0  0  0  0  0  0  0  0  0  0  0  0
   -2.4302   -2.7165    3.5055 N   0  0  0  0  0  0  0  0  0  0  0  0
   -3.8467   -2.7556    3.9045 C   0  0  0  0  0  0  0  0  0  0  0  0
   -4.0303   -3.7629    4.9529 N   0  0  0  0  0  0  0  0  0  0  0  0
   -4.2761   -1.4358    4.3781 N   0  0  0  0  0  0  0  0  0  0  0  0
    0.9883   -0.1620    1.0119 N   0  0  0  0  0  0  0  0  0  0  0  0
    1.9445   -0.8960    0.2394 C   0  0  0  0  0  0  0  0  0  0  0  0
    1.5968   -1.4577   -0.8359 O   0  0  0  0  0  0  0  0  0  0  0  0
    3.2673   -0.9771    0.6873 O   0  0  0  0  0  0  0  0  0  0  0  0
    4.3083   -1.6042   -0.0588 C   0  0  0  0  0  0  0  0  0  0  0  0
    4.6584   -0.7767   -1.2658 C   0  0  0  0  0  0  0  0  0  0  0  0
    4.3489   -1.2291   -2.5595 C   0  0  0  0  0  0  0  0  0  0  0  0
    4.6533   -0.4391   -3.6726 C   0  0  0  0  0  0  0  0  0  0  0  0
    5.2642    0.8063   -3.5021 C   0  0  0  0  0  0  0  0  0  0  0  0
    5.5707    1.2646   -2.2178 C   0  0  0  0  0  0  0  0  0  0  0  0
    5.2677    0.4780   -1.1021 C   0  0  0  0  0  0  0  0  0  0  0  0
   -2.0089    3.2334   -2.2316 C   0  0  0  0  0  0  0  0  0  0  0  0
   -3.1485    3.0581   -1.8256 O   0  0  0  0  0  0  0  0  0  0  0  0
   -1.4478    4.6300   -2.2092 C   0  0  0  0  0  0  0  0  0  0  0  0
   -0.1742    4.6887   -2.7460 F   0  0  0  0  0  0  0  0  0  0  0  0
   -1.2493    0.6329   -4.3846 H   0  0  0  0  0  0  0  0  0  0  0  0
   -1.8508    2.2799   -4.8006 H   0  0  0  0  0  0  0  0  0  0  0  0
   -2.8855    1.1583   -3.8293 H   0  0  0  0  0  0  0  0  0  0  0  0
   -0.1708    2.3364   -2.9785 H   0  0  0  0  0  0  0  0  0  0  0  0
   -1.7432    0.1398   -1.8128 H   0  0  0  0  0  0  0  0  0  0  0  0
   -0.7734   -0.8639    0.0876 H   0  0  0  0  0  0  0  0  0  0  0  0
   -0.9156    1.4184    2.1632 H   0  0  0  0  0  0  0  0  0  0  0  0
   -2.3202    0.7153    1.3065 H   0  0  0  0  0  0  0  0  0  0  0  0
   -1.9719   -0.1229    3.6604 H   0  0  0  0  0  0  0  0  0  0  0  0
   -0.4245   -0.8762    3.1765 H   0  0  0  0  0  0  0  0  0  0  0  0
   -1.5816   -2.3708    1.5946 H   0  0  0  0  0  0  0  0  0  0  0  0
   -3.1425   -1.5329    1.8471 H   0  0  0  0  0  0  0  0  0  0  0  0
   -2.1523   -3.6892    3.2326 H   0  0  0  0  0  0  0  0  0  0  0  0
   -4.4724   -3.0490    3.0297 H   0  0  0  0  0  0  0  0  0  0  0  0
   -3.4929   -3.4753    5.8031 H   0  0  0  0  0  0  0  0  0  0  0  0
   -5.0421   -3.7947    5.2159 H   0  0  0  0  0  0  0  0  0  0  0  0
   -3.7505   -1.1965    5.2503 H   0  0  0  0  0  0  0  0  0  0  0  0
   -5.2913   -1.4815    4.6250 H   0  0  0  0  0  0  0  0  0  0  0  0
    1.3232    0.3104    1.8823 H   0  0  0  0  0  0  0  0  0  0  0  0
    4.0029   -2.6352   -0.3432 H   0  0  0  0  0  0  0  0  0  0  0  0
    5.2056   -1.6937    0.5893 H   0  0  0  0  0  0  0  0  0  0  0  0
    3.8696   -2.1889   -2.7068 H   0  0  0  0  0  0  0  0  0  0  0  0
    4.4133   -0.7915   -4.6674 H   0  0  0  0  0  0  0  0  0  0  0  0
    5.4981    1.4169   -4.3646 H   0  0  0  0  0  0  0  0  0  0  0  0
    6.0408    2.2307   -2.0866 H   0  0  0  0  0  0  0  0  0  0  0  0
    5.5039    0.8463   -0.1113 H   0  0  0  0  0  0  0  0  0  0  0  0
   -1.4113    4.9932   -1.1609 H   0  0  0  0  0  0  0  0  0  0  0  0
   -2.1102    5.3002   -2.7961 H   0  0  0  0  0  0  0  0  0  0  0  0
  1  2  1  0
  2  3  1  0
  3  4  1  0
  4  5  2  0
  4  6  1  0
  6  7  1  0
  7  8  1  0
  8  9  1  0
  9 10  1  0
 10 11  1  0
 11 12  1  0
 11 13  1  0
  6 14  1  0
 14 15  1  0
 15 16  2  0
 15 17  1  0
 17 18  1  0
 18 19  1  0
 19 20  2  0
 20 21  1  0
 21 22  2  0
 22 23  1  0
 23 24  2  0
  2 25  1  0
 25 26  2  0
 25 27  1  0
 27 28  1  0
 24 19  1  0
  1 29  1  0
  1 30  1  0
  1 31  1  0
  2 32  1  6
  3 33  1  0
  6 34  1  6
  7 35  1  0
  7 36  1  0
  8 37  1  0
  8 38  1  0
  9 39  1  0
  9 40  1  0
 10 41  1  0
 11 42  1  0
 12 43  1  0
 12 44  1  0
 13 45  1  0
 13 46  1  0
 14 47  1  0
 18 48  1  0
 18 49  1  0
 20 50  1  0
 21 51  1  0
 22 52  1  0
 23 53  1  0
 24 54  1  0
 27 55  1  0
 27 56  1  0
M  END
$$$$
