
     RDKit          3D

 63 65  0  0  0  0  0  0  0  0999 V2000
    3.2700   -2.0426   -0.1214 C   0  0  0  0  0  0  0  0  0  0  0  0
    2.4287   -1.1633   -1.0658 C   0  0  1  0  0  0  0  0  0  0  0  0
    1.0099   -0.9584   -0.4901 C   0  0  0  0  0  0  0  0  0  0  0  0
    0.0943   -0.2277   -1.4090 N   0  0  0  0  0  0  0  0  0  0  0  0
   -0.8987    0.5867   -0.6687 C   0  0  0  0  0  0  0  0  0  0  0  0
   -1.9023   -0.2935    0.1105 C   0  0  2  0  0  0  0  0  0  0  0  0
   -2.6982   -1.2186   -0.8369 C   0  0  0  0  0  0  0  0  0  0  0  0
   -3.6073   -2.1481   -0.0730 C   0  0  0  0  0  0  0  0  0  0  0  0
   -4.9685   -1.8390    0.0896 C   0  0  0  0  0  0  0  0  0  0  0  0
   -5.7993   -2.6866    0.8287 C   0  0  0  0  0  0  0  0  0  0  0  0
   -5.2775   -3.8435    1.4141 C   0  0  0  0  0  0  0  0  0  0  0  0
   -3.9229   -4.1532    1.2640 C   0  0  0  0  0  0  0  0  0  0  0  0
   -3.0883   -3.3079    0.5265 C   0  0  0  0  0  0  0  0  0  0  0  0
   -2.8218    0.5792    0.9333 C   0  0  0  0  0  0  0  0  0  0  0  0
   -2.7902    0.4893    2.1911 O   0  0  0  0  0  0  0  0  0  0  0  0
   -3.7253    1.5013    0.3029 N   0  0  0  0  0  0  0  0  0  0  0  0
   -4.6247    2.3585    1.0694 C   0  0  0  0  0  0  0  0  0  0  0  0
   -3.8514    3.4529    1.7322 C   0  0  0  0  0  0  0  0  0  0  0  0
   -3.2673    4.4518    0.9600 O   0  0  0  0  0  0  0  0  0  0  0  0
   -3.7115    3.4608    2.9844 O   0  0  0  0  0  0  0  0  0  0  0  0
    0.7843    0.5666   -2.4544 C   0  0  0  0  0  0  0  0  0  0  0  0
    2.0518    1.2457   -1.9207 C   0  0  0  0  0  0  0  0  0  0  0  0
    3.1252    0.1984   -1.4633 C   0  0  2  0  0  0  0  0  0  0  0  0
    4.0181   -0.0843   -2.7073 C   0  0  0  0  0  0  0  0  0  0  0  0
    3.9617    0.7817   -0.2874 C   0  0  0  0  0  0  0  0  0  0  0  0
    3.3210    1.3098    0.8605 C   0  0  0  0  0  0  0  0  0  0  0  0
    4.0549    1.7959    1.9471 C   0  0  0  0  0  0  0  0  0  0  0  0
    3.3832    2.3168    3.0511 O   0  0  0  0  0  0  0  0  0  0  0  0
    5.4502    1.7533    1.9208 C   0  0  0  0  0  0  0  0  0  0  0  0
    6.1078    1.2182    0.8166 C   0  0  0  0  0  0  0  0  0  0  0  0
    5.3792    0.7300   -0.2708 C   0  0  0  0  0  0  0  0  0  0  0  0
    2.8039   -3.0461   -0.0216 H   0  0  0  0  0  0  0  0  0  0  0  0
    4.2943   -2.1812   -0.5252 H   0  0  0  0  0  0  0  0  0  0  0  0
    3.3381   -1.5919    0.8911 H   0  0  0  0  0  0  0  0  0  0  0  0
    2.2822   -1.7732   -1.9872 H   0  0  0  0  0  0  0  0  0  0  0  0
    1.0833   -0.4628    0.4992 H   0  0  0  0  0  0  0  0  0  0  0  0
    0.5660   -1.9601   -0.3002 H   0  0  0  0  0  0  0  0  0  0  0  0
   -1.4825    1.2146   -1.3772 H   0  0  0  0  0  0  0  0  0  0  0  0
   -0.3816    1.2821    0.0309 H   0  0  0  0  0  0  0  0  0  0  0  0
   -1.3305   -0.9358    0.8158 H   0  0  0  0  0  0  0  0  0  0  0  0
   -3.2845   -0.6180   -1.5657 H   0  0  0  0  0  0  0  0  0  0  0  0
   -1.9925   -1.8339   -1.4363 H   0  0  0  0  0  0  0  0  0  0  0  0
   -5.3843   -0.9414   -0.3511 H   0  0  0  0  0  0  0  0  0  0  0  0
   -6.8473   -2.4450    0.9501 H   0  0  0  0  0  0  0  0  0  0  0  0
   -5.9219   -4.4979    1.9867 H   0  0  0  0  0  0  0  0  0  0  0  0
   -3.5188   -5.0466    1.7222 H   0  0  0  0  0  0  0  0  0  0  0  0
   -2.0383   -3.5538    0.4245 H   0  0  0  0  0  0  0  0  0  0  0  0
   -3.7656    1.5543   -0.7393 H   0  0  0  0  0  0  0  0  0  0  0  0
   -5.3706    2.8166    0.3853 H   0  0  0  0  0  0  0  0  0  0  0  0
   -5.1785    1.7528    1.8196 H   0  0  0  0  0  0  0  0  0  0  0  0
   -2.7315    5.1954    1.3915 H   0  0  0  0  0  0  0  0  0  0  0  0
    0.1148    1.3377   -2.8950 H   0  0  0  0  0  0  0  0  0  0  0  0
    1.0470   -0.1061   -3.2980 H   0  0  0  0  0  0  0  0  0  0  0  0
    1.7388    1.9310   -1.1103 H   0  0  0  0  0  0  0  0  0  0  0  0
    2.4601    1.9152   -2.7102 H   0  0  0  0  0  0  0  0  0  0  0  0
    4.7206   -0.9239   -2.5224 H   0  0  0  0  0  0  0  0  0  0  0  0
    3.4012   -0.3716   -3.5855 H   0  0  0  0  0  0  0  0  0  0  0  0
    4.5998    0.8192   -2.9926 H   0  0  0  0  0  0  0  0  0  0  0  0
    2.2462    1.3528    0.9338 H   0  0  0  0  0  0  0  0  0  0  0  0
    3.8842    2.6760    3.8554 H   0  0  0  0  0  0  0  0  0  0  0  0
    6.0252    2.1268    2.7586 H   0  0  0  0  0  0  0  0  0  0  0  0
    7.1894    1.1745    0.8045 H   0  0  0  0  0  0  0  0  0  0  0  0
    5.9485    0.3099   -1.0854 H   0  0  0  0  0  0  0  0  0  0  0  0
  1  2  1  0
  2  3  1  0
  3  4  1  0
  4  5  1  0
  5  6  1  0
  6  7  1  0
  7  8  1  0
  8  9  2  0
  9 10  1  0
 10 11  2  0
 11 12  1  0
 12 13  2  0
  6 14  1  0
 14 15  2  0
 14 16  1  0
 16 17  1  0
 17 18  1  0
 18 19  1  0
 18 20  2  0
  4 21  1  0
 21 22  1  0
 22 23  1  0
 23 24  1  6
 23 25  1  0
 25 26  2  0
 26 27  1  0
 27 28  1  0
 27 29  2  0
 29 30  1  0
 30 31  2  0
 23  2  1  0
 31 25  1  0
 13  8  1  0
  1 32  1  0
  1 33  1  0
  1 34  1  0
  2 35  1  6
  3 36  1  0
  3 37  1  0
  5 38  1  0
  5 39  1  0
  6 40  1  1
  7 41  1  0
  7 42  1  0
  9 43  1  0
 10 44  1  0
 11 45  1  0
 12 46  1  0
 13 47  1  0
 16 48  1  0
 17 49  1  0
 17 50  1  0
 19 51  1  0
 21 52  1  0
 21 53  1  0
 22 54  1  0
 22 55  1  0
 24 56  1  0
 24 57  1  0
 24 58  1  0
 26 59  1  0
 28 60  1  0
 29 61  1  0
 30 62  1  0
 31 63  1  0
M  END
$$$$
