
     RDKit          3D

 80 83  0  0  0  0  0  0  0  0999 V2000
   -1.4206    0.9742   -2.2324 C   0  0  2  0  0  0  0  0  0  0  0  0
   -0.5341   -0.2142   -1.8187 C   0  0  0  0  0  0  0  0  0  0  0  0
    0.8289    0.2132   -1.3044 C   0  0  0  0  0  0  0  0  0  0  0  0
    1.9105   -0.6906   -1.3682 C   0  0  0  0  0  0  0  0  0  0  0  0
    3.1665   -0.3110   -0.8948 C   0  0  0  0  0  0  0  0  0  0  0  0
    3.3728    0.9468   -0.3177 C   0  0  0  0  0  0  0  0  0  0  0  0
    4.7497    1.2885    0.2046 C   0  0  0  0  0  0  0  0  0  0  0  0
    4.7411    1.3676    1.6727 N   0  0  0  0  0  0  0  0  0  0  0  0
    4.7528    0.0389    2.3239 C   0  0  0  0  0  0  0  0  0  0  0  0
    6.1169   -0.3649    2.9678 C   0  0  0  0  0  0  0  0  0  0  0  0
    7.2548   -0.3425    1.9268 C   0  0  0  0  0  0  0  0  0  0  0  0
    6.4718    0.5641    4.1508 C   0  0  0  0  0  0  0  0  0  0  0  0
    5.9837   -1.8041    3.5110 C   0  0  0  0  0  0  0  0  0  0  0  0
    2.2878    1.8469   -0.2040 C   0  0  0  0  0  0  0  0  0  0  0  0
    2.4596    3.0996    0.3953 O   0  0  0  0  0  0  0  0  0  0  0  0
    1.0093    1.4814   -0.6949 C   0  0  0  0  0  0  0  0  0  0  0  0
   -0.1557    2.4076   -0.5871 C   0  0  0  0  0  0  0  0  0  0  0  0
   -0.0039    3.5823   -0.1549 O   0  0  0  0  0  0  0  0  0  0  0  0
   -1.4791    1.9755   -1.0937 C   0  0  0  0  0  0  0  0  0  0  0  0
   -2.6485    2.4555   -0.5975 C   0  0  0  0  0  0  0  0  0  0  0  0
   -2.6857    3.2557    0.5519 O   0  0  0  0  0  0  0  0  0  0  0  0
   -3.9618    2.1604   -1.2930 C   0  0  2  0  0  0  0  0  0  0  0  0
   -4.0835    3.0635   -2.3698 O   0  0  0  0  0  0  0  0  0  0  0  0
   -5.1208    2.3512   -0.3385 C   0  0  0  0  0  0  0  0  0  0  0  0
   -5.6563    3.4902   -0.2428 O   0  0  0  0  0  0  0  0  0  0  0  0
   -5.6020    1.2376    0.5155 C   0  0  0  0  0  0  0  0  0  0  0  0
   -6.6917    1.5175    1.4783 C   0  0  0  0  0  0  0  0  0  0  0  0
   -7.8530    0.6866    1.5275 N   0  0  0  0  0  0  0  0  0  0  0  0
   -6.6166    2.5230    2.2340 O   0  0  0  0  0  0  0  0  0  0  0  0
   -5.0543    0.0025    0.4140 C   0  0  0  0  0  0  0  0  0  0  0  0
   -5.3486   -0.9897    1.3561 O   0  0  0  0  0  0  0  0  0  0  0  0
   -4.0127   -0.3334   -0.6532 C   0  0  1  0  0  0  0  0  0  0  0  0
   -4.1715   -1.7028   -1.2224 N   0  0  0  0  0  0  0  0  0  0  0  0
   -3.5016   -2.7467   -0.4284 C   0  0  0  0  0  0  0  0  0  0  0  0
   -5.5609   -2.0906   -1.5331 C   0  0  0  0  0  0  0  0  0  0  0  0
   -3.9780    0.7070   -1.8137 C   0  0  2  0  0  0  0  0  0  0  0  0
   -2.7938    0.4927   -2.7775 C   0  0  0  0  0  0  0  0  0  0  0  0
    1.7420   -2.0148   -1.8998 N   0  0  0  0  0  0  0  0  0  0  0  0
    0.9802   -3.0190   -1.1573 C   0  0  0  0  0  0  0  0  0  0  0  0
    2.3409   -2.3532   -3.1893 C   0  0  0  0  0  0  0  0  0  0  0  0
   -0.8997    1.4797   -3.0776 H   0  0  0  0  0  0  0  0  0  0  0  0
   -1.0286   -0.8017   -1.0229 H   0  0  0  0  0  0  0  0  0  0  0  0
   -0.4094   -0.8720   -2.7063 H   0  0  0  0  0  0  0  0  0  0  0  0
    3.9851   -1.0185   -0.9570 H   0  0  0  0  0  0  0  0  0  0  0  0
    5.5120    0.5586   -0.1462 H   0  0  0  0  0  0  0  0  0  0  0  0
    5.0585    2.2677   -0.2217 H   0  0  0  0  0  0  0  0  0  0  0  0
    5.5423    1.9616    1.9785 H   0  0  0  0  0  0  0  0  0  0  0  0
    3.9751    0.0511    3.1178 H   0  0  0  0  0  0  0  0  0  0  0  0
    4.4319   -0.7579    1.6156 H   0  0  0  0  0  0  0  0  0  0  0  0
    7.0087   -1.0010    1.0662 H   0  0  0  0  0  0  0  0  0  0  0  0
    7.4361    0.6842    1.5464 H   0  0  0  0  0  0  0  0  0  0  0  0
    8.2036   -0.7043    2.3789 H   0  0  0  0  0  0  0  0  0  0  0  0
    7.3720    0.1883    4.6838 H   0  0  0  0  0  0  0  0  0  0  0  0
    5.6333    0.6084    4.8787 H   0  0  0  0  0  0  0  0  0  0  0  0
    6.7002    1.5959    3.8155 H   0  0  0  0  0  0  0  0  0  0  0  0
    6.9308   -2.1377    3.9881 H   0  0  0  0  0  0  0  0  0  0  0  0
    5.7438   -2.5147    2.6903 H   0  0  0  0  0  0  0  0  0  0  0  0
    5.1737   -1.8634    4.2701 H   0  0  0  0  0  0  0  0  0  0  0  0
    3.3389    3.4303    0.7694 H   0  0  0  0  0  0  0  0  0  0  0  0
   -1.9236    3.3259    1.2129 H   0  0  0  0  0  0  0  0  0  0  0  0
   -4.9449    2.8820   -2.8309 H   0  0  0  0  0  0  0  0  0  0  0  0
   -7.9711   -0.1071    0.8591 H   0  0  0  0  0  0  0  0  0  0  0  0
   -8.6138    0.8855    2.2143 H   0  0  0  0  0  0  0  0  0  0  0  0
   -5.8921   -0.8307    2.1945 H   0  0  0  0  0  0  0  0  0  0  0  0
   -3.0378   -0.2629   -0.1271 H   0  0  0  0  0  0  0  0  0  0  0  0
   -2.4321   -2.4971   -0.2746 H   0  0  0  0  0  0  0  0  0  0  0  0
   -3.9856   -2.8850    0.5599 H   0  0  0  0  0  0  0  0  0  0  0  0
   -3.5310   -3.7139   -0.9746 H   0  0  0  0  0  0  0  0  0  0  0  0
   -6.1112   -1.2657   -2.0288 H   0  0  0  0  0  0  0  0  0  0  0  0
   -5.5555   -2.9507   -2.2357 H   0  0  0  0  0  0  0  0  0  0  0  0
   -6.1171   -2.3906   -0.6194 H   0  0  0  0  0  0  0  0  0  0  0  0
   -4.9063    0.5782   -2.4117 H   0  0  0  0  0  0  0  0  0  0  0  0
   -2.7506   -0.5703   -3.1001 H   0  0  0  0  0  0  0  0  0  0  0  0
   -3.0107    1.0639   -3.7076 H   0  0  0  0  0  0  0  0  0  0  0  0
    1.6159   -3.9105   -0.9740 H   0  0  0  0  0  0  0  0  0  0  0  0
    0.6462   -2.6188   -0.1757 H   0  0  0  0  0  0  0  0  0  0  0  0
    0.0864   -3.3202   -1.7433 H   0  0  0  0  0  0  0  0  0  0  0  0
    3.4447   -2.2504   -3.1324 H   0  0  0  0  0  0  0  0  0  0  0  0
    1.9500   -1.6704   -3.9729 H   0  0  0  0  0  0  0  0  0  0  0  0
    2.0973   -3.3982   -3.4778 H   0  0  0  0  0  0  0  0  0  0  0  0
  1  2  1  0
  2  3  1  0
  3  4  2  0
  4  5  1  0
  5  6  2  0
  6  7  1  0
  7  8  1  0
  8  9  1  0
  9 10  1  0
 10 11  1  0
 10 12  1  0
 10 13  1  0
  6 14  1  0
 14 15  1  0
 14 16  2  0
 16 17  1  0
 17 18  2  0
 17 19  1  0
 19 20  2  0
 20 21  1  0
 20 22  1  0
 22 23  1  6
 22 24  1  0
 24 25  2  0
 24 26  1  0
 26 27  1  0
 27 28  1  0
 27 29  2  0
 26 30  2  0
 30 31  1  0
 30 32  1  0
 32 33  1  0
 33 34  1  0
 33 35  1  0
 32 36  1  0
 36 37  1  0
  4 38  1  0
 38 39  1  0
 38 40  1  0
 19  1  1  0
 36 22  1  0
 37  1  1  0
 16  3  1  0
  1 41  1  6
  2 42  1  0
  2 43  1  0
  5 44  1  0
  7 45  1  0
  7 46  1  0
  8 47  1  0
  9 48  1  0
  9 49  1  0
 11 50  1  0
 11 51  1  0
 11 52  1  0
 12 53  1  0
 12 54  1  0
 12 55  1  0
 13 56  1  0
 13 57  1  0
 13 58  1  0
 15 59  1  0
 21 60  1  0
 23 61  1  0
 28 62  1  0
 28 63  1  0
 31 64  1  0
 32 65  1  1
 34 66  1  0
 34 67  1  0
 34 68  1  0
 35 69  1  0
 35 70  1  0
 35 71  1  0
 36 72  1  6
 37 73  1  0
 37 74  1  0
 39 75  1  0
 39 76  1  0
 39 77  1  0
 40 78  1  0
 40 79  1  0
 40 80  1  0
M  END
$$$$
