
     RDKit          3D

 33 34  0  0  0  0  0  0  0  0999 V2000
    3.2884   -0.1226    0.1146 C   0  0  1  0  0  0  0  0  0  0  0  0
    3.3742   -1.2255   -0.7545 O   0  0  0  0  0  0  0  0  0  0  0  0
    4.5010    0.8154   -0.0662 C   0  0  0  0  0  0  0  0  0  0  0  0
    5.7620    0.1326    0.2194 N   0  0  0  0  0  0  0  0  0  0  0  0
    1.9669    0.6387   -0.1035 C   0  0  0  0  0  0  0  0  0  0  0  0
    0.8075   -0.2268    0.1339 N   0  0  0  0  0  0  0  0  0  0  0  0
   -0.5585    0.2193   -0.0193 C   0  0  0  0  0  0  0  0  0  0  0  0
   -1.6267   -0.6791    0.1898 C   0  0  0  0  0  0  0  0  0  0  0  0
   -1.3705   -1.9762    0.5200 N   0  0  0  0  0  0  0  0  0  0  0  0
   -2.3586   -2.8882    0.7041 C   0  0  0  0  0  0  0  0  0  0  0  0
   -3.6899   -2.5158    0.5409 C   0  0  0  0  0  0  0  0  0  0  0  0
   -3.9980   -1.1983    0.2038 C   0  0  0  0  0  0  0  0  0  0  0  0
   -2.9720   -0.2462    0.0431 C   0  0  0  0  0  0  0  0  0  0  0  0
   -3.2400    1.1036   -0.2922 C   0  0  0  0  0  0  0  0  0  0  0  0
   -2.1686    1.9754   -0.5228 C   0  0  0  0  0  0  0  0  0  0  0  0
   -0.8500    1.5448   -0.3863 C   0  0  0  0  0  0  0  0  0  0  0  0
   -4.5795    1.6150   -0.3865 N   0  0  0  0  0  4  0  0  0  0  0  0
   -4.8868    2.5499   -1.3480 O   0  0  0  0  0  1  0  0  0  0  0  0
   -5.3941    1.4122    0.5373 O   0  0  0  0  0  0  0  0  0  0  0  0
    3.2960   -0.5029    1.1597 H   0  0  0  0  0  0  0  0  0  0  0  0
    3.3658   -0.8763   -1.6842 H   0  0  0  0  0  0  0  0  0  0  0  0
    4.5273    1.2099   -1.1056 H   0  0  0  0  0  0  0  0  0  0  0  0
    4.4051    1.6839    0.6212 H   0  0  0  0  0  0  0  0  0  0  0  0
    5.7209   -0.2682    1.1847 H   0  0  0  0  0  0  0  0  0  0  0  0
    5.8813   -0.6601   -0.4521 H   0  0  0  0  0  0  0  0  0  0  0  0
    1.9239    1.4995    0.5990 H   0  0  0  0  0  0  0  0  0  0  0  0
    1.9314    1.0250   -1.1456 H   0  0  0  0  0  0  0  0  0  0  0  0
    0.9839   -1.2129    0.4322 H   0  0  0  0  0  0  0  0  0  0  0  0
   -2.1078   -3.9076    0.9650 H   0  0  0  0  0  0  0  0  0  0  0  0
   -4.4791   -3.2457    0.6680 H   0  0  0  0  0  0  0  0  0  0  0  0
   -5.0375   -0.9458    0.0513 H   0  0  0  0  0  0  0  0  0  0  0  0
   -2.3563    3.0092   -0.7851 H   0  0  0  0  0  0  0  0  0  0  0  0
   -0.0615    2.2634   -0.5613 H   0  0  0  0  0  0  0  0  0  0  0  0
  1  2  1  0
  1  3  1  0
  3  4  1  0
  1  5  1  0
  5  6  1  0
  6  7  1  0
  7  8  2  0
  8  9  1  0
  9 10  2  0
 10 11  1  0
 11 12  2  0
 12 13  1  0
 13 14  2  0
 14 15  1  0
 15 16  2  0
 14 17  1  0
 17 18  1  0
 17 19  2  0
 16  7  1  0
 13  8  1  0
  1 20  1  1
  2 21  1  0
  3 22  1  0
  3 23  1  0
  4 24  1  0
  4 25  1  0
  5 26  1  0
  5 27  1  0
  6 28  1  0
 10 29  1  0
 11 30  1  0
 12 31  1  0
 15 32  1  0
 16 33  1  0
M  CHG  2  17   1  18  -1
M  END
$$$$
