
     RDKit          3D

 49 50  0  0  0  0  0  0  0  0999 V2000
    6.9951    0.1315    2.7970 C   0  0  0  0  0  0  0  0  0  0  0  0
    5.6644   -0.0699    2.2182 N   0  0  0  0  0  0  0  0  0  0  0  0
    4.5915    0.8943    2.4861 C   0  0  0  0  0  0  0  0  0  0  0  0
    5.3836   -1.2997    1.5196 C   0  0  0  0  0  0  0  0  0  0  0  0
    6.0435   -2.3378    1.7991 O   0  0  0  0  0  0  0  0  0  0  0  0
    4.3304   -1.3840    0.4858 C   0  0  0  0  0  0  0  0  0  0  0  0
    4.1938   -0.3761   -0.4823 C   0  0  0  0  0  0  0  0  0  0  0  0
    3.2037   -0.4699   -1.4645 C   0  0  0  0  0  0  0  0  0  0  0  0
    2.3507   -1.5802   -1.5020 C   0  0  0  0  0  0  0  0  0  0  0  0
    2.4916   -2.5940   -0.5458 C   0  0  0  0  0  0  0  0  0  0  0  0
    3.4822   -2.5019    0.4363 C   0  0  0  0  0  0  0  0  0  0  0  0
    1.0850   -1.6807   -2.7194 S   0  0  0  0  0  6  0  0  0  0  0  0
    1.5364   -1.0078   -3.9859 O   0  0  0  0  0  0  0  0  0  0  0  0
    0.7902   -3.1208   -3.0357 O   0  0  0  0  0  0  0  0  0  0  0  0
   -0.3617   -0.8912   -2.1042 C   0  0  0  0  0  0  0  0  0  0  0  0
   -1.3264   -1.6295   -1.4098 C   0  0  0  0  0  0  0  0  0  0  0  0
   -2.4631   -0.9976   -0.9004 C   0  0  0  0  0  0  0  0  0  0  0  0
   -2.6444    0.3872   -1.0644 C   0  0  0  0  0  0  0  0  0  0  0  0
   -3.8282    1.0325   -0.5631 N   0  0  0  0  0  0  0  0  0  0  0  0
   -4.4297    0.7030    0.7019 C   0  0  0  0  0  0  0  0  0  0  0  0
   -3.7734    0.0378    1.5503 O   0  0  0  0  0  0  0  0  0  0  0  0
   -5.8115    1.2204    1.0753 C   0  0  1  0  0  0  0  0  0  0  0  0
   -6.7861    1.1000   -0.1172 C   0  0  0  0  0  0  0  0  0  0  0  0
   -6.3221    0.4695    2.1539 O   0  0  0  0  0  0  0  0  0  0  0  0
   -5.7068    2.6900    1.5356 C   0  0  0  0  0  0  0  0  0  0  0  0
   -4.8461    2.7875    2.6159 F   0  0  0  0  0  0  0  0  0  0  0  0
   -5.2318    3.4990    0.5174 F   0  0  0  0  0  0  0  0  0  0  0  0
   -6.9511    3.1553    1.9255 F   0  0  0  0  0  0  0  0  0  0  0  0
   -1.6739    1.1265   -1.7700 C   0  0  0  0  0  0  0  0  0  0  0  0
   -1.8332    2.8639   -1.9964 Cl  0  0  0  0  0  0  0  0  0  0  0  0
   -0.5368    0.4869   -2.2771 C   0  0  0  0  0  0  0  0  0  0  0  0
    7.1841   -0.6308    3.5821 H   0  0  0  0  0  0  0  0  0  0  0  0
    7.7651    0.0373    2.0024 H   0  0  0  0  0  0  0  0  0  0  0  0
    7.0939    1.1400    3.2512 H   0  0  0  0  0  0  0  0  0  0  0  0
    3.6756    0.3599    2.8168 H   0  0  0  0  0  0  0  0  0  0  0  0
    4.3662    1.4823    1.5743 H   0  0  0  0  0  0  0  0  0  0  0  0
    4.8770    1.6039    3.2910 H   0  0  0  0  0  0  0  0  0  0  0  0
    4.8652    0.4731   -0.4916 H   0  0  0  0  0  0  0  0  0  0  0  0
    3.1047    0.3218   -2.1962 H   0  0  0  0  0  0  0  0  0  0  0  0
    1.8331   -3.4532   -0.5570 H   0  0  0  0  0  0  0  0  0  0  0  0
    3.5763   -3.2951    1.1679 H   0  0  0  0  0  0  0  0  0  0  0  0
   -1.2010   -2.6949   -1.2639 H   0  0  0  0  0  0  0  0  0  0  0  0
   -3.2105   -1.5943   -0.3939 H   0  0  0  0  0  0  0  0  0  0  0  0
   -4.2301    1.8190   -1.1182 H   0  0  0  0  0  0  0  0  0  0  0  0
   -6.5234    1.7996   -0.9377 H   0  0  0  0  0  0  0  0  0  0  0  0
   -6.7772    0.0646   -0.5210 H   0  0  0  0  0  0  0  0  0  0  0  0
   -7.8221    1.3322    0.2104 H   0  0  0  0  0  0  0  0  0  0  0  0
   -6.4065   -0.4757    1.8578 H   0  0  0  0  0  0  0  0  0  0  0  0
    0.2139    1.0660   -2.8005 H   0  0  0  0  0  0  0  0  0  0  0  0
  1  2  1  0
  2  3  1  0
  2  4  1  0
  4  5  2  0
  4  6  1  0
  6  7  2  0
  7  8  1  0
  8  9  2  0
  9 10  1  0
 10 11  2  0
  9 12  1  0
 12 13  2  0
 12 14  2  0
 12 15  1  0
 15 16  2  0
 16 17  1  0
 17 18  2  0
 18 19  1  0
 19 20  1  0
 20 21  2  0
 20 22  1  0
 22 23  1  0
 22 24  1  1
 22 25  1  0
 25 26  1  0
 25 27  1  0
 25 28  1  0
 18 29  1  0
 29 30  1  0
 29 31  2  0
 11  6  1  0
 31 15  1  0
  1 32  1  0
  1 33  1  0
  1 34  1  0
  3 35  1  0
  3 36  1  0
  3 37  1  0
  7 38  1  0
  8 39  1  0
 10 40  1  0
 11 41  1  0
 16 42  1  0
 17 43  1  0
 19 44  1  0
 23 45  1  0
 23 46  1  0
 23 47  1  0
 24 48  1  0
 31 49  1  0
M  END
$$$$
