
     RDKit          3D

 94 97  0  0  0  0  0  0  0  0999 V2000
   -5.1262   -5.1575   -1.7368 C   0  0  0  0  0  0  0  0  0  0  0  0
   -4.6256   -4.5755   -0.4059 C   0  0  0  0  0  0  0  0  0  0  0  0
   -3.3771   -5.3300    0.0781 C   0  0  0  0  0  0  0  0  0  0  0  0
   -4.4045   -3.0319   -0.4129 C   0  0  2  0  0  0  0  0  0  0  0  0
   -5.6367   -2.3042   -0.7899 N   0  0  0  0  0  0  0  0  0  0  0  0
   -6.6162   -1.9623    0.2508 C   0  0  0  0  0  0  0  0  0  0  0  0
   -7.1516   -0.5480    0.0279 C   0  0  0  0  0  0  0  0  0  0  0  0
   -7.8441   -0.4559   -1.3351 C   0  0  0  0  0  0  0  0  0  0  0  0
   -6.9898   -0.9736   -2.4026 N   0  0  0  0  0  0  0  0  0  0  0  0
   -5.9590   -1.9367   -2.1502 C   0  0  0  0  0  0  0  0  0  0  0  0
   -5.3251   -2.4261   -3.1225 O   0  0  0  0  0  0  0  0  0  0  0  0
   -3.1951   -2.5347   -1.1814 C   0  0  0  0  0  0  0  0  0  0  0  0
   -2.7792   -3.1514   -2.1993 O   0  0  0  0  0  0  0  0  0  0  0  0
   -2.5403   -1.3295   -0.7564 N   0  0  0  0  0  0  0  0  0  0  0  0
   -1.3024   -0.8355   -1.3700 C   0  0  2  0  0  0  0  0  0  0  0  0
   -0.3740   -0.2647   -0.2704 C   0  0  0  0  0  0  0  0  0  0  0  0
    1.0403    0.1395   -0.7615 C   0  0  2  0  0  0  0  0  0  0  0  0
    1.5005   -0.8073   -1.6959 O   0  0  0  0  0  0  0  0  0  0  0  0
    2.0593    0.2091    0.4088 C   0  0  2  0  0  0  0  0  0  0  0  0
    1.7143    1.2620    1.4890 C   0  0  0  0  0  0  0  0  0  0  0  0
    1.7632    2.6883    0.9920 C   0  0  0  0  0  0  0  0  0  0  0  0
    2.9972    3.3412    0.8218 C   0  0  0  0  0  0  0  0  0  0  0  0
    3.0421    4.6658    0.3789 C   0  0  0  0  0  0  0  0  0  0  0  0
    1.8570    5.3556    0.1155 C   0  0  0  0  0  0  0  0  0  0  0  0
    0.6257    4.7217    0.2964 C   0  0  0  0  0  0  0  0  0  0  0  0
    0.5760    3.3929    0.7301 C   0  0  0  0  0  0  0  0  0  0  0  0
    3.4121    0.4433   -0.1108 N   0  0  0  0  0  0  0  0  0  0  0  0
    4.5880   -0.0799    0.5259 C   0  0  0  0  0  0  0  0  0  0  0  0
    4.4878   -0.8120    1.5475 O   0  0  0  0  0  0  0  0  0  0  0  0
    5.9479    0.2311   -0.0222 C   0  0  0  0  0  0  0  0  0  0  0  0
    6.6700    1.0766    0.8744 O   0  0  0  0  0  0  0  0  0  0  0  0
    7.2852    0.6083    2.0447 C   0  0  0  0  0  0  0  0  0  0  0  0
    6.8062    1.0511    3.2957 C   0  0  0  0  0  0  0  0  0  0  0  0
    5.6664    2.0266    3.3765 C   0  0  0  0  0  0  0  0  0  0  0  0
    7.3633    0.5358    4.4758 C   0  0  0  0  0  0  0  0  0  0  0  0
    8.4143   -0.3783    4.4190 C   0  0  0  0  0  0  0  0  0  0  0  0
    8.9320   -0.7748    3.1865 C   0  0  0  0  0  0  0  0  0  0  0  0
    8.3946   -0.2705    1.9921 C   0  0  0  0  0  0  0  0  0  0  0  0
    9.0260   -0.6783    0.6895 C   0  0  0  0  0  0  0  0  0  0  0  0
   -1.6210    0.1663   -2.5033 C   0  0  0  0  0  0  0  0  0  0  0  0
   -2.4772    1.3305   -2.0640 C   0  0  0  0  0  0  0  0  0  0  0  0
   -3.8744    1.1954   -2.0013 C   0  0  0  0  0  0  0  0  0  0  0  0
   -4.6733    2.2701   -1.6021 C   0  0  0  0  0  0  0  0  0  0  0  0
   -4.0848    3.4924   -1.2710 C   0  0  0  0  0  0  0  0  0  0  0  0
   -2.6976    3.6415   -1.3433 C   0  0  0  0  0  0  0  0  0  0  0  0
   -1.8944    2.5658   -1.7365 C   0  0  0  0  0  0  0  0  0  0  0  0
   -4.4031   -4.9869   -2.5588 H   0  0  0  0  0  0  0  0  0  0  0  0
   -6.1081   -4.7183   -2.0078 H   0  0  0  0  0  0  0  0  0  0  0  0
   -5.2778   -6.2534   -1.6358 H   0  0  0  0  0  0  0  0  0  0  0  0
   -5.4242   -4.7784    0.3428 H   0  0  0  0  0  0  0  0  0  0  0  0
   -2.5535   -5.2596   -0.6626 H   0  0  0  0  0  0  0  0  0  0  0  0
   -3.6172   -6.4036    0.2331 H   0  0  0  0  0  0  0  0  0  0  0  0
   -3.0263   -4.9148    1.0469 H   0  0  0  0  0  0  0  0  0  0  0  0
   -4.1723   -2.7794    0.6459 H   0  0  0  0  0  0  0  0  0  0  0  0
   -6.1670   -2.0189    1.2655 H   0  0  0  0  0  0  0  0  0  0  0  0
   -7.4563   -2.6896    0.2130 H   0  0  0  0  0  0  0  0  0  0  0  0
   -7.8767   -0.2915    0.8299 H   0  0  0  0  0  0  0  0  0  0  0  0
   -6.3096    0.1768    0.0716 H   0  0  0  0  0  0  0  0  0  0  0  0
   -8.7898   -1.0392   -1.3139 H   0  0  0  0  0  0  0  0  0  0  0  0
   -8.0950    0.6055   -1.5465 H   0  0  0  0  0  0  0  0  0  0  0  0
   -7.2269   -0.7330   -3.3912 H   0  0  0  0  0  0  0  0  0  0  0  0
   -2.9882   -0.7602   -0.0021 H   0  0  0  0  0  0  0  0  0  0  0  0
   -0.7737   -1.6985   -1.8303 H   0  0  0  0  0  0  0  0  0  0  0  0
   -0.8659    0.6099    0.2047 H   0  0  0  0  0  0  0  0  0  0  0  0
   -0.2734   -1.0474    0.5138 H   0  0  0  0  0  0  0  0  0  0  0  0
    0.9671    1.1439   -1.2401 H   0  0  0  0  0  0  0  0  0  0  0  0
    2.0283   -0.3178   -2.3796 H   0  0  0  0  0  0  0  0  0  0  0  0
    2.0429   -0.7871    0.9052 H   0  0  0  0  0  0  0  0  0  0  0  0
    2.4336    1.1560    2.3288 H   0  0  0  0  0  0  0  0  0  0  0  0
    0.7186    1.0397    1.9282 H   0  0  0  0  0  0  0  0  0  0  0  0
    3.9245    2.8274    1.0335 H   0  0  0  0  0  0  0  0  0  0  0  0
    3.9962    5.1593    0.2463 H   0  0  0  0  0  0  0  0  0  0  0  0
    1.8924    6.3836   -0.2212 H   0  0  0  0  0  0  0  0  0  0  0  0
   -0.2899    5.2650    0.1084 H   0  0  0  0  0  0  0  0  0  0  0  0
   -0.3870    2.9209    0.8743 H   0  0  0  0  0  0  0  0  0  0  0  0
    3.5298    1.0826   -0.9297 H   0  0  0  0  0  0  0  0  0  0  0  0
    6.4889   -0.7179   -0.2068 H   0  0  0  0  0  0  0  0  0  0  0  0
    5.8531    0.7534   -0.9967 H   0  0  0  0  0  0  0  0  0  0  0  0
    5.8143    2.8496    2.6462 H   0  0  0  0  0  0  0  0  0  0  0  0
    5.5950    2.4815    4.3873 H   0  0  0  0  0  0  0  0  0  0  0  0
    4.7144    1.5035    3.1559 H   0  0  0  0  0  0  0  0  0  0  0  0
    6.9837    0.8416    5.4430 H   0  0  0  0  0  0  0  0  0  0  0  0
    8.8384   -0.7709    5.3342 H   0  0  0  0  0  0  0  0  0  0  0  0
    9.7641   -1.4680    3.1635 H   0  0  0  0  0  0  0  0  0  0  0  0
    8.8556    0.0860   -0.0973 H   0  0  0  0  0  0  0  0  0  0  0  0
   10.1251   -0.7869    0.8100 H   0  0  0  0  0  0  0  0  0  0  0  0
    8.6092   -1.6530    0.3612 H   0  0  0  0  0  0  0  0  0  0  0  0
   -0.6773    0.5362   -2.9579 H   0  0  0  0  0  0  0  0  0  0  0  0
   -2.1503   -0.3794   -3.3151 H   0  0  0  0  0  0  0  0  0  0  0  0
   -4.3426    0.2602   -2.2689 H   0  0  0  0  0  0  0  0  0  0  0  0
   -5.7487    2.1572   -1.5566 H   0  0  0  0  0  0  0  0  0  0  0  0
   -4.7039    4.3263   -0.9668 H   0  0  0  0  0  0  0  0  0  0  0  0
   -2.2476    4.5943   -1.1025 H   0  0  0  0  0  0  0  0  0  0  0  0
   -0.8228    2.7007   -1.7979 H   0  0  0  0  0  0  0  0  0  0  0  0
  1  2  1  0
  2  3  1  0
  2  4  1  0
  4  5  1  0
  5  6  1  0
  6  7  1  0
  7  8  1  0
  8  9  1  0
  9 10  1  0
 10 11  2  0
  4 12  1  0
 12 13  2  0
 12 14  1  0
 14 15  1  0
 15 16  1  0
 16 17  1  0
 17 18  1  0
 17 19  1  0
 19 20  1  0
 20 21  1  0
 21 22  2  0
 22 23  1  0
 23 24  2  0
 24 25  1  0
 25 26  2  0
 19 27  1  0
 27 28  1  0
 28 29  2  0
 28 30  1  0
 30 31  1  0
 31 32  1  0
 32 33  2  0
 33 34  1  0
 33 35  1  0
 35 36  2  0
 36 37  1  0
 37 38  2  0
 38 39  1  0
 15 40  1  0
 40 41  1  0
 41 42  2  0
 42 43  1  0
 43 44  2  0
 44 45  1  0
 45 46  2  0
 10  5  1  0
 26 21  1  0
 38 32  1  0
 46 41  1  0
  1 47  1  0
  1 48  1  0
  1 49  1  0
  2 50  1  0
  3 51  1  0
  3 52  1  0
  3 53  1  0
  4 54  1  1
  6 55  1  0
  6 56  1  0
  7 57  1  0
  7 58  1  0
  8 59  1  0
  8 60  1  0
  9 61  1  0
 14 62  1  0
 15 63  1  6
 16 64  1  0
 16 65  1  0
 17 66  1  6
 18 67  1  0
 19 68  1  1
 20 69  1  0
 20 70  1  0
 22 71  1  0
 23 72  1  0
 24 73  1  0
 25 74  1  0
 26 75  1  0
 27 76  1  0
 30 77  1  0
 30 78  1  0
 34 79  1  0
 34 80  1  0
 34 81  1  0
 35 82  1  0
 36 83  1  0
 37 84  1  0
 39 85  1  0
 39 86  1  0
 39 87  1  0
 40 88  1  0
 40 89  1  0
 42 90  1  0
 43 91  1  0
 44 92  1  0
 45 93  1  0
 46 94  1  0
M  END
$$$$
