
     RDKit          3D

 44 46  0  0  0  0  0  0  0  0999 V2000
    1.4903    1.2886    1.5946 C   0  0  0  0  0  0  0  0  0  0  0  0
    1.7767   -0.0947    1.4299 O   0  0  0  0  0  0  0  0  0  0  0  0
    2.7685   -0.5356    0.5492 C   0  0  0  0  0  0  0  0  0  0  0  0
    2.5430   -0.5568   -0.8460 C   0  0  0  0  0  0  0  0  0  0  0  0
    3.5910   -0.9291   -1.7013 C   0  0  0  0  0  0  0  0  0  0  0  0
    4.8269   -1.3162   -1.1837 C   0  0  0  0  0  0  0  0  0  0  0  0
    5.0451   -1.3392    0.1992 C   0  0  0  0  0  0  0  0  0  0  0  0
    6.3229   -1.7550    0.6986 N   0  0  0  0  0  0  0  0  0  0  0  0
    4.0080   -0.9473    1.0699 C   0  0  0  0  0  0  0  0  0  0  0  0
    4.2431   -0.9362    2.8173 Cl  0  0  0  0  0  0  0  0  0  0  0  0
    1.2263   -0.2088   -1.4290 C   0  0  0  0  0  0  0  0  0  0  0  0
    1.1795    0.3799   -2.5438 O   0  0  0  0  0  0  0  0  0  0  0  0
    0.0081   -0.5764   -0.7623 N   0  0  0  0  0  0  0  0  0  0  0  0
   -1.3078   -0.0991   -1.2075 C   0  0  0  0  0  0  0  0  0  0  0  0
   -1.4491    1.4231   -0.9896 C   0  0  0  0  0  0  0  0  0  0  0  0
   -2.8754    1.9095   -1.3244 C   0  0  0  0  0  0  0  0  0  0  0  0
   -3.9253    1.0982   -0.6643 N   0  0  0  0  0  0  0  0  0  0  0  0
   -3.9602    1.3056    0.8114 C   0  0  0  0  0  0  0  0  0  0  0  0
   -3.6120    0.0487    1.6384 C   0  0  0  0  0  0  0  0  0  0  0  0
   -2.4122   -0.7174    1.0567 C   0  0  0  0  0  0  0  0  0  0  0  0
   -2.4592   -0.8602   -0.4963 C   0  0  0  0  0  0  0  0  0  0  0  0
   -3.7877   -0.3193   -1.0484 C   0  0  0  0  0  0  0  0  0  0  0  0
    1.2439    1.7547    0.6183 H   0  0  0  0  0  0  0  0  0  0  0  0
    2.3693    1.8040    2.0354 H   0  0  0  0  0  0  0  0  0  0  0  0
    0.6239    1.4027    2.2778 H   0  0  0  0  0  0  0  0  0  0  0  0
    3.4460   -0.9442   -2.7747 H   0  0  0  0  0  0  0  0  0  0  0  0
    5.6159   -1.6101   -1.8647 H   0  0  0  0  0  0  0  0  0  0  0  0
    7.0824   -2.0383    0.0399 H   0  0  0  0  0  0  0  0  0  0  0  0
    6.5342   -1.7912    1.7194 H   0  0  0  0  0  0  0  0  0  0  0  0
    0.0640   -1.3020   -0.0124 H   0  0  0  0  0  0  0  0  0  0  0  0
   -1.3931   -0.3019   -2.2995 H   0  0  0  0  0  0  0  0  0  0  0  0
   -1.2016    1.6878    0.0591 H   0  0  0  0  0  0  0  0  0  0  0  0
   -0.7298    1.9649   -1.6395 H   0  0  0  0  0  0  0  0  0  0  0  0
   -2.9813    2.9789   -1.0380 H   0  0  0  0  0  0  0  0  0  0  0  0
   -3.0218    1.8686   -2.4264 H   0  0  0  0  0  0  0  0  0  0  0  0
   -4.9859    1.6274    1.0901 H   0  0  0  0  0  0  0  0  0  0  0  0
   -3.2879    2.1332    1.1305 H   0  0  0  0  0  0  0  0  0  0  0  0
   -4.4956   -0.6258    1.6683 H   0  0  0  0  0  0  0  0  0  0  0  0
   -3.3933    0.3423    2.6880 H   0  0  0  0  0  0  0  0  0  0  0  0
   -2.3929   -1.7308    1.5133 H   0  0  0  0  0  0  0  0  0  0  0  0
   -1.4833   -0.2110    1.3943 H   0  0  0  0  0  0  0  0  0  0  0  0
   -2.3833   -1.9379   -0.7632 H   0  0  0  0  0  0  0  0  0  0  0  0
   -3.8235   -0.4240   -2.1562 H   0  0  0  0  0  0  0  0  0  0  0  0
   -4.6468   -0.9093   -0.6607 H   0  0  0  0  0  0  0  0  0  0  0  0
  1  2  1  0
  2  3  1  0
  3  4  2  0
  4  5  1  0
  5  6  2  0
  6  7  1  0
  7  8  1  0
  7  9  2  0
  9 10  1  0
  4 11  1  0
 11 12  2  0
 11 13  1  0
 13 14  1  0
 14 15  1  0
 15 16  1  0
 16 17  1  0
 17 18  1  0
 18 19  1  0
 19 20  1  0
 20 21  1  0
 21 22  1  0
  9  3  1  0
 21 14  1  0
 22 17  1  0
  1 23  1  0
  1 24  1  0
  1 25  1  0
  5 26  1  0
  6 27  1  0
  8 28  1  0
  8 29  1  0
 13 30  1  0
 14 31  1  0
 15 32  1  0
 15 33  1  0
 16 34  1  0
 16 35  1  0
 18 36  1  0
 18 37  1  0
 19 38  1  0
 19 39  1  0
 20 40  1  0
 20 41  1  0
 21 42  1  0
 22 43  1  0
 22 44  1  0
M  END
$$$$
