
     RDKit          3D

 24 24  0  0  0  0  0  0  0  0999 V2000
    1.6818   -1.0865   -1.6037 N   0  0  0  0  0  0  0  0  0  0  0  0
    1.9374    0.2415   -1.0406 C   0  0  1  0  0  0  0  0  0  0  0  0
    0.6672    1.1167   -1.0882 C   0  0  0  0  0  0  0  0  0  0  0  0
   -0.4968    0.5210   -0.3244 C   0  0  0  0  0  0  0  0  0  0  0  0
   -0.6678    0.8109    0.9768 C   0  0  0  0  0  0  0  0  0  0  0  0
   -1.7806    0.2182    1.7418 C   0  0  0  0  0  0  0  0  0  0  0  0
   -1.9230    0.5039    2.9601 O   0  0  0  0  0  0  0  0  0  0  0  0
   -2.7199   -0.7099    1.0739 C   0  0  0  0  0  0  0  0  0  0  0  0
   -3.7765   -1.2872    1.7763 O   0  0  0  0  0  0  0  0  0  0  0  0
   -2.5567   -1.0011   -0.2205 C   0  0  0  0  0  0  0  0  0  0  0  0
   -1.4491   -0.4047   -0.9911 C   0  0  0  0  0  0  0  0  0  0  0  0
   -1.3266   -0.6827   -2.2137 O   0  0  0  0  0  0  0  0  0  0  0  0
    2.4690    0.1311    0.3635 C   0  0  0  0  0  0  0  0  0  0  0  0
    3.3180    1.1171    0.8562 O   0  0  0  0  0  0  0  0  0  0  0  0
    2.1165   -0.8224    1.1097 O   0  0  0  0  0  0  0  0  0  0  0  0
    2.5806   -1.6224   -1.6041 H   0  0  0  0  0  0  0  0  0  0  0  0
    1.4193   -0.9703   -2.6096 H   0  0  0  0  0  0  0  0  0  0  0  0
    2.7169    0.7439   -1.6575 H   0  0  0  0  0  0  0  0  0  0  0  0
    0.9052    2.1284   -0.6901 H   0  0  0  0  0  0  0  0  0  0  0  0
    0.3737    1.2721   -2.1489 H   0  0  0  0  0  0  0  0  0  0  0  0
    0.0171    1.4808    1.4836 H   0  0  0  0  0  0  0  0  0  0  0  0
   -3.9329   -1.0914    2.7576 H   0  0  0  0  0  0  0  0  0  0  0  0
   -3.2439   -1.6792   -0.7120 H   0  0  0  0  0  0  0  0  0  0  0  0
    3.6710    1.0721    1.8046 H   0  0  0  0  0  0  0  0  0  0  0  0
  1  2  1  0
  2  3  1  0
  3  4  1  0
  4  5  2  0
  5  6  1  0
  6  7  2  0
  6  8  1  0
  8  9  1  0
  8 10  2  0
 10 11  1  0
 11 12  2  0
  2 13  1  0
 13 14  1  0
 13 15  2  0
 11  4  1  0
  1 16  1  0
  1 17  1  0
  2 18  1  6
  3 19  1  0
  3 20  1  0
  5 21  1  0
  9 22  1  0
 10 23  1  0
 14 24  1  0
M  END
$$$$
