
     RDKit          3D

 25 26  0  0  0  0  0  0  0  0999 V2000
    3.9271    1.0798   -0.8423 N   0  0  0  0  0  0  0  0  0  0  0  0
    3.4796   -0.3651   -0.0007 S   0  0  0  0  0  6  0  0  0  0  0  0
    3.9976   -1.5467   -0.7714 O   0  0  0  0  0  0  0  0  0  0  0  0
    4.1150   -0.3396    1.3609 O   0  0  0  0  0  0  0  0  0  0  0  0
    1.7233   -0.5126    0.1795 C   0  0  0  0  0  0  0  0  0  0  0  0
    1.1566   -1.6194    0.8474 C   0  0  0  0  0  0  0  0  0  0  0  0
    2.1498   -2.9027    1.5310 Cl  0  0  0  0  0  0  0  0  0  0  0  0
   -0.2333   -1.7201    0.9821 C   0  0  0  0  0  0  0  0  0  0  0  0
   -1.0736   -0.7265    0.4656 C   0  0  0  0  0  0  0  0  0  0  0  0
   -2.4983   -0.8398    0.6162 N   0  0  0  0  0  0  0  0  0  0  0  0
   -3.3937    0.3094    0.4571 C   0  0  0  0  0  0  0  0  0  0  0  0
   -3.1987    0.9560   -0.8424 N   0  0  0  0  0  0  0  0  0  0  0  0
   -1.5755    1.5627   -0.9246 S   0  0  0  0  0  6  0  0  0  0  0  0
   -1.4781    2.8525   -0.1599 O   0  0  0  0  0  0  0  0  0  0  0  0
   -1.2022    1.7926   -2.3622 O   0  0  0  0  0  0  0  0  0  0  0  0
   -0.5127    0.3637   -0.2130 C   0  0  0  0  0  0  0  0  0  0  0  0
    0.8750    0.4730   -0.3510 C   0  0  0  0  0  0  0  0  0  0  0  0
    3.4677    1.0543   -1.7801 H   0  0  0  0  0  0  0  0  0  0  0  0
    3.5305    1.8888   -0.3138 H   0  0  0  0  0  0  0  0  0  0  0  0
   -0.6608   -2.5705    1.4988 H   0  0  0  0  0  0  0  0  0  0  0  0
   -2.9110   -1.7516    0.9173 H   0  0  0  0  0  0  0  0  0  0  0  0
   -4.4486   -0.0301    0.5386 H   0  0  0  0  0  0  0  0  0  0  0  0
   -3.2141    1.0390    1.2768 H   0  0  0  0  0  0  0  0  0  0  0  0
   -3.3012    0.2286   -1.5873 H   0  0  0  0  0  0  0  0  0  0  0  0
    1.2800    1.3244   -0.8786 H   0  0  0  0  0  0  0  0  0  0  0  0
  1  2  1  0
  2  3  2  0
  2  4  2  0
  2  5  1  0
  5  6  2  0
  6  7  1  0
  6  8  1  0
  8  9  2  0
  9 10  1  0
 10 11  1  0
 11 12  1  0
 12 13  1  0
 13 14  2  0
 13 15  2  0
 13 16  1  0
 16 17  2  0
 17  5  1  0
 16  9  1  0
  1 18  1  0
  1 19  1  0
  8 20  1  0
 10 21  1  0
 11 22  1  0
 11 23  1  0
 12 24  1  0
 17 25  1  0
M  END
$$$$
