
     RDKit          3D

 52 55  0  0  0  0  0  0  0  0999 V2000
    6.7587    1.7831   -1.7894 O   0  0  0  0  0  0  0  0  0  0  0  0
    7.0534    0.7301   -0.9150 C   0  0  0  0  0  0  0  0  0  0  0  0
    5.9525    0.5781    0.1362 C   0  0  0  0  0  0  0  0  0  0  0  0
    4.6952    0.1111   -0.4905 N   0  0  0  0  0  0  0  0  0  0  0  0
    3.8207    1.2307   -0.9297 C   0  0  0  0  0  0  0  0  0  0  0  0
    2.6431    1.4737    0.0308 C   0  0  0  0  0  0  0  0  0  0  0  0
    1.7984    0.2646    0.2154 N   0  0  0  0  0  0  0  0  0  0  0  0
    0.5528    0.3188   -0.5787 C   0  0  0  0  0  0  0  0  0  0  0  0
   -0.5096    1.1459    0.1546 C   0  0  0  0  0  0  0  0  0  0  0  0
   -1.8339    1.0559   -0.5571 C   0  0  0  0  0  0  0  0  0  0  0  0
   -2.9536    0.4962   -0.0533 C   0  0  0  0  0  0  0  0  0  0  0  0
   -4.2424    0.6238   -0.7793 C   0  0  0  0  0  0  0  0  0  0  0  0
   -4.3392    0.3550   -2.1556 C   0  0  0  0  0  0  0  0  0  0  0  0
   -5.5914    0.3224   -2.7776 C   0  0  0  0  0  0  0  0  0  0  0  0
   -6.7530    0.5396   -2.0306 C   0  0  0  0  0  0  0  0  0  0  0  0
   -6.6667    0.8088   -0.6617 C   0  0  0  0  0  0  0  0  0  0  0  0
   -5.4159    0.8673   -0.0382 C   0  0  0  0  0  0  0  0  0  0  0  0
   -5.2910    1.3421    1.6938 S   0  0  0  0  0  0  0  0  0  0  0  0
   -4.1409    0.0156    2.0856 C   0  0  0  0  0  0  0  0  0  0  0  0
   -3.0223   -0.2090    1.2568 C   0  0  0  0  0  0  0  0  0  0  0  0
   -2.1415   -1.2598    1.5701 C   0  0  0  0  0  0  0  0  0  0  0  0
   -2.3394   -2.0296    2.7213 C   0  0  0  0  0  0  0  0  0  0  0  0
   -1.2232   -3.3257    3.1100 Cl  0  0  0  0  0  0  0  0  0  0  0  0
   -3.4440   -1.7882    3.5437 C   0  0  0  0  0  0  0  0  0  0  0  0
   -4.3504   -0.7761    3.2194 C   0  0  0  0  0  0  0  0  0  0  0  0
    2.5255   -1.0032   -0.0238 C   0  0  0  0  0  0  0  0  0  0  0  0
    4.0001   -0.8749    0.3688 C   0  0  0  0  0  0  0  0  0  0  0  0
    7.5036    1.8135   -2.4445 H   0  0  0  0  0  0  0  0  0  0  0  0
    8.0173    0.9380   -0.3988 H   0  0  0  0  0  0  0  0  0  0  0  0
    7.1540   -0.2210   -1.4848 H   0  0  0  0  0  0  0  0  0  0  0  0
    6.3274   -0.1635    0.8785 H   0  0  0  0  0  0  0  0  0  0  0  0
    5.8056    1.5341    0.6880 H   0  0  0  0  0  0  0  0  0  0  0  0
    3.4134    0.9846   -1.9337 H   0  0  0  0  0  0  0  0  0  0  0  0
    4.3841    2.1815   -1.0482 H   0  0  0  0  0  0  0  0  0  0  0  0
    3.0499    1.7726    1.0207 H   0  0  0  0  0  0  0  0  0  0  0  0
    2.0546    2.3422   -0.3378 H   0  0  0  0  0  0  0  0  0  0  0  0
    0.7439    0.7438   -1.5905 H   0  0  0  0  0  0  0  0  0  0  0  0
    0.1431   -0.7056   -0.7300 H   0  0  0  0  0  0  0  0  0  0  0  0
   -0.5764    0.8278    1.2145 H   0  0  0  0  0  0  0  0  0  0  0  0
   -0.2068    2.2135    0.1681 H   0  0  0  0  0  0  0  0  0  0  0  0
   -1.8840    1.5481   -1.5215 H   0  0  0  0  0  0  0  0  0  0  0  0
   -3.4544    0.1324   -2.7386 H   0  0  0  0  0  0  0  0  0  0  0  0
   -5.6628    0.1085   -3.8362 H   0  0  0  0  0  0  0  0  0  0  0  0
   -7.7206    0.5048   -2.5143 H   0  0  0  0  0  0  0  0  0  0  0  0
   -7.5688    0.9967   -0.0936 H   0  0  0  0  0  0  0  0  0  0  0  0
   -1.3262   -1.5092    0.9062 H   0  0  0  0  0  0  0  0  0  0  0  0
   -3.6068   -2.3912    4.4279 H   0  0  0  0  0  0  0  0  0  0  0  0
   -5.2073   -0.5994    3.8569 H   0  0  0  0  0  0  0  0  0  0  0  0
    2.0582   -1.8078    0.5842 H   0  0  0  0  0  0  0  0  0  0  0  0
    2.4712   -1.3025   -1.0961 H   0  0  0  0  0  0  0  0  0  0  0  0
    4.4920   -1.8650    0.2547 H   0  0  0  0  0  0  0  0  0  0  0  0
    4.0539   -0.5810    1.4425 H   0  0  0  0  0  0  0  0  0  0  0  0
  1  2  1  0
  2  3  1  0
  3  4  1  0
  4  5  1  0
  5  6  1  0
  6  7  1  0
  7  8  1  0
  8  9  1  0
  9 10  1  0
 10 11  2  0
 11 12  1  0
 12 13  2  0
 13 14  1  0
 14 15  2  0
 15 16  1  0
 16 17  2  0
 17 18  1  0
 18 19  1  0
 19 20  2  0
 20 21  1  0
 21 22  2  0
 22 23  1  0
 22 24  1  0
 24 25  2  0
  7 26  1  0
 26 27  1  0
 27  4  1  0
 20 11  1  0
 17 12  1  0
 25 19  1  0
  1 28  1  0
  2 29  1  0
  2 30  1  0
  3 31  1  0
  3 32  1  0
  5 33  1  0
  5 34  1  0
  6 35  1  0
  6 36  1  0
  8 37  1  0
  8 38  1  0
  9 39  1  0
  9 40  1  0
 10 41  1  0
 13 42  1  0
 14 43  1  0
 15 44  1  0
 16 45  1  0
 21 46  1  0
 24 47  1  0
 25 48  1  0
 26 49  1  0
 26 50  1  0
 27 51  1  0
 27 52  1  0
M  END
$$$$
