
     RDKit          3D

 35 35  0  0  0  0  0  0  0  0999 V2000
    6.9201    0.2337   -1.1365 N   0  0  0  0  0  0  0  0  0  0  0  0
    5.5371   -0.1518   -1.4084 C   0  0  0  0  0  0  0  0  0  0  0  0
    4.6015    0.2878   -0.2732 C   0  0  0  0  0  0  0  0  0  0  0  0
    3.1528   -0.1198   -0.5654 C   0  0  0  0  0  0  0  0  0  0  0  0
    2.2171    0.3178    0.5667 C   0  0  0  0  0  0  0  0  0  0  0  0
    0.8350   -0.0677    0.2810 N   0  0  0  0  0  0  0  0  0  0  0  0
   -0.2264    0.2334    1.2006 C   0  0  0  0  0  0  0  0  0  0  0  0
    0.0524    0.6990    2.3399 O   0  0  0  0  0  0  0  0  0  0  0  0
   -1.6450   -0.0103    0.8432 C   0  0  0  0  0  0  0  0  0  0  0  0
   -2.6012   -0.2064    1.8561 C   0  0  0  0  0  0  0  0  0  0  0  0
   -3.9423   -0.4319    1.5331 C   0  0  0  0  0  0  0  0  0  0  0  0
   -4.3500   -0.4621    0.1942 C   0  0  0  0  0  0  0  0  0  0  0  0
   -3.4086   -0.2465   -0.8193 C   0  0  0  0  0  0  0  0  0  0  0  0
   -2.0662   -0.0218   -0.4993 C   0  0  0  0  0  0  0  0  0  0  0  0
   -6.0431   -0.7274   -0.2109 S   0  0  0  0  0  6  0  0  0  0  0  0
   -6.8686    0.7897   -0.2790 N   0  0  0  0  0  0  0  0  0  0  0  0
   -6.6848   -1.6008    0.8306 O   0  0  0  0  0  0  0  0  0  0  0  0
   -6.1457   -1.4141   -1.5439 O   0  0  0  0  0  0  0  0  0  0  0  0
    6.9645    1.2721   -1.0179 H   0  0  0  0  0  0  0  0  0  0  0  0
    7.2216   -0.2029   -0.2349 H   0  0  0  0  0  0  0  0  0  0  0  0
    5.2137    0.3153   -2.3642 H   0  0  0  0  0  0  0  0  0  0  0  0
    5.4876   -1.2559   -1.5301 H   0  0  0  0  0  0  0  0  0  0  0  0
    4.6576    1.3926   -0.1584 H   0  0  0  0  0  0  0  0  0  0  0  0
    4.9323   -0.1836    0.6783 H   0  0  0  0  0  0  0  0  0  0  0  0
    2.8199    0.3524   -1.5159 H   0  0  0  0  0  0  0  0  0  0  0  0
    3.0951   -1.2248   -0.6791 H   0  0  0  0  0  0  0  0  0  0  0  0
    2.2692    1.4225    0.6832 H   0  0  0  0  0  0  0  0  0  0  0  0
    2.5401   -0.1581    1.5184 H   0  0  0  0  0  0  0  0  0  0  0  0
    0.6244   -0.6108   -0.5863 H   0  0  0  0  0  0  0  0  0  0  0  0
   -2.3101   -0.1945    2.8993 H   0  0  0  0  0  0  0  0  0  0  0  0
   -4.6620   -0.5803    2.3282 H   0  0  0  0  0  0  0  0  0  0  0  0
   -3.7141   -0.2427   -1.8579 H   0  0  0  0  0  0  0  0  0  0  0  0
   -1.3700    0.1691   -1.3048 H   0  0  0  0  0  0  0  0  0  0  0  0
   -6.7368    1.2503    0.6493 H   0  0  0  0  0  0  0  0  0  0  0  0
   -6.3668    1.3785   -0.9810 H   0  0  0  0  0  0  0  0  0  0  0  0
  1  2  1  0
  2  3  1  0
  3  4  1  0
  4  5  1  0
  5  6  1  0
  6  7  1  0
  7  8  2  0
  7  9  1  0
  9 10  2  0
 10 11  1  0
 11 12  2  0
 12 13  1  0
 13 14  2  0
 12 15  1  0
 15 16  1  0
 15 17  2  0
 15 18  2  0
 14  9  1  0
  1 19  1  0
  1 20  1  0
  2 21  1  0
  2 22  1  0
  3 23  1  0
  3 24  1  0
  4 25  1  0
  4 26  1  0
  5 27  1  0
  5 28  1  0
  6 29  1  0
 10 30  1  0
 11 31  1  0
 13 32  1  0
 14 33  1  0
 16 34  1  0
 16 35  1  0
M  END
$$$$
