
     RDKit          3D

 41 40  0  0  0  0  0  0  0  0999 V2000
   -1.0403    2.1897   -1.3495 O   0  0  0  0  0  0  0  0  0  0  0  0
   -0.4601    2.4525   -0.1019 C   0  0  0  0  0  0  0  0  0  0  0  0
   -0.6436    1.2458    0.8185 C   0  0  0  0  0  0  0  0  0  0  0  0
    0.0039    0.0465    0.2363 N   0  0  0  0  0  0  0  0  0  0  0  0
    1.4335   -0.0295    0.6174 C   0  0  0  0  0  0  0  0  0  0  0  0
    2.2418   -0.6937   -0.4965 C   0  0  0  0  0  0  0  0  0  0  0  0
    3.5961   -0.7178   -0.1413 O   0  0  0  0  0  0  0  0  0  0  0  0
   -0.7190   -1.1898    0.6154 C   0  0  0  0  0  0  0  0  0  0  0  0
   -1.8478   -1.4664   -0.3769 C   0  0  0  0  0  0  0  0  0  0  0  0
   -2.4918   -2.6610   -0.0320 O   0  0  0  0  0  0  0  0  0  0  0  0
   -2.6195    1.3033    0.4788 O   0  0  0  0  0  0  0  0  0  0  0  0
   -1.9683    0.2695   -0.1889 C   0  0  0  0  0  0  0  0  0  0  0  0
   -2.6302   -0.4891   -0.9465 O   0  0  0  0  0  0  0  0  0  0  0  0
   -0.5030    0.1142   -0.0539 C   0  0  0  0  0  0  0  0  0  0  0  0
    0.2753    1.2713    0.1338 C   0  0  0  0  0  0  0  0  0  0  0  0
    1.6682    1.1915    0.1953 C   0  0  0  0  0  0  0  0  0  0  0  0
    2.3038   -0.0432    0.0715 C   0  0  0  0  0  0  0  0  0  0  0  0
    1.5472   -1.2040   -0.0943 C   0  0  0  0  0  0  0  0  0  0  0  0
    0.1483   -1.1443   -0.1370 C   0  0  0  0  0  0  0  0  0  0  0  0
   -0.5499   -2.3507   -0.2268 O   0  0  0  0  0  0  0  0  0  0  0  0
   -0.8924    3.0031   -1.8985 H   0  0  0  0  0  0  0  0  0  0  0  0
    0.6207    2.6809   -0.2280 H   0  0  0  0  0  0  0  0  0  0  0  0
   -0.9537    3.3361    0.3607 H   0  0  0  0  0  0  0  0  0  0  0  0
   -0.2358    1.4746    1.8295 H   0  0  0  0  0  0  0  0  0  0  0  0
   -1.7388    1.0963    0.9466 H   0  0  0  0  0  0  0  0  0  0  0  0
    1.8648    0.9846    0.7727 H   0  0  0  0  0  0  0  0  0  0  0  0
    1.5686   -0.5846    1.5740 H   0  0  0  0  0  0  0  0  0  0  0  0
    2.1116   -0.1134   -1.4375 H   0  0  0  0  0  0  0  0  0  0  0  0
    1.8836   -1.7329   -0.6637 H   0  0  0  0  0  0  0  0  0  0  0  0
    4.0722   -1.1442   -0.9007 H   0  0  0  0  0  0  0  0  0  0  0  0
   -1.1254   -1.1197    1.6505 H   0  0  0  0  0  0  0  0  0  0  0  0
   -0.0440   -2.0744    0.5963 H   0  0  0  0  0  0  0  0  0  0  0  0
   -1.4202   -1.5533   -1.4010 H   0  0  0  0  0  0  0  0  0  0  0  0
   -2.5826   -0.6320   -0.3651 H   0  0  0  0  0  0  0  0  0  0  0  0
   -3.2014   -2.7975   -0.7123 H   0  0  0  0  0  0  0  0  0  0  0  0
   -3.6188    1.4379    0.3809 H   0  0  0  0  0  0  0  0  0  0  0  0
   -0.1934    2.2452    0.2065 H   0  0  0  0  0  0  0  0  0  0  0  0
    2.2560    2.0905    0.3288 H   0  0  0  0  0  0  0  0  0  0  0  0
    3.3837   -0.1023    0.1134 H   0  0  0  0  0  0  0  0  0  0  0  0
    2.0493   -2.1606   -0.1674 H   0  0  0  0  0  0  0  0  0  0  0  0
   -1.5486   -2.4293   -0.0943 H   0  0  0  0  0  0  0  0  0  0  0  0
  1  2  1  0
  2  3  1  0
  3  4  1  0
  4  5  1  0
  5  6  1  0
  6  7  1  0
  4  8  1  0
  8  9  1  0
  9 10  1  0
 11 12  1  0
 12 13  2  0
 12 14  1  0
 14 15  2  0
 15 16  1  0
 16 17  2  0
 17 18  1  0
 18 19  2  0
 19 20  1  0
 19 14  1  0
  1 21  1  0
  2 22  1  0
  2 23  1  0
  3 24  1  0
  3 25  1  0
  5 26  1  0
  5 27  1  0
  6 28  1  0
  6 29  1  0
  7 30  1  0
  8 31  1  0
  8 32  1  0
  9 33  1  0
  9 34  1  0
 10 35  1  0
 11 36  1  0
 15 37  1  0
 16 38  1  0
 17 39  1  0
 18 40  1  0
 20 41  1  0
M  END
$$$$
