
     RDKit          3D

 56 59  0  0  0  0  0  0  0  0999 V2000
   -1.8172    0.6882    1.0651 C   0  0  2  0  0  0  0  0  0  0  0  0
   -1.2324    1.2795    2.2729 N   0  0  0  0  0  0  0  0  0  0  0  0
   -3.3010    0.4925    1.2965 C   0  0  0  0  0  0  0  0  0  0  0  0
   -3.6760   -0.3699    2.1378 O   0  0  0  0  0  0  0  0  0  0  0  0
   -4.2916    1.2702    0.5975 N   0  0  0  0  0  0  0  0  0  0  0  0
   -4.0014    2.3997   -0.2712 C   0  0  0  0  0  0  0  0  0  0  0  0
   -5.3524    3.0146   -0.6119 C   0  0  0  0  0  0  0  0  0  0  0  0
   -6.3889    1.9448   -0.2778 C   0  0  2  0  0  0  0  0  0  0  0  0
   -7.5332    2.5107    0.2587 F   0  0  0  0  0  0  0  0  0  0  0  0
   -5.7162    1.0143    0.7232 C   0  0  0  0  0  0  0  0  0  0  0  0
   -1.1250   -0.6580    0.6892 C   0  0  1  0  0  0  0  0  0  0  0  0
   -1.7447   -1.3037   -0.5418 C   0  0  0  0  0  0  0  0  0  0  0  0
   -2.2111   -0.5597   -1.4495 O   0  0  0  0  0  0  0  0  0  0  0  0
   -1.7628   -2.7378   -0.7286 N   0  0  0  0  0  0  0  0  0  0  0  0
   -2.3949   -3.2856   -1.9336 C   0  0  0  0  0  0  0  0  0  0  0  0
   -1.1523   -3.6443    0.2506 C   0  0  0  0  0  0  0  0  0  0  0  0
    0.3661   -0.4702    0.4724 C   0  0  0  0  0  0  0  0  0  0  0  0
    1.2846   -1.0145    1.3853 C   0  0  0  0  0  0  0  0  0  0  0  0
    2.6582   -0.8316    1.2062 C   0  0  0  0  0  0  0  0  0  0  0  0
    3.1446   -0.0943    0.1127 C   0  0  0  0  0  0  0  0  0  0  0  0
    2.2254    0.4593   -0.7952 C   0  0  0  0  0  0  0  0  0  0  0  0
    0.8519    0.2770   -0.6156 C   0  0  0  0  0  0  0  0  0  0  0  0
    4.6043    0.1002   -0.0779 C   0  0  0  0  0  0  0  0  0  0  0  0
    5.4512    0.3393    1.0267 C   0  0  0  0  0  0  0  0  0  0  0  0
    6.7759    0.5107    0.7956 N   0  0  0  0  0  0  0  0  0  0  0  0
    7.7180    0.7458    1.6860 N   0  0  0  0  0  0  0  0  0  0  0  0
    8.8584    0.8393    0.9610 C   0  0  0  0  0  0  0  0  0  0  0  0
    8.6589    0.6692   -0.3726 N   0  0  0  0  0  0  0  0  0  0  0  0
    7.3303    0.4664   -0.4178 C   0  0  0  0  0  0  0  0  0  0  0  0
    6.5614    0.2348   -1.5526 C   0  0  0  0  0  0  0  0  0  0  0  0
    5.1807    0.0503   -1.3734 C   0  0  0  0  0  0  0  0  0  0  0  0
   -1.6601    1.4005    0.2289 H   0  0  0  0  0  0  0  0  0  0  0  0
   -0.2660    1.6169    2.0588 H   0  0  0  0  0  0  0  0  0  0  0  0
   -1.1561    0.5522    3.0214 H   0  0  0  0  0  0  0  0  0  0  0  0
   -3.3608    3.1412    0.2541 H   0  0  0  0  0  0  0  0  0  0  0  0
   -3.4975    2.0418   -1.1950 H   0  0  0  0  0  0  0  0  0  0  0  0
   -5.4056    3.3082   -1.6828 H   0  0  0  0  0  0  0  0  0  0  0  0
   -5.5205    3.9135    0.0216 H   0  0  0  0  0  0  0  0  0  0  0  0
   -6.6513    1.3793   -1.1990 H   0  0  0  0  0  0  0  0  0  0  0  0
   -6.0437    1.2430    1.7608 H   0  0  0  0  0  0  0  0  0  0  0  0
   -5.9423   -0.0470    0.4807 H   0  0  0  0  0  0  0  0  0  0  0  0
   -1.2827   -1.3413    1.5501 H   0  0  0  0  0  0  0  0  0  0  0  0
   -2.3632   -4.3951   -1.9512 H   0  0  0  0  0  0  0  0  0  0  0  0
   -3.4596   -2.9718   -1.9730 H   0  0  0  0  0  0  0  0  0  0  0  0
   -1.8692   -2.9088   -2.8364 H   0  0  0  0  0  0  0  0  0  0  0  0
   -1.7000   -3.5848    1.2140 H   0  0  0  0  0  0  0  0  0  0  0  0
   -1.1836   -4.7000   -0.0909 H   0  0  0  0  0  0  0  0  0  0  0  0
   -0.0873   -3.3746    0.4039 H   0  0  0  0  0  0  0  0  0  0  0  0
    0.9390   -1.5859    2.2379 H   0  0  0  0  0  0  0  0  0  0  0  0
    3.3408   -1.2819    1.9158 H   0  0  0  0  0  0  0  0  0  0  0  0
    2.5672    1.0518   -1.6345 H   0  0  0  0  0  0  0  0  0  0  0  0
    0.1676    0.7247   -1.3246 H   0  0  0  0  0  0  0  0  0  0  0  0
    5.0625    0.4043    2.0354 H   0  0  0  0  0  0  0  0  0  0  0  0
    9.8288    1.0304    1.3988 H   0  0  0  0  0  0  0  0  0  0  0  0
    7.0092    0.1947   -2.5372 H   0  0  0  0  0  0  0  0  0  0  0  0
    4.5657   -0.1486   -2.2418 H   0  0  0  0  0  0  0  0  0  0  0  0
  1  2  1  0
  1  3  1  0
  3  4  2  0
  3  5  1  0
  5  6  1  0
  6  7  1  0
  7  8  1  0
  8  9  1  0
  8 10  1  0
  1 11  1  0
 11 12  1  0
 12 13  2  0
 12 14  1  0
 14 15  1  0
 14 16  1  0
 11 17  1  0
 17 18  2  0
 18 19  1  0
 19 20  2  0
 20 21  1  0
 21 22  2  0
 20 23  1  0
 23 24  2  0
 24 25  1  0
 25 26  1  0
 26 27  2  0
 27 28  1  0
 28 29  2  0
 29 30  1  0
 30 31  2  0
 10  5  1  0
 22 17  1  0
 31 23  1  0
 29 25  1  0
  1 32  1  6
  2 33  1  0
  2 34  1  0
  6 35  1  0
  6 36  1  0
  7 37  1  0
  7 38  1  0
  8 39  1  6
 10 40  1  0
 10 41  1  0
 11 42  1  1
 15 43  1  0
 15 44  1  0
 15 45  1  0
 16 46  1  0
 16 47  1  0
 16 48  1  0
 18 49  1  0
 19 50  1  0
 21 51  1  0
 22 52  1  0
 24 53  1  0
 27 54  1  0
 30 55  1  0
 31 56  1  0
M  END
$$$$
