
     RDKit          3D

 44 46  0  0  0  0  0  0  0  0999 V2000
    1.8344   -0.7214    1.3008 C   0  0  1  0  0  0  0  0  0  0  0  0
    2.1837   -0.8121   -0.4907 S   0  0  0  0  0  0  0  0  0  0  0  0
    3.3532    0.6228   -0.3792 C   0  0  0  0  0  0  0  0  0  0  0  0
    3.3174    1.3947   -1.7065 C   0  0  0  0  0  0  0  0  0  0  0  0
    4.7667    0.0467   -0.1576 C   0  0  0  0  0  0  0  0  0  0  0  0
    2.8652    1.5263    0.7994 C   0  0  1  0  0  0  0  0  0  0  0  0
    2.0813    0.6482    1.6316 N   0  0  0  0  0  0  0  0  0  0  0  0
    0.7142    0.7298    2.1944 C   0  0  0  0  0  0  0  0  0  0  0  0
    0.0296    1.6296    2.7471 O   0  0  0  0  0  0  0  0  0  0  0  0
    0.4606   -0.6779    1.7519 C   0  0  1  0  0  0  0  0  0  0  0  0
   -0.5309   -0.7419    0.6754 N   0  0  0  0  0  0  0  0  0  0  0  0
   -0.9759   -1.9970    0.1391 C   0  0  0  0  0  0  0  0  0  0  0  0
   -0.5374   -3.0774    0.6200 O   0  0  0  0  0  0  0  0  0  0  0  0
   -1.9481   -2.0447   -1.0113 C   0  0  2  0  0  0  0  0  0  0  0  0
   -1.3263   -1.5180   -2.2308 N   0  0  0  0  0  0  0  0  0  0  0  0
   -3.2501   -1.3449   -0.6500 C   0  0  0  0  0  0  0  0  0  0  0  0
   -4.2521   -2.0740    0.0164 C   0  0  0  0  0  0  0  0  0  0  0  0
   -5.4472   -1.4581    0.3983 C   0  0  0  0  0  0  0  0  0  0  0  0
   -5.6563   -0.1027    0.1323 C   0  0  0  0  0  0  0  0  0  0  0  0
   -6.8522    0.4982    0.5188 O   0  0  0  0  0  0  0  0  0  0  0  0
   -4.6613    0.6384   -0.5164 C   0  0  0  0  0  0  0  0  0  0  0  0
   -3.4645    0.0262   -0.9004 C   0  0  0  0  0  0  0  0  0  0  0  0
    3.9544    2.1967    1.5919 C   0  0  0  0  0  0  0  0  0  0  0  0
    4.4797    3.4055    1.1472 O   0  0  0  0  0  0  0  0  0  0  0  0
    4.4212    1.6539    2.6300 O   0  0  0  0  0  0  0  0  0  0  0  0
    2.4791   -1.3986    1.9035 H   0  0  0  0  0  0  0  0  0  0  0  0
    2.2854    1.7440   -1.9251 H   0  0  0  0  0  0  0  0  0  0  0  0
    3.6460    0.7440   -2.5452 H   0  0  0  0  0  0  0  0  0  0  0  0
    3.9885    2.2789   -1.6579 H   0  0  0  0  0  0  0  0  0  0  0  0
    5.5304    0.8536   -0.1609 H   0  0  0  0  0  0  0  0  0  0  0  0
    5.0234   -0.6699   -0.9673 H   0  0  0  0  0  0  0  0  0  0  0  0
    4.8198   -0.4942    0.8113 H   0  0  0  0  0  0  0  0  0  0  0  0
    2.1853    2.3199    0.4174 H   0  0  0  0  0  0  0  0  0  0  0  0
    0.2274   -1.3501    2.6063 H   0  0  0  0  0  0  0  0  0  0  0  0
   -0.9232    0.1456    0.2882 H   0  0  0  0  0  0  0  0  0  0  0  0
   -2.1830   -3.1143   -1.2137 H   0  0  0  0  0  0  0  0  0  0  0  0
   -0.9394   -0.5608   -2.0677 H   0  0  0  0  0  0  0  0  0  0  0  0
   -2.0481   -1.4553   -2.9856 H   0  0  0  0  0  0  0  0  0  0  0  0
   -4.1066   -3.1231    0.2434 H   0  0  0  0  0  0  0  0  0  0  0  0
   -6.2102   -2.0346    0.9058 H   0  0  0  0  0  0  0  0  0  0  0  0
   -7.0334    1.4793    0.3411 H   0  0  0  0  0  0  0  0  0  0  0  0
   -4.8123    1.6909   -0.7201 H   0  0  0  0  0  0  0  0  0  0  0  0
   -2.7144    0.6321   -1.3880 H   0  0  0  0  0  0  0  0  0  0  0  0
    5.2258    3.8657    1.6548 H   0  0  0  0  0  0  0  0  0  0  0  0
  1  2  1  0
  2  3  1  0
  3  4  1  0
  3  5  1  0
  3  6  1  0
  6  7  1  0
  7  8  1  0
  8  9  2  0
  8 10  1  0
 10 11  1  0
 11 12  1  0
 12 13  2  0
 12 14  1  0
 14 15  1  0
 14 16  1  0
 16 17  2  0
 17 18  1  0
 18 19  2  0
 19 20  1  0
 19 21  1  0
 21 22  2  0
  6 23  1  0
 23 24  1  0
 23 25  2  0
  7  1  1  0
 22 16  1  0
 10  1  1  0
  1 26  1  1
  4 27  1  0
  4 28  1  0
  4 29  1  0
  5 30  1  0
  5 31  1  0
  5 32  1  0
  6 33  1  6
 10 34  1  1
 11 35  1  0
 14 36  1  6
 15 37  1  0
 15 38  1  0
 17 39  1  0
 18 40  1  0
 20 41  1  0
 21 42  1  0
 22 43  1  0
 24 44  1  0
M  END
$$$$
