
     RDKit          3D

 68 72  0  0  0  0  0  0  0  0999 V2000
   -0.7626   -0.1189   -0.6761 C   0  0  2  0  0  0  0  0  0  0  0  0
   -0.1870   -0.3503   -2.0701 C   0  0  0  0  0  0  0  0  0  0  0  0
    1.3168   -0.6356   -1.8331 C   0  0  1  0  0  0  0  0  0  0  0  0
    2.2182    0.3701   -2.5676 C   0  0  0  0  0  0  0  0  0  0  0  0
    1.5299   -0.6655   -0.2770 C   0  0  2  0  0  0  0  0  0  0  0  0
    1.9126    0.6354    0.1317 O   0  0  0  0  0  0  0  0  0  0  0  0
    2.6132   -1.6922    0.1157 C   0  0  0  0  0  0  0  0  0  0  0  0
    2.6286   -2.7950   -0.4126 O   0  0  0  0  0  0  0  0  0  0  0  0
    3.7035   -1.3813    1.1113 C   0  0  0  0  0  0  0  0  0  0  0  0
    4.5264   -0.3185    0.6362 O   0  0  0  0  0  0  0  0  0  0  0  0
    5.4008   -0.4490   -0.4496 C   0  0  0  0  0  0  0  0  0  0  0  0
    5.5933   -1.5804   -0.9749 O   0  0  0  0  0  0  0  0  0  0  0  0
    6.0868    0.7455   -0.9863 C   0  0  0  0  0  0  0  0  0  0  0  0
    5.8274    2.0156   -0.4458 C   0  0  0  0  0  0  0  0  0  0  0  0
    6.4753    3.1359   -0.9718 C   0  0  0  0  0  0  0  0  0  0  0  0
    7.3511    2.9974   -2.0016 N   0  0  0  0  0  0  0  0  0  0  0  0
    7.6220    1.7825   -2.5469 C   0  0  0  0  0  0  0  0  0  0  0  0
    6.9960    0.6358   -2.0520 C   0  0  0  0  0  0  0  0  0  0  0  0
    0.0859   -1.0011    0.2524 C   0  0  2  0  0  0  0  0  0  0  0  0
   -0.2094   -2.5308    0.0729 C   0  0  0  0  0  0  0  0  0  0  0  0
   -0.2265   -0.5769    1.7159 C   0  0  0  0  0  0  0  0  0  0  0  0
   -1.7422   -0.6557    2.0616 C   0  0  2  0  0  0  0  0  0  0  0  0
   -2.1391   -1.9920    2.2101 O   0  0  0  0  0  0  0  0  0  0  0  0
   -2.6432    0.1111    1.0224 C   0  0  1  0  0  0  0  0  0  0  0  0
   -2.3124    1.4553    1.1726 F   0  0  0  0  0  0  0  0  0  0  0  0
   -2.2881   -0.2823   -0.4624 C   0  0  1  0  0  0  0  0  0  0  0  0
   -3.0678    0.5994   -1.4639 C   0  0  0  0  0  0  0  0  0  0  0  0
   -4.5760    0.5021   -1.2426 C   0  0  0  0  0  0  0  0  0  0  0  0
   -4.9065    0.8277    0.1921 C   0  0  0  0  0  0  0  0  0  0  0  0
   -5.8067    1.7874    0.4603 C   0  0  0  0  0  0  0  0  0  0  0  0
   -6.1114    2.1674    1.8388 C   0  0  0  0  0  0  0  0  0  0  0  0
   -6.9719    3.0552    2.0764 O   0  0  0  0  0  0  0  0  0  0  0  0
   -5.3989    1.5222    2.9379 C   0  0  0  0  0  0  0  0  0  0  0  0
   -4.5067    0.5612    2.6963 C   0  0  0  0  0  0  0  0  0  0  0  0
   -4.2022    0.0205    1.2969 C   0  0  2  0  0  0  0  0  0  0  0  0
   -4.7736   -1.4194    1.2505 C   0  0  0  0  0  0  0  0  0  0  0  0
   -0.5342    0.9500   -0.4460 H   0  0  0  0  0  0  0  0  0  0  0  0
   -0.6770   -1.2276   -2.5471 H   0  0  0  0  0  0  0  0  0  0  0  0
   -0.3555    0.5403   -2.7155 H   0  0  0  0  0  0  0  0  0  0  0  0
    1.5350   -1.6324   -2.2761 H   0  0  0  0  0  0  0  0  0  0  0  0
    3.2841    0.1614   -2.3408 H   0  0  0  0  0  0  0  0  0  0  0  0
    2.0708    0.2755   -3.6644 H   0  0  0  0  0  0  0  0  0  0  0  0
    1.9796    1.4138   -2.2712 H   0  0  0  0  0  0  0  0  0  0  0  0
    2.0873    0.6378    1.1057 H   0  0  0  0  0  0  0  0  0  0  0  0
    3.2459   -1.0876    2.0786 H   0  0  0  0  0  0  0  0  0  0  0  0
    4.3288   -2.2804    1.3069 H   0  0  0  0  0  0  0  0  0  0  0  0
    5.1290    2.1443    0.3716 H   0  0  0  0  0  0  0  0  0  0  0  0
    6.2802    4.1174   -0.5608 H   0  0  0  0  0  0  0  0  0  0  0  0
    8.3237    1.7060   -3.3667 H   0  0  0  0  0  0  0  0  0  0  0  0
    7.2212   -0.3245   -2.4989 H   0  0  0  0  0  0  0  0  0  0  0  0
    0.0901   -2.9013   -0.9277 H   0  0  0  0  0  0  0  0  0  0  0  0
    0.3430   -3.1184    0.8364 H   0  0  0  0  0  0  0  0  0  0  0  0
   -1.2723   -2.8017    0.1768 H   0  0  0  0  0  0  0  0  0  0  0  0
    0.3610   -1.1998    2.4250 H   0  0  0  0  0  0  0  0  0  0  0  0
    0.0742    0.4770    1.8896 H   0  0  0  0  0  0  0  0  0  0  0  0
   -1.8563   -0.1457    3.0455 H   0  0  0  0  0  0  0  0  0  0  0  0
   -1.7466   -2.3208    3.0609 H   0  0  0  0  0  0  0  0  0  0  0  0
   -2.5769   -1.3284   -0.6716 H   0  0  0  0  0  0  0  0  0  0  0  0
   -2.8510    0.2717   -2.5033 H   0  0  0  0  0  0  0  0  0  0  0  0
   -2.7515    1.6622   -1.3714 H   0  0  0  0  0  0  0  0  0  0  0  0
   -4.9258   -0.5248   -1.4807 H   0  0  0  0  0  0  0  0  0  0  0  0
   -5.0828    1.1942   -1.9509 H   0  0  0  0  0  0  0  0  0  0  0  0
   -6.3044    2.3178   -0.3431 H   0  0  0  0  0  0  0  0  0  0  0  0
   -5.6006    1.8241    3.9584 H   0  0  0  0  0  0  0  0  0  0  0  0
   -4.0433    0.0884    3.5525 H   0  0  0  0  0  0  0  0  0  0  0  0
   -5.8840   -1.3856    1.1968 H   0  0  0  0  0  0  0  0  0  0  0  0
   -4.5311   -1.9951    2.1672 H   0  0  0  0  0  0  0  0  0  0  0  0
   -4.4157   -1.9908    0.3726 H   0  0  0  0  0  0  0  0  0  0  0  0
  1  2  1  0
  2  3  1  0
  3  4  1  0
  3  5  1  0
  5  6  1  1
  5  7  1  0
  7  8  2  0
  7  9  1  0
  9 10  1  0
 10 11  1  0
 11 12  2  0
 11 13  1  0
 13 14  2  0
 14 15  1  0
 15 16  2  0
 16 17  1  0
 17 18  2  0
  5 19  1  0
 19 20  1  1
 19 21  1  0
 21 22  1  0
 22 23  1  0
 22 24  1  0
 24 25  1  6
 24 26  1  0
 26 27  1  0
 27 28  1  0
 28 29  1  0
 29 30  2  0
 30 31  1  0
 31 32  2  0
 31 33  1  0
 33 34  2  0
 34 35  1  0
 35 36  1  1
 19  1  1  0
 35 24  1  0
 26  1  1  0
 35 29  1  0
 18 13  1  0
  1 37  1  1
  2 38  1  0
  2 39  1  0
  3 40  1  6
  4 41  1  0
  4 42  1  0
  4 43  1  0
  6 44  1  0
  9 45  1  0
  9 46  1  0
 14 47  1  0
 15 48  1  0
 17 49  1  0
 18 50  1  0
 20 51  1  0
 20 52  1  0
 20 53  1  0
 21 54  1  0
 21 55  1  0
 22 56  1  1
 23 57  1  0
 26 58  1  6
 27 59  1  0
 27 60  1  0
 28 61  1  0
 28 62  1  0
 30 63  1  0
 33 64  1  0
 34 65  1  0
 36 66  1  0
 36 67  1  0
 36 68  1  0
M  END
$$$$
