
     RDKit          3D

 19 19  0  0  0  0  0  0  0  0999 V2000
   -3.5971   -0.0147    0.8488 F   0  0  0  0  0  0  0  0  0  0  0  0
   -3.3869    0.3713   -0.4622 C   0  0  0  0  0  0  0  0  0  0  0  0
   -4.0501   -0.5004   -1.3058 F   0  0  0  0  0  0  0  0  0  0  0  0
   -3.8967    1.6456   -0.6416 F   0  0  0  0  0  0  0  0  0  0  0  0
   -1.9149    0.3434   -0.7663 C   0  0  0  0  0  0  0  0  0  0  0  0
   -1.3579    1.3517   -1.1753 O   0  0  0  0  0  0  0  0  0  0  0  0
   -1.1212   -0.9224   -0.5907 C   0  0  0  0  0  0  0  0  0  0  0  0
   -0.1548   -0.7799    0.5498 C   0  0  0  0  0  0  0  0  0  0  0  0
   -0.5337   -1.0875    1.7121 O   0  0  0  0  0  0  0  0  0  0  0  0
    1.2074   -0.2492    0.3486 C   0  0  0  0  0  0  0  0  0  0  0  0
    2.1594   -0.0634    1.3457 C   0  0  0  0  0  0  0  0  0  0  0  0
    3.3681    0.4593    0.8696 C   0  0  0  0  0  0  0  0  0  0  0  0
    3.3771    0.6882   -0.4998 C   0  0  0  0  0  0  0  0  0  0  0  0
    1.8795    0.2395   -1.1170 S   0  0  0  0  0  0  0  0  0  0  0  0
   -1.8034   -1.7750   -0.3816 H   0  0  0  0  0  0  0  0  0  0  0  0
   -0.5865   -1.1621   -1.5341 H   0  0  0  0  0  0  0  0  0  0  0  0
    1.9896   -0.2970    2.3888 H   0  0  0  0  0  0  0  0  0  0  0  0
    4.2160    0.6658    1.5089 H   0  0  0  0  0  0  0  0  0  0  0  0
    4.2061    1.0867   -1.0687 H   0  0  0  0  0  0  0  0  0  0  0  0
  1  2  1  0
  2  3  1  0
  2  4  1  0
  2  5  1  0
  5  6  2  0
  5  7  1  0
  7  8  1  0
  8  9  2  0
  8 10  1  0
 10 11  2  0
 11 12  1  0
 12 13  2  0
 13 14  1  0
 14 10  1  0
  7 15  1  0
  7 16  1  0
 11 17  1  0
 12 18  1  0
 13 19  1  0
M  END
$$$$
