
     RDKit          3D

117125  0  0  0  0  0  0  0  0999 V2000
    3.7224   -0.3390   -2.0576 C   0  0  2  0  0  0  0  0  0  0  0  0
    3.5956    1.0973   -1.7744 N   0  0  0  0  0  0  0  0  0  0  0  0
    4.4968    2.1398   -2.2619 C   0  0  0  0  0  0  0  0  0  0  0  0
    2.3324    1.3406   -1.1830 C   0  0  0  0  0  0  0  0  0  0  0  0
    1.8347    2.5723   -0.7711 C   0  0  0  0  0  0  0  0  0  0  0  0
    0.5407    2.6531   -0.2020 C   0  0  0  0  0  0  0  0  0  0  0  0
    0.0299    3.9059    0.1698 O   0  0  0  0  0  0  0  0  0  0  0  0
    0.7093    5.1505    0.0336 C   0  0  0  0  0  0  0  0  0  0  0  0
   -0.2354    1.4508   -0.0265 C   0  0  0  0  0  0  0  0  0  0  0  0
    0.3354    0.2299   -0.4842 C   0  0  0  0  0  0  0  0  0  0  0  0
    1.6076    0.1990   -1.0520 C   0  0  0  0  0  0  0  0  0  0  0  0
    2.3555   -0.9917   -1.6207 C   0  0  1  0  0  0  0  0  0  0  0  0
    1.5934   -1.5456   -2.8303 C   0  0  0  0  0  0  0  0  0  0  0  0
    0.6995   -2.6426   -2.2859 C   0  0  0  0  0  0  0  0  0  0  0  0
    1.0871   -2.8910   -0.8886 N   0  0  0  0  0  0  0  0  0  0  0  0
    1.0100   -4.3128   -0.5279 C   0  0  0  0  0  0  0  0  0  0  0  0
    2.1690   -5.0712   -1.0801 C   0  0  0  0  0  0  0  0  0  0  0  0
    3.3790   -4.5162   -1.1173 C   0  0  0  0  0  0  0  0  0  0  0  0
    3.6626   -3.1141   -0.5836 C   0  0  1  0  0  0  0  0  0  0  0  0
    4.2037   -3.3123    0.8868 C   0  0  0  0  0  0  0  0  0  0  0  0
    3.2800   -4.0243    1.8785 C   0  0  0  0  0  0  0  0  0  0  0  0
    4.8315   -2.5191   -1.4622 C   0  0  1  0  0  0  0  0  0  0  0  0
    4.6361   -2.9052   -2.8324 O   0  0  0  0  0  0  0  0  0  0  0  0
    5.6658   -3.2184   -3.7271 C   0  0  0  0  0  0  0  0  0  0  0  0
    5.3334   -3.4914   -5.1536 C   0  0  0  0  0  0  0  0  0  0  0  0
    6.8686   -3.2492   -3.3508 O   0  0  0  0  0  0  0  0  0  0  0  0
    4.9809   -0.9663   -1.4036 C   0  0  1  0  0  0  0  0  0  0  0  0
    6.0825   -0.5859   -2.1991 O   0  0  0  0  0  0  0  0  0  0  0  0
    5.2393   -0.4604    0.0089 C   0  0  0  0  0  0  0  0  0  0  0  0
    4.3237    0.0863    0.6850 O   0  0  0  0  0  0  0  0  0  0  0  0
    6.5006   -0.6573    0.5818 O   0  0  0  0  0  0  0  0  0  0  0  0
    6.8149   -0.2449    1.9061 C   0  0  0  0  0  0  0  0  0  0  0  0
    2.3626   -2.1802   -0.6074 C   0  0  1  0  0  0  0  0  0  0  0  0
   -1.6727    1.3488    0.5862 C   0  0  1  0  0  0  0  0  0  0  0  0
   -2.2559    2.7361    1.0427 C   0  0  0  0  0  0  0  0  0  0  0  0
   -3.6306    2.8927    1.7683 C   0  0  1  0  0  0  0  0  0  0  0  0
   -4.8944    2.5930    0.9189 C   0  0  0  0  0  0  0  0  0  0  0  0
   -5.8198    1.5944    1.5024 N   0  0  0  0  0  0  0  0  0  0  0  0
   -6.0113    1.5074    2.9729 C   0  0  0  0  0  0  0  0  0  0  0  0
   -5.0824    2.4166    3.8172 C   0  0  2  0  0  0  0  0  0  0  0  0
   -4.9955    1.8879    5.1219 O   0  0  0  0  0  0  0  0  0  0  0  0
   -5.6477    3.8689    3.9034 C   0  0  0  0  0  0  0  0  0  0  0  0
   -4.7798    4.8156    4.7366 C   0  0  0  0  0  0  0  0  0  0  0  0
   -3.6764    2.3365    3.2015 C   0  0  0  0  0  0  0  0  0  0  0  0
   -5.8810    0.2998    0.7990 C   0  0  0  0  0  0  0  0  0  0  0  0
   -4.5362   -0.4530    0.8127 C   0  0  0  0  0  0  0  0  0  0  0  0
   -3.6995   -0.1049   -0.3930 C   0  0  0  0  0  0  0  0  0  0  0  0
   -2.5776    0.7502   -0.5107 C   0  0  0  0  0  0  0  0  0  0  0  0
   -2.3366    0.9841   -1.8306 N   0  0  0  0  0  0  0  0  0  0  0  0
   -3.2188    0.2584   -2.5286 C   0  0  0  0  0  0  0  0  0  0  0  0
   -4.0594   -0.4204   -1.6946 C   0  0  0  0  0  0  0  0  0  0  0  0
   -5.0859   -1.2275   -2.1932 C   0  0  0  0  0  0  0  0  0  0  0  0
   -5.2227   -1.3347   -3.5889 C   0  0  0  0  0  0  0  0  0  0  0  0
   -4.3471   -0.6359   -4.4475 C   0  0  0  0  0  0  0  0  0  0  0  0
   -3.3299    0.1763   -3.9161 C   0  0  0  0  0  0  0  0  0  0  0  0
   -1.4768    0.4356    1.7868 C   0  0  0  0  0  0  0  0  0  0  0  0
   -1.6586   -0.8106    1.6881 O   0  0  0  0  0  0  0  0  0  0  0  0
   -0.9094    0.9606    2.9541 O   0  0  0  0  0  0  0  0  0  0  0  0
   -0.6198    0.1606    4.0934 C   0  0  0  0  0  0  0  0  0  0  0  0
    3.8385   -0.4350   -3.1617 H   0  0  0  0  0  0  0  0  0  0  0  0
    5.3040    1.7057   -2.8850 H   0  0  0  0  0  0  0  0  0  0  0  0
    3.9319    2.8629   -2.8870 H   0  0  0  0  0  0  0  0  0  0  0  0
    4.9497    2.6716   -1.3995 H   0  0  0  0  0  0  0  0  0  0  0  0
    2.4475    3.4524   -0.9012 H   0  0  0  0  0  0  0  0  0  0  0  0
    1.6440    5.1437    0.6332 H   0  0  0  0  0  0  0  0  0  0  0  0
    0.9369    5.3472   -1.0353 H   0  0  0  0  0  0  0  0  0  0  0  0
    0.0539    5.9620    0.4105 H   0  0  0  0  0  0  0  0  0  0  0  0
   -0.2231   -0.6909   -0.4116 H   0  0  0  0  0  0  0  0  0  0  0  0
    1.0024   -0.7646   -3.3598 H   0  0  0  0  0  0  0  0  0  0  0  0
    2.2909   -2.0035   -3.5651 H   0  0  0  0  0  0  0  0  0  0  0  0
    0.7954   -3.5512   -2.9239 H   0  0  0  0  0  0  0  0  0  0  0  0
   -0.3618   -2.3137   -2.3116 H   0  0  0  0  0  0  0  0  0  0  0  0
    0.0647   -4.7569   -0.9108 H   0  0  0  0  0  0  0  0  0  0  0  0
    0.9627   -4.4183    0.5707 H   0  0  0  0  0  0  0  0  0  0  0  0
    2.0222   -6.0768   -1.4621 H   0  0  0  0  0  0  0  0  0  0  0  0
    4.2051   -5.1219   -1.4820 H   0  0  0  0  0  0  0  0  0  0  0  0
    5.1523   -3.8931    0.8593 H   0  0  0  0  0  0  0  0  0  0  0  0
    4.4424   -2.3492    1.3618 H   0  0  0  0  0  0  0  0  0  0  0  0
    3.0435   -5.0543    1.5434 H   0  0  0  0  0  0  0  0  0  0  0  0
    3.7984   -4.1094    2.8572 H   0  0  0  0  0  0  0  0  0  0  0  0
    2.3549   -3.4376    2.0486 H   0  0  0  0  0  0  0  0  0  0  0  0
    5.7862   -2.9719   -1.1099 H   0  0  0  0  0  0  0  0  0  0  0  0
    5.5461   -2.5879   -5.7618 H   0  0  0  0  0  0  0  0  0  0  0  0
    4.2577   -3.7494   -5.2499 H   0  0  0  0  0  0  0  0  0  0  0  0
    5.9417   -4.3406   -5.5300 H   0  0  0  0  0  0  0  0  0  0  0  0
    6.8970   -1.0403   -1.8579 H   0  0  0  0  0  0  0  0  0  0  0  0
    7.8697   -0.5063    2.1284 H   0  0  0  0  0  0  0  0  0  0  0  0
    6.6880    0.8543    2.0018 H   0  0  0  0  0  0  0  0  0  0  0  0
    6.1547   -0.7639    2.6328 H   0  0  0  0  0  0  0  0  0  0  0  0
    2.2672   -1.7393    0.4090 H   0  0  0  0  0  0  0  0  0  0  0  0
   -2.3154    3.3854    0.1409 H   0  0  0  0  0  0  0  0  0  0  0  0
   -1.5237    3.1916    1.7437 H   0  0  0  0  0  0  0  0  0  0  0  0
   -3.6751    3.9955    1.9238 H   0  0  0  0  0  0  0  0  0  0  0  0
   -4.6284    2.3410   -0.1260 H   0  0  0  0  0  0  0  0  0  0  0  0
   -5.4727    3.5330    0.7915 H   0  0  0  0  0  0  0  0  0  0  0  0
   -5.8497    0.4588    3.3139 H   0  0  0  0  0  0  0  0  0  0  0  0
   -7.0742    1.7363    3.2024 H   0  0  0  0  0  0  0  0  0  0  0  0
   -5.9122    1.8584    5.5042 H   0  0  0  0  0  0  0  0  0  0  0  0
   -5.7951    4.3136    2.9006 H   0  0  0  0  0  0  0  0  0  0  0  0
   -6.6549    3.8350    4.3737 H   0  0  0  0  0  0  0  0  0  0  0  0
   -4.5892    4.3915    5.7447 H   0  0  0  0  0  0  0  0  0  0  0  0
   -3.8135    5.0146    4.2293 H   0  0  0  0  0  0  0  0  0  0  0  0
   -5.3067    5.7853    4.8592 H   0  0  0  0  0  0  0  0  0  0  0  0
   -2.9412    2.8739    3.8389 H   0  0  0  0  0  0  0  0  0  0  0  0
   -3.3816    1.2754    3.2207 H   0  0  0  0  0  0  0  0  0  0  0  0
   -6.6572   -0.3438    1.2699 H   0  0  0  0  0  0  0  0  0  0  0  0
   -6.2408    0.4684   -0.2387 H   0  0  0  0  0  0  0  0  0  0  0  0
   -4.7386   -1.5450    0.7810 H   0  0  0  0  0  0  0  0  0  0  0  0
   -4.0159   -0.2651    1.7618 H   0  0  0  0  0  0  0  0  0  0  0  0
   -1.5994    1.5991   -2.2425 H   0  0  0  0  0  0  0  0  0  0  0  0
   -5.7569   -1.7597   -1.5319 H   0  0  0  0  0  0  0  0  0  0  0  0
   -6.0051   -1.9548   -4.0065 H   0  0  0  0  0  0  0  0  0  0  0  0
   -4.4610   -0.7229   -5.5201 H   0  0  0  0  0  0  0  0  0  0  0  0
   -2.6563    0.7212   -4.5648 H   0  0  0  0  0  0  0  0  0  0  0  0
    0.1174   -0.6263    3.8272 H   0  0  0  0  0  0  0  0  0  0  0  0
   -1.5514   -0.3094    4.4738 H   0  0  0  0  0  0  0  0  0  0  0  0
   -0.1900    0.8027    4.8891 H   0  0  0  0  0  0  0  0  0  0  0  0
  1  2  1  0
  2  3  1  0
  2  4  1  0
  4  5  2  0
  5  6  1  0
  6  7  1  0
  7  8  1  0
  6  9  2  0
  9 10  1  0
 10 11  2  0
 11 12  1  0
 12 13  1  6
 13 14  1  0
 14 15  1  0
 15 16  1  0
 16 17  1  0
 17 18  2  0
 18 19  1  0
 19 20  1  1
 20 21  1  0
 19 22  1  0
 22 23  1  0
 23 24  1  0
 24 25  1  0
 24 26  2  0
 22 27  1  0
 27 28  1  6
 27 29  1  0
 29 30  2  0
 29 31  1  0
 31 32  1  0
 19 33  1  0
  9 34  1  0
 34 35  1  0
 35 36  1  0
 36 37  1  0
 37 38  1  0
 38 39  1  0
 39 40  1  0
 40 41  1  1
 40 42  1  0
 42 43  1  0
 40 44  1  0
 38 45  1  0
 45 46  1  0
 46 47  1  0
 47 48  2  0
 48 49  1  0
 49 50  1  0
 50 51  2  0
 51 52  1  0
 52 53  2  0
 53 54  1  0
 54 55  2  0
 34 56  1  1
 56 57  2  0
 56 58  1  0
 58 59  1  0
 12  1  1  0
 33 12  1  0
 48 34  1  0
 55 50  1  0
 27  1  1  0
 44 36  1  0
 51 47  1  0
 11  4  1  0
 33 15  1  0
  1 60  1  6
  3 61  1  0
  3 62  1  0
  3 63  1  0
  5 64  1  0
  8 65  1  0
  8 66  1  0
  8 67  1  0
 10 68  1  0
 13 69  1  0
 13 70  1  0
 14 71  1  0
 14 72  1  0
 16 73  1  0
 16 74  1  0
 17 75  1  0
 18 76  1  0
 20 77  1  0
 20 78  1  0
 21 79  1  0
 21 80  1  0
 21 81  1  0
 22 82  1  1
 25 83  1  0
 25 84  1  0
 25 85  1  0
 28 86  1  0
 32 87  1  0
 32 88  1  0
 32 89  1  0
 33 90  1  1
 35 91  1  0
 35 92  1  0
 36 93  1  1
 37 94  1  0
 37 95  1  0
 39 96  1  0
 39 97  1  0
 41 98  1  0
 42 99  1  0
 42100  1  0
 43101  1  0
 43102  1  0
 43103  1  0
 44104  1  0
 44105  1  0
 45106  1  0
 45107  1  0
 46108  1  0
 46109  1  0
 49110  1  0
 52111  1  0
 53112  1  0
 54113  1  0
 55114  1  0
 59115  1  0
 59116  1  0
 59117  1  0
M  END
$$$$
