
     RDKit          3D

 44 45  0  0  0  0  0  0  0  0999 V2000
    2.0228   -3.1753    0.3558 C   0  0  0  0  0  0  0  0  0  0  0  0
    1.4599   -1.8581    0.0614 N   0  0  0  0  0  0  0  0  0  0  0  0
    2.1281   -0.7007   -0.1944 C   0  0  0  0  0  0  0  0  0  0  0  0
    3.6272   -0.6118   -0.3187 C   0  0  0  0  0  0  0  0  0  0  0  0
    4.1370    0.8335   -0.2438 C   0  0  0  0  0  0  0  0  0  0  0  0
    5.6651    0.8819   -0.3299 C   0  0  0  0  0  0  0  0  0  0  0  0
    6.1490    2.2953   -0.2552 C   0  0  0  0  0  0  0  0  0  0  0  0
    6.3975    2.8779    0.9836 O   0  0  0  0  0  0  0  0  0  0  0  0
    6.2929    2.9704   -1.3095 O   0  0  0  0  0  0  0  0  0  0  0  0
    1.3000    0.3640   -0.3751 N   0  0  0  0  0  0  0  0  0  0  0  0
    0.0769   -0.1638   -0.1874 C   0  0  0  0  0  0  0  0  0  0  0  0
   -1.1457    0.4992   -0.2379 C   0  0  0  0  0  0  0  0  0  0  0  0
   -2.3275   -0.2453    0.0101 C   0  0  0  0  0  0  0  0  0  0  0  0
   -2.2161   -1.6354    0.2945 C   0  0  0  0  0  0  0  0  0  0  0  0
   -0.9626   -2.2710    0.3364 C   0  0  0  0  0  0  0  0  0  0  0  0
    0.1666   -1.4948    0.0843 C   0  0  0  0  0  0  0  0  0  0  0  0
   -3.6279    0.3961   -0.0169 N   0  0  0  0  0  0  0  0  0  0  0  0
   -4.7569   -0.2508   -0.7098 C   0  0  0  0  0  0  0  0  0  0  0  0
   -5.9559   -0.4870    0.2189 C   0  0  0  0  0  0  0  0  0  0  0  0
   -5.5394   -1.5306    1.6024 Cl  0  0  0  0  0  0  0  0  0  0  0  0
   -3.8010    1.7625    0.5086 C   0  0  0  0  0  0  0  0  0  0  0  0
   -3.5737    1.7928    2.0186 C   0  0  0  0  0  0  0  0  0  0  0  0
   -3.8231    3.4419    2.6437 Cl  0  0  0  0  0  0  0  0  0  0  0  0
    2.1845   -3.2742    1.4494 H   0  0  0  0  0  0  0  0  0  0  0  0
    1.3357   -3.9757    0.0110 H   0  0  0  0  0  0  0  0  0  0  0  0
    2.9891   -3.3119   -0.1727 H   0  0  0  0  0  0  0  0  0  0  0  0
    4.0897   -1.1995    0.5035 H   0  0  0  0  0  0  0  0  0  0  0  0
    3.9281   -1.0633   -1.2884 H   0  0  0  0  0  0  0  0  0  0  0  0
    3.8078    1.2900    0.7164 H   0  0  0  0  0  0  0  0  0  0  0  0
    3.7055    1.4212   -1.0845 H   0  0  0  0  0  0  0  0  0  0  0  0
    6.0051    0.4248   -1.2850 H   0  0  0  0  0  0  0  0  0  0  0  0
    6.1090    0.3033    0.5091 H   0  0  0  0  0  0  0  0  0  0  0  0
    6.7098    3.8391    1.0522 H   0  0  0  0  0  0  0  0  0  0  0  0
   -1.1663    1.5519   -0.4778 H   0  0  0  0  0  0  0  0  0  0  0  0
   -3.0950   -2.2294    0.4939 H   0  0  0  0  0  0  0  0  0  0  0  0
   -0.8879   -3.3264    0.5608 H   0  0  0  0  0  0  0  0  0  0  0  0
   -5.0806    0.3980   -1.5520 H   0  0  0  0  0  0  0  0  0  0  0  0
   -4.4512   -1.2189   -1.1611 H   0  0  0  0  0  0  0  0  0  0  0  0
   -6.7651   -0.9830   -0.3571 H   0  0  0  0  0  0  0  0  0  0  0  0
   -6.3571    0.4729    0.6025 H   0  0  0  0  0  0  0  0  0  0  0  0
   -4.8227    2.1410    0.2921 H   0  0  0  0  0  0  0  0  0  0  0  0
   -3.1081    2.4655    0.0045 H   0  0  0  0  0  0  0  0  0  0  0  0
   -2.5370    1.4761    2.2586 H   0  0  0  0  0  0  0  0  0  0  0  0
   -4.2868    1.1079    2.5232 H   0  0  0  0  0  0  0  0  0  0  0  0
  1  2  1  0
  2  3  1  0
  3  4  1  0
  4  5  1  0
  5  6  1  0
  6  7  1  0
  7  8  1  0
  7  9  2  0
  3 10  2  0
 10 11  1  0
 11 12  2  0
 12 13  1  0
 13 14  2  0
 14 15  1  0
 15 16  2  0
 13 17  1  0
 17 18  1  0
 18 19  1  0
 19 20  1  0
 17 21  1  0
 21 22  1  0
 22 23  1  0
 16  2  1  0
 16 11  1  0
  1 24  1  0
  1 25  1  0
  1 26  1  0
  4 27  1  0
  4 28  1  0
  5 29  1  0
  5 30  1  0
  6 31  1  0
  6 32  1  0
  8 33  1  0
 12 34  1  0
 14 35  1  0
 15 36  1  0
 18 37  1  0
 18 38  1  0
 19 39  1  0
 19 40  1  0
 21 41  1  0
 21 42  1  0
 22 43  1  0
 22 44  1  0
M  END
$$$$
