
     RDKit          3D

 16 16  0  0  0  0  0  0  0  0999 V2000
    2.6135   -0.6530   -0.6405 O   0  0  0  0  0  0  0  0  0  0  0  0
    2.0136    0.2694    0.2246 C   0  0  0  0  0  0  0  0  0  0  0  0
    0.5210    0.1435    0.1268 C   0  0  0  0  0  0  0  0  0  0  0  0
   -0.1686   -0.7647    0.9468 C   0  0  0  0  0  0  0  0  0  0  0  0
   -1.5550   -0.9062    0.8307 C   0  0  0  0  0  0  0  0  0  0  0  0
   -2.2608   -0.1516   -0.1120 C   0  0  0  0  0  0  0  0  0  0  0  0
   -4.1539   -0.3480   -0.2703 Br  0  0  0  0  0  0  0  0  0  0  0  0
   -1.5777    0.7425   -0.9428 C   0  0  0  0  0  0  0  0  0  0  0  0
   -0.1913    0.8863   -0.8291 C   0  0  0  0  0  0  0  0  0  0  0  0
    3.5930   -0.5296   -0.5383 H   0  0  0  0  0  0  0  0  0  0  0  0
    2.3272    1.3023   -0.0476 H   0  0  0  0  0  0  0  0  0  0  0  0
    2.3441    0.0772    1.2703 H   0  0  0  0  0  0  0  0  0  0  0  0
    0.3665   -1.3620    1.6747 H   0  0  0  0  0  0  0  0  0  0  0  0
   -2.0789   -1.6046    1.4706 H   0  0  0  0  0  0  0  0  0  0  0  0
   -2.1192    1.3231   -1.6786 H   0  0  0  0  0  0  0  0  0  0  0  0
    0.3261    1.5754   -1.4852 H   0  0  0  0  0  0  0  0  0  0  0  0
  1  2  1  0
  2  3  1  0
  3  4  2  0
  4  5  1  0
  5  6  2  0
  6  7  1  0
  6  8  1  0
  8  9  2  0
  9  3  1  0
  1 10  1  0
  2 11  1  0
  2 12  1  0
  4 13  1  0
  5 14  1  0
  8 15  1  0
  9 16  1  0
M  END
$$$$
