
     RDKit          3D

 37 40  0  0  0  0  0  0  0  0999 V2000
    2.4341    1.4686    0.3294 C   0  0  2  0  0  0  0  0  0  0  0  0
    2.4234    1.1368    1.6956 O   0  0  0  0  0  0  0  0  0  0  0  0
    1.0412    1.2827   -0.2813 C   0  0  0  0  0  0  0  0  0  0  0  0
    0.5746   -0.1661   -0.2612 C   0  0  0  0  0  0  0  0  0  0  0  0
    1.5641   -1.1931   -0.2117 C   0  0  0  0  0  0  0  0  0  0  0  0
    1.1813   -2.5109    0.0585 C   0  0  0  0  0  0  0  0  0  0  0  0
   -0.1362   -2.8239    0.3434 C   0  0  0  0  0  0  0  0  0  0  0  0
   -1.1286   -1.8442    0.2802 C   0  0  0  0  0  0  0  0  0  0  0  0
   -0.8184   -0.5215   -0.1525 C   0  0  0  0  0  0  0  0  0  0  0  0
   -1.9230    0.3715   -0.3849 C   0  0  0  0  0  0  0  0  0  0  0  0
   -3.2170    0.0199    0.0991 C   0  0  0  0  0  0  0  0  0  0  0  0
   -4.2946    0.9120   -0.0288 C   0  0  0  0  0  0  0  0  0  0  0  0
   -4.1338    2.1155   -0.7092 C   0  0  0  0  0  0  0  0  0  0  0  0
   -2.9139    2.4148   -1.3068 C   0  0  0  0  0  0  0  0  0  0  0  0
   -1.8305    1.5434   -1.1727 C   0  0  0  0  0  0  0  0  0  0  0  0
   -3.4434   -1.2420    0.6497 C   0  0  0  0  0  0  0  0  0  0  0  0
   -2.4267   -2.1833    0.6790 C   0  0  0  0  0  0  0  0  0  0  0  0
    3.0618   -0.9180   -0.2881 C   0  0  1  0  0  0  0  0  0  0  0  0
    3.6157   -1.6206   -1.3730 O   0  0  0  0  0  0  0  0  0  0  0  0
    3.4190    0.5753   -0.4359 C   0  0  2  0  0  0  0  0  0  0  0  0
    4.7453    0.8210   -0.0356 O   0  0  0  0  0  0  0  0  0  0  0  0
    2.7477    2.5312    0.2009 H   0  0  0  0  0  0  0  0  0  0  0  0
    1.9768    1.8870    2.1682 H   0  0  0  0  0  0  0  0  0  0  0  0
    1.1025    1.6320   -1.3331 H   0  0  0  0  0  0  0  0  0  0  0  0
    0.3372    1.9286    0.2857 H   0  0  0  0  0  0  0  0  0  0  0  0
    1.9256   -3.2946    0.1309 H   0  0  0  0  0  0  0  0  0  0  0  0
   -0.3786   -3.8407    0.6314 H   0  0  0  0  0  0  0  0  0  0  0  0
   -5.2714    0.6623    0.3690 H   0  0  0  0  0  0  0  0  0  0  0  0
   -4.9713    2.7923   -0.8191 H   0  0  0  0  0  0  0  0  0  0  0  0
   -2.8132    3.3140   -1.9011 H   0  0  0  0  0  0  0  0  0  0  0  0
   -0.9644    1.7685   -1.7635 H   0  0  0  0  0  0  0  0  0  0  0  0
   -4.4300   -1.5255    0.9981 H   0  0  0  0  0  0  0  0  0  0  0  0
   -2.6506   -3.1783    1.0469 H   0  0  0  0  0  0  0  0  0  0  0  0
    3.5077   -1.2777    0.6711 H   0  0  0  0  0  0  0  0  0  0  0  0
    3.9199   -2.5023   -1.0329 H   0  0  0  0  0  0  0  0  0  0  0  0
    3.3520    0.8448   -1.5143 H   0  0  0  0  0  0  0  0  0  0  0  0
    4.8154    0.6205    0.9340 H   0  0  0  0  0  0  0  0  0  0  0  0
  1  2  1  0
  1  3  1  0
  3  4  1  0
  4  5  2  0
  5  6  1  0
  6  7  2  0
  7  8  1  0
  8  9  2  0
  9 10  1  0
 10 11  2  0
 11 12  1  0
 12 13  2  0
 13 14  1  0
 14 15  2  0
 11 16  1  0
 16 17  2  0
  5 18  1  0
 18 19  1  0
 18 20  1  0
 20 21  1  0
 20  1  1  0
  9  4  1  0
 15 10  1  0
 17  8  1  0
  1 22  1  1
  2 23  1  0
  3 24  1  0
  3 25  1  0
  6 26  1  0
  7 27  1  0
 12 28  1  0
 13 29  1  0
 14 30  1  0
 15 31  1  0
 16 32  1  0
 17 33  1  0
 18 34  1  1
 19 35  1  0
 20 36  1  6
 21 37  1  0
M  END
$$$$
