
     RDKit          3D

 51 55  0  0  0  0  0  0  0  0999 V2000
   -4.0662    3.6213   -0.0442 C   0  0  0  0  0  0  0  0  0  0  0  0
   -2.8575    2.8648   -0.5288 C   0  0  0  0  0  0  0  0  0  0  0  0
   -1.8819    3.5448   -1.2723 C   0  0  0  0  0  0  0  0  0  0  0  0
   -0.7311    2.8839   -1.6994 C   0  0  0  0  0  0  0  0  0  0  0  0
   -0.5539    1.5330   -1.3851 C   0  0  0  0  0  0  0  0  0  0  0  0
    0.6367    0.8481   -1.8108 N   0  0  0  0  0  0  0  0  0  0  0  0
    0.9363   -0.5235   -1.5039 C   0  0  0  0  0  0  0  0  0  0  0  0
    0.1729   -1.2060   -0.7687 O   0  0  0  0  0  0  0  0  0  0  0  0
    2.2031   -1.1408   -2.0148 C   0  0  0  0  0  0  0  0  0  0  0  0
    2.0580   -2.4629   -2.7611 C   0  0  0  0  0  0  0  0  0  0  0  0
    2.3610   -1.1862   -3.5308 C   0  0  0  0  0  0  0  0  0  0  0  0
    3.4614   -0.9533   -1.2133 C   0  0  0  0  0  0  0  0  0  0  0  0
    4.2824    0.1827   -1.4313 C   0  0  0  0  0  0  0  0  0  0  0  0
    5.4389    0.3864   -0.6570 C   0  0  0  0  0  0  0  0  0  0  0  0
    5.7338   -0.5504    0.3287 C   0  0  0  0  0  0  0  0  0  0  0  0
    6.7980   -0.5665    1.2097 O   0  0  0  0  0  0  0  0  0  0  0  0
    6.6658   -1.7294    2.0388 C   0  0  0  0  0  0  0  0  0  0  0  0
    6.5394   -1.3601    3.3647 F   0  0  0  0  0  0  0  0  0  0  0  0
    7.7558   -2.5628    1.8717 F   0  0  0  0  0  0  0  0  0  0  0  0
    5.4695   -2.3798    1.5881 O   0  0  0  0  0  0  0  0  0  0  0  0
    4.9431   -1.6306    0.5535 C   0  0  0  0  0  0  0  0  0  0  0  0
    3.7911   -1.8694   -0.1901 C   0  0  0  0  0  0  0  0  0  0  0  0
   -1.5218    0.8803   -0.6864 N   0  0  0  0  0  0  0  0  0  0  0  0
   -2.6661    1.4866   -0.2660 C   0  0  0  0  0  0  0  0  0  0  0  0
   -3.6525    0.6687    0.4717 C   0  0  0  0  0  0  0  0  0  0  0  0
   -3.2387   -0.0879    1.5801 C   0  0  0  0  0  0  0  0  0  0  0  0
   -4.1543   -0.8950    2.2806 C   0  0  0  0  0  0  0  0  0  0  0  0
   -5.4901   -0.9457    1.8471 C   0  0  0  0  0  0  0  0  0  0  0  0
   -5.8996   -0.2117    0.7315 C   0  0  0  0  0  0  0  0  0  0  0  0
   -4.9857    0.5864    0.0411 C   0  0  0  0  0  0  0  0  0  0  0  0
   -3.7210   -1.6829    3.4558 C   0  0  0  0  0  0  0  0  0  0  0  0
   -4.6343   -2.4787    4.1428 O   0  0  0  0  0  0  0  0  0  0  0  0
   -2.5227   -1.6418    3.8461 O   0  0  0  0  0  0  0  0  0  0  0  0
   -4.3932    3.2506    0.9498 H   0  0  0  0  0  0  0  0  0  0  0  0
   -4.8942    3.5115   -0.7744 H   0  0  0  0  0  0  0  0  0  0  0  0
   -3.8367    4.7025    0.0673 H   0  0  0  0  0  0  0  0  0  0  0  0
   -2.0047    4.5943   -1.5105 H   0  0  0  0  0  0  0  0  0  0  0  0
    0.0200    3.4229   -2.2631 H   0  0  0  0  0  0  0  0  0  0  0  0
    1.3365    1.3796   -2.3769 H   0  0  0  0  0  0  0  0  0  0  0  0
    2.9248   -3.1558   -2.7020 H   0  0  0  0  0  0  0  0  0  0  0  0
    1.0195   -2.8298   -2.9082 H   0  0  0  0  0  0  0  0  0  0  0  0
    3.4024   -1.1421   -3.9160 H   0  0  0  0  0  0  0  0  0  0  0  0
    1.4977   -0.8120   -4.1222 H   0  0  0  0  0  0  0  0  0  0  0  0
    4.0236    0.9037   -2.1966 H   0  0  0  0  0  0  0  0  0  0  0  0
    6.0756    1.2464   -0.8177 H   0  0  0  0  0  0  0  0  0  0  0  0
    3.1712   -2.7324    0.0170 H   0  0  0  0  0  0  0  0  0  0  0  0
   -2.2041   -0.0374    1.8991 H   0  0  0  0  0  0  0  0  0  0  0  0
   -6.2180   -1.5582    2.3642 H   0  0  0  0  0  0  0  0  0  0  0  0
   -6.9272   -0.2678    0.3962 H   0  0  0  0  0  0  0  0  0  0  0  0
   -5.3148    1.1246   -0.8384 H   0  0  0  0  0  0  0  0  0  0  0  0
   -4.3482   -3.0221    4.9484 H   0  0  0  0  0  0  0  0  0  0  0  0
  1  2  1  0
  2  3  2  0
  3  4  1  0
  4  5  2  0
  5  6  1  0
  6  7  1  0
  7  8  2  0
  7  9  1  0
  9 10  1  0
 10 11  1  0
  9 12  1  0
 12 13  2  0
 13 14  1  0
 14 15  2  0
 15 16  1  0
 16 17  1  0
 17 18  1  0
 17 19  1  0
 17 20  1  0
 20 21  1  0
 21 22  2  0
  5 23  1  0
 23 24  2  0
 24 25  1  0
 25 26  2  0
 26 27  1  0
 27 28  2  0
 28 29  1  0
 29 30  2  0
 27 31  1  0
 31 32  1  0
 31 33  2  0
 24  2  1  0
 30 25  1  0
 11  9  1  0
 22 12  1  0
 21 15  1  0
  1 34  1  0
  1 35  1  0
  1 36  1  0
  3 37  1  0
  4 38  1  0
  6 39  1  0
 10 40  1  0
 10 41  1  0
 11 42  1  0
 11 43  1  0
 13 44  1  0
 14 45  1  0
 22 46  1  0
 26 47  1  0
 28 48  1  0
 29 49  1  0
 30 50  1  0
 32 51  1  0
M  END
$$$$
