
     RDKit          3D

 10  9  0  0  0  0  0  0  0  0999 V2000
   -1.5840   -0.0608   -0.1271 N   0  0  0  0  0  0  0  0  0  0  0  0
   -0.4242    0.4068    0.6274 C   0  0  0  0  0  0  0  0  0  0  0  0
    0.8440    0.1651   -0.1331 C   0  0  0  0  0  0  0  0  0  0  0  0
    1.5150   -1.0457    0.0055 O   0  0  0  0  0  0  0  0  0  0  0  0
    1.2805    1.0405   -0.9274 O   0  0  0  0  0  0  0  0  0  0  0  0
   -1.4671   -1.0813   -0.3271 H   0  0  0  0  0  0  0  0  0  0  0  0
   -1.6141    0.4413   -1.0446 H   0  0  0  0  0  0  0  0  0  0  0  0
   -0.5356    1.4922    0.8396 H   0  0  0  0  0  0  0  0  0  0  0  0
   -0.3793   -0.1271    1.6007 H   0  0  0  0  0  0  0  0  0  0  0  0
    2.3648   -1.2310   -0.5138 H   0  0  0  0  0  0  0  0  0  0  0  0
  1  2  1  0
  2  3  1  0
  3  4  1  0
  3  5  2  0
  1  6  1  0
  1  7  1  0
  2  8  1  0
  2  9  1  0
  4 10  1  0
M  END
$$$$
