
     RDKit          3D

 28 29  0  0  0  0  0  0  0  0999 V2000
    5.4482    1.0051   -0.2034 C   0  0  0  0  0  0  0  0  0  0  0  0
    3.9808    0.7533   -0.1373 C   0  0  0  0  0  0  0  0  0  0  0  0
    3.3024    0.0452   -1.0639 N   0  0  0  0  0  0  0  0  0  0  0  0
    1.9870   -0.1025   -0.7426 C   0  0  0  0  0  0  0  0  0  0  0  0
    1.0646   -0.8536   -1.6517 C   0  0  0  0  0  0  0  0  0  0  0  0
    1.6072    0.4859    0.4775 C   0  0  0  0  0  0  0  0  0  0  0  0
    2.9882    1.1990    1.1385 S   0  0  0  0  0  0  0  0  0  0  0  0
    0.2623    0.4943    1.1077 C   0  0  0  0  0  0  0  0  0  0  0  0
   -0.7855   -0.1169    0.4912 N   0  0  0  0  0  0  0  0  0  0  0  0
   -2.0296   -0.1299    1.0366 C   0  0  0  0  0  0  0  0  0  0  0  0
   -3.0927   -0.7901    0.3394 N   0  0  0  0  0  0  0  0  0  0  0  0
   -4.3151   -0.8608    0.7703 C   0  0  0  0  0  0  0  0  0  0  0  0
   -5.3083   -1.5416    0.0033 N   0  0  0  0  0  0  0  0  0  0  0  0
   -4.9941   -2.1361   -1.1729 O   0  0  0  0  0  0  0  0  0  0  0  0
   -2.2467    0.4823    2.2327 N   0  0  0  0  0  0  0  0  0  0  0  0
   -1.2368    1.1066    2.8897 C   0  0  0  0  0  0  0  0  0  0  0  0
    0.0446    1.1273    2.3411 C   0  0  0  0  0  0  0  0  0  0  0  0
    5.7813    1.0327   -1.2620 H   0  0  0  0  0  0  0  0  0  0  0  0
    5.6873    1.9783    0.2740 H   0  0  0  0  0  0  0  0  0  0  0  0
    5.9864    0.1937    0.3287 H   0  0  0  0  0  0  0  0  0  0  0  0
    0.2438   -0.1883   -1.9920 H   0  0  0  0  0  0  0  0  0  0  0  0
    1.6153   -1.2139   -2.5463 H   0  0  0  0  0  0  0  0  0  0  0  0
    0.6450   -1.7341   -1.1218 H   0  0  0  0  0  0  0  0  0  0  0  0
   -4.6010   -0.4076    1.7120 H   0  0  0  0  0  0  0  0  0  0  0  0
   -6.2860   -1.6022    0.3651 H   0  0  0  0  0  0  0  0  0  0  0  0
   -5.1615   -1.4422   -1.8608 H   0  0  0  0  0  0  0  0  0  0  0  0
   -1.4292    1.5877    3.8393 H   0  0  0  0  0  0  0  0  0  0  0  0
    0.8421    1.6283    2.8737 H   0  0  0  0  0  0  0  0  0  0  0  0
  1  2  1  0
  2  3  2  0
  3  4  1  0
  4  5  1  0
  4  6  2  0
  6  7  1  0
  6  8  1  0
  8  9  2  0
  9 10  1  0
 10 11  1  0
 11 12  2  0
 12 13  1  0
 13 14  1  0
 10 15  2  0
 15 16  1  0
 16 17  2  0
  7  2  1  0
 17  8  1  0
  1 18  1  0
  1 19  1  0
  1 20  1  0
  5 21  1  0
  5 22  1  0
  5 23  1  0
 12 24  1  0
 13 25  1  0
 14 26  1  0
 16 27  1  0
 17 28  1  0
M  END
$$$$
