
     RDKit          3D

 31 28  0  0  0  0  0  0  0  0999 V2000
    0.0000    0.0000    0.0000 Mg  0  0  0  0  0 15  0  0  0  0  0  0
    1.9900   -0.0261    1.1464 C   0  0  0  0  0  0  0  0  0  0  0  0
    0.9393   -0.4946    0.1858 C   0  0  0  0  0  0  0  0  0  0  0  0
    0.7508   -1.6919    0.0319 O   0  0  0  0  0  0  0  0  0  0  0  0
    0.1430    0.5002   -0.6181 C   0  0  0  0  0  0  0  0  0  0  0  0
   -1.3141    0.5839   -0.1465 C   0  0  0  0  0  0  0  0  0  0  0  0
   -2.0858   -0.6537   -0.4895 C   0  0  0  0  0  0  0  0  0  0  0  0
   -2.3508   -1.6031    0.4894 O   0  0  0  0  0  1  0  0  0  0  0  0
   -2.4748   -0.8505   -1.6708 O   0  0  0  0  0  0  0  0  0  0  0  0
    2.3072   -0.3531   -0.2026 C   0  0  0  0  0  0  0  0  0  0  0  0
    1.2390    0.2954    0.6247 C   0  0  0  0  0  0  0  0  0  0  0  0
    1.4909    1.3152    1.2490 O   0  0  0  0  0  0  0  0  0  0  0  0
   -0.1337   -0.3135    0.7110 C   0  0  0  0  0  0  0  0  0  0  0  0
   -1.1767    0.6040    0.0680 C   0  0  0  0  0  0  0  0  0  0  0  0
   -2.5370   -0.0133    0.1470 C   0  0  0  0  0  0  0  0  0  0  0  0
   -3.3346    0.2023    1.2637 O   0  0  0  0  0  1  0  0  0  0  0  0
   -2.9461   -0.7655   -0.7762 O   0  0  0  0  0  0  0  0  0  0  0  0
    2.7917    0.5046    0.5918 H   0  0  0  0  0  0  0  0  0  0  0  0
    2.4371   -0.8860    1.6895 H   0  0  0  0  0  0  0  0  0  0  0  0
    1.5363    0.6665    1.8858 H   0  0  0  0  0  0  0  0  0  0  0  0
    0.6001    1.5083   -0.5129 H   0  0  0  0  0  0  0  0  0  0  0  0
    0.1871    0.2311   -1.6961 H   0  0  0  0  0  0  0  0  0  0  0  0
   -1.3478    0.7573    0.9512 H   0  0  0  0  0  0  0  0  0  0  0  0
   -1.8020    1.4539   -0.6369 H   0  0  0  0  0  0  0  0  0  0  0  0
    1.9634   -0.4371   -1.2548 H   0  0  0  0  0  0  0  0  0  0  0  0
    2.5215   -1.3673    0.1943 H   0  0  0  0  0  0  0  0  0  0  0  0
    3.2418    0.2471   -0.1782 H   0  0  0  0  0  0  0  0  0  0  0  0
   -0.1417   -1.2989    0.1945 H   0  0  0  0  0  0  0  0  0  0  0  0
   -0.3859   -0.4839    1.7806 H   0  0  0  0  0  0  0  0  0  0  0  0
   -0.9138    0.7847   -0.9976 H   0  0  0  0  0  0  0  0  0  0  0  0
   -1.1943    1.5841    0.5925 H   0  0  0  0  0  0  0  0  0  0  0  0
  2  3  1  0
  3  4  2  0
  3  5  1  0
  5  6  1  0
  6  7  1  0
  7  8  1  0
  7  9  2  0
 10 11  1  0
 11 12  2  0
 11 13  1  0
 13 14  1  0
 14 15  1  0
 15 16  1  0
 15 17  2  0
  2 18  1  0
  2 19  1  0
  2 20  1  0
  5 21  1  0
  5 22  1  0
  6 23  1  0
  6 24  1  0
 10 25  1  0
 10 26  1  0
 10 27  1  0
 13 28  1  0
 13 29  1  0
 14 30  1  0
 14 31  1  0
M  CHG  3   1   2   8  -1  16  -1
M  END
$$$$
