
     RDKit          3D

 45 48  0  0  0  0  0  0  0  0999 V2000
   -6.3457    1.9563   -2.8341 C   0  0  0  0  0  0  0  0  0  0  0  0
   -5.7617    1.4353   -1.6042 N   0  0  0  0  0  0  0  0  0  0  0  0
   -4.5620    0.6461   -1.6174 C   0  0  0  0  0  0  0  0  0  0  0  0
   -3.9203    0.5110   -2.6955 O   0  0  0  0  0  0  0  0  0  0  0  0
   -4.0522    0.0021   -0.3820 C   0  0  0  0  0  0  0  0  0  0  0  0
   -2.6885   -0.3168   -0.2676 C   0  0  0  0  0  0  0  0  0  0  0  0
   -2.1810   -0.9263    0.8936 C   0  0  0  0  0  0  0  0  0  0  0  0
   -0.7855   -1.2669    0.9774 N   0  0  0  0  0  0  0  0  0  0  0  0
    0.2664   -0.3852    0.5530 C   0  0  0  0  0  0  0  0  0  0  0  0
    1.5856   -0.8183    0.4608 C   0  0  0  0  0  0  0  0  0  0  0  0
    2.2254   -2.0142    0.7111 C   0  0  0  0  0  0  0  0  0  0  0  0
    3.5521   -1.8394    0.4873 N   0  0  0  0  0  0  0  0  0  0  0  0
    3.7570   -0.5833    0.0974 N   0  0  0  0  0  0  0  0  0  0  0  0
    2.5645    0.0429    0.0828 C   0  0  0  0  0  0  0  0  0  0  0  0
    2.3140    1.3482   -0.1837 N   0  0  0  0  0  0  0  0  0  0  0  0
    1.0235    1.7890   -0.0948 C   0  0  0  0  0  0  0  0  0  0  0  0
    0.0188    0.9308    0.2718 N   0  0  0  0  0  0  0  0  0  0  0  0
    5.0566   -0.0422   -0.2062 C   0  0  0  0  0  0  0  0  0  0  0  0
    6.1982   -0.5736    0.4195 C   0  0  0  0  0  0  0  0  0  0  0  0
    7.4677   -0.0648    0.1290 C   0  0  0  0  0  0  0  0  0  0  0  0
    7.6118    0.9718   -0.7959 C   0  0  0  0  0  0  0  0  0  0  0  0
    6.4870    1.4970   -1.4361 C   0  0  0  0  0  0  0  0  0  0  0  0
    5.2151    0.9921   -1.1480 C   0  0  0  0  0  0  0  0  0  0  0  0
   -3.0621   -1.2472    1.9496 C   0  0  0  0  0  0  0  0  0  0  0  0
   -2.5635   -1.9185    3.2005 C   0  0  0  0  0  0  0  0  0  0  0  0
   -4.4277   -0.9516    1.8222 C   0  0  0  0  0  0  0  0  0  0  0  0
   -4.9176   -0.3304    0.6723 C   0  0  0  0  0  0  0  0  0  0  0  0
   -5.6144    2.6130   -3.3509 H   0  0  0  0  0  0  0  0  0  0  0  0
   -7.2553    2.5484   -2.5993 H   0  0  0  0  0  0  0  0  0  0  0  0
   -6.6274    1.1152   -3.5019 H   0  0  0  0  0  0  0  0  0  0  0  0
   -6.2135    1.6918   -0.6986 H   0  0  0  0  0  0  0  0  0  0  0  0
   -2.0175   -0.1013   -1.0898 H   0  0  0  0  0  0  0  0  0  0  0  0
   -0.5225   -2.1742    1.4230 H   0  0  0  0  0  0  0  0  0  0  0  0
    1.7757   -2.9398    1.0440 H   0  0  0  0  0  0  0  0  0  0  0  0
    0.7941    2.8240   -0.3072 H   0  0  0  0  0  0  0  0  0  0  0  0
    6.1041   -1.3745    1.1419 H   0  0  0  0  0  0  0  0  0  0  0  0
    8.3401   -0.4748    0.6211 H   0  0  0  0  0  0  0  0  0  0  0  0
    8.5953    1.3635   -1.0212 H   0  0  0  0  0  0  0  0  0  0  0  0
    6.6013    2.2912   -2.1627 H   0  0  0  0  0  0  0  0  0  0  0  0
    4.3654    1.3926   -1.6827 H   0  0  0  0  0  0  0  0  0  0  0  0
   -2.3214   -2.9795    2.9821 H   0  0  0  0  0  0  0  0  0  0  0  0
   -1.6539   -1.4026    3.5746 H   0  0  0  0  0  0  0  0  0  0  0  0
   -3.3249   -1.8894    4.0089 H   0  0  0  0  0  0  0  0  0  0  0  0
   -5.1205   -1.2057    2.6152 H   0  0  0  0  0  0  0  0  0  0  0  0
   -5.9804   -0.1419    0.6027 H   0  0  0  0  0  0  0  0  0  0  0  0
  1  2  1  0
  2  3  1  0
  3  4  2  0
  3  5  1  0
  5  6  2  0
  6  7  1  0
  7  8  1  0
  8  9  1  0
  9 10  2  0
 10 11  1  0
 11 12  2  0
 12 13  1  0
 13 14  1  0
 14 15  2  0
 15 16  1  0
 16 17  2  0
 13 18  1  0
 18 19  2  0
 19 20  1  0
 20 21  2  0
 21 22  1  0
 22 23  2  0
  7 24  2  0
 24 25  1  0
 24 26  1  0
 26 27  2  0
 27  5  1  0
 17  9  1  0
 23 18  1  0
 14 10  1  0
  1 28  1  0
  1 29  1  0
  1 30  1  0
  2 31  1  0
  6 32  1  0
  8 33  1  0
 11 34  1  0
 16 35  1  0
 19 36  1  0
 20 37  1  0
 21 38  1  0
 22 39  1  0
 23 40  1  0
 25 41  1  0
 25 42  1  0
 25 43  1  0
 26 44  1  0
 27 45  1  0
M  END
$$$$
