
     RDKit          3D

116124  0  0  0  0  0  0  0  0999 V2000
    5.3697   -0.5578   -4.9685 C   0  0  0  0  0  0  0  0  0  0  0  0
    4.0900   -0.2129   -4.1989 C   0  0  0  0  0  0  0  0  0  0  0  0
    3.6957   -1.2485   -3.1028 C   0  0  2  0  0  0  0  0  0  0  0  0
    3.5417   -2.4959   -3.7428 O   0  0  0  0  0  0  0  0  0  0  0  0
    2.3268   -0.8337   -2.4599 C   0  0  0  0  0  0  0  0  0  0  0  0
    2.4230   -0.1904   -1.0478 C   0  0  2  0  0  0  0  0  0  0  0  0
    3.7168    0.6397   -0.9376 C   0  0  0  0  0  0  0  0  0  0  0  0
    4.9492   -0.1264   -1.2246 N   0  0  0  0  0  0  0  0  0  0  0  0
    4.8022   -1.3654   -2.0176 C   0  0  0  0  0  0  0  0  0  0  0  0
    5.8916   -0.2452   -0.0922 C   0  0  0  0  0  0  0  0  0  0  0  0
    5.3498   -1.0207    1.1304 C   0  0  0  0  0  0  0  0  0  0  0  0
    4.5407   -0.1525    2.0638 C   0  0  0  0  0  0  0  0  0  0  0  0
    3.1377   -0.0023    2.2211 C   0  0  0  0  0  0  0  0  0  0  0  0
    2.9030    0.8114    3.2872 N   0  0  0  0  0  0  0  0  0  0  0  0
    4.0905    1.2373    3.7340 C   0  0  0  0  0  0  0  0  0  0  0  0
    4.3256    2.1069    4.7983 C   0  0  0  0  0  0  0  0  0  0  0  0
    5.6605    2.4144    5.1140 C   0  0  0  0  0  0  0  0  0  0  0  0
    6.7172    1.8463    4.3708 C   0  0  0  0  0  0  0  0  0  0  0  0
    6.4464    0.9651    3.3086 C   0  0  0  0  0  0  0  0  0  0  0  0
    5.1089    0.6826    3.0143 C   0  0  0  0  0  0  0  0  0  0  0  0
    1.9822   -0.7608    1.5483 C   0  0  1  0  0  0  0  0  0  0  0  0
    2.2198   -1.2521    0.0752 C   0  0  0  0  0  0  0  0  0  0  0  0
    1.8041   -1.9713    2.4586 C   0  0  0  0  0  0  0  0  0  0  0  0
    2.2716   -3.0998    2.1372 O   0  0  0  0  0  0  0  0  0  0  0  0
    1.1787   -1.8054    3.7006 O   0  0  0  0  0  0  0  0  0  0  0  0
    0.9740   -2.8813    4.6071 C   0  0  0  0  0  0  0  0  0  0  0  0
    0.6623    0.0615    1.5270 C   0  0  0  0  0  0  0  0  0  0  0  0
    0.6261    1.4807    1.3289 C   0  0  0  0  0  0  0  0  0  0  0  0
    1.8252    2.1940    1.1752 O   0  0  0  0  0  0  0  0  0  0  0  0
    1.9245    3.5972    0.9586 C   0  0  0  0  0  0  0  0  0  0  0  0
   -0.6169    2.1492    1.2603 C   0  0  0  0  0  0  0  0  0  0  0  0
   -1.7972    1.4091    1.3084 C   0  0  0  0  0  0  0  0  0  0  0  0
   -3.1181    1.9154    1.2123 N   0  0  0  0  0  0  0  0  0  0  0  0
   -3.5464    3.1507    1.8160 C   0  0  0  0  0  0  0  0  0  0  0  0
   -2.7155    3.9859    2.2596 O   0  0  0  0  0  0  0  0  0  0  0  0
   -4.0461    0.7883    1.0010 C   0  0  2  0  0  0  0  0  0  0  0  0
   -3.1666   -0.5214    1.2039 C   0  0  1  0  0  0  0  0  0  0  0  0
   -3.5933   -1.2641    2.4852 C   0  0  0  0  0  0  0  0  0  0  0  0
   -4.4183   -2.4197    1.9710 C   0  0  0  0  0  0  0  0  0  0  0  0
   -3.7346   -2.8535    0.7589 N   0  0  0  0  0  0  0  0  0  0  0  0
   -4.4959   -3.8039   -0.0618 C   0  0  0  0  0  0  0  0  0  0  0  0
   -5.4869   -3.1099   -0.9259 C   0  0  0  0  0  0  0  0  0  0  0  0
   -5.1627   -1.9666   -1.5224 C   0  0  0  0  0  0  0  0  0  0  0  0
   -3.8074   -1.2915   -1.3212 C   0  0  2  0  0  0  0  0  0  0  0  0
   -2.8900   -1.8567   -2.4643 C   0  0  0  0  0  0  0  0  0  0  0  0
   -1.5280   -1.1650   -2.6502 C   0  0  0  0  0  0  0  0  0  0  0  0
   -3.1899   -1.6450    0.0991 C   0  0  1  0  0  0  0  0  0  0  0  0
   -3.9749    0.2524   -1.4980 C   0  0  1  0  0  0  0  0  0  0  0  0
   -4.5918    0.5205   -2.7672 O   0  0  0  0  0  0  0  0  0  0  0  0
   -4.0840    1.3928   -3.7383 C   0  0  0  0  0  0  0  0  0  0  0  0
   -4.8187    1.5572   -5.0241 C   0  0  0  0  0  0  0  0  0  0  0  0
   -2.9982    2.0081   -3.5601 O   0  0  0  0  0  0  0  0  0  0  0  0
   -4.8088    0.9001   -0.3541 C   0  0  1  0  0  0  0  0  0  0  0  0
   -6.0400    0.2299   -0.1961 O   0  0  0  0  0  0  0  0  0  0  0  0
   -5.1087    2.3612   -0.6723 C   0  0  0  0  0  0  0  0  0  0  0  0
   -4.2255    3.0957   -1.1964 O   0  0  0  0  0  0  0  0  0  0  0  0
   -6.3469    2.9052   -0.3134 O   0  0  0  0  0  0  0  0  0  0  0  0
   -6.6808    4.2680   -0.5455 C   0  0  0  0  0  0  0  0  0  0  0  0
   -1.7769    0.0515    1.3628 C   0  0  0  0  0  0  0  0  0  0  0  0
   -0.5713   -0.6392    1.5077 C   0  0  0  0  0  0  0  0  0  0  0  0
    6.2669   -0.3962   -4.3364 H   0  0  0  0  0  0  0  0  0  0  0  0
    5.3492   -1.6072   -5.3298 H   0  0  0  0  0  0  0  0  0  0  0  0
    5.4580    0.1113   -5.8504 H   0  0  0  0  0  0  0  0  0  0  0  0
    3.2660   -0.1527   -4.9441 H   0  0  0  0  0  0  0  0  0  0  0  0
    4.2082    0.8009   -3.7662 H   0  0  0  0  0  0  0  0  0  0  0  0
    3.3133   -3.1745   -3.0541 H   0  0  0  0  0  0  0  0  0  0  0  0
    1.6426   -1.7091   -2.4248 H   0  0  0  0  0  0  0  0  0  0  0  0
    1.7983   -0.1158   -3.1264 H   0  0  0  0  0  0  0  0  0  0  0  0
    1.5732    0.5203   -0.9805 H   0  0  0  0  0  0  0  0  0  0  0  0
    3.7808    1.1836    0.0182 H   0  0  0  0  0  0  0  0  0  0  0  0
    3.6502    1.4633   -1.6780 H   0  0  0  0  0  0  0  0  0  0  0  0
    4.5975   -2.2343   -1.3657 H   0  0  0  0  0  0  0  0  0  0  0  0
    5.7738   -1.6076   -2.4943 H   0  0  0  0  0  0  0  0  0  0  0  0
    6.2165    0.7718    0.2195 H   0  0  0  0  0  0  0  0  0  0  0  0
    6.8163   -0.7525   -0.4459 H   0  0  0  0  0  0  0  0  0  0  0  0
    6.2332   -1.3754    1.7035 H   0  0  0  0  0  0  0  0  0  0  0  0
    4.8480   -1.9616    0.8725 H   0  0  0  0  0  0  0  0  0  0  0  0
    1.9768    1.0491    3.7081 H   0  0  0  0  0  0  0  0  0  0  0  0
    3.5072    2.5339    5.3635 H   0  0  0  0  0  0  0  0  0  0  0  0
    5.8786    3.0886    5.9319 H   0  0  0  0  0  0  0  0  0  0  0  0
    7.7420    2.0875    4.6216 H   0  0  0  0  0  0  0  0  0  0  0  0
    7.2561    0.5273    2.7401 H   0  0  0  0  0  0  0  0  0  0  0  0
    2.9807   -2.0327    0.0190 H   0  0  0  0  0  0  0  0  0  0  0  0
    1.3018   -1.8193   -0.1997 H   0  0  0  0  0  0  0  0  0  0  0  0
    0.3420   -3.6616    4.1327 H   0  0  0  0  0  0  0  0  0  0  0  0
    0.4573   -2.5013    5.5121 H   0  0  0  0  0  0  0  0  0  0  0  0
    1.9506   -3.3175    4.9059 H   0  0  0  0  0  0  0  0  0  0  0  0
    2.9957    3.8736    0.8784 H   0  0  0  0  0  0  0  0  0  0  0  0
    1.4149    3.8741    0.0117 H   0  0  0  0  0  0  0  0  0  0  0  0
    1.4790    4.1481    1.8135 H   0  0  0  0  0  0  0  0  0  0  0  0
   -0.6642    3.2173    1.1129 H   0  0  0  0  0  0  0  0  0  0  0  0
   -4.6022    3.3673    1.9100 H   0  0  0  0  0  0  0  0  0  0  0  0
   -4.8238    0.8528    1.7956 H   0  0  0  0  0  0  0  0  0  0  0  0
   -4.1630   -0.6512    3.2157 H   0  0  0  0  0  0  0  0  0  0  0  0
   -2.7093   -1.6811    3.0185 H   0  0  0  0  0  0  0  0  0  0  0  0
   -5.4525   -2.0745    1.7422 H   0  0  0  0  0  0  0  0  0  0  0  0
   -4.4499   -3.2429    2.7172 H   0  0  0  0  0  0  0  0  0  0  0  0
   -3.7893   -4.3671   -0.7064 H   0  0  0  0  0  0  0  0  0  0  0  0
   -5.0141   -4.5494    0.5804 H   0  0  0  0  0  0  0  0  0  0  0  0
   -6.4641   -3.5530   -1.0922 H   0  0  0  0  0  0  0  0  0  0  0  0
   -5.8828   -1.5442   -2.2172 H   0  0  0  0  0  0  0  0  0  0  0  0
   -3.4222   -1.7999   -3.4405 H   0  0  0  0  0  0  0  0  0  0  0  0
   -2.6983   -2.9356   -2.2791 H   0  0  0  0  0  0  0  0  0  0  0  0
   -1.6501   -0.1944   -3.1688 H   0  0  0  0  0  0  0  0  0  0  0  0
   -0.9981   -0.9926   -1.6927 H   0  0  0  0  0  0  0  0  0  0  0  0
   -0.8811   -1.8003   -3.2910 H   0  0  0  0  0  0  0  0  0  0  0  0
   -2.1413   -1.9315   -0.0939 H   0  0  0  0  0  0  0  0  0  0  0  0
   -2.9659    0.7184   -1.4599 H   0  0  0  0  0  0  0  0  0  0  0  0
   -4.7372    2.6063   -5.3787 H   0  0  0  0  0  0  0  0  0  0  0  0
   -5.8914    1.3095   -4.8812 H   0  0  0  0  0  0  0  0  0  0  0  0
   -4.3858    0.8765   -5.7861 H   0  0  0  0  0  0  0  0  0  0  0  0
   -6.5838    0.3774   -1.0149 H   0  0  0  0  0  0  0  0  0  0  0  0
   -7.7102    4.4585   -0.1791 H   0  0  0  0  0  0  0  0  0  0  0  0
   -6.6383    4.4895   -1.6330 H   0  0  0  0  0  0  0  0  0  0  0  0
   -5.9758    4.9301    0.0006 H   0  0  0  0  0  0  0  0  0  0  0  0
   -0.5954   -1.7193    1.5642 H   0  0  0  0  0  0  0  0  0  0  0  0
  1  2  1  0
  2  3  1  0
  3  4  1  6
  3  5  1  0
  5  6  1  0
  6  7  1  0
  7  8  1  0
  8  9  1  0
  8 10  1  0
 10 11  1  0
 11 12  1  0
 12 13  2  0
 13 14  1  0
 14 15  1  0
 15 16  2  0
 16 17  1  0
 17 18  2  0
 18 19  1  0
 19 20  2  0
 13 21  1  0
 21 22  1  0
 21 23  1  1
 23 24  2  0
 23 25  1  0
 25 26  1  0
 21 27  1  0
 27 28  2  0
 28 29  1  0
 29 30  1  0
 28 31  1  0
 31 32  2  0
 32 33  1  0
 33 34  1  0
 34 35  2  0
 33 36  1  0
 36 37  1  0
 37 38  1  1
 38 39  1  0
 39 40  1  0
 40 41  1  0
 41 42  1  0
 42 43  2  0
 43 44  1  0
 44 45  1  6
 45 46  1  0
 44 47  1  0
 44 48  1  0
 48 49  1  0
 49 50  1  0
 50 51  1  0
 50 52  2  0
 48 53  1  0
 53 54  1  1
 53 55  1  0
 55 56  2  0
 55 57  1  0
 57 58  1  0
 37 59  1  0
 59 60  2  0
  9  3  1  0
 20 12  1  0
 60 27  1  0
 22  6  1  0
 59 32  1  0
 20 15  1  0
 53 36  1  0
 47 37  1  0
 47 40  1  0
  1 61  1  0
  1 62  1  0
  1 63  1  0
  2 64  1  0
  2 65  1  0
  4 66  1  0
  5 67  1  0
  5 68  1  0
  6 69  1  6
  7 70  1  0
  7 71  1  0
  9 72  1  0
  9 73  1  0
 10 74  1  0
 10 75  1  0
 11 76  1  0
 11 77  1  0
 14 78  1  0
 16 79  1  0
 17 80  1  0
 18 81  1  0
 19 82  1  0
 22 83  1  0
 22 84  1  0
 26 85  1  0
 26 86  1  0
 26 87  1  0
 30 88  1  0
 30 89  1  0
 30 90  1  0
 31 91  1  0
 34 92  1  0
 36 93  1  1
 38 94  1  0
 38 95  1  0
 39 96  1  0
 39 97  1  0
 41 98  1  0
 41 99  1  0
 42100  1  0
 43101  1  0
 45102  1  0
 45103  1  0
 46104  1  0
 46105  1  0
 46106  1  0
 47107  1  6
 48108  1  6
 51109  1  0
 51110  1  0
 51111  1  0
 54112  1  0
 58113  1  0
 58114  1  0
 58115  1  0
 60116  1  0
M  END
$$$$
