
     RDKit          3D

 63 67  0  0  0  0  0  0  0  0999 V2000
    0.9115    3.4738    0.4270 C   0  0  0  0  0  0  0  0  0  0  0  0
   -0.2496    2.7576    0.8323 O   0  0  0  0  0  0  0  0  0  0  0  0
   -0.3425    1.3767    1.0966 C   0  0  0  0  0  0  0  0  0  0  0  0
   -1.6030    0.8975    1.5000 C   0  0  0  0  0  0  0  0  0  0  0  0
   -2.6549    1.8251    1.6085 O   0  0  0  0  0  0  0  0  0  0  0  0
   -4.0211    1.5105    1.8802 C   0  0  0  0  0  0  0  0  0  0  0  0
   -4.6940    0.9127    0.6401 C   0  0  0  0  0  0  0  0  0  0  0  0
   -6.1775    0.5928    0.9202 C   0  0  0  0  0  0  0  0  0  0  0  0
   -6.8654   -0.1318   -0.1718 N   0  0  0  0  0  0  0  0  0  0  0  0
   -6.7356    0.5021   -1.4938 C   0  0  0  0  0  0  0  0  0  0  0  0
   -7.6743   -0.2010   -2.4981 C   0  0  0  0  0  0  0  0  0  0  0  0
   -8.1756   -1.4354   -2.0093 O   0  0  0  0  0  0  0  0  0  0  0  0
   -7.1176   -2.2184   -1.4925 C   0  0  0  0  0  0  0  0  0  0  0  0
   -6.5314   -1.5690   -0.2239 C   0  0  0  0  0  0  0  0  0  0  0  0
   -1.7784   -0.4700    1.7869 C   0  0  0  0  0  0  0  0  0  0  0  0
   -0.7147   -1.3604    1.6679 C   0  0  0  0  0  0  0  0  0  0  0  0
    0.5404   -0.8969    1.2690 C   0  0  0  0  0  0  0  0  0  0  0  0
    0.7441    0.4695    0.9769 C   0  0  0  0  0  0  0  0  0  0  0  0
    2.0499    0.9121    0.5436 N   0  0  0  0  0  0  0  0  0  0  0  0
    3.0900    0.1296    0.4581 C   0  0  0  0  0  0  0  0  0  0  0  0
    4.3355    0.6641   -0.0050 N   0  0  0  0  0  0  0  0  0  0  0  0
    5.5889    0.3502    0.6182 C   0  0  0  0  0  0  0  0  0  0  0  0
    5.6037   -0.0637    1.8100 O   0  0  0  0  0  0  0  0  0  0  0  0
    6.8680    0.5489   -0.1037 C   0  0  0  0  0  0  0  0  0  0  0  0
    6.9083    0.7072   -1.4975 C   0  0  0  0  0  0  0  0  0  0  0  0
    8.0973    0.8777   -2.1310 N   0  0  0  0  0  0  0  0  0  0  0  0
    9.2651    0.8971   -1.4378 C   0  0  0  0  0  0  0  0  0  0  0  0
   10.5005    1.0798   -2.1254 N   0  0  0  0  0  0  0  0  0  0  0  0
    9.2544    0.7375   -0.0891 N   0  0  0  0  0  0  0  0  0  0  0  0
    8.0896    0.5617    0.5863 C   0  0  0  0  0  0  0  0  0  0  0  0
    2.9506   -1.2611    0.7883 N   0  0  0  0  0  0  0  0  0  0  0  0
    3.8231   -2.3723    0.4549 C   0  0  0  0  0  0  0  0  0  0  0  0
    2.9545   -3.6080    0.7621 C   0  0  0  0  0  0  0  0  0  0  0  0
    1.6351   -3.0786    1.0997 N   0  0  0  0  0  0  0  0  0  0  0  0
    1.6911   -1.7927    1.1132 C   0  0  0  0  0  0  0  0  0  0  0  0
    1.7056    3.3891    1.1984 H   0  0  0  0  0  0  0  0  0  0  0  0
    1.2678    3.1047   -0.5575 H   0  0  0  0  0  0  0  0  0  0  0  0
    0.6500    4.5462    0.3181 H   0  0  0  0  0  0  0  0  0  0  0  0
   -4.0986    0.8303    2.7550 H   0  0  0  0  0  0  0  0  0  0  0  0
   -4.5430    2.4535    2.1494 H   0  0  0  0  0  0  0  0  0  0  0  0
   -4.6174    1.6547   -0.1832 H   0  0  0  0  0  0  0  0  0  0  0  0
   -4.1498   -0.0011    0.3330 H   0  0  0  0  0  0  0  0  0  0  0  0
   -6.7181    1.5464    1.1057 H   0  0  0  0  0  0  0  0  0  0  0  0
   -6.2581    0.0007    1.8591 H   0  0  0  0  0  0  0  0  0  0  0  0
   -5.6897    0.4139   -1.8643 H   0  0  0  0  0  0  0  0  0  0  0  0
   -6.9981    1.5813   -1.4314 H   0  0  0  0  0  0  0  0  0  0  0  0
   -7.1539   -0.3589   -3.4689 H   0  0  0  0  0  0  0  0  0  0  0  0
   -8.5422    0.4618   -2.7008 H   0  0  0  0  0  0  0  0  0  0  0  0
   -6.3222   -2.3610   -2.2604 H   0  0  0  0  0  0  0  0  0  0  0  0
   -7.5083   -3.2277   -1.2431 H   0  0  0  0  0  0  0  0  0  0  0  0
   -5.4340   -1.7360   -0.2113 H   0  0  0  0  0  0  0  0  0  0  0  0
   -6.9650   -2.0685    0.6698 H   0  0  0  0  0  0  0  0  0  0  0  0
   -2.7342   -0.8602    2.1050 H   0  0  0  0  0  0  0  0  0  0  0  0
   -0.8711   -2.4087    1.8905 H   0  0  0  0  0  0  0  0  0  0  0  0
    4.3038    1.4481   -0.6947 H   0  0  0  0  0  0  0  0  0  0  0  0
    6.0034    0.6789   -2.0890 H   0  0  0  0  0  0  0  0  0  0  0  0
   11.4018    1.0940   -1.5983 H   0  0  0  0  0  0  0  0  0  0  0  0
   10.5155    1.2014   -3.1623 H   0  0  0  0  0  0  0  0  0  0  0  0
    8.1202    0.4397    1.6613 H   0  0  0  0  0  0  0  0  0  0  0  0
    4.0931   -2.3362   -0.6228 H   0  0  0  0  0  0  0  0  0  0  0  0
    4.7330   -2.3654    1.0894 H   0  0  0  0  0  0  0  0  0  0  0  0
    2.8806   -4.2751   -0.1230 H   0  0  0  0  0  0  0  0  0  0  0  0
    3.3632   -4.1706    1.6289 H   0  0  0  0  0  0  0  0  0  0  0  0
  1  2  1  0
  2  3  1  0
  3  4  2  0
  4  5  1  0
  5  6  1  0
  6  7  1  0
  7  8  1  0
  8  9  1  0
  9 10  1  0
 10 11  1  0
 11 12  1  0
 12 13  1  0
 13 14  1  0
  4 15  1  0
 15 16  2  0
 16 17  1  0
 17 18  2  0
 18 19  1  0
 19 20  2  0
 20 21  1  0
 21 22  1  0
 22 23  2  0
 22 24  1  0
 24 25  2  0
 25 26  1  0
 26 27  2  0
 27 28  1  0
 27 29  1  0
 29 30  2  0
 20 31  1  0
 31 32  1  0
 32 33  1  0
 33 34  1  0
 34 35  2  0
 18  3  1  0
 30 24  1  0
 35 31  1  0
 14  9  1  0
 35 17  1  0
  1 36  1  0
  1 37  1  0
  1 38  1  0
  6 39  1  0
  6 40  1  0
  7 41  1  0
  7 42  1  0
  8 43  1  0
  8 44  1  0
 10 45  1  0
 10 46  1  0
 11 47  1  0
 11 48  1  0
 13 49  1  0
 13 50  1  0
 14 51  1  0
 14 52  1  0
 15 53  1  0
 16 54  1  0
 21 55  1  0
 25 56  1  0
 28 57  1  0
 28 58  1  0
 30 59  1  0
 32 60  1  0
 32 61  1  0
 33 62  1  0
 33 63  1  0
M  END
$$$$
