
     RDKit          3D

 41 41  0  0  0  0  0  0  0  0999 V2000
   -3.4248    0.0337    0.4121 C   0  0  2  0  0  0  0  0  0  0  0  0
   -3.3825   -1.3712    0.4259 O   0  0  0  0  0  0  0  0  0  0  0  0
   -3.5621    0.5392   -1.0318 C   0  0  0  0  0  0  0  0  0  0  0  0
   -2.2670    0.2913   -1.8212 C   0  0  1  0  0  0  0  0  0  0  0  0
   -2.3378    0.9293   -3.0695 O   0  0  0  0  0  0  0  0  0  0  0  0
   -1.0629    0.8376   -1.0337 C   0  0  2  0  0  0  0  0  0  0  0  0
    0.1155    0.5138   -1.7451 O   0  0  0  0  0  0  0  0  0  0  0  0
    1.1976    1.2986   -1.2835 C   0  0  0  0  0  0  0  0  0  0  0  0
    2.5178    0.7179   -1.7991 C   0  0  0  0  0  0  0  0  0  0  0  0
    2.7269   -0.7665   -1.4392 C   0  0  0  0  0  0  0  0  0  0  0  0
    2.6836   -1.0839    0.0666 C   0  0  0  0  0  0  0  0  0  0  0  0
    3.7809   -0.3620    0.8611 C   0  0  0  0  0  0  0  0  0  0  0  0
    3.7932   -0.8173    2.3175 C   0  0  0  0  0  0  0  0  0  0  0  0
   -1.0073    0.2314    0.2497 O   0  0  0  0  0  0  0  0  0  0  0  0
   -2.1293    0.6084    1.0296 C   0  0  2  0  0  0  0  0  0  0  0  0
   -1.9151    0.1106    2.4674 C   0  0  0  0  0  0  0  0  0  0  0  0
   -2.9809    0.4909    3.2960 O   0  0  0  0  0  0  0  0  0  0  0  0
   -4.3003    0.3933    1.0018 H   0  0  0  0  0  0  0  0  0  0  0  0
   -4.3138   -1.6872    0.2900 H   0  0  0  0  0  0  0  0  0  0  0  0
   -3.7837    1.6296   -1.0165 H   0  0  0  0  0  0  0  0  0  0  0  0
   -4.4132    0.0288   -1.5329 H   0  0  0  0  0  0  0  0  0  0  0  0
   -2.1278   -0.8064   -1.9651 H   0  0  0  0  0  0  0  0  0  0  0  0
   -2.9480    0.3856   -3.6334 H   0  0  0  0  0  0  0  0  0  0  0  0
   -1.1746    1.9489   -0.9503 H   0  0  0  0  0  0  0  0  0  0  0  0
    1.2386    1.3548   -0.1717 H   0  0  0  0  0  0  0  0  0  0  0  0
    1.0978    2.3352   -1.6754 H   0  0  0  0  0  0  0  0  0  0  0  0
    2.5341    0.8114   -2.9068 H   0  0  0  0  0  0  0  0  0  0  0  0
    3.3635    1.3259   -1.4138 H   0  0  0  0  0  0  0  0  0  0  0  0
    3.7080   -1.0933   -1.8476 H   0  0  0  0  0  0  0  0  0  0  0  0
    1.9491   -1.3751   -1.9496 H   0  0  0  0  0  0  0  0  0  0  0  0
    1.6844   -0.8361    0.4836 H   0  0  0  0  0  0  0  0  0  0  0  0
    2.8198   -2.1815    0.1831 H   0  0  0  0  0  0  0  0  0  0  0  0
    4.7744   -0.5729    0.4090 H   0  0  0  0  0  0  0  0  0  0  0  0
    3.6067    0.7346    0.8407 H   0  0  0  0  0  0  0  0  0  0  0  0
    2.8141   -0.6024    2.7966 H   0  0  0  0  0  0  0  0  0  0  0  0
    4.0016   -1.9066    2.3803 H   0  0  0  0  0  0  0  0  0  0  0  0
    4.5868   -0.2722    2.8708 H   0  0  0  0  0  0  0  0  0  0  0  0
   -2.2081    1.7203    1.0824 H   0  0  0  0  0  0  0  0  0  0  0  0
   -0.9584    0.5196    2.8656 H   0  0  0  0  0  0  0  0  0  0  0  0
   -1.8286   -0.9967    2.4792 H   0  0  0  0  0  0  0  0  0  0  0  0
   -2.8684    1.4606    3.4769 H   0  0  0  0  0  0  0  0  0  0  0  0
  1  2  1  0
  1  3  1  0
  3  4  1  0
  4  5  1  0
  4  6  1  0
  6  7  1  0
  7  8  1  0
  8  9  1  0
  9 10  1  0
 10 11  1  0
 11 12  1  0
 12 13  1  0
  6 14  1  0
 14 15  1  0
 15 16  1  0
 16 17  1  0
 15  1  1  0
  1 18  1  1
  2 19  1  0
  3 20  1  0
  3 21  1  0
  4 22  1  6
  5 23  1  0
  6 24  1  1
  8 25  1  0
  8 26  1  0
  9 27  1  0
  9 28  1  0
 10 29  1  0
 10 30  1  0
 11 31  1  0
 11 32  1  0
 12 33  1  0
 12 34  1  0
 13 35  1  0
 13 36  1  0
 13 37  1  0
 15 38  1  1
 16 39  1  0
 16 40  1  0
 17 41  1  0
M  END
$$$$
