
     RDKit          3D

 32 31  0  0  0  0  0  0  0  0999 V2000
   -4.3959    0.4281    0.1958 N   0  0  0  0  0  0  0  0  0  0  0  0
   -3.3285   -0.3865   -0.3949 C   0  0  1  0  0  0  0  0  0  0  0  0
   -1.9907    0.3800   -0.4264 C   0  0  0  0  0  0  0  0  0  0  0  0
   -1.4446    0.7514    0.9658 C   0  0  0  0  0  0  0  0  0  0  0  0
   -0.0854    1.4486    0.8728 C   0  0  0  0  0  0  0  0  0  0  0  0
    0.9226    0.5167    0.3739 N   0  0  0  0  0  0  0  0  0  0  0  0
    2.1834    0.7857    0.1786 C   0  0  0  0  0  0  0  0  0  0  0  0
    2.7044    2.0975    0.4613 N   0  0  0  0  0  0  0  0  0  0  0  0
    3.0508   -0.2554   -0.3287 N   0  0  0  0  0  0  0  0  0  0  0  0
    4.4793   -0.0036   -0.5459 C   0  0  0  0  0  0  0  0  0  0  0  0
    2.4904   -1.5790   -0.6287 C   0  0  0  0  0  0  0  0  0  0  0  0
   -3.1928   -1.7282    0.2830 C   0  0  0  0  0  0  0  0  0  0  0  0
   -2.7312   -2.8189   -0.4473 O   0  0  0  0  0  0  0  0  0  0  0  0
   -3.4505   -1.8626    1.5099 O   0  0  0  0  0  0  0  0  0  0  0  0
   -5.3074   -0.0640    0.0481 H   0  0  0  0  0  0  0  0  0  0  0  0
   -4.2591    0.5115    1.2289 H   0  0  0  0  0  0  0  0  0  0  0  0
   -3.6061   -0.5836   -1.4545 H   0  0  0  0  0  0  0  0  0  0  0  0
   -2.1304    1.3107   -1.0191 H   0  0  0  0  0  0  0  0  0  0  0  0
   -1.2426   -0.2437   -0.9638 H   0  0  0  0  0  0  0  0  0  0  0  0
   -1.3384   -0.1575    1.5960 H   0  0  0  0  0  0  0  0  0  0  0  0
   -2.1509    1.4442    1.4702 H   0  0  0  0  0  0  0  0  0  0  0  0
   -0.1607    2.3275    0.1955 H   0  0  0  0  0  0  0  0  0  0  0  0
    0.2049    1.7974    1.8878 H   0  0  0  0  0  0  0  0  0  0  0  0
    2.1019    2.8635    0.8331 H   0  0  0  0  0  0  0  0  0  0  0  0
    3.7071    2.3359    0.3056 H   0  0  0  0  0  0  0  0  0  0  0  0
    4.6088    0.8058   -1.2950 H   0  0  0  0  0  0  0  0  0  0  0  0
    5.0046   -0.9046   -0.9260 H   0  0  0  0  0  0  0  0  0  0  0  0
    4.9593    0.2896    0.4115 H   0  0  0  0  0  0  0  0  0  0  0  0
    1.6945   -1.4834   -1.3974 H   0  0  0  0  0  0  0  0  0  0  0  0
    3.2608   -2.2783   -1.0158 H   0  0  0  0  0  0  0  0  0  0  0  0
    2.0564   -2.0198    0.2937 H   0  0  0  0  0  0  0  0  0  0  0  0
   -2.6140   -3.7251   -0.0100 H   0  0  0  0  0  0  0  0  0  0  0  0
  1  2  1  0
  2  3  1  0
  3  4  1  0
  4  5  1  0
  5  6  1  0
  6  7  2  0
  7  8  1  0
  7  9  1  0
  9 10  1  0
  9 11  1  0
  2 12  1  0
 12 13  1  0
 12 14  2  0
  1 15  1  0
  1 16  1  0
  2 17  1  6
  3 18  1  0
  3 19  1  0
  4 20  1  0
  4 21  1  0
  5 22  1  0
  5 23  1  0
  8 24  1  0
  8 25  1  0
 10 26  1  0
 10 27  1  0
 10 28  1  0
 11 29  1  0
 11 30  1  0
 11 31  1  0
 13 32  1  0
M  END
$$$$
