
     RDKit          3D

 40 43  0  0  0  0  0  0  0  0999 V2000
   -1.3429   -3.4576   -0.3516 C   0  0  0  0  0  0  0  0  0  0  0  0
   -0.1095   -2.5492   -0.3182 C   0  0  0  0  0  0  0  0  0  0  0  0
    0.5640   -2.5737    1.0364 C   0  0  0  0  0  0  0  0  0  0  0  0
    1.0600   -1.2805    1.2879 O   0  0  0  0  0  0  0  0  0  0  0  0
    0.3763   -0.3761    0.4318 C   0  0  0  0  0  0  0  0  0  0  0  0
   -0.4878   -1.1618   -0.4644 N   0  0  0  0  0  0  0  0  0  0  0  0
   -0.6552   -0.6690   -1.8288 C   0  0  0  0  0  0  0  0  0  0  0  0
   -1.4655    0.5983   -1.8524 C   0  0  0  0  0  0  0  0  0  0  0  0
   -1.8081    1.0904   -3.1085 O   0  0  0  0  0  0  0  0  0  0  0  0
   -1.8936    1.2458   -0.7979 N   0  0  0  0  0  0  0  0  0  0  0  0
   -1.7100    1.1059    0.6323 C   0  0  0  0  0  0  0  0  0  0  0  0
   -0.5978    0.4538    1.2495 C   0  0  0  0  0  0  0  0  0  0  0  0
   -0.4185    0.5852    2.6441 C   0  0  0  0  0  0  0  0  0  0  0  0
   -1.3358    1.2946    3.4202 C   0  0  0  0  0  0  0  0  0  0  0  0
   -1.1015    1.4284    5.1538 Cl  0  0  0  0  0  0  0  0  0  0  0  0
   -2.4360    1.8996    2.8186 C   0  0  0  0  0  0  0  0  0  0  0  0
   -2.6105    1.8170    1.4383 C   0  0  0  0  0  0  0  0  0  0  0  0
    1.4465    0.5116   -0.2808 C   0  0  0  0  0  0  0  0  0  0  0  0
    1.2825    1.9207   -0.3722 C   0  0  0  0  0  0  0  0  0  0  0  0
    2.2110    2.7248   -1.0332 C   0  0  0  0  0  0  0  0  0  0  0  0
    3.3373    2.1599   -1.6157 C   0  0  0  0  0  0  0  0  0  0  0  0
    3.5458    0.7882   -1.5295 C   0  0  0  0  0  0  0  0  0  0  0  0
    2.6269   -0.0387   -0.8696 C   0  0  0  0  0  0  0  0  0  0  0  0
    3.0560   -1.7420   -0.8160 Cl  0  0  0  0  0  0  0  0  0  0  0  0
   -2.1068   -3.1098    0.3771 H   0  0  0  0  0  0  0  0  0  0  0  0
   -1.0519   -4.5002   -0.1023 H   0  0  0  0  0  0  0  0  0  0  0  0
   -1.7934   -3.4576   -1.3657 H   0  0  0  0  0  0  0  0  0  0  0  0
    0.5992   -2.8585   -1.1171 H   0  0  0  0  0  0  0  0  0  0  0  0
    1.3960   -3.3091    1.0485 H   0  0  0  0  0  0  0  0  0  0  0  0
   -0.1501   -2.8371    1.8480 H   0  0  0  0  0  0  0  0  0  0  0  0
   -1.2129   -1.4192   -2.4284 H   0  0  0  0  0  0  0  0  0  0  0  0
    0.3184   -0.5204   -2.3401 H   0  0  0  0  0  0  0  0  0  0  0  0
   -2.3605    1.9340   -3.2091 H   0  0  0  0  0  0  0  0  0  0  0  0
    0.4314    0.1344    3.1400 H   0  0  0  0  0  0  0  0  0  0  0  0
   -3.1461    2.4563    3.4170 H   0  0  0  0  0  0  0  0  0  0  0  0
   -3.4472    2.3336    0.9841 H   0  0  0  0  0  0  0  0  0  0  0  0
    0.4433    2.4326    0.0689 H   0  0  0  0  0  0  0  0  0  0  0  0
    2.0554    3.7947   -1.0902 H   0  0  0  0  0  0  0  0  0  0  0  0
    4.0560    2.7871   -2.1272 H   0  0  0  0  0  0  0  0  0  0  0  0
    4.4359    0.3638   -1.9774 H   0  0  0  0  0  0  0  0  0  0  0  0
  1  2  1  0
  2  3  1  0
  3  4  1  0
  4  5  1  0
  5  6  1  0
  6  7  1  0
  7  8  1  0
  8  9  1  0
  8 10  2  0
 10 11  1  0
 11 12  2  0
 12 13  1  0
 13 14  2  0
 14 15  1  0
 14 16  1  0
 16 17  2  0
  5 18  1  0
 18 19  2  0
 19 20  1  0
 20 21  2  0
 21 22  1  0
 22 23  2  0
 23 24  1  0
  6  2  1  0
 17 11  1  0
 23 18  1  0
 12  5  1  0
  1 25  1  0
  1 26  1  0
  1 27  1  0
  2 28  1  0
  3 29  1  0
  3 30  1  0
  7 31  1  0
  7 32  1  0
  9 33  1  0
 13 34  1  0
 16 35  1  0
 17 36  1  0
 19 37  1  0
 20 38  1  0
 21 39  1  0
 22 40  1  0
M  END
$$$$
