
     RDKit          3D

134136  0  0  0  0  0  0  0  0999 V2000
    0.7042   -6.1380    1.0043 C   0  0  0  0  0  0  0  0  0  0  0  0
    1.5682   -5.1135    0.2611 C   0  0  0  0  0  0  0  0  0  0  0  0
    1.3235   -3.6521    0.7085 C   0  0  1  0  0  0  0  0  0  0  0  0
   -0.0958   -3.4141    0.6764 O   0  0  0  0  0  0  0  0  0  0  0  0
   -0.7015   -2.2934    0.0860 C   0  0  0  0  0  0  0  0  0  0  0  0
   -0.4136   -1.1391    0.4878 O   0  0  0  0  0  0  0  0  0  0  0  0
   -1.7770   -2.4888   -0.9533 C   0  0  2  0  0  0  0  0  0  0  0  0
   -1.3901   -3.5756   -1.9660 C   0  0  0  0  0  0  0  0  0  0  0  0
   -2.3664   -1.1850   -1.6016 C   0  0  1  0  0  0  0  0  0  0  0  0
   -2.7797   -0.2904   -0.5728 O   0  0  0  0  0  0  0  0  0  0  0  0
   -4.1709   -0.3752   -0.3134 C   0  0  1  0  0  0  0  0  0  0  0  0
   -4.4599    0.3581    1.0015 C   0  0  0  0  0  0  0  0  0  0  0  0
   -5.9585    0.3543    1.3813 C   0  0  1  0  0  0  0  0  0  0  0  0
   -6.3351   -1.0433    1.9539 C   0  0  0  0  0  0  0  0  0  0  0  0
   -6.0918    1.3581    2.3927 O   0  0  0  0  0  0  0  0  0  0  0  0
   -7.3726    1.4099    2.9955 C   0  0  0  0  0  0  0  0  0  0  0  0
   -6.8046    0.7317    0.1158 C   0  0  1  0  0  0  0  0  0  0  0  0
   -6.8263    2.1337   -0.0069 O   0  0  0  0  0  0  0  0  0  0  0  0
   -6.2793    0.1309   -1.2223 C   0  0  2  0  0  0  0  0  0  0  0  0
   -6.8017   -1.2805   -1.5408 C   0  0  0  0  0  0  0  0  0  0  0  0
   -4.8738    0.2426   -1.3749 O   0  0  0  0  0  0  0  0  0  0  0  0
   -1.5886   -0.3737   -2.7153 C   0  0  2  0  0  0  0  0  0  0  0  0
   -1.4671   -1.1182   -4.0602 C   0  0  0  0  0  0  0  0  0  0  0  0
   -0.3592    0.5641   -2.3595 C   0  0  1  0  0  0  0  0  0  0  0  0
   -0.5487    1.1020   -1.0531 O   0  0  0  0  0  0  0  0  0  0  0  0
   -0.4690    2.5238   -1.0176 C   0  0  2  0  0  0  0  0  0  0  0  0
    0.1906    2.9407    0.1767 O   0  0  0  0  0  0  0  0  0  0  0  0
   -0.6407    3.0662    1.3247 C   0  0  2  0  0  0  0  0  0  0  0  0
   -1.0238    1.6990    1.8992 C   0  0  0  0  0  0  0  0  0  0  0  0
   -1.8624    4.0051    1.1228 C   0  0  0  0  0  0  0  0  0  0  0  0
   -2.0269    4.4080   -0.3546 C   0  0  1  0  0  0  0  0  0  0  0  0
   -1.8773    3.1463   -1.2183 C   0  0  1  0  0  0  0  0  0  0  0  0
   -2.1202    3.4230   -2.5762 O   0  0  0  0  0  0  0  0  0  0  0  0
   -3.2825    5.1495   -0.6617 N   0  0  0  0  0  0  0  0  0  0  0  0
   -3.2554    6.5209   -0.1272 C   0  0  0  0  0  0  0  0  0  0  0  0
   -4.5301    4.4717   -0.2639 C   0  0  0  0  0  0  0  0  0  0  0  0
    1.1161   -0.0144   -2.5461 C   0  0  2  0  0  0  0  0  0  0  0  0
    1.6272    0.3118   -3.9679 C   0  0  0  0  0  0  0  0  0  0  0  0
    1.0912   -1.4085   -2.4513 O   0  0  0  0  0  0  0  0  0  0  0  0
    2.1492    0.5933   -1.5064 C   0  0  0  0  0  0  0  0  0  0  0  0
    3.4838   -0.2157   -1.3228 C   0  0  1  0  0  0  0  0  0  0  0  0
    4.6102    0.4417   -2.1520 C   0  0  0  0  0  0  0  0  0  0  0  0
    3.9121   -0.3853    0.1483 C   0  0  0  0  0  0  0  0  0  0  0  0
    5.1724   -0.2226    0.4407 N   0  0  0  0  0  0  0  0  0  0  0  0
    5.6963   -0.3970    1.7013 O   0  0  0  0  0  0  0  0  0  0  0  0
    7.0827   -0.2157    1.9323 C   0  0  0  0  0  0  0  0  0  0  0  0
    7.8046   -1.1779    1.1924 O   0  0  0  0  0  0  0  0  0  0  0  0
    9.1915   -0.9012    1.2386 C   0  0  0  0  0  0  0  0  0  0  0  0
    9.6160   -0.1251   -0.0107 C   0  0  0  0  0  0  0  0  0  0  0  0
   11.0227    0.0296   -0.0370 O   0  0  0  0  0  0  0  0  0  0  0  0
   11.3886    1.2895    0.4817 C   0  0  0  0  0  0  0  0  0  0  0  0
    2.9178   -0.8503    1.2235 C   0  0  2  0  0  0  0  0  0  0  0  0
    2.7466    0.2591    2.2817 C   0  0  0  0  0  0  0  0  0  0  0  0
    3.2570   -2.2687    1.8075 C   0  0  1  0  0  0  0  0  0  0  0  0
    4.1049   -2.1887    2.9296 O   0  0  0  0  0  0  0  0  0  0  0  0
    2.0227   -3.2359    2.0794 C   0  0  1  0  0  0  0  0  0  0  0  0
    0.9982   -2.6008    3.0447 C   0  0  0  0  0  0  0  0  0  0  0  0
    2.4945   -4.3838    2.7545 O   0  0  0  0  0  0  0  0  0  0  0  0
    0.8494   -6.0811    2.1010 H   0  0  0  0  0  0  0  0  0  0  0  0
   -0.3705   -5.9762    0.7764 H   0  0  0  0  0  0  0  0  0  0  0  0
    0.9776   -7.1604    0.6687 H   0  0  0  0  0  0  0  0  0  0  0  0
    1.3169   -5.1934   -0.8198 H   0  0  0  0  0  0  0  0  0  0  0  0
    2.6418   -5.3815    0.3452 H   0  0  0  0  0  0  0  0  0  0  0  0
    1.7922   -3.0659   -0.1019 H   0  0  0  0  0  0  0  0  0  0  0  0
   -2.6225   -2.9309   -0.3816 H   0  0  0  0  0  0  0  0  0  0  0  0
   -0.4060   -3.3778   -2.4272 H   0  0  0  0  0  0  0  0  0  0  0  0
   -2.1619   -3.6672   -2.7584 H   0  0  0  0  0  0  0  0  0  0  0  0
   -1.3220   -4.5596   -1.4541 H   0  0  0  0  0  0  0  0  0  0  0  0
   -3.2579   -1.5687   -2.1602 H   0  0  0  0  0  0  0  0  0  0  0  0
   -4.4534   -1.4432   -0.2014 H   0  0  0  0  0  0  0  0  0  0  0  0
   -4.1225    1.4117    0.8887 H   0  0  0  0  0  0  0  0  0  0  0  0
   -3.8568   -0.0936    1.8203 H   0  0  0  0  0  0  0  0  0  0  0  0
   -7.4365   -1.1606    2.0338 H   0  0  0  0  0  0  0  0  0  0  0  0
   -5.9535   -1.8821    1.3470 H   0  0  0  0  0  0  0  0  0  0  0  0
   -5.8978   -1.1628    2.9683 H   0  0  0  0  0  0  0  0  0  0  0  0
   -7.4891    0.5958    3.7413 H   0  0  0  0  0  0  0  0  0  0  0  0
   -7.4582    2.3686    3.5465 H   0  0  0  0  0  0  0  0  0  0  0  0
   -8.2033    1.3850    2.2614 H   0  0  0  0  0  0  0  0  0  0  0  0
   -7.8500    0.3712    0.2635 H   0  0  0  0  0  0  0  0  0  0  0  0
   -7.6478    2.3736   -0.5107 H   0  0  0  0  0  0  0  0  0  0  0  0
   -6.7142    0.7583   -2.0317 H   0  0  0  0  0  0  0  0  0  0  0  0
   -6.3758   -1.6248   -2.5071 H   0  0  0  0  0  0  0  0  0  0  0  0
   -7.9080   -1.2588   -1.6381 H   0  0  0  0  0  0  0  0  0  0  0  0
   -6.5447   -2.0220   -0.7656 H   0  0  0  0  0  0  0  0  0  0  0  0
   -2.3700    0.3842   -2.9655 H   0  0  0  0  0  0  0  0  0  0  0  0
   -1.3322   -0.3877   -4.8852 H   0  0  0  0  0  0  0  0  0  0  0  0
   -2.4001   -1.6757   -4.2874 H   0  0  0  0  0  0  0  0  0  0  0  0
   -0.6271   -1.8336   -4.0845 H   0  0  0  0  0  0  0  0  0  0  0  0
   -0.4525    1.3699   -3.1296 H   0  0  0  0  0  0  0  0  0  0  0  0
    0.1944    2.9156   -1.8233 H   0  0  0  0  0  0  0  0  0  0  0  0
   -0.0074    3.5410    2.1061 H   0  0  0  0  0  0  0  0  0  0  0  0
   -0.1166    1.0750    2.0288 H   0  0  0  0  0  0  0  0  0  0  0  0
   -1.5092    1.8233    2.8906 H   0  0  0  0  0  0  0  0  0  0  0  0
   -1.7271    1.1767    1.2287 H   0  0  0  0  0  0  0  0  0  0  0  0
   -2.7769    3.5020    1.4971 H   0  0  0  0  0  0  0  0  0  0  0  0
   -1.7229    4.9222    1.7348 H   0  0  0  0  0  0  0  0  0  0  0  0
   -1.1657    5.0679   -0.6136 H   0  0  0  0  0  0  0  0  0  0  0  0
   -2.6263    2.3965   -0.8912 H   0  0  0  0  0  0  0  0  0  0  0  0
   -1.4939    4.1414   -2.8550 H   0  0  0  0  0  0  0  0  0  0  0  0
   -4.1292    7.0931   -0.5065 H   0  0  0  0  0  0  0  0  0  0  0  0
   -2.3439    7.0555   -0.4704 H   0  0  0  0  0  0  0  0  0  0  0  0
   -3.2846    6.5227    0.9838 H   0  0  0  0  0  0  0  0  0  0  0  0
   -4.6715    4.4773    0.8380 H   0  0  0  0  0  0  0  0  0  0  0  0
   -5.3971    4.9950   -0.7206 H   0  0  0  0  0  0  0  0  0  0  0  0
   -4.5608    3.4321   -0.6418 H   0  0  0  0  0  0  0  0  0  0  0  0
    0.8851    0.0460   -4.7425 H   0  0  0  0  0  0  0  0  0  0  0  0
    2.5359   -0.2792   -4.2007 H   0  0  0  0  0  0  0  0  0  0  0  0
    1.8540    1.3943   -4.0746 H   0  0  0  0  0  0  0  0  0  0  0  0
    1.0669   -1.6252   -1.4971 H   0  0  0  0  0  0  0  0  0  0  0  0
    2.3770    1.6461   -1.7841 H   0  0  0  0  0  0  0  0  0  0  0  0
    1.6647    0.7031   -0.5257 H   0  0  0  0  0  0  0  0  0  0  0  0
    3.3685   -1.2444   -1.7201 H   0  0  0  0  0  0  0  0  0  0  0  0
    4.8775    1.4323   -1.7246 H   0  0  0  0  0  0  0  0  0  0  0  0
    5.5144   -0.2044   -2.1565 H   0  0  0  0  0  0  0  0  0  0  0  0
    4.3123    0.5956   -3.2056 H   0  0  0  0  0  0  0  0  0  0  0  0
    7.3570    0.8227    1.6371 H   0  0  0  0  0  0  0  0  0  0  0  0
    7.2739   -0.3503    3.0194 H   0  0  0  0  0  0  0  0  0  0  0  0
    9.7318   -1.8716    1.2456 H   0  0  0  0  0  0  0  0  0  0  0  0
    9.5070   -0.3612    2.1627 H   0  0  0  0  0  0  0  0  0  0  0  0
    9.0592    0.8394   -0.0805 H   0  0  0  0  0  0  0  0  0  0  0  0
    9.3225   -0.7170   -0.9036 H   0  0  0  0  0  0  0  0  0  0  0  0
   12.4953    1.3424    0.5357 H   0  0  0  0  0  0  0  0  0  0  0  0
   10.9931    1.4398    1.5106 H   0  0  0  0  0  0  0  0  0  0  0  0
   11.0438    2.1070   -0.1892 H   0  0  0  0  0  0  0  0  0  0  0  0
    1.9418   -0.9621    0.7419 H   0  0  0  0  0  0  0  0  0  0  0  0
    2.4263    1.2028    1.7909 H   0  0  0  0  0  0  0  0  0  0  0  0
    3.6900    0.4626    2.8258 H   0  0  0  0  0  0  0  0  0  0  0  0
    1.9788   -0.0049    3.0323 H   0  0  0  0  0  0  0  0  0  0  0  0
    3.8567   -2.7872    1.0257 H   0  0  0  0  0  0  0  0  0  0  0  0
    3.5843   -1.8295    3.6904 H   0  0  0  0  0  0  0  0  0  0  0  0
    1.4570   -2.3701    4.0274 H   0  0  0  0  0  0  0  0  0  0  0  0
    0.5543   -1.6757    2.6412 H   0  0  0  0  0  0  0  0  0  0  0  0
    0.1713   -3.3168    3.2413 H   0  0  0  0  0  0  0  0  0  0  0  0
    3.3524   -4.6747    2.3490 H   0  0  0  0  0  0  0  0  0  0  0  0
  1  2  1  0
  2  3  1  0
  3  4  1  0
  4  5  1  0
  5  6  2  0
  5  7  1  0
  7  8  1  0
  7  9  1  0
  9 10  1  0
 10 11  1  0
 11 12  1  0
 12 13  1  0
 13 14  1  0
 13 15  1  1
 15 16  1  0
 13 17  1  0
 17 18  1  0
 17 19  1  0
 19 20  1  0
 19 21  1  0
  9 22  1  0
 22 23  1  0
 22 24  1  0
 24 25  1  0
 25 26  1  0
 26 27  1  0
 27 28  1  0
 28 29  1  0
 28 30  1  0
 30 31  1  0
 31 32  1  0
 32 33  1  0
 31 34  1  0
 34 35  1  0
 34 36  1  0
 24 37  1  0
 37 38  1  0
 37 39  1  6
 37 40  1  0
 40 41  1  0
 41 42  1  0
 41 43  1  0
 43 44  2  3
 44 45  1  0
 45 46  1  0
 46 47  1  0
 47 48  1  0
 48 49  1  0
 49 50  1  0
 50 51  1  0
 43 52  1  0
 52 53  1  0
 52 54  1  0
 54 55  1  0
 54 56  1  0
 56 57  1  0
 56 58  1  1
 56  3  1  0
 21 11  1  0
 32 26  1  0
  1 59  1  0
  1 60  1  0
  1 61  1  0
  2 62  1  0
  2 63  1  0
  3 64  1  6
  7 65  1  1
  8 66  1  0
  8 67  1  0
  8 68  1  0
  9 69  1  6
 11 70  1  1
 12 71  1  0
 12 72  1  0
 14 73  1  0
 14 74  1  0
 14 75  1  0
 16 76  1  0
 16 77  1  0
 16 78  1  0
 17 79  1  1
 18 80  1  0
 19 81  1  6
 20 82  1  0
 20 83  1  0
 20 84  1  0
 22 85  1  6
 23 86  1  0
 23 87  1  0
 23 88  1  0
 24 89  1  6
 26 90  1  6
 28 91  1  1
 29 92  1  0
 29 93  1  0
 29 94  1  0
 30 95  1  0
 30 96  1  0
 31 97  1  6
 32 98  1  1
 33 99  1  0
 35100  1  0
 35101  1  0
 35102  1  0
 36103  1  0
 36104  1  0
 36105  1  0
 38106  1  0
 38107  1  0
 38108  1  0
 39109  1  0
 40110  1  0
 40111  1  0
 41112  1  6
 42113  1  0
 42114  1  0
 42115  1  0
 46116  1  0
 46117  1  0
 48118  1  0
 48119  1  0
 49120  1  0
 49121  1  0
 51122  1  0
 51123  1  0
 51124  1  0
 52125  1  6
 53126  1  0
 53127  1  0
 53128  1  0
 54129  1  6
 55130  1  0
 57131  1  0
 57132  1  0
 57133  1  0
 58134  1  0
M  END
$$$$
