
     RDKit          3D

 40 43  0  0  0  0  0  0  0  0999 V2000
    8.0768   -0.5206    1.7113 N   0  0  0  0  0  0  0  0  0  0  0  0
    8.0910   -0.2435    0.3059 C   0  0  0  0  0  0  0  0  0  0  0  0
    9.3068   -0.4143   -0.4224 N   0  0  0  0  0  0  0  0  0  0  0  0
    7.0137    0.0992   -0.3411 N   0  0  0  0  0  0  0  0  0  0  0  0
    5.7310    0.4171    0.2144 C   0  0  0  0  0  0  0  0  0  0  0  0
    4.5852    0.2373   -0.4750 N   0  0  0  0  0  0  0  0  0  0  0  0
    3.5070    0.7409    0.1868 C   0  0  0  0  0  0  0  0  0  0  0  0
    3.7991    1.3609    1.4015 C   0  0  0  0  0  0  0  0  0  0  0  0
    5.4612    1.2737    1.6407 S   0  0  0  0  0  0  0  0  0  0  0  0
    2.1464    0.6446   -0.3673 C   0  0  0  0  0  0  0  0  0  0  0  0
    1.8043    0.0403   -1.5738 C   0  0  0  0  0  0  0  0  0  0  0  0
    0.4321    0.0846   -1.8475 C   0  0  0  0  0  0  0  0  0  0  0  0
   -0.3019    0.7372   -0.8647 C   0  0  0  0  0  0  0  0  0  0  0  0
   -1.7914    0.8765   -0.8340 C   0  0  0  0  0  0  0  0  0  0  0  0
   -2.4038   -0.2876   -0.1970 N   0  0  0  0  0  0  0  0  0  0  0  0
   -3.8221   -0.4037   -0.0368 C   0  0  0  0  0  0  0  0  0  0  0  0
   -4.4006   -1.4824    0.5544 N   0  0  0  0  0  0  0  0  0  0  0  0
   -5.7101   -1.1808    0.4940 C   0  0  0  0  0  0  0  0  0  0  0  0
   -5.8944    0.0284   -0.1093 C   0  0  0  0  0  0  0  0  0  0  0  0
   -4.7062    0.5384   -0.4540 N   0  0  0  0  0  0  0  0  0  0  0  0
   -7.1603    0.5781   -0.2992 C   0  0  0  0  0  0  0  0  0  0  0  0
   -8.2662   -0.1635    0.1577 C   0  0  0  0  0  0  0  0  0  0  0  0
   -8.0778   -1.4177    0.7837 C   0  0  0  0  0  0  0  0  0  0  0  0
   -6.7818   -1.9405    0.9577 C   0  0  0  0  0  0  0  0  0  0  0  0
    0.7419    1.2299    0.3583 S   0  0  0  0  0  0  0  0  0  0  0  0
    7.1938   -0.7390    2.2209 H   0  0  0  0  0  0  0  0  0  0  0  0
    8.9761   -0.6744    2.2185 H   0  0  0  0  0  0  0  0  0  0  0  0
   10.1798   -0.7146    0.0651 H   0  0  0  0  0  0  0  0  0  0  0  0
    9.3383   -0.2403   -1.4517 H   0  0  0  0  0  0  0  0  0  0  0  0
    3.0908    1.8340    2.0684 H   0  0  0  0  0  0  0  0  0  0  0  0
    2.5213   -0.4284   -2.2351 H   0  0  0  0  0  0  0  0  0  0  0  0
   -0.0104   -0.3536   -2.7325 H   0  0  0  0  0  0  0  0  0  0  0  0
   -2.1736    0.9765   -1.8727 H   0  0  0  0  0  0  0  0  0  0  0  0
   -2.0602    1.7939   -0.2680 H   0  0  0  0  0  0  0  0  0  0  0  0
   -1.8041   -1.0675    0.1578 H   0  0  0  0  0  0  0  0  0  0  0  0
   -4.5158    1.4476   -0.9311 H   0  0  0  0  0  0  0  0  0  0  0  0
   -7.2897    1.5391   -0.7799 H   0  0  0  0  0  0  0  0  0  0  0  0
   -9.2666    0.2288    0.0291 H   0  0  0  0  0  0  0  0  0  0  0  0
   -8.9349   -1.9795    1.1312 H   0  0  0  0  0  0  0  0  0  0  0  0
   -6.6249   -2.8990    1.4352 H   0  0  0  0  0  0  0  0  0  0  0  0
  1  2  1  0
  2  3  1  0
  2  4  2  3
  4  5  1  0
  5  6  2  0
  6  7  1  0
  7  8  2  0
  8  9  1  0
  7 10  1  0
 10 11  2  0
 11 12  1  0
 12 13  2  0
 13 14  1  0
 14 15  1  0
 15 16  1  0
 16 17  2  0
 17 18  1  0
 18 19  2  0
 19 20  1  0
 19 21  1  0
 21 22  2  0
 22 23  1  0
 23 24  2  0
 13 25  1  0
  9  5  1  0
 25 10  1  0
 20 16  1  0
 24 18  1  0
  1 26  1  0
  1 27  1  0
  3 28  1  0
  3 29  1  0
  8 30  1  0
 11 31  1  0
 12 32  1  0
 14 33  1  0
 14 34  1  0
 15 35  1  0
 20 36  1  0
 21 37  1  0
 22 38  1  0
 23 39  1  0
 24 40  1  0
M  END
$$$$
