
     RDKit          3D

 45 45  0  0  0  0  0  0  0  0999 V2000
   -0.4683    1.5590   -0.7632 N   0  0  0  0  0  0  0  0  0  0  0  0
   -0.2677    1.6574    0.6832 C   0  0  1  0  0  0  0  0  0  0  0  0
   -1.5312    1.2260    1.4635 C   0  0  0  0  0  0  0  0  0  0  0  0
   -1.9027   -0.2723    1.3864 C   0  0  0  0  0  0  0  0  0  0  0  0
   -2.4437   -0.7306    0.0213 C   0  0  0  0  0  0  0  0  0  0  0  0
   -3.5558    0.1065   -0.4292 N   0  0  0  0  0  0  0  0  0  0  0  0
   -4.7858    0.0767    0.0017 C   0  0  0  0  0  0  0  0  0  0  0  0
   -5.2116   -0.8743    0.9876 N   0  0  0  0  0  0  0  0  0  0  0  0
   -5.7556    0.9922   -0.5363 N   0  0  0  0  0  0  0  0  0  0  0  0
   -5.4369    2.0517   -1.4077 N   0  0  0  0  0  4  0  0  0  0  0  0
   -6.4484    2.8199   -1.9339 O   0  0  0  0  0  1  0  0  0  0  0  0
   -4.2519    2.3558   -1.6557 O   0  0  0  0  0  0  0  0  0  0  0  0
    0.9523    0.8828    1.1210 C   0  0  0  0  0  0  0  0  0  0  0  0
    1.6155    1.2979    2.1103 O   0  0  0  0  0  0  0  0  0  0  0  0
    1.3369   -0.3333    0.4592 N   0  0  0  0  0  0  0  0  0  0  0  0
    2.5124   -1.1057    0.8792 C   0  0  1  0  0  0  0  0  0  0  0  0
    2.5231   -2.4851    0.2305 C   0  0  0  0  0  0  0  0  0  0  0  0
    3.2546   -2.3851   -1.0344 N   0  0  0  0  0  0  0  0  0  0  0  0
    3.9518   -1.0922   -1.0311 C   0  0  1  0  0  0  0  0  0  0  0  0
    3.7792   -0.4689    0.3505 C   0  0  0  0  0  0  0  0  0  0  0  0
    5.4046   -1.2764   -1.3722 C   0  0  0  0  0  0  0  0  0  0  0  0
    6.1079   -0.2658   -2.0945 N   0  0  0  0  0  0  0  0  0  0  0  0
    6.0221   -2.3020   -0.9771 O   0  0  0  0  0  0  0  0  0  0  0  0
    0.3797    1.9442   -1.2403 H   0  0  0  0  0  0  0  0  0  0  0  0
   -1.2613    2.1868   -1.0303 H   0  0  0  0  0  0  0  0  0  0  0  0
   -0.0869    2.7296    0.9290 H   0  0  0  0  0  0  0  0  0  0  0  0
   -1.3654    1.4731    2.5354 H   0  0  0  0  0  0  0  0  0  0  0  0
   -2.3947    1.8463    1.1402 H   0  0  0  0  0  0  0  0  0  0  0  0
   -2.6784   -0.4665    2.1565 H   0  0  0  0  0  0  0  0  0  0  0  0
   -1.0310   -0.9008    1.6638 H   0  0  0  0  0  0  0  0  0  0  0  0
   -1.6369   -0.6833   -0.7351 H   0  0  0  0  0  0  0  0  0  0  0  0
   -2.7523   -1.7965    0.0659 H   0  0  0  0  0  0  0  0  0  0  0  0
   -6.1974   -0.8597    1.3307 H   0  0  0  0  0  0  0  0  0  0  0  0
   -4.5839   -1.6126    1.3714 H   0  0  0  0  0  0  0  0  0  0  0  0
   -6.7561    0.8637   -0.2643 H   0  0  0  0  0  0  0  0  0  0  0  0
    0.7505   -0.6830   -0.3314 H   0  0  0  0  0  0  0  0  0  0  0  0
    2.5300   -1.1996    1.9880 H   0  0  0  0  0  0  0  0  0  0  0  0
    3.0639   -3.1964    0.8920 H   0  0  0  0  0  0  0  0  0  0  0  0
    1.4945   -2.8830    0.0770 H   0  0  0  0  0  0  0  0  0  0  0  0
    2.5607   -2.3899   -1.8194 H   0  0  0  0  0  0  0  0  0  0  0  0
    3.4847   -0.4156   -1.7849 H   0  0  0  0  0  0  0  0  0  0  0  0
    4.6251   -0.7415    1.0218 H   0  0  0  0  0  0  0  0  0  0  0  0
    3.7101    0.6396    0.2930 H   0  0  0  0  0  0  0  0  0  0  0  0
    5.6233    0.6069   -2.4007 H   0  0  0  0  0  0  0  0  0  0  0  0
    7.1208   -0.3863   -2.3177 H   0  0  0  0  0  0  0  0  0  0  0  0
  1  2  1  0
  2  3  1  0
  3  4  1  0
  4  5  1  0
  5  6  1  0
  6  7  2  0
  7  8  1  0
  7  9  1  0
  9 10  1  0
 10 11  1  0
 10 12  2  0
  2 13  1  0
 13 14  2  0
 13 15  1  0
 15 16  1  0
 16 17  1  0
 17 18  1  0
 18 19  1  0
 19 20  1  0
 19 21  1  0
 21 22  1  0
 21 23  2  0
 20 16  1  0
  1 24  1  0
  1 25  1  0
  2 26  1  6
  3 27  1  0
  3 28  1  0
  4 29  1  0
  4 30  1  0
  5 31  1  0
  5 32  1  0
  8 33  1  0
  8 34  1  0
  9 35  1  0
 15 36  1  0
 16 37  1  1
 17 38  1  0
 17 39  1  0
 18 40  1  0
 19 41  1  6
 20 42  1  0
 20 43  1  0
 22 44  1  0
 22 45  1  0
M  CHG  2  10   1  11  -1
M  END
$$$$
