
     RDKit          3D

 55 57  0  0  0  0  0  0  0  0999 V2000
   -0.6380    0.3597   -1.0216 C   0  0  2  0  0  0  0  0  0  0  0  0
    0.7778    0.6736   -1.5408 C   0  0  0  0  0  0  0  0  0  0  0  0
    1.6490    1.8586   -0.5081 S   0  0  0  0  0  6  0  0  0  0  0  0
    1.0224    1.9537    0.8561 O   0  0  0  0  0  0  0  0  0  0  0  0
    1.5886    3.2085   -1.1658 O   0  0  0  0  0  0  0  0  0  0  0  0
    3.3639    1.3637   -0.3537 C   0  0  0  0  0  0  0  0  0  0  0  0
    3.6015    0.4275    0.8455 C   0  0  2  0  0  0  0  0  0  0  0  0
    5.0785   -0.0391    0.9125 C   0  0  0  0  0  0  0  0  0  0  0  0
    5.1021   -1.5233    0.5145 C   0  0  0  0  0  0  0  0  0  0  0  0
    3.6736   -1.8913    0.5162 C   0  0  0  0  0  0  0  0  0  0  0  0
    3.2466   -3.0631    0.3443 O   0  0  0  0  0  0  0  0  0  0  0  0
    2.8188   -0.7897    0.7171 N   0  0  0  0  0  0  0  0  0  0  0  0
   -1.2430   -0.7176   -1.8349 N   0  0  0  0  0  0  0  0  0  0  0  0
   -0.9173   -2.0713   -1.3359 C   0  0  1  0  0  0  0  0  0  0  0  0
   -1.5828   -2.3738    0.0032 C   0  0  0  0  0  0  0  0  0  0  0  0
   -0.7940   -2.7901    1.0923 C   0  0  0  0  0  0  0  0  0  0  0  0
   -1.3801   -3.0618    2.3317 C   0  0  0  0  0  0  0  0  0  0  0  0
   -2.7600   -2.9278    2.4988 C   0  0  0  0  0  0  0  0  0  0  0  0
   -3.3265   -3.1916    3.7019 F   0  0  0  0  0  0  0  0  0  0  0  0
   -3.5566   -2.5254    1.4245 C   0  0  0  0  0  0  0  0  0  0  0  0
   -2.9756   -2.2522    0.1826 C   0  0  0  0  0  0  0  0  0  0  0  0
   -1.2824   -3.1246   -2.3944 C   0  0  0  0  0  0  0  0  0  0  0  0
   -2.6328   -3.0832   -2.6930 F   0  0  0  0  0  0  0  0  0  0  0  0
   -0.5653   -2.8822   -3.5526 F   0  0  0  0  0  0  0  0  0  0  0  0
   -0.9614   -4.3896   -1.9334 F   0  0  0  0  0  0  0  0  0  0  0  0
   -1.4984    1.6007   -1.0817 C   0  0  0  0  0  0  0  0  0  0  0  0
   -1.7102    2.1612   -2.1922 O   0  0  0  0  0  0  0  0  0  0  0  0
   -2.0772    2.1364    0.1159 N   0  0  0  0  0  0  0  0  0  0  0  0
   -2.8616    3.3669    0.1088 C   0  0  0  0  0  0  0  0  0  0  0  0
   -2.0747    4.6414   -0.1407 C   0  0  0  0  0  0  0  0  0  0  0  0
   -2.5874    4.3173    1.2602 C   0  0  0  0  0  0  0  0  0  0  0  0
   -4.2368    3.3065   -0.4029 C   0  0  0  0  0  0  0  0  0  0  0  0
   -5.3202    3.2580   -0.8066 N   0  0  0  0  0  0  0  0  0  0  0  0
   -0.5560    0.0424    0.0411 H   0  0  0  0  0  0  0  0  0  0  0  0
    1.3798   -0.2557   -1.5814 H   0  0  0  0  0  0  0  0  0  0  0  0
    0.7272    1.0660   -2.5793 H   0  0  0  0  0  0  0  0  0  0  0  0
    3.9790    2.2795   -0.2228 H   0  0  0  0  0  0  0  0  0  0  0  0
    3.6808    0.8675   -1.2964 H   0  0  0  0  0  0  0  0  0  0  0  0
    3.3289    0.9478    1.7899 H   0  0  0  0  0  0  0  0  0  0  0  0
    5.4482    0.0650    1.9564 H   0  0  0  0  0  0  0  0  0  0  0  0
    5.7471    0.5550    0.2511 H   0  0  0  0  0  0  0  0  0  0  0  0
    5.5216   -1.6519   -0.5062 H   0  0  0  0  0  0  0  0  0  0  0  0
    5.6687   -2.1323    1.2512 H   0  0  0  0  0  0  0  0  0  0  0  0
    1.7798   -0.8511    0.7960 H   0  0  0  0  0  0  0  0  0  0  0  0
   -2.2825   -0.6062   -1.8835 H   0  0  0  0  0  0  0  0  0  0  0  0
    0.1855   -2.1471   -1.2127 H   0  0  0  0  0  0  0  0  0  0  0  0
    0.2773   -2.9038    0.9852 H   0  0  0  0  0  0  0  0  0  0  0  0
   -0.7623   -3.3772    3.1626 H   0  0  0  0  0  0  0  0  0  0  0  0
   -4.6268   -2.4255    1.5526 H   0  0  0  0  0  0  0  0  0  0  0  0
   -3.6189   -1.9478   -0.6313 H   0  0  0  0  0  0  0  0  0  0  0  0
   -1.9792    1.6132    1.0150 H   0  0  0  0  0  0  0  0  0  0  0  0
   -2.6320    5.4618   -0.6419 H   0  0  0  0  0  0  0  0  0  0  0  0
   -0.9773    4.5108   -0.2549 H   0  0  0  0  0  0  0  0  0  0  0  0
   -1.7869    4.0020    1.9634 H   0  0  0  0  0  0  0  0  0  0  0  0
   -3.4425    4.9517    1.5785 H   0  0  0  0  0  0  0  0  0  0  0  0
  1  2  1  0
  2  3  1  0
  3  4  2  0
  3  5  2  0
  3  6  1  0
  6  7  1  0
  7  8  1  0
  8  9  1  0
  9 10  1  0
 10 11  2  0
 10 12  1  0
  1 13  1  0
 13 14  1  0
 14 15  1  0
 15 16  2  0
 16 17  1  0
 17 18  2  0
 18 19  1  0
 18 20  1  0
 20 21  2  0
 14 22  1  0
 22 23  1  0
 22 24  1  0
 22 25  1  0
  1 26  1  0
 26 27  2  0
 26 28  1  0
 28 29  1  0
 29 30  1  0
 30 31  1  0
 29 32  1  0
 32 33  3  0
 12  7  1  0
 21 15  1  0
 31 29  1  0
  1 34  1  1
  2 35  1  0
  2 36  1  0
  6 37  1  0
  6 38  1  0
  7 39  1  1
  8 40  1  0
  8 41  1  0
  9 42  1  0
  9 43  1  0
 12 44  1  0
 13 45  1  0
 14 46  1  1
 16 47  1  0
 17 48  1  0
 20 49  1  0
 21 50  1  0
 28 51  1  0
 30 52  1  0
 30 53  1  0
 31 54  1  0
 31 55  1  0
M  END
$$$$
