
     RDKit          3D

 34 36  0  0  0  0  0  0  0  0999 V2000
   -6.5730   -0.1497    1.7343 N   0  0  0  0  0  0  0  0  0  0  0  0
   -6.1427   -0.3616    0.0738 S   0  0  0  0  0  6  0  0  0  0  0  0
   -6.8838    0.6394   -0.7676 O   0  0  0  0  0  0  0  0  0  0  0  0
   -6.5293   -1.7441   -0.3717 O   0  0  0  0  0  0  0  0  0  0  0  0
   -4.4072   -0.1358   -0.1210 C   0  0  0  0  0  0  0  0  0  0  0  0
   -3.5360   -1.2238    0.0097 C   0  0  0  0  0  0  0  0  0  0  0  0
   -2.1572   -1.0431   -0.1310 C   0  0  0  0  0  0  0  0  0  0  0  0
   -1.6273    0.2308   -0.4001 C   0  0  0  0  0  0  0  0  0  0  0  0
   -2.5082    1.3218   -0.5216 C   0  0  0  0  0  0  0  0  0  0  0  0
   -3.8870    1.1379   -0.3803 C   0  0  0  0  0  0  0  0  0  0  0  0
   -0.1622    0.3975   -0.5446 C   0  0  0  0  0  0  0  0  0  0  0  0
    0.5225    1.5693   -0.8248 C   0  0  0  0  0  0  0  0  0  0  0  0
    1.8570    1.2283   -0.8675 C   0  0  0  0  0  0  0  0  0  0  0  0
    1.9107   -0.1290   -0.6020 C   0  0  0  0  0  0  0  0  0  0  0  0
    0.6951   -0.5921   -0.4252 O   0  0  0  0  0  0  0  0  0  0  0  0
    3.1033   -0.9960   -0.5685 C   0  0  0  0  0  0  0  0  0  0  0  0
    4.3267   -0.6111   -0.1710 C   0  0  0  0  0  0  0  0  0  0  0  0
    4.7304    0.9974    0.5438 S   0  0  0  0  0  0  0  0  0  0  0  0
    6.3873    0.3734    0.8570 C   0  0  0  0  0  0  0  0  0  0  0  0
    7.3003    1.0835    1.4338 N   0  0  0  0  0  0  0  0  0  0  0  0
    6.6379   -0.9582    0.4331 N   0  0  0  0  0  0  0  0  0  0  0  0
    5.4745   -1.5191   -0.1442 C   0  0  0  0  0  0  0  0  0  0  0  0
    5.4495   -2.6993   -0.5851 O   0  0  0  0  0  0  0  0  0  0  0  0
   -6.0065   -0.8328    2.2855 H   0  0  0  0  0  0  0  0  0  0  0  0
   -6.2500    0.8036    2.0137 H   0  0  0  0  0  0  0  0  0  0  0  0
   -3.9225   -2.2122    0.2234 H   0  0  0  0  0  0  0  0  0  0  0  0
   -1.5048   -1.9013   -0.0274 H   0  0  0  0  0  0  0  0  0  0  0  0
   -2.1407    2.3183   -0.7220 H   0  0  0  0  0  0  0  0  0  0  0  0
   -4.5478    1.9907   -0.4703 H   0  0  0  0  0  0  0  0  0  0  0  0
    0.1136    2.5546   -0.9993 H   0  0  0  0  0  0  0  0  0  0  0  0
    2.6752    1.8910   -1.1116 H   0  0  0  0  0  0  0  0  0  0  0  0
    2.9493   -2.0307   -0.8498 H   0  0  0  0  0  0  0  0  0  0  0  0
    7.1054    2.0616    1.7427 H   0  0  0  0  0  0  0  0  0  0  0  0
    7.5477   -1.4590    0.5438 H   0  0  0  0  0  0  0  0  0  0  0  0
  1  2  1  0
  2  3  2  0
  2  4  2  0
  2  5  1  0
  5  6  2  0
  6  7  1  0
  7  8  2  0
  8  9  1  0
  9 10  2  0
  8 11  1  0
 11 12  2  0
 12 13  1  0
 13 14  2  0
 14 15  1  0
 14 16  1  0
 16 17  2  0
 17 18  1  0
 18 19  1  0
 19 20  2  3
 19 21  1  0
 21 22  1  0
 22 23  2  0
 10  5  1  0
 15 11  1  0
 22 17  1  0
  1 24  1  0
  1 25  1  0
  6 26  1  0
  7 27  1  0
  9 28  1  0
 10 29  1  0
 12 30  1  0
 13 31  1  0
 16 32  1  0
 20 33  1  0
 21 34  1  0
M  END
$$$$
