
     RDKit          3D

 20 20  0  0  0  0  0  0  0  0999 V2000
    5.0049   -0.2091    0.2944 N   0  0  0  0  0  0  0  0  0  0  0  0
    3.6423   -0.6206    0.3906 C   0  0  0  0  0  0  0  0  0  0  0  0
    3.3690   -1.7960    0.7536 O   0  0  0  0  0  0  0  0  0  0  0  0
    2.5918    0.2961    0.0767 N   0  0  0  0  0  0  0  0  0  0  0  0
    1.2502   -0.1062    0.1705 N   0  0  0  0  0  0  0  0  0  0  0  0
    0.2751    0.7011   -0.1072 C   0  0  0  0  0  0  0  0  0  0  0  0
   -1.1174    0.2537   -0.0005 C   0  0  0  0  0  0  0  0  0  0  0  0
   -1.5478   -1.0053    0.3849 C   0  0  0  0  0  0  0  0  0  0  0  0
   -2.9258   -0.9636    0.3382 C   0  0  0  0  0  0  0  0  0  0  0  0
   -3.2389    0.3173   -0.0722 C   0  0  0  0  0  0  0  0  0  0  0  0
   -2.1486    1.0219   -0.2672 O   0  0  0  0  0  0  0  0  0  0  0  0
   -4.5600    0.8268   -0.2647 N   0  0  0  0  0  4  0  0  0  0  0  0
   -5.6553    0.0259   -0.0396 O   0  0  0  0  0  1  0  0  0  0  0  0
   -4.7262    2.0051   -0.6393 O   0  0  0  0  0  0  0  0  0  0  0  0
    5.7750   -0.8762    0.5230 H   0  0  0  0  0  0  0  0  0  0  0  0
    5.2467    0.7614   -0.0049 H   0  0  0  0  0  0  0  0  0  0  0  0
    2.8341    1.2682   -0.2232 H   0  0  0  0  0  0  0  0  0  0  0  0
    0.4766    1.7180   -0.4221 H   0  0  0  0  0  0  0  0  0  0  0  0
   -0.9345   -1.8514    0.6660 H   0  0  0  0  0  0  0  0  0  0  0  0
   -3.6112   -1.7669    0.5741 H   0  0  0  0  0  0  0  0  0  0  0  0
  1  2  1  0
  2  3  2  0
  2  4  1  0
  4  5  1  0
  5  6  2  0
  6  7  1  0
  7  8  2  0
  8  9  1  0
  9 10  2  0
 10 11  1  0
 10 12  1  0
 12 13  1  0
 12 14  2  0
 11  7  1  0
  1 15  1  0
  1 16  1  0
  4 17  1  0
  6 18  1  0
  8 19  1  0
  9 20  1  0
M  CHG  2  12   1  13  -1
M  END
$$$$
