
     RDKit          3D

181187  0  0  0  0  0  0  0  0999 V2000
  -10.6177   -4.0066   -1.9404 C   0  0  1  0  0  0  0  0  0  0  0  0
  -11.1929   -3.0603   -0.8775 C   0  0  0  0  0  0  0  0  0  0  0  0
   -9.9994   -2.2637   -0.3465 C   0  0  0  0  0  0  0  0  0  0  0  0
   -8.8134   -3.0324   -0.7128 N   0  0  0  0  0  0  0  0  0  0  0  0
   -7.4881   -2.4878   -0.6021 C   0  0  0  0  0  0  0  0  0  0  0  0
   -7.0486   -1.7668   -1.5378 O   0  0  0  0  0  0  0  0  0  0  0  0
   -6.5617   -2.8628    0.5351 C   0  0  0  0  0  0  0  0  0  0  0  0
   -7.2872   -3.2653    1.8256 C   0  0  0  0  0  0  0  0  0  0  0  0
   -7.9127   -2.0822    2.5036 C   0  0  0  0  0  0  0  0  0  0  0  0
   -9.0261   -2.2692    3.3386 C   0  0  0  0  0  0  0  0  0  0  0  0
   -9.5954   -1.1842    4.0073 C   0  0  0  0  0  0  0  0  0  0  0  0
   -9.0515    0.0922    3.8587 C   0  0  0  0  0  0  0  0  0  0  0  0
   -7.9267    0.2835    3.0529 C   0  0  0  0  0  0  0  0  0  0  0  0
   -7.3461   -0.7988    2.3716 C   0  0  0  0  0  0  0  0  0  0  0  0
   -6.1071   -0.5571    1.5422 C   0  0  0  0  0  0  0  0  0  0  0  0
   -5.6332   -1.7516    0.8182 N   0  0  0  0  0  0  0  0  0  0  0  0
   -4.3213   -1.7497    0.2050 C   0  0  0  0  0  0  0  0  0  0  0  0
   -3.7840   -2.8453   -0.1176 O   0  0  0  0  0  0  0  0  0  0  0  0
   -3.6027   -0.4638   -0.1478 C   0  0  2  0  0  0  0  0  0  0  0  0
   -4.0503    0.0138   -1.5377 C   0  0  0  0  0  0  0  0  0  0  0  0
   -3.3878    1.1991   -1.8885 O   0  0  0  0  0  0  0  0  0  0  0  0
   -2.1517   -0.6765   -0.1232 N   0  0  0  0  0  0  0  0  0  0  0  0
   -1.4032   -0.6716    1.1013 C   0  0  0  0  0  0  0  0  0  0  0  0
   -1.9814   -0.4274    2.1961 O   0  0  0  0  0  0  0  0  0  0  0  0
    0.0825   -0.9194    1.0836 C   0  0  2  0  0  0  0  0  0  0  0  0
    0.4374   -2.0731    2.0404 C   0  0  0  0  0  0  0  0  0  0  0  0
    1.8929   -2.4301    1.9687 C   0  0  0  0  0  0  0  0  0  0  0  0
    2.8188   -2.2837    2.9938 C   0  0  0  0  0  0  0  0  0  0  0  0
    4.0959   -2.7445    2.6526 C   0  0  0  0  0  0  0  0  0  0  0  0
    4.1810   -3.2477    1.3607 C   0  0  0  0  0  0  0  0  0  0  0  0
    2.6642   -3.1245    0.6447 S   0  0  0  0  0  0  0  0  0  0  0  0
    0.7881    0.3121    1.4525 N   0  0  0  0  0  0  0  0  0  0  0  0
    0.8560    1.4411    0.5692 C   0  0  0  0  0  0  0  0  0  0  0  0
    0.2543    1.4217   -0.5388 O   0  0  0  0  0  0  0  0  0  0  0  0
    1.6682    2.6414    0.9466 C   0  0  0  0  0  0  0  0  0  0  0  0
    3.0794    2.2811    1.0400 N   0  0  0  0  0  0  0  0  0  0  0  0
    3.8525    1.9030   -0.1091 C   0  0  0  0  0  0  0  0  0  0  0  0
    3.3384    1.9393   -1.2599 O   0  0  0  0  0  0  0  0  0  0  0  0
    5.2647    1.4100    0.0516 C   0  0  0  0  0  0  0  0  0  0  0  0
    5.2865    0.0267    0.7059 C   0  0  0  0  0  0  0  0  0  0  0  0
    6.4431    0.0578    1.7027 C   0  0  1  0  0  0  0  0  0  0  0  0
    7.5945   -0.4691    1.0971 O   0  0  0  0  0  0  0  0  0  0  0  0
    6.6486    1.5343    2.0322 C   0  0  0  0  0  0  0  0  0  0  0  0
    6.0417    2.2719    0.9377 N   0  0  0  0  0  0  0  0  0  0  0  0
    6.1757    3.7039    0.8349 C   0  0  0  0  0  0  0  0  0  0  0  0
    6.1775    4.3916    1.8912 O   0  0  0  0  0  0  0  0  0  0  0  0
    6.3704    4.4269   -0.4825 C   0  0  0  0  0  0  0  0  0  0  0  0
    5.0626    5.0251   -1.0042 C   0  0  0  0  0  0  0  0  0  0  0  0
    5.0308    4.7308   -2.5021 C   0  0  0  0  0  0  0  0  0  0  0  0
    6.0586    3.6335   -2.7481 C   0  0  0  0  0  0  0  0  0  0  0  0
    6.8671    3.5586   -1.5422 N   0  0  0  0  0  0  0  0  0  0  0  0
    8.1020    2.8150   -1.5039 C   0  0  0  0  0  0  0  0  0  0  0  0
    8.2841    1.8924   -2.3450 O   0  0  0  0  0  0  0  0  0  0  0  0
    9.2184    3.1700   -0.5397 C   0  0  0  0  0  0  0  0  0  0  0  0
   10.1705    4.2348   -1.1390 C   0  0  0  0  0  0  0  0  0  0  0  0
   10.7547    3.9273   -2.5319 C   0  0  0  0  0  0  0  0  0  0  0  0
   11.7353    2.7493   -2.5271 C   0  0  0  0  0  0  0  0  0  0  0  0
   12.5064    2.7102   -3.7689 N   0  0  0  0  0  0  0  0  0  0  0  0
   12.0966    2.2823   -4.9295 C   0  0  0  0  0  0  0  0  0  0  0  0
   10.7786    1.7522   -5.1214 N   0  0  0  0  0  0  0  0  0  0  0  0
   12.9931    2.3342   -6.0389 N   0  0  0  0  0  0  0  0  0  0  0  0
    9.9387    1.9709   -0.0850 N   0  0  0  0  0  0  0  0  0  0  0  0
   10.7018    1.9532    1.1322 C   0  0  0  0  0  0  0  0  0  0  0  0
   11.0247    3.0363    1.6924 O   0  0  0  0  0  0  0  0  0  0  0  0
   11.1226    0.6378    1.7521 C   0  0  2  0  0  0  0  0  0  0  0  0
   10.8203    0.6234    3.1860 N   0  0  0  0  0  0  0  0  0  0  0  0
   12.6262    0.3661    1.5370 C   0  0  0  0  0  0  0  0  0  0  0  0
   12.9949    0.0037    0.0831 C   0  0  0  0  0  0  0  0  0  0  0  0
   12.8133   -1.4896   -0.2444 C   0  0  0  0  0  0  0  0  0  0  0  0
   11.4023   -1.8490   -0.3783 N   0  0  0  0  0  0  0  0  0  0  0  0
   10.6291   -1.6026   -1.3977 C   0  0  0  0  0  0  0  0  0  0  0  0
   11.1134   -0.9450   -2.5759 N   0  0  0  0  0  0  0  0  0  0  0  0
    9.2602   -2.0023   -1.3371 N   0  0  0  0  0  0  0  0  0  0  0  0
   -9.1084   -4.1213   -1.6384 C   0  0  1  0  0  0  0  0  0  0  0  0
   -8.7046   -5.4837   -1.0333 C   0  0  0  0  0  0  0  0  0  0  0  0
   -9.7644   -6.0038   -0.0579 C   0  0  0  0  0  0  0  0  0  0  0  0
  -11.1164   -6.2465   -0.7535 C   0  0  0  0  0  0  0  0  0  0  0  0
  -11.3440   -5.3660   -2.0006 C   0  0  0  0  0  0  0  0  0  0  0  0
   -9.9542   -0.8815   -0.9511 C   0  0  0  0  0  0  0  0  0  0  0  0
   -9.8963   -0.7498   -2.2047 O   0  0  0  0  0  0  0  0  0  0  0  0
   -9.9649    0.2743   -0.1011 N   0  0  0  0  0  0  0  0  0  0  0  0
   -9.8845    1.6413   -0.6211 C   0  0  1  0  0  0  0  0  0  0  0  0
  -10.8161    2.5817    0.1780 C   0  0  0  0  0  0  0  0  0  0  0  0
  -12.2966    2.4979   -0.2467 C   0  0  0  0  0  0  0  0  0  0  0  0
  -12.9403    1.1208   -0.0490 C   0  0  0  0  0  0  0  0  0  0  0  0
  -12.7836    0.6759    1.3334 N   0  0  0  0  0  0  0  0  0  0  0  0
  -13.1457   -0.4850    1.7968 C   0  0  0  0  0  0  0  0  0  0  0  0
  -12.9234   -0.7784    3.1752 N   0  0  0  0  0  0  0  0  0  0  0  0
  -13.7598   -1.4729    0.9589 N   0  0  0  0  0  0  0  0  0  0  0  0
   -8.4554    2.0994   -0.5512 C   0  0  0  0  0  0  0  0  0  0  0  0
   -7.6463    2.0021   -1.6788 O   0  0  0  0  0  0  0  0  0  0  0  0
   -7.9701    2.5228    0.5325 O   0  0  0  0  0  0  0  0  0  0  0  0
  -10.7360   -3.5110   -2.9307 H   0  0  0  0  0  0  0  0  0  0  0  0
  -11.6458   -3.6293   -0.0373 H   0  0  0  0  0  0  0  0  0  0  0  0
  -11.9868   -2.4116   -1.3101 H   0  0  0  0  0  0  0  0  0  0  0  0
  -10.0734   -2.1955    0.7576 H   0  0  0  0  0  0  0  0  0  0  0  0
   -5.9999   -3.7611    0.2012 H   0  0  0  0  0  0  0  0  0  0  0  0
   -8.0476   -4.0439    1.6113 H   0  0  0  0  0  0  0  0  0  0  0  0
   -6.5491   -3.7120    2.5263 H   0  0  0  0  0  0  0  0  0  0  0  0
   -9.4560   -3.2552    3.4668 H   0  0  0  0  0  0  0  0  0  0  0  0
  -10.4540   -1.3355    4.6479 H   0  0  0  0  0  0  0  0  0  0  0  0
   -9.4943    0.9322    4.3777 H   0  0  0  0  0  0  0  0  0  0  0  0
   -7.5021    1.2756    2.9647 H   0  0  0  0  0  0  0  0  0  0  0  0
   -6.3123    0.2532    0.8104 H   0  0  0  0  0  0  0  0  0  0  0  0
   -5.3123   -0.2177    2.2409 H   0  0  0  0  0  0  0  0  0  0  0  0
   -3.8493    0.3410    0.5744 H   0  0  0  0  0  0  0  0  0  0  0  0
   -3.8155   -0.7623   -2.2979 H   0  0  0  0  0  0  0  0  0  0  0  0
   -5.1517    0.1767   -1.5517 H   0  0  0  0  0  0  0  0  0  0  0  0
   -3.8143    1.9285   -1.3672 H   0  0  0  0  0  0  0  0  0  0  0  0
   -1.6528   -0.8931   -1.0164 H   0  0  0  0  0  0  0  0  0  0  0  0
    0.3945   -1.2192    0.0585 H   0  0  0  0  0  0  0  0  0  0  0  0
    0.1709   -1.7980    3.0848 H   0  0  0  0  0  0  0  0  0  0  0  0
   -0.1538   -2.9744    1.7683 H   0  0  0  0  0  0  0  0  0  0  0  0
    2.5797   -1.8633    3.9617 H   0  0  0  0  0  0  0  0  0  0  0  0
    4.9383   -2.7098    3.3305 H   0  0  0  0  0  0  0  0  0  0  0  0
    5.0725   -3.6469    0.8966 H   0  0  0  0  0  0  0  0  0  0  0  0
    1.2788    0.3733    2.3740 H   0  0  0  0  0  0  0  0  0  0  0  0
    1.5376    3.4580    0.2034 H   0  0  0  0  0  0  0  0  0  0  0  0
    1.3149    3.0160    1.9311 H   0  0  0  0  0  0  0  0  0  0  0  0
    3.5274    2.2692    1.9839 H   0  0  0  0  0  0  0  0  0  0  0  0
    5.7641    1.3377   -0.9349 H   0  0  0  0  0  0  0  0  0  0  0  0
    4.3434   -0.1695    1.2640 H   0  0  0  0  0  0  0  0  0  0  0  0
    5.4146   -0.7772   -0.0523 H   0  0  0  0  0  0  0  0  0  0  0  0
    6.1820   -0.5233    2.6178 H   0  0  0  0  0  0  0  0  0  0  0  0
    8.2116   -0.7182    1.8330 H   0  0  0  0  0  0  0  0  0  0  0  0
    6.1337    1.7920    2.9831 H   0  0  0  0  0  0  0  0  0  0  0  0
    7.7286    1.7845    2.1156 H   0  0  0  0  0  0  0  0  0  0  0  0
    7.1026    5.2519   -0.3352 H   0  0  0  0  0  0  0  0  0  0  0  0
    5.0272    6.1208   -0.8183 H   0  0  0  0  0  0  0  0  0  0  0  0
    4.1755    4.5671   -0.5179 H   0  0  0  0  0  0  0  0  0  0  0  0
    5.3189    5.6451   -3.0662 H   0  0  0  0  0  0  0  0  0  0  0  0
    4.0170    4.4106   -2.8273 H   0  0  0  0  0  0  0  0  0  0  0  0
    5.5570    2.6593   -2.9290 H   0  0  0  0  0  0  0  0  0  0  0  0
    6.6948    3.8902   -3.6231 H   0  0  0  0  0  0  0  0  0  0  0  0
    8.7647    3.6273    0.3614 H   0  0  0  0  0  0  0  0  0  0  0  0
    9.6001    5.1859   -1.2237 H   0  0  0  0  0  0  0  0  0  0  0  0
   11.0029    4.4415   -0.4338 H   0  0  0  0  0  0  0  0  0  0  0  0
   11.3031    4.8339   -2.8705 H   0  0  0  0  0  0  0  0  0  0  0  0
    9.9401    3.7569   -3.2654 H   0  0  0  0  0  0  0  0  0  0  0  0
   11.2055    1.7897   -2.3768 H   0  0  0  0  0  0  0  0  0  0  0  0
   12.4505    2.8790   -1.6874 H   0  0  0  0  0  0  0  0  0  0  0  0
   10.0907    1.6538   -4.3454 H   0  0  0  0  0  0  0  0  0  0  0  0
   10.4830    1.4285   -6.0689 H   0  0  0  0  0  0  0  0  0  0  0  0
   12.6947    1.9929   -6.9793 H   0  0  0  0  0  0  0  0  0  0  0  0
   13.9593    2.7137   -5.9232 H   0  0  0  0  0  0  0  0  0  0  0  0
    9.7752    1.0571   -0.5636 H   0  0  0  0  0  0  0  0  0  0  0  0
   10.5390   -0.1815    1.2894 H   0  0  0  0  0  0  0  0  0  0  0  0
   11.3405    1.3949    3.6652 H   0  0  0  0  0  0  0  0  0  0  0  0
    9.7981    0.8024    3.3191 H   0  0  0  0  0  0  0  0  0  0  0  0
   12.9577   -0.4494    2.2167 H   0  0  0  0  0  0  0  0  0  0  0  0
   13.2000    1.2717    1.8342 H   0  0  0  0  0  0  0  0  0  0  0  0
   14.0695    0.2463   -0.0640 H   0  0  0  0  0  0  0  0  0  0  0  0
   12.4281    0.6303   -0.6313 H   0  0  0  0  0  0  0  0  0  0  0  0
   13.2599   -2.1034    0.5662 H   0  0  0  0  0  0  0  0  0  0  0  0
   13.3651   -1.7523   -1.1721 H   0  0  0  0  0  0  0  0  0  0  0  0
   12.1029   -0.6343   -2.6839 H   0  0  0  0  0  0  0  0  0  0  0  0
   10.4629   -0.7652   -3.3723 H   0  0  0  0  0  0  0  0  0  0  0  0
    8.6116   -1.7983   -2.1291 H   0  0  0  0  0  0  0  0  0  0  0  0
    8.8877   -2.4913   -0.4930 H   0  0  0  0  0  0  0  0  0  0  0  0
   -8.5345   -3.9698   -2.5807 H   0  0  0  0  0  0  0  0  0  0  0  0
   -7.7265   -5.4024   -0.5152 H   0  0  0  0  0  0  0  0  0  0  0  0
   -8.5759   -6.2250   -1.8524 H   0  0  0  0  0  0  0  0  0  0  0  0
   -9.4099   -6.9511    0.4025 H   0  0  0  0  0  0  0  0  0  0  0  0
   -9.8997   -5.2691    0.7645 H   0  0  0  0  0  0  0  0  0  0  0  0
  -11.9333   -6.0699   -0.0203 H   0  0  0  0  0  0  0  0  0  0  0  0
  -11.1834   -7.3135   -1.0598 H   0  0  0  0  0  0  0  0  0  0  0  0
  -12.4338   -5.2041   -2.1487 H   0  0  0  0  0  0  0  0  0  0  0  0
  -10.9730   -5.9145   -2.8943 H   0  0  0  0  0  0  0  0  0  0  0  0
   -9.9229    0.1317    0.9330 H   0  0  0  0  0  0  0  0  0  0  0  0
  -10.1990    1.6692   -1.6877 H   0  0  0  0  0  0  0  0  0  0  0  0
  -10.7197    2.3885    1.2692 H   0  0  0  0  0  0  0  0  0  0  0  0
  -10.4948    3.6339    0.0113 H   0  0  0  0  0  0  0  0  0  0  0  0
  -12.8721    3.2436    0.3440 H   0  0  0  0  0  0  0  0  0  0  0  0
  -12.3879    2.7863   -1.3165 H   0  0  0  0  0  0  0  0  0  0  0  0
  -12.4821    0.3903   -0.7473 H   0  0  0  0  0  0  0  0  0  0  0  0
  -14.0227    1.1944   -0.2908 H   0  0  0  0  0  0  0  0  0  0  0  0
  -12.5022   -0.0612    3.8069 H   0  0  0  0  0  0  0  0  0  0  0  0
  -13.1836   -1.7088    3.5700 H   0  0  0  0  0  0  0  0  0  0  0  0
  -14.0082   -2.4068    1.3533 H   0  0  0  0  0  0  0  0  0  0  0  0
  -13.9848   -1.2949   -0.0440 H   0  0  0  0  0  0  0  0  0  0  0  0
   -6.6746    2.2865   -1.6460 H   0  0  0  0  0  0  0  0  0  0  0  0
  1  2  1  0
  2  3  1  0
  3  4  1  0
  4  5  1  0
  5  6  2  0
  5  7  1  0
  7  8  1  0
  8  9  1  0
  9 10  2  0
 10 11  1  0
 11 12  2  0
 12 13  1  0
 13 14  2  0
 14 15  1  0
 15 16  1  0
 16 17  1  0
 17 18  2  0
 17 19  1  0
 19 20  1  0
 20 21  1  0
 19 22  1  0
 22 23  1  0
 23 24  2  0
 23 25  1  0
 25 26  1  0
 26 27  1  0
 27 28  2  0
 28 29  1  0
 29 30  2  0
 30 31  1  0
 25 32  1  0
 32 33  1  0
 33 34  2  0
 33 35  1  0
 35 36  1  0
 36 37  1  0
 37 38  2  0
 37 39  1  0
 39 40  1  0
 40 41  1  0
 41 42  1  0
 41 43  1  0
 43 44  1  0
 44 45  1  0
 45 46  2  0
 45 47  1  0
 47 48  1  0
 48 49  1  0
 49 50  1  0
 50 51  1  0
 51 52  1  0
 52 53  2  0
 52 54  1  0
 54 55  1  0
 55 56  1  0
 56 57  1  0
 57 58  1  0
 58 59  2  3
 59 60  1  0
 59 61  1  0
 54 62  1  0
 62 63  1  0
 63 64  2  0
 63 65  1  0
 65 66  1  0
 65 67  1  0
 67 68  1  0
 68 69  1  0
 69 70  1  0
 70 71  2  3
 71 72  1  0
 71 73  1  0
  4 74  1  0
 74 75  1  0
 75 76  1  0
 76 77  1  0
 77 78  1  0
  3 79  1  0
 79 80  2  0
 79 81  1  0
 81 82  1  0
 82 83  1  0
 83 84  1  0
 84 85  1  0
 85 86  1  0
 86 87  2  3
 87 88  1  0
 87 89  1  0
 82 90  1  0
 90 91  1  0
 90 92  2  0
 74  1  1  0
 78  1  1  0
 16  7  1  0
 31 27  1  0
 44 39  1  0
 51 47  1  0
 14  9  1  0
  1 93  1  6
  2 94  1  0
  2 95  1  0
  3 96  1  0
  7 97  1  0
  8 98  1  0
  8 99  1  0
 10100  1  0
 11101  1  0
 12102  1  0
 13103  1  0
 15104  1  0
 15105  1  0
 19106  1  1
 20107  1  0
 20108  1  0
 21109  1  0
 22110  1  0
 25111  1  6
 26112  1  0
 26113  1  0
 28114  1  0
 29115  1  0
 30116  1  0
 32117  1  0
 35118  1  0
 35119  1  0
 36120  1  0
 39121  1  0
 40122  1  0
 40123  1  0
 41124  1  1
 42125  1  0
 43126  1  0
 43127  1  0
 47128  1  0
 48129  1  0
 48130  1  0
 49131  1  0
 49132  1  0
 50133  1  0
 50134  1  0
 54135  1  0
 55136  1  0
 55137  1  0
 56138  1  0
 56139  1  0
 57140  1  0
 57141  1  0
 60142  1  0
 60143  1  0
 61144  1  0
 61145  1  0
 62146  1  0
 65147  1  6
 66148  1  0
 66149  1  0
 67150  1  0
 67151  1  0
 68152  1  0
 68153  1  0
 69154  1  0
 69155  1  0
 72156  1  0
 72157  1  0
 73158  1  0
 73159  1  0
 74160  1  6
 75161  1  0
 75162  1  0
 76163  1  0
 76164  1  0
 77165  1  0
 77166  1  0
 78167  1  0
 78168  1  0
 81169  1  0
 82170  1  6
 83171  1  0
 83172  1  0
 84173  1  0
 84174  1  0
 85175  1  0
 85176  1  0
 88177  1  0
 88178  1  0
 89179  1  0
 89180  1  0
 91181  1  0
M  END
$$$$
