
     RDKit          3D

 82 84  0  0  0  0  0  0  0  0999 V2000
    0.9248    3.9203   -0.3880 C   0  0  1  0  0  0  0  0  0  0  0  0
    1.4530    2.5173   -0.6703 C   0  0  0  0  0  0  0  0  0  0  0  0
    0.4934    1.5885   -0.0943 N   0  0  0  0  0  0  0  0  0  0  0  0
   -0.6684    2.2538    0.4785 C   0  0  2  0  0  0  0  0  0  0  0  0
   -1.9012    1.8364   -0.2787 C   0  0  0  0  0  0  0  0  0  0  0  0
   -2.1552    2.3534   -1.4019 O   0  0  0  0  0  0  0  0  0  0  0  0
   -2.7229    0.7735    0.2239 N   0  0  0  0  0  0  0  0  0  0  0  0
   -3.7267    0.1119   -0.6143 C   0  0  0  0  0  0  0  0  0  0  0  0
   -4.0811   -1.2690   -0.0261 C   0  0  0  0  0  0  0  0  0  0  0  0
   -4.9780   -2.0984   -0.9670 C   0  0  0  0  0  0  0  0  0  0  0  0
   -5.2155   -3.5238   -0.4713 C   0  0  0  0  0  0  0  0  0  0  0  0
   -4.5013   -4.0708   -1.6996 C   0  0  0  0  0  0  0  0  0  0  0  0
   -4.2581   -2.6530   -2.1967 C   0  0  0  0  0  0  0  0  0  0  0  0
   -4.9543    0.9870   -0.7158 C   0  0  0  0  0  0  0  0  0  0  0  0
   -5.4610    1.4562    0.3394 O   0  0  0  0  0  0  0  0  0  0  0  0
   -5.5867    1.2820   -2.0183 C   0  0  0  0  0  0  0  0  0  0  0  0
   -6.7418    2.1197   -2.0936 N   0  0  0  0  0  0  0  0  0  0  0  0
   -5.1126    0.7925   -3.0783 O   0  0  0  0  0  0  0  0  0  0  0  0
   -0.4127    3.7596    0.3453 C   0  0  1  0  0  0  0  0  0  0  0  0
    0.7844    4.3944    1.0623 C   0  0  0  0  0  0  0  0  0  0  0  0
    1.4944    3.6185    2.1876 C   0  0  0  0  0  0  0  0  0  0  0  0
    0.7011    5.9134    1.2357 C   0  0  0  0  0  0  0  0  0  0  0  0
    0.7287    0.1744    0.0531 C   0  0  0  0  0  0  0  0  0  0  0  0
    0.0940   -0.4685    0.9338 O   0  0  0  0  0  0  0  0  0  0  0  0
    1.6985   -0.5719   -0.8415 C   0  0  1  0  0  0  0  0  0  0  0  0
    2.4962   -1.4937   -0.0192 N   0  0  0  0  0  0  0  0  0  0  0  0
    3.5288   -1.0247    0.8608 C   0  0  0  0  0  0  0  0  0  0  0  0
    3.8174    0.2020    0.8907 O   0  0  0  0  0  0  0  0  0  0  0  0
    4.2222   -1.9609    1.7048 N   0  0  0  0  0  0  0  0  0  0  0  0
    5.2629   -1.6055    2.6900 C   0  0  0  0  0  0  0  0  0  0  0  0
    6.4729   -0.9663    1.9810 C   0  0  0  0  0  0  0  0  0  0  0  0
    5.7363   -2.8882    3.4043 C   0  0  0  0  0  0  0  0  0  0  0  0
    4.6897   -0.6409    3.7472 C   0  0  0  0  0  0  0  0  0  0  0  0
    0.9797   -1.3000   -2.0366 C   0  0  0  0  0  0  0  0  0  0  0  0
    0.3186   -0.2528   -2.9622 C   0  0  0  0  0  0  0  0  0  0  0  0
    2.0205   -2.0776   -2.8746 C   0  0  0  0  0  0  0  0  0  0  0  0
   -0.1164   -2.2843   -1.5618 C   0  0  0  0  0  0  0  0  0  0  0  0
    0.8729    4.6658   -1.2109 H   0  0  0  0  0  0  0  0  0  0  0  0
    1.5170    2.3612   -1.7671 H   0  0  0  0  0  0  0  0  0  0  0  0
    2.4562    2.3857   -0.2130 H   0  0  0  0  0  0  0  0  0  0  0  0
   -0.7752    1.9968    1.5547 H   0  0  0  0  0  0  0  0  0  0  0  0
   -2.5485    0.4225    1.1933 H   0  0  0  0  0  0  0  0  0  0  0  0
   -3.2789   -0.0502   -1.6189 H   0  0  0  0  0  0  0  0  0  0  0  0
   -4.6042   -1.1369    0.9466 H   0  0  0  0  0  0  0  0  0  0  0  0
   -3.1405   -1.8278    0.1785 H   0  0  0  0  0  0  0  0  0  0  0  0
   -5.9337   -1.5902   -1.2251 H   0  0  0  0  0  0  0  0  0  0  0  0
   -4.6828   -3.7746    0.4729 H   0  0  0  0  0  0  0  0  0  0  0  0
   -6.2944   -3.7925   -0.4562 H   0  0  0  0  0  0  0  0  0  0  0  0
   -3.5571   -4.5995   -1.4433 H   0  0  0  0  0  0  0  0  0  0  0  0
   -5.1784   -4.6475   -2.3669 H   0  0  0  0  0  0  0  0  0  0  0  0
   -4.8054   -2.4350   -3.1397 H   0  0  0  0  0  0  0  0  0  0  0  0
   -3.1751   -2.4074   -2.2455 H   0  0  0  0  0  0  0  0  0  0  0  0
   -7.1612    2.5433   -1.2365 H   0  0  0  0  0  0  0  0  0  0  0  0
   -7.1838    2.3207   -3.0180 H   0  0  0  0  0  0  0  0  0  0  0  0
   -1.2075    4.4373   -0.0380 H   0  0  0  0  0  0  0  0  0  0  0  0
    0.9663    3.8043    3.1460 H   0  0  0  0  0  0  0  0  0  0  0  0
    2.5363    3.9889    2.2830 H   0  0  0  0  0  0  0  0  0  0  0  0
    1.5386    2.5239    2.0334 H   0  0  0  0  0  0  0  0  0  0  0  0
    1.7256    6.3341    1.3119 H   0  0  0  0  0  0  0  0  0  0  0  0
    0.1825    6.4052    0.3844 H   0  0  0  0  0  0  0  0  0  0  0  0
    0.1463    6.1495    2.1679 H   0  0  0  0  0  0  0  0  0  0  0  0
    2.4066    0.1537   -1.2951 H   0  0  0  0  0  0  0  0  0  0  0  0
    2.2687   -2.5115    0.0033 H   0  0  0  0  0  0  0  0  0  0  0  0
    3.9469   -2.9653    1.6101 H   0  0  0  0  0  0  0  0  0  0  0  0
    6.8399   -1.6327    1.1711 H   0  0  0  0  0  0  0  0  0  0  0  0
    6.2131    0.0149    1.5347 H   0  0  0  0  0  0  0  0  0  0  0  0
    7.3028   -0.7963    2.7008 H   0  0  0  0  0  0  0  0  0  0  0  0
    4.8859   -3.3782    3.9262 H   0  0  0  0  0  0  0  0  0  0  0  0
    6.5224   -2.6587    4.1561 H   0  0  0  0  0  0  0  0  0  0  0  0
    6.1553   -3.6095    2.6696 H   0  0  0  0  0  0  0  0  0  0  0  0
    5.4348   -0.4538    4.5505 H   0  0  0  0  0  0  0  0  0  0  0  0
    4.4243    0.3402    3.3035 H   0  0  0  0  0  0  0  0  0  0  0  0
    3.7760   -1.0744    4.2077 H   0  0  0  0  0  0  0  0  0  0  0  0
   -0.1590   -0.7448   -3.8371 H   0  0  0  0  0  0  0  0  0  0  0  0
    1.0728    0.4686   -3.3432 H   0  0  0  0  0  0  0  0  0  0  0  0
   -0.4705    0.3132   -2.4253 H   0  0  0  0  0  0  0  0  0  0  0  0
    2.8379   -1.4024   -3.2081 H   0  0  0  0  0  0  0  0  0  0  0  0
    2.4699   -2.9092   -2.2927 H   0  0  0  0  0  0  0  0  0  0  0  0
    1.5481   -2.5208   -3.7781 H   0  0  0  0  0  0  0  0  0  0  0  0
    0.2873   -3.0522   -0.8722 H   0  0  0  0  0  0  0  0  0  0  0  0
   -0.5616   -2.8160   -2.4304 H   0  0  0  0  0  0  0  0  0  0  0  0
   -0.9401   -1.7467   -1.0486 H   0  0  0  0  0  0  0  0  0  0  0  0
  1  2  1  0
  2  3  1  0
  3  4  1  0
  4  5  1  0
  5  6  2  0
  5  7  1  0
  7  8  1  0
  8  9  1  0
  9 10  1  0
 10 11  1  0
 11 12  1  0
 12 13  1  0
  8 14  1  0
 14 15  2  0
 14 16  1  0
 16 17  1  0
 16 18  2  0
  4 19  1  0
 19 20  1  0
 20 21  1  0
 20 22  1  0
  3 23  1  0
 23 24  2  0
 23 25  1  0
 25 26  1  0
 26 27  1  0
 27 28  2  0
 27 29  1  0
 29 30  1  0
 30 31  1  0
 30 32  1  0
 30 33  1  0
 25 34  1  0
 34 35  1  0
 34 36  1  0
 34 37  1  0
 19  1  1  0
 20  1  1  0
 13 10  1  0
  1 38  1  6
  2 39  1  0
  2 40  1  0
  4 41  1  1
  7 42  1  0
  8 43  1  0
  9 44  1  0
  9 45  1  0
 10 46  1  0
 11 47  1  0
 11 48  1  0
 12 49  1  0
 12 50  1  0
 13 51  1  0
 13 52  1  0
 17 53  1  0
 17 54  1  0
 19 55  1  6
 21 56  1  0
 21 57  1  0
 21 58  1  0
 22 59  1  0
 22 60  1  0
 22 61  1  0
 25 62  1  6
 26 63  1  0
 29 64  1  0
 31 65  1  0
 31 66  1  0
 31 67  1  0
 32 68  1  0
 32 69  1  0
 32 70  1  0
 33 71  1  0
 33 72  1  0
 33 73  1  0
 35 74  1  0
 35 75  1  0
 35 76  1  0
 36 77  1  0
 36 78  1  0
 36 79  1  0
 37 80  1  0
 37 81  1  0
 37 82  1  0
M  END
$$$$
