
     RDKit          3D

 22 22  0  0  0  0  0  0  0  0999 V2000
   -4.2169    0.8413    0.1004 N   0  0  0  0  0  0  0  0  0  0  0  0
   -2.9387    0.2029    0.1525 C   0  0  0  0  0  0  0  0  0  0  0  0
   -2.8015   -0.9179    0.7887 N   0  0  0  0  0  0  0  0  0  0  0  0
   -1.8310    0.7794   -0.5582 N   0  0  0  0  0  0  0  0  0  0  0  0
   -0.4601    0.3750   -0.3956 C   0  0  0  0  0  0  0  0  0  0  0  0
    0.4044    0.4168   -1.4980 C   0  0  0  0  0  0  0  0  0  0  0  0
    1.7471    0.0521   -1.3626 C   0  0  0  0  0  0  0  0  0  0  0  0
    2.2545   -0.3465   -0.1145 C   0  0  0  0  0  0  0  0  0  0  0  0
    1.3929   -0.3643    0.9965 C   0  0  0  0  0  0  0  0  0  0  0  0
    0.0501   -0.0003    0.8589 C   0  0  0  0  0  0  0  0  0  0  0  0
    3.6762   -0.7316    0.0259 C   0  0  0  0  0  0  0  0  0  0  0  0
    4.5229   -0.7058   -1.0795 O   0  0  0  0  0  0  0  0  0  0  0  0
    4.1342   -1.0869    1.1456 O   0  0  0  0  0  0  0  0  0  0  0  0
   -5.0434    0.4293    0.5883 H   0  0  0  0  0  0  0  0  0  0  0  0
   -4.3391    1.7363   -0.4230 H   0  0  0  0  0  0  0  0  0  0  0  0
   -3.5992   -1.3656    1.2927 H   0  0  0  0  0  0  0  0  0  0  0  0
   -2.0482    1.4854   -1.2975 H   0  0  0  0  0  0  0  0  0  0  0  0
    0.0332    0.7233   -2.4680 H   0  0  0  0  0  0  0  0  0  0  0  0
    2.3868    0.0847   -2.2355 H   0  0  0  0  0  0  0  0  0  0  0  0
    1.7578   -0.6512    1.9749 H   0  0  0  0  0  0  0  0  0  0  0  0
   -0.5799    0.0114    1.7383 H   0  0  0  0  0  0  0  0  0  0  0  0
    5.4978   -0.9677   -0.9944 H   0  0  0  0  0  0  0  0  0  0  0  0
  1  2  1  0
  2  3  2  3
  2  4  1  0
  4  5  1  0
  5  6  2  0
  6  7  1  0
  7  8  2  0
  8  9  1  0
  9 10  2  0
  8 11  1  0
 11 12  1  0
 11 13  2  0
 10  5  1  0
  1 14  1  0
  1 15  1  0
  3 16  1  0
  4 17  1  0
  6 18  1  0
  7 19  1  0
  9 20  1  0
 10 21  1  0
 12 22  1  0
M  END
$$$$
