
     RDKit          3D

 55 56  0  0  0  0  0  0  0  0999 V2000
   -1.7145    0.2296    0.0069 C   0  0  2  0  0  0  0  0  0  0  0  0
   -0.9278    1.4613    0.0898 N   0  0  0  0  0  0  0  0  0  0  0  0
   -2.1045   -0.2594    1.4230 C   0  0  0  0  0  0  0  0  0  0  0  0
   -3.2313    0.5681    2.0898 C   0  0  0  0  0  0  0  0  0  0  0  0
   -2.7742    1.9866    2.4646 C   0  0  0  0  0  0  0  0  0  0  0  0
   -3.7369   -0.1582    3.3441 C   0  0  0  0  0  0  0  0  0  0  0  0
   -0.9264   -0.8280   -0.7426 C   0  0  0  0  0  0  0  0  0  0  0  0
   -0.1798   -1.6137   -0.0962 O   0  0  0  0  0  0  0  0  0  0  0  0
   -0.9335   -0.8901   -2.1828 N   0  0  0  0  0  0  0  0  0  0  0  0
   -1.8682   -0.1705   -3.0342 C   0  0  0  0  0  0  0  0  0  0  0  0
   -1.4227   -0.4450   -4.4654 C   0  0  0  0  0  0  0  0  0  0  0  0
   -0.4844   -1.6469   -4.3903 C   0  0  0  0  0  0  0  0  0  0  0  0
    0.0050   -1.7045   -2.9418 C   0  0  1  0  0  0  0  0  0  0  0  0
    1.3963   -1.1445   -2.7937 C   0  0  0  0  0  0  0  0  0  0  0  0
    1.6415    0.0322   -3.1774 O   0  0  0  0  0  0  0  0  0  0  0  0
    2.4214   -1.9234   -2.1621 N   0  0  0  0  0  0  0  0  0  0  0  0
    3.6175   -1.3114   -1.5894 C   0  0  0  0  0  0  0  0  0  0  0  0
    3.2550   -0.5531   -0.3410 C   0  0  0  0  0  0  0  0  0  0  0  0
    2.8922   -1.2501    0.8206 C   0  0  0  0  0  0  0  0  0  0  0  0
    2.4871   -0.5567    1.9643 C   0  0  0  0  0  0  0  0  0  0  0  0
    2.4377    0.8475    1.9666 C   0  0  0  0  0  0  0  0  0  0  0  0
    2.8129    1.5439    0.8033 C   0  0  0  0  0  0  0  0  0  0  0  0
    3.2100    0.8487   -0.3428 C   0  0  0  0  0  0  0  0  0  0  0  0
    1.9822    1.5759    3.1774 C   0  0  0  0  0  0  0  0  0  0  0  0
    2.3187    1.0889    4.4789 N   0  0  0  0  0  0  0  0  0  0  0  0
    1.2625    2.6505    3.0782 N   0  0  0  0  0  0  0  0  0  0  0  0
   -2.6535    0.4390   -0.5485 H   0  0  0  0  0  0  0  0  0  0  0  0
   -0.0077    1.2505    0.5377 H   0  0  0  0  0  0  0  0  0  0  0  0
   -0.7293    1.8074   -0.8766 H   0  0  0  0  0  0  0  0  0  0  0  0
   -2.4638   -1.3093    1.3318 H   0  0  0  0  0  0  0  0  0  0  0  0
   -1.2066   -0.2787    2.0810 H   0  0  0  0  0  0  0  0  0  0  0  0
   -4.0874    0.6501    1.3840 H   0  0  0  0  0  0  0  0  0  0  0  0
   -3.5461    2.4922    3.0834 H   0  0  0  0  0  0  0  0  0  0  0  0
   -2.6379    2.6060    1.5553 H   0  0  0  0  0  0  0  0  0  0  0  0
   -1.8231    1.9563    3.0385 H   0  0  0  0  0  0  0  0  0  0  0  0
   -4.5735    0.4073    3.8075 H   0  0  0  0  0  0  0  0  0  0  0  0
   -2.9195   -0.2660    4.0895 H   0  0  0  0  0  0  0  0  0  0  0  0
   -4.1168   -1.1680    3.0790 H   0  0  0  0  0  0  0  0  0  0  0  0
   -2.8970   -0.5568   -2.8671 H   0  0  0  0  0  0  0  0  0  0  0  0
   -1.8327    0.9198   -2.8263 H   0  0  0  0  0  0  0  0  0  0  0  0
   -2.2913   -0.6507   -5.1279 H   0  0  0  0  0  0  0  0  0  0  0  0
   -0.8653    0.4339   -4.8579 H   0  0  0  0  0  0  0  0  0  0  0  0
   -1.0608   -2.5704   -4.6194 H   0  0  0  0  0  0  0  0  0  0  0  0
    0.3454   -1.5607   -5.1265 H   0  0  0  0  0  0  0  0  0  0  0  0
   -0.0322   -2.7563   -2.5812 H   0  0  0  0  0  0  0  0  0  0  0  0
    2.2582   -2.9418   -1.9939 H   0  0  0  0  0  0  0  0  0  0  0  0
    4.3492   -2.1071   -1.3301 H   0  0  0  0  0  0  0  0  0  0  0  0
    4.1039   -0.6529   -2.3417 H   0  0  0  0  0  0  0  0  0  0  0  0
    2.9030   -2.3331    0.8328 H   0  0  0  0  0  0  0  0  0  0  0  0
    2.1840   -1.1216    2.8367 H   0  0  0  0  0  0  0  0  0  0  0  0
    2.8023    2.6261    0.7787 H   0  0  0  0  0  0  0  0  0  0  0  0
    3.4770    1.4051   -1.2326 H   0  0  0  0  0  0  0  0  0  0  0  0
    1.9610    1.5740    5.3319 H   0  0  0  0  0  0  0  0  0  0  0  0
    2.9650    0.2786    4.6031 H   0  0  0  0  0  0  0  0  0  0  0  0
    0.9598    3.0495    2.1620 H   0  0  0  0  0  0  0  0  0  0  0  0
  1  2  1  0
  1  3  1  0
  3  4  1  0
  4  5  1  0
  4  6  1  0
  1  7  1  0
  7  8  2  0
  7  9  1  0
  9 10  1  0
 10 11  1  0
 11 12  1  0
 12 13  1  0
 13 14  1  0
 14 15  2  0
 14 16  1  0
 16 17  1  0
 17 18  1  0
 18 19  2  0
 19 20  1  0
 20 21  2  0
 21 22  1  0
 22 23  2  0
 21 24  1  0
 24 25  1  0
 24 26  2  3
 13  9  1  0
 23 18  1  0
  1 27  1  6
  2 28  1  0
  2 29  1  0
  3 30  1  0
  3 31  1  0
  4 32  1  0
  5 33  1  0
  5 34  1  0
  5 35  1  0
  6 36  1  0
  6 37  1  0
  6 38  1  0
 10 39  1  0
 10 40  1  0
 11 41  1  0
 11 42  1  0
 12 43  1  0
 12 44  1  0
 13 45  1  1
 16 46  1  0
 17 47  1  0
 17 48  1  0
 19 49  1  0
 20 50  1  0
 22 51  1  0
 23 52  1  0
 25 53  1  0
 25 54  1  0
 26 55  1  0
M  END
$$$$
