
     RDKit          3D

 40 43  0  0  0  0  0  0  0  0999 V2000
   -4.0764   -1.9855    0.2333 C   0  0  0  0  0  0  0  0  0  0  0  0
   -3.0644   -0.9338    0.1345 N   0  0  0  0  0  0  0  0  0  0  0  0
   -1.7154   -1.0905    0.1423 C   0  0  0  0  0  0  0  0  0  0  0  0
   -1.0852    0.1019   -0.1456 C   0  0  0  0  0  0  0  0  0  0  0  0
   -2.0810    1.0371   -0.3331 C   0  0  0  0  0  0  0  0  0  0  0  0
   -2.0305    2.3864   -0.6837 C   0  0  0  0  0  0  0  0  0  0  0  0
   -3.2491    3.0656   -0.8549 C   0  0  0  0  0  0  0  0  0  0  0  0
   -4.4761    2.3885   -0.6879 C   0  0  0  0  0  0  0  0  0  0  0  0
   -4.4990    1.0248   -0.3446 C   0  0  0  0  0  0  0  0  0  0  0  0
   -3.2758    0.3708   -0.1627 C   0  0  0  0  0  0  0  0  0  0  0  0
    0.3655    0.1782   -0.3116 C   0  0  0  0  0  0  0  0  0  0  0  0
    0.9236    1.2456   -0.6823 O   0  0  0  0  0  0  0  0  0  0  0  0
    1.1295   -1.0215   -0.0726 N   0  0  0  0  0  0  0  0  0  0  0  0
    2.5489   -1.0840   -0.4369 C   0  0  0  0  0  0  0  0  0  0  0  0
    3.3767   -0.3590    0.5825 C   0  0  0  0  0  0  0  0  0  0  0  0
    4.2419    0.6938    0.3584 C   0  0  0  0  0  0  0  0  0  0  0  0
    4.5479    1.3527   -0.9490 C   0  0  0  0  0  0  0  0  0  0  0  0
    4.7908    1.0444    1.5320 N   0  0  0  0  0  0  0  0  0  0  0  0
    4.2568    0.2036    2.4385 C   0  0  0  0  0  0  0  0  0  0  0  0
    3.3864   -0.6739    1.8938 N   0  0  0  0  0  0  0  0  0  0  0  0
    0.5031   -2.1311    0.6770 C   0  0  0  0  0  0  0  0  0  0  0  0
   -0.9542   -2.3867    0.2300 C   0  0  0  0  0  0  0  0  0  0  0  0
   -3.7067   -2.8325    0.8455 H   0  0  0  0  0  0  0  0  0  0  0  0
   -4.9910   -1.5958    0.7261 H   0  0  0  0  0  0  0  0  0  0  0  0
   -4.3321   -2.3520   -0.7827 H   0  0  0  0  0  0  0  0  0  0  0  0
   -1.0896    2.9006   -0.8245 H   0  0  0  0  0  0  0  0  0  0  0  0
   -3.2462    4.1138   -1.1245 H   0  0  0  0  0  0  0  0  0  0  0  0
   -5.4071    2.9214   -0.8312 H   0  0  0  0  0  0  0  0  0  0  0  0
   -5.4419    0.5072   -0.2318 H   0  0  0  0  0  0  0  0  0  0  0  0
    2.6931   -0.6538   -1.4509 H   0  0  0  0  0  0  0  0  0  0  0  0
    2.8949   -2.1383   -0.4852 H   0  0  0  0  0  0  0  0  0  0  0  0
    5.2970    2.1598   -0.8082 H   0  0  0  0  0  0  0  0  0  0  0  0
    4.9573    0.6034   -1.6581 H   0  0  0  0  0  0  0  0  0  0  0  0
    3.6218    1.7935   -1.3723 H   0  0  0  0  0  0  0  0  0  0  0  0
    5.4860    1.8030    1.7095 H   0  0  0  0  0  0  0  0  0  0  0  0
    4.5006    0.2260    3.4924 H   0  0  0  0  0  0  0  0  0  0  0  0
    0.5047   -1.8719    1.7581 H   0  0  0  0  0  0  0  0  0  0  0  0
    1.0848   -3.0702    0.5568 H   0  0  0  0  0  0  0  0  0  0  0  0
   -1.4347   -3.0719    0.9581 H   0  0  0  0  0  0  0  0  0  0  0  0
   -0.9548   -2.8696   -0.7703 H   0  0  0  0  0  0  0  0  0  0  0  0
  1  2  1  0
  2  3  1  0
  3  4  2  0
  4  5  1  0
  5  6  2  0
  6  7  1  0
  7  8  2  0
  8  9  1  0
  9 10  2  0
  4 11  1  0
 11 12  2  0
 11 13  1  0
 13 14  1  0
 14 15  1  0
 15 16  2  0
 16 17  1  0
 16 18  1  0
 18 19  1  0
 19 20  2  0
 13 21  1  0
 21 22  1  0
 10  2  1  0
 20 15  1  0
 22  3  1  0
 10  5  1  0
  1 23  1  0
  1 24  1  0
  1 25  1  0
  6 26  1  0
  7 27  1  0
  8 28  1  0
  9 29  1  0
 14 30  1  0
 14 31  1  0
 17 32  1  0
 17 33  1  0
 17 34  1  0
 18 35  1  0
 19 36  1  0
 21 37  1  0
 21 38  1  0
 22 39  1  0
 22 40  1  0
M  END
$$$$
