
     RDKit          3D

 59 61  0  0  0  0  0  0  0  0999 V2000
    1.0362   -3.6715   -1.0803 O   0  0  0  0  0  0  0  0  0  0  0  0
    2.1148   -2.7660   -1.0271 C   0  0  2  0  0  0  0  0  0  0  0  0
    1.7154   -1.3243   -1.3363 C   0  0  1  0  0  0  0  0  0  0  0  0
    1.1874   -0.5901   -0.1007 C   0  0  0  0  0  0  0  0  0  0  0  0
    0.0167   -1.2250    0.3568 O   0  0  0  0  0  0  0  0  0  0  0  0
   -0.4901   -0.4474    1.7862 P   0  0  0  0  0  5  0  0  0  0  0  0
    0.6613   -0.7055    3.0013 O   0  0  0  0  0  0  0  0  0  0  0  0
   -1.8094   -1.0539    2.2120 O   0  0  0  0  0  0  0  0  0  0  0  0
   -0.6590    1.2233    1.4889 O   0  0  0  0  0  0  0  0  0  0  0  0
   -1.4365    1.9245    2.8332 P   0  0  0  0  0  5  0  0  0  0  0  0
   -1.3543    3.6090    2.6832 O   0  0  0  0  0  0  0  0  0  0  0  0
   -0.7394    1.5289    4.1166 O   0  0  0  0  0  0  0  0  0  0  0  0
   -3.0726    1.4349    2.9106 O   0  0  0  0  0  0  0  0  0  0  0  0
   -3.7412    1.8454    1.7361 C   0  0  1  0  0  0  0  0  0  0  0  0
   -3.3471    1.0142    0.6515 O   0  0  0  0  0  0  0  0  0  0  0  0
   -3.9055    1.4426   -0.5832 C   0  0  1  0  0  0  0  0  0  0  0  0
   -5.4618    1.4192   -0.5469 C   0  0  1  0  0  0  0  0  0  0  0  0
   -5.9500    0.1002   -0.6202 O   0  0  0  0  0  0  0  0  0  0  0  0
   -6.0252    2.1331    0.7038 C   0  0  2  0  0  0  0  0  0  0  0  0
   -5.9430    3.5268    0.5400 O   0  0  0  0  0  0  0  0  0  0  0  0
   -5.2580    1.7314    1.9748 C   0  0  1  0  0  0  0  0  0  0  0  0
   -5.6018    0.4194    2.3440 O   0  0  0  0  0  0  0  0  0  0  0  0
   -3.3064    2.7526   -1.0466 C   0  0  0  0  0  0  0  0  0  0  0  0
   -1.9895    3.0594   -0.7161 O   0  0  0  0  0  0  0  0  0  0  0  0
   -3.9582    3.5352   -1.7894 O   0  0  0  0  0  0  0  0  0  0  0  0
    2.8574   -0.6638   -1.8275 O   0  0  0  0  0  0  0  0  0  0  0  0
    3.6980   -1.6424   -2.4114 C   0  0  2  0  0  0  0  0  0  0  0  0
    3.1879   -3.0479   -2.0533 C   0  0  2  0  0  0  0  0  0  0  0  0
    2.6513   -3.6775   -3.1895 O   0  0  0  0  0  0  0  0  0  0  0  0
    5.0893   -1.4641   -1.9447 N   0  0  0  0  0  0  0  0  0  0  0  0
    5.3285   -1.1464   -0.6345 C   0  0  0  0  0  0  0  0  0  0  0  0
    6.6306   -1.0055   -0.1633 C   0  0  0  0  0  0  0  0  0  0  0  0
    7.6847   -1.2113   -1.0464 C   0  0  0  0  0  0  0  0  0  0  0  0
    8.8737   -1.0893   -0.6480 O   0  0  0  0  0  0  0  0  0  0  0  0
    7.4286   -1.5496   -2.3369 N   0  0  0  0  0  0  0  0  0  0  0  0
    6.1507   -1.6869   -2.7885 C   0  0  0  0  0  0  0  0  0  0  0  0
    5.9578   -2.0254   -3.9889 O   0  0  0  0  0  0  0  0  0  0  0  0
    0.5289   -3.5122   -1.9182 H   0  0  0  0  0  0  0  0  0  0  0  0
    2.5745   -2.8234   -0.0146 H   0  0  0  0  0  0  0  0  0  0  0  0
    0.9333   -1.2942   -2.1289 H   0  0  0  0  0  0  0  0  0  0  0  0
    0.9653    0.4598   -0.3973 H   0  0  0  0  0  0  0  0  0  0  0  0
    1.9813   -0.5879    0.6817 H   0  0  0  0  0  0  0  0  0  0  0  0
    0.7838   -1.6879    3.0283 H   0  0  0  0  0  0  0  0  0  0  0  0
   -1.8933    3.9567    3.4379 H   0  0  0  0  0  0  0  0  0  0  0  0
   -3.5240    2.9203    1.5305 H   0  0  0  0  0  0  0  0  0  0  0  0
   -3.5953    0.6998   -1.3494 H   0  0  0  0  0  0  0  0  0  0  0  0
   -5.8525    1.9370   -1.4496 H   0  0  0  0  0  0  0  0  0  0  0  0
   -5.4370   -0.4612    0.0162 H   0  0  0  0  0  0  0  0  0  0  0  0
   -7.0958    1.8481    0.8379 H   0  0  0  0  0  0  0  0  0  0  0  0
   -6.6712    3.7882   -0.0824 H   0  0  0  0  0  0  0  0  0  0  0  0
   -5.5500    2.4347    2.7912 H   0  0  0  0  0  0  0  0  0  0  0  0
   -5.4108    0.3297    3.3141 H   0  0  0  0  0  0  0  0  0  0  0  0
   -1.5600    3.9197   -1.0343 H   0  0  0  0  0  0  0  0  0  0  0  0
    3.6434   -1.4899   -3.5129 H   0  0  0  0  0  0  0  0  0  0  0  0
    3.9837   -3.6882   -1.6037 H   0  0  0  0  0  0  0  0  0  0  0  0
    3.4239   -3.9935   -3.7270 H   0  0  0  0  0  0  0  0  0  0  0  0
    4.5103   -1.0022    0.0602 H   0  0  0  0  0  0  0  0  0  0  0  0
    6.8136   -0.7462    0.8722 H   0  0  0  0  0  0  0  0  0  0  0  0
    8.2268   -1.7137   -2.9926 H   0  0  0  0  0  0  0  0  0  0  0  0
  1  2  1  0
  2  3  1  0
  3  4  1  0
  4  5  1  0
  5  6  1  0
  6  7  1  0
  6  8  2  0
  6  9  1  0
  9 10  1  0
 10 11  1  0
 10 12  2  0
 10 13  1  0
 13 14  1  0
 14 15  1  0
 15 16  1  0
 16 17  1  0
 17 18  1  0
 17 19  1  0
 19 20  1  0
 19 21  1  0
 21 22  1  0
 16 23  1  0
 23 24  1  0
 23 25  2  0
  3 26  1  0
 26 27  1  0
 27 28  1  0
 28 29  1  0
 27 30  1  0
 30 31  1  0
 31 32  2  0
 32 33  1  0
 33 34  2  0
 33 35  1  0
 35 36  1  0
 36 37  2  0
 28  2  1  0
 36 30  1  0
 21 14  1  0
  1 38  1  0
  2 39  1  1
  3 40  1  6
  4 41  1  0
  4 42  1  0
  7 43  1  0
 11 44  1  0
 14 45  1  6
 16 46  1  6
 17 47  1  6
 18 48  1  0
 19 49  1  1
 20 50  1  0
 21 51  1  1
 22 52  1  0
 24 53  1  0
 27 54  1  6
 28 55  1  1
 29 56  1  0
 31 57  1  0
 32 58  1  0
 35 59  1  0
M  END
$$$$
