
     RDKit          2D

225230  0  0  0  0  0  0  0  0999 V2000
   -4.7942  -16.7942    0.0000 C   0  0  0  0  0  0  0  0  0  0  0  0
   -4.7942  -15.2942    0.0000 C   0  0  0  0  0  0  0  0  0  0  0  0
   -4.7942  -13.7942    0.0000 N   0  0  0  0  0  0  0  0  0  0  0  0
   -3.4952  -13.0442    0.0000 C   0  0  0  0  0  0  0  0  0  0  0  0
   -2.1962  -13.7942    0.0000 N   0  0  0  0  0  0  0  0  0  0  0  0
   -2.1962  -15.2942    0.0000 C   0  0  0  0  0  0  0  0  0  0  0  0
   -2.1962  -16.7942    0.0000 C   0  0  0  0  0  0  0  0  0  0  0  0
   -3.4952  -11.5442    0.0000 N   0  0  0  0  0  0  0  0  0  0  0  0
   -2.1962  -10.7942    0.0000 C   0  0  0  0  0  0  0  0  0  0  0  0
   -0.8971  -10.0442    0.0000 C   0  0  0  0  0  0  0  0  0  0  0  0
    0.4019   -9.2942    0.0000 C   0  0  0  0  0  0  0  0  0  0  0  0
    1.7010   -8.5442    0.0000 C   0  0  0  0  0  0  0  0  0  0  0  0
    3.0000   -7.7942    0.0000 C   0  0  0  0  0  0  0  0  0  0  0  0
    2.2500   -6.4952    0.0000 N   0  0  0  0  0  0  0  0  0  0  0  0
    3.0000   -5.1962    0.0000 C   0  0  0  0  0  0  0  0  0  0  0  0
    4.4888   -5.0133    0.0000 O   0  0  0  0  0  0  0  0  0  0  0  0
    2.2500   -3.8971    0.0000 C   0  0  0  0  0  0  0  0  0  0  0  0
    1.5000   -2.5981    0.0000 C   0  0  0  0  0  0  0  0  0  0  0  0
    0.7500   -1.2990    0.0000 C   0  0  0  0  0  0  0  0  0  0  0  0
   -0.7500   -1.2990    0.0000 C   0  0  0  0  0  0  0  0  0  0  0  0
   -1.5000    0.0000    0.0000 C   0  0  0  0  0  0  0  0  0  0  0  0
   -0.7500    1.2990    0.0000 C   0  0  0  0  0  0  0  0  0  0  0  0
   -1.5000    2.5981    0.0000 O   0  0  0  0  0  0  0  0  0  0  0  0
    0.7500    1.2990    0.0000 C   0  0  0  0  0  0  0  0  0  0  0  0
    1.5000    0.0000    0.0000 C   0  0  0  0  0  0  0  0  0  0  0  0
    0.9510   -4.6471    0.0000 N   0  0  0  0  0  0  0  0  0  0  0  0
   -0.3481   -3.8971    0.0000 C   0  0  0  0  0  0  0  0  0  0  0  0
   -1.5460   -4.7999    0.0000 O   0  0  0  0  0  0  0  0  0  0  0  0
   -0.3481   -2.3971    0.0000 C   0  0  0  0  0  0  0  0  0  0  0  0
   -0.3481   -0.8971    0.0000 C   0  0  0  0  0  0  0  0  0  0  0  0
   -0.3481    0.6029    0.0000 O   0  0  0  0  0  0  0  0  0  0  0  0
   -1.8481   -2.3971    0.0000 N   0  0  0  0  0  0  0  0  0  0  0  0
   -2.5981   -3.6962    0.0000 C   0  0  0  0  0  0  0  0  0  0  0  0
   -1.6953   -4.8941    0.0000 O   0  0  0  0  0  0  0  0  0  0  0  0
   -4.0981   -3.6962    0.0000 C   0  0  0  0  0  0  0  0  0  0  0  0
   -5.5981   -3.6962    0.0000 C   0  0  0  0  0  0  0  0  0  0  0  0
   -7.0981   -3.6962    0.0000 C   0  0  0  0  0  0  0  0  0  0  0  0
   -7.8481   -4.9952    0.0000 C   0  0  0  0  0  0  0  0  0  0  0  0
   -9.3481   -4.9952    0.0000 C   0  0  0  0  0  0  0  0  0  0  0  0
  -10.0981   -3.6962    0.0000 C   0  0  0  0  0  0  0  0  0  0  0  0
   -9.3481   -2.3971    0.0000 N   0  0  0  0  0  0  0  0  0  0  0  0
   -7.8481   -2.3971    0.0000 C   0  0  0  0  0  0  0  0  0  0  0  0
   -4.0981   -5.1962    0.0000 N   0  0  0  0  0  0  0  0  0  0  0  0
   -2.7990   -5.9462    0.0000 C   0  0  0  0  0  0  0  0  0  0  0  0
   -1.4183   -5.3601    0.0000 O   0  0  0  0  0  0  0  0  0  0  0  0
   -2.7990   -7.4462    0.0000 C   0  0  0  0  0  0  0  0  0  0  0  0
   -2.7990   -8.9462    0.0000 C   0  0  0  0  0  0  0  0  0  0  0  0
   -2.7990  -10.4462    0.0000 C   0  0  0  0  0  0  0  0  0  0  0  0
   -1.5000  -11.1962    0.0000 C   0  0  0  0  0  0  0  0  0  0  0  0
   -1.5000  -12.6962    0.0000 C   0  0  0  0  0  0  0  0  0  0  0  0
   -2.7990  -13.4462    0.0000 C   0  0  0  0  0  0  0  0  0  0  0  0
   -2.9819  -14.9350    0.0000 Cl  0  0  0  0  0  0  0  0  0  0  0  0
   -4.0981  -12.6962    0.0000 C   0  0  0  0  0  0  0  0  0  0  0  0
   -4.0981  -11.1962    0.0000 C   0  0  0  0  0  0  0  0  0  0  0  0
   -1.2990   -7.4462    0.0000 N   0  0  0  0  0  0  0  0  0  0  0  0
   -0.5490   -6.1471    0.0000 C   0  0  0  0  0  0  0  0  0  0  0  0
   -1.1351   -4.7663    0.0000 O   0  0  0  0  0  0  0  0  0  0  0  0
    0.9510   -6.1471    0.0000 C   0  0  0  0  0  0  0  0  0  0  0  0
    2.4510   -6.1471    0.0000 C   0  0  0  0  0  0  0  0  0  0  0  0
    3.9510   -6.1471    0.0000 C   0  0  0  0  0  0  0  0  0  0  0  0
    4.7010   -4.8481    0.0000 C   0  0  0  0  0  0  0  0  0  0  0  0
    6.2010   -4.8481    0.0000 C   0  0  0  0  0  0  0  0  0  0  0  0
    6.9510   -3.5490    0.0000 C   0  0  0  0  0  0  0  0  0  0  0  0
    8.4510   -3.5490    0.0000 C   0  0  0  0  0  0  0  0  0  0  0  0
    9.2010   -4.8481    0.0000 C   0  0  0  0  0  0  0  0  0  0  0  0
    8.4510   -6.1471    0.0000 C   0  0  0  0  0  0  0  0  0  0  0  0
    6.9510   -6.1471    0.0000 C   0  0  0  0  0  0  0  0  0  0  0  0
    6.2010   -7.4462    0.0000 C   0  0  0  0  0  0  0  0  0  0  0  0
    4.7010   -7.4462    0.0000 C   0  0  0  0  0  0  0  0  0  0  0  0
    0.9510   -7.6471    0.0000 N   0  0  0  0  0  0  0  0  0  0  0  0
   -0.3481   -8.3971    0.0000 C   0  0  0  0  0  0  0  0  0  0  0  0
   -0.3481   -9.8971    0.0000 C   0  0  0  0  0  0  0  0  0  0  0  0
   -1.7900   -7.9837    0.0000 O   0  0  0  0  0  0  0  0  0  0  0  0
    4.2990   -7.0442    0.0000 C   0  0  0  0  0  0  0  0  0  0  0  0
    4.8367   -5.6439    0.0000 O   0  0  0  0  0  0  0  0  0  0  0  0
    5.5981   -7.7942    0.0000 N   0  0  0  0  0  0  0  0  0  0  0  0
    6.8971   -7.0442    0.0000 C   0  0  0  0  0  0  0  0  0  0  0  0
    7.6471   -8.3433    0.0000 C   0  0  0  0  0  0  0  0  0  0  0  0
    8.3971   -9.6423    0.0000 C   0  0  0  0  0  0  0  0  0  0  0  0
    9.1471  -10.9413    0.0000 C   0  0  0  0  0  0  0  0  0  0  0  0
    9.6962   -8.8923    0.0000 C   0  0  0  0  0  0  0  0  0  0  0  0
    6.1471   -5.7452    0.0000 C   0  0  0  0  0  0  0  0  0  0  0  0
    4.6583   -5.9280    0.0000 O   0  0  0  0  0  0  0  0  0  0  0  0
    6.8971   -4.4462    0.0000 N   0  0  0  0  0  0  0  0  0  0  0  0
    6.1471   -3.1471    0.0000 C   0  0  0  0  0  0  0  0  0  0  0  0
    7.4462   -2.3971    0.0000 C   0  0  0  0  0  0  0  0  0  0  0  0
    8.7452   -1.6471    0.0000 C   0  0  0  0  0  0  0  0  0  0  0  0
   10.0442   -0.8971    0.0000 C   0  0  0  0  0  0  0  0  0  0  0  0
   11.3433   -0.1471    0.0000 C   0  0  0  0  0  0  0  0  0  0  0  0
   12.6423    0.6029    0.0000 N   0  0  0  0  0  0  0  0  0  0  0  0
   13.9413   -0.1471    0.0000 C   0  0  0  0  0  0  0  0  0  0  0  0
   15.2404    0.6029    0.0000 N   0  0  0  0  0  0  0  0  0  0  0  0
   16.5394   -0.1471    0.0000 C   0  0  0  0  0  0  0  0  0  0  0  0
   17.8385   -0.8971    0.0000 C   0  0  0  0  0  0  0  0  0  0  0  0
   13.9413   -1.6471    0.0000 N   0  0  0  0  0  0  0  0  0  0  0  0
   15.2404   -2.3971    0.0000 C   0  0  0  0  0  0  0  0  0  0  0  0
   16.5394   -3.1471    0.0000 C   0  0  0  0  0  0  0  0  0  0  0  0
    4.8481   -3.8971    0.0000 C   0  0  0  0  0  0  0  0  0  0  0  0
    5.3857   -5.2974    0.0000 O   0  0  0  0  0  0  0  0  0  0  0  0
    3.5490   -3.1471    0.0000 N   0  0  0  0  0  0  0  0  0  0  0  0
    2.1787   -3.7572    0.0000 C   0  0  0  0  0  0  0  0  0  0  0  0
    1.1750   -2.6425    0.0000 C   0  0  0  0  0  0  0  0  0  0  0  0
    1.9250   -1.3435    0.0000 C   0  0  0  0  0  0  0  0  0  0  0  0
    3.3922   -1.6553    0.0000 C   0  0  0  0  0  0  0  0  0  0  0  0
    3.5490   -0.1635    0.0000 C   0  0  0  0  0  0  0  0  0  0  0  0
    2.3355    0.7181    0.0000 O   0  0  0  0  0  0  0  0  0  0  0  0
    4.9194    0.4466    0.0000 N   0  0  0  0  0  0  0  0  0  0  0  0
    5.0761    1.9383    0.0000 C   0  0  0  0  0  0  0  0  0  0  0  0
    6.5679    1.7815    0.0000 C   0  0  0  0  0  0  0  0  0  0  0  0
    3.5844    2.0951    0.0000 C   0  0  0  0  0  0  0  0  0  0  0  0
    2.9743    3.4655    0.0000 N   0  0  0  0  0  0  0  0  0  0  0  0
    2.4352    1.1310    0.0000 O   0  0  0  0  0  0  0  0  0  0  0  0
   -4.7942  -18.2942    0.0000 H   0  0  0  0  0  0  0  0  0  0  0  0
   -6.2942  -16.7942    0.0000 H   0  0  0  0  0  0  0  0  0  0  0  0
   -3.3054  -16.9771    0.0000 H   0  0  0  0  0  0  0  0  0  0  0  0
   -3.2942  -15.2942    0.0000 H   0  0  0  0  0  0  0  0  0  0  0  0
   -6.2942  -15.2942    0.0000 H   0  0  0  0  0  0  0  0  0  0  0  0
   -6.1750  -13.2082    0.0000 H   0  0  0  0  0  0  0  0  0  0  0  0
   -0.7146  -13.5597    0.0000 H   0  0  0  0  0  0  0  0  0  0  0  0
   -3.6850  -15.1114    0.0000 H   0  0  0  0  0  0  0  0  0  0  0  0
   -0.6962  -15.2942    0.0000 H   0  0  0  0  0  0  0  0  0  0  0  0
   -2.1962  -18.2942    0.0000 H   0  0  0  0  0  0  0  0  0  0  0  0
   -0.6962  -16.7942    0.0000 H   0  0  0  0  0  0  0  0  0  0  0  0
   -3.6850  -16.9771    0.0000 H   0  0  0  0  0  0  0  0  0  0  0  0
   -3.2382   -9.7153    0.0000 H   0  0  0  0  0  0  0  0  0  0  0  0
   -1.7828  -12.2361    0.0000 H   0  0  0  0  0  0  0  0  0  0  0  0
   -1.4832   -8.6635    0.0000 H   0  0  0  0  0  0  0  0  0  0  0  0
   -0.1471  -11.3433    0.0000 H   0  0  0  0  0  0  0  0  0  0  0  0
   -0.7639   -8.3503    0.0000 H   0  0  0  0  0  0  0  0  0  0  0  0
    1.3047  -10.4922    0.0000 H   0  0  0  0  0  0  0  0  0  0  0  0
    0.5352   -7.6003    0.0000 H   0  0  0  0  0  0  0  0  0  0  0  0
    2.4510   -9.8433    0.0000 H   0  0  0  0  0  0  0  0  0  0  0  0
    3.5861   -9.1750    0.0000 H   0  0  0  0  0  0  0  0  0  0  0  0
    0.7946   -6.8582    0.0000 H   0  0  0  0  0  0  0  0  0  0  0  0
    3.1939   -2.7313    0.0000 H   0  0  0  0  0  0  0  0  0  0  0  0
    0.1192   -3.1841    0.0000 H   0  0  0  0  0  0  0  0  0  0  0  0
    2.5790   -1.5560    0.0000 H   0  0  0  0  0  0  0  0  0  0  0  0
   -1.7920   -2.3780    0.0000 H   0  0  0  0  0  0  0  0  0  0  0  0
   -3.0000    0.0000    0.0000 H   0  0  0  0  0  0  0  0  0  0  0  0
   -0.7500    3.8971    0.0000 H   0  0  0  0  0  0  0  0  0  0  0  0
    1.5000    2.5981    0.0000 H   0  0  0  0  0  0  0  0  0  0  0  0
    2.9003    0.5377    0.0000 H   0  0  0  0  0  0  0  0  0  0  0  0
    1.1338   -6.1359    0.0000 H   0  0  0  0  0  0  0  0  0  0  0  0
    0.9763   -1.6928    0.0000 H   0  0  0  0  0  0  0  0  0  0  0  0
    1.0523   -0.3594    0.0000 H   0  0  0  0  0  0  0  0  0  0  0  0
   -1.8369   -0.7143    0.0000 H   0  0  0  0  0  0  0  0  0  0  0  0
   -1.6471    1.3529    0.0000 H   0  0  0  0  0  0  0  0  0  0  0  0
   -2.7508   -1.1992    0.0000 H   0  0  0  0  0  0  0  0  0  0  0  0
   -4.0981   -2.1962    0.0000 H   0  0  0  0  0  0  0  0  0  0  0  0
   -5.7809   -5.1850    0.0000 H   0  0  0  0  0  0  0  0  0  0  0  0
   -5.5981   -2.1962    0.0000 H   0  0  0  0  0  0  0  0  0  0  0  0
   -7.0981   -6.2942    0.0000 H   0  0  0  0  0  0  0  0  0  0  0  0
  -10.0981   -6.2942    0.0000 H   0  0  0  0  0  0  0  0  0  0  0  0
  -11.5981   -3.6962    0.0000 H   0  0  0  0  0  0  0  0  0  0  0  0
   -7.0981   -1.0981    0.0000 H   0  0  0  0  0  0  0  0  0  0  0  0
   -5.2960   -6.0989    0.0000 H   0  0  0  0  0  0  0  0  0  0  0  0
   -4.2990   -7.4462    0.0000 H   0  0  0  0  0  0  0  0  0  0  0  0
   -1.2990   -8.9462    0.0000 H   0  0  0  0  0  0  0  0  0  0  0  0
   -4.2990   -8.9462    0.0000 H   0  0  0  0  0  0  0  0  0  0  0  0
   -0.0184  -10.9616    0.0000 H   0  0  0  0  0  0  0  0  0  0  0  0
   -0.1192  -13.2822    0.0000 H   0  0  0  0  0  0  0  0  0  0  0  0
   -5.5796  -12.9307    0.0000 H   0  0  0  0  0  0  0  0  0  0  0  0
   -5.3971  -10.4462    0.0000 H   0  0  0  0  0  0  0  0  0  0  0  0
   -0.8857   -8.8881    0.0000 H   0  0  0  0  0  0  0  0  0  0  0  0
    1.1338   -4.6583    0.0000 H   0  0  0  0  0  0  0  0  0  0  0  0
    2.9886   -7.5474    0.0000 H   0  0  0  0  0  0  0  0  0  0  0  0
    3.3115   -4.9185    0.0000 H   0  0  0  0  0  0  0  0  0  0  0  0
    3.7982   -3.6501    0.0000 H   0  0  0  0  0  0  0  0  0  0  0  0
    6.3649   -2.1683    0.0000 H   0  0  0  0  0  0  0  0  0  0  0  0
    9.6168   -2.6052    0.0000 H   0  0  0  0  0  0  0  0  0  0  0  0
   10.7010   -4.8481    0.0000 H   0  0  0  0  0  0  0  0  0  0  0  0
    9.3537   -7.3450    0.0000 H   0  0  0  0  0  0  0  0  0  0  0  0
    6.7870   -8.8269    0.0000 H   0  0  0  0  0  0  0  0  0  0  0  0
    4.1149   -8.8269    0.0000 H   0  0  0  0  0  0  0  0  0  0  0  0
    1.8948   -8.8129    0.0000 H   0  0  0  0  0  0  0  0  0  0  0  0
   -0.1652  -11.3859    0.0000 H   0  0  0  0  0  0  0  0  0  0  0  0
   -1.8481   -9.8971    0.0000 H   0  0  0  0  0  0  0  0  0  0  0  0
    1.1407  -10.0800    0.0000 H   0  0  0  0  0  0  0  0  0  0  0  0
    5.4152   -9.2830    0.0000 H   0  0  0  0  0  0  0  0  0  0  0  0
    8.3390   -6.6309    0.0000 H   0  0  0  0  0  0  0  0  0  0  0  0
    9.0279   -7.7572    0.0000 H   0  0  0  0  0  0  0  0  0  0  0  0
    6.5682   -9.3853    0.0000 H   0  0  0  0  0  0  0  0  0  0  0  0
    7.0981  -10.3923    0.0000 H   0  0  0  0  0  0  0  0  0  0  0  0
    9.8971  -12.2404    0.0000 H   0  0  0  0  0  0  0  0  0  0  0  0
    7.7663  -11.5274    0.0000 H   0  0  0  0  0  0  0  0  0  0  0  0
    7.9492  -11.8441    0.0000 H   0  0  0  0  0  0  0  0  0  0  0  0
   10.9952   -8.1423    0.0000 H   0  0  0  0  0  0  0  0  0  0  0  0
   10.2822  -10.2731    0.0000 H   0  0  0  0  0  0  0  0  0  0  0  0
   10.5989  -10.0902    0.0000 H   0  0  0  0  0  0  0  0  0  0  0  0
    8.3859   -4.6290    0.0000 H   0  0  0  0  0  0  0  0  0  0  0  0
    5.3971   -1.8481    0.0000 H   0  0  0  0  0  0  0  0  0  0  0  0
    6.8601   -1.0163    0.0000 H   0  0  0  0  0  0  0  0  0  0  0  0
    8.6119   -3.3410    0.0000 H   0  0  0  0  0  0  0  0  0  0  0  0
    7.9952   -0.3481    0.0000 H   0  0  0  0  0  0  0  0  0  0  0  0
    9.6479   -2.8450    0.0000 H   0  0  0  0  0  0  0  0  0  0  0  0
   10.7942   -2.1962    0.0000 H   0  0  0  0  0  0  0  0  0  0  0  0
    9.2942    0.4019    0.0000 H   0  0  0  0  0  0  0  0  0  0  0  0
   10.5933    1.1519    0.0000 H   0  0  0  0  0  0  0  0  0  0  0  0
   12.0933   -1.4462    0.0000 H   0  0  0  0  0  0  0  0  0  0  0  0
   15.2404    2.1029    0.0000 H   0  0  0  0  0  0  0  0  0  0  0  0
   15.6367   -1.3450    0.0000 H   0  0  0  0  0  0  0  0  0  0  0  0
   17.2894    1.1519    0.0000 H   0  0  0  0  0  0  0  0  0  0  0  0
   19.1375   -1.6471    0.0000 H   0  0  0  0  0  0  0  0  0  0  0  0
   17.2524   -2.2779    0.0000 H   0  0  0  0  0  0  0  0  0  0  0  0
   18.5885    0.4019    0.0000 H   0  0  0  0  0  0  0  0  0  0  0  0
   12.6423   -2.3971    0.0000 H   0  0  0  0  0  0  0  0  0  0  0  0
   15.8264   -1.0163    0.0000 H   0  0  0  0  0  0  0  0  0  0  0  0
   14.4904   -3.6962    0.0000 H   0  0  0  0  0  0  0  0  0  0  0  0
   17.8385   -3.8971    0.0000 H   0  0  0  0  0  0  0  0  0  0  0  0
   15.7894   -4.4462    0.0000 H   0  0  0  0  0  0  0  0  0  0  0  0
   17.4422   -1.9492    0.0000 H   0  0  0  0  0  0  0  0  0  0  0  0
    3.3445   -4.7011    0.0000 H   0  0  0  0  0  0  0  0  0  0  0  0
    0.7298   -4.1453    0.0000 H   0  0  0  0  0  0  0  0  0  0  0  0
   -0.1615   -3.3234    0.0000 H   0  0  0  0  0  0  0  0  0  0  0  0
    0.2109   -1.4934    0.0000 H   0  0  0  0  0  0  0  0  0  0  0  0
    0.8644   -0.2827    0.0000 H   0  0  0  0  0  0  0  0  0  0  0  0
    2.2112    0.1290    0.0000 H   0  0  0  0  0  0  0  0  0  0  0  0
    4.8811   -1.4725    0.0000 H   0  0  0  0  0  0  0  0  0  0  0  0
    6.1329   -0.4351    0.0000 H   0  0  0  0  0  0  0  0  0  0  0  0
    5.2329    3.4301    0.0000 H   0  0  0  0  0  0  0  0  0  0  0  0
    8.0597    1.6248    0.0000 H   0  0  0  0  0  0  0  0  0  0  0  0
    6.7247    3.2733    0.0000 H   0  0  0  0  0  0  0  0  0  0  0  0
    6.5942    0.2818    0.0000 H   0  0  0  0  0  0  0  0  0  0  0  0
    1.4825    3.6222    0.0000 H   0  0  0  0  0  0  0  0  0  0  0  0
    3.8559    4.6790    0.0000 H   0  0  0  0  0  0  0  0  0  0  0  0
  1  2  1  0
  2  3  1  0
  3  4  1  0
  4  5  1  0
  5  6  1  0
  6  7  1  0
  4  8  2  3
  8  9  1  0
  9 10  1  0
 10 11  1  0
 11 12  1  0
 12 13  1  0
 13 14  1  0
 14 15  1  0
 15 16  2  0
 15 17  1  0
 17 18  1  0
 18 19  1  0
 19 20  2  0
 20 21  1  0
 21 22  2  0
 22 23  1  0
 22 24  1  0
 24 25  2  0
 17 26  1  0
 26 27  1  0
 27 28  2  0
 27 29  1  0
 29 30  1  0
 30 31  1  0
 29 32  1  0
 32 33  1  0
 33 34  2  0
 33 35  1  0
 35 36  1  0
 36 37  1  0
 37 38  2  0
 38 39  1  0
 39 40  2  0
 40 41  1  0
 41 42  2  0
 35 43  1  0
 43 44  1  0
 44 45  2  0
 44 46  1  0
 46 47  1  0
 47 48  1  0
 48 49  2  0
 49 50  1  0
 50 51  2  0
 51 52  1  0
 51 53  1  0
 53 54  2  0
 46 55  1  0
 55 56  1  0
 56 57  2  0
 56 58  1  0
 58 59  1  0
 59 60  1  0
 60 61  2  0
 61 62  1  0
 62 63  2  0
 63 64  1  0
 64 65  2  0
 65 66  1  0
 66 67  2  0
 67 68  1  0
 68 69  2  0
 58 70  1  0
 70 71  1  0
 71 72  1  0
 71 73  2  0
 13 74  1  0
 74 75  2  0
 74 76  1  0
 76 77  1  0
 77 78  1  0
 78 79  1  0
 79 80  1  0
 79 81  1  0
 77 82  1  0
 82 83  2  0
 82 84  1  0
 84 85  1  0
 85 86  1  0
 86 87  1  0
 87 88  1  0
 88 89  1  0
 89 90  1  0
 90 91  2  3
 91 92  1  0
 92 93  1  0
 93 94  1  0
 91 95  1  0
 95 96  1  0
 96 97  1  0
 85 98  1  0
 98 99  2  0
 98100  1  0
100101  1  0
101102  1  0
102103  1  0
103104  1  0
104105  1  0
105106  2  0
105107  1  0
107108  1  0
108109  1  0
108110  1  0
110111  1  0
110112  2  0
 25 19  1  0
 42 37  1  0
 54 48  1  0
 69 60  1  0
104100  1  0
 67 62  1  0
  1113  1  0
  1114  1  0
  1115  1  0
  2116  1  0
  2117  1  0
  3118  1  0
  5119  1  0
  6120  1  0
  6121  1  0
  7122  1  0
  7123  1  0
  7124  1  0
  9125  1  0
  9126  1  0
 10127  1  0
 10128  1  0
 11129  1  0
 11130  1  0
 12131  1  0
 12132  1  0
 13133  1  6
 14134  1  0
 17135  1  6
 18136  1  0
 18137  1  0
 20138  1  0
 21139  1  0
 23140  1  0
 24141  1  0
 25142  1  0
 26143  1  0
 29144  1  6
 30145  1  0
 30146  1  0
 31147  1  0
 32148  1  0
 35149  1  1
 36150  1  0
 36151  1  0
 38152  1  0
 39153  1  0
 40154  1  0
 42155  1  0
 43156  1  0
 46157  1  1
 47158  1  0
 47159  1  0
 49160  1  0
 50161  1  0
 53162  1  0
 54163  1  0
 55164  1  0
 58165  1  6
 59166  1  0
 59167  1  0
 61168  1  0
 63169  1  0
 64170  1  0
 65171  1  0
 66172  1  0
 68173  1  0
 69174  1  0
 70175  1  0
 72176  1  0
 72177  1  0
 72178  1  0
 76179  1  0
 77180  1  1
 78181  1  0
 78182  1  0
 79183  1  0
 80184  1  0
 80185  1  0
 80186  1  0
 81187  1  0
 81188  1  0
 81189  1  0
 84190  1  0
 85191  1  1
 86192  1  0
 86193  1  0
 87194  1  0
 87195  1  0
 88196  1  0
 88197  1  0
 89198  1  0
 89199  1  0
 92200  1  0
 93201  1  0
 93202  1  0
 94203  1  0
 94204  1  0
 94205  1  0
 95206  1  0
 96207  1  0
 96208  1  0
 97209  1  0
 97210  1  0
 97211  1  0
101212  1  0
101213  1  0
102214  1  0
102215  1  0
103216  1  0
103217  1  0
104218  1  6
107219  1  0
108220  1  6
109221  1  0
109222  1  0
109223  1  0
111224  1  0
111225  1  0
M  END
$$$$
