
     RDKit          3D

 57 60  0  0  0  0  0  0  0  0999 V2000
   -0.6074    0.7143   -0.7065 C   0  0  2  0  0  0  0  0  0  0  0  0
   -1.4964    1.9233   -0.9823 C   0  0  0  0  0  0  0  0  0  0  0  0
   -2.9310    1.3464   -1.0687 C   0  0  1  0  0  0  0  0  0  0  0  0
   -3.5921    1.6381   -2.4252 C   0  0  0  0  0  0  0  0  0  0  0  0
   -2.8228   -0.1844   -0.7298 C   0  0  2  0  0  0  0  0  0  0  0  0
   -2.6790   -0.8876   -1.9511 O   0  0  0  0  0  0  0  0  0  0  0  0
   -4.0701   -0.6818    0.0280 C   0  0  0  0  0  0  0  0  0  0  0  0
   -4.5925    0.0317    0.8739 O   0  0  0  0  0  0  0  0  0  0  0  0
   -4.6754   -2.0411   -0.2393 C   0  0  0  0  0  0  0  0  0  0  0  0
   -5.7808   -2.2801    0.5914 O   0  0  0  0  0  0  0  0  0  0  0  0
   -1.4894   -0.2483    0.1031 C   0  0  2  0  0  0  0  0  0  0  0  0
   -1.7520    0.2510    1.5665 C   0  0  0  0  0  0  0  0  0  0  0  0
   -0.7662   -1.6247    0.1421 C   0  0  0  0  0  0  0  0  0  0  0  0
    0.6787   -1.5363    0.7143 C   0  0  2  0  0  0  0  0  0  0  0  0
    0.6420   -1.3542    2.1039 O   0  0  0  0  0  0  0  0  0  0  0  0
    1.5497   -0.4343    0.0019 C   0  0  1  0  0  0  0  0  0  0  0  0
    1.7129   -0.8851   -1.3054 F   0  0  0  0  0  0  0  0  0  0  0  0
    0.7917    0.9445   -0.0825 C   0  0  1  0  0  0  0  0  0  0  0  0
    1.5949    1.9584   -0.9267 C   0  0  0  0  0  0  0  0  0  0  0  0
    3.0004    2.1709   -0.3662 C   0  0  2  0  0  0  0  0  0  0  0  0
    3.6780    3.0540   -1.1931 F   0  0  0  0  0  0  0  0  0  0  0  0
    3.7109    0.8386   -0.2409 C   0  0  0  0  0  0  0  0  0  0  0  0
    4.9200    0.6576   -0.8029 C   0  0  0  0  0  0  0  0  0  0  0  0
    5.5996   -0.6349   -0.7309 C   0  0  0  0  0  0  0  0  0  0  0  0
    6.7389   -0.7815   -1.2466 O   0  0  0  0  0  0  0  0  0  0  0  0
    4.9429   -1.7591   -0.0723 C   0  0  0  0  0  0  0  0  0  0  0  0
    3.7514   -1.6041    0.5039 C   0  0  0  0  0  0  0  0  0  0  0  0
    3.0158   -0.2639    0.5823 C   0  0  2  0  0  0  0  0  0  0  0  0
    3.0637    0.1716    2.0693 C   0  0  0  0  0  0  0  0  0  0  0  0
   -0.4247    0.2586   -1.7098 H   0  0  0  0  0  0  0  0  0  0  0  0
   -1.1843    2.4324   -1.9211 H   0  0  0  0  0  0  0  0  0  0  0  0
   -1.4223    2.6528   -0.1457 H   0  0  0  0  0  0  0  0  0  0  0  0
   -3.5409    1.8761   -0.3044 H   0  0  0  0  0  0  0  0  0  0  0  0
   -3.7217    2.7339   -2.5525 H   0  0  0  0  0  0  0  0  0  0  0  0
   -4.5933    1.1592   -2.4691 H   0  0  0  0  0  0  0  0  0  0  0  0
   -2.9694    1.2595   -3.2638 H   0  0  0  0  0  0  0  0  0  0  0  0
   -2.6338   -1.8597   -1.7716 H   0  0  0  0  0  0  0  0  0  0  0  0
   -3.9126   -2.8205   -0.0329 H   0  0  0  0  0  0  0  0  0  0  0  0
   -4.9782   -2.1191   -1.3080 H   0  0  0  0  0  0  0  0  0  0  0  0
   -6.5436   -1.7775    0.2016 H   0  0  0  0  0  0  0  0  0  0  0  0
   -0.8376    0.4768    2.1383 H   0  0  0  0  0  0  0  0  0  0  0  0
   -2.3507    1.1831    1.5909 H   0  0  0  0  0  0  0  0  0  0  0  0
   -2.3031   -0.5236    2.1408 H   0  0  0  0  0  0  0  0  0  0  0  0
   -0.6674   -2.0426   -0.8811 H   0  0  0  0  0  0  0  0  0  0  0  0
   -1.3663   -2.3523    0.7305 H   0  0  0  0  0  0  0  0  0  0  0  0
    1.1482   -2.5243    0.5033 H   0  0  0  0  0  0  0  0  0  0  0  0
    0.3464   -2.2136    2.5039 H   0  0  0  0  0  0  0  0  0  0  0  0
    0.6744    1.3913    0.9216 H   0  0  0  0  0  0  0  0  0  0  0  0
    1.0737    2.9401   -0.9301 H   0  0  0  0  0  0  0  0  0  0  0  0
    1.6677    1.6104   -1.9812 H   0  0  0  0  0  0  0  0  0  0  0  0
    2.9296    2.6416    0.6372 H   0  0  0  0  0  0  0  0  0  0  0  0
    5.4110    1.4558   -1.3451 H   0  0  0  0  0  0  0  0  0  0  0  0
    5.4309   -2.7257   -0.0470 H   0  0  0  0  0  0  0  0  0  0  0  0
    3.3364   -2.4607    1.0189 H   0  0  0  0  0  0  0  0  0  0  0  0
    2.8391   -0.6682    2.7586 H   0  0  0  0  0  0  0  0  0  0  0  0
    4.0886    0.5149    2.3314 H   0  0  0  0  0  0  0  0  0  0  0  0
    2.3676    1.0024    2.2928 H   0  0  0  0  0  0  0  0  0  0  0  0
  1  2  1  0
  2  3  1  0
  3  4  1  0
  3  5  1  0
  5  6  1  6
  5  7  1  0
  7  8  2  0
  7  9  1  0
  9 10  1  0
  5 11  1  0
 11 12  1  1
 11 13  1  0
 13 14  1  0
 14 15  1  0
 14 16  1  0
 16 17  1  6
 16 18  1  0
 18 19  1  0
 19 20  1  0
 20 21  1  0
 20 22  1  0
 22 23  2  0
 23 24  1  0
 24 25  2  0
 24 26  1  0
 26 27  2  0
 27 28  1  0
 28 29  1  1
 11  1  1  0
 28 16  1  0
 18  1  1  0
 28 22  1  0
  1 30  1  6
  2 31  1  0
  2 32  1  0
  3 33  1  1
  4 34  1  0
  4 35  1  0
  4 36  1  0
  6 37  1  0
  9 38  1  0
  9 39  1  0
 10 40  1  0
 12 41  1  0
 12 42  1  0
 12 43  1  0
 13 44  1  0
 13 45  1  0
 14 46  1  1
 15 47  1  0
 18 48  1  1
 19 49  1  0
 19 50  1  0
 20 51  1  1
 23 52  1  0
 26 53  1  0
 27 54  1  0
 29 55  1  0
 29 56  1  0
 29 57  1  0
M  END
$$$$
