
     RDKit          3D

 62 64  0  0  0  0  0  0  0  0999 V2000
   -0.6336    1.8961   -1.4985 C   0  0  1  0  0  0  0  0  0  0  0  0
   -1.8751    0.9662   -1.3849 C   0  0  2  0  0  0  0  0  0  0  0  0
   -2.9362    1.5989   -0.4896 C   0  0  0  0  0  0  0  0  0  0  0  0
   -3.4432    2.8871   -1.1513 C   0  0  0  0  0  0  0  0  0  0  0  0
   -2.3223    3.7556   -1.6660 C   0  0  0  0  0  0  0  0  0  0  0  0
   -1.0689    3.3046   -1.8684 C   0  0  0  0  0  0  0  0  0  0  0  0
   -0.0001    4.2837   -2.1174 C   0  0  0  0  0  0  0  0  0  0  0  0
    1.2046    4.1217   -1.5597 C   0  0  0  0  0  0  0  0  0  0  0  0
    1.5777    2.9098   -0.7214 C   0  0  2  0  0  0  0  0  0  0  0  0
    2.6304    2.0912   -1.4927 C   0  0  0  0  0  0  0  0  0  0  0  0
    0.3219    2.0709   -0.2690 C   0  0  2  0  0  0  0  0  0  0  0  0
    0.6928    0.7653    0.4873 C   0  0  0  0  0  0  0  0  0  0  0  0
    1.5851    1.0302    1.7218 C   0  0  0  0  0  0  0  0  0  0  0  0
    1.8781   -0.2203    2.5709 C   0  0  2  0  0  0  0  0  0  0  0  0
    2.8713   -1.1809    1.8921 C   0  0  0  0  0  0  0  0  0  0  0  0
    3.1007   -2.4152    2.7816 C   0  0  1  0  0  0  0  0  0  0  0  0
    3.6716   -2.0395    4.0094 O   0  0  0  0  0  0  0  0  0  0  0  0
    1.7820   -3.1606    3.0376 C   0  0  0  0  0  0  0  0  0  0  0  0
    0.6423   -2.2266    3.3434 C   0  0  0  0  0  0  0  0  0  0  0  0
   -0.3969   -2.6776    3.8920 O   0  0  0  0  0  0  0  0  0  0  0  0
    0.6685   -0.8929    2.9217 O   0  0  0  0  0  0  0  0  0  0  0  0
   -1.5677   -0.3552   -0.9477 O   0  0  0  0  0  0  0  0  0  0  0  0
   -0.9921   -1.3266   -1.7775 C   0  0  0  0  0  0  0  0  0  0  0  0
   -0.5901   -1.0250   -2.9345 O   0  0  0  0  0  0  0  0  0  0  0  0
   -0.9233   -2.7594   -1.3233 C   0  0  1  0  0  0  0  0  0  0  0  0
   -0.6577   -2.8576    0.1828 C   0  0  0  0  0  0  0  0  0  0  0  0
   -2.1785   -3.5493   -1.7542 C   0  0  0  0  0  0  0  0  0  0  0  0
   -3.4908   -3.0234   -1.1640 C   0  0  0  0  0  0  0  0  0  0  0  0
   -0.0394    1.4973   -2.3463 H   0  0  0  0  0  0  0  0  0  0  0  0
   -2.3272    0.8783   -2.4013 H   0  0  0  0  0  0  0  0  0  0  0  0
   -3.7875    0.8960   -0.3589 H   0  0  0  0  0  0  0  0  0  0  0  0
   -2.5141    1.8211    0.5144 H   0  0  0  0  0  0  0  0  0  0  0  0
   -4.0419    3.4630   -0.4140 H   0  0  0  0  0  0  0  0  0  0  0  0
   -4.1079    2.6297   -2.0039 H   0  0  0  0  0  0  0  0  0  0  0  0
   -2.5560    4.7946   -1.8688 H   0  0  0  0  0  0  0  0  0  0  0  0
   -0.2136    5.1933   -2.6662 H   0  0  0  0  0  0  0  0  0  0  0  0
    1.9608    4.8778   -1.7336 H   0  0  0  0  0  0  0  0  0  0  0  0
    2.0692    3.3137    0.1891 H   0  0  0  0  0  0  0  0  0  0  0  0
    3.0384    1.2670   -0.8748 H   0  0  0  0  0  0  0  0  0  0  0  0
    2.2104    1.6655   -2.4265 H   0  0  0  0  0  0  0  0  0  0  0  0
    3.4881    2.7424   -1.7669 H   0  0  0  0  0  0  0  0  0  0  0  0
   -0.2220    2.6949    0.4784 H   0  0  0  0  0  0  0  0  0  0  0  0
   -0.2389    0.3101    0.8755 H   0  0  0  0  0  0  0  0  0  0  0  0
    1.1732    0.0454   -0.2061 H   0  0  0  0  0  0  0  0  0  0  0  0
    2.5566    1.4707    1.4193 H   0  0  0  0  0  0  0  0  0  0  0  0
    1.0752    1.7747    2.3720 H   0  0  0  0  0  0  0  0  0  0  0  0
    2.3498    0.1369    3.5133 H   0  0  0  0  0  0  0  0  0  0  0  0
    2.4858   -1.5120    0.9057 H   0  0  0  0  0  0  0  0  0  0  0  0
    3.8400   -0.6624    1.7216 H   0  0  0  0  0  0  0  0  0  0  0  0
    3.7915   -3.1138    2.2543 H   0  0  0  0  0  0  0  0  0  0  0  0
    4.6185   -1.8044    3.8251 H   0  0  0  0  0  0  0  0  0  0  0  0
    1.5171   -3.7484    2.1332 H   0  0  0  0  0  0  0  0  0  0  0  0
    1.9148   -3.8784    3.8761 H   0  0  0  0  0  0  0  0  0  0  0  0
   -0.0525   -3.2318   -1.8308 H   0  0  0  0  0  0  0  0  0  0  0  0
   -1.4457   -2.3455    0.7734 H   0  0  0  0  0  0  0  0  0  0  0  0
   -0.6060   -3.9218    0.4963 H   0  0  0  0  0  0  0  0  0  0  0  0
    0.3149   -2.3802    0.4144 H   0  0  0  0  0  0  0  0  0  0  0  0
   -2.2563   -3.5249   -2.8633 H   0  0  0  0  0  0  0  0  0  0  0  0
   -2.0581   -4.6149   -1.4603 H   0  0  0  0  0  0  0  0  0  0  0  0
   -3.6631   -1.9673   -1.4584 H   0  0  0  0  0  0  0  0  0  0  0  0
   -3.4898   -3.1069   -0.0579 H   0  0  0  0  0  0  0  0  0  0  0  0
   -4.3351   -3.6310   -1.5524 H   0  0  0  0  0  0  0  0  0  0  0  0
  1  2  1  0
  2  3  1  0
  3  4  1  0
  4  5  1  0
  5  6  2  0
  6  7  1  0
  7  8  2  0
  8  9  1  0
  9 10  1  0
  9 11  1  0
 11 12  1  0
 12 13  1  0
 13 14  1  0
 14 15  1  0
 15 16  1  0
 16 17  1  0
 16 18  1  0
 18 19  1  0
 19 20  2  0
 19 21  1  0
  2 22  1  0
 22 23  1  0
 23 24  2  0
 23 25  1  0
 25 26  1  0
 25 27  1  0
 27 28  1  0
  6  1  1  0
 21 14  1  0
 11  1  1  0
  1 29  1  6
  2 30  1  6
  3 31  1  0
  3 32  1  0
  4 33  1  0
  4 34  1  0
  5 35  1  0
  7 36  1  0
  8 37  1  0
  9 38  1  1
 10 39  1  0
 10 40  1  0
 10 41  1  0
 11 42  1  1
 12 43  1  0
 12 44  1  0
 13 45  1  0
 13 46  1  0
 14 47  1  1
 15 48  1  0
 15 49  1  0
 16 50  1  6
 17 51  1  0
 18 52  1  0
 18 53  1  0
 25 54  1  6
 26 55  1  0
 26 56  1  0
 26 57  1  0
 27 58  1  0
 27 59  1  0
 28 60  1  0
 28 61  1  0
 28 62  1  0
M  END
$$$$
