
     RDKit          3D

 47 49  0  0  0  0  0  0  0  0999 V2000
   -0.0295    1.3396    0.0368 C   0  0  2  0  0  0  0  0  0  0  0  0
   -1.4620    1.0072   -0.4329 C   0  0  0  0  0  0  0  0  0  0  0  0
   -1.9846   -0.2467    0.2319 C   0  0  0  0  0  0  0  0  0  0  0  0
   -1.8709   -1.4797   -0.4329 C   0  0  0  0  0  0  0  0  0  0  0  0
   -2.2908   -2.6719    0.1804 C   0  0  0  0  0  0  0  0  0  0  0  0
   -2.8316   -2.6159    1.4736 C   0  0  0  0  0  0  0  0  0  0  0  0
   -2.9431   -1.3971    2.1452 C   0  0  0  0  0  0  0  0  0  0  0  0
   -2.5152   -0.2026    1.5366 C   0  0  0  0  0  0  0  0  0  0  0  0
   -2.5980    1.0350    2.1965 O   0  0  0  0  0  0  0  0  0  0  0  0
   -3.0928    1.2147    3.5193 C   0  0  0  0  0  0  0  0  0  0  0  0
   -2.1626   -3.9336   -0.5011 N   0  0  0  0  0  4  0  0  0  0  0  0
   -2.5817   -5.0986    0.0997 O   0  0  0  0  0  1  0  0  0  0  0  0
   -1.6639   -3.9927   -1.6443 O   0  0  0  0  0  0  0  0  0  0  0  0
    0.4420    2.6579   -0.5202 C   0  0  0  0  0  0  0  0  0  0  0  0
    1.3429    3.5069    0.0901 C   0  0  0  0  0  0  0  0  0  0  0  0
    1.5703    4.5380   -0.7373 N   0  0  0  0  0  0  0  0  0  0  0  0
    0.8171    4.2848   -1.8236 C   0  0  0  0  0  0  0  0  0  0  0  0
    0.7762    5.1400   -2.9635 N   0  0  0  0  0  0  0  0  0  0  0  0
    0.1136    3.1371   -1.7394 N   0  0  0  0  0  0  0  0  0  0  0  0
    0.9457    0.2341   -0.3231 C   0  0  0  0  0  0  0  0  0  0  0  0
    1.4949   -0.5729    0.6869 C   0  0  0  0  0  0  0  0  0  0  0  0
    2.3529   -1.6279    0.3650 C   0  0  0  0  0  0  0  0  0  0  0  0
    2.6744   -1.8984   -0.9782 C   0  0  0  0  0  0  0  0  0  0  0  0
    3.5278   -2.9485   -1.3490 O   0  0  0  0  0  0  0  0  0  0  0  0
    4.1483   -3.8429   -0.4311 C   0  0  0  0  0  0  0  0  0  0  0  0
    2.1245   -1.0971   -1.9861 C   0  0  0  0  0  0  0  0  0  0  0  0
    2.4183   -1.3473   -3.2866 F   0  0  0  0  0  0  0  0  0  0  0  0
    1.2655   -0.0426   -1.6646 C   0  0  0  0  0  0  0  0  0  0  0  0
   -0.0639    1.4572    1.1435 H   0  0  0  0  0  0  0  0  0  0  0  0
   -1.4875    0.8913   -1.5390 H   0  0  0  0  0  0  0  0  0  0  0  0
   -2.1371    1.8583   -0.1945 H   0  0  0  0  0  0  0  0  0  0  0  0
   -1.4420   -1.5083   -1.4270 H   0  0  0  0  0  0  0  0  0  0  0  0
   -3.1646   -3.5174    1.9714 H   0  0  0  0  0  0  0  0  0  0  0  0
   -3.3591   -1.3964    3.1432 H   0  0  0  0  0  0  0  0  0  0  0  0
   -4.1533    0.8906    3.5778 H   0  0  0  0  0  0  0  0  0  0  0  0
   -2.4750    0.6377    4.2395 H   0  0  0  0  0  0  0  0  0  0  0  0
   -3.0351    2.2902    3.7842 H   0  0  0  0  0  0  0  0  0  0  0  0
    1.8069    3.3772    1.0592 H   0  0  0  0  0  0  0  0  0  0  0  0
    2.2038    5.3520   -0.5752 H   0  0  0  0  0  0  0  0  0  0  0  0
    0.1791    4.8949   -3.7840 H   0  0  0  0  0  0  0  0  0  0  0  0
    1.3424    6.0168   -2.9864 H   0  0  0  0  0  0  0  0  0  0  0  0
    1.2513   -0.3935    1.7267 H   0  0  0  0  0  0  0  0  0  0  0  0
    2.7562   -2.2299    1.1676 H   0  0  0  0  0  0  0  0  0  0  0  0
    4.7652   -4.5715   -0.9958 H   0  0  0  0  0  0  0  0  0  0  0  0
    3.3760   -4.3990    0.1412 H   0  0  0  0  0  0  0  0  0  0  0  0
    4.8082   -3.2807    0.2629 H   0  0  0  0  0  0  0  0  0  0  0  0
    0.8413    0.5517   -2.4635 H   0  0  0  0  0  0  0  0  0  0  0  0
  1  2  1  0
  2  3  1  0
  3  4  2  0
  4  5  1  0
  5  6  2  0
  6  7  1  0
  7  8  2  0
  8  9  1  0
  9 10  1  0
  5 11  1  0
 11 12  1  0
 11 13  2  0
  1 14  1  0
 14 15  2  0
 15 16  1  0
 16 17  1  0
 17 18  1  0
 17 19  2  0
  1 20  1  0
 20 21  2  0
 21 22  1  0
 22 23  2  0
 23 24  1  0
 24 25  1  0
 23 26  1  0
 26 27  1  0
 26 28  2  0
  8  3  1  0
 19 14  1  0
 28 20  1  0
  1 29  1  1
  2 30  1  0
  2 31  1  0
  4 32  1  0
  6 33  1  0
  7 34  1  0
 10 35  1  0
 10 36  1  0
 10 37  1  0
 15 38  1  0
 16 39  1  0
 18 40  1  0
 18 41  1  0
 21 42  1  0
 22 43  1  0
 25 44  1  0
 25 45  1  0
 25 46  1  0
 28 47  1  0
M  CHG  2  11   1  12  -1
M  END
$$$$
