
     RDKit          3D

 50 53  0  0  0  0  0  0  0  0999 V2000
   -2.4546   -3.0263    1.0557 C   0  0  0  0  0  0  0  0  0  0  0  0
   -3.2257   -1.8980    0.4540 C   0  0  0  0  0  0  0  0  0  0  0  0
   -2.9572   -1.2317   -0.7234 C   0  0  0  0  0  0  0  0  0  0  0  0
   -1.7879   -1.4476   -1.6365 C   0  0  0  0  0  0  0  0  0  0  0  0
   -0.6058   -0.5662   -1.2124 C   0  0  0  0  0  0  0  0  0  0  0  0
    0.6191   -0.7697   -2.0735 C   0  0  0  0  0  0  0  0  0  0  0  0
    0.5130   -1.3908   -3.1676 O   0  0  0  0  0  0  0  0  0  0  0  0
    1.9446   -0.2230   -1.6754 C   0  0  0  0  0  0  0  0  0  0  0  0
    3.1018   -0.5994   -2.3828 C   0  0  0  0  0  0  0  0  0  0  0  0
    4.3542   -0.0962   -2.0206 C   0  0  0  0  0  0  0  0  0  0  0  0
    4.4764    0.7981   -0.9478 C   0  0  0  0  0  0  0  0  0  0  0  0
    5.8328    1.3221   -0.5478 C   0  0  0  0  0  0  0  0  0  0  0  0
    6.6576    0.2716    0.2135 C   0  0  0  0  0  0  0  0  0  0  0  0
    8.3675    0.9085    0.4646 S   0  0  0  0  0  0  0  0  0  0  0  0
    8.0998    0.9555    2.2288 C   0  0  0  0  0  0  0  0  0  0  0  0
    8.9359    1.4531    3.0268 O   0  0  0  0  0  0  0  0  0  0  0  0
    6.8764    0.4093    2.6736 N   0  0  0  0  0  0  0  0  0  0  0  0
    6.0901   -0.0107    1.5756 C   0  0  0  0  0  0  0  0  0  0  0  0
    4.9937   -0.6074    1.7442 O   0  0  0  0  0  0  0  0  0  0  0  0
    3.3278    1.1798   -0.2396 C   0  0  0  0  0  0  0  0  0  0  0  0
    2.0744    0.6770   -0.5994 C   0  0  0  0  0  0  0  0  0  0  0  0
   -3.8796   -0.2671   -0.9034 N   0  0  0  0  0  0  0  0  0  0  0  0
   -4.6877   -0.4022    0.1730 C   0  0  0  0  0  0  0  0  0  0  0  0
   -4.3013   -1.3687    0.9792 O   0  0  0  0  0  0  0  0  0  0  0  0
   -5.8717    0.4448    0.4209 C   0  0  0  0  0  0  0  0  0  0  0  0
   -6.6598    0.2396    1.5668 C   0  0  0  0  0  0  0  0  0  0  0  0
   -7.7816    1.0401    1.8047 C   0  0  0  0  0  0  0  0  0  0  0  0
   -8.1259    2.0503    0.9031 C   0  0  0  0  0  0  0  0  0  0  0  0
   -7.3489    2.2619   -0.2385 C   0  0  0  0  0  0  0  0  0  0  0  0
   -6.2262    1.4642   -0.4811 C   0  0  0  0  0  0  0  0  0  0  0  0
   -1.4000   -2.7191    1.2140 H   0  0  0  0  0  0  0  0  0  0  0  0
   -2.4857   -3.9037    0.3769 H   0  0  0  0  0  0  0  0  0  0  0  0
   -2.8985   -3.3092    2.0330 H   0  0  0  0  0  0  0  0  0  0  0  0
   -2.0932   -1.1938   -2.6749 H   0  0  0  0  0  0  0  0  0  0  0  0
   -1.4899   -2.5183   -1.6146 H   0  0  0  0  0  0  0  0  0  0  0  0
   -0.9070    0.5024   -1.2701 H   0  0  0  0  0  0  0  0  0  0  0  0
   -0.3458   -0.8054   -0.1583 H   0  0  0  0  0  0  0  0  0  0  0  0
    3.0420   -1.2909   -3.2140 H   0  0  0  0  0  0  0  0  0  0  0  0
    5.2311   -0.4058   -2.5759 H   0  0  0  0  0  0  0  0  0  0  0  0
    6.3816    1.6162   -1.4692 H   0  0  0  0  0  0  0  0  0  0  0  0
    5.7308    2.2414    0.0710 H   0  0  0  0  0  0  0  0  0  0  0  0
    6.7172   -0.6724   -0.3698 H   0  0  0  0  0  0  0  0  0  0  0  0
    6.5943    0.3207    3.6752 H   0  0  0  0  0  0  0  0  0  0  0  0
    3.4022    1.8656    0.5954 H   0  0  0  0  0  0  0  0  0  0  0  0
    1.2117    1.0041   -0.0350 H   0  0  0  0  0  0  0  0  0  0  0  0
   -6.4092   -0.5382    2.2774 H   0  0  0  0  0  0  0  0  0  0  0  0
   -8.3842    0.8770    2.6889 H   0  0  0  0  0  0  0  0  0  0  0  0
   -8.9944    2.6688    1.0890 H   0  0  0  0  0  0  0  0  0  0  0  0
   -7.6166    3.0448   -0.9363 H   0  0  0  0  0  0  0  0  0  0  0  0
   -5.6374    1.6447   -1.3717 H   0  0  0  0  0  0  0  0  0  0  0  0
  1  2  1  0
  2  3  2  0
  3  4  1  0
  4  5  1  0
  5  6  1  0
  6  7  2  0
  6  8  1  0
  8  9  2  0
  9 10  1  0
 10 11  2  0
 11 12  1  0
 12 13  1  0
 13 14  1  0
 14 15  1  0
 15 16  2  0
 15 17  1  0
 17 18  1  0
 18 19  2  0
 11 20  1  0
 20 21  2  0
  3 22  1  0
 22 23  2  0
 23 24  1  0
 23 25  1  0
 25 26  2  0
 26 27  1  0
 27 28  2  0
 28 29  1  0
 29 30  2  0
 24  2  1  0
 30 25  1  0
 21  8  1  0
 18 13  1  0
  1 31  1  0
  1 32  1  0
  1 33  1  0
  4 34  1  0
  4 35  1  0
  5 36  1  0
  5 37  1  0
  9 38  1  0
 10 39  1  0
 12 40  1  0
 12 41  1  0
 13 42  1  0
 17 43  1  0
 20 44  1  0
 21 45  1  0
 26 46  1  0
 27 47  1  0
 28 48  1  0
 29 49  1  0
 30 50  1  0
M  END
$$$$
