
     RDKit          3D

 66 68  0  0  0  0  0  0  0  0999 V2000
   -1.4659   -2.0310   -0.1230 C   0  0  1  0  0  0  0  0  0  0  0  0
   -0.2363   -1.0789   -0.0676 C   0  0  2  0  0  0  0  0  0  0  0  0
    0.9105   -1.7918   -0.5178 O   0  0  0  0  0  0  0  0  0  0  0  0
    1.1899   -1.5039   -1.8707 C   0  0  0  0  0  0  0  0  0  0  0  0
    0.0393   -0.5404    1.3759 C   0  0  1  0  0  0  0  0  0  0  0  0
   -0.4879   -1.4496    2.5131 C   0  0  0  0  0  0  0  0  0  0  0  0
   -0.4492   -2.9415    2.1681 C   0  0  0  0  0  0  0  0  0  0  0  0
   -1.1698   -3.2069    0.8389 C   0  0  2  0  0  0  0  0  0  0  0  0
   -0.9089   -4.5380    0.2280 C   0  0  0  0  0  0  0  0  0  0  0  0
   -2.1300   -4.2383    0.8668 O   0  0  0  0  0  0  0  0  0  0  0  0
    1.4396   -0.3233    1.5676 O   0  0  0  0  0  0  0  0  0  0  0  0
    2.1551    0.6938    0.9266 C   0  0  0  0  0  0  0  0  0  0  0  0
    1.5518    1.5747    0.2537 O   0  0  0  0  0  0  0  0  0  0  0  0
    3.5826    0.7166    1.0343 N   0  0  0  0  0  0  0  0  0  0  0  0
    4.4182    1.6340    0.2480 C   0  0  2  0  0  0  0  0  0  0  0  0
    4.4529    1.2037   -1.2459 C   0  0  0  0  0  0  0  0  0  0  0  0
    5.0094   -0.2143   -1.4503 C   0  0  0  0  0  0  0  0  0  0  0  0
    5.2221    2.2123   -2.1115 C   0  0  0  0  0  0  0  0  0  0  0  0
    5.8007    1.7468    0.8537 C   0  0  0  0  0  0  0  0  0  0  0  0
    6.4388    3.0201    0.9601 N   0  0  0  0  0  0  0  0  0  0  0  0
    6.4146    0.7152    1.2388 O   0  0  0  0  0  0  0  0  0  0  0  0
   -2.8352   -1.3179    0.1460 C   0  0  1  0  0  0  0  0  0  0  0  0
   -3.9011   -1.9269    1.0751 C   0  0  0  0  0  0  0  0  0  0  0  0
   -2.7691    0.0857    0.2570 O   0  0  0  0  0  0  0  0  0  0  0  0
   -3.2833   -0.4114   -0.9640 C   0  0  2  0  0  0  0  0  0  0  0  0
   -4.7797   -0.0893   -1.1590 C   0  0  0  0  0  0  0  0  0  0  0  0
   -5.2429    1.1210   -0.3811 C   0  0  0  0  0  0  0  0  0  0  0  0
   -4.8890    2.3931   -0.6683 C   0  0  0  0  0  0  0  0  0  0  0  0
   -3.9744    2.7264   -1.8234 C   0  0  0  0  0  0  0  0  0  0  0  0
   -5.4371    3.5032    0.1905 C   0  0  0  0  0  0  0  0  0  0  0  0
   -1.5331   -2.4284   -1.1596 H   0  0  0  0  0  0  0  0  0  0  0  0
   -0.4395   -0.1829   -0.7032 H   0  0  0  0  0  0  0  0  0  0  0  0
    0.3207   -1.7370   -2.5241 H   0  0  0  0  0  0  0  0  0  0  0  0
    2.0407   -2.1352   -2.1988 H   0  0  0  0  0  0  0  0  0  0  0  0
    1.4919   -0.4410   -1.9931 H   0  0  0  0  0  0  0  0  0  0  0  0
   -0.4781    0.4383    1.4953 H   0  0  0  0  0  0  0  0  0  0  0  0
    0.1018   -1.2745    3.4392 H   0  0  0  0  0  0  0  0  0  0  0  0
   -1.5334   -1.1627    2.7529 H   0  0  0  0  0  0  0  0  0  0  0  0
    0.6132   -3.2591    2.0844 H   0  0  0  0  0  0  0  0  0  0  0  0
   -0.9243   -3.5217    2.9888 H   0  0  0  0  0  0  0  0  0  0  0  0
   -0.3292   -5.2746    0.8235 H   0  0  0  0  0  0  0  0  0  0  0  0
   -1.0607   -4.6578   -0.8650 H   0  0  0  0  0  0  0  0  0  0  0  0
    4.0279   -0.0074    1.6425 H   0  0  0  0  0  0  0  0  0  0  0  0
    3.9524    2.6432    0.3026 H   0  0  0  0  0  0  0  0  0  0  0  0
    3.4061    1.1997   -1.6200 H   0  0  0  0  0  0  0  0  0  0  0  0
    4.4415   -0.9491   -0.8417 H   0  0  0  0  0  0  0  0  0  0  0  0
    4.9083   -0.5093   -2.5166 H   0  0  0  0  0  0  0  0  0  0  0  0
    6.0834   -0.2660   -1.1748 H   0  0  0  0  0  0  0  0  0  0  0  0
    4.8091    3.2338   -1.9699 H   0  0  0  0  0  0  0  0  0  0  0  0
    5.1226    1.9461   -3.1855 H   0  0  0  0  0  0  0  0  0  0  0  0
    6.3014    2.2201   -1.8493 H   0  0  0  0  0  0  0  0  0  0  0  0
    5.9651    3.8872    0.6227 H   0  0  0  0  0  0  0  0  0  0  0  0
    7.3969    3.0957    1.3681 H   0  0  0  0  0  0  0  0  0  0  0  0
   -4.3995   -2.7760    0.5632 H   0  0  0  0  0  0  0  0  0  0  0  0
   -4.6679   -1.1795    1.3677 H   0  0  0  0  0  0  0  0  0  0  0  0
   -3.4445   -2.2917    2.0158 H   0  0  0  0  0  0  0  0  0  0  0  0
   -2.5838   -0.2046   -1.8017 H   0  0  0  0  0  0  0  0  0  0  0  0
   -4.9700    0.0758   -2.2401 H   0  0  0  0  0  0  0  0  0  0  0  0
   -5.4037   -0.9642   -0.8839 H   0  0  0  0  0  0  0  0  0  0  0  0
   -5.9241    0.9400    0.4467 H   0  0  0  0  0  0  0  0  0  0  0  0
   -2.9720    2.2818   -1.6573 H   0  0  0  0  0  0  0  0  0  0  0  0
   -3.8425    3.8228   -1.9333 H   0  0  0  0  0  0  0  0  0  0  0  0
   -4.4008    2.3414   -2.7731 H   0  0  0  0  0  0  0  0  0  0  0  0
   -5.0728    4.4979   -0.1404 H   0  0  0  0  0  0  0  0  0  0  0  0
   -6.5466    3.5041    0.1400 H   0  0  0  0  0  0  0  0  0  0  0  0
   -5.1219    3.3516    1.2447 H   0  0  0  0  0  0  0  0  0  0  0  0
  1  2  1  0
  2  3  1  0
  3  4  1  0
  2  5  1  0
  5  6  1  0
  6  7  1  0
  7  8  1  0
  8  9  1  0
  9 10  1  0
  5 11  1  0
 11 12  1  0
 12 13  2  0
 12 14  1  0
 14 15  1  0
 15 16  1  0
 16 17  1  0
 16 18  1  0
 15 19  1  0
 19 20  1  0
 19 21  2  0
  1 22  1  0
 22 23  1  1
 22 24  1  0
 24 25  1  0
 25 26  1  0
 26 27  1  0
 27 28  2  3
 28 29  1  0
 28 30  1  0
  8  1  1  0
  8 10  1  1
 25 22  1  0
  1 31  1  6
  2 32  1  6
  4 33  1  0
  4 34  1  0
  4 35  1  0
  5 36  1  6
  6 37  1  0
  6 38  1  0
  7 39  1  0
  7 40  1  0
  9 41  1  0
  9 42  1  0
 14 43  1  0
 15 44  1  6
 16 45  1  0
 17 46  1  0
 17 47  1  0
 17 48  1  0
 18 49  1  0
 18 50  1  0
 18 51  1  0
 20 52  1  0
 20 53  1  0
 23 54  1  0
 23 55  1  0
 23 56  1  0
 25 57  1  6
 26 58  1  0
 26 59  1  0
 27 60  1  0
 29 61  1  0
 29 62  1  0
 29 63  1  0
 30 64  1  0
 30 65  1  0
 30 66  1  0
M  END
$$$$
