
     RDKit          3D

 59 62  0  0  0  0  0  0  0  0999 V2000
    2.4930   -1.9611    1.3324 C   0  0  2  0  0  0  0  0  0  0  0  0
    1.4471   -2.4208    0.4782 O   0  0  0  0  0  0  0  0  0  0  0  0
    0.1857   -1.8278    0.4325 C   0  0  0  0  0  0  0  0  0  0  0  0
   -0.0021   -0.5199    0.9174 C   0  0  0  0  0  0  0  0  0  0  0  0
   -1.2975    0.0395    0.8649 C   0  0  0  0  0  0  0  0  0  0  0  0
   -2.3655   -0.6811    0.3108 C   0  0  0  0  0  0  0  0  0  0  0  0
   -2.1522   -1.9742   -0.1794 C   0  0  0  0  0  0  0  0  0  0  0  0
   -0.8802   -2.5417   -0.1219 C   0  0  0  0  0  0  0  0  0  0  0  0
   -3.7150   -0.0811    0.2505 C   0  0  0  0  0  0  0  0  0  0  0  0
   -4.7164   -0.4662    1.1671 C   0  0  0  0  0  0  0  0  0  0  0  0
   -4.4603   -1.4214    2.2027 N   0  0  0  0  0  0  0  0  0  0  0  0
   -5.9538    0.0875    1.0803 N   0  0  0  0  0  0  0  0  0  0  0  0
   -6.2543    1.0062    0.1289 C   0  0  0  0  0  0  0  0  0  0  0  0
   -7.5648    1.5633    0.0633 N   0  0  0  0  0  0  0  0  0  0  0  0
   -5.3073    1.3922   -0.7621 N   0  0  0  0  0  0  0  0  0  0  0  0
   -4.0459    0.8864   -0.7264 C   0  0  0  0  0  0  0  0  0  0  0  0
   -3.0729    1.3344   -1.7877 C   0  0  0  0  0  0  0  0  0  0  0  0
   -3.0982    0.3886   -2.9837 C   0  0  0  0  0  0  0  0  0  0  0  0
    1.1436    0.2197    1.4130 N   0  0  0  0  0  0  0  0  0  0  0  0
    1.0878    1.6775    1.6409 C   0  0  0  0  0  0  0  0  0  0  0  0
    1.0473    2.4545    0.3161 C   0  0  0  0  0  0  0  0  0  0  0  0
    2.3115    2.2376   -0.5242 C   0  0  0  0  0  0  0  0  0  0  0  0
    2.2350    2.9922   -1.7192 O   0  0  0  0  0  0  0  0  0  0  0  0
    2.9480    4.2020   -1.5849 C   0  0  0  0  0  0  0  0  0  0  0  0
    2.4025   -0.4737    1.5700 C   0  0  0  0  0  0  0  0  0  0  0  0
    3.4246    0.1438    1.9799 O   0  0  0  0  0  0  0  0  0  0  0  0
    3.8220   -2.3327    0.7200 C   0  0  0  0  0  0  0  0  0  0  0  0
    4.7815   -3.0362    1.4684 C   0  0  0  0  0  0  0  0  0  0  0  0
    6.0182   -3.3614    0.9015 C   0  0  0  0  0  0  0  0  0  0  0  0
    6.9383   -4.0422    1.6283 F   0  0  0  0  0  0  0  0  0  0  0  0
    6.3080   -2.9830   -0.4126 C   0  0  0  0  0  0  0  0  0  0  0  0
    5.3628   -2.2771   -1.1620 C   0  0  0  0  0  0  0  0  0  0  0  0
    5.6472   -1.9062   -2.4347 F   0  0  0  0  0  0  0  0  0  0  0  0
    4.1251   -1.9506   -0.5993 C   0  0  0  0  0  0  0  0  0  0  0  0
    2.3692   -2.4609    2.3177 H   0  0  0  0  0  0  0  0  0  0  0  0
   -1.4959    1.0345    1.2342 H   0  0  0  0  0  0  0  0  0  0  0  0
   -2.9707   -2.5394   -0.6081 H   0  0  0  0  0  0  0  0  0  0  0  0
   -0.7216   -3.5425   -0.5029 H   0  0  0  0  0  0  0  0  0  0  0  0
   -5.2262   -1.6946    2.8578 H   0  0  0  0  0  0  0  0  0  0  0  0
   -3.5191   -1.8483    2.3471 H   0  0  0  0  0  0  0  0  0  0  0  0
   -7.8028    2.2700   -0.6675 H   0  0  0  0  0  0  0  0  0  0  0  0
   -8.2988    1.2697    0.7455 H   0  0  0  0  0  0  0  0  0  0  0  0
   -3.3489    2.3544   -2.1328 H   0  0  0  0  0  0  0  0  0  0  0  0
   -2.0414    1.4006   -1.3861 H   0  0  0  0  0  0  0  0  0  0  0  0
   -2.3945    0.7542   -3.7609 H   0  0  0  0  0  0  0  0  0  0  0  0
   -4.1192    0.3463   -3.4197 H   0  0  0  0  0  0  0  0  0  0  0  0
   -2.7883   -0.6328   -2.6794 H   0  0  0  0  0  0  0  0  0  0  0  0
    0.2053    1.9360    2.2606 H   0  0  0  0  0  0  0  0  0  0  0  0
    1.9566    2.0280    2.2380 H   0  0  0  0  0  0  0  0  0  0  0  0
    0.9436    3.5355    0.5494 H   0  0  0  0  0  0  0  0  0  0  0  0
    0.1585    2.1539   -0.2771 H   0  0  0  0  0  0  0  0  0  0  0  0
    3.2243    2.4514    0.0827 H   0  0  0  0  0  0  0  0  0  0  0  0
    2.3693    1.1665   -0.8112 H   0  0  0  0  0  0  0  0  0  0  0  0
    4.0392    4.0075   -1.4910 H   0  0  0  0  0  0  0  0  0  0  0  0
    2.7913    4.8089   -2.5000 H   0  0  0  0  0  0  0  0  0  0  0  0
    2.5843    4.7975   -0.7184 H   0  0  0  0  0  0  0  0  0  0  0  0
    4.5737   -3.3312    2.4895 H   0  0  0  0  0  0  0  0  0  0  0  0
    7.2661   -3.2346   -0.8491 H   0  0  0  0  0  0  0  0  0  0  0  0
    3.4028   -1.3975   -1.1874 H   0  0  0  0  0  0  0  0  0  0  0  0
  1  2  1  0
  2  3  1  0
  3  4  2  0
  4  5  1  0
  5  6  2  0
  6  7  1  0
  7  8  2  0
  6  9  1  0
  9 10  2  0
 10 11  1  0
 10 12  1  0
 12 13  2  0
 13 14  1  0
 13 15  1  0
 15 16  2  0
 16 17  1  0
 17 18  1  0
  4 19  1  0
 19 20  1  0
 20 21  1  0
 21 22  1  0
 22 23  1  0
 23 24  1  0
 19 25  1  0
 25 26  2  0
  1 27  1  0
 27 28  2  0
 28 29  1  0
 29 30  1  0
 29 31  2  0
 31 32  1  0
 32 33  1  0
 32 34  2  0
 25  1  1  0
 34 27  1  0
  8  3  1  0
 16  9  1  0
  1 35  1  1
  5 36  1  0
  7 37  1  0
  8 38  1  0
 11 39  1  0
 11 40  1  0
 14 41  1  0
 14 42  1  0
 17 43  1  0
 17 44  1  0
 18 45  1  0
 18 46  1  0
 18 47  1  0
 20 48  1  0
 20 49  1  0
 21 50  1  0
 21 51  1  0
 22 52  1  0
 22 53  1  0
 24 54  1  0
 24 55  1  0
 24 56  1  0
 28 57  1  0
 31 58  1  0
 34 59  1  0
M  END
$$$$
