
     RDKit          3D

 63 64  0  0  0  0  0  0  0  0999 V2000
    8.8021    1.7729   -1.2554 C   0  0  0  0  0  0  0  0  0  0  0  0
    8.8334    0.5385   -0.3854 C   0  0  0  0  0  0  0  0  0  0  0  0
    9.3741    0.6288    1.0180 C   0  0  0  0  0  0  0  0  0  0  0  0
    8.3923   -0.6572   -0.8319 C   0  0  0  0  0  0  0  0  0  0  0  0
    7.8286   -0.8847   -2.2117 C   0  0  0  0  0  0  0  0  0  0  0  0
    6.6230   -0.1440   -2.4023 O   0  0  0  0  0  0  0  0  0  0  0  0
    5.4050   -0.3918   -1.7488 C   0  0  0  0  0  0  0  0  0  0  0  0
    4.3443    0.4919   -1.9713 C   0  0  0  0  0  0  0  0  0  0  0  0
    3.1093    0.2965   -1.3464 C   0  0  0  0  0  0  0  0  0  0  0  0
    2.9103   -0.8039   -0.4899 C   0  0  0  0  0  0  0  0  0  0  0  0
    1.6243   -1.0498    0.2081 C   0  0  0  0  0  0  0  0  0  0  0  0
    0.4458   -0.5674   -0.2122 C   0  0  0  0  0  0  0  0  0  0  0  0
   -0.8206   -0.8493    0.5010 C   0  0  0  0  0  0  0  0  0  0  0  0
   -0.8243   -1.6488    1.4774 O   0  0  0  0  0  0  0  0  0  0  0  0
   -2.0921   -0.2090    0.0783 C   0  0  0  0  0  0  0  0  0  0  0  0
   -3.3199   -0.9008    0.1787 C   0  0  0  0  0  0  0  0  0  0  0  0
   -3.3215   -2.2235    0.6543 O   0  0  0  0  0  0  0  0  0  0  0  0
   -4.4844   -3.0306    0.8137 C   0  0  0  0  0  0  0  0  0  0  0  0
   -4.0842   -4.3629    1.3508 C   0  0  0  0  0  0  0  0  0  0  0  0
   -3.7737   -5.3983    0.4752 O   0  0  0  0  0  0  0  0  0  0  0  0
   -3.9834   -4.5372    2.5946 O   0  0  0  0  0  0  0  0  0  0  0  0
   -4.5120   -0.2581   -0.2131 C   0  0  0  0  0  0  0  0  0  0  0  0
   -4.4914    1.0624   -0.6971 C   0  0  0  0  0  0  0  0  0  0  0  0
   -5.6540    1.7449   -1.0918 O   0  0  0  0  0  0  0  0  0  0  0  0
   -6.9876    1.2496   -0.9698 C   0  0  0  0  0  0  0  0  0  0  0  0
   -7.3949    1.1361    0.4778 C   0  0  0  0  0  0  0  0  0  0  0  0
   -7.5044    2.1895    1.3153 C   0  0  0  0  0  0  0  0  0  0  0  0
   -7.2280    3.6019    0.8568 C   0  0  0  0  0  0  0  0  0  0  0  0
   -7.9194    1.9362    2.7413 C   0  0  0  0  0  0  0  0  0  0  0  0
   -3.2716    1.7332   -0.7936 C   0  0  0  0  0  0  0  0  0  0  0  0
   -2.0848    1.1096   -0.4093 C   0  0  0  0  0  0  0  0  0  0  0  0
    3.9804   -1.6826   -0.2581 C   0  0  0  0  0  0  0  0  0  0  0  0
    5.2142   -1.4856   -0.8848 C   0  0  0  0  0  0  0  0  0  0  0  0
    9.3856    1.6001   -2.1837 H   0  0  0  0  0  0  0  0  0  0  0  0
    7.7544    2.0280   -1.5172 H   0  0  0  0  0  0  0  0  0  0  0  0
    9.2440    2.6479   -0.7351 H   0  0  0  0  0  0  0  0  0  0  0  0
    9.6999    1.6600    1.2676 H   0  0  0  0  0  0  0  0  0  0  0  0
   10.2474   -0.0486    1.1282 H   0  0  0  0  0  0  0  0  0  0  0  0
    8.5878    0.3283    1.7426 H   0  0  0  0  0  0  0  0  0  0  0  0
    8.4468   -1.5192   -0.1717 H   0  0  0  0  0  0  0  0  0  0  0  0
    7.6381   -1.9668   -2.3754 H   0  0  0  0  0  0  0  0  0  0  0  0
    8.5727   -0.5668   -2.9713 H   0  0  0  0  0  0  0  0  0  0  0  0
    4.4818    1.3435   -2.6258 H   0  0  0  0  0  0  0  0  0  0  0  0
    2.3284    1.0235   -1.5203 H   0  0  0  0  0  0  0  0  0  0  0  0
    1.6491   -1.6881    1.0839 H   0  0  0  0  0  0  0  0  0  0  0  0
    0.3933    0.0143   -1.1214 H   0  0  0  0  0  0  0  0  0  0  0  0
   -5.1902   -2.5427    1.5206 H   0  0  0  0  0  0  0  0  0  0  0  0
   -4.9856   -3.1686   -0.1685 H   0  0  0  0  0  0  0  0  0  0  0  0
   -3.4827   -6.3038    0.8239 H   0  0  0  0  0  0  0  0  0  0  0  0
   -5.4495   -0.7870   -0.1471 H   0  0  0  0  0  0  0  0  0  0  0  0
   -7.0718    0.2619   -1.4712 H   0  0  0  0  0  0  0  0  0  0  0  0
   -7.6796    1.9407   -1.4943 H   0  0  0  0  0  0  0  0  0  0  0  0
   -7.6162    0.1397    0.8524 H   0  0  0  0  0  0  0  0  0  0  0  0
   -7.4137    4.3361    1.6680 H   0  0  0  0  0  0  0  0  0  0  0  0
   -6.1673    3.7011    0.5464 H   0  0  0  0  0  0  0  0  0  0  0  0
   -7.8903    3.8629    0.0050 H   0  0  0  0  0  0  0  0  0  0  0  0
   -7.9686    2.8766    3.3286 H   0  0  0  0  0  0  0  0  0  0  0  0
   -7.1867    1.2596    3.2302 H   0  0  0  0  0  0  0  0  0  0  0  0
   -8.9227    1.4601    2.7613 H   0  0  0  0  0  0  0  0  0  0  0  0
   -3.2444    2.7516   -1.1603 H   0  0  0  0  0  0  0  0  0  0  0  0
   -1.1621    1.6724   -0.4719 H   0  0  0  0  0  0  0  0  0  0  0  0
    3.8582   -2.5316    0.4037 H   0  0  0  0  0  0  0  0  0  0  0  0
    6.0089   -2.1915   -0.6903 H   0  0  0  0  0  0  0  0  0  0  0  0
  1  2  1  0
  2  3  1  0
  2  4  2  3
  4  5  1  0
  5  6  1  0
  6  7  1  0
  7  8  2  0
  8  9  1  0
  9 10  2  0
 10 11  1  0
 11 12  2  0
 12 13  1  0
 13 14  2  0
 13 15  1  0
 15 16  2  0
 16 17  1  0
 17 18  1  0
 18 19  1  0
 19 20  1  0
 19 21  2  0
 16 22  1  0
 22 23  2  0
 23 24  1  0
 24 25  1  0
 25 26  1  0
 26 27  2  3
 27 28  1  0
 27 29  1  0
 23 30  1  0
 30 31  2  0
 10 32  1  0
 32 33  2  0
 33  7  1  0
 31 15  1  0
  1 34  1  0
  1 35  1  0
  1 36  1  0
  3 37  1  0
  3 38  1  0
  3 39  1  0
  4 40  1  0
  5 41  1  0
  5 42  1  0
  8 43  1  0
  9 44  1  0
 11 45  1  0
 12 46  1  0
 18 47  1  0
 18 48  1  0
 20 49  1  0
 22 50  1  0
 25 51  1  0
 25 52  1  0
 26 53  1  0
 28 54  1  0
 28 55  1  0
 28 56  1  0
 29 57  1  0
 29 58  1  0
 29 59  1  0
 30 60  1  0
 31 61  1  0
 32 62  1  0
 33 63  1  0
M  END
$$$$
