
     RDKit          3D

 45 46  0  0  0  0  0  0  0  0999 V2000
    0.1609    1.1082   -0.5004 C   0  0  2  0  0  0  0  0  0  0  0  0
    0.5807   -0.2630   -1.0681 C   0  0  0  0  0  0  0  0  0  0  0  0
    0.4066    1.2190    1.0284 C   0  0  0  0  0  0  0  0  0  0  0  0
    1.7794    1.8075    1.3999 C   0  0  0  0  0  0  0  0  0  0  0  0
    2.9231    0.9026    1.0227 C   0  0  0  0  0  0  0  0  0  0  0  0
    3.1496   -0.2838    1.7354 C   0  0  0  0  0  0  0  0  0  0  0  0
    4.1959   -1.1365    1.3737 C   0  0  0  0  0  0  0  0  0  0  0  0
    5.0423   -0.8146    0.2976 C   0  0  0  0  0  0  0  0  0  0  0  0
    4.8065    0.3727   -0.4195 C   0  0  0  0  0  0  0  0  0  0  0  0
    3.7587    1.2243   -0.0574 C   0  0  0  0  0  0  0  0  0  0  0  0
    6.1443   -1.7341   -0.0781 C   0  0  0  0  0  0  0  0  0  0  0  0
    7.2826   -1.2766   -0.8133 N   0  0  0  0  0  0  0  0  0  0  0  0
    6.0902   -2.9455    0.2667 O   0  0  0  0  0  0  0  0  0  0  0  0
   -1.2419    1.4379   -0.8317 N   0  0  0  0  0  0  0  0  0  0  0  0
   -2.2184    0.4270   -0.3901 C   0  0  0  0  0  0  0  0  0  0  0  0
   -3.6177    0.9865   -0.4211 C   0  0  0  0  0  0  0  0  0  0  0  0
   -3.7789    2.2289   -0.5752 O   0  0  0  0  0  0  0  0  0  0  0  0
   -4.8094    0.1134   -0.2416 C   0  0  0  0  0  0  0  0  0  0  0  0
   -4.6792   -1.2401    0.1320 C   0  0  0  0  0  0  0  0  0  0  0  0
   -5.8120   -2.0432    0.2972 C   0  0  0  0  0  0  0  0  0  0  0  0
   -7.0864   -1.5100    0.0946 C   0  0  0  0  0  0  0  0  0  0  0  0
   -8.1825   -2.2916    0.2559 F   0  0  0  0  0  0  0  0  0  0  0  0
   -7.2310   -0.1708   -0.2723 C   0  0  0  0  0  0  0  0  0  0  0  0
   -6.1023    0.6375   -0.4387 C   0  0  0  0  0  0  0  0  0  0  0  0
    0.7940    1.8710   -1.0071 H   0  0  0  0  0  0  0  0  0  0  0  0
    1.6793   -0.3920   -1.0159 H   0  0  0  0  0  0  0  0  0  0  0  0
    0.1071   -1.0939   -0.5039 H   0  0  0  0  0  0  0  0  0  0  0  0
    0.2850   -0.3394   -2.1358 H   0  0  0  0  0  0  0  0  0  0  0  0
   -0.3580    1.8982    1.4660 H   0  0  0  0  0  0  0  0  0  0  0  0
    0.2714    0.2329    1.5243 H   0  0  0  0  0  0  0  0  0  0  0  0
    1.8950    2.8088    0.9299 H   0  0  0  0  0  0  0  0  0  0  0  0
    1.8082    1.9719    2.4992 H   0  0  0  0  0  0  0  0  0  0  0  0
    2.5125   -0.5502    2.5697 H   0  0  0  0  0  0  0  0  0  0  0  0
    4.3485   -2.0450    1.9431 H   0  0  0  0  0  0  0  0  0  0  0  0
    5.4092    0.6368   -1.2775 H   0  0  0  0  0  0  0  0  0  0  0  0
    3.5900    2.1273   -0.6310 H   0  0  0  0  0  0  0  0  0  0  0  0
    8.0144   -1.9576   -1.1152 H   0  0  0  0  0  0  0  0  0  0  0  0
    7.4551   -0.2624   -0.9859 H   0  0  0  0  0  0  0  0  0  0  0  0
   -1.3235    1.5418   -1.8713 H   0  0  0  0  0  0  0  0  0  0  0  0
   -2.1725   -0.4569   -1.0637 H   0  0  0  0  0  0  0  0  0  0  0  0
   -2.0067    0.1014    0.6502 H   0  0  0  0  0  0  0  0  0  0  0  0
   -3.7082   -1.6834    0.3067 H   0  0  0  0  0  0  0  0  0  0  0  0
   -5.6998   -3.0807    0.5851 H   0  0  0  0  0  0  0  0  0  0  0  0
   -8.2187    0.2435   -0.4289 H   0  0  0  0  0  0  0  0  0  0  0  0
   -6.2431    1.6719   -0.7265 H   0  0  0  0  0  0  0  0  0  0  0  0
  1  2  1  0
  1  3  1  0
  3  4  1  0
  4  5  1  0
  5  6  2  0
  6  7  1  0
  7  8  2  0
  8  9  1  0
  9 10  2  0
  8 11  1  0
 11 12  1  0
 11 13  2  0
  1 14  1  0
 14 15  1  0
 15 16  1  0
 16 17  2  0
 16 18  1  0
 18 19  2  0
 19 20  1  0
 20 21  2  0
 21 22  1  0
 21 23  1  0
 23 24  2  0
 10  5  1  0
 24 18  1  0
  1 25  1  6
  2 26  1  0
  2 27  1  0
  2 28  1  0
  3 29  1  0
  3 30  1  0
  4 31  1  0
  4 32  1  0
  6 33  1  0
  7 34  1  0
  9 35  1  0
 10 36  1  0
 12 37  1  0
 12 38  1  0
 14 39  1  0
 15 40  1  0
 15 41  1  0
 19 42  1  0
 20 43  1  0
 23 44  1  0
 24 45  1  0
M  END
$$$$
