
     RDKit          3D

 68 72  0  0  0  0  0  0  0  0999 V2000
   -9.5295    2.2245    0.3515 C   0  0  0  0  0  0  0  0  0  0  0  0
   -8.8637    1.1332   -0.3814 N   0  0  0  0  0  0  0  0  0  0  0  0
   -7.6058    1.5782   -1.0140 C   0  0  0  0  0  0  0  0  0  0  0  0
   -6.4854    1.8564    0.0141 C   0  0  0  0  0  0  0  0  0  0  0  0
   -6.7430    1.1835    1.3030 N   0  0  0  0  0  0  0  0  0  0  0  0
   -5.5946    1.2370    2.2350 C   0  0  0  0  0  0  0  0  0  0  0  0
   -4.3946    0.4289    1.7839 C   0  0  0  0  0  0  0  0  0  0  0  0
   -3.3544    1.0410    1.0677 C   0  0  0  0  0  0  0  0  0  0  0  0
   -2.2460    0.2981    0.6519 C   0  0  0  0  0  0  0  0  0  0  0  0
   -2.1485   -1.0710    0.9579 C   0  0  0  0  0  0  0  0  0  0  0  0
   -3.1896   -1.6803    1.6805 C   0  0  0  0  0  0  0  0  0  0  0  0
   -4.2969   -0.9358    2.0960 C   0  0  0  0  0  0  0  0  0  0  0  0
   -0.9809   -1.8707    0.5137 C   0  0  0  0  0  0  0  0  0  0  0  0
   -1.0638   -3.1295    0.4900 O   0  0  0  0  0  0  0  0  0  0  0  0
    0.2571   -1.2322    0.1578 N   0  0  0  0  0  0  0  0  0  0  0  0
    1.2716   -1.8514   -0.6525 C   0  0  0  0  0  0  0  0  0  0  0  0
    2.6150   -1.5025   -0.4584 C   0  0  0  0  0  0  0  0  0  0  0  0
    3.6315   -2.0674   -1.2490 C   0  0  0  0  0  0  0  0  0  0  0  0
    5.0086   -1.7303   -1.0024 N   0  0  0  0  0  0  0  0  0  0  0  0
    5.4664   -0.3939   -0.7541 C   0  0  0  0  0  0  0  0  0  0  0  0
    4.6457    0.6721   -0.9550 N   0  0  0  0  0  0  0  0  0  0  0  0
    5.0826    1.9397   -0.7473 C   0  0  0  0  0  0  0  0  0  0  0  0
    6.3923    2.1664   -0.3276 C   0  0  0  0  0  0  0  0  0  0  0  0
    7.2368    1.0630   -0.1244 C   0  0  0  0  0  0  0  0  0  0  0  0
    6.7493   -0.1878   -0.3543 N   0  0  0  0  0  0  0  0  0  0  0  0
    8.6480    1.2250    0.3115 C   0  0  0  0  0  0  0  0  0  0  0  0
    9.6049    0.2477   -0.0175 C   0  0  0  0  0  0  0  0  0  0  0  0
   10.8969    0.3856    0.3835 N   0  0  0  0  0  0  0  0  0  0  0  0
   11.3093    1.4536    1.1146 C   0  0  0  0  0  0  0  0  0  0  0  0
   10.3977    2.4445    1.4772 C   0  0  0  0  0  0  0  0  0  0  0  0
    9.0650    2.3292    1.0781 C   0  0  0  0  0  0  0  0  0  0  0  0
    3.2905   -3.0055   -2.2490 C   0  0  0  0  0  0  0  0  0  0  0  0
    4.3493   -3.6479   -3.1036 C   0  0  0  0  0  0  0  0  0  0  0  0
    1.9426   -3.3443   -2.4471 C   0  0  0  0  0  0  0  0  0  0  0  0
    0.9417   -2.7641   -1.6663 C   0  0  0  0  0  0  0  0  0  0  0  0
   -7.2887   -0.1673    1.1101 C   0  0  0  0  0  0  0  0  0  0  0  0
   -8.6812   -0.0786    0.4545 C   0  0  0  0  0  0  0  0  0  0  0  0
  -10.5483    1.9048    0.6577 H   0  0  0  0  0  0  0  0  0  0  0  0
   -8.9599    2.5181    1.2587 H   0  0  0  0  0  0  0  0  0  0  0  0
   -9.6500    3.1138   -0.3037 H   0  0  0  0  0  0  0  0  0  0  0  0
   -7.7822    2.4814   -1.6387 H   0  0  0  0  0  0  0  0  0  0  0  0
   -7.2646    0.7823   -1.7127 H   0  0  0  0  0  0  0  0  0  0  0  0
   -5.5232    1.5257   -0.4297 H   0  0  0  0  0  0  0  0  0  0  0  0
   -6.4234    2.9521    0.1906 H   0  0  0  0  0  0  0  0  0  0  0  0
   -5.2967    2.2979    2.3868 H   0  0  0  0  0  0  0  0  0  0  0  0
   -5.9221    0.8809    3.2363 H   0  0  0  0  0  0  0  0  0  0  0  0
   -3.4053    2.0948    0.8229 H   0  0  0  0  0  0  0  0  0  0  0  0
   -1.4777    0.7965    0.0757 H   0  0  0  0  0  0  0  0  0  0  0  0
   -3.1436   -2.7319    1.9350 H   0  0  0  0  0  0  0  0  0  0  0  0
   -5.0776   -1.4256    2.6640 H   0  0  0  0  0  0  0  0  0  0  0  0
    0.4816   -0.3142    0.6035 H   0  0  0  0  0  0  0  0  0  0  0  0
    2.8707   -0.8115    0.3351 H   0  0  0  0  0  0  0  0  0  0  0  0
    5.7282   -2.4857   -1.0582 H   0  0  0  0  0  0  0  0  0  0  0  0
    4.4145    2.7734   -0.9173 H   0  0  0  0  0  0  0  0  0  0  0  0
    6.7369    3.1829   -0.1944 H   0  0  0  0  0  0  0  0  0  0  0  0
    9.3297   -0.6198   -0.6033 H   0  0  0  0  0  0  0  0  0  0  0  0
   12.3447    1.5306    1.4183 H   0  0  0  0  0  0  0  0  0  0  0  0
   10.7195    3.2919    2.0687 H   0  0  0  0  0  0  0  0  0  0  0  0
    8.3643    3.0910    1.3919 H   0  0  0  0  0  0  0  0  0  0  0  0
    5.0381   -2.8741   -3.5035 H   0  0  0  0  0  0  0  0  0  0  0  0
    3.9046   -4.1853   -3.9682 H   0  0  0  0  0  0  0  0  0  0  0  0
    4.9264   -4.3760   -2.4961 H   0  0  0  0  0  0  0  0  0  0  0  0
    1.6616   -4.0535   -3.2160 H   0  0  0  0  0  0  0  0  0  0  0  0
   -0.0903   -3.0185   -1.8682 H   0  0  0  0  0  0  0  0  0  0  0  0
   -6.6118   -0.7672    0.4604 H   0  0  0  0  0  0  0  0  0  0  0  0
   -7.3888   -0.6915    2.0860 H   0  0  0  0  0  0  0  0  0  0  0  0
   -9.4632   -0.1363    1.2452 H   0  0  0  0  0  0  0  0  0  0  0  0
   -8.8285   -0.9743   -0.1864 H   0  0  0  0  0  0  0  0  0  0  0  0
  1  2  1  0
  2  3  1  0
  3  4  1  0
  4  5  1  0
  5  6  1  0
  6  7  1  0
  7  8  2  0
  8  9  1  0
  9 10  2  0
 10 11  1  0
 11 12  2  0
 10 13  1  0
 13 14  2  0
 13 15  1  0
 15 16  1  0
 16 17  2  0
 17 18  1  0
 18 19  1  0
 19 20  1  0
 20 21  2  0
 21 22  1  0
 22 23  2  0
 23 24  1  0
 24 25  2  0
 24 26  1  0
 26 27  2  0
 27 28  1  0
 28 29  2  0
 29 30  1  0
 30 31  2  0
 18 32  2  0
 32 33  1  0
 32 34  1  0
 34 35  2  0
  5 36  1  0
 36 37  1  0
 37  2  1  0
 12  7  1  0
 35 16  1  0
 25 20  1  0
 31 26  1  0
  1 38  1  0
  1 39  1  0
  1 40  1  0
  3 41  1  0
  3 42  1  0
  4 43  1  0
  4 44  1  0
  6 45  1  0
  6 46  1  0
  8 47  1  0
  9 48  1  0
 11 49  1  0
 12 50  1  0
 15 51  1  0
 17 52  1  0
 19 53  1  0
 22 54  1  0
 23 55  1  0
 27 56  1  0
 29 57  1  0
 30 58  1  0
 31 59  1  0
 33 60  1  0
 33 61  1  0
 33 62  1  0
 34 63  1  0
 35 64  1  0
 36 65  1  0
 36 66  1  0
 37 67  1  0
 37 68  1  0
M  END
$$$$
