
     RDKit          3D

 70 73  0  0  0  0  0  0  0  0999 V2000
   -1.5392   -1.4725   -4.0997 C   0  0  0  0  0  0  0  0  0  0  0  0
   -0.8125   -1.0633   -2.9453 O   0  0  0  0  0  0  0  0  0  0  0  0
   -1.3716   -0.3791   -1.8535 C   0  0  0  0  0  0  0  0  0  0  0  0
   -0.5497   -0.0664   -0.7576 C   0  0  0  0  0  0  0  0  0  0  0  0
    0.8282   -0.4799   -0.7576 N   0  0  0  0  0  0  0  0  0  0  0  0
    1.9004    0.3146   -0.2310 C   0  0  0  0  0  0  0  0  0  0  0  0
    1.7086    1.6250    0.0821 N   0  0  0  0  0  0  0  0  0  0  0  0
    2.7274    2.3893    0.5509 C   0  0  0  0  0  0  0  0  0  0  0  0
    3.9960    1.8355    0.7132 C   0  0  0  0  0  0  0  0  0  0  0  0
    4.1837    0.4845    0.3947 C   0  0  0  0  0  0  0  0  0  0  0  0
    3.1353   -0.2361   -0.0873 N   0  0  0  0  0  0  0  0  0  0  0  0
    5.5045   -0.1612    0.5141 C   0  0  0  0  0  0  0  0  0  0  0  0
    5.9998   -1.1435   -0.3389 C   0  0  0  0  0  0  0  0  0  0  0  0
    7.2394   -1.5215    0.0496 N   0  0  0  0  0  0  0  0  0  0  0  0
    8.0630   -2.5513   -0.5766 C   0  0  0  0  0  0  0  0  0  0  0  0
    7.5273   -0.8095    1.1570 C   0  0  0  0  0  0  0  0  0  0  0  0
    6.4874    0.0326    1.4758 C   0  0  0  0  0  0  0  0  0  0  0  0
    6.5169    0.8205    2.6303 C   0  0  0  0  0  0  0  0  0  0  0  0
    7.6645    0.7633    3.4405 C   0  0  0  0  0  0  0  0  0  0  0  0
    8.7403   -0.0830    3.0994 C   0  0  0  0  0  0  0  0  0  0  0  0
    8.6754   -0.8888    1.9498 C   0  0  0  0  0  0  0  0  0  0  0  0
   -1.0960    0.5979    0.3529 C   0  0  0  0  0  0  0  0  0  0  0  0
   -2.4437    0.9937    0.3704 C   0  0  0  0  0  0  0  0  0  0  0  0
   -2.9806    1.7056    1.5025 N   0  0  0  0  0  0  0  0  0  0  0  0
   -2.2181    2.6504    2.2739 C   0  0  0  0  0  0  0  0  0  0  0  0
   -1.1963    3.1927    1.7730 O   0  0  0  0  0  0  0  0  0  0  0  0
   -2.6315    3.0516    3.6319 C   0  0  0  0  0  0  0  0  0  0  0  0
   -3.5352    2.3844    4.3478 C   0  0  0  0  0  0  0  0  0  0  0  0
   -3.2686    0.6619   -0.7228 C   0  0  0  0  0  0  0  0  0  0  0  0
   -2.7246    0.0018   -1.8320 C   0  0  0  0  0  0  0  0  0  0  0  0
   -4.6636    1.0015   -0.7229 N   0  0  0  0  0  0  0  0  0  0  0  0
   -5.1236    2.1130   -1.5547 C   0  0  0  0  0  0  0  0  0  0  0  0
   -5.6209    0.1716    0.0193 C   0  0  0  0  0  0  0  0  0  0  0  0
   -6.3784   -0.7800   -0.9177 C   0  0  0  0  0  0  0  0  0  0  0  0
   -5.4495   -1.6211   -1.7034 N   0  0  0  0  0  0  0  0  0  0  0  0
   -6.1169   -2.1233   -2.9145 C   0  0  0  0  0  0  0  0  0  0  0  0
   -4.9518   -2.7571   -0.9083 C   0  0  0  0  0  0  0  0  0  0  0  0
   -1.9511   -0.5857   -4.6259 H   0  0  0  0  0  0  0  0  0  0  0  0
   -0.8537   -2.0070   -4.7886 H   0  0  0  0  0  0  0  0  0  0  0  0
   -2.3607   -2.1616   -3.8095 H   0  0  0  0  0  0  0  0  0  0  0  0
    1.0790   -1.3793   -1.2273 H   0  0  0  0  0  0  0  0  0  0  0  0
    2.5551    3.4314    0.7841 H   0  0  0  0  0  0  0  0  0  0  0  0
    4.8155    2.4605    1.0409 H   0  0  0  0  0  0  0  0  0  0  0  0
    5.4809   -1.5517   -1.1974 H   0  0  0  0  0  0  0  0  0  0  0  0
    8.1481   -3.4249    0.1032 H   0  0  0  0  0  0  0  0  0  0  0  0
    9.0758   -2.1471   -0.7857 H   0  0  0  0  0  0  0  0  0  0  0  0
    7.6100   -2.8833   -1.5351 H   0  0  0  0  0  0  0  0  0  0  0  0
    5.6803    1.4401    2.9197 H   0  0  0  0  0  0  0  0  0  0  0  0
    7.7178    1.3641    4.3391 H   0  0  0  0  0  0  0  0  0  0  0  0
    9.6156   -0.1228    3.7347 H   0  0  0  0  0  0  0  0  0  0  0  0
    9.4900   -1.5549    1.6977 H   0  0  0  0  0  0  0  0  0  0  0  0
   -0.4782    0.7739    1.2233 H   0  0  0  0  0  0  0  0  0  0  0  0
   -4.0006    1.6276    1.7056 H   0  0  0  0  0  0  0  0  0  0  0  0
   -2.1493    3.9106    4.0828 H   0  0  0  0  0  0  0  0  0  0  0  0
   -3.7850    2.7221    5.3452 H   0  0  0  0  0  0  0  0  0  0  0  0
   -4.0186    1.4917    3.9751 H   0  0  0  0  0  0  0  0  0  0  0  0
   -3.3689   -0.2188   -2.6715 H   0  0  0  0  0  0  0  0  0  0  0  0
   -6.2199    2.2599   -1.4533 H   0  0  0  0  0  0  0  0  0  0  0  0
   -4.6133    3.0480   -1.2415 H   0  0  0  0  0  0  0  0  0  0  0  0
   -4.8911    1.9081   -2.6208 H   0  0  0  0  0  0  0  0  0  0  0  0
   -6.3524    0.8278    0.5389 H   0  0  0  0  0  0  0  0  0  0  0  0
   -5.1013   -0.4070    0.8122 H   0  0  0  0  0  0  0  0  0  0  0  0
   -7.0008   -0.1501   -1.5927 H   0  0  0  0  0  0  0  0  0  0  0  0
   -7.0821   -1.4055   -0.3231 H   0  0  0  0  0  0  0  0  0  0  0  0
   -7.0190   -2.7226   -2.6574 H   0  0  0  0  0  0  0  0  0  0  0  0
   -5.4180   -2.7518   -3.5079 H   0  0  0  0  0  0  0  0  0  0  0  0
   -6.4164   -1.2737   -3.5651 H   0  0  0  0  0  0  0  0  0  0  0  0
   -4.2514   -3.3709   -1.5150 H   0  0  0  0  0  0  0  0  0  0  0  0
   -5.7867   -3.4039   -0.5577 H   0  0  0  0  0  0  0  0  0  0  0  0
   -4.3753   -2.3968   -0.0321 H   0  0  0  0  0  0  0  0  0  0  0  0
  1  2  1  0
  2  3  1  0
  3  4  2  0
  4  5  1  0
  5  6  1  0
  6  7  2  0
  7  8  1  0
  8  9  2  0
  9 10  1  0
 10 11  2  0
 10 12  1  0
 12 13  2  0
 13 14  1  0
 14 15  1  0
 14 16  1  0
 16 17  2  0
 17 18  1  0
 18 19  2  0
 19 20  1  0
 20 21  2  0
  4 22  1  0
 22 23  2  0
 23 24  1  0
 24 25  1  0
 25 26  2  0
 25 27  1  0
 27 28  2  3
 23 29  1  0
 29 30  2  0
 29 31  1  0
 31 32  1  0
 31 33  1  0
 33 34  1  0
 34 35  1  0
 35 36  1  0
 35 37  1  0
 30  3  1  0
 11  6  1  0
 17 12  1  0
 21 16  1  0
  1 38  1  0
  1 39  1  0
  1 40  1  0
  5 41  1  0
  8 42  1  0
  9 43  1  0
 13 44  1  0
 15 45  1  0
 15 46  1  0
 15 47  1  0
 18 48  1  0
 19 49  1  0
 20 50  1  0
 21 51  1  0
 22 52  1  0
 24 53  1  0
 27 54  1  0
 28 55  1  0
 28 56  1  0
 30 57  1  0
 32 58  1  0
 32 59  1  0
 32 60  1  0
 33 61  1  0
 33 62  1  0
 34 63  1  0
 34 64  1  0
 36 65  1  0
 36 66  1  0
 36 67  1  0
 37 68  1  0
 37 69  1  0
 37 70  1  0
M  END
$$$$
