
     RDKit          3D

 50 53  0  0  0  0  0  0  0  0999 V2000
    2.9734    3.6259    3.4738 F   0  0  0  0  0  0  0  0  0  0  0  0
    3.3039    2.5661    2.6955 C   0  0  0  0  0  0  0  0  0  0  0  0
    4.6013    2.0518    2.7294 C   0  0  0  0  0  0  0  0  0  0  0  0
    4.9451    0.9591    1.9276 C   0  0  0  0  0  0  0  0  0  0  0  0
    3.9913    0.3626    1.0790 C   0  0  0  0  0  0  0  0  0  0  0  0
    2.6851    0.8963    1.0542 C   0  0  0  0  0  0  0  0  0  0  0  0
    2.3477    1.9890    1.8582 C   0  0  0  0  0  0  0  0  0  0  0  0
    4.3777   -0.8021    0.2325 C   0  0  0  0  0  0  0  0  0  0  0  0
    5.5866   -1.1580    0.1785 O   0  0  0  0  0  0  0  0  0  0  0  0
    3.3784   -1.5625   -0.5967 C   0  0  0  0  0  0  0  0  0  0  0  0
    3.1467   -0.8655   -1.9460 C   0  0  0  0  0  0  0  0  0  0  0  0
    1.9269   -1.4389   -2.6792 C   0  0  0  0  0  0  0  0  0  0  0  0
    0.6874   -1.1638   -1.9197 N   0  0  0  0  0  0  0  0  0  0  0  0
    0.1186    0.1510   -2.2722 C   0  0  0  0  0  0  0  0  0  0  0  0
   -0.9980    0.4902   -1.2849 C   0  0  0  0  0  0  0  0  0  0  0  0
   -1.9725   -0.6537   -1.1333 C   0  0  0  0  0  0  0  0  0  0  0  0
   -1.6262   -1.9049   -1.4760 C   0  0  0  0  0  0  0  0  0  0  0  0
   -0.3179   -2.2194   -2.1544 C   0  0  0  0  0  0  0  0  0  0  0  0
   -3.2874   -0.3996   -0.6110 N   0  0  0  0  0  0  0  0  0  0  0  0
   -4.4742   -0.6687   -1.2140 C   0  0  0  0  0  0  0  0  0  0  0  0
   -4.5735   -1.2230   -2.3415 O   0  0  0  0  0  0  0  0  0  0  0  0
   -5.5471   -0.2656   -0.4943 N   0  0  0  0  0  0  0  0  0  0  0  0
   -5.0062    0.2801    0.6086 C   0  0  0  0  0  0  0  0  0  0  0  0
   -5.6665    0.8359    1.7017 C   0  0  0  0  0  0  0  0  0  0  0  0
   -4.8796    1.3162    2.7643 C   0  0  0  0  0  0  0  0  0  0  0  0
   -3.4706    1.2189    2.7132 C   0  0  0  0  0  0  0  0  0  0  0  0
   -2.8329    0.6488    1.5954 C   0  0  0  0  0  0  0  0  0  0  0  0
   -3.6392    0.2023    0.5447 C   0  0  0  0  0  0  0  0  0  0  0  0
    5.3436    2.4992    3.3780 H   0  0  0  0  0  0  0  0  0  0  0  0
    5.9580    0.5795    1.9762 H   0  0  0  0  0  0  0  0  0  0  0  0
    1.9192    0.4851    0.4132 H   0  0  0  0  0  0  0  0  0  0  0  0
    1.3421    2.3891    1.8289 H   0  0  0  0  0  0  0  0  0  0  0  0
    2.4314   -1.6762   -0.0285 H   0  0  0  0  0  0  0  0  0  0  0  0
    3.7580   -2.5913   -0.7822 H   0  0  0  0  0  0  0  0  0  0  0  0
    3.0183    0.2277   -1.8025 H   0  0  0  0  0  0  0  0  0  0  0  0
    4.0471   -1.0078   -2.5827 H   0  0  0  0  0  0  0  0  0  0  0  0
    1.8732   -1.0099   -3.7057 H   0  0  0  0  0  0  0  0  0  0  0  0
    2.0912   -2.5344   -2.7991 H   0  0  0  0  0  0  0  0  0  0  0  0
   -0.2837    0.1452   -3.3116 H   0  0  0  0  0  0  0  0  0  0  0  0
    0.8895    0.9482   -2.2082 H   0  0  0  0  0  0  0  0  0  0  0  0
   -0.5371    0.7141   -0.3022 H   0  0  0  0  0  0  0  0  0  0  0  0
   -1.5372    1.3966   -1.6343 H   0  0  0  0  0  0  0  0  0  0  0  0
   -2.3448   -2.7074   -1.3618 H   0  0  0  0  0  0  0  0  0  0  0  0
   -0.5048   -2.3500   -3.2442 H   0  0  0  0  0  0  0  0  0  0  0  0
    0.0558   -3.1826   -1.7444 H   0  0  0  0  0  0  0  0  0  0  0  0
   -6.5584   -0.3582   -0.7384 H   0  0  0  0  0  0  0  0  0  0  0  0
   -6.7468    0.8908    1.7365 H   0  0  0  0  0  0  0  0  0  0  0  0
   -5.3572    1.7531    3.6316 H   0  0  0  0  0  0  0  0  0  0  0  0
   -2.8773    1.5767    3.5446 H   0  0  0  0  0  0  0  0  0  0  0  0
   -1.7587    0.5440    1.5773 H   0  0  0  0  0  0  0  0  0  0  0  0
  1  2  1  0
  2  3  2  0
  3  4  1  0
  4  5  2  0
  5  6  1  0
  6  7  2  0
  5  8  1  0
  8  9  2  0
  8 10  1  0
 10 11  1  0
 11 12  1  0
 12 13  1  0
 13 14  1  0
 14 15  1  0
 15 16  1  0
 16 17  2  0
 17 18  1  0
 16 19  1  0
 19 20  1  0
 20 21  2  0
 20 22  1  0
 22 23  1  0
 23 24  2  0
 24 25  1  0
 25 26  2  0
 26 27  1  0
 27 28  2  0
  7  2  1  0
 18 13  1  0
 28 19  1  0
 28 23  1  0
  3 29  1  0
  4 30  1  0
  6 31  1  0
  7 32  1  0
 10 33  1  0
 10 34  1  0
 11 35  1  0
 11 36  1  0
 12 37  1  0
 12 38  1  0
 14 39  1  0
 14 40  1  0
 15 41  1  0
 15 42  1  0
 17 43  1  0
 18 44  1  0
 18 45  1  0
 22 46  1  0
 24 47  1  0
 25 48  1  0
 26 49  1  0
 27 50  1  0
M  END
$$$$
