
     RDKit          3D

 55 58  0  0  0  0  0  0  0  0999 V2000
    6.6982    1.5347    0.9898 C   0  0  0  0  0  0  0  0  0  0  0  0
    6.8708    0.0729    0.9201 N   0  0  0  0  0  0  0  0  0  0  0  0
    6.7113   -0.4357   -0.4554 C   0  0  0  0  0  0  0  0  0  0  0  0
    5.2519   -0.3391   -0.9552 C   0  0  0  0  0  0  0  0  0  0  0  0
    4.2696   -0.3035    0.1552 N   0  0  0  0  0  0  0  0  0  0  0  0
    2.9161   -0.6818   -0.3041 C   0  0  0  0  0  0  0  0  0  0  0  0
    2.3112    0.4028   -1.2032 C   0  0  0  0  0  0  0  0  0  0  0  0
    0.9112    0.0978   -1.4872 N   0  0  0  0  0  0  0  0  0  0  0  0
    0.4175   -0.6652   -2.4955 C   0  0  0  0  0  0  0  0  0  0  0  0
   -0.9327   -0.8330   -2.4322 N   0  0  0  0  0  0  0  0  0  0  0  0
   -1.2673   -0.1435   -1.3243 C   0  0  0  0  0  0  0  0  0  0  0  0
   -2.5151    0.0281   -0.7327 C   0  0  0  0  0  0  0  0  0  0  0  0
   -3.7015   -0.5435   -1.3132 N   0  0  0  0  0  0  0  0  0  0  0  0
   -5.0472   -0.4551   -0.7309 C   0  0  0  0  0  0  0  0  0  0  0  0
   -5.5579    1.0088   -0.6916 C   0  0  0  0  0  0  0  0  0  0  0  0
   -6.5254    1.2793    0.4764 C   0  0  0  0  0  0  0  0  0  0  0  0
   -7.3961    0.0547    0.7785 C   0  0  0  0  0  0  0  0  0  0  0  0
   -6.5519   -1.1691    1.1945 C   0  0  0  0  0  0  0  0  0  0  0  0
   -5.1104   -1.1385    0.6482 C   0  0  0  0  0  0  0  0  0  0  0  0
   -2.5634    0.7631    0.4206 N   0  0  0  0  0  0  0  0  0  0  0  0
   -1.4341    1.3058    0.9785 C   0  0  0  0  0  0  0  0  0  0  0  0
   -0.2149    1.1256    0.3877 N   0  0  0  0  0  0  0  0  0  0  0  0
   -0.1676    0.4045   -0.7580 C   0  0  0  0  0  0  0  0  0  0  0  0
   -1.5340    2.0655    2.1916 C   0  0  0  0  0  0  0  0  0  0  0  0
   -1.6149    2.6781    3.1700 N   0  0  0  0  0  0  0  0  0  0  0  0
    4.7018   -1.1798    1.2568 C   0  0  0  0  0  0  0  0  0  0  0  0
    6.0022   -0.6415    1.8856 C   0  0  0  0  0  0  0  0  0  0  0  0
    5.6438    1.8326    0.8057 H   0  0  0  0  0  0  0  0  0  0  0  0
    7.0024    1.9011    1.9934 H   0  0  0  0  0  0  0  0  0  0  0  0
    7.3525    2.0383    0.2462 H   0  0  0  0  0  0  0  0  0  0  0  0
    7.0316   -1.5010   -0.4776 H   0  0  0  0  0  0  0  0  0  0  0  0
    7.3900    0.1050   -1.1515 H   0  0  0  0  0  0  0  0  0  0  0  0
    5.1542    0.5987   -1.5430 H   0  0  0  0  0  0  0  0  0  0  0  0
    5.0588   -1.1927   -1.6438 H   0  0  0  0  0  0  0  0  0  0  0  0
    2.9321   -1.6573   -0.8411 H   0  0  0  0  0  0  0  0  0  0  0  0
    2.2396   -0.7955    0.5727 H   0  0  0  0  0  0  0  0  0  0  0  0
    2.8705    0.4644   -2.1610 H   0  0  0  0  0  0  0  0  0  0  0  0
    2.3827    1.3908   -0.6982 H   0  0  0  0  0  0  0  0  0  0  0  0
    1.0336   -1.1091   -3.2668 H   0  0  0  0  0  0  0  0  0  0  0  0
   -3.6047   -1.0772   -2.2069 H   0  0  0  0  0  0  0  0  0  0  0  0
   -5.7373   -1.0248   -1.3952 H   0  0  0  0  0  0  0  0  0  0  0  0
   -4.7184    1.7310   -0.6218 H   0  0  0  0  0  0  0  0  0  0  0  0
   -6.0795    1.2256   -1.6497 H   0  0  0  0  0  0  0  0  0  0  0  0
   -7.1748    2.1458    0.2260 H   0  0  0  0  0  0  0  0  0  0  0  0
   -5.9443    1.5460    1.3868 H   0  0  0  0  0  0  0  0  0  0  0  0
   -7.9888   -0.1957   -0.1291 H   0  0  0  0  0  0  0  0  0  0  0  0
   -8.1154    0.3020    1.5889 H   0  0  0  0  0  0  0  0  0  0  0  0
   -7.0606   -2.0907    0.8365 H   0  0  0  0  0  0  0  0  0  0  0  0
   -6.5092   -1.2278    2.3041 H   0  0  0  0  0  0  0  0  0  0  0  0
   -4.7240   -2.1781    0.5714 H   0  0  0  0  0  0  0  0  0  0  0  0
   -4.4706   -0.5959    1.3747 H   0  0  0  0  0  0  0  0  0  0  0  0
    3.9264   -1.2236    2.0538 H   0  0  0  0  0  0  0  0  0  0  0  0
    4.8630   -2.2176    0.8836 H   0  0  0  0  0  0  0  0  0  0  0  0
    6.5718   -1.4982    2.3050 H   0  0  0  0  0  0  0  0  0  0  0  0
    5.7474    0.0111    2.7515 H   0  0  0  0  0  0  0  0  0  0  0  0
  1  2  1  0
  2  3  1  0
  3  4  1  0
  4  5  1  0
  5  6  1  0
  6  7  1  0
  7  8  1  0
  8  9  1  0
  9 10  2  0
 10 11  1  0
 11 12  2  0
 12 13  1  0
 13 14  1  0
 14 15  1  0
 15 16  1  0
 16 17  1  0
 17 18  1  0
 18 19  1  0
 12 20  1  0
 20 21  2  0
 21 22  1  0
 22 23  2  0
 21 24  1  0
 24 25  3  0
  5 26  1  0
 26 27  1  0
 27  2  1  0
 23  8  1  0
 23 11  1  0
 19 14  1  0
  1 28  1  0
  1 29  1  0
  1 30  1  0
  3 31  1  0
  3 32  1  0
  4 33  1  0
  4 34  1  0
  6 35  1  0
  6 36  1  0
  7 37  1  0
  7 38  1  0
  9 39  1  0
 13 40  1  0
 14 41  1  0
 15 42  1  0
 15 43  1  0
 16 44  1  0
 16 45  1  0
 17 46  1  0
 17 47  1  0
 18 48  1  0
 18 49  1  0
 19 50  1  0
 19 51  1  0
 26 52  1  0
 26 53  1  0
 27 54  1  0
 27 55  1  0
M  END
$$$$
