
     RDKit          3D

 67 68  0  0  0  0  0  0  0  0999 V2000
   -2.8156    2.9130   -2.6797 C   0  0  2  0  0  0  0  0  0  0  0  0
   -3.8347    3.6171   -3.3488 O   0  0  0  0  0  0  0  0  0  0  0  0
   -3.3355    2.2548   -1.3904 C   0  0  0  0  0  0  0  0  0  0  0  0
   -2.2251    1.4309   -0.7102 C   0  0  1  0  0  0  0  0  0  0  0  0
   -2.2290    0.1194   -1.2604 O   0  0  0  0  0  0  0  0  0  0  0  0
   -2.1024   -0.8729   -0.2570 C   0  0  2  0  0  0  0  0  0  0  0  0
   -0.8496   -0.7489    0.3944 O   0  0  0  0  0  0  0  0  0  0  0  0
   -0.7719   -1.5472    1.5708 C   0  0  1  0  0  0  0  0  0  0  0  0
   -1.2069   -0.7370    2.7975 C   0  0  0  0  0  0  0  0  0  0  0  0
   -1.4720   -2.9388    1.4490 C   0  0  1  0  0  0  0  0  0  0  0  0
   -2.7865   -2.8973    1.9517 O   0  0  0  0  0  0  0  0  0  0  0  0
   -1.5005   -3.3522   -0.0342 C   0  0  1  0  0  0  0  0  0  0  0  0
   -2.0804   -4.6221   -0.2058 O   0  0  0  0  0  0  0  0  0  0  0  0
   -2.2128   -2.2787   -0.9027 C   0  0  2  0  0  0  0  0  0  0  0  0
   -1.6915   -2.2899   -2.2098 O   0  0  0  0  0  0  0  0  0  0  0  0
   -0.8355    2.0806   -0.9421 C   0  0  2  0  0  0  0  0  0  0  0  0
   -0.0358    1.8459    0.2037 O   0  0  0  0  0  0  0  0  0  0  0  0
    1.3139    1.6414   -0.1559 C   0  0  0  0  0  0  0  0  0  0  0  0
    2.1195    1.3324    1.1077 C   0  0  0  0  0  0  0  0  0  0  0  0
    3.6307    1.2058    0.8473 C   0  0  0  0  0  0  0  0  0  0  0  0
    4.0338    0.0984   -0.1480 C   0  0  0  0  0  0  0  0  0  0  0  0
    3.5522   -1.3168    0.2204 C   0  0  0  0  0  0  0  0  0  0  0  0
    4.1063   -1.8005    1.5719 C   0  0  0  0  0  0  0  0  0  0  0  0
    3.9463   -3.3163    1.7679 C   0  0  0  0  0  0  0  0  0  0  0  0
    2.4881   -3.7423    1.9291 C   0  0  0  0  0  0  0  0  0  0  0  0
   -0.9745    3.4797   -1.1142 O   0  0  0  0  0  0  0  0  0  0  0  0
   -1.5473    3.7869   -2.3804 C   0  0  2  0  0  0  0  0  0  0  0  0
   -1.8171    5.3021   -2.4082 C   0  0  0  0  0  0  0  0  0  0  0  0
   -2.1510    5.7356   -3.7001 O   0  0  0  0  0  0  0  0  0  0  0  0
   -2.5006    2.0885   -3.3575 H   0  0  0  0  0  0  0  0  0  0  0  0
   -4.3142    4.1756   -2.6831 H   0  0  0  0  0  0  0  0  0  0  0  0
   -4.2103    1.6068   -1.6178 H   0  0  0  0  0  0  0  0  0  0  0  0
   -3.6794    3.0497   -0.6912 H   0  0  0  0  0  0  0  0  0  0  0  0
   -2.4569    1.4466    0.3837 H   0  0  0  0  0  0  0  0  0  0  0  0
   -2.9451   -0.7606    0.4674 H   0  0  0  0  0  0  0  0  0  0  0  0
    0.3077   -1.7573    1.7186 H   0  0  0  0  0  0  0  0  0  0  0  0
   -2.2765   -0.4494    2.7285 H   0  0  0  0  0  0  0  0  0  0  0  0
   -1.0481   -1.3307    3.7227 H   0  0  0  0  0  0  0  0  0  0  0  0
   -0.5999    0.1905    2.8671 H   0  0  0  0  0  0  0  0  0  0  0  0
   -0.8754   -3.6983    2.0100 H   0  0  0  0  0  0  0  0  0  0  0  0
   -2.7360   -3.1134    2.9192 H   0  0  0  0  0  0  0  0  0  0  0  0
   -0.4401   -3.4310   -0.3638 H   0  0  0  0  0  0  0  0  0  0  0  0
   -3.0276   -4.5685    0.0853 H   0  0  0  0  0  0  0  0  0  0  0  0
   -3.2957   -2.5216   -0.9748 H   0  0  0  0  0  0  0  0  0  0  0  0
   -0.7519   -1.9710   -2.1610 H   0  0  0  0  0  0  0  0  0  0  0  0
   -0.3950    1.6220   -1.8664 H   0  0  0  0  0  0  0  0  0  0  0  0
    1.3981    0.7718   -0.8453 H   0  0  0  0  0  0  0  0  0  0  0  0
    1.7251    2.5544   -0.6435 H   0  0  0  0  0  0  0  0  0  0  0  0
    1.7340    0.4063    1.5829 H   0  0  0  0  0  0  0  0  0  0  0  0
    1.9635    2.1581    1.8357 H   0  0  0  0  0  0  0  0  0  0  0  0
    4.0078    2.1774    0.4602 H   0  0  0  0  0  0  0  0  0  0  0  0
    4.1449    1.0314    1.8166 H   0  0  0  0  0  0  0  0  0  0  0  0
    5.1428    0.0881   -0.2261 H   0  0  0  0  0  0  0  0  0  0  0  0
    3.6560    0.3547   -1.1604 H   0  0  0  0  0  0  0  0  0  0  0  0
    2.4429   -1.3516    0.2245 H   0  0  0  0  0  0  0  0  0  0  0  0
    3.8967   -2.0054   -0.5818 H   0  0  0  0  0  0  0  0  0  0  0  0
    5.1915   -1.5642    1.6263 H   0  0  0  0  0  0  0  0  0  0  0  0
    3.6002   -1.2643    2.4037 H   0  0  0  0  0  0  0  0  0  0  0  0
    4.4003   -3.8621    0.9125 H   0  0  0  0  0  0  0  0  0  0  0  0
    4.4995   -3.6126    2.6854 H   0  0  0  0  0  0  0  0  0  0  0  0
    2.4434   -4.8291    2.1518 H   0  0  0  0  0  0  0  0  0  0  0  0
    2.0151   -3.1918    2.7697 H   0  0  0  0  0  0  0  0  0  0  0  0
    1.9202   -3.5583    0.9936 H   0  0  0  0  0  0  0  0  0  0  0  0
   -0.7861    3.5840   -3.1689 H   0  0  0  0  0  0  0  0  0  0  0  0
   -2.6444    5.5534   -1.7113 H   0  0  0  0  0  0  0  0  0  0  0  0
   -0.9142    5.8496   -2.0521 H   0  0  0  0  0  0  0  0  0  0  0  0
   -1.3074    5.7489   -4.2235 H   0  0  0  0  0  0  0  0  0  0  0  0
  1  2  1  0
  1  3  1  0
  3  4  1  0
  4  5  1  0
  5  6  1  0
  6  7  1  0
  7  8  1  0
  8  9  1  0
  8 10  1  0
 10 11  1  0
 10 12  1  0
 12 13  1  0
 12 14  1  0
 14 15  1  0
  4 16  1  0
 16 17  1  0
 17 18  1  0
 18 19  1  0
 19 20  1  0
 20 21  1  0
 21 22  1  0
 22 23  1  0
 23 24  1  0
 24 25  1  0
 16 26  1  0
 26 27  1  0
 27 28  1  0
 28 29  1  0
 27  1  1  0
 14  6  1  0
  1 30  1  6
  2 31  1  0
  3 32  1  0
  3 33  1  0
  4 34  1  1
  6 35  1  1
  8 36  1  1
  9 37  1  0
  9 38  1  0
  9 39  1  0
 10 40  1  1
 11 41  1  0
 12 42  1  6
 13 43  1  0
 14 44  1  6
 15 45  1  0
 16 46  1  6
 18 47  1  0
 18 48  1  0
 19 49  1  0
 19 50  1  0
 20 51  1  0
 20 52  1  0
 21 53  1  0
 21 54  1  0
 22 55  1  0
 22 56  1  0
 23 57  1  0
 23 58  1  0
 24 59  1  0
 24 60  1  0
 25 61  1  0
 25 62  1  0
 25 63  1  0
 27 64  1  6
 28 65  1  0
 28 66  1  0
 29 67  1  0
M  END
$$$$
