
     RDKit          3D

 24 24  0  0  0  0  0  0  0  0999 V2000
   -3.2303   -1.3500    0.1978 N   0  0  0  0  0  0  0  0  0  0  0  0
   -1.9910   -0.5735    0.2591 C   0  0  1  0  0  0  0  0  0  0  0  0
   -0.8724   -1.3083   -0.5042 C   0  0  0  0  0  0  0  0  0  0  0  0
    0.4582   -0.6138   -0.3526 C   0  0  0  0  0  0  0  0  0  0  0  0
    1.2265   -0.8047    0.8074 C   0  0  0  0  0  0  0  0  0  0  0  0
    2.4455   -0.1379    0.9637 C   0  0  0  0  0  0  0  0  0  0  0  0
    2.9054    0.7303   -0.0317 C   0  0  0  0  0  0  0  0  0  0  0  0
    4.1213    1.3886    0.1376 O   0  0  0  0  0  0  0  0  0  0  0  0
    2.1387    0.9313   -1.1876 C   0  0  0  0  0  0  0  0  0  0  0  0
    0.9198    0.2652   -1.3464 C   0  0  0  0  0  0  0  0  0  0  0  0
   -2.2212    0.7954   -0.3213 C   0  0  0  0  0  0  0  0  0  0  0  0
   -1.7774    1.9208    0.3659 O   0  0  0  0  0  0  0  0  0  0  0  0
   -2.7843    0.9251   -1.4419 O   0  0  0  0  0  0  0  0  0  0  0  0
   -3.0719   -2.2636    0.6822 H   0  0  0  0  0  0  0  0  0  0  0  0
   -3.9591   -0.8517    0.7598 H   0  0  0  0  0  0  0  0  0  0  0  0
   -1.6892   -0.4648    1.3263 H   0  0  0  0  0  0  0  0  0  0  0  0
   -1.1431   -1.3976   -1.5799 H   0  0  0  0  0  0  0  0  0  0  0  0
   -0.7791   -2.3453   -0.1132 H   0  0  0  0  0  0  0  0  0  0  0  0
    0.8797   -1.4677    1.5904 H   0  0  0  0  0  0  0  0  0  0  0  0
    3.0317   -0.2935    1.8604 H   0  0  0  0  0  0  0  0  0  0  0  0
    4.4814    2.0242   -0.5647 H   0  0  0  0  0  0  0  0  0  0  0  0
    2.4848    1.6050   -1.9611 H   0  0  0  0  0  0  0  0  0  0  0  0
    0.3344    0.4377   -2.2411 H   0  0  0  0  0  0  0  0  0  0  0  0
   -1.9085    2.8490   -0.0180 H   0  0  0  0  0  0  0  0  0  0  0  0
  1  2  1  0
  2  3  1  0
  3  4  1  0
  4  5  2  0
  5  6  1  0
  6  7  2  0
  7  8  1  0
  7  9  1  0
  9 10  2  0
  2 11  1  0
 11 12  1  0
 11 13  2  0
 10  4  1  0
  1 14  1  0
  1 15  1  0
  2 16  1  1
  3 17  1  0
  3 18  1  0
  5 19  1  0
  6 20  1  0
  8 21  1  0
  9 22  1  0
 10 23  1  0
 12 24  1  0
M  END
$$$$
