
     RDKit          3D

 43 46  0  0  0  0  0  0  0  0999 V2000
   -4.3924    0.7964   -1.9586 F   0  0  0  0  0  0  0  0  0  0  0  0
   -4.7080    0.7225   -0.6407 C   0  0  0  0  0  0  0  0  0  0  0  0
   -4.5889   -0.4916    0.0633 C   0  0  0  0  0  0  0  0  0  0  0  0
   -4.1214   -1.7492   -0.6259 C   0  0  0  0  0  0  0  0  0  0  0  0
   -3.1107   -2.4057    0.1408 O   0  0  0  0  0  0  0  0  0  0  0  0
   -1.8066   -1.9258    0.3459 C   0  0  0  0  0  0  0  0  0  0  0  0
   -0.9692   -2.6419    1.2086 C   0  0  0  0  0  0  0  0  0  0  0  0
    0.3357   -2.2107    1.4590 C   0  0  0  0  0  0  0  0  0  0  0  0
    0.8247   -1.0497    0.8445 C   0  0  0  0  0  0  0  0  0  0  0  0
    2.1333   -0.6075    1.0904 C   0  0  0  0  0  0  0  0  0  0  0  0
    2.6181    0.5560    0.4718 C   0  0  0  0  0  0  0  0  0  0  0  0
    4.0330    1.0133    0.7244 C   0  0  0  0  0  0  0  0  0  0  0  0
    5.0618    0.1559   -0.0304 C   0  0  0  0  0  0  0  0  0  0  0  0
    6.7584    0.6337    0.5038 S   0  0  0  0  0  0  0  0  0  0  0  0
    7.1106    1.2472   -1.1352 C   0  0  0  0  0  0  0  0  0  0  0  0
    8.1724    1.8626   -1.4134 O   0  0  0  0  0  0  0  0  0  0  0  0
    6.1096    1.0103   -2.1019 N   0  0  0  0  0  0  0  0  0  0  0  0
    4.9924    0.3709   -1.5157 C   0  0  0  0  0  0  0  0  0  0  0  0
    4.0160   -0.0127   -2.2127 O   0  0  0  0  0  0  0  0  0  0  0  0
    1.7845    1.2737   -0.4005 C   0  0  0  0  0  0  0  0  0  0  0  0
    0.4802    0.8404   -0.6510 C   0  0  0  0  0  0  0  0  0  0  0  0
   -0.0098   -0.3196   -0.0335 C   0  0  0  0  0  0  0  0  0  0  0  0
   -1.3185   -0.7623   -0.2804 C   0  0  0  0  0  0  0  0  0  0  0  0
   -4.9500   -0.5351    1.4211 C   0  0  0  0  0  0  0  0  0  0  0  0
   -5.3954    0.6192    2.0713 C   0  0  0  0  0  0  0  0  0  0  0  0
   -5.4949    1.8233    1.3706 C   0  0  0  0  0  0  0  0  0  0  0  0
   -5.1542    1.8740    0.0167 C   0  0  0  0  0  0  0  0  0  0  0  0
   -3.7444   -1.5549   -1.6526 H   0  0  0  0  0  0  0  0  0  0  0  0
   -4.9888   -2.4350   -0.7228 H   0  0  0  0  0  0  0  0  0  0  0  0
   -1.3353   -3.5388    1.6922 H   0  0  0  0  0  0  0  0  0  0  0  0
    0.9609   -2.7838    2.1334 H   0  0  0  0  0  0  0  0  0  0  0  0
    2.7781   -1.1656    1.7601 H   0  0  0  0  0  0  0  0  0  0  0  0
    4.1556    2.0830    0.4430 H   0  0  0  0  0  0  0  0  0  0  0  0
    4.2347    0.9450    1.8158 H   0  0  0  0  0  0  0  0  0  0  0  0
    4.9125   -0.9213    0.1987 H   0  0  0  0  0  0  0  0  0  0  0  0
    6.1865    1.2650   -3.1118 H   0  0  0  0  0  0  0  0  0  0  0  0
    2.1468    2.1680   -0.8924 H   0  0  0  0  0  0  0  0  0  0  0  0
   -0.1442    1.4110   -1.3284 H   0  0  0  0  0  0  0  0  0  0  0  0
   -1.9453   -0.2009   -0.9591 H   0  0  0  0  0  0  0  0  0  0  0  0
   -4.8828   -1.4626    1.9764 H   0  0  0  0  0  0  0  0  0  0  0  0
   -5.6655    0.5796    3.1187 H   0  0  0  0  0  0  0  0  0  0  0  0
   -5.8404    2.7161    1.8754 H   0  0  0  0  0  0  0  0  0  0  0  0
   -5.2390    2.8075   -0.5247 H   0  0  0  0  0  0  0  0  0  0  0  0
  1  2  1  0
  2  3  2  0
  3  4  1  0
  4  5  1  0
  5  6  1  0
  6  7  2  0
  7  8  1  0
  8  9  2  0
  9 10  1  0
 10 11  2  0
 11 12  1  0
 12 13  1  0
 13 14  1  0
 14 15  1  0
 15 16  2  0
 15 17  1  0
 17 18  1  0
 18 19  2  0
 11 20  1  0
 20 21  2  0
 21 22  1  0
 22 23  2  0
  3 24  1  0
 24 25  2  0
 25 26  1  0
 26 27  2  0
 27  2  1  0
 23  6  1  0
 22  9  1  0
 18 13  1  0
  4 28  1  0
  4 29  1  0
  7 30  1  0
  8 31  1  0
 10 32  1  0
 12 33  1  0
 12 34  1  0
 13 35  1  0
 17 36  1  0
 20 37  1  0
 21 38  1  0
 23 39  1  0
 24 40  1  0
 25 41  1  0
 26 42  1  0
 27 43  1  0
M  END
$$$$
