
     RDKit          3D

 53 54  0  0  0  0  0  0  0  0999 V2000
    9.2037    1.5551   -0.5689 C   0  0  0  0  0  0  0  0  0  0  0  0
    8.2691    0.7492   -1.4053 C   0  0  0  0  0  0  0  0  0  0  0  0
    7.8038    1.2395   -2.4699 O   0  0  0  0  0  0  0  0  0  0  0  0
    7.8853   -0.5261   -0.9759 O   0  0  0  0  0  0  0  0  0  0  0  0
    6.9582   -1.3442   -1.6857 C   0  0  0  0  0  0  0  0  0  0  0  0
    5.5719   -0.7902   -1.5626 C   0  0  0  0  0  0  0  0  0  0  0  0
    4.9821   -0.3545   -2.5884 O   0  0  0  0  0  0  0  0  0  0  0  0
    4.9331   -0.7381   -0.2796 N   0  0  0  0  0  0  0  0  0  0  0  0
    3.5863   -0.2030   -0.0916 C   0  0  0  0  0  0  0  0  0  0  0  0
    2.5375   -1.2080   -0.5821 C   0  0  0  0  0  0  0  0  0  0  0  0
    1.1161   -0.6795   -0.3916 C   0  0  0  0  0  0  0  0  0  0  0  0
    0.8331   -0.5297    0.9981 O   0  0  0  0  0  0  0  0  0  0  0  0
   -0.3849   -0.0639    1.5144 C   0  0  0  0  0  0  0  0  0  0  0  0
   -0.5212    0.0376    2.9036 C   0  0  0  0  0  0  0  0  0  0  0  0
   -1.7155    0.4928    3.4673 C   0  0  0  0  0  0  0  0  0  0  0  0
   -2.7860    0.8533    2.6464 C   0  0  0  0  0  0  0  0  0  0  0  0
   -2.6669    0.7631    1.2508 C   0  0  0  0  0  0  0  0  0  0  0  0
   -3.8228    1.1316    0.3584 C   0  0  0  0  0  0  0  0  0  0  0  0
   -4.3649   -0.0707   -0.3122 N   0  0  0  0  0  0  0  0  0  0  0  0
   -5.1229   -0.9634    0.5960 C   0  0  0  0  0  0  0  0  0  0  0  0
   -6.5098   -0.4087    0.9646 C   0  0  0  0  0  0  0  0  0  0  0  0
   -7.3098   -0.0555   -0.2897 C   0  0  0  0  0  0  0  0  0  0  0  0
   -6.5077    0.8749   -1.1994 C   0  0  0  0  0  0  0  0  0  0  0  0
   -5.1402    0.2579   -1.5277 C   0  0  0  0  0  0  0  0  0  0  0  0
   -1.4660    0.3008    0.6881 C   0  0  0  0  0  0  0  0  0  0  0  0
    9.8101    0.8847    0.0755 H   0  0  0  0  0  0  0  0  0  0  0  0
    8.6210    2.2480    0.0728 H   0  0  0  0  0  0  0  0  0  0  0  0
    9.8867    2.1424   -1.2183 H   0  0  0  0  0  0  0  0  0  0  0  0
    7.2600   -1.4259   -2.7531 H   0  0  0  0  0  0  0  0  0  0  0  0
    6.9740   -2.3641   -1.2482 H   0  0  0  0  0  0  0  0  0  0  0  0
    5.4714   -1.0389    0.5642 H   0  0  0  0  0  0  0  0  0  0  0  0
    3.4864    0.7620   -0.6349 H   0  0  0  0  0  0  0  0  0  0  0  0
    3.4267   -0.0038    0.9905 H   0  0  0  0  0  0  0  0  0  0  0  0
    2.6958   -1.4150   -1.6621 H   0  0  0  0  0  0  0  0  0  0  0  0
    2.6509   -2.1647   -0.0270 H   0  0  0  0  0  0  0  0  0  0  0  0
    1.0075    0.2985   -0.9098 H   0  0  0  0  0  0  0  0  0  0  0  0
    0.4025   -1.4059   -0.8375 H   0  0  0  0  0  0  0  0  0  0  0  0
    0.3026   -0.2400    3.5489 H   0  0  0  0  0  0  0  0  0  0  0  0
   -1.8120    0.5642    4.5430 H   0  0  0  0  0  0  0  0  0  0  0  0
   -3.7078    1.1976    3.0989 H   0  0  0  0  0  0  0  0  0  0  0  0
   -4.6091    1.6696    0.9284 H   0  0  0  0  0  0  0  0  0  0  0  0
   -3.4373    1.8533   -0.3956 H   0  0  0  0  0  0  0  0  0  0  0  0
   -4.5468   -1.1579    1.5256 H   0  0  0  0  0  0  0  0  0  0  0  0
   -5.2517   -1.9509    0.1009 H   0  0  0  0  0  0  0  0  0  0  0  0
   -6.4109    0.4857    1.6149 H   0  0  0  0  0  0  0  0  0  0  0  0
   -7.0653   -1.1768    1.5446 H   0  0  0  0  0  0  0  0  0  0  0  0
   -7.5656   -0.9866   -0.8421 H   0  0  0  0  0  0  0  0  0  0  0  0
   -8.2592    0.4415    0.0043 H   0  0  0  0  0  0  0  0  0  0  0  0
   -7.0715    1.0390   -2.1428 H   0  0  0  0  0  0  0  0  0  0  0  0
   -6.3746    1.8630   -0.7087 H   0  0  0  0  0  0  0  0  0  0  0  0
   -5.2930   -0.6703   -2.1213 H   0  0  0  0  0  0  0  0  0  0  0  0
   -4.5666    0.9517   -2.1803 H   0  0  0  0  0  0  0  0  0  0  0  0
   -1.3857    0.2268   -0.3884 H   0  0  0  0  0  0  0  0  0  0  0  0
  1  2  1  0
  2  3  2  0
  2  4  1  0
  4  5  1  0
  5  6  1  0
  6  7  2  0
  6  8  1  0
  8  9  1  0
  9 10  1  0
 10 11  1  0
 11 12  1  0
 12 13  1  0
 13 14  2  0
 14 15  1  0
 15 16  2  0
 16 17  1  0
 17 18  1  0
 18 19  1  0
 19 20  1  0
 20 21  1  0
 21 22  1  0
 22 23  1  0
 23 24  1  0
 17 25  2  0
 25 13  1  0
 24 19  1  0
  1 26  1  0
  1 27  1  0
  1 28  1  0
  5 29  1  0
  5 30  1  0
  8 31  1  0
  9 32  1  0
  9 33  1  0
 10 34  1  0
 10 35  1  0
 11 36  1  0
 11 37  1  0
 14 38  1  0
 15 39  1  0
 16 40  1  0
 18 41  1  0
 18 42  1  0
 20 43  1  0
 20 44  1  0
 21 45  1  0
 21 46  1  0
 22 47  1  0
 22 48  1  0
 23 49  1  0
 23 50  1  0
 24 51  1  0
 24 52  1  0
 25 53  1  0
M  END
$$$$
