
     RDKit          3D

 87 93  0  0  0  0  0  0  0  0999 V2000
   -6.6630    0.5771   -0.1563 N   0  0  0  0  0  0  0  0  0  0  0  0
   -7.6185   -0.2001   -0.8963 C   0  0  0  0  0  0  0  0  0  0  0  0
   -8.1032    0.2534   -1.9695 O   0  0  0  0  0  0  0  0  0  0  0  0
   -8.0149   -1.5408   -0.4179 C   0  0  0  0  0  0  0  0  0  0  0  0
   -8.9401   -2.3201   -1.1320 C   0  0  0  0  0  0  0  0  0  0  0  0
   -9.2881   -3.5821   -0.6478 C   0  0  0  0  0  0  0  0  0  0  0  0
  -10.1182   -4.2861   -1.2849 O   0  0  0  0  0  0  0  0  0  0  0  0
   -8.7069   -4.0472    0.5423 C   0  0  0  0  0  0  0  0  0  0  0  0
   -9.0119   -5.3084    1.0860 C   0  0  0  0  0  0  0  0  0  0  0  0
   -8.4039   -5.7236    2.2750 C   0  0  0  0  0  0  0  0  0  0  0  0
   -7.4920   -4.8892    2.9279 C   0  0  0  0  0  0  0  0  0  0  0  0
   -7.1825   -3.6343    2.3958 C   0  0  0  0  0  0  0  0  0  0  0  0
   -7.7842   -3.2076    1.2068 C   0  0  0  0  0  0  0  0  0  0  0  0
   -7.4833   -2.0123    0.7082 O   0  0  0  0  0  0  0  0  0  0  0  0
   -6.3196    1.9286   -0.5037 C   0  0  0  0  0  0  0  0  0  0  0  0
   -7.3438    2.8673   -0.7036 C   0  0  0  0  0  0  0  0  0  0  0  0
   -7.0486    4.2174   -0.9594 C   0  0  0  0  0  0  0  0  0  0  0  0
   -8.0550    5.1742   -1.1676 O   0  0  0  0  0  0  0  0  0  0  0  0
   -9.4512    4.8942   -1.1554 C   0  0  0  0  0  0  0  0  0  0  0  0
   -5.7138    4.6370   -1.0040 C   0  0  0  0  0  0  0  0  0  0  0  0
   -5.4512    5.9933   -1.2566 O   0  0  0  0  0  0  0  0  0  0  0  0
   -4.1492    6.5652   -1.3302 C   0  0  0  0  0  0  0  0  0  0  0  0
   -4.6830    3.7021   -0.7985 C   0  0  0  0  0  0  0  0  0  0  0  0
   -4.9694    2.3475   -0.5564 C   0  0  0  0  0  0  0  0  0  0  0  0
   -3.8403    1.3961   -0.4062 C   0  0  0  0  0  0  0  0  0  0  0  0
   -2.5748    1.7646   -0.1222 N   0  0  0  0  0  0  0  0  0  0  0  0
   -1.8993    0.6273   -0.1206 N   0  0  0  0  0  0  0  0  0  0  0  0
   -2.6962   -0.3917   -0.3965 N   0  0  0  0  0  0  0  0  0  0  0  0
   -3.9245    0.0611   -0.5860 N   0  0  0  0  0  0  0  0  0  0  0  0
   -0.4895    0.5155    0.1402 C   0  0  0  0  0  0  0  0  0  0  0  0
    0.1426   -0.7397    0.1187 C   0  0  0  0  0  0  0  0  0  0  0  0
    1.5131   -0.8475    0.3716 C   0  0  0  0  0  0  0  0  0  0  0  0
    2.2730    0.2960    0.6605 C   0  0  0  0  0  0  0  0  0  0  0  0
    3.7559    0.1834    0.8969 C   0  0  0  0  0  0  0  0  0  0  0  0
    4.5183    0.3012   -0.4389 C   0  0  0  0  0  0  0  0  0  0  0  0
    5.9911    0.2275   -0.3138 N   0  0  0  0  0  0  0  0  0  0  0  0
    6.5621    1.2857    0.5365 C   0  0  0  0  0  0  0  0  0  0  0  0
    8.0637    1.3929    0.2632 C   0  0  0  0  0  0  0  0  0  0  0  0
    8.7347    0.0397    0.2608 C   0  0  0  0  0  0  0  0  0  0  0  0
   10.1332   -0.0307    0.3182 C   0  0  0  0  0  0  0  0  0  0  0  0
   10.7935   -1.2727    0.2668 C   0  0  0  0  0  0  0  0  0  0  0  0
   12.1925   -1.3757    0.3289 O   0  0  0  0  0  0  0  0  0  0  0  0
   13.0795   -0.2681    0.4480 C   0  0  0  0  0  0  0  0  0  0  0  0
   10.0447   -2.4527    0.1502 C   0  0  0  0  0  0  0  0  0  0  0  0
   10.7324   -3.6762    0.1095 O   0  0  0  0  0  0  0  0  0  0  0  0
   10.1077   -4.9505   -0.0067 C   0  0  0  0  0  0  0  0  0  0  0  0
    8.6408   -2.3825    0.0790 C   0  0  0  0  0  0  0  0  0  0  0  0
    7.9839   -1.1449    0.1128 C   0  0  0  0  0  0  0  0  0  0  0  0
    6.4748   -1.1025    0.1025 C   0  0  0  0  0  0  0  0  0  0  0  0
    1.6478    1.5521    0.6685 C   0  0  0  0  0  0  0  0  0  0  0  0
    0.2774    1.6607    0.4157 C   0  0  0  0  0  0  0  0  0  0  0  0
   -6.1746    0.1399    0.6570 H   0  0  0  0  0  0  0  0  0  0  0  0
   -9.3849   -1.9550   -2.0502 H   0  0  0  0  0  0  0  0  0  0  0  0
   -9.7154   -5.9710    0.5969 H   0  0  0  0  0  0  0  0  0  0  0  0
   -8.6401   -6.6944    2.6914 H   0  0  0  0  0  0  0  0  0  0  0  0
   -7.0244   -5.2157    3.8478 H   0  0  0  0  0  0  0  0  0  0  0  0
   -6.4750   -2.9937    2.9072 H   0  0  0  0  0  0  0  0  0  0  0  0
   -8.3720    2.5410   -0.6296 H   0  0  0  0  0  0  0  0  0  0  0  0
  -10.0103    5.8306   -1.3574 H   0  0  0  0  0  0  0  0  0  0  0  0
   -9.6994    4.1545   -1.9457 H   0  0  0  0  0  0  0  0  0  0  0  0
   -9.7544    4.5075   -0.1596 H   0  0  0  0  0  0  0  0  0  0  0  0
   -4.2417    7.6509   -1.5377 H   0  0  0  0  0  0  0  0  0  0  0  0
   -3.5711    6.0945   -2.1532 H   0  0  0  0  0  0  0  0  0  0  0  0
   -3.6184    6.4324   -0.3638 H   0  0  0  0  0  0  0  0  0  0  0  0
   -3.6511    4.0231   -0.8451 H   0  0  0  0  0  0  0  0  0  0  0  0
   -0.4225   -1.6373   -0.0972 H   0  0  0  0  0  0  0  0  0  0  0  0
    1.9827   -1.8231    0.3406 H   0  0  0  0  0  0  0  0  0  0  0  0
    3.9697   -0.7900    1.3845 H   0  0  0  0  0  0  0  0  0  0  0  0
    4.0723    0.9848    1.5973 H   0  0  0  0  0  0  0  0  0  0  0  0
    4.1708   -0.4991   -1.1293 H   0  0  0  0  0  0  0  0  0  0  0  0
    4.2507    1.2656   -0.9246 H   0  0  0  0  0  0  0  0  0  0  0  0
    6.0910    2.2677    0.3094 H   0  0  0  0  0  0  0  0  0  0  0  0
    6.4020    1.0600    1.6151 H   0  0  0  0  0  0  0  0  0  0  0  0
    8.5261    2.0462    1.0349 H   0  0  0  0  0  0  0  0  0  0  0  0
    8.2188    1.8650   -0.7310 H   0  0  0  0  0  0  0  0  0  0  0  0
   10.6993    0.8877    0.4014 H   0  0  0  0  0  0  0  0  0  0  0  0
   12.9667    0.4073   -0.4262 H   0  0  0  0  0  0  0  0  0  0  0  0
   14.1236   -0.6415    0.4754 H   0  0  0  0  0  0  0  0  0  0  0  0
   12.8753    0.2853    1.3889 H   0  0  0  0  0  0  0  0  0  0  0  0
    9.4364   -5.1272    0.8601 H   0  0  0  0  0  0  0  0  0  0  0  0
   10.8892   -5.7376   -0.0164 H   0  0  0  0  0  0  0  0  0  0  0  0
    9.5327   -5.0090   -0.9550 H   0  0  0  0  0  0  0  0  0  0  0  0
    8.0505   -3.2857   -0.0005 H   0  0  0  0  0  0  0  0  0  0  0  0
    6.1219   -1.3543    1.1250 H   0  0  0  0  0  0  0  0  0  0  0  0
    6.0927   -1.8722   -0.6040 H   0  0  0  0  0  0  0  0  0  0  0  0
    2.2225    2.4481    0.8689 H   0  0  0  0  0  0  0  0  0  0  0  0
   -0.1823    2.6406    0.4319 H   0  0  0  0  0  0  0  0  0  0  0  0
  1  2  1  0
  2  3  2  0
  2  4  1  0
  4  5  2  0
  5  6  1  0
  6  7  2  0
  6  8  1  0
  8  9  2  0
  9 10  1  0
 10 11  2  0
 11 12  1  0
 12 13  2  0
 13 14  1  0
  1 15  1  0
 15 16  2  0
 16 17  1  0
 17 18  1  0
 18 19  1  0
 17 20  2  0
 20 21  1  0
 21 22  1  0
 20 23  1  0
 23 24  2  0
 24 25  1  0
 25 26  2  0
 26 27  1  0
 27 28  1  0
 28 29  2  0
 27 30  1  0
 30 31  2  0
 31 32  1  0
 32 33  2  0
 33 34  1  0
 34 35  1  0
 35 36  1  0
 36 37  1  0
 37 38  1  0
 38 39  1  0
 39 40  2  0
 40 41  1  0
 41 42  1  0
 42 43  1  0
 41 44  2  0
 44 45  1  0
 45 46  1  0
 44 47  1  0
 47 48  2  0
 48 49  1  0
 33 50  1  0
 50 51  2  0
 14  4  1  0
 24 15  1  0
 29 25  1  0
 51 30  1  0
 13  8  1  0
 49 36  1  0
 48 39  1  0
  1 52  1  0
  5 53  1  0
  9 54  1  0
 10 55  1  0
 11 56  1  0
 12 57  1  0
 16 58  1  0
 19 59  1  0
 19 60  1  0
 19 61  1  0
 22 62  1  0
 22 63  1  0
 22 64  1  0
 23 65  1  0
 31 66  1  0
 32 67  1  0
 34 68  1  0
 34 69  1  0
 35 70  1  0
 35 71  1  0
 37 72  1  0
 37 73  1  0
 38 74  1  0
 38 75  1  0
 40 76  1  0
 43 77  1  0
 43 78  1  0
 43 79  1  0
 46 80  1  0
 46 81  1  0
 46 82  1  0
 47 83  1  0
 49 84  1  0
 49 85  1  0
 50 86  1  0
 51 87  1  0
M  END
$$$$
