
     RDKit          3D

 50 50  0  0  0  0  0  0  0  0999 V2000
   -4.4231   -1.5732   -3.8150 N   0  0  0  0  0  0  0  0  0  0  0  0
   -4.0425   -2.5024   -2.7504 C   0  0  1  0  0  0  0  0  0  0  0  0
   -3.2831   -1.7462   -1.6428 C   0  0  0  0  0  0  0  0  0  0  0  0
   -2.7103   -2.6932   -0.5791 C   0  0  0  0  0  0  0  0  0  0  0  0
   -1.9286   -1.9202    0.4391 C   0  0  0  0  0  0  0  0  0  0  0  0
   -2.4855   -1.5694    1.5149 O   0  0  0  0  0  0  0  0  0  0  0  0
   -0.5727   -1.5383    0.1663 N   0  0  0  0  0  0  0  0  0  0  0  0
    0.1946   -0.6852    1.0796 C   0  0  1  0  0  0  0  0  0  0  0  0
    1.6888   -0.7308    0.7203 C   0  0  0  0  0  0  0  0  0  0  0  0
    2.7134    0.0369    2.0323 S   0  0  0  0  0  0  0  0  0  0  0  0
    3.0921    1.5986    1.1544 C   0  0  0  0  0  0  0  0  0  0  0  0
    4.1476    1.3846    0.0959 C   0  0  0  0  0  0  0  0  0  0  0  0
    5.4204    0.9398    0.4993 C   0  0  0  0  0  0  0  0  0  0  0  0
    6.4309    0.7239   -0.4395 C   0  0  0  0  0  0  0  0  0  0  0  0
    6.1885    0.9568   -1.7926 C   0  0  0  0  0  0  0  0  0  0  0  0
    4.9369    1.4126   -2.2093 C   0  0  0  0  0  0  0  0  0  0  0  0
    3.9131    1.6346   -1.2789 C   0  0  0  0  0  0  0  0  0  0  0  0
    2.0736    2.3656   -2.0503 I   0  0  0  0  0  0  0  0  0  0  0  0
   -0.3245    0.7279    1.0156 C   0  0  0  0  0  0  0  0  0  0  0  0
   -0.6821    1.2133   -0.0928 O   0  0  0  0  0  0  0  0  0  0  0  0
   -0.3630    1.5355    2.1992 N   0  0  0  0  0  0  0  0  0  0  0  0
   -0.7489    2.9441    2.1454 C   0  0  0  0  0  0  0  0  0  0  0  0
   -0.6334    3.5732    3.4971 C   0  0  0  0  0  0  0  0  0  0  0  0
   -1.7270    3.5742    4.3569 O   0  0  0  0  0  0  0  0  0  0  0  0
    0.4654    4.0619    3.8734 O   0  0  0  0  0  0  0  0  0  0  0  0
   -5.2782   -3.1575   -2.1970 C   0  0  0  0  0  0  0  0  0  0  0  0
   -6.3333   -2.3765   -1.7338 O   0  0  0  0  0  0  0  0  0  0  0  0
   -5.3547   -4.4141   -2.1396 O   0  0  0  0  0  0  0  0  0  0  0  0
   -4.9005   -2.1164   -4.5715 H   0  0  0  0  0  0  0  0  0  0  0  0
   -3.5507   -1.1899   -4.2470 H   0  0  0  0  0  0  0  0  0  0  0  0
   -3.3717   -3.2828   -3.1791 H   0  0  0  0  0  0  0  0  0  0  0  0
   -3.9588   -1.0047   -1.1608 H   0  0  0  0  0  0  0  0  0  0  0  0
   -2.4411   -1.1844   -2.1054 H   0  0  0  0  0  0  0  0  0  0  0  0
   -2.0445   -3.4430   -1.0586 H   0  0  0  0  0  0  0  0  0  0  0  0
   -3.5334   -3.2404   -0.0704 H   0  0  0  0  0  0  0  0  0  0  0  0
   -0.1423   -1.8462   -0.7359 H   0  0  0  0  0  0  0  0  0  0  0  0
    0.0771   -1.0817    2.1125 H   0  0  0  0  0  0  0  0  0  0  0  0
    1.8671   -0.2682   -0.2725 H   0  0  0  0  0  0  0  0  0  0  0  0
    2.0045   -1.7931    0.6460 H   0  0  0  0  0  0  0  0  0  0  0  0
    2.1598    2.0370    0.7550 H   0  0  0  0  0  0  0  0  0  0  0  0
    3.4832    2.3224    1.9000 H   0  0  0  0  0  0  0  0  0  0  0  0
    5.6295    0.7571    1.5464 H   0  0  0  0  0  0  0  0  0  0  0  0
    7.4039    0.3765   -0.1167 H   0  0  0  0  0  0  0  0  0  0  0  0
    6.9730    0.7895   -2.5192 H   0  0  0  0  0  0  0  0  0  0  0  0
    4.7640    1.5988   -3.2615 H   0  0  0  0  0  0  0  0  0  0  0  0
   -0.0776    1.1071    3.1096 H   0  0  0  0  0  0  0  0  0  0  0  0
   -0.0899    3.4833    1.4306 H   0  0  0  0  0  0  0  0  0  0  0  0
   -1.7980    3.0273    1.7893 H   0  0  0  0  0  0  0  0  0  0  0  0
   -1.6596    3.9805    5.2824 H   0  0  0  0  0  0  0  0  0  0  0  0
   -7.1683   -2.8049   -1.3525 H   0  0  0  0  0  0  0  0  0  0  0  0
  1  2  1  0
  2  3  1  0
  3  4  1  0
  4  5  1  0
  5  6  2  0
  5  7  1  0
  7  8  1  0
  8  9  1  0
  9 10  1  0
 10 11  1  0
 11 12  1  0
 12 13  2  0
 13 14  1  0
 14 15  2  0
 15 16  1  0
 16 17  2  0
 17 18  1  0
  8 19  1  0
 19 20  2  0
 19 21  1  0
 21 22  1  0
 22 23  1  0
 23 24  1  0
 23 25  2  0
  2 26  1  0
 26 27  1  0
 26 28  2  0
 17 12  1  0
  1 29  1  0
  1 30  1  0
  2 31  1  6
  3 32  1  0
  3 33  1  0
  4 34  1  0
  4 35  1  0
  7 36  1  0
  8 37  1  1
  9 38  1  0
  9 39  1  0
 11 40  1  0
 11 41  1  0
 13 42  1  0
 14 43  1  0
 15 44  1  0
 16 45  1  0
 21 46  1  0
 22 47  1  0
 22 48  1  0
 24 49  1  0
 27 50  1  0
M  END
$$$$
