
     RDKit          2D

198201  0  0  0  0  0  0  0  0999 V2000
    1.8481    2.7990    0.0000 C   0  0  0  0  0  0  0  0  0  0  0  0
    1.0981    4.0981    0.0000 C   0  0  0  0  0  0  0  0  0  0  0  0
    0.3481    5.3971    0.0000 C   0  0  0  0  0  0  0  0  0  0  0  0
   -0.2010    3.3481    0.0000 C   0  0  0  0  0  0  0  0  0  0  0  0
   -1.5000    2.5981    0.0000 C   0  0  0  0  0  0  0  0  0  0  0  0
   -0.7500    1.2990    0.0000 N   0  0  0  0  0  0  0  0  0  0  0  0
   -1.5000   -0.0000    0.0000 C   0  0  0  0  0  0  0  0  0  0  0  0
   -2.9888    0.1828    0.0000 O   0  0  0  0  0  0  0  0  0  0  0  0
   -0.7500   -1.2990    0.0000 C   0  0  0  0  0  0  0  0  0  0  0  0
   -0.0000   -2.5981    0.0000 N   0  0  0  0  0  0  0  0  0  0  0  0
   -0.7500   -3.8971    0.0000 C   0  0  0  0  0  0  0  0  0  0  0  0
    1.5000   -2.5981    0.0000 C   0  0  0  0  0  0  0  0  0  0  0  0
    2.2500   -1.2990    0.0000 O   0  0  0  0  0  0  0  0  0  0  0  0
    2.2500   -3.8971    0.0000 C   0  0  0  0  0  0  0  0  0  0  0  0
    3.0000   -5.1962    0.0000 C   0  0  0  0  0  0  0  0  0  0  0  0
    3.7500   -6.4952    0.0000 C   0  0  0  0  0  0  0  0  0  0  0  0
    5.2500   -6.4952    0.0000 C   0  0  0  0  0  0  0  0  0  0  0  0
    6.0000   -7.7942    0.0000 C   0  0  0  0  0  0  0  0  0  0  0  0
    5.2500   -9.0933    0.0000 C   0  0  0  0  0  0  0  0  0  0  0  0
    3.7500   -9.0933    0.0000 C   0  0  0  0  0  0  0  0  0  0  0  0
    3.0000   -7.7942    0.0000 C   0  0  0  0  0  0  0  0  0  0  0  0
    0.9510   -4.6471    0.0000 N   0  0  0  0  0  0  0  0  0  0  0  0
    0.9510   -6.1471    0.0000 C   0  0  0  0  0  0  0  0  0  0  0  0
    2.2500   -6.8971    0.0000 O   0  0  0  0  0  0  0  0  0  0  0  0
   -0.3481   -6.8971    0.0000 C   0  0  0  0  0  0  0  0  0  0  0  0
   -1.6471   -7.6471    0.0000 C   0  0  0  0  0  0  0  0  0  0  0  0
   -2.9462   -8.3971    0.0000 C   0  0  0  0  0  0  0  0  0  0  0  0
   -4.2452   -7.6471    0.0000 C   0  0  0  0  0  0  0  0  0  0  0  0
   -5.5442   -8.3971    0.0000 C   0  0  0  0  0  0  0  0  0  0  0  0
   -5.5442   -9.8971    0.0000 C   0  0  0  0  0  0  0  0  0  0  0  0
   -4.2452  -10.6471    0.0000 C   0  0  0  0  0  0  0  0  0  0  0  0
   -2.9462   -9.8971    0.0000 C   0  0  0  0  0  0  0  0  0  0  0  0
    0.4019   -8.1962    0.0000 N   0  0  0  0  0  0  0  0  0  0  0  0
   -0.3481   -9.4952    0.0000 C   0  0  0  0  0  0  0  0  0  0  0  0
   -1.8481   -9.4952    0.0000 O   0  0  0  0  0  0  0  0  0  0  0  0
    0.4019  -10.7942    0.0000 C   0  0  0  0  0  0  0  0  0  0  0  0
    1.1519  -12.0933    0.0000 C   0  0  0  0  0  0  0  0  0  0  0  0
    1.9019  -13.3923    0.0000 C   0  0  0  0  0  0  0  0  0  0  0  0
    2.6519  -14.6913    0.0000 C   0  0  0  0  0  0  0  0  0  0  0  0
    1.9019  -15.9904    0.0000 N   0  0  0  0  0  0  0  0  0  0  0  0
    4.1519  -14.6913    0.0000 O   0  0  0  0  0  0  0  0  0  0  0  0
   -0.8971  -11.5442    0.0000 N   0  0  0  0  0  0  0  0  0  0  0  0
   -0.8971  -13.0442    0.0000 C   0  0  0  0  0  0  0  0  0  0  0  0
    0.3008  -13.9470    0.0000 O   0  0  0  0  0  0  0  0  0  0  0  0
   -2.1962  -13.7942    0.0000 C   0  0  0  0  0  0  0  0  0  0  0  0
   -3.4952  -14.5442    0.0000 C   0  0  0  0  0  0  0  0  0  0  0  0
   -4.7942  -15.2942    0.0000 C   0  0  0  0  0  0  0  0  0  0  0  0
   -6.0933  -16.0442    0.0000 C   0  0  0  0  0  0  0  0  0  0  0  0
   -7.3923  -15.2942    0.0000 N   0  0  0  0  0  0  0  0  0  0  0  0
   -6.2862  -16.8177    0.0000 O   0  0  0  0  0  0  0  0  0  0  0  0
   -1.4462  -15.0933    0.0000 N   0  0  0  0  0  0  0  0  0  0  0  0
   -2.1962  -16.3923    0.0000 C   0  0  0  0  0  0  0  0  0  0  0  0
   -3.1803  -16.3923    0.0000 O   0  0  0  0  0  0  0  0  0  0  0  0
   -1.4462  -17.6913    0.0000 C   0  0  0  0  0  0  0  0  0  0  0  0
   -0.4425  -18.8061    0.0000 C   0  0  0  0  0  0  0  0  0  0  0  0
   -1.1925  -20.1051    0.0000 C   0  0  0  0  0  0  0  0  0  0  0  0
   -2.6597  -19.7932    0.0000 C   0  0  0  0  0  0  0  0  0  0  0  0
   -2.8165  -18.3014    0.0000 N   0  0  0  0  0  0  0  0  0  0  0  0
   -4.1155  -17.5514    0.0000 C   0  0  0  0  0  0  0  0  0  0  0  0
   -4.1155  -16.5673    0.0000 O   0  0  0  0  0  0  0  0  0  0  0  0
   -5.4145  -18.3014    0.0000 C   0  0  0  0  0  0  0  0  0  0  0  0
   -6.7136  -19.0514    0.0000 C   0  0  0  0  0  0  0  0  0  0  0  0
   -8.0126  -19.8014    0.0000 C   0  0  0  0  0  0  0  0  0  0  0  0
   -9.3117  -20.5514    0.0000 C   0  0  0  0  0  0  0  0  0  0  0  0
  -10.6107  -21.3014    0.0000 C   0  0  0  0  0  0  0  0  0  0  0  0
  -11.9097  -22.0514    0.0000 N   0  0  0  0  0  0  0  0  0  0  0  0
   -6.1645  -17.0024    0.0000 N   0  0  0  0  0  0  0  0  0  0  0  0
   -7.6645  -17.0024    0.0000 C   0  0  0  0  0  0  0  0  0  0  0  0
   -8.4145  -18.3014    0.0000 O   0  0  0  0  0  0  0  0  0  0  0  0
   -8.4145  -15.7034    0.0000 C   0  0  0  0  0  0  0  0  0  0  0  0
   -8.8781  -14.2768    0.0000 C   0  0  0  0  0  0  0  0  0  0  0  0
  -10.3781  -14.2768    0.0000 C   0  0  0  0  0  0  0  0  0  0  0  0
  -10.8416  -15.7034    0.0000 C   0  0  0  0  0  0  0  0  0  0  0  0
   -9.6281  -16.5850    0.0000 N   0  0  0  0  0  0  0  0  0  0  0  0
   -9.6281  -18.0850    0.0000 C   0  0  0  0  0  0  0  0  0  0  0  0
   -8.3290  -18.8350    0.0000 O   0  0  0  0  0  0  0  0  0  0  0  0
  -10.9271  -18.8350    0.0000 C   0  0  0  0  0  0  0  0  0  0  0  0
  -10.1771  -20.1341    0.0000 N   0  0  0  0  0  0  0  0  0  0  0  0
  -12.2261  -19.5850    0.0000 C   0  0  0  0  0  0  0  0  0  0  0  0
  -13.5252  -20.3350    0.0000 C   0  0  0  0  0  0  0  0  0  0  0  0
  -14.8242  -21.0850    0.0000 C   0  0  0  0  0  0  0  0  0  0  0  0
  -16.1233  -21.8350    0.0000 N   0  0  0  0  0  0  0  0  0  0  0  0
  -16.1233  -23.3350    0.0000 C   0  0  0  0  0  0  0  0  0  0  0  0
  -14.8242  -24.0850    0.0000 N   0  0  0  0  0  0  0  0  0  0  0  0
  -17.4223  -24.0850    0.0000 N   0  0  0  0  0  0  0  0  0  0  0  0
   -2.7990    1.8481    0.0000 C   0  0  0  0  0  0  0  0  0  0  0  0
   -2.6162    0.3593    0.0000 O   0  0  0  0  0  0  0  0  0  0  0  0
   -4.0981    2.5981    0.0000 N   0  0  0  0  0  0  0  0  0  0  0  0
   -5.3971    1.8481    0.0000 C   0  0  0  0  0  0  0  0  0  0  0  0
   -6.1471    3.1471    0.0000 C   0  0  0  0  0  0  0  0  0  0  0  0
   -6.8971    4.4462    0.0000 C   0  0  0  0  0  0  0  0  0  0  0  0
   -7.6471    5.7452    0.0000 S   0  0  0  0  0  6  0  0  0  0  0  0
   -8.3971    7.0442    0.0000 C   0  0  0  0  0  0  0  0  0  0  0  0
   -8.9462    4.9952    0.0000 O   0  0  0  0  0  0  0  0  0  0  0  0
   -6.3481    6.4952    0.0000 O   0  0  0  0  0  0  0  0  0  0  0  0
   -4.6471    0.5490    0.0000 C   0  0  0  0  0  0  0  0  0  0  0  0
   -3.1471    0.5490    0.0000 N   0  0  0  0  0  0  0  0  0  0  0  0
   -5.3971   -0.7500    0.0000 O   0  0  0  0  0  0  0  0  0  0  0  0
    2.5981    1.5000    0.0000 H   0  0  0  0  0  0  0  0  0  0  0  0
    3.1471    3.5490    0.0000 H   0  0  0  0  0  0  0  0  0  0  0  0
    0.7691    1.7570    0.0000 H   0  0  0  0  0  0  0  0  0  0  0  0
    2.3971    4.8481    0.0000 H   0  0  0  0  0  0  0  0  0  0  0  0
   -0.4019    6.6962    0.0000 H   0  0  0  0  0  0  0  0  0  0  0  0
    1.6471    6.1471    0.0000 H   0  0  0  0  0  0  0  0  0  0  0  0
   -1.0327    4.8111    0.0000 H   0  0  0  0  0  0  0  0  0  0  0  0
    0.5490    2.0490    0.0000 H   0  0  0  0  0  0  0  0  0  0  0  0
   -1.1037    4.5460    0.0000 H   0  0  0  0  0  0  0  0  0  0  0  0
   -2.2500    3.8971    0.0000 H   0  0  0  0  0  0  0  0  0  0  0  0
    0.7054    0.9361    0.0000 H   0  0  0  0  0  0  0  0  0  0  0  0
    0.5490   -0.5490    0.0000 H   0  0  0  0  0  0  0  0  0  0  0  0
   -2.0490   -2.0490    0.0000 H   0  0  0  0  0  0  0  0  0  0  0  0
   -1.6528   -5.0950    0.0000 H   0  0  0  0  0  0  0  0  0  0  0  0
   -2.0490   -3.1471    0.0000 H   0  0  0  0  0  0  0  0  0  0  0  0
    0.3290   -4.9392    0.0000 H   0  0  0  0  0  0  0  0  0  0  0  0
    3.5490   -3.1471    0.0000 H   0  0  0  0  0  0  0  0  0  0  0  0
    1.9210   -6.2382    0.0000 H   0  0  0  0  0  0  0  0  0  0  0  0
    4.2990   -4.4462    0.0000 H   0  0  0  0  0  0  0  0  0  0  0  0
    6.0000   -5.1962    0.0000 H   0  0  0  0  0  0  0  0  0  0  0  0
    7.5000   -7.7942    0.0000 H   0  0  0  0  0  0  0  0  0  0  0  0
    6.0000  -10.3923    0.0000 H   0  0  0  0  0  0  0  0  0  0  0  0
    3.0000  -10.3923    0.0000 H   0  0  0  0  0  0  0  0  0  0  0  0
    1.5112   -7.9771    0.0000 H   0  0  0  0  0  0  0  0  0  0  0  0
   -0.4910   -4.2337    0.0000 H   0  0  0  0  0  0  0  0  0  0  0  0
   -1.2508   -5.6992    0.0000 H   0  0  0  0  0  0  0  0  0  0  0  0
   -1.2337   -9.0890    0.0000 H   0  0  0  0  0  0  0  0  0  0  0  0
   -2.3971   -6.3481    0.0000 H   0  0  0  0  0  0  0  0  0  0  0  0
   -4.2452   -6.1471    0.0000 H   0  0  0  0  0  0  0  0  0  0  0  0
   -6.8433   -7.6471    0.0000 H   0  0  0  0  0  0  0  0  0  0  0  0
   -6.8433  -10.6471    0.0000 H   0  0  0  0  0  0  0  0  0  0  0  0
   -4.2452  -12.1471    0.0000 H   0  0  0  0  0  0  0  0  0  0  0  0
   -1.7482  -10.7999    0.0000 H   0  0  0  0  0  0  0  0  0  0  0  0
    1.8907   -8.3790    0.0000 H   0  0  0  0  0  0  0  0  0  0  0  0
    1.7010  -10.0442    0.0000 H   0  0  0  0  0  0  0  0  0  0  0  0
    0.0730  -13.1353    0.0000 H   0  0  0  0  0  0  0  0  0  0  0  0
    2.4510  -11.3433    0.0000 H   0  0  0  0  0  0  0  0  0  0  0  0
    3.2010  -12.6423    0.0000 H   0  0  0  0  0  0  0  0  0  0  0  0
    0.7040  -14.2951    0.0000 H   0  0  0  0  0  0  0  0  0  0  0  0
    2.6519  -17.2894    0.0000 H   0  0  0  0  0  0  0  0  0  0  0  0
    0.4019  -15.9904    0.0000 H   0  0  0  0  0  0  0  0  0  0  0  0
   -2.2779  -10.9582    0.0000 H   0  0  0  0  0  0  0  0  0  0  0  0
   -2.9462  -12.4952    0.0000 H   0  0  0  0  0  0  0  0  0  0  0  0
   -4.2452  -13.2452    0.0000 H   0  0  0  0  0  0  0  0  0  0  0  0
   -3.0818  -15.9861    0.0000 H   0  0  0  0  0  0  0  0  0  0  0  0
   -5.5442  -13.9952    0.0000 H   0  0  0  0  0  0  0  0  0  0  0  0
   -4.0442  -16.5933    0.0000 H   0  0  0  0  0  0  0  0  0  0  0  0
   -8.8342  -15.7076    0.0000 H   0  0  0  0  0  0  0  0  0  0  0  0
   -7.2095  -13.8054    0.0000 H   0  0  0  0  0  0  0  0  0  0  0  0
    0.0538  -15.0933    0.0000 H   0  0  0  0  0  0  0  0  0  0  0  0
   -0.2326  -16.8097    0.0000 H   0  0  0  0  0  0  0  0  0  0  0  0
    0.5612  -17.6913    0.0000 H   0  0  0  0  0  0  0  0  0  0  0  0
    0.7711  -19.6877    0.0000 H   0  0  0  0  0  0  0  0  0  0  0  0
    0.1779  -20.7152    0.0000 H   0  0  0  0  0  0  0  0  0  0  0  0
   -1.6560  -21.5317    0.0000 H   0  0  0  0  0  0  0  0  0  0  0  0
   -2.8165  -21.2850    0.0000 H   0  0  0  0  0  0  0  0  0  0  0  0
   -4.1485  -19.9761    0.0000 H   0  0  0  0  0  0  0  0  0  0  0  0
   -4.8285  -19.6822    0.0000 H   0  0  0  0  0  0  0  0  0  0  0  0
   -5.9636  -20.3505    0.0000 H   0  0  0  0  0  0  0  0  0  0  0  0
   -7.7556  -17.9725    0.0000 H   0  0  0  0  0  0  0  0  0  0  0  0
   -7.2626  -21.1005    0.0000 H   0  0  0  0  0  0  0  0  0  0  0  0
   -8.7626  -18.5024    0.0000 H   0  0  0  0  0  0  0  0  0  0  0  0
   -9.7250  -19.1095    0.0000 H   0  0  0  0  0  0  0  0  0  0  0  0
   -8.5617  -21.8505    0.0000 H   0  0  0  0  0  0  0  0  0  0  0  0
   -9.8607  -22.6005    0.0000 H   0  0  0  0  0  0  0  0  0  0  0  0
  -11.5135  -20.1035    0.0000 H   0  0  0  0  0  0  0  0  0  0  0  0
  -13.2905  -21.4654    0.0000 H   0  0  0  0  0  0  0  0  0  0  0  0
  -11.9097  -23.5514    0.0000 H   0  0  0  0  0  0  0  0  0  0  0  0
   -6.1124  -15.5033    0.0000 H   0  0  0  0  0  0  0  0  0  0  0  0
   -7.2326  -14.7798    0.0000 H   0  0  0  0  0  0  0  0  0  0  0  0
   -7.4598  -13.7884    0.0000 H   0  0  0  0  0  0  0  0  0  0  0  0
   -9.0349  -12.7850    0.0000 H   0  0  0  0  0  0  0  0  0  0  0  0
  -10.2213  -12.7850    0.0000 H   0  0  0  0  0  0  0  0  0  0  0  0
  -11.8453  -13.9649    0.0000 H   0  0  0  0  0  0  0  0  0  0  0  0
  -12.2119  -15.0933    0.0000 H   0  0  0  0  0  0  0  0  0  0  0  0
  -11.7444  -16.9013    0.0000 H   0  0  0  0  0  0  0  0  0  0  0  0
  -11.8299  -17.6371    0.0000 H   0  0  0  0  0  0  0  0  0  0  0  0
  -11.0799  -21.3320    0.0000 H   0  0  0  0  0  0  0  0  0  0  0  0
   -8.8528  -20.8384    0.0000 H   0  0  0  0  0  0  0  0  0  0  0  0
  -12.9761  -18.2860    0.0000 H   0  0  0  0  0  0  0  0  0  0  0  0
  -11.8128  -21.0270    0.0000 H   0  0  0  0  0  0  0  0  0  0  0  0
  -14.2752  -19.0360    0.0000 H   0  0  0  0  0  0  0  0  0  0  0  0
  -12.9391  -21.7158    0.0000 H   0  0  0  0  0  0  0  0  0  0  0  0
  -15.5742  -19.7860    0.0000 H   0  0  0  0  0  0  0  0  0  0  0  0
  -14.0742  -22.3841    0.0000 H   0  0  0  0  0  0  0  0  0  0  0  0
  -17.4223  -21.0850    0.0000 H   0  0  0  0  0  0  0  0  0  0  0  0
  -14.8242  -25.5850    0.0000 H   0  0  0  0  0  0  0  0  0  0  0  0
  -13.5252  -23.3350    0.0000 H   0  0  0  0  0  0  0  0  0  0  0  0
  -17.4223  -25.5850    0.0000 H   0  0  0  0  0  0  0  0  0  0  0  0
   -3.9152    4.0869    0.0000 H   0  0  0  0  0  0  0  0  0  0  0  0
   -6.6962    1.0981    0.0000 H   0  0  0  0  0  0  0  0  0  0  0  0
   -7.4462    2.3971    0.0000 H   0  0  0  0  0  0  0  0  0  0  0  0
   -4.9492    4.0499    0.0000 H   0  0  0  0  0  0  0  0  0  0  0  0
   -5.5981    5.1962    0.0000 H   0  0  0  0  0  0  0  0  0  0  0  0
   -8.1962    3.6962    0.0000 H   0  0  0  0  0  0  0  0  0  0  0  0
   -9.1471    8.3433    0.0000 H   0  0  0  0  0  0  0  0  0  0  0  0
   -7.0981    7.7942    0.0000 H   0  0  0  0  0  0  0  0  0  0  0  0
   -9.6962    6.2942    0.0000 H   0  0  0  0  0  0  0  0  0  0  0  0
   -2.3971   -0.7500    0.0000 H   0  0  0  0  0  0  0  0  0  0  0  0
   -2.1051    1.6280    0.0000 H   0  0  0  0  0  0  0  0  0  0  0  0
  1  2  1  0
  2  3  1  0
  2  4  1  0
  4  5  1  0
  5  6  1  0
  6  7  1  0
  7  8  2  0
  7  9  1  0
  9 10  1  0
 10 11  1  0
 10 12  1  0
 12 13  2  0
 12 14  1  0
 14 15  1  0
 15 16  1  0
 16 17  2  0
 17 18  1  0
 18 19  2  0
 19 20  1  0
 20 21  2  0
 14 22  1  0
 22 23  1  0
 23 24  2  0
 23 25  1  0
 25 26  1  0
 26 27  1  0
 27 28  2  0
 28 29  1  0
 29 30  2  0
 30 31  1  0
 31 32  2  0
 25 33  1  0
 33 34  1  0
 34 35  2  0
 34 36  1  0
 36 37  1  0
 37 38  1  0
 38 39  1  0
 39 40  1  0
 39 41  2  0
 36 42  1  0
 42 43  1  0
 43 44  2  0
 43 45  1  0
 45 46  1  0
 46 47  1  0
 47 48  1  0
 48 49  1  0
 48 50  2  0
 45 51  1  0
 51 52  1  0
 52 53  2  0
 52 54  1  0
 54 55  1  0
 55 56  1  0
 56 57  1  0
 57 58  1  0
 58 59  1  0
 59 60  2  0
 59 61  1  0
 61 62  1  0
 62 63  1  0
 63 64  1  0
 64 65  1  0
 65 66  1  0
 61 67  1  0
 67 68  1  0
 68 69  2  0
 68 70  1  0
 70 71  1  0
 71 72  1  0
 72 73  1  0
 73 74  1  0
 74 75  1  0
 75 76  2  0
 75 77  1  0
 77 78  1  0
 77 79  1  0
 79 80  1  0
 80 81  1  0
 81 82  1  0
 82 83  1  0
 83 84  1  0
 83 85  2  3
  5 86  1  0
 86 87  2  0
 86 88  1  0
 88 89  1  0
 89 90  1  0
 90 91  1  0
 91 92  1  0
 92 93  1  0
 92 94  2  0
 92 95  2  0
 89 96  1  0
 96 97  1  0
 96 98  2  0
 21 16  1  0
 32 27  1  0
 58 54  1  0
 74 70  1  0
  1 99  1  0
  1100  1  0
  1101  1  0
  2102  1  0
  3103  1  0
  3104  1  0
  3105  1  0
  4106  1  0
  4107  1  0
  5108  1  1
  6109  1  0
  9110  1  0
  9111  1  0
 11112  1  0
 11113  1  0
 11114  1  0
 14115  1  1
 15116  1  0
 15117  1  0
 17118  1  0
 18119  1  0
 19120  1  0
 20121  1  0
 21122  1  0
 22123  1  0
 25124  1  6
 26125  1  0
 26126  1  0
 28127  1  0
 29128  1  0
 30129  1  0
 31130  1  0
 32131  1  0
 33132  1  0
 36133  1  1
 37134  1  0
 37135  1  0
 38136  1  0
 38137  1  0
 40138  1  0
 40139  1  0
 42140  1  0
 45141  1  6
 46142  1  0
 46143  1  0
 47144  1  0
 47145  1  0
 49146  1  0
 49147  1  0
 51148  1  0
 54149  1  1
 55150  1  0
 55151  1  0
 56152  1  0
 56153  1  0
 57154  1  0
 57155  1  0
 61156  1  1
 62157  1  0
 62158  1  0
 63159  1  0
 63160  1  0
 64161  1  0
 64162  1  0
 65163  1  0
 65164  1  0
 66165  1  0
 66166  1  0
 67167  1  0
 70168  1  6
 71169  1  0
 71170  1  0
 72171  1  0
 72172  1  0
 73173  1  0
 73174  1  0
 77175  1  6
 78176  1  0
 78177  1  0
 79178  1  0
 79179  1  0
 80180  1  0
 80181  1  0
 81182  1  0
 81183  1  0
 82184  1  0
 84185  1  0
 84186  1  0
 85187  1  0
 88188  1  0
 89189  1  1
 90190  1  0
 90191  1  0
 91192  1  0
 91193  1  0
 93194  1  0
 93195  1  0
 93196  1  0
 97197  1  0
 97198  1  0
M  END
$$$$
