
     RDKit          3D

109112  0  0  0  0  0  0  0  0999 V2000
   -2.9512    0.6394   -4.0631 C   0  0  0  0  0  0  0  0  0  0  0  0
   -2.9523   -0.7302   -3.7201 O   0  0  0  0  0  0  0  0  0  0  0  0
   -2.1457   -0.9567   -2.5762 C   0  0  1  0  0  0  0  0  0  0  0  0
   -3.0195   -0.9591   -1.3207 C   0  0  0  0  0  0  0  0  0  0  0  0
   -2.2030   -1.3592   -0.0837 C   0  0  2  0  0  0  0  0  0  0  0  0
   -1.2831   -0.3178    0.2266 O   0  0  0  0  0  0  0  0  0  0  0  0
   -0.5691   -0.4815    1.4427 C   0  0  1  0  0  0  0  0  0  0  0  0
    0.6269    0.5541    1.5122 C   0  0  2  0  0  0  0  0  0  0  0  0
    0.2463    1.9897    1.9080 C   0  0  0  0  0  0  0  0  0  0  0  0
    1.6581    0.5069    0.3282 C   0  0  1  0  0  0  0  0  0  0  0  0
    1.9033   -0.8589    0.0054 O   0  0  0  0  0  0  0  0  0  0  0  0
    3.0860   -1.3526    0.6146 C   0  0  2  0  0  0  0  0  0  0  0  0
    4.1980   -0.9516   -0.1709 O   0  0  0  0  0  0  0  0  0  0  0  0
    5.4142   -1.3492    0.4351 C   0  0  2  0  0  0  0  0  0  0  0  0
    6.5740   -0.7412   -0.3516 C   0  0  0  0  0  0  0  0  0  0  0  0
    5.5192   -2.8835    0.4446 C   0  0  0  0  0  0  0  0  0  0  0  0
    4.3236   -3.4699    1.2274 C   0  0  1  0  0  0  0  0  0  0  0  0
    2.9956   -2.8900    0.6855 C   0  0  1  0  0  0  0  0  0  0  0  0
    1.9367   -3.2423    1.5385 O   0  0  0  0  0  0  0  0  0  0  0  0
    4.2867   -4.9590    1.2615 N   0  0  0  0  0  0  0  0  0  0  0  0
    5.2122   -5.5073    2.2667 C   0  0  0  0  0  0  0  0  0  0  0  0
    4.5023   -5.6161   -0.0409 C   0  0  0  0  0  0  0  0  0  0  0  0
    1.4642    1.3851   -0.9916 C   0  0  1  0  0  0  0  0  0  0  0  0
    1.8913    0.6114   -2.2556 C   0  0  0  0  0  0  0  0  0  0  0  0
    0.0891    2.0871   -1.2610 C   0  0  0  0  0  0  0  0  0  0  0  0
   -0.0195    3.5925   -0.9173 C   0  0  2  0  0  0  0  0  0  0  0  0
    0.6964    4.5264   -1.8222 C   0  0  0  0  0  0  0  0  0  0  0  0
    1.1738    4.2358   -0.5274 O   0  0  0  0  0  0  0  0  0  0  0  0
   -1.2620    4.1515   -0.2523 C   0  0  0  0  0  0  0  0  0  0  0  0
   -1.1236    4.9716    0.6452 O   0  0  0  0  0  0  0  0  0  0  0  0
   -2.6606    3.7560   -0.7286 C   0  0  2  0  0  0  0  0  0  0  0  0
   -2.8381    4.2970   -2.1609 C   0  0  0  0  0  0  0  0  0  0  0  0
   -3.7880    4.2793    0.2310 C   0  0  1  0  0  0  0  0  0  0  0  0
   -5.0672    4.3309   -0.3600 O   0  0  0  0  0  0  0  0  0  0  0  0
   -3.8416    3.5858    1.6416 C   0  0  1  0  0  0  0  0  0  0  0  0
   -4.7334    4.4241    2.5779 C   0  0  0  0  0  0  0  0  0  0  0  0
   -4.2579    2.0704    1.7358 C   0  0  1  0  0  0  0  0  0  0  0  0
   -5.3245    1.6037    0.7478 C   0  0  0  0  0  0  0  0  0  0  0  0
   -3.1279    1.1950    1.6501 O   0  0  0  0  0  0  0  0  0  0  0  0
   -2.3904    0.7914    2.7762 C   0  0  0  0  0  0  0  0  0  0  0  0
   -2.5166    1.4186    3.8650 O   0  0  0  0  0  0  0  0  0  0  0  0
   -1.5021   -0.4390    2.7072 C   0  0  2  0  0  0  0  0  0  0  0  0
   -0.7222   -0.6786    4.0153 C   0  0  0  0  0  0  0  0  0  0  0  0
   -1.5766   -2.6238   -0.2627 O   0  0  0  0  0  0  0  0  0  0  0  0
   -0.7130   -2.6474   -1.3893 C   0  0  1  0  0  0  0  0  0  0  0  0
   -0.0774   -4.0363   -1.4755 C   0  0  0  0  0  0  0  0  0  0  0  0
   -1.4640   -2.3235   -2.7011 C   0  0  2  0  0  0  0  0  0  0  0  0
   -0.5527   -2.2986   -3.7707 O   0  0  0  0  0  0  0  0  0  0  0  0
   -3.6579    0.7951   -4.9035 H   0  0  0  0  0  0  0  0  0  0  0  0
   -3.2900    1.2745   -3.2150 H   0  0  0  0  0  0  0  0  0  0  0  0
   -1.9422    0.9592   -4.4054 H   0  0  0  0  0  0  0  0  0  0  0  0
   -1.3396   -0.1930   -2.4600 H   0  0  0  0  0  0  0  0  0  0  0  0
   -3.8642   -1.6714   -1.4531 H   0  0  0  0  0  0  0  0  0  0  0  0
   -3.4440    0.0517   -1.1658 H   0  0  0  0  0  0  0  0  0  0  0  0
   -2.9620   -1.4625    0.7142 H   0  0  0  0  0  0  0  0  0  0  0  0
   -0.0991   -1.4900    1.4378 H   0  0  0  0  0  0  0  0  0  0  0  0
    1.2319    0.1991    2.3758 H   0  0  0  0  0  0  0  0  0  0  0  0
    0.0957    2.0735    3.0029 H   0  0  0  0  0  0  0  0  0  0  0  0
   -0.6930    2.2923    1.4239 H   0  0  0  0  0  0  0  0  0  0  0  0
    1.0535    2.7052    1.6488 H   0  0  0  0  0  0  0  0  0  0  0  0
    2.5771    0.9708    0.7724 H   0  0  0  0  0  0  0  0  0  0  0  0
    3.1819   -0.9752    1.6636 H   0  0  0  0  0  0  0  0  0  0  0  0
    5.4841   -0.9575    1.4772 H   0  0  0  0  0  0  0  0  0  0  0  0
    6.4930    0.3666   -0.3417 H   0  0  0  0  0  0  0  0  0  0  0  0
    7.5441   -1.0272    0.1080 H   0  0  0  0  0  0  0  0  0  0  0  0
    6.5539   -1.0892   -1.4067 H   0  0  0  0  0  0  0  0  0  0  0  0
    6.4739   -3.1898    0.9226 H   0  0  0  0  0  0  0  0  0  0  0  0
    5.5124   -3.2401   -0.6077 H   0  0  0  0  0  0  0  0  0  0  0  0
    4.4105   -3.0942    2.2744 H   0  0  0  0  0  0  0  0  0  0  0  0
    2.7936   -3.2646   -0.3426 H   0  0  0  0  0  0  0  0  0  0  0  0
    1.7679   -4.2109    1.4069 H   0  0  0  0  0  0  0  0  0  0  0  0
    6.2687   -5.2722    2.0145 H   0  0  0  0  0  0  0  0  0  0  0  0
    5.0970   -6.6109    2.3313 H   0  0  0  0  0  0  0  0  0  0  0  0
    4.9764   -5.0986    3.2725 H   0  0  0  0  0  0  0  0  0  0  0  0
    5.5685   -5.5624   -0.3529 H   0  0  0  0  0  0  0  0  0  0  0  0
    3.8667   -5.1666   -0.8296 H   0  0  0  0  0  0  0  0  0  0  0  0
    4.2152   -6.6867    0.0322 H   0  0  0  0  0  0  0  0  0  0  0  0
    2.2318    2.1856   -0.9372 H   0  0  0  0  0  0  0  0  0  0  0  0
    2.9160    0.2015   -2.1400 H   0  0  0  0  0  0  0  0  0  0  0  0
    1.9099    1.2889   -3.1366 H   0  0  0  0  0  0  0  0  0  0  0  0
    1.1865   -0.2179   -2.4668 H   0  0  0  0  0  0  0  0  0  0  0  0
   -0.1906    1.9997   -2.3339 H   0  0  0  0  0  0  0  0  0  0  0  0
   -0.7177    1.5769   -0.7502 H   0  0  0  0  0  0  0  0  0  0  0  0
    1.3587    4.0842   -2.5961 H   0  0  0  0  0  0  0  0  0  0  0  0
    0.3235    5.5709   -1.8820 H   0  0  0  0  0  0  0  0  0  0  0  0
   -2.7317    2.6499   -0.7721 H   0  0  0  0  0  0  0  0  0  0  0  0
   -2.0021    3.9650   -2.8120 H   0  0  0  0  0  0  0  0  0  0  0  0
   -3.7638    3.9131   -2.6340 H   0  0  0  0  0  0  0  0  0  0  0  0
   -2.8659    5.4078   -2.1559 H   0  0  0  0  0  0  0  0  0  0  0  0
   -3.5347    5.3464    0.4183 H   0  0  0  0  0  0  0  0  0  0  0  0
   -5.1697    3.5780   -0.9906 H   0  0  0  0  0  0  0  0  0  0  0  0
   -2.8222    3.6571    2.0776 H   0  0  0  0  0  0  0  0  0  0  0  0
   -4.4078    5.4863    2.5859 H   0  0  0  0  0  0  0  0  0  0  0  0
   -4.6611    4.0506    3.6219 H   0  0  0  0  0  0  0  0  0  0  0  0
   -5.7946    4.3764    2.2533 H   0  0  0  0  0  0  0  0  0  0  0  0
   -4.7269    1.9013    2.7326 H   0  0  0  0  0  0  0  0  0  0  0  0
   -4.9154    1.5420   -0.2773 H   0  0  0  0  0  0  0  0  0  0  0  0
   -6.2101    2.2722    0.7800 H   0  0  0  0  0  0  0  0  0  0  0  0
   -5.6606    0.5819    1.0259 H   0  0  0  0  0  0  0  0  0  0  0  0
   -2.1852   -1.3096    2.6635 H   0  0  0  0  0  0  0  0  0  0  0  0
   -1.4309   -0.8777    4.8480 H   0  0  0  0  0  0  0  0  0  0  0  0
   -0.0618   -1.5662    3.9131 H   0  0  0  0  0  0  0  0  0  0  0  0
   -0.1040    0.1963    4.2980 H   0  0  0  0  0  0  0  0  0  0  0  0
    0.1072   -1.9187   -1.2485 H   0  0  0  0  0  0  0  0  0  0  0  0
   -0.8480   -4.8045   -1.6998 H   0  0  0  0  0  0  0  0  0  0  0  0
    0.7038   -4.0604   -2.2648 H   0  0  0  0  0  0  0  0  0  0  0  0
    0.3974   -4.2951   -0.5091 H   0  0  0  0  0  0  0  0  0  0  0  0
   -2.2390   -3.1088   -2.8750 H   0  0  0  0  0  0  0  0  0  0  0  0
   -1.0796   -2.4282   -4.6020 H   0  0  0  0  0  0  0  0  0  0  0  0
  1  2  1  0
  2  3  1  0
  3  4  1  0
  4  5  1  0
  5  6  1  0
  6  7  1  0
  7  8  1  0
  8  9  1  0
  8 10  1  0
 10 11  1  0
 11 12  1  0
 12 13  1  0
 13 14  1  0
 14 15  1  0
 14 16  1  0
 16 17  1  0
 17 18  1  0
 18 19  1  0
 17 20  1  0
 20 21  1  0
 20 22  1  0
 10 23  1  0
 23 24  1  0
 23 25  1  0
 25 26  1  0
 26 27  1  0
 27 28  1  0
 26 29  1  0
 29 30  2  0
 29 31  1  0
 31 32  1  0
 31 33  1  0
 33 34  1  0
 33 35  1  0
 35 36  1  0
 35 37  1  0
 37 38  1  0
 37 39  1  0
 39 40  1  0
 40 41  2  0
 40 42  1  0
 42 43  1  0
  5 44  1  0
 44 45  1  0
 45 46  1  0
 45 47  1  0
 47 48  1  0
 47  3  1  0
 42  7  1  0
 18 12  1  0
 26 28  1  1
  1 49  1  0
  1 50  1  0
  1 51  1  0
  3 52  1  1
  4 53  1  0
  4 54  1  0
  5 55  1  1
  7 56  1  6
  8 57  1  1
  9 58  1  0
  9 59  1  0
  9 60  1  0
 10 61  1  1
 12 62  1  1
 14 63  1  1
 15 64  1  0
 15 65  1  0
 15 66  1  0
 16 67  1  0
 16 68  1  0
 17 69  1  1
 18 70  1  6
 19 71  1  0
 21 72  1  0
 21 73  1  0
 21 74  1  0
 22 75  1  0
 22 76  1  0
 22 77  1  0
 23 78  1  1
 24 79  1  0
 24 80  1  0
 24 81  1  0
 25 82  1  0
 25 83  1  0
 27 84  1  0
 27 85  1  0
 31 86  1  6
 32 87  1  0
 32 88  1  0
 32 89  1  0
 33 90  1  1
 34 91  1  0
 35 92  1  1
 36 93  1  0
 36 94  1  0
 36 95  1  0
 37 96  1  1
 38 97  1  0
 38 98  1  0
 38 99  1  0
 42100  1  6
 43101  1  0
 43102  1  0
 43103  1  0
 45104  1  1
 46105  1  0
 46106  1  0
 46107  1  0
 47108  1  6
 48109  1  0
M  END
$$$$
