
     RDKit          3D

125129  0  0  0  0  0  0  0  0999 V2000
    2.1455   -1.3383   -0.3813 C   0  0  1  0  0  0  0  0  0  0  0  0
    3.3876   -1.5398    0.3958 N   0  0  0  0  0  0  0  0  0  0  0  0
    4.1178   -0.4917    1.1276 C   0  0  0  0  0  0  0  0  0  0  0  0
    5.0004   -1.0487    2.2595 C   0  0  0  0  0  0  0  0  0  0  0  0
    4.2100   -1.9113    3.2563 C   0  0  0  0  0  0  0  0  0  0  0  0
    5.1164   -2.5291    4.3270 C   0  0  0  0  0  0  0  0  0  0  0  0
    5.6951   -1.4969    5.1822 N   0  0  0  0  0  0  0  0  0  0  0  0
    6.9408   -0.9986    5.1130 C   0  0  0  0  0  0  0  0  0  0  0  0
    7.0156   -0.0145    6.0816 C   0  0  0  0  0  0  0  0  0  0  0  0
    5.8160    0.0524    6.6993 N   0  0  0  0  0  0  0  0  0  0  0  0
    5.0347   -0.8546    6.1314 N   0  0  0  0  0  0  0  0  0  0  0  0
    8.1747    0.8476    6.4131 C   0  0  0  0  0  0  0  0  0  0  0  0
    9.3953    0.7273    5.7210 C   0  0  0  0  0  0  0  0  0  0  0  0
   10.4837    1.5511    6.0454 C   0  0  0  0  0  0  0  0  0  0  0  0
   11.7196    1.4223    5.3371 N   0  0  0  0  0  0  0  0  0  0  0  0
   10.3544    2.5009    7.0666 C   0  0  0  0  0  0  0  0  0  0  0  0
    9.1485    2.6272    7.7581 C   0  0  0  0  0  0  0  0  0  0  0  0
    8.0643    1.8071    7.4353 C   0  0  0  0  0  0  0  0  0  0  0  0
    4.0493   -2.6014   -0.2840 C   0  0  0  0  0  0  0  0  0  0  0  0
    5.2582   -2.9063   -0.1127 O   0  0  0  0  0  0  0  0  0  0  0  0
    3.2566   -3.2296   -1.2131 O   0  0  0  0  0  0  0  0  0  0  0  0
    1.9329   -2.7172   -1.1467 C   0  0  1  0  0  0  0  0  0  0  0  0
    1.1238   -3.7498   -0.3147 C   0  0  0  0  0  0  0  0  0  0  0  0
    1.3319   -2.5406   -2.5935 C   0  0  1  0  0  0  0  0  0  0  0  0
    1.9995   -3.4587   -3.6595 C   0  0  0  0  0  0  0  0  0  0  0  0
    1.6780   -4.9453   -3.5095 C   0  0  0  0  0  0  0  0  0  0  0  0
   -0.0909   -2.7177   -2.5414 O   0  0  0  0  0  0  0  0  0  0  0  0
   -0.9919   -2.5588   -3.6046 C   0  0  0  0  0  0  0  0  0  0  0  0
   -0.5854   -2.4621   -4.7934 O   0  0  0  0  0  0  0  0  0  0  0  0
   -2.4600   -2.4761   -3.2828 C   0  0  1  0  0  0  0  0  0  0  0  0
   -3.3702   -2.9250   -4.4372 C   0  0  0  0  0  0  0  0  0  0  0  0
   -2.6876   -3.3781   -2.2515 F   0  0  0  0  0  0  0  0  0  0  0  0
   -2.8021   -1.0788   -2.7793 C   0  0  0  0  0  0  0  0  0  0  0  0
   -3.0484   -0.9752   -1.5887 O   0  0  0  0  0  0  0  0  0  0  0  0
   -2.9259    0.1715   -3.6703 C   0  0  2  0  0  0  0  0  0  0  0  0
   -1.8950    0.2372   -4.8120 C   0  0  0  0  0  0  0  0  0  0  0  0
   -3.0070    1.5498   -2.8915 C   0  0  1  0  0  0  0  0  0  0  0  0
   -3.8821    1.4508   -1.7690 O   0  0  0  0  0  0  0  0  0  0  0  0
   -5.2400    1.6966   -2.1160 C   0  0  2  0  0  0  0  0  0  0  0  0
   -5.4685    3.0985   -2.2128 O   0  0  0  0  0  0  0  0  0  0  0  0
   -6.1050    3.6801   -1.0932 C   0  0  2  0  0  0  0  0  0  0  0  0
   -5.1737    3.7939    0.1251 C   0  0  0  0  0  0  0  0  0  0  0  0
   -7.4732    3.0394   -0.7830 C   0  0  0  0  0  0  0  0  0  0  0  0
   -7.5934    1.5299   -1.1155 C   0  0  2  0  0  0  0  0  0  0  0  0
   -8.5181    0.8968   -0.1188 N   0  0  0  0  0  0  0  0  0  0  0  0
   -9.9034    1.3753   -0.3170 C   0  0  0  0  0  0  0  0  0  0  0  0
   -8.5340   -0.5776   -0.1492 C   0  0  0  0  0  0  0  0  0  0  0  0
   -6.1736    0.9034   -1.1576 C   0  0  1  0  0  0  0  0  0  0  0  0
   -6.2374   -0.4157   -1.6424 O   0  0  0  0  0  0  0  0  0  0  0  0
   -1.6347    2.2392   -2.4659 C   0  0  1  0  0  0  0  0  0  0  0  0
   -1.9399    3.5190   -1.6269 C   0  0  0  0  0  0  0  0  0  0  0  0
   -0.6778    1.2678   -1.6575 C   0  0  0  0  0  0  0  0  0  0  0  0
   -0.5557    1.3714   -0.1089 C   0  0  1  0  0  0  0  0  0  0  0  0
   -1.7589    0.8110    0.6667 C   0  0  0  0  0  0  0  0  0  0  0  0
    0.7371    0.7090    0.3472 C   0  0  0  0  0  0  0  0  0  0  0  0
    1.6793    1.4354    0.6216 O   0  0  0  0  0  0  0  0  0  0  0  0
    0.9058   -0.8077    0.4292 C   0  0  2  0  0  0  0  0  0  0  0  0
    0.8704   -1.2453    1.9037 C   0  0  0  0  0  0  0  0  0  0  0  0
   -0.8852    2.5717   -3.6465 O   0  0  0  0  0  0  0  0  0  0  0  0
   -1.2432    3.7712   -4.3112 C   0  0  0  0  0  0  0  0  0  0  0  0
    2.3856   -0.5688   -1.1494 H   0  0  0  0  0  0  0  0  0  0  0  0
    4.7487    0.0811    0.4146 H   0  0  0  0  0  0  0  0  0  0  0  0
    3.4163    0.2153    1.5953 H   0  0  0  0  0  0  0  0  0  0  0  0
    5.4396   -0.1828    2.8004 H   0  0  0  0  0  0  0  0  0  0  0  0
    5.8516   -1.6247    1.8446 H   0  0  0  0  0  0  0  0  0  0  0  0
    3.7047   -2.7400    2.7157 H   0  0  0  0  0  0  0  0  0  0  0  0
    3.4306   -1.2939    3.7515 H   0  0  0  0  0  0  0  0  0  0  0  0
    5.9216   -3.1278    3.8468 H   0  0  0  0  0  0  0  0  0  0  0  0
    4.5142   -3.2215    4.9540 H   0  0  0  0  0  0  0  0  0  0  0  0
    7.7022   -1.3194    4.4148 H   0  0  0  0  0  0  0  0  0  0  0  0
    9.5105   -0.0012    4.9302 H   0  0  0  0  0  0  0  0  0  0  0  0
   11.8280    0.7177    4.5737 H   0  0  0  0  0  0  0  0  0  0  0  0
   12.5357    2.0307    5.5708 H   0  0  0  0  0  0  0  0  0  0  0  0
   11.1874    3.1423    7.3259 H   0  0  0  0  0  0  0  0  0  0  0  0
    9.0531    3.3626    8.5465 H   0  0  0  0  0  0  0  0  0  0  0  0
    7.1396    1.9247    7.9864 H   0  0  0  0  0  0  0  0  0  0  0  0
    0.0918   -3.4154   -0.0920 H   0  0  0  0  0  0  0  0  0  0  0  0
    1.0355   -4.7110   -0.8542 H   0  0  0  0  0  0  0  0  0  0  0  0
    1.6453   -3.9756    0.6380 H   0  0  0  0  0  0  0  0  0  0  0  0
    1.5221   -1.5017   -2.9391 H   0  0  0  0  0  0  0  0  0  0  0  0
    3.1020   -3.3234   -3.6448 H   0  0  0  0  0  0  0  0  0  0  0  0
    1.6976   -3.1367   -4.6755 H   0  0  0  0  0  0  0  0  0  0  0  0
    2.2369   -5.3787   -2.6553 H   0  0  0  0  0  0  0  0  0  0  0  0
    0.5883   -5.1075   -3.3739 H   0  0  0  0  0  0  0  0  0  0  0  0
    1.9988   -5.4841   -4.4258 H   0  0  0  0  0  0  0  0  0  0  0  0
   -4.4336   -2.8654   -4.1208 H   0  0  0  0  0  0  0  0  0  0  0  0
   -3.1483   -3.9816   -4.6998 H   0  0  0  0  0  0  0  0  0  0  0  0
   -3.2500   -2.3180   -5.3512 H   0  0  0  0  0  0  0  0  0  0  0  0
   -3.9039    0.0468   -4.1820 H   0  0  0  0  0  0  0  0  0  0  0  0
   -0.8583    0.1738   -4.4218 H   0  0  0  0  0  0  0  0  0  0  0  0
   -2.0450   -0.5626   -5.5552 H   0  0  0  0  0  0  0  0  0  0  0  0
   -2.0195    1.1789   -5.3857 H   0  0  0  0  0  0  0  0  0  0  0  0
   -3.4477    2.2530   -3.6319 H   0  0  0  0  0  0  0  0  0  0  0  0
   -5.4687    1.2951   -3.1301 H   0  0  0  0  0  0  0  0  0  0  0  0
   -6.3238    4.7336   -1.3762 H   0  0  0  0  0  0  0  0  0  0  0  0
   -5.7133    4.2517    0.9810 H   0  0  0  0  0  0  0  0  0  0  0  0
   -4.7717    2.8153    0.4462 H   0  0  0  0  0  0  0  0  0  0  0  0
   -4.3253    4.4635   -0.1227 H   0  0  0  0  0  0  0  0  0  0  0  0
   -7.7161    3.2167    0.2884 H   0  0  0  0  0  0  0  0  0  0  0  0
   -8.2484    3.5796   -1.3712 H   0  0  0  0  0  0  0  0  0  0  0  0
   -8.0211    1.4280   -2.1409 H   0  0  0  0  0  0  0  0  0  0  0  0
  -10.5817    0.9382    0.4477 H   0  0  0  0  0  0  0  0  0  0  0  0
  -10.2798    1.1063   -1.3291 H   0  0  0  0  0  0  0  0  0  0  0  0
   -9.9730    2.4737   -0.1839 H   0  0  0  0  0  0  0  0  0  0  0  0
   -7.6004   -0.9776    0.2963 H   0  0  0  0  0  0  0  0  0  0  0  0
   -9.3495   -0.9830    0.4891 H   0  0  0  0  0  0  0  0  0  0  0  0
   -8.6794   -0.9578   -1.1845 H   0  0  0  0  0  0  0  0  0  0  0  0
   -5.7636    0.9097   -0.1211 H   0  0  0  0  0  0  0  0  0  0  0  0
   -5.5522   -0.9430   -1.1565 H   0  0  0  0  0  0  0  0  0  0  0  0
   -1.0067    4.0907   -1.4364 H   0  0  0  0  0  0  0  0  0  0  0  0
   -2.4033    3.2757   -0.6561 H   0  0  0  0  0  0  0  0  0  0  0  0
   -2.6635    4.1836   -2.1435 H   0  0  0  0  0  0  0  0  0  0  0  0
   -0.8251    0.2136   -1.9351 H   0  0  0  0  0  0  0  0  0  0  0  0
    0.3517    1.4702   -2.0338 H   0  0  0  0  0  0  0  0  0  0  0  0
   -0.4610    2.4399    0.1761 H   0  0  0  0  0  0  0  0  0  0  0  0
   -1.5941    0.9494    1.7565 H   0  0  0  0  0  0  0  0  0  0  0  0
   -2.6925    1.3408    0.4101 H   0  0  0  0  0  0  0  0  0  0  0  0
   -1.9103   -0.2679    0.4797 H   0  0  0  0  0  0  0  0  0  0  0  0
    0.0128   -1.2363   -0.0623 H   0  0  0  0  0  0  0  0  0  0  0  0
    1.2055   -2.2898    2.0364 H   0  0  0  0  0  0  0  0  0  0  0  0
   -0.1677   -1.1720    2.2905 H   0  0  0  0  0  0  0  0  0  0  0  0
    1.5052   -0.5929    2.5344 H   0  0  0  0  0  0  0  0  0  0  0  0
   -0.7998    3.7491   -5.3274 H   0  0  0  0  0  0  0  0  0  0  0  0
   -0.8099    4.6496   -3.7886 H   0  0  0  0  0  0  0  0  0  0  0  0
   -2.3358    3.8971   -4.4414 H   0  0  0  0  0  0  0  0  0  0  0  0
  1  2  1  0
  2  3  1  0
  3  4  1  0
  4  5  1  0
  5  6  1  0
  6  7  1  0
  7  8  1  0
  8  9  2  0
  9 10  1  0
 10 11  2  0
  9 12  1  0
 12 13  2  0
 13 14  1  0
 14 15  1  0
 14 16  2  0
 16 17  1  0
 17 18  2  0
  2 19  1  0
 19 20  2  0
 19 21  1  0
 21 22  1  0
 22 23  1  1
 22 24  1  0
 24 25  1  0
 25 26  1  0
 24 27  1  0
 27 28  1  0
 28 29  2  0
 28 30  1  0
 30 31  1  0
 30 32  1  1
 30 33  1  0
 33 34  2  0
 33 35  1  0
 35 36  1  0
 35 37  1  0
 37 38  1  0
 38 39  1  0
 39 40  1  0
 40 41  1  0
 41 42  1  0
 41 43  1  0
 43 44  1  0
 44 45  1  0
 45 46  1  0
 45 47  1  0
 44 48  1  0
 48 49  1  0
 37 50  1  0
 50 51  1  0
 50 52  1  0
 52 53  1  0
 53 54  1  0
 53 55  1  0
 55 56  2  0
 55 57  1  0
 57 58  1  0
 50 59  1  6
 59 60  1  0
 22  1  1  0
 48 39  1  0
 57  1  1  0
 11  7  1  0
 18 12  1  0
  1 61  1  6
  3 62  1  0
  3 63  1  0
  4 64  1  0
  4 65  1  0
  5 66  1  0
  5 67  1  0
  6 68  1  0
  6 69  1  0
  8 70  1  0
 13 71  1  0
 15 72  1  0
 15 73  1  0
 16 74  1  0
 17 75  1  0
 18 76  1  0
 23 77  1  0
 23 78  1  0
 23 79  1  0
 24 80  1  6
 25 81  1  0
 25 82  1  0
 26 83  1  0
 26 84  1  0
 26 85  1  0
 31 86  1  0
 31 87  1  0
 31 88  1  0
 35 89  1  6
 36 90  1  0
 36 91  1  0
 36 92  1  0
 37 93  1  6
 39 94  1  6
 41 95  1  6
 42 96  1  0
 42 97  1  0
 42 98  1  0
 43 99  1  0
 43100  1  0
 44101  1  6
 46102  1  0
 46103  1  0
 46104  1  0
 47105  1  0
 47106  1  0
 47107  1  0
 48108  1  1
 49109  1  0
 51110  1  0
 51111  1  0
 51112  1  0
 52113  1  0
 52114  1  0
 53115  1  6
 54116  1  0
 54117  1  0
 54118  1  0
 57119  1  6
 58120  1  0
 58121  1  0
 58122  1  0
 60123  1  0
 60124  1  0
 60125  1  0
M  END
$$$$
