
     RDKit          3D

 32 34  0  0  0  0  0  0  0  0999 V2000
    4.3114    2.1271   -0.5568 C   0  0  0  0  0  0  0  0  0  0  0  0
    3.1278    1.7452    0.1364 O   0  0  0  0  0  0  0  0  0  0  0  0
    2.5790    0.4543    0.1148 C   0  0  0  0  0  0  0  0  0  0  0  0
    3.1633   -0.6022   -0.6099 C   0  0  0  0  0  0  0  0  0  0  0  0
    2.5739   -1.8690   -0.6039 C   0  0  0  0  0  0  0  0  0  0  0  0
    1.4034   -2.0961    0.1231 C   0  0  0  0  0  0  0  0  0  0  0  0
    0.8159   -1.0559    0.8595 C   0  0  0  0  0  0  0  0  0  0  0  0
   -0.4668   -1.2916    1.6090 C   0  0  0  0  0  0  0  0  0  0  0  0
   -1.6393   -1.1185    0.6917 C   0  0  0  0  0  0  0  0  0  0  0  0
   -2.1909   -2.0914   -0.1410 C   0  0  0  0  0  0  0  0  0  0  0  0
   -3.1810   -1.5628   -0.8976 N   0  0  0  0  0  0  0  0  0  0  0  0
   -3.2444   -0.2667   -0.5540 C   0  0  0  0  0  0  0  0  0  0  0  0
   -2.3215    0.0473    0.4040 C   0  0  0  0  0  0  0  0  0  0  0  0
   -2.2031    1.3478    0.8873 C   0  0  0  0  0  0  0  0  0  0  0  0
   -3.0706    2.3168    0.3538 C   0  0  0  0  0  0  0  0  0  0  0  0
   -4.0113    1.9502   -0.6355 C   0  0  0  0  0  0  0  0  0  0  0  0
   -4.0848    0.6593   -1.0799 N   0  0  0  0  0  0  0  0  0  0  0  0
    1.4059    0.2186    0.8424 C   0  0  0  0  0  0  0  0  0  0  0  0
    4.1783    1.9799   -1.6494 H   0  0  0  0  0  0  0  0  0  0  0  0
    4.5134    3.2008   -0.3650 H   0  0  0  0  0  0  0  0  0  0  0  0
    5.1757    1.5322   -0.1931 H   0  0  0  0  0  0  0  0  0  0  0  0
    4.0687   -0.4541   -1.1823 H   0  0  0  0  0  0  0  0  0  0  0  0
    3.0238   -2.6763   -1.1674 H   0  0  0  0  0  0  0  0  0  0  0  0
    0.9529   -3.0809    0.1103 H   0  0  0  0  0  0  0  0  0  0  0  0
   -0.5522   -0.5905    2.4670 H   0  0  0  0  0  0  0  0  0  0  0  0
   -0.4768   -2.3199    2.0311 H   0  0  0  0  0  0  0  0  0  0  0  0
   -1.8727   -3.1242   -0.1997 H   0  0  0  0  0  0  0  0  0  0  0  0
   -3.7607   -2.0575   -1.6112 H   0  0  0  0  0  0  0  0  0  0  0  0
   -1.4769    1.6077    1.6457 H   0  0  0  0  0  0  0  0  0  0  0  0
   -3.0175    3.3410    0.6993 H   0  0  0  0  0  0  0  0  0  0  0  0
   -4.6778    2.6963   -1.0470 H   0  0  0  0  0  0  0  0  0  0  0  0
    0.9550    1.0331    1.3953 H   0  0  0  0  0  0  0  0  0  0  0  0
  1  2  1  0
  2  3  1  0
  3  4  2  0
  4  5  1  0
  5  6  2  0
  6  7  1  0
  7  8  1  0
  8  9  1  0
  9 10  2  0
 10 11  1  0
 11 12  1  0
 12 13  2  0
 13 14  1  0
 14 15  2  0
 15 16  1  0
 16 17  2  0
  7 18  2  0
 18  3  1  0
 13  9  1  0
 17 12  1  0
  1 19  1  0
  1 20  1  0
  1 21  1  0
  4 22  1  0
  5 23  1  0
  6 24  1  0
  8 25  1  0
  8 26  1  0
 10 27  1  0
 11 28  1  0
 14 29  1  0
 15 30  1  0
 16 31  1  0
 18 32  1  0
M  END
$$$$
