
     RDKit          3D

 86 90  0  0  0  0  0  0  0  0999 V2000
   -1.3941   -1.7842   -1.9205 C   0  0  0  0  0  0  0  0  0  0  0  0
   -0.4051   -2.9407   -2.0242 C   0  0  0  0  0  0  0  0  0  0  0  0
   -2.0250   -1.8172   -0.6412 O   0  0  0  0  0  0  0  0  0  0  0  0
   -3.0778   -0.9658   -0.2852 C   0  0  0  0  0  0  0  0  0  0  0  0
   -3.5535   -0.1584   -1.1314 O   0  0  0  0  0  0  0  0  0  0  0  0
   -3.6189   -1.0173    1.0450 N   0  0  0  0  0  0  0  0  0  0  0  0
   -2.9983   -1.8909    2.0415 C   0  0  0  0  0  0  0  0  0  0  0  0
   -4.5592   -0.0204    1.4733 C   0  0  0  0  0  0  0  0  0  0  0  0
   -5.8679   -0.3668    1.8821 C   0  0  0  0  0  0  0  0  0  0  0  0
   -6.3924   -1.7813    1.8252 C   0  0  0  0  0  0  0  0  0  0  0  0
   -7.5104   -1.8574    0.9434 O   0  0  0  0  0  0  0  0  0  0  0  0
   -7.3918   -1.7980   -0.4494 C   0  0  0  0  0  0  0  0  0  0  0  0
   -6.2579   -1.7573   -0.9995 O   0  0  0  0  0  0  0  0  0  0  0  0
   -8.6308   -1.7549   -1.2947 C   0  0  0  0  0  0  0  0  0  0  0  0
   -8.8769   -0.4126   -1.8423 N   0  0  0  0  0  0  0  0  0  0  0  0
   -9.2769    0.5349   -0.7985 C   0  0  0  0  0  0  0  0  0  0  0  0
   -6.7246    0.6555    2.3177 C   0  0  0  0  0  0  0  0  0  0  0  0
   -6.2934    1.9814    2.3246 C   0  0  0  0  0  0  0  0  0  0  0  0
   -5.0018    2.2811    1.8960 C   0  0  0  0  0  0  0  0  0  0  0  0
   -4.1732    1.2858    1.4870 N   0  0  0  0  0  0  0  0  0  0  0  0
   -0.6924   -0.5137   -2.1044 N   0  0  0  0  0  4  0  0  0  0  0  0
    0.0575    0.1516   -1.2085 C   0  0  0  0  0  0  0  0  0  0  0  0
    0.6294    1.2196   -1.7930 N   0  0  0  0  0  0  0  0  0  0  0  0
    1.5326    2.1839   -1.1635 C   0  0  0  0  0  0  0  0  0  0  0  0
    2.9564    2.1462   -1.8162 C   0  0  2  0  0  0  0  0  0  0  0  0
    2.8332    2.5742   -3.1577 O   0  0  0  0  0  0  0  0  0  0  0  0
    3.5391    0.7145   -1.8377 C   0  0  0  0  0  0  0  0  0  0  0  0
    4.4640    0.3247   -2.8396 C   0  0  0  0  0  0  0  0  0  0  0  0
    4.8499    1.1838   -3.8169 F   0  0  0  0  0  0  0  0  0  0  0  0
    5.0317   -0.9534   -2.8286 C   0  0  0  0  0  0  0  0  0  0  0  0
    4.7198   -1.8557   -1.8136 C   0  0  0  0  0  0  0  0  0  0  0  0
    3.8512   -1.4789   -0.7921 C   0  0  0  0  0  0  0  0  0  0  0  0
    3.5795   -2.3425    0.2172 F   0  0  0  0  0  0  0  0  0  0  0  0
    3.2777   -0.2054   -0.7931 C   0  0  0  0  0  0  0  0  0  0  0  0
    3.9771    3.0892   -1.0766 C   0  0  1  0  0  0  0  0  0  0  0  0
    3.5564    4.5697   -1.0236 C   0  0  0  0  0  0  0  0  0  0  0  0
    4.3443    2.5952    0.3049 C   0  0  0  0  0  0  0  0  0  0  0  0
    5.3284    1.6951    0.5174 N   0  0  0  0  0  0  0  0  0  0  0  0
    5.4256    1.3173    1.8221 C   0  0  0  0  0  0  0  0  0  0  0  0
    4.4991    1.9292    2.6709 C   0  0  0  0  0  0  0  0  0  0  0  0
    3.5419    2.9520    1.7421 S   0  0  0  0  0  0  0  0  0  0  0  0
    6.4072    0.2919    2.2545 C   0  0  0  0  0  0  0  0  0  0  0  0
    7.0112   -0.5446    1.2966 C   0  0  0  0  0  0  0  0  0  0  0  0
    7.9300   -1.5236    1.6852 C   0  0  0  0  0  0  0  0  0  0  0  0
    8.2632   -1.6780    3.0349 C   0  0  0  0  0  0  0  0  0  0  0  0
    7.6750   -0.8480    3.9955 C   0  0  0  0  0  0  0  0  0  0  0  0
    6.7537    0.1309    3.6101 C   0  0  0  0  0  0  0  0  0  0  0  0
    9.2101   -2.6861    3.4340 C   0  0  0  0  0  0  0  0  0  0  0  0
    9.9713   -3.4965    3.7549 N   0  0  0  0  0  0  0  0  0  0  0  0
    0.2566    1.2555   -3.0642 N   0  0  0  0  0  0  0  0  0  0  0  0
   -0.5455    0.1868   -3.2471 C   0  0  0  0  0  0  0  0  0  0  0  0
   -2.1662   -1.9073   -2.7129 H   0  0  0  0  0  0  0  0  0  0  0  0
    0.0866   -2.9322   -3.0202 H   0  0  0  0  0  0  0  0  0  0  0  0
    0.3731   -2.8542   -1.2358 H   0  0  0  0  0  0  0  0  0  0  0  0
   -0.9395   -3.9060   -1.8981 H   0  0  0  0  0  0  0  0  0  0  0  0
   -2.9209   -2.9252    1.6443 H   0  0  0  0  0  0  0  0  0  0  0  0
   -1.9828   -1.5142    2.2865 H   0  0  0  0  0  0  0  0  0  0  0  0
   -3.6005   -1.9212    2.9750 H   0  0  0  0  0  0  0  0  0  0  0  0
   -5.6231   -2.5148    1.5080 H   0  0  0  0  0  0  0  0  0  0  0  0
   -6.7240   -2.0763    2.8429 H   0  0  0  0  0  0  0  0  0  0  0  0
   -8.5106   -2.4673   -2.1386 H   0  0  0  0  0  0  0  0  0  0  0  0
   -9.5075   -2.1001   -0.7038 H   0  0  0  0  0  0  0  0  0  0  0  0
   -8.0038   -0.0573   -2.2990 H   0  0  0  0  0  0  0  0  0  0  0  0
   -8.4483    0.7065   -0.0786 H   0  0  0  0  0  0  0  0  0  0  0  0
   -9.5356    1.5070   -1.2681 H   0  0  0  0  0  0  0  0  0  0  0  0
  -10.1747    0.1653   -0.2580 H   0  0  0  0  0  0  0  0  0  0  0  0
   -7.7338    0.4254    2.6372 H   0  0  0  0  0  0  0  0  0  0  0  0
   -6.9573    2.7706    2.6530 H   0  0  0  0  0  0  0  0  0  0  0  0
   -4.6551    3.3058    1.8914 H   0  0  0  0  0  0  0  0  0  0  0  0
    0.1958   -0.1428   -0.1756 H   0  0  0  0  0  0  0  0  0  0  0  0
    1.5805    1.9983   -0.0721 H   0  0  0  0  0  0  0  0  0  0  0  0
    1.0827    3.1926   -1.2749 H   0  0  0  0  0  0  0  0  0  0  0  0
    2.3085    3.4153   -3.1900 H   0  0  0  0  0  0  0  0  0  0  0  0
    5.7299   -1.2407   -3.6044 H   0  0  0  0  0  0  0  0  0  0  0  0
    5.1695   -2.8403   -1.8082 H   0  0  0  0  0  0  0  0  0  0  0  0
    2.6552    0.0603    0.0471 H   0  0  0  0  0  0  0  0  0  0  0  0
    4.9180    3.0714   -1.6716 H   0  0  0  0  0  0  0  0  0  0  0  0
    3.4444    4.9890   -2.0441 H   0  0  0  0  0  0  0  0  0  0  0  0
    2.6081    4.7060   -0.4647 H   0  0  0  0  0  0  0  0  0  0  0  0
    4.3437    5.1648   -0.5126 H   0  0  0  0  0  0  0  0  0  0  0  0
    4.3741    1.7566    3.7305 H   0  0  0  0  0  0  0  0  0  0  0  0
    6.7651   -0.4512    0.2460 H   0  0  0  0  0  0  0  0  0  0  0  0
    8.3790   -2.1608    0.9326 H   0  0  0  0  0  0  0  0  0  0  0  0
    7.9304   -0.9554    5.0430 H   0  0  0  0  0  0  0  0  0  0  0  0
    6.3297    0.7666    4.3750 H   0  0  0  0  0  0  0  0  0  0  0  0
   -0.9963   -0.0801   -4.1939 H   0  0  0  0  0  0  0  0  0  0  0  0
  1  2  1  0
  1  3  1  0
  3  4  1  0
  4  5  2  0
  4  6  1  0
  6  7  1  0
  6  8  1  0
  8  9  2  0
  9 10  1  0
 10 11  1  0
 11 12  1  0
 12 13  2  0
 12 14  1  0
 14 15  1  0
 15 16  1  0
  9 17  1  0
 17 18  2  0
 18 19  1  0
 19 20  2  0
  1 21  1  0
 21 22  2  0
 22 23  1  0
 23 24  1  0
 24 25  1  0
 25 26  1  6
 25 27  1  0
 27 28  2  0
 28 29  1  0
 28 30  1  0
 30 31  2  0
 31 32  1  0
 32 33  1  0
 32 34  2  0
 25 35  1  0
 35 36  1  0
 35 37  1  0
 37 38  2  0
 38 39  1  0
 39 40  2  0
 40 41  1  0
 39 42  1  0
 42 43  2  0
 43 44  1  0
 44 45  2  0
 45 46  1  0
 46 47  2  0
 45 48  1  0
 48 49  3  0
 23 50  1  0
 50 51  2  0
 20  8  1  0
 51 21  1  0
 34 27  1  0
 41 37  1  0
 47 42  1  0
  1 52  1  0
  2 53  1  0
  2 54  1  0
  2 55  1  0
  7 56  1  0
  7 57  1  0
  7 58  1  0
 10 59  1  0
 10 60  1  0
 14 61  1  0
 14 62  1  0
 15 63  1  0
 16 64  1  0
 16 65  1  0
 16 66  1  0
 17 67  1  0
 18 68  1  0
 19 69  1  0
 22 70  1  0
 24 71  1  0
 24 72  1  0
 26 73  1  0
 30 74  1  0
 31 75  1  0
 34 76  1  0
 35 77  1  6
 36 78  1  0
 36 79  1  0
 36 80  1  0
 40 81  1  0
 43 82  1  0
 44 83  1  0
 46 84  1  0
 47 85  1  0
 51 86  1  0
M  CHG  1  21   1
M  END
$$$$
