
     RDKit          3D

 40 42  0  0  0  0  0  0  0  0999 V2000
   -1.4156   -0.1498    0.0876 C   0  0  1  0  0  0  0  0  0  0  0  0
   -1.3514    0.9369    0.9750 O   0  0  0  0  0  0  0  0  0  0  0  0
   -2.8638   -0.3395   -0.3871 C   0  0  0  0  0  0  0  0  0  0  0  0
   -3.7335   -0.6816    0.7637 N   0  0  0  0  0  0  0  0  0  0  0  0
   -4.6422   -1.7908    0.4321 C   0  0  0  0  0  0  0  0  0  0  0  0
   -4.5176    0.4840    1.2066 C   0  0  0  0  0  0  0  0  0  0  0  0
   -0.4838    0.1005   -1.1101 C   0  0  0  0  0  0  0  0  0  0  0  0
    0.9134    0.1863   -0.6713 N   0  0  0  0  0  0  0  0  0  0  0  0
    1.6162    1.3028   -0.3486 C   0  0  0  0  0  0  0  0  0  0  0  0
    1.1883    2.6341   -0.3896 C   0  0  0  0  0  0  0  0  0  0  0  0
    2.0943    3.6343    0.0075 C   0  0  0  0  0  0  0  0  0  0  0  0
    3.3964    3.2963    0.4392 C   0  0  0  0  0  0  0  0  0  0  0  0
    4.6060    4.6722    0.9769 Br  0  0  0  0  0  0  0  0  0  0  0  0
    3.8056    1.9515    0.4812 C   0  0  0  0  0  0  0  0  0  0  0  0
    2.8895    0.9812    0.0802 C   0  0  0  0  0  0  0  0  0  0  0  0
    2.9802   -0.3911    0.0332 C   0  0  0  0  0  0  0  0  0  0  0  0
    1.7585   -0.8462   -0.4220 C   0  0  0  0  0  0  0  0  0  0  0  0
    1.5080   -2.2150   -0.5599 C   0  0  0  0  0  0  0  0  0  0  0  0
    2.5386   -3.1139   -0.2299 C   0  0  0  0  0  0  0  0  0  0  0  0
    3.7871   -2.6396    0.2312 C   0  0  0  0  0  0  0  0  0  0  0  0
    5.1689   -3.8798    0.6764 Br  0  0  0  0  0  0  0  0  0  0  0  0
    4.0173   -1.2588    0.3696 C   0  0  0  0  0  0  0  0  0  0  0  0
   -1.0999   -1.0892    0.6011 H   0  0  0  0  0  0  0  0  0  0  0  0
   -0.5859    0.7697    1.5847 H   0  0  0  0  0  0  0  0  0  0  0  0
   -2.8648   -1.1527   -1.1499 H   0  0  0  0  0  0  0  0  0  0  0  0
   -3.2121    0.5794   -0.9137 H   0  0  0  0  0  0  0  0  0  0  0  0
   -5.2907   -1.5323   -0.4349 H   0  0  0  0  0  0  0  0  0  0  0  0
   -5.2833   -2.0397    1.3054 H   0  0  0  0  0  0  0  0  0  0  0  0
   -4.0549   -2.7024    0.1891 H   0  0  0  0  0  0  0  0  0  0  0  0
   -5.0902    0.2315    2.1249 H   0  0  0  0  0  0  0  0  0  0  0  0
   -5.2282    0.8154    0.4166 H   0  0  0  0  0  0  0  0  0  0  0  0
   -3.8463    1.3302    1.4628 H   0  0  0  0  0  0  0  0  0  0  0  0
   -0.5854   -0.7234   -1.8490 H   0  0  0  0  0  0  0  0  0  0  0  0
   -0.7806    1.0324   -1.6360 H   0  0  0  0  0  0  0  0  0  0  0  0
    0.1908    2.9019   -0.7089 H   0  0  0  0  0  0  0  0  0  0  0  0
    1.7860    4.6715   -0.0163 H   0  0  0  0  0  0  0  0  0  0  0  0
    4.7976    1.6796    0.8180 H   0  0  0  0  0  0  0  0  0  0  0  0
    0.5520   -2.5843   -0.9056 H   0  0  0  0  0  0  0  0  0  0  0  0
    2.3687   -4.1781   -0.3292 H   0  0  0  0  0  0  0  0  0  0  0  0
    4.9668   -0.8838    0.7287 H   0  0  0  0  0  0  0  0  0  0  0  0
  1  2  1  0
  1  3  1  0
  3  4  1  0
  4  5  1  0
  4  6  1  0
  1  7  1  0
  7  8  1  0
  8  9  1  0
  9 10  2  0
 10 11  1  0
 11 12  2  0
 12 13  1  0
 12 14  1  0
 14 15  2  0
 15 16  1  0
 16 17  2  0
 17 18  1  0
 18 19  2  0
 19 20  1  0
 20 21  1  0
 20 22  2  0
 17  8  1  0
 15  9  1  0
 22 16  1  0
  1 23  1  1
  2 24  1  0
  3 25  1  0
  3 26  1  0
  5 27  1  0
  5 28  1  0
  5 29  1  0
  6 30  1  0
  6 31  1  0
  6 32  1  0
  7 33  1  0
  7 34  1  0
 10 35  1  0
 11 36  1  0
 14 37  1  0
 18 38  1  0
 19 39  1  0
 22 40  1  0
M  END
$$$$
