
     RDKit          3D

 37 39  0  0  0  0  0  0  0  0999 V2000
   -2.5650   -2.6807   -0.4496 C   0  0  0  0  0  0  0  0  0  0  0  0
   -2.8549   -1.2444   -0.0978 C   0  0  0  0  0  0  0  0  0  0  0  0
   -1.7200   -0.4420    0.4129 C   0  0  0  0  0  0  0  0  0  0  0  0
   -1.7361    0.4279    1.4883 C   0  0  0  0  0  0  0  0  0  0  0  0
   -0.4494    0.9065    1.6068 C   0  0  0  0  0  0  0  0  0  0  0  0
    0.2800    0.2927    0.6003 C   0  0  0  0  0  0  0  0  0  0  0  0
   -0.5069   -0.5061   -0.0861 O   0  0  0  0  0  0  0  0  0  0  0  0
    1.7211    0.4692    0.3057 C   0  0  0  0  0  0  0  0  0  0  0  0
    2.3060   -0.2511   -0.7502 C   0  0  0  0  0  0  0  0  0  0  0  0
    3.6638   -0.1007   -1.0466 C   0  0  0  0  0  0  0  0  0  0  0  0
    4.4568    0.7757   -0.2961 C   0  0  0  0  0  0  0  0  0  0  0  0
    3.8835    1.4912    0.7619 C   0  0  0  0  0  0  0  0  0  0  0  0
    2.5258    1.3427    1.0608 C   0  0  0  0  0  0  0  0  0  0  0  0
    6.1702    0.9546   -0.6583 S   0  0  0  0  0  6  0  0  0  0  0  0
    7.0791   -0.1618    0.2985 N   0  0  0  0  0  0  0  0  0  0  0  0
    6.6101    2.3591   -0.3518 O   0  0  0  0  0  0  0  0  0  0  0  0
    6.4147    0.6802   -2.1158 O   0  0  0  0  0  0  0  0  0  0  0  0
   -4.0868   -0.7039   -0.2714 C   0  0  0  0  0  0  0  0  0  0  0  0
   -4.4289    1.0647   -0.0789 S   0  0  0  0  0  0  0  0  0  0  0  0
   -6.0806    0.7696   -0.7129 C   0  0  0  0  0  0  0  0  0  0  0  0
   -6.9346    1.7211   -0.9022 N   0  0  0  0  0  0  0  0  0  0  0  0
   -6.3956   -0.5811   -1.0048 N   0  0  0  0  0  0  0  0  0  0  0  0
   -5.2827   -1.4194   -0.7568 C   0  0  0  0  0  0  0  0  0  0  0  0
   -5.3490   -2.6643   -0.9352 O   0  0  0  0  0  0  0  0  0  0  0  0
   -2.8018   -2.8680   -1.5183 H   0  0  0  0  0  0  0  0  0  0  0  0
   -3.1604   -3.3576    0.1982 H   0  0  0  0  0  0  0  0  0  0  0  0
   -1.4937   -2.9289   -0.2925 H   0  0  0  0  0  0  0  0  0  0  0  0
   -2.5733    0.6656    2.1310 H   0  0  0  0  0  0  0  0  0  0  0  0
   -0.0990    1.6070    2.3518 H   0  0  0  0  0  0  0  0  0  0  0  0
    1.7139   -0.9339   -1.3469 H   0  0  0  0  0  0  0  0  0  0  0  0
    4.0951   -0.6702   -1.8599 H   0  0  0  0  0  0  0  0  0  0  0  0
    4.4877    2.1632    1.3583 H   0  0  0  0  0  0  0  0  0  0  0  0
    2.1152    1.9124    1.8825 H   0  0  0  0  0  0  0  0  0  0  0  0
    8.0890    0.0193    0.1027 H   0  0  0  0  0  0  0  0  0  0  0  0
    6.9158    0.0905    1.2989 H   0  0  0  0  0  0  0  0  0  0  0  0
   -6.6908    2.7132   -0.6864 H   0  0  0  0  0  0  0  0  0  0  0  0
   -7.3182   -0.9122   -1.3657 H   0  0  0  0  0  0  0  0  0  0  0  0
  1  2  1  0
  2  3  1  0
  3  4  2  0
  4  5  1  0
  5  6  2  0
  6  7  1  0
  6  8  1  0
  8  9  2  0
  9 10  1  0
 10 11  2  0
 11 12  1  0
 12 13  2  0
 11 14  1  0
 14 15  1  0
 14 16  2  0
 14 17  2  0
  2 18  2  0
 18 19  1  0
 19 20  1  0
 20 21  2  3
 20 22  1  0
 22 23  1  0
 23 24  2  0
  7  3  1  0
 13  8  1  0
 23 18  1  0
  1 25  1  0
  1 26  1  0
  1 27  1  0
  4 28  1  0
  5 29  1  0
  9 30  1  0
 10 31  1  0
 12 32  1  0
 13 33  1  0
 15 34  1  0
 15 35  1  0
 21 36  1  0
 22 37  1  0
M  END
$$$$
