
     RDKit          3D

 41 44  0  0  0  0  0  0  0  0999 V2000
   -6.1469   -3.4468   -0.2330 O   0  0  0  0  0  0  0  0  0  0  0  0
   -5.9898   -2.2702    0.4953 C   0  0  0  0  0  0  0  0  0  0  0  0
   -6.9361   -1.8640    1.2229 O   0  0  0  0  0  0  0  0  0  0  0  0
   -4.7253   -1.5062    0.4145 C   0  0  0  0  0  0  0  0  0  0  0  0
   -3.6722   -1.9610   -0.3953 C   0  0  0  0  0  0  0  0  0  0  0  0
   -2.4759   -1.2425   -0.4740 C   0  0  0  0  0  0  0  0  0  0  0  0
   -2.3076   -0.0482    0.2483 C   0  0  0  0  0  0  0  0  0  0  0  0
   -3.3596    0.3997    1.0688 C   0  0  0  0  0  0  0  0  0  0  0  0
   -4.5555   -0.3199    1.1480 C   0  0  0  0  0  0  0  0  0  0  0  0
   -1.0249    0.6954    0.1571 C   0  0  0  0  0  0  0  0  0  0  0  0
    0.1214    0.0100   -0.1110 N   0  0  0  0  0  0  0  0  0  0  0  0
    1.3398    0.6077   -0.2205 C   0  0  0  0  0  0  0  0  0  0  0  0
    2.5181   -0.2405   -0.5187 C   0  0  0  0  0  0  0  0  0  0  0  0
    3.4604    0.1412   -1.4885 C   0  0  0  0  0  0  0  0  0  0  0  0
    4.5519   -0.6812   -1.7724 C   0  0  0  0  0  0  0  0  0  0  0  0
    4.7100   -1.8964   -1.1033 C   0  0  0  0  0  0  0  0  0  0  0  0
    3.7688   -2.3083   -0.1428 C   0  0  0  0  0  0  0  0  0  0  0  0
    2.6714   -1.4740    0.1376 C   0  0  0  0  0  0  0  0  0  0  0  0
    3.9225   -3.5645    0.5434 N   0  0  0  0  0  4  0  0  0  0  0  0
    2.9990   -3.9675    1.4807 O   0  0  0  0  0  1  0  0  0  0  0  0
    4.8951   -4.3087    0.2995 O   0  0  0  0  0  0  0  0  0  0  0  0
    1.4395    2.0003   -0.0284 C   0  0  0  0  0  0  0  0  0  0  0  0
    2.6438    2.6368   -0.0684 N   0  0  0  0  0  0  0  0  0  0  0  0
    2.7552    3.9786    0.1185 C   0  0  0  0  0  0  0  0  0  0  0  0
    1.6171    4.7487    0.3640 C   0  0  0  0  0  0  0  0  0  0  0  0
    0.3686    4.1276    0.4249 C   0  0  0  0  0  0  0  0  0  0  0  0
    0.2688    2.7421    0.2376 C   0  0  0  0  0  0  0  0  0  0  0  0
   -0.9659    2.0894    0.3206 C   0  0  0  0  0  0  0  0  0  0  0  0
   -7.0085   -3.9774   -0.1849 H   0  0  0  0  0  0  0  0  0  0  0  0
   -3.7708   -2.8731   -0.9704 H   0  0  0  0  0  0  0  0  0  0  0  0
   -1.6848   -1.6168   -1.1121 H   0  0  0  0  0  0  0  0  0  0  0  0
   -3.2555    1.2920    1.6714 H   0  0  0  0  0  0  0  0  0  0  0  0
   -5.3450    0.0507    1.7899 H   0  0  0  0  0  0  0  0  0  0  0  0
    3.3419    1.0635   -2.0428 H   0  0  0  0  0  0  0  0  0  0  0  0
    5.2742   -0.3793   -2.5200 H   0  0  0  0  0  0  0  0  0  0  0  0
    5.5641   -2.5169   -1.3421 H   0  0  0  0  0  0  0  0  0  0  0  0
    1.9391   -1.7765    0.8760 H   0  0  0  0  0  0  0  0  0  0  0  0
    3.7288    4.4481    0.0755 H   0  0  0  0  0  0  0  0  0  0  0  0
    1.7030    5.8175    0.5117 H   0  0  0  0  0  0  0  0  0  0  0  0
   -0.5127    4.7251    0.6255 H   0  0  0  0  0  0  0  0  0  0  0  0
   -1.8657    2.6654    0.4971 H   0  0  0  0  0  0  0  0  0  0  0  0
  1  2  1  0
  2  3  2  0
  2  4  1  0
  4  5  2  0
  5  6  1  0
  6  7  2  0
  7  8  1  0
  8  9  2  0
  7 10  1  0
 10 11  2  0
 11 12  1  0
 12 13  1  0
 13 14  2  0
 14 15  1  0
 15 16  2  0
 16 17  1  0
 17 18  2  0
 17 19  1  0
 19 20  1  0
 19 21  2  0
 12 22  2  0
 22 23  1  0
 23 24  2  0
 24 25  1  0
 25 26  2  0
 26 27  1  0
 27 28  2  0
  9  4  1  0
 28 10  1  0
 18 13  1  0
 27 22  1  0
  1 29  1  0
  5 30  1  0
  6 31  1  0
  8 32  1  0
  9 33  1  0
 14 34  1  0
 15 35  1  0
 16 36  1  0
 18 37  1  0
 24 38  1  0
 25 39  1  0
 26 40  1  0
 28 41  1  0
M  CHG  2  19   1  20  -1
M  END
$$$$
