
     RDKit          3D

 56 58  0  0  0  0  0  0  0  0999 V2000
   -1.9341   -4.4810    0.7955 N   0  0  0  0  0  0  0  0  0  0  0  0
   -0.6565   -4.1337    0.4861 C   0  0  0  0  0  0  0  0  0  0  0  0
    0.2620   -4.9929    0.5469 O   0  0  0  0  0  0  0  0  0  0  0  0
   -0.3563   -2.8596    0.1375 N   0  0  0  0  0  0  0  0  0  0  0  0
   -1.3124   -1.8977    0.0465 C   0  0  0  0  0  0  0  0  0  0  0  0
   -0.9856   -0.5972   -0.2281 N   0  0  0  0  0  0  0  0  0  0  0  0
    0.4319   -0.2790   -0.5307 C   0  0  0  0  0  0  0  0  0  0  0  0
    1.2566   -0.0800    0.7650 C   0  0  2  0  0  0  0  0  0  0  0  0
    0.7019    0.9503    1.5428 O   0  0  0  0  0  0  0  0  0  0  0  0
    2.7484    0.2530    0.5023 C   0  0  2  0  0  0  0  0  0  0  0  0
    2.8771    1.5205   -0.0968 O   0  0  0  0  0  0  0  0  0  0  0  0
    3.5132   -0.8442   -0.2986 C   0  0  2  0  0  0  0  0  0  0  0  0
    3.2698   -2.1199    0.2416 O   0  0  0  0  0  0  0  0  0  0  0  0
    5.0292   -0.5801   -0.3401 C   0  0  0  0  0  0  0  0  0  0  0  0
    5.2924    0.5687   -1.1113 O   0  0  0  0  0  0  0  0  0  0  0  0
    6.9652    0.8908   -1.0465 P   0  0  0  0  0  5  0  0  0  0  0  0
    7.8424   -0.4361   -1.6290 O   0  0  0  0  0  0  0  0  0  0  0  0
    7.4261    1.2318    0.5472 O   0  0  0  0  0  0  0  0  0  0  0  0
    7.2632    2.0928   -1.9131 O   0  0  0  0  0  0  0  0  0  0  0  0
   -1.9728    0.3710   -0.1670 C   0  0  0  0  0  0  0  0  0  0  0  0
   -3.3416   -0.0100   -0.0137 C   0  0  0  0  0  0  0  0  0  0  0  0
   -4.3177    0.9992    0.1366 C   0  0  0  0  0  0  0  0  0  0  0  0
   -3.9932    2.3581    0.0635 C   0  0  0  0  0  0  0  0  0  0  0  0
   -5.0841    3.3879    0.2176 C   0  0  0  0  0  0  0  0  0  0  0  0
   -2.6580    2.7379   -0.1591 C   0  0  0  0  0  0  0  0  0  0  0  0
   -2.2621    4.1915   -0.2337 C   0  0  0  0  0  0  0  0  0  0  0  0
   -1.6655    1.7526   -0.2429 C   0  0  0  0  0  0  0  0  0  0  0  0
   -3.6964   -1.3403    0.0322 N   0  0  0  0  0  4  0  0  0  0  0  0
   -2.7214   -2.2754    0.2598 C   0  0  0  0  0  0  0  0  0  0  0  0
   -2.9593   -3.5882    0.7262 C   0  0  0  0  0  0  0  0  0  0  0  0
   -4.0979   -3.9400    1.1349 O   0  0  0  0  0  0  0  0  0  0  0  0
   -5.3175   -1.8418   -0.4337 S   0  0  0  0  0  6  0  0  0  0  0  0
   -5.2720   -3.3404   -1.1953 O   0  0  0  0  0  1  0  0  0  0  0  0
   -6.1987   -1.9158    0.7813 O   0  0  0  0  0  0  0  0  0  0  0  0
   -5.9036   -0.8704   -1.4208 O   0  0  0  0  0  0  0  0  0  0  0  0
   -2.1305   -5.4579    1.1140 H   0  0  0  0  0  0  0  0  0  0  0  0
    0.8736   -1.1083   -1.1227 H   0  0  0  0  0  0  0  0  0  0  0  0
    0.5165    0.5842   -1.2176 H   0  0  0  0  0  0  0  0  0  0  0  0
    1.2268   -1.0306    1.3475 H   0  0  0  0  0  0  0  0  0  0  0  0
   -0.0301    0.5507    2.0820 H   0  0  0  0  0  0  0  0  0  0  0  0
    3.2293    0.3212    1.5034 H   0  0  0  0  0  0  0  0  0  0  0  0
    2.6283    1.4355   -1.0530 H   0  0  0  0  0  0  0  0  0  0  0  0
    3.1502   -0.8521   -1.3488 H   0  0  0  0  0  0  0  0  0  0  0  0
    3.6001   -2.1160    1.1783 H   0  0  0  0  0  0  0  0  0  0  0  0
    5.5170   -1.4670   -0.8040 H   0  0  0  0  0  0  0  0  0  0  0  0
    5.4019   -0.4637    0.7037 H   0  0  0  0  0  0  0  0  0  0  0  0
    8.0029   -1.0058   -0.8349 H   0  0  0  0  0  0  0  0  0  0  0  0
    8.4084    1.3516    0.5065 H   0  0  0  0  0  0  0  0  0  0  0  0
   -5.3409    0.7373    0.3647 H   0  0  0  0  0  0  0  0  0  0  0  0
   -5.2394    3.9148   -0.7470 H   0  0  0  0  0  0  0  0  0  0  0  0
   -6.0487    2.9263    0.5182 H   0  0  0  0  0  0  0  0  0  0  0  0
   -4.8060    4.1249    0.9998 H   0  0  0  0  0  0  0  0  0  0  0  0
   -2.9224    4.7350   -0.9412 H   0  0  0  0  0  0  0  0  0  0  0  0
   -1.2183    4.3154   -0.5930 H   0  0  0  0  0  0  0  0  0  0  0  0
   -2.3427    4.6517    0.7733 H   0  0  0  0  0  0  0  0  0  0  0  0
   -0.6486    2.0979   -0.3323 H   0  0  0  0  0  0  0  0  0  0  0  0
  1  2  1  0
  2  3  2  0
  2  4  1  0
  4  5  2  0
  5  6  1  0
  6  7  1  0
  7  8  1  0
  8  9  1  0
  8 10  1  0
 10 11  1  0
 10 12  1  0
 12 13  1  0
 12 14  1  0
 14 15  1  0
 15 16  1  0
 16 17  1  0
 16 18  1  0
 16 19  2  0
  6 20  1  0
 20 21  2  0
 21 22  1  0
 22 23  2  0
 23 24  1  0
 23 25  1  0
 25 26  1  0
 25 27  2  0
 21 28  1  0
 28 29  2  0
 29 30  1  0
 30 31  2  0
 28 32  1  0
 32 33  1  0
 32 34  2  0
 32 35  2  0
 30  1  1  0
 29  5  1  0
 27 20  1  0
  1 36  1  0
  7 37  1  0
  7 38  1  0
  8 39  1  1
  9 40  1  0
 10 41  1  1
 11 42  1  0
 12 43  1  6
 13 44  1  0
 14 45  1  0
 14 46  1  0
 17 47  1  0
 18 48  1  0
 22 49  1  0
 24 50  1  0
 24 51  1  0
 24 52  1  0
 26 53  1  0
 26 54  1  0
 26 55  1  0
 27 56  1  0
M  CHG  2  28   1  33  -1
M  END
$$$$
