
     RDKit          3D

 37 38  0  0  0  0  0  0  0  0999 V2000
   -4.7420    1.5695   -0.6033 C   0  0  0  0  0  0  0  0  0  0  0  0
   -4.2495    0.1244   -0.4137 C   0  0  0  0  0  0  0  0  0  0  0  0
   -5.0700   -0.6104    0.6505 C   0  0  0  0  0  0  0  0  0  0  0  0
   -2.7523    0.0327   -0.1080 C   0  0  0  0  0  0  0  0  0  0  0  0
   -1.9136   -0.8753   -0.8119 C   0  0  0  0  0  0  0  0  0  0  0  0
   -2.4076   -1.8333   -1.7024 O   0  0  0  0  0  0  0  0  0  0  0  0
   -0.5298   -0.8569   -0.6069 C   0  0  0  0  0  0  0  0  0  0  0  0
    0.0521    0.0016    0.3382 C   0  0  0  0  0  0  0  0  0  0  0  0
    1.5133    0.0299    0.5963 C   0  0  0  0  0  0  0  0  0  0  0  0
    2.4332   -0.3368   -0.3103 C   0  0  0  0  0  0  0  0  0  0  0  0
    3.8954   -0.3092   -0.0579 C   0  0  0  0  0  0  0  0  0  0  0  0
    4.4826    0.5147    0.9254 C   0  0  0  0  0  0  0  0  0  0  0  0
    5.8683    0.5111    1.1147 C   0  0  0  0  0  0  0  0  0  0  0  0
    6.6830   -0.3023    0.3246 C   0  0  0  0  0  0  0  0  0  0  0  0
    6.1147   -1.1095   -0.6627 C   0  0  0  0  0  0  0  0  0  0  0  0
    4.7302   -1.1097   -0.8573 C   0  0  0  0  0  0  0  0  0  0  0  0
   -0.7821    0.8133    1.1128 C   0  0  0  0  0  0  0  0  0  0  0  0
   -2.1674    0.8310    0.9071 C   0  0  0  0  0  0  0  0  0  0  0  0
   -2.9579    1.6380    1.7244 O   0  0  0  0  0  0  0  0  0  0  0  0
   -4.0238    2.1441   -1.2265 H   0  0  0  0  0  0  0  0  0  0  0  0
   -4.8921    2.0927    0.3623 H   0  0  0  0  0  0  0  0  0  0  0  0
   -5.7226    1.5646   -1.1263 H   0  0  0  0  0  0  0  0  0  0  0  0
   -4.4659   -0.3545   -1.3875 H   0  0  0  0  0  0  0  0  0  0  0  0
   -4.9460   -0.1355    1.6465 H   0  0  0  0  0  0  0  0  0  0  0  0
   -4.7436   -1.6703    0.7163 H   0  0  0  0  0  0  0  0  0  0  0  0
   -6.1475   -0.5944    0.3803 H   0  0  0  0  0  0  0  0  0  0  0  0
   -3.3773   -2.1112   -1.7581 H   0  0  0  0  0  0  0  0  0  0  0  0
    0.0766   -1.5624   -1.1587 H   0  0  0  0  0  0  0  0  0  0  0  0
    1.8294    0.3872    1.5667 H   0  0  0  0  0  0  0  0  0  0  0  0
    2.1139   -0.6907   -1.2815 H   0  0  0  0  0  0  0  0  0  0  0  0
    3.8870    1.1813    1.5329 H   0  0  0  0  0  0  0  0  0  0  0  0
    6.3119    1.1464    1.8705 H   0  0  0  0  0  0  0  0  0  0  0  0
    7.7552   -0.3019    0.4727 H   0  0  0  0  0  0  0  0  0  0  0  0
    6.7473   -1.7352   -1.2790 H   0  0  0  0  0  0  0  0  0  0  0  0
    4.3087   -1.7435   -1.6282 H   0  0  0  0  0  0  0  0  0  0  0  0
   -0.3535    1.4477    1.8799 H   0  0  0  0  0  0  0  0  0  0  0  0
   -2.5583    2.2127    2.4572 H   0  0  0  0  0  0  0  0  0  0  0  0
  1  2  1  0
  2  3  1  0
  2  4  1  0
  4  5  2  0
  5  6  1  0
  5  7  1  0
  7  8  2  0
  8  9  1  0
  9 10  2  0
 10 11  1  0
 11 12  2  0
 12 13  1  0
 13 14  2  0
 14 15  1  0
 15 16  2  0
  8 17  1  0
 17 18  2  0
 18 19  1  0
 18  4  1  0
 16 11  1  0
  1 20  1  0
  1 21  1  0
  1 22  1  0
  2 23  1  0
  3 24  1  0
  3 25  1  0
  3 26  1  0
  6 27  1  0
  7 28  1  0
  9 29  1  0
 10 30  1  0
 12 31  1  0
 13 32  1  0
 14 33  1  0
 15 34  1  0
 16 35  1  0
 17 36  1  0
 19 37  1  0
M  END
$$$$
