
     RDKit          3D

 32 33  0  0  0  0  0  0  0  0999 V2000
   -0.0630   -0.4650   -1.0369 C   0  0  2  0  0  0  0  0  0  0  0  0
    0.4592   -0.8555    0.3590 C   0  0  0  0  0  0  0  0  0  0  0  0
    1.9081   -0.4784    0.5353 C   0  0  0  0  0  0  0  0  0  0  0  0
    2.9221   -1.4287    0.3275 C   0  0  0  0  0  0  0  0  0  0  0  0
    4.2657   -1.0656    0.4630 C   0  0  0  0  0  0  0  0  0  0  0  0
    4.6061    0.2473    0.8002 C   0  0  0  0  0  0  0  0  0  0  0  0
    3.6035    1.2003    0.9996 C   0  0  0  0  0  0  0  0  0  0  0  0
    2.2587    0.8416    0.8648 C   0  0  0  0  0  0  0  0  0  0  0  0
   -1.4765   -0.6645   -1.1066 O   0  0  0  0  0  0  0  0  0  0  0  0
   -2.4523    0.1615   -0.5235 C   0  0  0  0  0  0  0  0  0  0  0  0
   -2.1393    1.3653    0.1408 C   0  0  0  0  0  0  0  0  0  0  0  0
   -3.1560    2.1458    0.7002 C   0  0  0  0  0  0  0  0  0  0  0  0
   -4.4897    1.7384    0.6015 C   0  0  0  0  0  0  0  0  0  0  0  0
   -5.7626    2.7198    1.3041 Cl  0  0  0  0  0  0  0  0  0  0  0  0
   -4.8070    0.5479   -0.0589 C   0  0  0  0  0  0  0  0  0  0  0  0
   -3.7926   -0.2345   -0.6186 C   0  0  0  0  0  0  0  0  0  0  0  0
    0.5857   -1.3121   -2.0921 C   0  0  0  0  0  0  0  0  0  0  0  0
    0.2245   -2.6492   -2.2300 O   0  0  0  0  0  0  0  0  0  0  0  0
    1.4792   -0.8233   -2.8344 O   0  0  0  0  0  0  0  0  0  0  0  0
    0.1718    0.6004   -1.2547 H   0  0  0  0  0  0  0  0  0  0  0  0
   -0.1390   -0.3453    1.1432 H   0  0  0  0  0  0  0  0  0  0  0  0
    0.3186   -1.9468    0.5242 H   0  0  0  0  0  0  0  0  0  0  0  0
    2.6727   -2.4474    0.0574 H   0  0  0  0  0  0  0  0  0  0  0  0
    5.0432   -1.8016    0.3037 H   0  0  0  0  0  0  0  0  0  0  0  0
    5.6466    0.5268    0.9037 H   0  0  0  0  0  0  0  0  0  0  0  0
    3.8684    2.2179    1.2560 H   0  0  0  0  0  0  0  0  0  0  0  0
    1.4912    1.5909    1.0145 H   0  0  0  0  0  0  0  0  0  0  0  0
   -1.1196    1.7100    0.2334 H   0  0  0  0  0  0  0  0  0  0  0  0
   -2.9056    3.0677    1.2097 H   0  0  0  0  0  0  0  0  0  0  0  0
   -5.8381    0.2278   -0.1394 H   0  0  0  0  0  0  0  0  0  0  0  0
   -4.0484   -1.1549   -1.1281 H   0  0  0  0  0  0  0  0  0  0  0  0
    0.6644   -3.2366   -2.9282 H   0  0  0  0  0  0  0  0  0  0  0  0
  1  2  1  0
  2  3  1  0
  3  4  2  0
  4  5  1  0
  5  6  2  0
  6  7  1  0
  7  8  2  0
  1  9  1  0
  9 10  1  0
 10 11  2  0
 11 12  1  0
 12 13  2  0
 13 14  1  0
 13 15  1  0
 15 16  2  0
  1 17  1  0
 17 18  1  0
 17 19  2  0
  8  3  1  0
 16 10  1  0
  1 20  1  6
  2 21  1  0
  2 22  1  0
  4 23  1  0
  5 24  1  0
  6 25  1  0
  7 26  1  0
  8 27  1  0
 11 28  1  0
 12 29  1  0
 15 30  1  0
 16 31  1  0
 18 32  1  0
M  END
$$$$
