
     RDKit          3D

 38 39  0  0  0  0  0  0  0  0999 V2000
    5.3767   -0.4636    0.2357 C   0  0  0  0  0  0  0  0  0  0  0  0
    4.3062   -0.0196   -0.7632 C   0  0  0  0  0  0  0  0  0  0  0  0
    4.4315   -0.8263   -2.0671 C   0  0  0  0  0  0  0  0  0  0  0  0
    2.9781   -0.1782   -0.1420 N   0  0  0  0  0  0  0  0  0  0  0  0
    1.9375    0.5918   -0.8377 C   0  0  0  0  0  0  0  0  0  0  0  0
    0.6497    0.6119    0.0026 C   0  0  0  0  0  0  0  0  0  0  0  0
    0.8933    1.1572    1.2759 O   0  0  0  0  0  0  0  0  0  0  0  0
   -0.4676    1.3909   -0.7142 C   0  0  0  0  0  0  0  0  0  0  0  0
   -1.6600    1.4038    0.0706 O   0  0  0  0  0  0  0  0  0  0  0  0
   -2.5401    0.3209    0.2279 C   0  0  0  0  0  0  0  0  0  0  0  0
   -2.4173   -0.8972   -0.4861 C   0  0  0  0  0  0  0  0  0  0  0  0
   -3.3406   -1.9460   -0.2792 C   0  0  0  0  0  0  0  0  0  0  0  0
   -4.3974   -1.7981    0.6355 C   0  0  0  0  0  0  0  0  0  0  0  0
   -4.4989   -0.5904    1.3216 C   0  0  0  0  0  0  0  0  0  0  0  0
   -3.6051    0.4293    1.1238 C   0  0  0  0  0  0  0  0  0  0  0  0
   -3.9833    1.4688    1.9476 C   0  0  0  0  0  0  0  0  0  0  0  0
   -5.1142    1.0128    2.6167 C   0  0  0  0  0  0  0  0  0  0  0  0
   -5.4252   -0.2455    2.2309 N   0  0  0  0  0  0  0  0  0  0  0  0
    5.2917    0.1329    1.1691 H   0  0  0  0  0  0  0  0  0  0  0  0
    6.3912   -0.3048   -0.1885 H   0  0  0  0  0  0  0  0  0  0  0  0
    5.2538   -1.5390    0.4873 H   0  0  0  0  0  0  0  0  0  0  0  0
    4.4988    1.0534   -0.9901 H   0  0  0  0  0  0  0  0  0  0  0  0
    5.4591   -0.7302   -2.4784 H   0  0  0  0  0  0  0  0  0  0  0  0
    4.2195   -1.9019   -1.8872 H   0  0  0  0  0  0  0  0  0  0  0  0
    3.7277   -0.4421   -2.8335 H   0  0  0  0  0  0  0  0  0  0  0  0
    2.7082   -1.1907   -0.1406 H   0  0  0  0  0  0  0  0  0  0  0  0
    2.2751    1.6393   -1.0041 H   0  0  0  0  0  0  0  0  0  0  0  0
    1.7161    0.1298   -1.8250 H   0  0  0  0  0  0  0  0  0  0  0  0
    0.3154   -0.4381    0.1407 H   0  0  0  0  0  0  0  0  0  0  0  0
    1.2029    2.0923    1.1487 H   0  0  0  0  0  0  0  0  0  0  0  0
   -0.1414    2.4423   -0.8632 H   0  0  0  0  0  0  0  0  0  0  0  0
   -0.6706    0.9684   -1.7215 H   0  0  0  0  0  0  0  0  0  0  0  0
   -1.6221   -1.0482   -1.2019 H   0  0  0  0  0  0  0  0  0  0  0  0
   -3.2347   -2.8713   -0.8304 H   0  0  0  0  0  0  0  0  0  0  0  0
   -5.1089   -2.5972    0.7994 H   0  0  0  0  0  0  0  0  0  0  0  0
   -3.5044    2.4332    2.0539 H   0  0  0  0  0  0  0  0  0  0  0  0
   -5.6781    1.5760    3.3486 H   0  0  0  0  0  0  0  0  0  0  0  0
   -6.2226   -0.8265    2.5729 H   0  0  0  0  0  0  0  0  0  0  0  0
  1  2  1  0
  2  3  1  0
  2  4  1  0
  4  5  1  0
  5  6  1  0
  6  7  1  0
  6  8  1  0
  8  9  1  0
  9 10  1  0
 10 11  2  0
 11 12  1  0
 12 13  2  0
 13 14  1  0
 14 15  2  0
 15 16  1  0
 16 17  2  0
 17 18  1  0
 15 10  1  0
 18 14  1  0
  1 19  1  0
  1 20  1  0
  1 21  1  0
  2 22  1  0
  3 23  1  0
  3 24  1  0
  3 25  1  0
  4 26  1  0
  5 27  1  0
  5 28  1  0
  6 29  1  0
  7 30  1  0
  8 31  1  0
  8 32  1  0
 11 33  1  0
 12 34  1  0
 13 35  1  0
 16 36  1  0
 17 37  1  0
 18 38  1  0
M  END
$$$$
