
     RDKit          3D

 36 37  0  0  0  0  0  0  0  0999 V2000
    3.0831    2.4999    0.1194 O   0  0  0  0  0  0  0  0  0  0  0  0
    3.5436    2.2253   -1.1742 C   0  0  0  0  0  0  0  0  0  0  0  0
    3.9025    0.7476   -1.2966 C   0  0  0  0  0  0  0  0  0  0  0  0
    2.7378   -0.0449   -1.1510 O   0  0  0  0  0  0  0  0  0  0  0  0
    2.7673   -0.7652    0.0635 C   0  0  0  0  0  0  0  0  0  0  0  0
    1.4817   -1.4534    0.2426 N   0  0  0  0  0  0  0  0  0  0  0  0
    0.4894   -0.8338    0.9471 C   0  0  0  0  0  0  0  0  0  0  0  0
   -0.7616   -1.4397    1.1077 C   0  0  0  0  0  0  0  0  0  0  0  0
   -1.8573   -0.7239    1.8585 C   0  0  0  0  0  0  0  0  0  0  0  0
   -2.6351    0.1648    0.9254 C   0  0  0  0  0  0  0  0  0  0  0  0
   -2.1881    1.4690    0.6527 C   0  0  0  0  0  0  0  0  0  0  0  0
   -2.8907    2.2820   -0.2420 C   0  0  0  0  0  0  0  0  0  0  0  0
   -4.0387    1.7979   -0.8752 C   0  0  0  0  0  0  0  0  0  0  0  0
   -4.4845    0.4989   -0.6166 C   0  0  0  0  0  0  0  0  0  0  0  0
   -3.7846   -0.3178    0.2771 C   0  0  0  0  0  0  0  0  0  0  0  0
   -0.9721   -2.6841    0.4967 C   0  0  0  0  0  0  0  0  0  0  0  0
   -2.0859   -3.2670    0.5959 O   0  0  0  0  0  0  0  0  0  0  0  0
    0.0293   -3.2674   -0.2129 N   0  0  0  0  0  0  0  0  0  0  0  0
    1.2414   -2.6647   -0.3516 C   0  0  0  0  0  0  0  0  0  0  0  0
    2.1368   -3.2313   -1.0371 O   0  0  0  0  0  0  0  0  0  0  0  0
    2.8559    3.4659    0.1310 H   0  0  0  0  0  0  0  0  0  0  0  0
    4.4480    2.8376   -1.3875 H   0  0  0  0  0  0  0  0  0  0  0  0
    2.7557    2.4769   -1.9191 H   0  0  0  0  0  0  0  0  0  0  0  0
    4.7252    0.5020   -0.5820 H   0  0  0  0  0  0  0  0  0  0  0  0
    4.3097    0.5734   -2.3151 H   0  0  0  0  0  0  0  0  0  0  0  0
    3.5970   -1.5086    0.0509 H   0  0  0  0  0  0  0  0  0  0  0  0
    2.9537   -0.0846    0.9275 H   0  0  0  0  0  0  0  0  0  0  0  0
    0.6637    0.1421    1.3867 H   0  0  0  0  0  0  0  0  0  0  0  0
   -1.4196   -0.1160    2.6807 H   0  0  0  0  0  0  0  0  0  0  0  0
   -2.5353   -1.4557    2.3494 H   0  0  0  0  0  0  0  0  0  0  0  0
   -1.2962    1.8545    1.1309 H   0  0  0  0  0  0  0  0  0  0  0  0
   -2.5435    3.2865   -0.4466 H   0  0  0  0  0  0  0  0  0  0  0  0
   -4.5808    2.4281   -1.5682 H   0  0  0  0  0  0  0  0  0  0  0  0
   -5.3711    0.1235   -1.1110 H   0  0  0  0  0  0  0  0  0  0  0  0
   -4.1382   -1.3241    0.4630 H   0  0  0  0  0  0  0  0  0  0  0  0
   -0.1382   -4.1936   -0.6693 H   0  0  0  0  0  0  0  0  0  0  0  0
  1  2  1  0
  2  3  1  0
  3  4  1  0
  4  5  1  0
  5  6  1  0
  6  7  1  0
  7  8  2  0
  8  9  1  0
  9 10  1  0
 10 11  2  0
 11 12  1  0
 12 13  2  0
 13 14  1  0
 14 15  2  0
  8 16  1  0
 16 17  2  0
 16 18  1  0
 18 19  1  0
 19 20  2  0
 19  6  1  0
 15 10  1  0
  1 21  1  0
  2 22  1  0
  2 23  1  0
  3 24  1  0
  3 25  1  0
  5 26  1  0
  5 27  1  0
  7 28  1  0
  9 29  1  0
  9 30  1  0
 11 31  1  0
 12 32  1  0
 13 33  1  0
 14 34  1  0
 15 35  1  0
 18 36  1  0
M  END
$$$$
