
     RDKit          3D

 51 52  0  0  0  0  0  0  0  0999 V2000
    7.2879    2.8213   -0.2528 C   0  0  0  0  0  0  0  0  0  0  0  0
    8.0138    1.4302    0.6686 S   0  0  0  0  0  0  0  0  0  0  0  0
    6.6453    0.3261    0.3144 C   0  0  0  0  0  0  0  0  0  0  0  0
    6.6757   -0.4854   -0.8245 C   0  0  0  0  0  0  0  0  0  0  0  0
    5.6107   -1.3481   -1.1005 C   0  0  0  0  0  0  0  0  0  0  0  0
    4.4974   -1.4016   -0.2439 C   0  0  0  0  0  0  0  0  0  0  0  0
    4.4859   -0.5986    0.9115 C   0  0  0  0  0  0  0  0  0  0  0  0
    5.5524    0.2627    1.1850 C   0  0  0  0  0  0  0  0  0  0  0  0
    3.3819   -2.3333   -0.5383 C   0  0  0  0  0  0  0  0  0  0  0  0
    3.6422   -3.4477   -1.0665 O   0  0  0  0  0  0  0  0  0  0  0  0
    1.9705   -2.0256   -0.2255 C   0  0  0  0  0  0  0  0  0  0  0  0
    1.4941   -0.7728   -0.1883 C   0  0  0  0  0  0  0  0  0  0  0  0
    0.0743   -0.4450    0.0876 C   0  0  0  0  0  0  0  0  0  0  0  0
   -0.7655   -1.3032    0.8169 C   0  0  0  0  0  0  0  0  0  0  0  0
   -2.1020   -0.9591    1.0679 C   0  0  0  0  0  0  0  0  0  0  0  0
   -2.9274   -1.8749    1.9292 C   0  0  0  0  0  0  0  0  0  0  0  0
   -2.6300    0.2374    0.5330 C   0  0  0  0  0  0  0  0  0  0  0  0
   -3.9943    0.5435    0.6854 O   0  0  0  0  0  0  0  0  0  0  0  0
   -5.0347    0.1961   -0.2526 C   0  0  0  0  0  0  0  0  0  0  0  0
   -4.7793    0.8483   -1.6223 C   0  0  0  0  0  0  0  0  0  0  0  0
   -5.1334   -1.3295   -0.4239 C   0  0  0  0  0  0  0  0  0  0  0  0
   -6.3509    0.7054    0.2839 C   0  0  0  0  0  0  0  0  0  0  0  0
   -7.5247    0.5001   -0.4375 O   0  0  0  0  0  0  0  0  0  0  0  0
   -6.3984    1.3180    1.3851 O   0  0  0  0  0  0  0  0  0  0  0  0
   -1.7572    1.1566   -0.0910 C   0  0  0  0  0  0  0  0  0  0  0  0
   -2.2098    2.5322   -0.4959 C   0  0  0  0  0  0  0  0  0  0  0  0
   -0.4240    0.7950   -0.3313 C   0  0  0  0  0  0  0  0  0  0  0  0
    6.3092    3.1021    0.1895 H   0  0  0  0  0  0  0  0  0  0  0  0
    7.1512    2.5426   -1.3187 H   0  0  0  0  0  0  0  0  0  0  0  0
    7.9725    3.6920   -0.1937 H   0  0  0  0  0  0  0  0  0  0  0  0
    7.5226   -0.4471   -1.4978 H   0  0  0  0  0  0  0  0  0  0  0  0
    5.6504   -1.9653   -1.9897 H   0  0  0  0  0  0  0  0  0  0  0  0
    3.6601   -0.6473    1.6100 H   0  0  0  0  0  0  0  0  0  0  0  0
    5.5293    0.8780    2.0755 H   0  0  0  0  0  0  0  0  0  0  0  0
    1.2965   -2.8654   -0.1204 H   0  0  0  0  0  0  0  0  0  0  0  0
    2.1577    0.0488   -0.4307 H   0  0  0  0  0  0  0  0  0  0  0  0
   -0.3789   -2.2264    1.2291 H   0  0  0  0  0  0  0  0  0  0  0  0
   -3.2418   -2.7612    1.3404 H   0  0  0  0  0  0  0  0  0  0  0  0
   -3.8215   -1.3588    2.3363 H   0  0  0  0  0  0  0  0  0  0  0  0
   -2.3272   -2.2237    2.7964 H   0  0  0  0  0  0  0  0  0  0  0  0
   -3.8055    0.5157   -2.0393 H   0  0  0  0  0  0  0  0  0  0  0  0
   -4.7824    1.9546   -1.5334 H   0  0  0  0  0  0  0  0  0  0  0  0
   -5.5723    0.5653   -2.3482 H   0  0  0  0  0  0  0  0  0  0  0  0
   -4.1732   -1.7454   -0.7951 H   0  0  0  0  0  0  0  0  0  0  0  0
   -5.9233   -1.5937   -1.1601 H   0  0  0  0  0  0  0  0  0  0  0  0
   -5.3953   -1.8134    0.5400 H   0  0  0  0  0  0  0  0  0  0  0  0
   -8.4145    0.8363   -0.0893 H   0  0  0  0  0  0  0  0  0  0  0  0
   -3.1386    2.8297    0.0336 H   0  0  0  0  0  0  0  0  0  0  0  0
   -2.3762    2.5649   -1.5924 H   0  0  0  0  0  0  0  0  0  0  0  0
   -1.4303    3.2798   -0.2363 H   0  0  0  0  0  0  0  0  0  0  0  0
    0.2312    1.4898   -0.8449 H   0  0  0  0  0  0  0  0  0  0  0  0
  1  2  1  0
  2  3  1  0
  3  4  2  0
  4  5  1  0
  5  6  2  0
  6  7  1  0
  7  8  2  0
  6  9  1  0
  9 10  2  0
  9 11  1  0
 11 12  2  0
 12 13  1  0
 13 14  2  0
 14 15  1  0
 15 16  1  0
 15 17  2  0
 17 18  1  0
 18 19  1  0
 19 20  1  0
 19 21  1  0
 19 22  1  0
 22 23  1  0
 22 24  2  0
 17 25  1  0
 25 26  1  0
 25 27  2  0
  8  3  1  0
 27 13  1  0
  1 28  1  0
  1 29  1  0
  1 30  1  0
  4 31  1  0
  5 32  1  0
  7 33  1  0
  8 34  1  0
 11 35  1  0
 12 36  1  0
 14 37  1  0
 16 38  1  0
 16 39  1  0
 16 40  1  0
 20 41  1  0
 20 42  1  0
 20 43  1  0
 21 44  1  0
 21 45  1  0
 21 46  1  0
 23 47  1  0
 26 48  1  0
 26 49  1  0
 26 50  1  0
 27 51  1  0
M  END
$$$$
