
     RDKit          3D

 46 49  0  0  0  0  0  0  0  0999 V2000
    0.2621   -0.5456    0.3381 C   0  0  2  0  0  0  0  0  0  0  0  0
   -0.3054   -1.9811    0.2169 C   0  0  0  0  0  0  0  0  0  0  0  0
   -1.7226   -2.0863    0.7710 C   0  0  0  0  0  0  0  0  0  0  0  0
   -2.6104   -1.0847    0.0877 C   0  0  0  0  0  0  0  0  0  0  0  0
   -3.7380   -1.5049   -0.5091 C   0  0  0  0  0  0  0  0  0  0  0  0
   -4.5920   -0.5727   -1.2412 C   0  0  0  0  0  0  0  0  0  0  0  0
   -5.6579   -0.9750   -1.7772 O   0  0  0  0  0  0  0  0  0  0  0  0
   -4.1903    0.8248   -1.3624 C   0  0  0  0  0  0  0  0  0  0  0  0
   -3.0795    1.2650   -0.7703 C   0  0  0  0  0  0  0  0  0  0  0  0
   -2.1883    0.3916    0.1197 C   0  0  1  0  0  0  0  0  0  0  0  0
   -2.3611    0.9125    1.5656 C   0  0  0  0  0  0  0  0  0  0  0  0
   -0.6915    0.4795   -0.3736 C   0  0  1  0  0  0  0  0  0  0  0  0
   -0.1008    1.9129   -0.2930 C   0  0  0  0  0  0  0  0  0  0  0  0
    1.3185    1.9783   -0.8691 C   0  0  0  0  0  0  0  0  0  0  0  0
    2.2810    0.9999   -0.1706 C   0  0  2  0  0  0  0  0  0  0  0  0
    2.5477    1.4642    1.2853 C   0  0  0  0  0  0  0  0  0  0  0  0
    3.5292    1.0514   -0.8624 O   0  0  0  0  0  0  0  0  0  0  0  0
    4.4743    0.0235   -0.7960 C   0  0  0  0  0  0  0  0  0  0  0  0
    5.6564    0.2521   -1.1632 O   0  0  0  0  0  0  0  0  0  0  0  0
    4.0811   -1.3741   -0.4079 C   0  0  0  0  0  0  0  0  0  0  0  0
    2.7202   -1.4560    0.3051 C   0  0  0  0  0  0  0  0  0  0  0  0
    1.7003   -0.4455   -0.2735 C   0  0  1  0  0  0  0  0  0  0  0  0
    0.3207   -0.3118    1.4201 H   0  0  0  0  0  0  0  0  0  0  0  0
   -0.2965   -2.3070   -0.8470 H   0  0  0  0  0  0  0  0  0  0  0  0
    0.3085   -2.6914    0.8066 H   0  0  0  0  0  0  0  0  0  0  0  0
   -2.0834   -3.1282    0.6223 H   0  0  0  0  0  0  0  0  0  0  0  0
   -1.7169   -1.8963    1.8652 H   0  0  0  0  0  0  0  0  0  0  0  0
   -4.0190   -2.5514   -0.4859 H   0  0  0  0  0  0  0  0  0  0  0  0
   -4.8045    1.5115   -1.9321 H   0  0  0  0  0  0  0  0  0  0  0  0
   -2.8724    2.3229   -0.8522 H   0  0  0  0  0  0  0  0  0  0  0  0
   -3.3944    0.7105    1.9232 H   0  0  0  0  0  0  0  0  0  0  0  0
   -1.6571    0.4286    2.2711 H   0  0  0  0  0  0  0  0  0  0  0  0
   -2.2030    2.0103    1.6222 H   0  0  0  0  0  0  0  0  0  0  0  0
   -0.7057    0.2053   -1.4546 H   0  0  0  0  0  0  0  0  0  0  0  0
   -0.0910    2.2779    0.7536 H   0  0  0  0  0  0  0  0  0  0  0  0
   -0.7124    2.6222   -0.8837 H   0  0  0  0  0  0  0  0  0  0  0  0
    1.7013    3.0189   -0.7805 H   0  0  0  0  0  0  0  0  0  0  0  0
    1.2767    1.7419   -1.9558 H   0  0  0  0  0  0  0  0  0  0  0  0
    2.8696    2.5274    1.2902 H   0  0  0  0  0  0  0  0  0  0  0  0
    1.6573    1.3779    1.9365 H   0  0  0  0  0  0  0  0  0  0  0  0
    3.3718    0.8820    1.7456 H   0  0  0  0  0  0  0  0  0  0  0  0
    4.8643   -1.8128    0.2472 H   0  0  0  0  0  0  0  0  0  0  0  0
    4.0369   -1.9818   -1.3377 H   0  0  0  0  0  0  0  0  0  0  0  0
    2.3639   -2.4959    0.1665 H   0  0  0  0  0  0  0  0  0  0  0  0
    2.8468   -1.3010    1.3970 H   0  0  0  0  0  0  0  0  0  0  0  0
    1.6052   -0.6894   -1.3574 H   0  0  0  0  0  0  0  0  0  0  0  0
  1  2  1  0
  2  3  1  0
  3  4  1  0
  4  5  2  0
  5  6  1  0
  6  7  2  0
  6  8  1  0
  8  9  2  0
  9 10  1  0
 10 11  1  1
 10 12  1  0
 12 13  1  0
 13 14  1  0
 14 15  1  0
 15 16  1  1
 15 17  1  0
 17 18  1  0
 18 19  2  0
 18 20  1  0
 20 21  1  0
 21 22  1  0
 12  1  1  0
 22 15  1  0
 22  1  1  0
 10  4  1  0
  1 23  1  1
  2 24  1  0
  2 25  1  0
  3 26  1  0
  3 27  1  0
  5 28  1  0
  8 29  1  0
  9 30  1  0
 11 31  1  0
 11 32  1  0
 11 33  1  0
 12 34  1  6
 13 35  1  0
 13 36  1  0
 14 37  1  0
 14 38  1  0
 16 39  1  0
 16 40  1  0
 16 41  1  0
 20 42  1  0
 20 43  1  0
 21 44  1  0
 21 45  1  0
 22 46  1  6
M  END
$$$$
