
     RDKit          3D

 44 45  0  0  0  0  0  0  0  0999 V2000
   -4.2550   -2.4156   -2.0516 C   0  0  0  0  0  0  0  0  0  0  0  0
   -3.8923   -1.4118   -0.9618 C   0  0  0  0  0  0  0  0  0  0  0  0
   -2.8152   -1.9718   -0.0288 C   0  0  0  0  0  0  0  0  0  0  0  0
   -2.4722   -0.9869    0.9974 N   0  0  0  0  0  0  0  0  0  0  0  0
   -3.0077   -0.9053    2.2406 C   0  0  0  0  0  0  0  0  0  0  0  0
   -2.5491    0.1551    2.9537 N   0  0  0  0  0  0  0  0  0  0  0  0
   -1.6979    0.7493    2.0938 C   0  0  0  0  0  0  0  0  0  0  0  0
   -1.6531    0.0787    0.9194 C   0  0  0  0  0  0  0  0  0  0  0  0
   -0.8606    0.5427   -0.1243 C   0  0  0  0  0  0  0  0  0  0  0  0
   -0.8150   -0.0800   -1.2201 O   0  0  0  0  0  0  0  0  0  0  0  0
   -0.1301    1.6946    0.0722 N   0  0  0  0  0  0  0  0  0  0  0  0
    0.7402    2.2147   -1.0038 C   0  0  0  0  0  0  0  0  0  0  0  0
    2.2100    1.8306   -0.7752 C   0  0  0  0  0  0  0  0  0  0  0  0
    2.4356    0.3149   -0.8553 C   0  0  0  0  0  0  0  0  0  0  0  0
    3.9263   -0.0284   -0.7201 C   0  0  0  0  0  0  0  0  0  0  0  0
    4.1986   -1.5130   -0.7761 C   0  0  0  0  0  0  0  0  0  0  0  0
    5.5986   -2.0238   -0.6221 C   0  0  0  0  0  0  0  0  0  0  0  0
    3.2911   -2.3129   -0.9532 O   0  0  0  0  0  0  0  0  0  0  0  0
   -0.1934    2.3601    1.2867 C   0  0  0  0  0  0  0  0  0  0  0  0
    0.4667    3.4248    1.4534 O   0  0  0  0  0  0  0  0  0  0  0  0
   -0.9719    1.8779    2.3163 N   0  0  0  0  0  0  0  0  0  0  0  0
   -1.0749    2.5992    3.5920 C   0  0  0  0  0  0  0  0  0  0  0  0
   -4.6469   -3.3515   -1.5994 H   0  0  0  0  0  0  0  0  0  0  0  0
   -3.3630   -2.6518   -2.6702 H   0  0  0  0  0  0  0  0  0  0  0  0
   -5.0387   -1.9834   -2.7089 H   0  0  0  0  0  0  0  0  0  0  0  0
   -4.8032   -1.1709   -0.3719 H   0  0  0  0  0  0  0  0  0  0  0  0
   -3.5282   -0.4766   -1.4388 H   0  0  0  0  0  0  0  0  0  0  0  0
   -1.9075   -2.2521   -0.6040 H   0  0  0  0  0  0  0  0  0  0  0  0
   -3.1933   -2.8973    0.4588 H   0  0  0  0  0  0  0  0  0  0  0  0
   -3.7358   -1.6070    2.6270 H   0  0  0  0  0  0  0  0  0  0  0  0
    0.4118    1.8578   -2.0044 H   0  0  0  0  0  0  0  0  0  0  0  0
    0.6612    3.3230   -1.0501 H   0  0  0  0  0  0  0  0  0  0  0  0
    2.8247    2.3326   -1.5541 H   0  0  0  0  0  0  0  0  0  0  0  0
    2.5452    2.2064    0.2157 H   0  0  0  0  0  0  0  0  0  0  0  0
    2.0591   -0.0624   -1.8317 H   0  0  0  0  0  0  0  0  0  0  0  0
    1.8754   -0.1853   -0.0356 H   0  0  0  0  0  0  0  0  0  0  0  0
    4.3049    0.3627    0.2493 H   0  0  0  0  0  0  0  0  0  0  0  0
    4.4930    0.4641   -1.5398 H   0  0  0  0  0  0  0  0  0  0  0  0
    5.6539   -2.6991    0.2572 H   0  0  0  0  0  0  0  0  0  0  0  0
    6.3122   -1.1856   -0.4743 H   0  0  0  0  0  0  0  0  0  0  0  0
    5.8922   -2.5860   -1.5332 H   0  0  0  0  0  0  0  0  0  0  0  0
   -0.0866    3.0100    3.8900 H   0  0  0  0  0  0  0  0  0  0  0  0
   -1.8020    3.4321    3.4903 H   0  0  0  0  0  0  0  0  0  0  0  0
   -1.4071    1.9274    4.4119 H   0  0  0  0  0  0  0  0  0  0  0  0
  1  2  1  0
  2  3  1  0
  3  4  1  0
  4  5  1  0
  5  6  2  0
  6  7  1  0
  7  8  2  0
  8  9  1  0
  9 10  2  0
  9 11  1  0
 11 12  1  0
 12 13  1  0
 13 14  1  0
 14 15  1  0
 15 16  1  0
 16 17  1  0
 16 18  2  0
 11 19  1  0
 19 20  2  0
 19 21  1  0
 21 22  1  0
  8  4  1  0
 21  7  1  0
  1 23  1  0
  1 24  1  0
  1 25  1  0
  2 26  1  0
  2 27  1  0
  3 28  1  0
  3 29  1  0
  5 30  1  0
 12 31  1  0
 12 32  1  0
 13 33  1  0
 13 34  1  0
 14 35  1  0
 14 36  1  0
 15 37  1  0
 15 38  1  0
 17 39  1  0
 17 40  1  0
 17 41  1  0
 22 42  1  0
 22 43  1  0
 22 44  1  0
M  END
$$$$
