
     RDKit          3D

 24 23  0  0  0  0  0  0  0  0999 V2000
    3.5265   -0.0440   -0.0041 O   0  0  0  0  0  0  0  0  0  0  0  0
    2.2136   -0.3110    0.4083 C   0  0  0  0  0  0  0  0  0  0  0  0
    1.2145    0.2357   -0.6155 C   0  0  0  0  0  0  0  0  0  0  0  0
   -0.1730   -0.0332   -0.1714 N   0  0  0  0  0  0  0  0  0  0  0  0
   -0.6227   -1.3795   -0.5984 C   0  0  0  0  0  0  0  0  0  0  0  0
   -1.5814   -1.9740    0.4330 C   0  0  0  0  0  0  0  0  0  0  0  0
   -0.9363   -2.0854    1.6713 O   0  0  0  0  0  0  0  0  0  0  0  0
   -1.0983    1.0114   -0.6630 C   0  0  0  0  0  0  0  0  0  0  0  0
   -0.9961    2.2361    0.1911 C   0  0  0  0  0  0  0  0  0  0  0  0
   -0.4914    3.4171   -0.3439 O   0  0  0  0  0  0  0  0  0  0  0  0
   -1.3573    2.1943    1.3975 O   0  0  0  0  0  0  0  0  0  0  0  0
    3.6985    0.9133    0.1953 H   0  0  0  0  0  0  0  0  0  0  0  0
    2.0961   -1.4095    0.5089 H   0  0  0  0  0  0  0  0  0  0  0  0
    2.0207    0.1435    1.4071 H   0  0  0  0  0  0  0  0  0  0  0  0
    1.4110   -0.2062   -1.6192 H   0  0  0  0  0  0  0  0  0  0  0  0
    1.4017    1.3296   -0.7023 H   0  0  0  0  0  0  0  0  0  0  0  0
    0.2320   -2.0854   -0.6956 H   0  0  0  0  0  0  0  0  0  0  0  0
   -1.1169   -1.3452   -1.5963 H   0  0  0  0  0  0  0  0  0  0  0  0
   -1.9023   -2.9819    0.0871 H   0  0  0  0  0  0  0  0  0  0  0  0
   -2.4849   -1.3338    0.5331 H   0  0  0  0  0  0  0  0  0  0  0  0
   -1.6027   -2.4758    2.2945 H   0  0  0  0  0  0  0  0  0  0  0  0
   -0.8858    1.2644   -1.7267 H   0  0  0  0  0  0  0  0  0  0  0  0
   -2.1546    0.6676   -0.6151 H   0  0  0  0  0  0  0  0  0  0  0  0
   -0.4108    4.2519    0.2243 H   0  0  0  0  0  0  0  0  0  0  0  0
  1  2  1  0
  2  3  1  0
  3  4  1  0
  4  5  1  0
  5  6  1  0
  6  7  1  0
  4  8  1  0
  8  9  1  0
  9 10  1  0
  9 11  2  0
  1 12  1  0
  2 13  1  0
  2 14  1  0
  3 15  1  0
  3 16  1  0
  5 17  1  0
  5 18  1  0
  6 19  1  0
  6 20  1  0
  7 21  1  0
  8 22  1  0
  8 23  1  0
 10 24  1  0
M  END
$$$$
