
     RDKit          3D

 36 36  0  0  0  0  0  0  0  0999 V2000
   -4.6017    0.1287   -0.5963 C   0  0  0  0  0  0  0  0  0  0  0  0
   -3.1364    0.1846   -1.0473 C   0  0  0  0  0  0  0  0  0  0  0  0
   -2.0946    0.5984    0.0456 C   0  0  0  0  0  0  0  0  0  0  0  0
   -2.1960   -0.3648    1.2531 C   0  0  0  0  0  0  0  0  0  0  0  0
   -2.3580    2.0469    0.5095 C   0  0  0  0  0  0  0  0  0  0  0  0
   -0.6867    0.5286   -0.5599 C   0  0  0  0  0  0  0  0  0  0  0  0
   -0.5478    0.5946   -1.8121 O   0  0  0  0  0  0  0  0  0  0  0  0
    0.5415    0.4678    0.2705 C   0  0  0  0  0  0  0  0  0  0  0  0
    0.5898    1.1184    1.3490 O   0  0  0  0  0  0  0  0  0  0  0  0
    1.6887   -0.3055   -0.1368 N   0  0  0  0  0  0  0  0  0  0  0  0
    1.6726   -1.2876   -1.2113 C   0  0  0  0  0  0  0  0  0  0  0  0
    3.0481   -1.9429   -1.2001 C   0  0  0  0  0  0  0  0  0  0  0  0
    3.6738   -1.5821    0.1436 C   0  0  0  0  0  0  0  0  0  0  0  0
    2.9248   -0.3424    0.6334 C   0  0  1  0  0  0  0  0  0  0  0  0
    3.7198    0.9089    0.3902 C   0  0  0  0  0  0  0  0  0  0  0  0
    3.9114    1.3735   -0.9081 O   0  0  0  0  0  0  0  0  0  0  0  0
    4.2356    1.5255    1.3604 O   0  0  0  0  0  0  0  0  0  0  0  0
   -5.2401   -0.1079   -1.4737 H   0  0  0  0  0  0  0  0  0  0  0  0
   -4.7611   -0.6727    0.1534 H   0  0  0  0  0  0  0  0  0  0  0  0
   -4.9394    1.1025   -0.1893 H   0  0  0  0  0  0  0  0  0  0  0  0
   -2.8684   -0.8193   -1.4460 H   0  0  0  0  0  0  0  0  0  0  0  0
   -3.0805    0.8976   -1.8998 H   0  0  0  0  0  0  0  0  0  0  0  0
   -2.0287   -1.4141    0.9275 H   0  0  0  0  0  0  0  0  0  0  0  0
   -3.1899   -0.2960    1.7411 H   0  0  0  0  0  0  0  0  0  0  0  0
   -1.4542   -0.1198    2.0395 H   0  0  0  0  0  0  0  0  0  0  0  0
   -2.3561    2.7408   -0.3586 H   0  0  0  0  0  0  0  0  0  0  0  0
   -3.3336    2.1331    1.0304 H   0  0  0  0  0  0  0  0  0  0  0  0
   -1.5820    2.3875    1.2252 H   0  0  0  0  0  0  0  0  0  0  0  0
    1.4999   -0.7946   -2.1910 H   0  0  0  0  0  0  0  0  0  0  0  0
    0.8804   -2.0432   -1.0170 H   0  0  0  0  0  0  0  0  0  0  0  0
    2.9732   -3.0446   -1.3284 H   0  0  0  0  0  0  0  0  0  0  0  0
    3.6699   -1.5222   -2.0210 H   0  0  0  0  0  0  0  0  0  0  0  0
    3.5036   -2.4183    0.8575 H   0  0  0  0  0  0  0  0  0  0  0  0
    4.7707   -1.4200    0.0493 H   0  0  0  0  0  0  0  0  0  0  0  0
    2.6984   -0.4506    1.7182 H   0  0  0  0  0  0  0  0  0  0  0  0
    4.4533    2.2106   -1.0856 H   0  0  0  0  0  0  0  0  0  0  0  0
  1  2  1  0
  2  3  1  0
  3  4  1  0
  3  5  1  0
  3  6  1  0
  6  7  2  0
  6  8  1  0
  8  9  2  0
  8 10  1  0
 10 11  1  0
 11 12  1  0
 12 13  1  0
 13 14  1  0
 14 15  1  0
 15 16  1  0
 15 17  2  0
 14 10  1  0
  1 18  1  0
  1 19  1  0
  1 20  1  0
  2 21  1  0
  2 22  1  0
  4 23  1  0
  4 24  1  0
  4 25  1  0
  5 26  1  0
  5 27  1  0
  5 28  1  0
 11 29  1  0
 11 30  1  0
 12 31  1  0
 12 32  1  0
 13 33  1  0
 13 34  1  0
 14 35  1  1
 16 36  1  0
M  END
$$$$
