
     RDKit          3D

 41 43  0  0  0  0  0  0  0  0999 V2000
   -4.1658    1.1466    0.6910 C   0  0  1  0  0  0  0  0  0  0  0  0
   -5.1301    0.9716   -0.5008 C   0  0  0  0  0  0  0  0  0  0  0  0
   -4.3988    1.0205   -1.8082 C   0  0  0  0  0  0  0  0  0  0  0  0
   -3.9857   -0.1569   -2.4190 O   0  0  0  0  0  1  0  0  0  0  0  0
   -4.1184    2.1287   -2.3360 O   0  0  0  0  0  0  0  0  0  0  0  0
   -4.9112    1.2648    1.9940 C   0  0  0  0  0  0  0  0  0  0  0  0
   -4.4394    2.1290    2.9773 O   0  0  0  0  0  0  0  0  0  0  0  0
   -5.9306    0.5577    2.2209 O   0  0  0  0  0  0  0  0  0  0  0  0
   -3.1481    0.0225    0.7691 C   0  0  0  0  0  0  0  0  0  0  0  0
   -1.7825    0.2972    0.5864 C   0  0  0  0  0  0  0  0  0  0  0  0
   -0.8254   -0.7312    0.6272 C   0  0  0  0  0  0  0  0  0  0  0  0
    0.6016   -0.3942    0.4149 C   0  0  0  0  0  0  0  0  0  0  0  0
    1.1292    0.8112    0.7638 N   0  0  0  0  0  0  0  0  0  0  0  0
    2.4103    0.7047    0.3706 C   0  0  0  0  0  0  0  0  0  0  0  0
    2.6331   -0.5108   -0.1972 C   0  0  0  0  0  0  0  0  0  0  0  0
    1.4989   -1.2211   -0.1832 N   0  0  0  0  0  0  0  0  0  0  0  0
    3.8743   -0.8752   -0.7122 C   0  0  0  0  0  0  0  0  0  0  0  0
    4.9295    0.0641   -0.6269 C   0  0  0  0  0  0  0  0  0  0  0  0
    4.6884    1.3311   -0.0252 C   0  0  0  0  0  0  0  0  0  0  0  0
    3.4154    1.6596    0.4777 C   0  0  0  0  0  0  0  0  0  0  0  0
    6.2729   -0.2799   -1.1559 C   0  0  0  0  0  0  0  0  0  0  0  0
    6.7698   -1.6161   -1.0439 N   0  0  0  0  0  0  0  0  0  0  0  0
    7.0113    0.6159   -1.7345 N   0  0  0  0  0  0  0  0  0  0  0  0
   -1.2468   -2.0519    0.8863 C   0  0  0  0  0  0  0  0  0  0  0  0
   -0.3215   -3.0842    1.0015 O   0  0  0  0  0  1  0  0  0  0  0  0
   -2.6087   -2.3318    1.0606 C   0  0  0  0  0  0  0  0  0  0  0  0
   -3.2004   -4.1199    1.4003 Br  0  0  0  0  0  0  0  0  0  0  0  0
   -3.5515   -1.3036    0.9988 C   0  0  0  0  0  0  0  0  0  0  0  0
   -3.6386    2.1161    0.5420 H   0  0  0  0  0  0  0  0  0  0  0  0
   -5.6790    0.0082   -0.4256 H   0  0  0  0  0  0  0  0  0  0  0  0
   -5.8868    1.7867   -0.4871 H   0  0  0  0  0  0  0  0  0  0  0  0
   -4.9143    2.2113    3.8683 H   0  0  0  0  0  0  0  0  0  0  0  0
   -1.4652    1.3148    0.3914 H   0  0  0  0  0  0  0  0  0  0  0  0
    1.3450   -2.1704   -0.5891 H   0  0  0  0  0  0  0  0  0  0  0  0
    4.0082   -1.8436   -1.1772 H   0  0  0  0  0  0  0  0  0  0  0  0
    5.4859    2.0563    0.0713 H   0  0  0  0  0  0  0  0  0  0  0  0
    3.2266    2.6225    0.9343 H   0  0  0  0  0  0  0  0  0  0  0  0
    6.2470   -2.3452   -0.5103 H   0  0  0  0  0  0  0  0  0  0  0  0
    7.6968   -1.8696   -1.4527 H   0  0  0  0  0  0  0  0  0  0  0  0
    6.7035    1.6044   -1.8702 H   0  0  0  0  0  0  0  0  0  0  0  0
   -4.5987   -1.5401    1.1354 H   0  0  0  0  0  0  0  0  0  0  0  0
  1  2  1  0
  2  3  1  0
  3  4  1  0
  3  5  2  0
  1  6  1  0
  6  7  1  0
  6  8  2  0
  1  9  1  0
  9 10  2  0
 10 11  1  0
 11 12  1  0
 12 13  2  0
 13 14  1  0
 14 15  2  0
 15 16  1  0
 15 17  1  0
 17 18  2  0
 18 19  1  0
 19 20  2  0
 18 21  1  0
 21 22  1  0
 21 23  2  3
 11 24  2  0
 24 25  1  0
 24 26  1  0
 26 27  1  0
 26 28  2  0
 28  9  1  0
 16 12  1  0
 20 14  1  0
  1 29  1  6
  2 30  1  0
  2 31  1  0
  7 32  1  0
 10 33  1  0
 16 34  1  0
 17 35  1  0
 19 36  1  0
 20 37  1  0
 22 38  1  0
 22 39  1  0
 23 40  1  0
 28 41  1  0
M  CHG  2   4  -1  25  -1
M  END
$$$$
