
     RDKit          3D

 57 60  0  0  0  0  0  0  0  0999 V2000
   -4.1113    2.9905    1.1390 C   0  0  0  0  0  0  0  0  0  0  0  0
   -3.2008    2.3617    0.0598 C   0  0  0  0  0  0  0  0  0  0  0  0
   -2.5432    3.5008   -0.7593 C   0  0  0  0  0  0  0  0  0  0  0  0
   -4.0502    1.5303   -0.9333 C   0  0  0  0  0  0  0  0  0  0  0  0
   -4.4821    0.1929   -0.3449 C   0  0  0  0  0  0  0  0  0  0  0  0
   -3.2747   -0.7125    0.0038 C   0  0  0  0  0  0  0  0  0  0  0  0
   -3.8180   -1.8578    0.8949 C   0  0  0  0  0  0  0  0  0  0  0  0
   -2.6827   -1.3265   -1.2857 C   0  0  0  0  0  0  0  0  0  0  0  0
   -2.1732    0.0719    0.7343 C   0  0  0  0  0  0  0  0  0  0  0  0
   -2.1326    1.4985    0.7491 C   0  0  0  0  0  0  0  0  0  0  0  0
   -1.1103    2.1356    1.4850 C   0  0  0  0  0  0  0  0  0  0  0  0
   -0.1025    1.4059    2.1068 C   0  0  0  0  0  0  0  0  0  0  0  0
   -0.0875    0.0114    2.0374 C   0  0  0  0  0  0  0  0  0  0  0  0
   -1.1150   -0.6428    1.3411 C   0  0  0  0  0  0  0  0  0  0  0  0
    1.0751   -0.7464    2.6533 C   0  0  1  0  0  0  0  0  0  0  0  0
    0.7050   -2.0434    3.0607 O   0  0  0  0  0  0  0  0  0  0  0  0
    2.2766   -0.7670    1.7214 C   0  0  0  0  0  0  0  0  0  0  0  0
    2.1626   -1.2550    0.4060 C   0  0  0  0  0  0  0  0  0  0  0  0
    3.2754   -1.2708   -0.4480 C   0  0  0  0  0  0  0  0  0  0  0  0
    4.5241   -0.8003    0.0173 C   0  0  0  0  0  0  0  0  0  0  0  0
    4.6385   -0.3231    1.3305 C   0  0  0  0  0  0  0  0  0  0  0  0
    3.5253   -0.3088    2.1746 C   0  0  0  0  0  0  0  0  0  0  0  0
    5.6373   -0.8159   -0.8374 C   0  0  0  0  0  0  0  0  0  0  0  0
    5.5202   -1.2963   -2.1547 C   0  0  0  0  0  0  0  0  0  0  0  0
    4.2731   -1.7616   -2.6056 C   0  0  0  0  0  0  0  0  0  0  0  0
    3.1607   -1.7494   -1.7603 C   0  0  0  0  0  0  0  0  0  0  0  0
    6.6923   -1.3136   -3.0582 C   0  0  0  0  0  0  0  0  0  0  0  0
    6.5677   -1.7907   -4.3606 O   0  0  0  0  0  0  0  0  0  0  0  0
    7.8134   -0.8973   -2.6587 O   0  0  0  0  0  0  0  0  0  0  0  0
   -4.5490    2.2129    1.7989 H   0  0  0  0  0  0  0  0  0  0  0  0
   -3.5351    3.6876    1.7844 H   0  0  0  0  0  0  0  0  0  0  0  0
   -4.9390    3.5666    0.6720 H   0  0  0  0  0  0  0  0  0  0  0  0
   -3.3041    4.0292   -1.3744 H   0  0  0  0  0  0  0  0  0  0  0  0
   -1.7674    3.0909   -1.4418 H   0  0  0  0  0  0  0  0  0  0  0  0
   -2.0705    4.2663   -0.1103 H   0  0  0  0  0  0  0  0  0  0  0  0
   -3.4823    1.3454   -1.8704 H   0  0  0  0  0  0  0  0  0  0  0  0
   -4.9589    2.0992   -1.2311 H   0  0  0  0  0  0  0  0  0  0  0  0
   -5.1013    0.3795    0.5589 H   0  0  0  0  0  0  0  0  0  0  0  0
   -5.1481   -0.3194   -1.0743 H   0  0  0  0  0  0  0  0  0  0  0  0
   -4.1099   -1.4676    1.8941 H   0  0  0  0  0  0  0  0  0  0  0  0
   -3.0746   -2.6686    1.0388 H   0  0  0  0  0  0  0  0  0  0  0  0
   -4.7128   -2.3248    0.4285 H   0  0  0  0  0  0  0  0  0  0  0  0
   -2.2121   -0.5485   -1.9222 H   0  0  0  0  0  0  0  0  0  0  0  0
   -3.4705   -1.8405   -1.8773 H   0  0  0  0  0  0  0  0  0  0  0  0
   -1.8983   -2.0752   -1.0437 H   0  0  0  0  0  0  0  0  0  0  0  0
   -1.0806    3.2114    1.5824 H   0  0  0  0  0  0  0  0  0  0  0  0
    0.6806    1.9352    2.6363 H   0  0  0  0  0  0  0  0  0  0  0  0
   -1.0823   -1.7177    1.2574 H   0  0  0  0  0  0  0  0  0  0  0  0
    1.3553   -0.2053    3.5841 H   0  0  0  0  0  0  0  0  0  0  0  0
    0.7387   -2.6484    2.2750 H   0  0  0  0  0  0  0  0  0  0  0  0
    1.2081   -1.6205    0.0472 H   0  0  0  0  0  0  0  0  0  0  0  0
    5.5886    0.0392    1.7050 H   0  0  0  0  0  0  0  0  0  0  0  0
    3.6403    0.0640    3.1848 H   0  0  0  0  0  0  0  0  0  0  0  0
    6.5931   -0.4541   -0.4758 H   0  0  0  0  0  0  0  0  0  0  0  0
    4.1548   -2.1366   -3.6144 H   0  0  0  0  0  0  0  0  0  0  0  0
    2.2107   -2.1136   -2.1334 H   0  0  0  0  0  0  0  0  0  0  0  0
    7.3635   -1.8069   -4.9872 H   0  0  0  0  0  0  0  0  0  0  0  0
  1  2  1  0
  2  3  1  0
  2  4  1  0
  4  5  1  0
  5  6  1  0
  6  7  1  0
  6  8  1  0
  6  9  1  0
  9 10  2  0
 10 11  1  0
 11 12  2  0
 12 13  1  0
 13 14  2  0
 13 15  1  0
 15 16  1  0
 15 17  1  0
 17 18  2  0
 18 19  1  0
 19 20  2  0
 20 21  1  0
 21 22  2  0
 20 23  1  0
 23 24  2  0
 24 25  1  0
 25 26  2  0
 24 27  1  0
 27 28  1  0
 27 29  2  0
 10  2  1  0
 22 17  1  0
 14  9  1  0
 26 19  1  0
  1 30  1  0
  1 31  1  0
  1 32  1  0
  3 33  1  0
  3 34  1  0
  3 35  1  0
  4 36  1  0
  4 37  1  0
  5 38  1  0
  5 39  1  0
  7 40  1  0
  7 41  1  0
  7 42  1  0
  8 43  1  0
  8 44  1  0
  8 45  1  0
 11 46  1  0
 12 47  1  0
 14 48  1  0
 15 49  1  1
 16 50  1  0
 18 51  1  0
 21 52  1  0
 22 53  1  0
 23 54  1  0
 25 55  1  0
 26 56  1  0
 28 57  1  0
M  END
$$$$
