
     RDKit          3D

 53 57  0  0  0  0  0  0  0  0999 V2000
   -6.1517   -0.6827    1.8948 C   0  0  0  0  0  0  0  0  0  0  0  0
   -6.1569   -0.2108    0.4649 C   0  0  0  0  0  0  0  0  0  0  0  0
   -7.2333   -0.5540   -0.3718 C   0  0  0  0  0  0  0  0  0  0  0  0
   -7.2624   -0.1264   -1.7012 C   0  0  0  0  0  0  0  0  0  0  0  0
   -6.2239    0.6552   -2.2083 C   0  0  0  0  0  0  0  0  0  0  0  0
   -5.1542    1.0155   -1.3869 C   0  0  0  0  0  0  0  0  0  0  0  0
   -5.1080    0.5879   -0.0496 C   0  0  0  0  0  0  0  0  0  0  0  0
   -3.9760    1.0150    0.8012 C   0  0  0  0  0  0  0  0  0  0  0  0
   -4.2251    1.8865    1.8153 N   0  0  0  0  0  0  0  0  0  0  0  0
   -3.2584    2.3371    2.6149 N   0  0  0  0  0  0  0  0  0  0  0  0
   -1.9684    1.9497    2.4584 C   0  0  0  0  0  0  0  0  0  0  0  0
   -1.6354    1.0495    1.4430 C   0  0  0  0  0  0  0  0  0  0  0  0
   -2.6540    0.5624    0.5937 C   0  0  0  0  0  0  0  0  0  0  0  0
   -2.3196   -0.3665   -0.4111 C   0  0  0  0  0  0  0  0  0  0  0  0
   -0.9972   -0.7853   -0.5753 C   0  0  0  0  0  0  0  0  0  0  0  0
    0.0134   -0.2995    0.2667 C   0  0  0  0  0  0  0  0  0  0  0  0
   -0.3097    0.6249    1.2706 C   0  0  0  0  0  0  0  0  0  0  0  0
    1.4161   -0.7366    0.0848 C   0  0  0  0  0  0  0  0  0  0  0  0
    1.8012   -2.0931    0.2130 C   0  0  0  0  0  0  0  0  0  0  0  0
    0.8115   -3.1710    0.5722 C   0  0  0  0  0  0  0  0  0  0  0  0
    3.1399   -2.4492   -0.0111 C   0  0  0  0  0  0  0  0  0  0  0  0
    4.0936   -1.4797   -0.3251 C   0  0  0  0  0  0  0  0  0  0  0  0
    3.7281   -0.1289   -0.4343 C   0  0  0  0  0  0  0  0  0  0  0  0
    2.3879    0.2321   -0.2177 C   0  0  0  0  0  0  0  0  0  0  0  0
    4.7346    0.9123   -0.7536 C   0  0  0  0  0  0  0  0  0  0  0  0
    4.5168    2.1089   -0.4172 O   0  0  0  0  0  0  0  0  0  0  0  0
    5.9467    0.5844   -1.4493 N   0  0  0  0  0  0  0  0  0  0  0  0
    6.9912    1.5812   -1.6641 C   0  0  0  0  0  0  0  0  0  0  0  0
    8.4010    1.0241   -1.5695 C   0  0  0  0  0  0  0  0  0  0  0  0
    7.8294    1.8463   -0.4251 C   0  0  0  0  0  0  0  0  0  0  0  0
   -6.3787    0.1696    2.5686 H   0  0  0  0  0  0  0  0  0  0  0  0
   -5.1575   -1.1029    2.1560 H   0  0  0  0  0  0  0  0  0  0  0  0
   -6.9093   -1.4774    2.0630 H   0  0  0  0  0  0  0  0  0  0  0  0
   -8.0516   -1.1562    0.0034 H   0  0  0  0  0  0  0  0  0  0  0  0
   -8.0934   -0.3995   -2.3386 H   0  0  0  0  0  0  0  0  0  0  0  0
   -6.2509    0.9877   -3.2379 H   0  0  0  0  0  0  0  0  0  0  0  0
   -4.3610    1.6328   -1.7913 H   0  0  0  0  0  0  0  0  0  0  0  0
   -1.2119    2.3394    3.1282 H   0  0  0  0  0  0  0  0  0  0  0  0
   -3.0720   -0.7778   -1.0708 H   0  0  0  0  0  0  0  0  0  0  0  0
   -0.7596   -1.4849   -1.3670 H   0  0  0  0  0  0  0  0  0  0  0  0
    0.4705    1.0012    1.9231 H   0  0  0  0  0  0  0  0  0  0  0  0
    0.0856   -2.8027    1.3273 H   0  0  0  0  0  0  0  0  0  0  0  0
    1.3241   -4.0539    1.0101 H   0  0  0  0  0  0  0  0  0  0  0  0
    0.2664   -3.4959   -0.3380 H   0  0  0  0  0  0  0  0  0  0  0  0
    3.4530   -3.4828    0.0725 H   0  0  0  0  0  0  0  0  0  0  0  0
    5.1213   -1.7916   -0.4544 H   0  0  0  0  0  0  0  0  0  0  0  0
    2.0892    1.2702   -0.3096 H   0  0  0  0  0  0  0  0  0  0  0  0
    6.0337   -0.3331   -1.9403 H   0  0  0  0  0  0  0  0  0  0  0  0
    6.7962    2.4405   -2.3400 H   0  0  0  0  0  0  0  0  0  0  0  0
    9.1492    1.5657   -2.1857 H   0  0  0  0  0  0  0  0  0  0  0  0
    8.4776   -0.0625   -1.3502 H   0  0  0  0  0  0  0  0  0  0  0  0
    7.5634    1.2481    0.4729 H   0  0  0  0  0  0  0  0  0  0  0  0
    8.2385    2.8765   -0.3601 H   0  0  0  0  0  0  0  0  0  0  0  0
  1  2  1  0
  2  3  2  0
  3  4  1  0
  4  5  2  0
  5  6  1  0
  6  7  2  0
  7  8  1  0
  8  9  2  0
  9 10  1  0
 10 11  2  0
 11 12  1  0
 12 13  2  0
 13 14  1  0
 14 15  2  0
 15 16  1  0
 16 17  2  0
 16 18  1  0
 18 19  2  0
 19 20  1  0
 19 21  1  0
 21 22  2  0
 22 23  1  0
 23 24  2  0
 23 25  1  0
 25 26  2  0
 25 27  1  0
 27 28  1  0
 28 29  1  0
 29 30  1  0
  7  2  1  0
 13  8  1  0
 24 18  1  0
 30 28  1  0
 17 12  1  0
  1 31  1  0
  1 32  1  0
  1 33  1  0
  3 34  1  0
  4 35  1  0
  5 36  1  0
  6 37  1  0
 11 38  1  0
 14 39  1  0
 15 40  1  0
 17 41  1  0
 20 42  1  0
 20 43  1  0
 20 44  1  0
 21 45  1  0
 22 46  1  0
 24 47  1  0
 27 48  1  0
 28 49  1  0
 29 50  1  0
 29 51  1  0
 30 52  1  0
 30 53  1  0
M  END
$$$$
