
     RDKit          3D

 58 60  0  0  0  0  0  0  0  0999 V2000
    4.8367    0.0533   -0.4355 C   0  0  2  0  0  0  0  0  0  0  0  0
    5.6228   -0.7151   -1.5091 C   0  0  0  0  0  0  0  0  0  0  0  0
    3.4015   -0.0842   -0.7189 N   0  0  0  0  0  0  0  0  0  0  0  0
    2.4259   -0.4220    0.2770 C   0  0  0  0  0  0  0  0  0  0  0  0
    2.7998   -0.6961    1.5561 N   0  0  0  0  0  0  0  0  0  0  0  0
    1.8783   -1.0005    2.5049 C   0  0  0  0  0  0  0  0  0  0  0  0
    0.5246   -1.0350    2.1757 C   0  0  0  0  0  0  0  0  0  0  0  0
    0.1462   -0.7576    0.8539 C   0  0  0  0  0  0  0  0  0  0  0  0
    1.1093   -0.4530   -0.0591 N   0  0  0  0  0  0  0  0  0  0  0  0
   -1.2417   -0.7572    0.4580 N   0  0  0  0  0  0  0  0  0  0  0  0
   -2.1688   -1.6943    1.0434 C   0  0  0  0  0  0  0  0  0  0  0  0
   -1.7628   -2.8377    1.3892 O   0  0  0  0  0  0  0  0  0  0  0  0
   -3.5539   -1.3414    1.2026 N   0  0  0  0  0  0  0  0  0  0  0  0
   -4.5391   -2.2279    1.7578 C   0  0  0  0  0  0  0  0  0  0  0  0
   -4.2690   -2.9511    2.9336 C   0  0  0  0  0  0  0  0  0  0  0  0
   -5.2403   -3.7901    3.4864 C   0  0  0  0  0  0  0  0  0  0  0  0
   -6.4915   -3.9082    2.8784 C   0  0  0  0  0  0  0  0  0  0  0  0
   -6.7766   -3.1833    1.7190 C   0  0  0  0  0  0  0  0  0  0  0  0
   -5.8099   -2.3393    1.1588 C   0  0  0  0  0  0  0  0  0  0  0  0
   -6.2022   -1.4626   -0.3153 Cl  0  0  0  0  0  0  0  0  0  0  0  0
   -1.6785    0.1269   -0.5954 C   0  0  0  0  0  0  0  0  0  0  0  0
   -2.4942   -0.3494   -1.6357 C   0  0  0  0  0  0  0  0  0  0  0  0
   -2.9171    0.5101   -2.6529 C   0  0  0  0  0  0  0  0  0  0  0  0
   -2.5323    1.8554   -2.6539 C   0  0  0  0  0  0  0  0  0  0  0  0
   -2.9827    2.6769   -3.6980 O   0  0  0  0  0  0  0  0  0  0  0  0
   -2.6689    4.0599   -3.8248 C   0  0  0  0  0  0  0  0  0  0  0  0
   -1.7123    2.3355   -1.6151 C   0  0  0  0  0  0  0  0  0  0  0  0
   -1.2905    1.4768   -0.5961 C   0  0  0  0  0  0  0  0  0  0  0  0
    5.2482    1.5622   -0.3401 C   0  0  0  0  0  0  0  0  0  0  0  0
    4.3861    2.2951    0.7139 C   0  0  0  0  0  0  0  0  0  0  0  0
    6.7234    1.6916    0.0867 C   0  0  0  0  0  0  0  0  0  0  0  0
    5.1089    2.1965   -1.5910 O   0  0  0  0  0  0  0  0  0  0  0  0
    5.0716   -0.4360    0.5355 H   0  0  0  0  0  0  0  0  0  0  0  0
    5.2194   -1.7462   -1.6014 H   0  0  0  0  0  0  0  0  0  0  0  0
    6.6932   -0.8035   -1.2315 H   0  0  0  0  0  0  0  0  0  0  0  0
    5.5377   -0.2162   -2.4975 H   0  0  0  0  0  0  0  0  0  0  0  0
    3.0578    0.1382   -1.6809 H   0  0  0  0  0  0  0  0  0  0  0  0
    2.1970   -1.2090    3.5174 H   0  0  0  0  0  0  0  0  0  0  0  0
   -0.2105   -1.2553    2.9389 H   0  0  0  0  0  0  0  0  0  0  0  0
   -3.8773   -0.4168    0.8410 H   0  0  0  0  0  0  0  0  0  0  0  0
   -3.3161   -2.8488    3.4364 H   0  0  0  0  0  0  0  0  0  0  0  0
   -5.0251   -4.3433    4.3915 H   0  0  0  0  0  0  0  0  0  0  0  0
   -7.2427   -4.5581    3.3085 H   0  0  0  0  0  0  0  0  0  0  0  0
   -7.7500   -3.2792    1.2549 H   0  0  0  0  0  0  0  0  0  0  0  0
   -2.7973   -1.3885   -1.6615 H   0  0  0  0  0  0  0  0  0  0  0  0
   -3.5461    0.1280   -3.4470 H   0  0  0  0  0  0  0  0  0  0  0  0
   -1.5705    4.1953   -3.9172 H   0  0  0  0  0  0  0  0  0  0  0  0
   -3.1542    4.4595   -4.7387 H   0  0  0  0  0  0  0  0  0  0  0  0
   -3.0507    4.6203   -2.9454 H   0  0  0  0  0  0  0  0  0  0  0  0
   -1.3977    3.3696   -1.5845 H   0  0  0  0  0  0  0  0  0  0  0  0
   -0.6684    1.8660    0.2002 H   0  0  0  0  0  0  0  0  0  0  0  0
    4.7016    3.3568    0.8037 H   0  0  0  0  0  0  0  0  0  0  0  0
    4.4878    1.8097    1.7085 H   0  0  0  0  0  0  0  0  0  0  0  0
    3.3134    2.2921    0.4277 H   0  0  0  0  0  0  0  0  0  0  0  0
    6.9881    2.7581    0.2537 H   0  0  0  0  0  0  0  0  0  0  0  0
    7.4018    1.3114   -0.7047 H   0  0  0  0  0  0  0  0  0  0  0  0
    6.9146    1.1309    1.0271 H   0  0  0  0  0  0  0  0  0  0  0  0
    4.1436    2.2309   -1.8179 H   0  0  0  0  0  0  0  0  0  0  0  0
  1  2  1  0
  1  3  1  0
  3  4  1  0
  4  5  2  0
  5  6  1  0
  6  7  2  0
  7  8  1  0
  8  9  2  0
  8 10  1  0
 10 11  1  0
 11 12  2  0
 11 13  1  0
 13 14  1  0
 14 15  2  0
 15 16  1  0
 16 17  2  0
 17 18  1  0
 18 19  2  0
 19 20  1  0
 10 21  1  0
 21 22  2  0
 22 23  1  0
 23 24  2  0
 24 25  1  0
 25 26  1  0
 24 27  1  0
 27 28  2  0
  1 29  1  0
 29 30  1  0
 29 31  1  0
 29 32  1  0
  9  4  1  0
 19 14  1  0
 28 21  1  0
  1 33  1  1
  2 34  1  0
  2 35  1  0
  2 36  1  0
  3 37  1  0
  6 38  1  0
  7 39  1  0
 13 40  1  0
 15 41  1  0
 16 42  1  0
 17 43  1  0
 18 44  1  0
 22 45  1  0
 23 46  1  0
 26 47  1  0
 26 48  1  0
 26 49  1  0
 27 50  1  0
 28 51  1  0
 30 52  1  0
 30 53  1  0
 30 54  1  0
 31 55  1  0
 31 56  1  0
 31 57  1  0
 32 58  1  0
M  END
$$$$
