
     RDKit          3D

 32 32  0  0  0  0  0  0  0  0999 V2000
   -3.8227    2.9047    0.4433 C   0  0  0  0  0  0  0  0  0  0  0  0
   -2.4746    2.4866    0.2557 O   0  0  0  0  0  0  0  0  0  0  0  0
   -2.0728    1.1514    0.0993 C   0  0  0  0  0  0  0  0  0  0  0  0
   -2.9877    0.0824    0.1107 C   0  0  0  0  0  0  0  0  0  0  0  0
   -2.5491   -1.2343   -0.0660 C   0  0  0  0  0  0  0  0  0  0  0  0
   -3.5062   -2.2603   -0.0574 O   0  0  0  0  0  0  0  0  0  0  0  0
   -3.2067   -3.6422   -0.2247 C   0  0  0  0  0  0  0  0  0  0  0  0
   -1.1762   -1.4856   -0.2459 C   0  0  0  0  0  0  0  0  0  0  0  0
   -0.2505   -0.4329   -0.2331 C   0  0  0  0  0  0  0  0  0  0  0  0
    1.1439   -0.7185   -0.4425 N   0  0  0  0  0  0  0  0  0  0  0  0
    2.2222    0.0117    0.1645 C   0  0  0  0  0  0  0  0  0  0  0  0
    1.9974    0.7569    1.2031 N   0  0  0  0  0  0  0  0  0  0  0  0
    3.5635   -0.2087   -0.3034 N   0  0  0  0  0  0  0  0  0  0  0  0
    4.5889    0.7970   -0.3237 C   0  0  0  0  0  0  0  0  0  0  0  0
    5.9404    0.4187   -0.5969 N   0  0  0  0  0  0  0  0  0  0  0  0
    4.2890    2.0464   -0.1532 N   0  0  0  0  0  0  0  0  0  0  0  0
   -0.7112    0.8856   -0.0787 C   0  0  0  0  0  0  0  0  0  0  0  0
   -3.8497    4.0095    0.5385 H   0  0  0  0  0  0  0  0  0  0  0  0
   -4.2354    2.4576    1.3723 H   0  0  0  0  0  0  0  0  0  0  0  0
   -4.4397    2.6081   -0.4311 H   0  0  0  0  0  0  0  0  0  0  0  0
   -4.0455    0.2617    0.2478 H   0  0  0  0  0  0  0  0  0  0  0  0
   -2.7347   -3.8134   -1.2153 H   0  0  0  0  0  0  0  0  0  0  0  0
   -2.5310   -3.9874    0.5861 H   0  0  0  0  0  0  0  0  0  0  0  0
   -4.1486   -4.2259   -0.1746 H   0  0  0  0  0  0  0  0  0  0  0  0
   -0.8159   -2.4959   -0.3857 H   0  0  0  0  0  0  0  0  0  0  0  0
    1.3908   -1.5496   -1.0261 H   0  0  0  0  0  0  0  0  0  0  0  0
    2.7577    1.2451    1.7249 H   0  0  0  0  0  0  0  0  0  0  0  0
    3.7798   -1.1306   -0.7444 H   0  0  0  0  0  0  0  0  0  0  0  0
    6.1871   -0.5840   -0.7502 H   0  0  0  0  0  0  0  0  0  0  0  0
    6.7001    1.1341   -0.6404 H   0  0  0  0  0  0  0  0  0  0  0  0
    5.0157    2.7959   -0.1860 H   0  0  0  0  0  0  0  0  0  0  0  0
   -0.0184    1.7159   -0.1203 H   0  0  0  0  0  0  0  0  0  0  0  0
  1  2  1  0
  2  3  1  0
  3  4  2  0
  4  5  1  0
  5  6  1  0
  6  7  1  0
  5  8  2  0
  8  9  1  0
  9 10  1  0
 10 11  1  0
 11 12  2  3
 11 13  1  0
 13 14  1  0
 14 15  1  0
 14 16  2  3
  9 17  2  0
 17  3  1  0
  1 18  1  0
  1 19  1  0
  1 20  1  0
  4 21  1  0
  7 22  1  0
  7 23  1  0
  7 24  1  0
  8 25  1  0
 10 26  1  0
 12 27  1  0
 13 28  1  0
 15 29  1  0
 15 30  1  0
 16 31  1  0
 17 32  1  0
M  END
$$$$
