
     RDKit          3D

 41 43  0  0  0  0  0  0  0  0999 V2000
   -3.7686    0.6563    0.2817 C   0  0  1  0  0  0  0  0  0  0  0  0
   -4.2054    1.9141   -0.1723 O   0  0  0  0  0  0  0  0  0  0  0  0
   -4.2304   -0.4528   -0.6908 C   0  0  0  0  0  0  0  0  0  0  0  0
   -3.3114   -1.6841   -0.6622 C   0  0  0  0  0  0  0  0  0  0  0  0
   -2.6370   -1.8347    0.7041 C   0  0  0  0  0  0  0  0  0  0  0  0
   -1.7757   -0.6822    1.0313 N   0  0  0  0  0  0  0  0  0  0  0  0
   -2.2296    0.6201    0.4854 C   0  0  2  0  0  0  0  0  0  0  0  0
   -1.7771    1.7526    1.4271 C   0  0  0  0  0  0  0  0  0  0  0  0
   -0.2825    1.7578    1.6200 C   0  0  0  0  0  0  0  0  0  0  0  0
    0.1914    1.2657    2.6331 O   0  0  0  0  0  0  0  0  0  0  0  0
    0.6359    2.3473    0.5803 C   0  0  0  0  0  0  0  0  0  0  0  0
    1.5398    1.3156    0.0424 N   0  0  0  0  0  0  0  0  0  0  0  0
    1.2006    0.6728   -1.1160 C   0  0  0  0  0  0  0  0  0  0  0  0
    1.9901   -0.3074   -1.6218 N   0  0  0  0  0  0  0  0  0  0  0  0
    3.1341   -0.6810   -0.9994 C   0  0  0  0  0  0  0  0  0  0  0  0
    3.5215   -0.0440    0.1936 C   0  0  0  0  0  0  0  0  0  0  0  0
    4.7112   -0.4384    0.8324 C   0  0  0  0  0  0  0  0  0  0  0  0
    5.5031   -1.4559    0.2861 C   0  0  0  0  0  0  0  0  0  0  0  0
    6.9822   -1.9179    1.1175 Cl  0  0  0  0  0  0  0  0  0  0  0  0
    5.1094   -2.0876   -0.9064 C   0  0  0  0  0  0  0  0  0  0  0  0
    6.1586   -3.4847   -1.6930 Br  0  0  0  0  0  0  0  0  0  0  0  0
    3.9266   -1.6969   -1.5436 C   0  0  0  0  0  0  0  0  0  0  0  0
    2.6924    0.9708    0.7046 C   0  0  0  0  0  0  0  0  0  0  0  0
    3.0115    1.5627    1.7741 O   0  0  0  0  0  0  0  0  0  0  0  0
   -4.2478    0.4708    1.2688 H   0  0  0  0  0  0  0  0  0  0  0  0
   -3.7183    2.1153   -1.0141 H   0  0  0  0  0  0  0  0  0  0  0  0
   -4.2650   -0.0676   -1.7335 H   0  0  0  0  0  0  0  0  0  0  0  0
   -5.2648   -0.7573   -0.4188 H   0  0  0  0  0  0  0  0  0  0  0  0
   -3.9017   -2.5972   -0.8926 H   0  0  0  0  0  0  0  0  0  0  0  0
   -2.5242   -1.5817   -1.4415 H   0  0  0  0  0  0  0  0  0  0  0  0
   -2.0319   -2.7682    0.7114 H   0  0  0  0  0  0  0  0  0  0  0  0
   -3.4133   -1.9440    1.4921 H   0  0  0  0  0  0  0  0  0  0  0  0
   -0.8166   -0.8764    0.6569 H   0  0  0  0  0  0  0  0  0  0  0  0
   -1.7577    0.7857   -0.5091 H   0  0  0  0  0  0  0  0  0  0  0  0
   -2.2771    1.6360    2.4142 H   0  0  0  0  0  0  0  0  0  0  0  0
   -2.0830    2.7386    1.0159 H   0  0  0  0  0  0  0  0  0  0  0  0
    0.0403    2.8080   -0.2391 H   0  0  0  0  0  0  0  0  0  0  0  0
    1.2195    3.1765    1.0360 H   0  0  0  0  0  0  0  0  0  0  0  0
    0.2992    0.9390   -1.6522 H   0  0  0  0  0  0  0  0  0  0  0  0
    5.0276    0.0386    1.7522 H   0  0  0  0  0  0  0  0  0  0  0  0
    3.6239   -2.1842   -2.4625 H   0  0  0  0  0  0  0  0  0  0  0  0
  1  2  1  0
  1  3  1  0
  3  4  1  0
  4  5  1  0
  5  6  1  0
  6  7  1  0
  7  8  1  0
  8  9  1  0
  9 10  2  0
  9 11  1  0
 11 12  1  0
 12 13  1  0
 13 14  2  0
 14 15  1  0
 15 16  2  0
 16 17  1  0
 17 18  2  0
 18 19  1  0
 18 20  1  0
 20 21  1  0
 20 22  2  0
 16 23  1  0
 23 24  2  0
  7  1  1  0
 23 12  1  0
 22 15  1  0
  1 25  1  1
  2 26  1  0
  3 27  1  0
  3 28  1  0
  4 29  1  0
  4 30  1  0
  5 31  1  0
  5 32  1  0
  6 33  1  0
  7 34  1  6
  8 35  1  0
  8 36  1  0
 11 37  1  0
 11 38  1  0
 13 39  1  0
 17 40  1  0
 22 41  1  0
M  END
$$$$
