
     RDKit          3D

 27 29  0  0  0  0  0  0  0  0999 V2000
   -2.6612    2.5585    0.2156 O   0  0  0  0  0  0  0  0  0  0  0  0
   -2.5672    1.1691    0.1054 C   0  0  0  0  0  0  0  0  0  0  0  0
   -3.7438    0.4656   -0.1731 C   0  0  0  0  0  0  0  0  0  0  0  0
   -3.7155   -0.9107   -0.3862 C   0  0  0  0  0  0  0  0  0  0  0  0
   -2.5073   -1.6014   -0.3287 C   0  0  0  0  0  0  0  0  0  0  0  0
   -1.3127   -0.9246   -0.0401 C   0  0  0  0  0  0  0  0  0  0  0  0
   -1.3390    0.4649    0.2270 C   0  0  0  0  0  0  0  0  0  0  0  0
   -0.0704    1.1197    0.6280 C   0  0  0  0  0  0  0  0  0  0  0  0
   -0.0795    2.1698    1.3246 O   0  0  0  0  0  0  0  0  0  0  0  0
    1.2139    0.4764    0.2759 C   0  0  0  0  0  0  0  0  0  0  0  0
    2.4232    1.2052    0.2333 C   0  0  0  0  0  0  0  0  0  0  0  0
    2.4405    2.5698    0.5222 O   0  0  0  0  0  0  0  0  0  0  0  0
    3.6159    0.5564   -0.1145 C   0  0  0  0  0  0  0  0  0  0  0  0
    3.6150   -0.8045   -0.4193 C   0  0  0  0  0  0  0  0  0  0  0  0
    2.4244   -1.5300   -0.3792 C   0  0  0  0  0  0  0  0  0  0  0  0
    1.2166   -0.8971   -0.0465 C   0  0  0  0  0  0  0  0  0  0  0  0
   -0.0379   -1.7287    0.0824 C   0  0  0  0  0  0  0  0  0  0  0  0
   -1.8643    3.1788    0.1946 H   0  0  0  0  0  0  0  0  0  0  0  0
   -4.6847    0.9961   -0.2497 H   0  0  0  0  0  0  0  0  0  0  0  0
   -4.6320   -1.4422   -0.6077 H   0  0  0  0  0  0  0  0  0  0  0  0
   -2.5033   -2.6712   -0.4991 H   0  0  0  0  0  0  0  0  0  0  0  0
    3.2979    3.1093    0.4926 H   0  0  0  0  0  0  0  0  0  0  0  0
    4.5464    1.1086   -0.1496 H   0  0  0  0  0  0  0  0  0  0  0  0
    4.5411   -1.3000   -0.6808 H   0  0  0  0  0  0  0  0  0  0  0  0
    2.4445   -2.5903   -0.5996 H   0  0  0  0  0  0  0  0  0  0  0  0
   -0.0313   -2.5182   -0.7015 H   0  0  0  0  0  0  0  0  0  0  0  0
   -0.0293   -2.2293    1.0739 H   0  0  0  0  0  0  0  0  0  0  0  0
  1  2  1  0
  2  3  2  0
  3  4  1  0
  4  5  2  0
  5  6  1  0
  6  7  2  0
  7  8  1  0
  8  9  2  0
  8 10  1  0
 10 11  2  0
 11 12  1  0
 11 13  1  0
 13 14  2  0
 14 15  1  0
 15 16  2  0
 16 17  1  0
  7  2  1  0
 16 10  1  0
 17  6  1  0
  1 18  1  0
  3 19  1  0
  4 20  1  0
  5 21  1  0
 12 22  1  0
 13 23  1  0
 14 24  1  0
 15 25  1  0
 17 26  1  0
 17 27  1  0
M  END
$$$$
