
     RDKit          3D

 43 44  0  0  0  0  0  0  0  0999 V2000
   -5.1669    1.0914    2.5246 C   0  0  0  0  0  0  0  0  0  0  0  0
   -5.3171    0.1045    1.3604 C   0  0  0  0  0  0  0  0  0  0  0  0
   -6.1565    0.7104    0.2289 C   0  0  0  0  0  0  0  0  0  0  0  0
   -3.9579   -0.3526    0.8508 C   0  0  0  0  0  0  0  0  0  0  0  0
   -3.0553    0.5825    0.3054 C   0  0  0  0  0  0  0  0  0  0  0  0
   -1.7980    0.1860   -0.1604 C   0  0  0  0  0  0  0  0  0  0  0  0
   -0.9434    1.1622   -0.6946 O   0  0  0  0  0  0  0  0  0  0  0  0
    0.4160    0.9603   -0.9608 C   0  0  0  0  0  0  0  0  0  0  0  0
    0.8707    1.0093   -2.2861 C   0  0  0  0  0  0  0  0  0  0  0  0
   -0.3527    1.3261   -3.7228 Br  0  0  0  0  0  0  0  0  0  0  0  0
    2.2239    0.8047   -2.5726 C   0  0  0  0  0  0  0  0  0  0  0  0
    3.1447    0.5775   -1.5408 C   0  0  0  0  0  0  0  0  0  0  0  0
    4.5258    0.3472   -1.8675 N   0  0  0  0  0  0  0  0  0  0  0  0
    5.6282    0.7633   -1.0457 C   0  0  0  0  0  0  0  0  0  0  0  0
    5.4490    1.5564   -0.0820 O   0  0  0  0  0  0  0  0  0  0  0  0
    7.0078    0.2591   -1.3348 C   0  0  0  0  0  0  0  0  0  0  0  0
    7.1631   -1.1277   -0.8018 C   0  0  0  0  0  0  0  0  0  0  0  0
    7.5367   -1.3223    0.5242 O   0  0  0  0  0  0  0  0  0  0  0  0
    6.9176   -2.1194   -1.5395 O   0  0  0  0  0  0  0  0  0  0  0  0
    2.6871    0.5267   -0.2128 C   0  0  0  0  0  0  0  0  0  0  0  0
    1.3341    0.7289    0.0808 C   0  0  0  0  0  0  0  0  0  0  0  0
    0.7837    0.7308    1.9161 Br  0  0  0  0  0  0  0  0  0  0  0  0
   -1.4373   -1.1702   -0.0994 C   0  0  0  0  0  0  0  0  0  0  0  0
   -2.3197   -2.1077    0.4370 C   0  0  0  0  0  0  0  0  0  0  0  0
   -3.5761   -1.7109    0.9145 C   0  0  0  0  0  0  0  0  0  0  0  0
   -4.4412   -2.6662    1.4485 O   0  0  0  0  0  0  0  0  0  0  0  0
   -4.6832    2.0345    2.1932 H   0  0  0  0  0  0  0  0  0  0  0  0
   -6.1653    1.3375    2.9454 H   0  0  0  0  0  0  0  0  0  0  0  0
   -4.5530    0.6368    3.3315 H   0  0  0  0  0  0  0  0  0  0  0  0
   -5.8912   -0.7626    1.7516 H   0  0  0  0  0  0  0  0  0  0  0  0
   -5.6973    1.6449   -0.1574 H   0  0  0  0  0  0  0  0  0  0  0  0
   -7.1773    0.9472    0.5980 H   0  0  0  0  0  0  0  0  0  0  0  0
   -6.2498   -0.0163   -0.6063 H   0  0  0  0  0  0  0  0  0  0  0  0
   -3.3232    1.6295    0.2449 H   0  0  0  0  0  0  0  0  0  0  0  0
    2.5623    0.8325   -3.6009 H   0  0  0  0  0  0  0  0  0  0  0  0
    4.7455   -0.0805   -2.7957 H   0  0  0  0  0  0  0  0  0  0  0  0
    7.1892    0.2682   -2.4311 H   0  0  0  0  0  0  0  0  0  0  0  0
    7.7636    0.9225   -0.8614 H   0  0  0  0  0  0  0  0  0  0  0  0
    7.6302   -2.2560    0.9058 H   0  0  0  0  0  0  0  0  0  0  0  0
    3.3727    0.3128    0.5960 H   0  0  0  0  0  0  0  0  0  0  0  0
   -0.4783   -1.5067   -0.4706 H   0  0  0  0  0  0  0  0  0  0  0  0
   -2.0260   -3.1489    0.4795 H   0  0  0  0  0  0  0  0  0  0  0  0
   -4.1854   -3.6453    1.5024 H   0  0  0  0  0  0  0  0  0  0  0  0
  1  2  1  0
  2  3  1  0
  2  4  1  0
  4  5  2  0
  5  6  1  0
  6  7  1  0
  7  8  1  0
  8  9  2  0
  9 10  1  0
  9 11  1  0
 11 12  2  0
 12 13  1  0
 13 14  1  0
 14 15  2  0
 14 16  1  0
 16 17  1  0
 17 18  1  0
 17 19  2  0
 12 20  1  0
 20 21  2  0
 21 22  1  0
  6 23  2  0
 23 24  1  0
 24 25  2  0
 25 26  1  0
 25  4  1  0
 21  8  1  0
  1 27  1  0
  1 28  1  0
  1 29  1  0
  2 30  1  0
  3 31  1  0
  3 32  1  0
  3 33  1  0
  5 34  1  0
 11 35  1  0
 13 36  1  0
 16 37  1  0
 16 38  1  0
 18 39  1  0
 20 40  1  0
 23 41  1  0
 24 42  1  0
 26 43  1  0
M  END
$$$$
