
     RDKit          2D

104112  0  0  0  0  0  0  0  0999 V2000
   -0.9857    6.6815    0.0000 C   0  0  0  0  0  0  0  0  0  0  0  0
    0.5008    6.4801    0.0000 C   0  0  0  0  0  0  0  0  0  0  0  0
    1.0696    5.0922    0.0000 C   0  0  0  0  0  0  0  0  0  0  0  0
    2.3377    5.8934    0.0000 C   0  0  0  0  0  0  0  0  0  0  0  0
    3.6058    6.6946    0.0000 C   0  0  0  0  0  0  0  0  0  0  0  0
    0.1520    3.9056    0.0000 C   0  0  0  0  0  0  0  0  0  0  0  0
   -1.3344    4.1069    0.0000 N   0  0  0  0  0  0  0  0  0  0  0  0
   -1.9033    5.4949    0.0000 C   0  0  0  0  0  0  0  0  0  0  0  0
   -2.4186    3.0703    0.0000 C   0  0  0  0  0  0  0  0  0  0  0  0
   -2.2841    1.5763    0.0000 C   0  0  0  0  0  0  0  0  0  0  0  0
   -1.0323    0.7500    0.0000 C   0  0  0  0  0  0  0  0  0  0  0  0
    0.3943    1.2135    0.0000 C   0  0  0  0  0  0  0  0  0  0  0  0
    1.2760    0.0000    0.0000 N   0  0  0  0  0  0  0  0  0  0  0  0
    0.3943   -1.2135    0.0000 C   0  0  0  0  0  0  0  0  0  0  0  0
    0.7062   -2.6807    0.0000 C   0  0  0  0  0  0  0  0  0  0  0  0
   -0.4086   -3.6844    0.0000 C   0  0  0  0  0  0  0  0  0  0  0  0
   -1.8351   -3.2209    0.0000 C   0  0  0  0  0  0  0  0  0  0  0  0
   -2.9499   -4.2246    0.0000 O   0  0  0  0  0  0  0  0  0  0  0  0
   -4.3764   -3.7611    0.0000 C   0  0  0  0  0  0  0  0  0  0  0  0
   -2.1470   -1.7537    0.0000 C   0  0  0  0  0  0  0  0  0  0  0  0
   -1.0323   -0.7500    0.0000 C   0  0  0  0  0  0  0  0  0  0  0  0
   -0.0967   -5.1517    0.0000 C   0  0  0  0  0  0  0  0  0  0  0  0
   -1.5946   -5.0732    0.0000 C   0  0  0  0  0  0  0  0  0  0  0  0
   -2.7093   -6.0769    0.0000 C   0  0  0  0  0  0  0  0  0  0  0  0
   -2.7878   -7.5748    0.0000 C   0  0  0  0  0  0  0  0  0  0  0  0
   -4.2144   -7.1113    0.0000 C   0  0  0  0  0  0  0  0  0  0  0  0
   -5.1787   -5.9623    0.0000 O   0  0  0  0  0  0  0  0  0  0  0  0
   -5.3292   -8.1150    0.0000 O   0  0  0  0  0  0  0  0  0  0  0  0
   -6.7557   -7.6514    0.0000 C   0  0  0  0  0  0  0  0  0  0  0  0
   -1.7842   -8.6895    0.0000 C   0  0  0  0  0  0  0  0  0  0  0  0
   -0.2862   -8.7680    0.0000 C   0  0  0  0  0  0  0  0  0  0  0  0
    0.8285   -7.7643    0.0000 C   0  0  0  0  0  0  0  0  0  0  0  0
    0.9070   -6.2664    0.0000 C   0  0  0  0  0  0  0  0  0  0  0  0
    2.3559   -5.8782    0.0000 N   0  0  0  0  0  0  0  0  0  0  0  0
    3.1729   -7.1362    0.0000 C   0  0  0  0  0  0  0  0  0  0  0  0
    4.6544   -7.3708    0.0000 C   0  0  0  0  0  0  0  0  0  0  0  0
    5.1919   -8.7712    0.0000 C   0  0  0  0  0  0  0  0  0  0  0  0
    4.2480   -9.9369    0.0000 C   0  0  0  0  0  0  0  0  0  0  0  0
    2.7664   -9.7022    0.0000 C   0  0  0  0  0  0  0  0  0  0  0  0
    2.2289   -8.3019    0.0000 C   0  0  0  0  0  0  0  0  0  0  0  0
   -3.2561   -9.0266    0.0000 N   0  0  0  0  0  0  0  0  0  0  0  0
   -3.5294  -10.5015    0.0000 C   0  0  0  0  0  0  0  0  0  0  0  0
   -4.3967   -8.0524    0.0000 C   0  0  0  0  0  0  0  0  0  0  0  0
   -4.1233   -6.5776    0.0000 C   0  0  0  0  0  0  0  0  0  0  0  0
   -5.2639   -5.6034    0.0000 C   0  0  0  0  0  0  0  0  0  0  0  0
   -4.9906   -4.1285    0.0000 C   0  0  0  0  0  0  0  0  0  0  0  0
    0.9214    2.6179    0.0000 C   0  0  0  0  0  0  0  0  0  0  0  0
    0.2452    5.8241    0.0000 C   0  0  0  0  0  0  0  0  0  0  0  0
    2.4153    2.7523    0.0000 C   0  0  0  0  0  0  0  0  0  0  0  0
    3.2071    4.0264    0.0000 O   0  0  0  0  0  0  0  0  0  0  0  0
    3.2787    1.5258    0.0000 O   0  0  0  0  0  0  0  0  0  0  0  0
    4.7727    1.6602    0.0000 C   0  0  0  0  0  0  0  0  0  0  0  0
   -1.5545    8.0694    0.0000 H   0  0  0  0  0  0  0  0  0  0  0  0
    1.9166    6.9756    0.0000 H   0  0  0  0  0  0  0  0  0  0  0  0
    0.2587    7.9605    0.0000 H   0  0  0  0  0  0  0  0  0  0  0  0
    2.0788    3.9825    0.0000 H   0  0  0  0  0  0  0  0  0  0  0  0
    3.2875    4.7324    0.0000 H   0  0  0  0  0  0  0  0  0  0  0  0
    1.8671    7.3177    0.0000 H   0  0  0  0  0  0  0  0  0  0  0  0
    4.4070    5.4265    0.0000 H   0  0  0  0  0  0  0  0  0  0  0  0
    2.8046    7.9627    0.0000 H   0  0  0  0  0  0  0  0  0  0  0  0
    4.8739    7.4958    0.0000 H   0  0  0  0  0  0  0  0  0  0  0  0
   -0.4785    2.5445    0.0000 H   0  0  0  0  0  0  0  0  0  0  0  0
   -2.9125    6.6046    0.0000 H   0  0  0  0  0  0  0  0  0  0  0  0
   -3.2596    4.8542    0.0000 H   0  0  0  0  0  0  0  0  0  0  0  0
   -3.3392    4.2546    0.0000 H   0  0  0  0  0  0  0  0  0  0  0  0
   -3.8911    2.7841    0.0000 H   0  0  0  0  0  0  0  0  0  0  0  0
   -3.7840    1.5950    0.0000 H   0  0  0  0  0  0  0  0  0  0  0  0
   -2.8112    0.1720    0.0000 H   0  0  0  0  0  0  0  0  0  0  0  0
    2.7760    0.0000    0.0000 H   0  0  0  0  0  0  0  0  0  0  0  0
    2.1328   -3.1443    0.0000 H   0  0  0  0  0  0  0  0  0  0  0  0
   -5.4556   -4.8030    0.0000 H   0  0  0  0  0  0  0  0  0  0  0  0
   -3.7425   -2.4016    0.0000 H   0  0  0  0  0  0  0  0  0  0  0  0
   -5.7359   -3.1271    0.0000 H   0  0  0  0  0  0  0  0  0  0  0  0
   -3.5736   -1.2902    0.0000 H   0  0  0  0  0  0  0  0  0  0  0  0
    1.2398   -4.4707    0.0000 H   0  0  0  0  0  0  0  0  0  0  0  0
   -3.0619   -4.7614    0.0000 H   0  0  0  0  0  0  0  0  0  0  0  0
   -1.4901   -3.5768    0.0000 H   0  0  0  0  0  0  0  0  0  0  0  0
   -4.0632   -5.4311    0.0000 H   0  0  0  0  0  0  0  0  0  0  0  0
   -3.8849   -8.5977    0.0000 H   0  0  0  0  0  0  0  0  0  0  0  0
   -7.2193   -9.0780    0.0000 H   0  0  0  0  0  0  0  0  0  0  0  0
   -6.4696   -6.1790    0.0000 H   0  0  0  0  0  0  0  0  0  0  0  0
   -8.1823   -7.1879    0.0000 H   0  0  0  0  0  0  0  0  0  0  0  0
   -2.2601  -10.1120    0.0000 H   0  0  0  0  0  0  0  0  0  0  0  0
    0.9718   -9.5850    0.0000 H   0  0  0  0  0  0  0  0  0  0  0  0
   -0.7497  -10.1946    0.0000 H   0  0  0  0  0  0  0  0  0  0  0  0
    2.8935   -4.4778    0.0000 H   0  0  0  0  0  0  0  0  0  0  0  0
    5.5984   -6.2051    0.0000 H   0  0  0  0  0  0  0  0  0  0  0  0
    6.6735   -9.0058    0.0000 H   0  0  0  0  0  0  0  0  0  0  0  0
    4.7855  -11.3373    0.0000 H   0  0  0  0  0  0  0  0  0  0  0  0
    1.8225  -10.8680    0.0000 H   0  0  0  0  0  0  0  0  0  0  0  0
   -5.0266  -10.4100    0.0000 H   0  0  0  0  0  0  0  0  0  0  0  0
   -2.0988  -10.9526    0.0000 H   0  0  0  0  0  0  0  0  0  0  0  0
   -3.8028  -11.9764    0.0000 H   0  0  0  0  0  0  0  0  0  0  0  0
   -5.8870   -7.8827    0.0000 H   0  0  0  0  0  0  0  0  0  0  0  0
   -5.3098   -9.2425    0.0000 H   0  0  0  0  0  0  0  0  0  0  0  0
   -6.7284   -5.9280    0.0000 H   0  0  0  0  0  0  0  0  0  0  0  0
   -6.4878   -4.0370    0.0000 H   0  0  0  0  0  0  0  0  0  0  0  0
   -3.7117   -4.9124    0.0000 H   0  0  0  0  0  0  0  0  0  0  0  0
   -4.8990   -2.6313    0.0000 H   0  0  0  0  0  0  0  0  0  0  0  0
    0.8758    7.1851    0.0000 H   0  0  0  0  0  0  0  0  0  0  0  0
    1.6950    5.4394    0.0000 H   0  0  0  0  0  0  0  0  0  0  0  0
    4.9072    0.1663    0.0000 H   0  0  0  0  0  0  0  0  0  0  0  0
    4.6383    3.1542    0.0000 H   0  0  0  0  0  0  0  0  0  0  0  0
    6.2667    1.7947    0.0000 H   0  0  0  0  0  0  0  0  0  0  0  0
  1  2  1  0
  2  3  1  0
  3  4  1  0
  4  5  1  0
  3  6  1  0
  6  7  1  0
  7  8  1  0
  7  9  1  0
  9 10  1  0
 10 11  1  0
 11 12  2  0
 12 13  1  0
 13 14  1  0
 14 15  2  0
 15 16  1  0
 16 17  2  0
 17 18  1  0
 18 19  1  0
 17 20  1  0
 20 21  2  0
 16 22  1  0
 22 23  1  0
 23 24  1  0
 24 25  1  0
 25 26  1  0
 26 27  2  0
 26 28  1  0
 28 29  1  0
 25 30  1  0
 30 31  1  0
 31 32  1  0
 32 33  2  0
 33 34  1  0
 34 35  1  0
 35 36  2  0
 36 37  1  0
 37 38  2  0
 38 39  1  0
 39 40  2  0
 30 41  1  0
 41 42  1  0
 41 43  1  0
 43 44  1  0
 44 45  2  0
 45 46  1  0
 12 47  1  0
 47 48  1  0
 47 49  1  6
 49 50  2  0
 49 51  1  0
 51 52  1  0
  8  1  1  0
 21 11  1  0
 33 22  1  0
 40 35  1  0
 48  1  1  0
 47  6  1  0
 21 14  1  0
 44 24  1  0
 40 32  1  0
  1 53  1  6
  2 54  1  0
  2 55  1  0
  3 56  1  1
  4 57  1  0
  4 58  1  0
  5 59  1  0
  5 60  1  0
  5 61  1  0
  6 62  1  6
  8 63  1  0
  8 64  1  0
  9 65  1  0
  9 66  1  0
 10 67  1  0
 10 68  1  0
 13 69  1  0
 15 70  1  0
 19 71  1  0
 19 72  1  0
 19 73  1  0
 20 74  1  0
 22 75  1  1
 23 76  1  0
 23 77  1  0
 24 78  1  1
 25 79  1  0
 29 80  1  0
 29 81  1  0
 29 82  1  0
 30 83  1  6
 31 84  1  0
 31 85  1  0
 34 86  1  0
 36 87  1  0
 37 88  1  0
 38 89  1  0
 39 90  1  0
 42 91  1  0
 42 92  1  0
 42 93  1  0
 43 94  1  0
 43 95  1  0
 45 96  1  0
 46 97  1  0
 46 98  1  0
 46 99  1  0
 48100  1  0
 48101  1  0
 52102  1  0
 52103  1  0
 52104  1  0
M  END
$$$$
