
     RDKit          3D

 35 37  0  0  0  0  0  0  0  0999 V2000
   -5.2014    1.0614    1.7209 C   0  0  0  0  0  0  0  0  0  0  0  0
   -4.4632    0.3367    0.6341 C   0  0  0  0  0  0  0  0  0  0  0  0
   -5.1683   -0.2720   -0.4119 C   0  0  0  0  0  0  0  0  0  0  0  0
   -4.4822   -0.9139   -1.4460 C   0  0  0  0  0  0  0  0  0  0  0  0
   -5.4786   -1.7298   -2.8617 Br  0  0  0  0  0  0  0  0  0  0  0  0
   -3.0803   -0.9434   -1.4502 C   0  0  0  0  0  0  0  0  0  0  0  0
   -2.4158   -1.5517   -2.5106 O   0  0  0  0  0  1  0  0  0  0  0  0
   -2.3573   -0.3336   -0.4036 C   0  0  0  0  0  0  0  0  0  0  0  0
   -3.0611    0.3189    0.6245 C   0  0  0  0  0  0  0  0  0  0  0  0
   -0.8756   -0.3563   -0.3749 C   0  0  0  0  0  0  0  0  0  0  0  0
   -0.0665    0.6758    0.1035 C   0  0  0  0  0  0  0  0  0  0  0  0
    1.2236    0.2146   -0.0370 C   0  0  0  0  0  0  0  0  0  0  0  0
    2.4388    0.8179    0.2766 C   0  0  0  0  0  0  0  0  0  0  0  0
    3.6285    0.0951    0.0254 C   0  0  0  0  0  0  0  0  0  0  0  0
    3.5468   -1.2130   -0.5256 C   0  0  0  0  0  0  0  0  0  0  0  0
    2.3007   -1.7907   -0.8282 C   0  0  0  0  0  0  0  0  0  0  0  0
    1.1553   -1.0421   -0.5726 C   0  0  0  0  0  0  0  0  0  0  0  0
   -0.1203   -1.4067   -0.7824 N   0  0  0  0  0  0  0  0  0  0  0  0
    4.9454    0.6991    0.3481 C   0  0  0  0  0  0  0  0  0  0  0  0
    5.0876    1.5176    1.5153 N   0  0  0  0  0  0  0  0  0  0  0  0
    5.9733    0.5006   -0.4230 N   0  0  0  0  0  4  0  0  0  0  0  0
   -5.3336    2.1247    1.4313 H   0  0  0  0  0  0  0  0  0  0  0  0
   -4.6372    1.0135    2.6767 H   0  0  0  0  0  0  0  0  0  0  0  0
   -6.2000    0.6050    1.8897 H   0  0  0  0  0  0  0  0  0  0  0  0
   -6.2511   -0.2452   -0.4261 H   0  0  0  0  0  0  0  0  0  0  0  0
   -2.5200    0.7980    1.4317 H   0  0  0  0  0  0  0  0  0  0  0  0
   -0.3783    1.6355    0.4948 H   0  0  0  0  0  0  0  0  0  0  0  0
    2.4587    1.8203    0.6855 H   0  0  0  0  0  0  0  0  0  0  0  0
    4.4433   -1.7934   -0.7018 H   0  0  0  0  0  0  0  0  0  0  0  0
    2.2356   -2.7882   -1.2434 H   0  0  0  0  0  0  0  0  0  0  0  0
   -0.4503   -2.3279   -1.1467 H   0  0  0  0  0  0  0  0  0  0  0  0
    5.9954    1.9865    1.7316 H   0  0  0  0  0  0  0  0  0  0  0  0
    4.3055    1.6224    2.1987 H   0  0  0  0  0  0  0  0  0  0  0  0
    5.9017   -0.0586   -1.3021 H   0  0  0  0  0  0  0  0  0  0  0  0
    6.9010    0.9230   -0.1949 H   0  0  0  0  0  0  0  0  0  0  0  0
  1  2  1  0
  2  3  2  0
  3  4  1  0
  4  5  1  0
  4  6  2  0
  6  7  1  0
  6  8  1  0
  8  9  2  0
  8 10  1  0
 10 11  2  0
 11 12  1  0
 12 13  2  0
 13 14  1  0
 14 15  2  0
 15 16  1  0
 16 17  2  0
 17 18  1  0
 14 19  1  0
 19 20  1  0
 19 21  2  3
  9  2  1  0
 18 10  1  0
 17 12  1  0
  1 22  1  0
  1 23  1  0
  1 24  1  0
  3 25  1  0
  9 26  1  0
 11 27  1  0
 13 28  1  0
 15 29  1  0
 16 30  1  0
 18 31  1  0
 20 32  1  0
 20 33  1  0
 21 34  1  0
 21 35  1  0
M  CHG  2   7  -1  21   1
M  END
$$$$
