
     RDKit          3D

 55 57  0  0  0  0  0  0  0  0999 V2000
    0.6862   -0.1751    1.4688 C   0  0  2  0  0  0  0  0  0  0  0  0
    1.2948   -1.5690    1.6375 C   0  0  0  0  0  0  0  0  0  0  0  0
    0.3216   -2.5351    0.9661 C   0  0  0  0  0  0  0  0  0  0  0  0
   -1.0150   -1.8064    0.9026 C   0  0  0  0  0  0  0  0  0  0  0  0
   -0.7112   -0.4017    1.1275 N   0  0  0  0  0  0  0  0  0  0  0  0
   -1.6974    0.6466    1.0950 C   0  0  0  0  0  0  0  0  0  0  0  0
   -1.3579    1.8309    1.3674 O   0  0  0  0  0  0  0  0  0  0  0  0
   -3.1238    0.3484    0.7299 C   0  0  0  0  0  0  0  0  0  0  0  0
   -3.9008    1.5276    0.7973 O   0  0  0  0  0  0  0  0  0  0  0  0
   -5.2656    1.2313    0.5613 C   0  0  0  0  0  0  0  0  0  0  0  0
   -5.9892    2.4798    0.0858 C   0  0  0  0  0  0  0  0  0  0  0  0
   -7.4355    2.2934    0.5128 C   0  0  0  0  0  0  0  0  0  0  0  0
   -7.4073    1.3759    1.7319 C   0  0  0  0  0  0  0  0  0  0  0  0
   -5.9837    0.8372    1.8500 C   0  0  0  0  0  0  0  0  0  0  0  0
    1.3854    0.5981    0.3803 C   0  0  0  0  0  0  0  0  0  0  0  0
    2.1686    1.5337    0.6981 O   0  0  0  0  0  0  0  0  0  0  0  0
    1.2053    0.2473   -1.0004 N   0  0  0  0  0  0  0  0  0  0  0  0
    2.0410    0.8027   -2.0612 C   0  0  0  0  0  0  0  0  0  0  0  0
    3.4272    0.2238   -1.9807 C   0  0  0  0  0  0  0  0  0  0  0  0
    3.6377   -1.1320   -2.2707 C   0  0  0  0  0  0  0  0  0  0  0  0
    4.9164   -1.6866   -2.1674 C   0  0  0  0  0  0  0  0  0  0  0  0
    6.0074   -0.8940   -1.7676 C   0  0  0  0  0  0  0  0  0  0  0  0
    5.7914    0.4641   -1.4769 C   0  0  0  0  0  0  0  0  0  0  0  0
    4.5117    1.0172   -1.5787 C   0  0  0  0  0  0  0  0  0  0  0  0
    7.3695   -1.4744   -1.6577 C   0  0  0  0  0  0  0  0  0  0  0  0
    8.5139   -0.6982   -2.0219 N   0  0  0  0  0  0  0  0  0  0  0  0
    7.5460   -2.6838   -1.2235 N   0  0  0  0  0  0  0  0  0  0  0  0
    0.7515    0.3796    2.4319 H   0  0  0  0  0  0  0  0  0  0  0  0
    1.3577   -1.8129    2.7210 H   0  0  0  0  0  0  0  0  0  0  0  0
    2.3144   -1.6553    1.1992 H   0  0  0  0  0  0  0  0  0  0  0  0
    0.2380   -3.4858    1.5361 H   0  0  0  0  0  0  0  0  0  0  0  0
    0.6752   -2.7593   -0.0644 H   0  0  0  0  0  0  0  0  0  0  0  0
   -1.4875   -1.9485   -0.0932 H   0  0  0  0  0  0  0  0  0  0  0  0
   -1.6940   -2.1746    1.7019 H   0  0  0  0  0  0  0  0  0  0  0  0
   -3.5079   -0.4196    1.4380 H   0  0  0  0  0  0  0  0  0  0  0  0
   -3.1352   -0.0581   -0.3060 H   0  0  0  0  0  0  0  0  0  0  0  0
   -5.4117    0.4379   -0.2127 H   0  0  0  0  0  0  0  0  0  0  0  0
   -5.5707    3.3805    0.5889 H   0  0  0  0  0  0  0  0  0  0  0  0
   -5.9034    2.6037   -1.0157 H   0  0  0  0  0  0  0  0  0  0  0  0
   -8.0057    1.8073   -0.3096 H   0  0  0  0  0  0  0  0  0  0  0  0
   -7.9089    3.2704    0.7523 H   0  0  0  0  0  0  0  0  0  0  0  0
   -7.6810    1.9415    2.6496 H   0  0  0  0  0  0  0  0  0  0  0  0
   -8.1290    0.5401    1.5995 H   0  0  0  0  0  0  0  0  0  0  0  0
   -5.9841   -0.2667    1.9813 H   0  0  0  0  0  0  0  0  0  0  0  0
   -5.4814    1.3043    2.7264 H   0  0  0  0  0  0  0  0  0  0  0  0
    0.4895   -0.4669   -1.2616 H   0  0  0  0  0  0  0  0  0  0  0  0
    1.6010    0.5448   -3.0490 H   0  0  0  0  0  0  0  0  0  0  0  0
    2.0542    1.9121   -1.9885 H   0  0  0  0  0  0  0  0  0  0  0  0
    2.8094   -1.7598   -2.5760 H   0  0  0  0  0  0  0  0  0  0  0  0
    5.0527   -2.7309   -2.4179 H   0  0  0  0  0  0  0  0  0  0  0  0
    6.6077    1.0950   -1.1486 H   0  0  0  0  0  0  0  0  0  0  0  0
    4.3672    2.0628   -1.3367 H   0  0  0  0  0  0  0  0  0  0  0  0
    8.4119    0.2451   -2.4574 H   0  0  0  0  0  0  0  0  0  0  0  0
    9.4751   -1.0898   -1.9057 H   0  0  0  0  0  0  0  0  0  0  0  0
    6.7583   -3.2987   -0.9204 H   0  0  0  0  0  0  0  0  0  0  0  0
  1  2  1  0
  2  3  1  0
  3  4  1  0
  4  5  1  0
  5  6  1  0
  6  7  2  0
  6  8  1  0
  8  9  1  0
  9 10  1  0
 10 11  1  0
 11 12  1  0
 12 13  1  0
 13 14  1  0
  1 15  1  0
 15 16  2  0
 15 17  1  0
 17 18  1  0
 18 19  1  0
 19 20  2  0
 20 21  1  0
 21 22  2  0
 22 23  1  0
 23 24  2  0
 22 25  1  0
 25 26  1  0
 25 27  2  3
  5  1  1  0
 14 10  1  0
 24 19  1  0
  1 28  1  1
  2 29  1  0
  2 30  1  0
  3 31  1  0
  3 32  1  0
  4 33  1  0
  4 34  1  0
  8 35  1  0
  8 36  1  0
 10 37  1  0
 11 38  1  0
 11 39  1  0
 12 40  1  0
 12 41  1  0
 13 42  1  0
 13 43  1  0
 14 44  1  0
 14 45  1  0
 17 46  1  0
 18 47  1  0
 18 48  1  0
 20 49  1  0
 21 50  1  0
 23 51  1  0
 24 52  1  0
 26 53  1  0
 26 54  1  0
 27 55  1  0
M  END
$$$$
