
     RDKit          3D

103105  0  0  0  0  0  0  0  0999 V2000
   -0.4642    4.6546   -3.5857 C   0  0  0  0  0  0  0  0  0  0  0  0
    0.5565    4.6132   -2.5939 O   0  0  0  0  0  0  0  0  0  0  0  0
    1.4310    3.5333   -2.4029 C   0  0  0  0  0  0  0  0  0  0  0  0
    1.4155    2.3927   -3.2289 C   0  0  0  0  0  0  0  0  0  0  0  0
    2.2911    1.3312   -2.9812 C   0  0  0  0  0  0  0  0  0  0  0  0
    3.2000    1.3955   -1.9137 C   0  0  0  0  0  0  0  0  0  0  0  0
    4.1219    0.2377   -1.6222 C   0  0  0  0  0  0  0  0  0  0  0  0
    3.5166   -0.7212   -0.5807 C   0  0  2  0  0  0  0  0  0  0  0  0
    4.5201   -1.7034   -0.1657 N   0  0  0  0  0  0  0  0  0  0  0  0
    4.5679   -2.2413    1.1641 C   0  0  0  0  0  0  0  0  0  0  0  0
    3.7952   -1.8012    2.0583 O   0  0  0  0  0  0  0  0  0  0  0  0
    5.5547   -3.3224    1.5080 C   0  0  0  0  0  0  0  0  0  0  0  0
    6.9240   -2.7787    2.0084 C   0  0  0  0  0  0  0  0  0  0  0  0
    7.6171   -1.9366    0.9171 C   0  0  0  0  0  0  0  0  0  0  0  0
    7.8334   -3.9729    2.3520 C   0  0  0  0  0  0  0  0  0  0  0  0
    6.7585   -1.9619    3.2195 N   0  0  0  0  0  0  0  0  0  0  0  0
    2.3192   -1.4454   -1.1371 C   0  0  0  0  0  0  0  0  0  0  0  0
    2.4695   -2.2320   -2.1120 O   0  0  0  0  0  0  0  0  0  0  0  0
    1.0196   -1.2455   -0.5602 N   0  0  0  0  0  0  0  0  0  0  0  0
   -0.1732   -1.9630   -1.0234 C   0  0  1  0  0  0  0  0  0  0  0  0
   -0.5406   -3.0902   -0.0445 C   0  0  0  0  0  0  0  0  0  0  0  0
    0.5502   -4.1165    0.0294 C   0  0  0  0  0  0  0  0  0  0  0  0
    0.8058   -5.1075   -0.8912 C   0  0  0  0  0  0  0  0  0  0  0  0
    1.9210   -5.7710   -0.5260 N   0  0  0  0  0  0  0  0  0  0  0  0
    2.3187   -5.1578    0.6099 C   0  0  0  0  0  0  0  0  0  0  0  0
    1.5082   -4.1448    0.9682 N   0  0  0  0  0  0  0  0  0  0  0  0
   -1.3152   -0.9950   -1.1840 C   0  0  0  0  0  0  0  0  0  0  0  0
   -1.8005   -0.8067   -2.3327 O   0  0  0  0  0  0  0  0  0  0  0  0
   -1.8309   -0.2721   -0.0527 N   0  0  0  0  0  0  0  0  0  0  0  0
   -2.7621    0.8530   -0.1859 C   0  0  1  0  0  0  0  0  0  0  0  0
   -3.9077    0.7286    0.8525 C   0  0  0  0  0  0  0  0  0  0  0  0
   -4.7429   -0.5826    0.8198 C   0  0  0  0  0  0  0  0  0  0  0  0
   -5.0982   -1.0540   -0.6050 C   0  0  0  0  0  0  0  0  0  0  0  0
   -6.1209   -2.2078   -0.5813 C   0  0  0  0  0  0  0  0  0  0  0  0
   -5.9811   -3.1308    0.6473 C   0  0  0  0  0  0  0  0  0  0  0  0
   -4.5536   -3.1311    1.2031 C   0  0  0  0  0  0  0  0  0  0  0  0
   -4.1292   -1.7262    1.6731 C   0  0  0  0  0  0  0  0  0  0  0  0
   -1.9531    2.1754   -0.0329 C   0  0  1  0  0  0  0  0  0  0  0  0
   -0.8996    2.1567   -0.9649 O   0  0  0  0  0  0  0  0  0  0  0  0
   -2.7596    3.4930   -0.2619 C   0  0  1  0  0  0  0  0  0  0  0  0
   -3.7945    3.2960   -1.1917 O   0  0  0  0  0  0  0  0  0  0  0  0
   -3.3317    4.0968    1.0469 C   0  0  0  0  0  0  0  0  0  0  0  0
   -3.5810    5.6231    0.9634 C   0  0  0  0  0  0  0  0  0  0  0  0
   -4.6668    5.9806   -0.0626 C   0  0  0  0  0  0  0  0  0  0  0  0
   -3.9724    6.1667    2.3443 C   0  0  0  0  0  0  0  0  0  0  0  0
    3.2103    2.5303   -1.0884 C   0  0  0  0  0  0  0  0  0  0  0  0
    2.3368    3.5922   -1.3379 C   0  0  0  0  0  0  0  0  0  0  0  0
   -1.0229    5.6081   -3.4912 H   0  0  0  0  0  0  0  0  0  0  0  0
   -1.1727    3.8122   -3.4395 H   0  0  0  0  0  0  0  0  0  0  0  0
   -0.0138    4.6037   -4.5993 H   0  0  0  0  0  0  0  0  0  0  0  0
    0.7245    2.3123   -4.0567 H   0  0  0  0  0  0  0  0  0  0  0  0
    2.2569    0.4565   -3.6189 H   0  0  0  0  0  0  0  0  0  0  0  0
    5.0868    0.6322   -1.2336 H   0  0  0  0  0  0  0  0  0  0  0  0
    4.3596   -0.3113   -2.5604 H   0  0  0  0  0  0  0  0  0  0  0  0
    3.2136   -0.1129    0.3003 H   0  0  0  0  0  0  0  0  0  0  0  0
    5.1333   -2.1308   -0.8971 H   0  0  0  0  0  0  0  0  0  0  0  0
    5.7086   -3.9647    0.6132 H   0  0  0  0  0  0  0  0  0  0  0  0
    5.1043   -3.9735    2.2895 H   0  0  0  0  0  0  0  0  0  0  0  0
    8.6241   -1.6133    1.2584 H   0  0  0  0  0  0  0  0  0  0  0  0
    7.7333   -2.5252   -0.0185 H   0  0  0  0  0  0  0  0  0  0  0  0
    7.0315   -1.0214    0.6880 H   0  0  0  0  0  0  0  0  0  0  0  0
    8.8144   -3.6176    2.7350 H   0  0  0  0  0  0  0  0  0  0  0  0
    8.0126   -4.6036    1.4543 H   0  0  0  0  0  0  0  0  0  0  0  0
    7.3666   -4.6058    3.1374 H   0  0  0  0  0  0  0  0  0  0  0  0
    6.2033   -2.4952    3.9285 H   0  0  0  0  0  0  0  0  0  0  0  0
    6.2214   -1.0928    2.9960 H   0  0  0  0  0  0  0  0  0  0  0  0
    0.9430   -0.6473    0.2933 H   0  0  0  0  0  0  0  0  0  0  0  0
    0.0196   -2.4224   -2.0191 H   0  0  0  0  0  0  0  0  0  0  0  0
   -1.4750   -3.5874   -0.3838 H   0  0  0  0  0  0  0  0  0  0  0  0
   -0.7214   -2.6810    0.9723 H   0  0  0  0  0  0  0  0  0  0  0  0
    0.2287   -5.3243   -1.7803 H   0  0  0  0  0  0  0  0  0  0  0  0
    3.2004   -5.4456    1.1666 H   0  0  0  0  0  0  0  0  0  0  0  0
    1.6129   -3.5113    1.7912 H   0  0  0  0  0  0  0  0  0  0  0  0
   -1.3605   -0.3965    0.8717 H   0  0  0  0  0  0  0  0  0  0  0  0
   -3.2171    0.8444   -1.1990 H   0  0  0  0  0  0  0  0  0  0  0  0
   -3.5082    0.8893    1.8779 H   0  0  0  0  0  0  0  0  0  0  0  0
   -4.6286    1.5443    0.6496 H   0  0  0  0  0  0  0  0  0  0  0  0
   -5.7132   -0.3284    1.3070 H   0  0  0  0  0  0  0  0  0  0  0  0
   -4.1806   -1.4094   -1.1187 H   0  0  0  0  0  0  0  0  0  0  0  0
   -5.5167   -0.2093   -1.1947 H   0  0  0  0  0  0  0  0  0  0  0  0
   -7.1500   -1.7870   -0.5946 H   0  0  0  0  0  0  0  0  0  0  0  0
   -5.9993   -2.8081   -1.5094 H   0  0  0  0  0  0  0  0  0  0  0  0
   -6.6773   -2.7930    1.4465 H   0  0  0  0  0  0  0  0  0  0  0  0
   -6.2708   -4.1668    0.3678 H   0  0  0  0  0  0  0  0  0  0  0  0
   -4.4845   -3.8431    2.0537 H   0  0  0  0  0  0  0  0  0  0  0  0
   -3.8578   -3.4851    0.4114 H   0  0  0  0  0  0  0  0  0  0  0  0
   -3.0249   -1.6898    1.6806 H   0  0  0  0  0  0  0  0  0  0  0  0
   -4.4510   -1.5888    2.7289 H   0  0  0  0  0  0  0  0  0  0  0  0
   -1.5193    2.1946    0.9956 H   0  0  0  0  0  0  0  0  0  0  0  0
   -0.1176    1.7274   -0.5279 H   0  0  0  0  0  0  0  0  0  0  0  0
   -2.0464    4.2493   -0.6698 H   0  0  0  0  0  0  0  0  0  0  0  0
   -3.3679    3.2270   -2.0856 H   0  0  0  0  0  0  0  0  0  0  0  0
   -2.6079    3.9246    1.8729 H   0  0  0  0  0  0  0  0  0  0  0  0
   -4.2769    3.5941    1.3340 H   0  0  0  0  0  0  0  0  0  0  0  0
   -2.6360    6.1278    0.6626 H   0  0  0  0  0  0  0  0  0  0  0  0
   -5.5965    5.4039    0.1315 H   0  0  0  0  0  0  0  0  0  0  0  0
   -4.9030    7.0651   -0.0131 H   0  0  0  0  0  0  0  0  0  0  0  0
   -4.3126    5.7715   -1.0928 H   0  0  0  0  0  0  0  0  0  0  0  0
   -4.9186    5.7008    2.6948 H   0  0  0  0  0  0  0  0  0  0  0  0
   -3.1715    5.9530    3.0840 H   0  0  0  0  0  0  0  0  0  0  0  0
   -4.1096    7.2684    2.3005 H   0  0  0  0  0  0  0  0  0  0  0  0
    3.8929    2.5907   -0.2498 H   0  0  0  0  0  0  0  0  0  0  0  0
    2.3540    4.4607   -0.6916 H   0  0  0  0  0  0  0  0  0  0  0  0
  1  2  1  0
  2  3  1  0
  3  4  2  0
  4  5  1  0
  5  6  2  0
  6  7  1  0
  7  8  1  0
  8  9  1  0
  9 10  1  0
 10 11  2  0
 10 12  1  0
 12 13  1  0
 13 14  1  0
 13 15  1  0
 13 16  1  0
  8 17  1  0
 17 18  2  0
 17 19  1  0
 19 20  1  0
 20 21  1  0
 21 22  1  0
 22 23  2  0
 23 24  1  0
 24 25  2  0
 25 26  1  0
 20 27  1  0
 27 28  2  0
 27 29  1  0
 29 30  1  0
 30 31  1  0
 31 32  1  0
 32 33  1  0
 33 34  1  0
 34 35  1  0
 35 36  1  0
 36 37  1  0
 30 38  1  0
 38 39  1  0
 38 40  1  0
 40 41  1  0
 40 42  1  0
 42 43  1  0
 43 44  1  0
 43 45  1  0
  6 46  1  0
 46 47  2  0
 47  3  1  0
 26 22  1  0
 37 32  1  0
  1 48  1  0
  1 49  1  0
  1 50  1  0
  4 51  1  0
  5 52  1  0
  7 53  1  0
  7 54  1  0
  8 55  1  1
  9 56  1  0
 12 57  1  0
 12 58  1  0
 14 59  1  0
 14 60  1  0
 14 61  1  0
 15 62  1  0
 15 63  1  0
 15 64  1  0
 16 65  1  0
 16 66  1  0
 19 67  1  0
 20 68  1  6
 21 69  1  0
 21 70  1  0
 23 71  1  0
 25 72  1  0
 26 73  1  0
 29 74  1  0
 30 75  1  6
 31 76  1  0
 31 77  1  0
 32 78  1  0
 33 79  1  0
 33 80  1  0
 34 81  1  0
 34 82  1  0
 35 83  1  0
 35 84  1  0
 36 85  1  0
 36 86  1  0
 37 87  1  0
 37 88  1  0
 38 89  1  1
 39 90  1  0
 40 91  1  6
 41 92  1  0
 42 93  1  0
 42 94  1  0
 43 95  1  0
 44 96  1  0
 44 97  1  0
 44 98  1  0
 45 99  1  0
 45100  1  0
 45101  1  0
 46102  1  0
 47103  1  0
M  END
$$$$
