
     RDKit          3D

 31 33  0  0  0  0  0  0  0  0999 V2000
   -6.0403    0.7368   -0.7206 O   0  0  0  0  0  0  0  0  0  0  0  0
   -4.6871    0.4827   -0.5092 C   0  0  0  0  0  0  0  0  0  0  0  0
   -3.7500    0.8960   -1.4607 C   0  0  0  0  0  0  0  0  0  0  0  0
   -2.3885    0.6472   -1.2621 C   0  0  0  0  0  0  0  0  0  0  0  0
   -1.9495   -0.0333   -0.1140 C   0  0  0  0  0  0  0  0  0  0  0  0
   -2.8954   -0.4287    0.8496 C   0  0  0  0  0  0  0  0  0  0  0  0
   -4.2562   -0.1776    0.6486 C   0  0  0  0  0  0  0  0  0  0  0  0
   -0.5007   -0.2638    0.0862 C   0  0  0  0  0  0  0  0  0  0  0  0
    0.0029   -1.4809    0.5765 C   0  0  0  0  0  0  0  0  0  0  0  0
   -0.8658   -2.5381    0.8612 O   0  0  0  0  0  0  0  0  0  0  0  0
    1.3884   -1.6226    0.7541 C   0  0  0  0  0  0  0  0  0  0  0  0
    1.8253   -2.6872    1.2635 O   0  0  0  0  0  0  0  0  0  0  0  0
    2.2582   -0.5672    0.3866 C   0  0  0  0  0  0  0  0  0  0  0  0
    1.6545    0.6285   -0.0838 C   0  0  0  0  0  0  0  0  0  0  0  0
    0.3371    0.7198   -0.2191 O   0  0  0  0  0  0  0  0  0  0  0  0
    2.4359    1.7411   -0.4046 C   0  0  0  0  0  0  0  0  0  0  0  0
    3.8197    1.6993   -0.2567 C   0  0  0  0  0  0  0  0  0  0  0  0
    4.5779    2.8275   -0.5622 O   0  0  0  0  0  0  0  0  0  0  0  0
    4.4346    0.5267    0.1882 C   0  0  0  0  0  0  0  0  0  0  0  0
    3.6823   -0.6177    0.4809 C   0  0  0  0  0  0  0  0  0  0  0  0
    4.4040   -1.7634    0.8294 O   0  0  0  0  0  0  0  0  0  0  0  0
   -6.7437    0.4513   -0.0492 H   0  0  0  0  0  0  0  0  0  0  0  0
   -4.0767    1.4122   -2.3545 H   0  0  0  0  0  0  0  0  0  0  0  0
   -1.6777    0.9756   -2.0107 H   0  0  0  0  0  0  0  0  0  0  0  0
   -2.5833   -0.9080    1.7685 H   0  0  0  0  0  0  0  0  0  0  0  0
   -4.9735   -0.4887    1.3974 H   0  0  0  0  0  0  0  0  0  0  0  0
   -0.5391   -3.4330    1.2053 H   0  0  0  0  0  0  0  0  0  0  0  0
    1.9619    2.6491   -0.7574 H   0  0  0  0  0  0  0  0  0  0  0  0
    5.5868    2.8297   -0.4677 H   0  0  0  0  0  0  0  0  0  0  0  0
    5.5134    0.4917    0.2793 H   0  0  0  0  0  0  0  0  0  0  0  0
    4.0445   -2.7050    0.7968 H   0  0  0  0  0  0  0  0  0  0  0  0
  1  2  1  0
  2  3  2  0
  3  4  1  0
  4  5  2  0
  5  6  1  0
  6  7  2  0
  5  8  1  0
  8  9  2  0
  9 10  1  0
  9 11  1  0
 11 12  2  0
 11 13  1  0
 13 14  2  0
 14 15  1  0
 14 16  1  0
 16 17  2  0
 17 18  1  0
 17 19  1  0
 19 20  2  0
 20 21  1  0
  7  2  1  0
 15  8  1  0
 20 13  1  0
  1 22  1  0
  3 23  1  0
  4 24  1  0
  6 25  1  0
  7 26  1  0
 10 27  1  0
 16 28  1  0
 18 29  1  0
 19 30  1  0
 21 31  1  0
M  END
$$$$
