
     RDKit          3D

 40 41  0  0  0  0  0  0  0  0999 V2000
    7.0711   -1.1725    0.1730 C   0  0  0  0  0  0  0  0  0  0  0  0
    6.8711    0.3383    0.2076 C   0  0  0  0  0  0  0  0  0  0  0  0
    5.7159    0.7108   -0.5416 O   0  0  0  0  0  0  0  0  0  0  0  0
    4.4070    0.5249   -0.0833 C   0  0  0  0  0  0  0  0  0  0  0  0
    4.1934    0.0684    1.0737 O   0  0  0  0  0  0  0  0  0  0  0  0
    3.3122    0.8945   -0.9308 N   0  0  0  0  0  0  0  0  0  0  0  0
    1.9387    0.6009   -0.6232 C   0  0  0  0  0  0  0  0  0  0  0  0
    0.9276    1.5610   -0.8472 C   0  0  0  0  0  0  0  0  0  0  0  0
    1.2456    2.8860   -1.2936 N   0  0  0  0  0  0  0  0  0  0  0  0
   -0.4135    1.2291   -0.5969 C   0  0  0  0  0  0  0  0  0  0  0  0
   -0.7650   -0.0485   -0.1229 C   0  0  0  0  0  0  0  0  0  0  0  0
   -2.1336   -0.4103    0.1436 N   0  0  0  0  0  0  0  0  0  0  0  0
   -3.2603    0.5045   -0.0517 C   0  0  0  0  0  0  0  0  0  0  0  0
   -4.5579   -0.1662    0.3116 C   0  0  0  0  0  0  0  0  0  0  0  0
   -5.2700   -0.8996   -0.6518 C   0  0  0  0  0  0  0  0  0  0  0  0
   -6.4561   -1.5536   -0.3036 C   0  0  0  0  0  0  0  0  0  0  0  0
   -6.9324   -1.4897    1.0092 C   0  0  0  0  0  0  0  0  0  0  0  0
   -8.0815   -2.1259    1.3454 F   0  0  0  0  0  0  0  0  0  0  0  0
   -6.2199   -0.7752    1.9769 C   0  0  0  0  0  0  0  0  0  0  0  0
   -5.0335   -0.1200    1.6325 C   0  0  0  0  0  0  0  0  0  0  0  0
    0.2468   -0.9933    0.0931 C   0  0  0  0  0  0  0  0  0  0  0  0
    1.5819   -0.6753   -0.1585 C   0  0  0  0  0  0  0  0  0  0  0  0
    7.1530   -1.5198   -0.8786 H   0  0  0  0  0  0  0  0  0  0  0  0
    8.0041   -1.4379    0.7134 H   0  0  0  0  0  0  0  0  0  0  0  0
    6.2179   -1.6879    0.6613 H   0  0  0  0  0  0  0  0  0  0  0  0
    7.7593    0.8258   -0.2468 H   0  0  0  0  0  0  0  0  0  0  0  0
    6.7832    0.6926    1.2577 H   0  0  0  0  0  0  0  0  0  0  0  0
    3.5335    1.4140   -1.8094 H   0  0  0  0  0  0  0  0  0  0  0  0
    2.2299    3.2221   -1.3730 H   0  0  0  0  0  0  0  0  0  0  0  0
    0.4861    3.5736   -1.4973 H   0  0  0  0  0  0  0  0  0  0  0  0
   -1.1743    1.9784   -0.7680 H   0  0  0  0  0  0  0  0  0  0  0  0
   -2.3267   -1.3771    0.4946 H   0  0  0  0  0  0  0  0  0  0  0  0
   -3.2933    0.8306   -1.1142 H   0  0  0  0  0  0  0  0  0  0  0  0
   -3.1177    1.4085    0.5796 H   0  0  0  0  0  0  0  0  0  0  0  0
   -4.9065   -0.9656   -1.6699 H   0  0  0  0  0  0  0  0  0  0  0  0
   -7.0032   -2.1130   -1.0516 H   0  0  0  0  0  0  0  0  0  0  0  0
   -6.5841   -0.7317    2.9953 H   0  0  0  0  0  0  0  0  0  0  0  0
   -4.4857    0.4215    2.3939 H   0  0  0  0  0  0  0  0  0  0  0  0
   -0.0006   -1.9855    0.4491 H   0  0  0  0  0  0  0  0  0  0  0  0
    2.3374   -1.4369   -0.0136 H   0  0  0  0  0  0  0  0  0  0  0  0
  1  2  1  0
  2  3  1  0
  3  4  1  0
  4  5  2  0
  4  6  1  0
  6  7  1  0
  7  8  2  0
  8  9  1  0
  8 10  1  0
 10 11  2  0
 11 12  1  0
 12 13  1  0
 13 14  1  0
 14 15  2  0
 15 16  1  0
 16 17  2  0
 17 18  1  0
 17 19  1  0
 19 20  2  0
 11 21  1  0
 21 22  2  0
 22  7  1  0
 20 14  1  0
  1 23  1  0
  1 24  1  0
  1 25  1  0
  2 26  1  0
  2 27  1  0
  6 28  1  0
  9 29  1  0
  9 30  1  0
 10 31  1  0
 12 32  1  0
 13 33  1  0
 13 34  1  0
 15 35  1  0
 16 36  1  0
 19 37  1  0
 20 38  1  0
 21 39  1  0
 22 40  1  0
M  END
$$$$
