
     RDKit          3D

 26 26  0  0  0  0  0  0  0  0999 V2000
   -1.7484   -0.4164   -1.8738 O   0  0  0  0  0  0  0  0  0  0  0  0
   -0.9409   -0.1588   -0.7522 C   0  0  0  0  0  0  0  0  0  0  0  0
    0.5197    0.0662   -1.2343 C   0  0  0  0  0  0  0  0  0  0  0  0
    1.4915    0.2210   -0.1475 N   0  0  0  0  0  0  0  0  0  0  0  0
    2.2324   -0.7475    0.4176 C   0  0  0  0  0  0  0  0  0  0  0  0
    3.0861   -0.1578    1.3212 C   0  0  0  0  0  0  0  0  0  0  0  0
    2.9038    1.1782    1.3092 N   0  0  0  0  0  0  0  0  0  0  0  0
    1.9308    1.3740    0.3952 C   0  0  0  0  0  0  0  0  0  0  0  0
   -1.0689   -1.6234    0.3413 P   0  0  0  0  0  5  0  0  0  0  0  0
   -0.3036   -2.9469   -0.3848 O   0  0  0  0  0  0  0  0  0  0  0  0
   -2.7030   -1.9943    0.5804 O   0  0  0  0  0  0  0  0  0  0  0  0
   -0.4266   -1.3493    1.6825 O   0  0  0  0  0  0  0  0  0  0  0  0
   -1.6148    1.3083    0.1270 P   0  0  0  0  0  5  0  0  0  0  0  0
   -1.4947    2.6763   -0.8636 O   0  0  0  0  0  0  0  0  0  0  0  0
   -0.7863    1.5779    1.5783 O   0  0  0  0  0  0  0  0  0  0  0  0
   -3.0747    1.0672    0.4382 O   0  0  0  0  0  0  0  0  0  0  0  0
   -1.7163    0.3819   -2.4638 H   0  0  0  0  0  0  0  0  0  0  0  0
    0.5602    0.9643   -1.8887 H   0  0  0  0  0  0  0  0  0  0  0  0
    0.8247   -0.7932   -1.8713 H   0  0  0  0  0  0  0  0  0  0  0  0
    2.1708   -1.8013    0.1802 H   0  0  0  0  0  0  0  0  0  0  0  0
    3.8112   -0.6686    1.9403 H   0  0  0  0  0  0  0  0  0  0  0  0
    1.5649    2.3532    0.1189 H   0  0  0  0  0  0  0  0  0  0  0  0
   -0.8111   -3.1051   -1.2203 H   0  0  0  0  0  0  0  0  0  0  0  0
   -2.6974   -2.8334    1.1062 H   0  0  0  0  0  0  0  0  0  0  0  0
   -0.5635    2.9924   -0.7559 H   0  0  0  0  0  0  0  0  0  0  0  0
   -1.1462    2.4349    1.9197 H   0  0  0  0  0  0  0  0  0  0  0  0
  1  2  1  0
  2  3  1  0
  3  4  1  0
  4  5  1  0
  5  6  2  0
  6  7  1  0
  7  8  2  0
  2  9  1  0
  9 10  1  0
  9 11  1  0
  9 12  2  0
  2 13  1  0
 13 14  1  0
 13 15  1  0
 13 16  2  0
  8  4  1  0
  1 17  1  0
  3 18  1  0
  3 19  1  0
  5 20  1  0
  6 21  1  0
  8 22  1  0
 10 23  1  0
 11 24  1  0
 14 25  1  0
 15 26  1  0
M  END
$$$$
