
     RDKit          3D

 37 37  0  0  0  0  0  0  0  0999 V2000
    3.8245    0.9469   -0.1290 C   0  0  0  0  0  0  0  0  0  0  0  0
    2.8480   -0.1604    0.3313 C   0  0  0  0  0  0  0  0  0  0  0  0
    3.0665   -1.4466   -0.4959 C   0  0  0  0  0  0  0  0  0  0  0  0
    3.1514   -0.4922    1.8062 C   0  0  0  0  0  0  0  0  0  0  0  0
    1.4376    0.2932    0.2557 N   0  0  0  0  0  0  0  0  0  0  0  0
    0.9096    0.5769   -1.0944 C   0  0  0  0  0  0  0  0  0  0  0  0
   -0.1513   -0.4610   -1.4802 C   0  0  0  0  0  0  0  0  0  0  0  0
   -0.6294   -0.1699   -2.7676 O   0  0  0  0  0  0  0  0  0  0  0  0
   -1.2925   -0.4448   -0.4930 C   0  0  0  0  0  0  0  0  0  0  0  0
   -2.2374    0.5328   -0.5686 N   0  0  0  0  0  0  0  0  0  0  0  0
   -3.2658    0.6245    0.3204 C   0  0  0  0  0  0  0  0  0  0  0  0
   -4.2995    1.7030    0.1570 C   0  0  0  0  0  0  0  0  0  0  0  0
   -3.8096    2.7298   -0.6611 O   0  0  0  0  0  0  0  0  0  0  0  0
   -3.3785   -0.3285    1.3476 C   0  0  0  0  0  0  0  0  0  0  0  0
   -4.4397   -0.2738    2.2508 O   0  0  0  0  0  0  0  0  0  0  0  0
   -2.4107   -1.3341    1.4532 C   0  0  0  0  0  0  0  0  0  0  0  0
   -1.3603   -1.3921    0.5375 C   0  0  0  0  0  0  0  0  0  0  0  0
    3.7381    1.1510   -1.2152 H   0  0  0  0  0  0  0  0  0  0  0  0
    3.6284    1.8918    0.4218 H   0  0  0  0  0  0  0  0  0  0  0  0
    4.8757    0.6427    0.0653 H   0  0  0  0  0  0  0  0  0  0  0  0
    2.3329   -2.2260   -0.1974 H   0  0  0  0  0  0  0  0  0  0  0  0
    2.9609   -1.2610   -1.5842 H   0  0  0  0  0  0  0  0  0  0  0  0
    4.0894   -1.8485   -0.3295 H   0  0  0  0  0  0  0  0  0  0  0  0
    2.4523   -1.2723    2.1782 H   0  0  0  0  0  0  0  0  0  0  0  0
    3.0311    0.4107    2.4433 H   0  0  0  0  0  0  0  0  0  0  0  0
    4.1916   -0.8656    1.9270 H   0  0  0  0  0  0  0  0  0  0  0  0
    1.3197    1.1516    0.8455 H   0  0  0  0  0  0  0  0  0  0  0  0
    0.4446    1.5893   -1.1126 H   0  0  0  0  0  0  0  0  0  0  0  0
    1.6985    0.5882   -1.8723 H   0  0  0  0  0  0  0  0  0  0  0  0
    0.3291   -1.4666   -1.4923 H   0  0  0  0  0  0  0  0  0  0  0  0
   -1.1218   -0.9744   -3.0790 H   0  0  0  0  0  0  0  0  0  0  0  0
   -5.2102    1.2585   -0.3017 H   0  0  0  0  0  0  0  0  0  0  0  0
   -4.5626    2.1232    1.1535 H   0  0  0  0  0  0  0  0  0  0  0  0
   -4.5439    3.3928   -0.7402 H   0  0  0  0  0  0  0  0  0  0  0  0
   -4.5362   -0.9523    2.9972 H   0  0  0  0  0  0  0  0  0  0  0  0
   -2.4721   -2.0707    2.2442 H   0  0  0  0  0  0  0  0  0  0  0  0
   -0.6086   -2.1661    0.6305 H   0  0  0  0  0  0  0  0  0  0  0  0
  1  2  1  0
  2  3  1  0
  2  4  1  0
  2  5  1  0
  5  6  1  0
  6  7  1  0
  7  8  1  0
  7  9  1  0
  9 10  2  0
 10 11  1  0
 11 12  1  0
 12 13  1  0
 11 14  2  0
 14 15  1  0
 14 16  1  0
 16 17  2  0
 17  9  1  0
  1 18  1  0
  1 19  1  0
  1 20  1  0
  3 21  1  0
  3 22  1  0
  3 23  1  0
  4 24  1  0
  4 25  1  0
  4 26  1  0
  5 27  1  0
  6 28  1  0
  6 29  1  0
  7 30  1  0
  8 31  1  0
 12 32  1  0
 12 33  1  0
 13 34  1  0
 15 35  1  0
 16 36  1  0
 17 37  1  0
M  END
$$$$
