
     RDKit          3D

 44 46  0  0  0  0  0  0  0  0999 V2000
    2.9307    1.8195   -1.4273 C   0  0  0  0  0  0  0  0  0  0  0  0
    2.7952    0.8490   -0.2832 C   0  0  0  0  0  0  0  0  0  0  0  0
    3.4620    1.1279    0.9190 C   0  0  0  0  0  0  0  0  0  0  0  0
    3.4106    0.2277    1.9821 C   0  0  0  0  0  0  0  0  0  0  0  0
    2.7005   -0.9651    1.8562 C   0  0  0  0  0  0  0  0  0  0  0  0
    1.9951   -1.2533    0.6787 C   0  0  0  0  0  0  0  0  0  0  0  0
    1.2907   -2.5792    0.5697 C   0  0  0  0  0  0  0  0  0  0  0  0
    2.0041   -0.3225   -0.3853 C   0  0  0  0  0  0  0  0  0  0  0  0
    1.2854   -0.6171   -1.5935 N   0  0  0  0  0  0  0  0  0  0  0  0
    0.2057   -0.0188   -2.0161 C   0  0  0  0  0  0  0  0  0  0  0  0
   -0.3329   -0.4043   -3.2403 O   0  0  0  0  0  0  0  0  0  0  0  0
   -0.5011    1.0704   -1.2320 C   0  0  0  0  0  0  0  0  0  0  0  0
   -1.7244    0.5647   -0.4148 C   0  0  0  0  0  0  0  0  0  0  0  0
   -2.8353    0.0035   -1.3374 C   0  0  0  0  0  0  0  0  0  0  0  0
   -2.8649   -1.4809   -1.0453 C   0  0  0  0  0  0  0  0  0  0  0  0
   -2.3105   -1.5816    0.3581 C   0  0  0  0  0  0  0  0  0  0  0  0
   -1.2994   -0.5220    0.4802 N   0  0  0  0  0  0  0  0  0  0  0  0
   -1.1898    0.0234    1.8473 C   0  0  0  0  0  0  0  0  0  0  0  0
   -1.4983    1.5106    1.7899 C   0  0  0  0  0  0  0  0  0  0  0  0
   -2.2484    1.6938    0.4921 C   0  0  0  0  0  0  0  0  0  0  0  0
    3.9465    2.2690   -1.4341 H   0  0  0  0  0  0  0  0  0  0  0  0
    2.7880    1.3160   -2.4058 H   0  0  0  0  0  0  0  0  0  0  0  0
    2.1861    2.6350   -1.3217 H   0  0  0  0  0  0  0  0  0  0  0  0
    4.0415    2.0368    1.0263 H   0  0  0  0  0  0  0  0  0  0  0  0
    3.9418    0.4452    2.8997 H   0  0  0  0  0  0  0  0  0  0  0  0
    2.6992   -1.6678    2.6805 H   0  0  0  0  0  0  0  0  0  0  0  0
    0.5525   -2.5974   -0.2573 H   0  0  0  0  0  0  0  0  0  0  0  0
    0.7457   -2.7991    1.5124 H   0  0  0  0  0  0  0  0  0  0  0  0
    2.0394   -3.3790    0.3917 H   0  0  0  0  0  0  0  0  0  0  0  0
    0.0975   -1.1339   -3.7962 H   0  0  0  0  0  0  0  0  0  0  0  0
    0.2052    1.5793   -0.5483 H   0  0  0  0  0  0  0  0  0  0  0  0
   -0.8401    1.8478   -1.9508 H   0  0  0  0  0  0  0  0  0  0  0  0
   -2.6508    0.1906   -2.4162 H   0  0  0  0  0  0  0  0  0  0  0  0
   -3.8347    0.4321   -1.1064 H   0  0  0  0  0  0  0  0  0  0  0  0
   -2.1955   -2.0200   -1.7514 H   0  0  0  0  0  0  0  0  0  0  0  0
   -3.8937   -1.8968   -1.1128 H   0  0  0  0  0  0  0  0  0  0  0  0
   -3.1547   -1.4399    1.0719 H   0  0  0  0  0  0  0  0  0  0  0  0
   -1.8489   -2.5767    0.5301 H   0  0  0  0  0  0  0  0  0  0  0  0
   -1.8722   -0.4749    2.5718 H   0  0  0  0  0  0  0  0  0  0  0  0
   -0.1551   -0.1276    2.2188 H   0  0  0  0  0  0  0  0  0  0  0  0
   -0.5513    2.0940    1.7637 H   0  0  0  0  0  0  0  0  0  0  0  0
   -2.1056    1.8374    2.6621 H   0  0  0  0  0  0  0  0  0  0  0  0
   -3.3331    1.5770    0.7097 H   0  0  0  0  0  0  0  0  0  0  0  0
   -2.0826    2.7069    0.0640 H   0  0  0  0  0  0  0  0  0  0  0  0
  1  2  1  0
  2  3  2  0
  3  4  1  0
  4  5  2  0
  5  6  1  0
  6  7  1  0
  6  8  2  0
  8  9  1  0
  9 10  2  3
 10 11  1  0
 10 12  1  0
 12 13  1  0
 13 14  1  0
 14 15  1  0
 15 16  1  0
 16 17  1  0
 17 18  1  0
 18 19  1  0
 19 20  1  0
  8  2  1  0
 17 13  1  0
 20 13  1  0
  1 21  1  0
  1 22  1  0
  1 23  1  0
  3 24  1  0
  4 25  1  0
  5 26  1  0
  7 27  1  0
  7 28  1  0
  7 29  1  0
 11 30  1  0
 12 31  1  0
 12 32  1  0
 14 33  1  0
 14 34  1  0
 15 35  1  0
 15 36  1  0
 16 37  1  0
 16 38  1  0
 18 39  1  0
 18 40  1  0
 19 41  1  0
 19 42  1  0
 20 43  1  0
 20 44  1  0
M  END
$$$$
