
     RDKit          3D

 35 37  0  0  0  0  0  0  0  0999 V2000
   -1.8777   -2.5736    0.6337 C   0  0  0  0  0  0  0  0  0  0  0  0
   -2.9940   -1.8038    0.0950 N   0  0  0  0  0  0  0  0  0  0  0  0
   -4.0655   -1.3750    0.7808 C   0  0  0  0  0  0  0  0  0  0  0  0
   -4.8381   -0.6133   -0.0680 C   0  0  0  0  0  0  0  0  0  0  0  0
   -4.2501   -0.5465   -1.2803 N   0  0  0  0  0  0  0  0  0  0  0  0
   -3.1238   -1.2758   -1.1400 C   0  0  0  0  0  0  0  0  0  0  0  0
   -1.9396   -1.4931   -2.4705 S   0  0  0  0  0  0  0  0  0  0  0  0
   -1.0336   -0.0084   -2.0306 C   0  0  0  0  0  0  0  0  0  0  0  0
    0.0662   -0.0961   -1.1722 C   0  0  0  0  0  0  0  0  0  0  0  0
    0.7895    1.0532   -0.8094 C   0  0  0  0  0  0  0  0  0  0  0  0
    1.9746    0.8974    0.0629 C   0  0  0  0  0  0  0  0  0  0  0  0
    3.0411    1.5063   -0.2229 O   0  0  0  0  0  0  0  0  0  0  0  0
    1.9165    0.0324    1.2095 N   0  0  0  0  0  0  0  0  0  0  0  0
    3.0466   -0.2774    2.0349 C   0  0  0  0  0  0  0  0  0  0  0  0
    4.3000    0.1733    1.8087 N   0  0  0  0  0  0  0  0  0  0  0  0
    5.1731   -0.2846    2.7451 C   0  0  0  0  0  0  0  0  0  0  0  0
    4.6168   -1.1048    3.7205 C   0  0  0  0  0  0  0  0  0  0  0  0
    2.9731   -1.2601    3.3959 S   0  0  0  0  0  0  0  0  0  0  0  0
    0.3867    2.3129   -1.3196 C   0  0  0  0  0  0  0  0  0  0  0  0
    1.0330    3.5305   -0.9230 N   0  0  0  0  0  0  0  0  0  0  0  0
   -0.7045    2.3832   -2.1996 C   0  0  0  0  0  0  0  0  0  0  0  0
   -1.4099    1.2322   -2.5547 C   0  0  0  0  0  0  0  0  0  0  0  0
   -2.4678    1.3292   -3.3988 F   0  0  0  0  0  0  0  0  0  0  0  0
   -1.4069   -3.1853   -0.1640 H   0  0  0  0  0  0  0  0  0  0  0  0
   -2.2371   -3.2576    1.4316 H   0  0  0  0  0  0  0  0  0  0  0  0
   -1.1236   -1.8828    1.0640 H   0  0  0  0  0  0  0  0  0  0  0  0
   -4.2674   -1.5905    1.8222 H   0  0  0  0  0  0  0  0  0  0  0  0
   -5.7704   -0.1264    0.1842 H   0  0  0  0  0  0  0  0  0  0  0  0
    0.3725   -1.0689   -0.8077 H   0  0  0  0  0  0  0  0  0  0  0  0
    0.9967   -0.3852    1.4754 H   0  0  0  0  0  0  0  0  0  0  0  0
    6.2230   -0.0255    2.7244 H   0  0  0  0  0  0  0  0  0  0  0  0
    5.1502   -1.5625    4.5425 H   0  0  0  0  0  0  0  0  0  0  0  0
    1.6982    3.5698   -0.1209 H   0  0  0  0  0  0  0  0  0  0  0  0
    0.7730    4.4372   -1.3717 H   0  0  0  0  0  0  0  0  0  0  0  0
   -1.0207    3.3396   -2.5974 H   0  0  0  0  0  0  0  0  0  0  0  0
  1  2  1  0
  2  3  1  0
  3  4  2  0
  4  5  1  0
  5  6  2  0
  6  7  1  0
  7  8  1  0
  8  9  2  0
  9 10  1  0
 10 11  1  0
 11 12  2  0
 11 13  1  0
 13 14  1  0
 14 15  2  0
 15 16  1  0
 16 17  2  0
 17 18  1  0
 10 19  2  0
 19 20  1  0
 19 21  1  0
 21 22  2  0
 22 23  1  0
  6  2  1  0
 22  8  1  0
 18 14  1  0
  1 24  1  0
  1 25  1  0
  1 26  1  0
  3 27  1  0
  4 28  1  0
  9 29  1  0
 13 30  1  0
 16 31  1  0
 17 32  1  0
 20 33  1  0
 20 34  1  0
 21 35  1  0
M  END
$$$$
