
     RDKit          3D

 22 24  0  0  0  0  0  0  0  0999 V2000
   -5.1885    0.5001   -0.0279 O   0  0  0  0  0  0  0  0  0  0  0  0
   -3.8497    0.1189   -0.0735 C   0  0  0  0  0  0  0  0  0  0  0  0
   -2.8299    1.0895   -0.0609 C   0  0  0  0  0  0  0  0  0  0  0  0
   -1.5083    0.6542   -0.1081 C   0  0  0  0  0  0  0  0  0  0  0  0
   -1.1764   -0.6895   -0.1664 C   0  0  0  0  0  0  0  0  0  0  0  0
   -2.1766   -1.6625   -0.1796 C   0  0  0  0  0  0  0  0  0  0  0  0
   -3.5200   -1.2513   -0.1327 C   0  0  0  0  0  0  0  0  0  0  0  0
    0.1540   -0.9563   -0.2075 N   0  0  0  0  0  0  0  0  0  0  0  0
    0.8821    0.1882   -0.1815 C   0  0  0  0  0  0  0  0  0  0  0  0
   -0.1015    1.5679   -0.1066 S   0  0  0  0  0  0  0  0  0  0  0  0
    2.3498    0.2055   -0.2152 C   0  0  0  0  0  0  0  0  0  0  0  0
    3.0285   -0.8888   -0.2722 N   0  0  0  0  0  0  0  0  0  0  0  0
    4.4242   -0.6581   -0.2961 C   0  0  0  0  0  0  0  0  0  0  0  0
    5.2488   -1.6073   -0.3512 O   0  0  0  0  0  0  0  0  0  0  0  0
    4.8458    0.7639   -0.2525 C   0  0  0  0  0  0  0  0  0  0  0  0
    3.2998    1.7316   -0.1800 S   0  0  0  0  0  0  0  0  0  0  0  0
   -5.4594    1.4756    0.0151 H   0  0  0  0  0  0  0  0  0  0  0  0
   -3.0625    2.1456   -0.0157 H   0  0  0  0  0  0  0  0  0  0  0  0
   -1.9252   -2.7144   -0.2250 H   0  0  0  0  0  0  0  0  0  0  0  0
   -4.3065   -1.9951   -0.1423 H   0  0  0  0  0  0  0  0  0  0  0  0
    5.4145    1.0255   -1.1690 H   0  0  0  0  0  0  0  0  0  0  0  0
    5.4570    0.9569    0.6537 H   0  0  0  0  0  0  0  0  0  0  0  0
  1  2  1  0
  2  3  2  0
  3  4  1  0
  4  5  2  0
  5  6  1  0
  6  7  2  0
  5  8  1  0
  8  9  2  0
  9 10  1  0
  9 11  1  0
 11 12  2  0
 12 13  1  0
 13 14  2  0
 13 15  1  0
 15 16  1  0
  7  2  1  0
 16 11  1  0
 10  4  1  0
  1 17  1  0
  3 18  1  0
  6 19  1  0
  7 20  1  0
 15 21  1  0
 15 22  1  0
M  END
$$$$
