
     RDKit          3D

 34 36  0  0  0  0  0  0  0  0999 V2000
   -2.6300    1.1403    2.1453 C   0  0  0  0  0  0  0  0  0  0  0  0
   -3.2555    0.5503    0.9083 C   0  0  0  0  0  0  0  0  0  0  0  0
   -2.4792    0.0016   -0.1459 C   0  0  0  0  0  0  0  0  0  0  0  0
   -3.1281   -0.4791   -1.2973 C   0  0  0  0  0  0  0  0  0  0  0  0
   -4.5205   -0.4569   -1.3914 C   0  0  0  0  0  0  0  0  0  0  0  0
   -5.2840    0.0469   -0.3399 C   0  0  0  0  0  0  0  0  0  0  0  0
   -4.6577    0.5454    0.8035 C   0  0  0  0  0  0  0  0  0  0  0  0
   -1.0022   -0.0790   -0.0827 C   0  0  0  0  0  0  0  0  0  0  0  0
   -0.1393    0.2566   -1.1258 C   0  0  0  0  0  0  0  0  0  0  0  0
    1.1232   -0.0117   -0.6446 C   0  0  0  0  0  0  0  0  0  0  0  0
    0.9848   -0.4937    0.6284 C   0  0  0  0  0  0  0  0  0  0  0  0
   -0.3091   -0.5462    0.9845 N   0  0  0  0  0  0  0  0  0  0  0  0
    2.0865   -0.8717    1.3904 C   0  0  0  0  0  0  0  0  0  0  0  0
    3.3629   -0.7381    0.8150 C   0  0  0  0  0  0  0  0  0  0  0  0
    3.5180   -0.2381   -0.5058 C   0  0  0  0  0  0  0  0  0  0  0  0
    2.3702    0.1316   -1.2476 C   0  0  0  0  0  0  0  0  0  0  0  0
    4.8737   -0.1012   -1.0945 C   0  0  0  0  0  0  0  0  0  0  0  0
    5.9787    0.2868   -0.2740 N   0  0  0  0  0  0  0  0  0  0  0  0
    5.0811   -0.3371   -2.3529 N   0  0  0  0  0  0  0  0  0  0  0  0
   -3.2971    1.9039    2.5994 H   0  0  0  0  0  0  0  0  0  0  0  0
   -1.6723    1.6471    1.9045 H   0  0  0  0  0  0  0  0  0  0  0  0
   -2.4545    0.3402    2.8935 H   0  0  0  0  0  0  0  0  0  0  0  0
   -2.5555   -0.8936   -2.1182 H   0  0  0  0  0  0  0  0  0  0  0  0
   -5.0086   -0.8393   -2.2786 H   0  0  0  0  0  0  0  0  0  0  0  0
   -6.3639    0.0561   -0.4124 H   0  0  0  0  0  0  0  0  0  0  0  0
   -5.2695    0.9408    1.6052 H   0  0  0  0  0  0  0  0  0  0  0  0
   -0.4015    0.6442   -2.1018 H   0  0  0  0  0  0  0  0  0  0  0  0
   -0.6938   -0.9106    1.8839 H   0  0  0  0  0  0  0  0  0  0  0  0
    1.9659   -1.2586    2.3940 H   0  0  0  0  0  0  0  0  0  0  0  0
    4.2263   -1.0431    1.3922 H   0  0  0  0  0  0  0  0  0  0  0  0
    2.4447    0.5341   -2.2499 H   0  0  0  0  0  0  0  0  0  0  0  0
    5.8405    0.5734    0.7202 H   0  0  0  0  0  0  0  0  0  0  0  0
    6.9405    0.3425   -0.6773 H   0  0  0  0  0  0  0  0  0  0  0  0
    4.3255   -0.6436   -3.0052 H   0  0  0  0  0  0  0  0  0  0  0  0
  1  2  1  0
  2  3  2  0
  3  4  1  0
  4  5  2  0
  5  6  1  0
  6  7  2  0
  3  8  1  0
  8  9  2  0
  9 10  1  0
 10 11  2  0
 11 12  1  0
 11 13  1  0
 13 14  2  0
 14 15  1  0
 15 16  2  0
 15 17  1  0
 17 18  1  0
 17 19  2  3
  7  2  1  0
 12  8  1  0
 16 10  1  0
  1 20  1  0
  1 21  1  0
  1 22  1  0
  4 23  1  0
  5 24  1  0
  6 25  1  0
  7 26  1  0
  9 27  1  0
 12 28  1  0
 13 29  1  0
 14 30  1  0
 16 31  1  0
 18 32  1  0
 18 33  1  0
 19 34  1  0
M  END
$$$$
