
     RDKit          3D

 37 39  0  0  0  0  0  0  0  0999 V2000
    3.9896    1.5411   -1.0083 C   0  0  0  0  0  0  0  0  0  0  0  0
    3.8245    0.0916   -1.1387 N   0  0  0  0  0  0  0  0  0  0  0  0
    4.9300   -0.7092   -1.6648 C   0  0  0  0  0  0  0  0  0  0  0  0
    2.5786   -0.5548   -0.8185 C   0  0  0  0  0  0  0  0  0  0  0  0
    2.1773   -1.5134   -1.5328 O   0  0  0  0  0  0  0  0  0  0  0  0
    1.7620   -0.1368    0.3384 C   0  0  0  0  0  0  0  0  0  0  0  0
    0.4258   -0.4431    0.5196 C   0  0  0  0  0  0  0  0  0  0  0  0
    0.0732    0.0983    1.7432 C   0  0  0  0  0  0  0  0  0  0  0  0
    1.2123    0.6775    2.2682 C   0  0  0  0  0  0  0  0  0  0  0  0
    2.2355    0.5361    1.4067 N   0  0  0  0  0  0  0  0  0  0  0  0
   -1.2301   -0.0049    2.4233 C   0  0  0  0  0  0  0  0  0  0  0  0
   -1.3555    0.0227    3.7654 N   0  0  0  0  0  0  0  0  0  0  0  0
   -2.6304   -0.1755    4.0585 N   0  0  0  0  0  0  0  0  0  0  0  0
   -3.3394   -0.3331    2.9277 C   0  0  0  0  0  0  0  0  0  0  0  0
   -2.4807   -0.2216    1.8525 C   0  0  0  0  0  0  0  0  0  0  0  0
   -2.8746   -0.2200    0.4289 C   0  0  0  0  0  0  0  0  0  0  0  0
   -3.8110   -1.1552   -0.0425 C   0  0  0  0  0  0  0  0  0  0  0  0
   -4.2023   -1.1458   -1.3851 C   0  0  0  0  0  0  0  0  0  0  0  0
   -3.6729   -0.1960   -2.2626 C   0  0  0  0  0  0  0  0  0  0  0  0
   -2.7567    0.7509   -1.7974 C   0  0  0  0  0  0  0  0  0  0  0  0
   -2.3635    0.7455   -0.4557 C   0  0  0  0  0  0  0  0  0  0  0  0
    4.7192    1.7641   -0.2019 H   0  0  0  0  0  0  0  0  0  0  0  0
    3.0239    2.0391   -0.7786 H   0  0  0  0  0  0  0  0  0  0  0  0
    4.3669    1.9629   -1.9639 H   0  0  0  0  0  0  0  0  0  0  0  0
    5.8328   -0.0829   -1.8318 H   0  0  0  0  0  0  0  0  0  0  0  0
    4.6366   -1.1691   -2.6319 H   0  0  0  0  0  0  0  0  0  0  0  0
    5.1889   -1.5103   -0.9406 H   0  0  0  0  0  0  0  0  0  0  0  0
   -0.2003   -1.0218   -0.1464 H   0  0  0  0  0  0  0  0  0  0  0  0
    1.2944    1.1618    3.2328 H   0  0  0  0  0  0  0  0  0  0  0  0
    3.2168    0.8514    1.5703 H   0  0  0  0  0  0  0  0  0  0  0  0
   -3.0125   -0.1971    5.0296 H   0  0  0  0  0  0  0  0  0  0  0  0
   -4.4109   -0.4817    2.8900 H   0  0  0  0  0  0  0  0  0  0  0  0
   -4.2284   -1.8989    0.6251 H   0  0  0  0  0  0  0  0  0  0  0  0
   -4.9168   -1.8749   -1.7449 H   0  0  0  0  0  0  0  0  0  0  0  0
   -3.9772   -0.1897   -3.3013 H   0  0  0  0  0  0  0  0  0  0  0  0
   -2.3554    1.4931   -2.4752 H   0  0  0  0  0  0  0  0  0  0  0  0
   -1.6694    1.4997   -0.1066 H   0  0  0  0  0  0  0  0  0  0  0  0
  1  2  1  0
  2  3  1  0
  2  4  1  0
  4  5  2  0
  4  6  1  0
  6  7  2  0
  7  8  1  0
  8  9  2  0
  9 10  1  0
  8 11  1  0
 11 12  2  0
 12 13  1  0
 13 14  1  0
 14 15  2  0
 15 16  1  0
 16 17  2  0
 17 18  1  0
 18 19  2  0
 19 20  1  0
 20 21  2  0
 10  6  1  0
 15 11  1  0
 21 16  1  0
  1 22  1  0
  1 23  1  0
  1 24  1  0
  3 25  1  0
  3 26  1  0
  3 27  1  0
  7 28  1  0
  9 29  1  0
 10 30  1  0
 13 31  1  0
 14 32  1  0
 17 33  1  0
 18 34  1  0
 19 35  1  0
 20 36  1  0
 21 37  1  0
M  END
$$$$
