
     RDKit          3D

 48 51  0  0  0  0  0  0  0  0999 V2000
    1.0912    1.2112    0.4796 C   0  0  2  0  0  0  0  0  0  0  0  0
    1.3810    2.6619    0.8447 C   0  0  0  0  0  0  0  0  0  0  0  0
    2.8528    2.8749    0.4396 C   0  0  0  0  0  0  0  0  0  0  0  0
    3.3098    1.5960   -0.3214 C   0  0  1  0  0  0  0  0  0  0  0  0
    4.1078    1.9207   -1.4360 O   0  0  0  0  0  0  0  0  0  0  0  0
    4.0954    0.7270    0.5902 C   0  0  0  0  0  0  0  0  0  0  0  0
    4.7353    0.0243    1.3324 C   0  0  0  0  0  0  0  0  0  0  0  0
    1.9629    0.9388   -0.7578 C   0  0  2  0  0  0  0  0  0  0  0  0
    1.4489    1.6583   -2.0519 C   0  0  0  0  0  0  0  0  0  0  0  0
    1.9737   -0.5930   -1.0081 C   0  0  0  0  0  0  0  0  0  0  0  0
    0.5385   -1.1636   -1.1520 C   0  0  0  0  0  0  0  0  0  0  0  0
   -0.3916   -0.7709    0.0366 C   0  0  2  0  0  0  0  0  0  0  0  0
   -1.8320   -1.2781   -0.1066 C   0  0  0  0  0  0  0  0  0  0  0  0
   -2.8750   -0.5997    0.4595 C   0  0  0  0  0  0  0  0  0  0  0  0
   -2.7073    0.7391    1.1567 C   0  0  0  0  0  0  0  0  0  0  0  0
   -1.2529    1.0862    1.4835 C   0  0  0  0  0  0  0  0  0  0  0  0
   -0.3704    0.7678    0.2742 C   0  0  1  0  0  0  0  0  0  0  0  0
   -4.2837   -1.1401    0.3243 C   0  0  0  0  0  0  0  0  0  0  0  0
   -4.2951   -2.6278    0.5386 C   0  0  0  0  0  0  0  0  0  0  0  0
   -5.2809   -3.1685    1.0153 O   0  0  0  0  0  0  0  0  0  0  0  0
   -3.1033   -3.4573    0.1453 C   0  0  0  0  0  0  0  0  0  0  0  0
   -2.1187   -2.6475   -0.7122 C   0  0  0  0  0  0  0  0  0  0  0  0
    1.4832    0.6049    1.3327 H   0  0  0  0  0  0  0  0  0  0  0  0
    0.7150    3.3493    0.2788 H   0  0  0  0  0  0  0  0  0  0  0  0
    1.2397    2.8344    1.9340 H   0  0  0  0  0  0  0  0  0  0  0  0
    2.9223    3.7670   -0.2212 H   0  0  0  0  0  0  0  0  0  0  0  0
    3.4798    3.0753    1.3374 H   0  0  0  0  0  0  0  0  0  0  0  0
    4.8726    2.4661   -1.1114 H   0  0  0  0  0  0  0  0  0  0  0  0
    5.2960   -0.5928    1.9838 H   0  0  0  0  0  0  0  0  0  0  0  0
    2.1246    1.4363   -2.9051 H   0  0  0  0  0  0  0  0  0  0  0  0
    1.4162    2.7604   -1.9305 H   0  0  0  0  0  0  0  0  0  0  0  0
    0.4413    1.3348   -2.3693 H   0  0  0  0  0  0  0  0  0  0  0  0
    2.5600   -0.8253   -1.9236 H   0  0  0  0  0  0  0  0  0  0  0  0
    2.4595   -1.1270   -0.1638 H   0  0  0  0  0  0  0  0  0  0  0  0
    0.6551   -2.2641   -1.2016 H   0  0  0  0  0  0  0  0  0  0  0  0
    0.0832   -0.8470   -2.1131 H   0  0  0  0  0  0  0  0  0  0  0  0
    0.0209   -1.2710    0.9422 H   0  0  0  0  0  0  0  0  0  0  0  0
   -3.2896    0.7415    2.1032 H   0  0  0  0  0  0  0  0  0  0  0  0
   -3.1300    1.5284    0.4978 H   0  0  0  0  0  0  0  0  0  0  0  0
   -0.9166    0.5075    2.3725 H   0  0  0  0  0  0  0  0  0  0  0  0
   -1.1964    2.1672    1.7341 H   0  0  0  0  0  0  0  0  0  0  0  0
   -0.8082    1.2974   -0.5976 H   0  0  0  0  0  0  0  0  0  0  0  0
   -4.6608   -0.9226   -0.6974 H   0  0  0  0  0  0  0  0  0  0  0  0
   -4.9621   -0.6501    1.0563 H   0  0  0  0  0  0  0  0  0  0  0  0
   -2.5934   -3.8125    1.0668 H   0  0  0  0  0  0  0  0  0  0  0  0
   -3.4420   -4.3436   -0.4336 H   0  0  0  0  0  0  0  0  0  0  0  0
   -2.5531   -2.4998   -1.7247 H   0  0  0  0  0  0  0  0  0  0  0  0
   -1.2038   -3.2586   -0.8214 H   0  0  0  0  0  0  0  0  0  0  0  0
  1  2  1  0
  2  3  1  0
  3  4  1  0
  4  5  1  0
  4  6  1  1
  6  7  3  0
  4  8  1  0
  8  9  1  6
  8 10  1  0
 10 11  1  0
 11 12  1  0
 12 13  1  0
 13 14  2  0
 14 15  1  0
 15 16  1  0
 16 17  1  0
 14 18  1  0
 18 19  1  0
 19 20  2  0
 19 21  1  0
 21 22  1  0
  8  1  1  0
 17 12  1  0
 17  1  1  0
 22 13  1  0
  1 23  1  1
  2 24  1  0
  2 25  1  0
  3 26  1  0
  3 27  1  0
  5 28  1  0
  7 29  1  0
  9 30  1  0
  9 31  1  0
  9 32  1  0
 10 33  1  0
 10 34  1  0
 11 35  1  0
 11 36  1  0
 12 37  1  1
 15 38  1  0
 15 39  1  0
 16 40  1  0
 16 41  1  0
 17 42  1  6
 18 43  1  0
 18 44  1  0
 21 45  1  0
 21 46  1  0
 22 47  1  0
 22 48  1  0
M  END
$$$$
