
     RDKit          3D

 63 64  0  0  0  0  0  0  0  0999 V2000
   -2.8039   -0.5368   -1.5234 C   0  0  2  0  0  0  0  0  0  0  0  0
   -1.4836   -0.6671   -0.7369 C   0  0  0  0  0  0  0  0  0  0  0  0
   -0.5158   -2.1306   -1.2505 P   0  0  1  0  0  5  0  0  0  0  0  0
   -1.5064   -3.5017   -1.1805 O   0  0  0  0  0  0  0  0  0  0  0  0
   -0.0492   -1.9243   -2.6740 O   0  0  0  0  0  0  0  0  0  0  0  0
    0.9415   -2.3817   -0.1570 C   0  0  1  0  0  0  0  0  0  0  0  0
    0.4785   -2.1913    1.2335 N   0  0  0  0  0  0  0  0  0  0  0  0
    1.0002   -0.6836    1.9405 S   0  0  0  0  0  6  0  0  0  0  0  0
    0.9864    0.4162    0.9170 O   0  0  0  0  0  0  0  0  0  0  0  0
    0.0294   -0.3240    3.0293 O   0  0  0  0  0  0  0  0  0  0  0  0
    2.6252   -0.8394    2.6862 C   0  0  0  0  0  0  0  0  0  0  0  0
    3.7771   -0.5239    1.7199 C   0  0  0  0  0  0  0  0  0  0  0  0
    3.9247    0.9530    1.4474 C   0  0  0  0  0  0  0  0  0  0  0  0
    4.3387    1.8252    2.4692 C   0  0  0  0  0  0  0  0  0  0  0  0
    4.4812    3.1927    2.2148 C   0  0  0  0  0  0  0  0  0  0  0  0
    4.2202    3.6991    0.9389 C   0  0  0  0  0  0  0  0  0  0  0  0
    3.8208    2.8379   -0.0864 C   0  0  0  0  0  0  0  0  0  0  0  0
    3.6780    1.4696    0.1630 C   0  0  0  0  0  0  0  0  0  0  0  0
    1.5809   -3.7991   -0.3601 C   0  0  0  0  0  0  0  0  0  0  0  0
    2.9046   -3.9404    0.4139 C   0  0  0  0  0  0  0  0  0  0  0  0
    1.8585   -4.1319   -1.8389 C   0  0  0  0  0  0  0  0  0  0  0  0
   -2.5740   -0.2039   -2.9743 C   0  0  0  0  0  0  0  0  0  0  0  0
   -1.6592    0.7813   -3.3370 O   0  0  0  0  0  0  0  0  0  0  0  0
   -3.2389   -0.7966   -3.8659 O   0  0  0  0  0  0  0  0  0  0  0  0
   -3.7085    0.5051   -0.8939 C   0  0  0  0  0  0  0  0  0  0  0  0
   -4.9954    0.1468   -0.4550 C   0  0  0  0  0  0  0  0  0  0  0  0
   -5.8398    1.1013    0.1169 C   0  0  0  0  0  0  0  0  0  0  0  0
   -5.4117    2.4223    0.2609 C   0  0  0  0  0  0  0  0  0  0  0  0
   -4.1277    2.7981   -0.1594 C   0  0  0  0  0  0  0  0  0  0  0  0
   -3.6775    4.2319   -0.0376 C   0  0  0  0  0  0  0  0  0  0  0  0
   -4.0050    4.9885   -1.2435 N   0  0  0  0  0  0  0  0  0  0  0  0
   -3.2859    1.8411   -0.7477 C   0  0  0  0  0  0  0  0  0  0  0  0
   -3.3121   -1.5263   -1.4770 H   0  0  0  0  0  0  0  0  0  0  0  0
   -1.7169   -0.7736    0.3440 H   0  0  0  0  0  0  0  0  0  0  0  0
   -0.8574    0.2388   -0.8704 H   0  0  0  0  0  0  0  0  0  0  0  0
   -1.7854   -3.5641   -0.2323 H   0  0  0  0  0  0  0  0  0  0  0  0
    1.6979   -1.6198   -0.4418 H   0  0  0  0  0  0  0  0  0  0  0  0
    0.7483   -2.9704    1.8736 H   0  0  0  0  0  0  0  0  0  0  0  0
    2.7380   -1.8793    3.0560 H   0  0  0  0  0  0  0  0  0  0  0  0
    2.6793   -0.1750    3.5743 H   0  0  0  0  0  0  0  0  0  0  0  0
    3.6401   -1.0837    0.7747 H   0  0  0  0  0  0  0  0  0  0  0  0
    4.7251   -0.8905    2.1698 H   0  0  0  0  0  0  0  0  0  0  0  0
    4.5525    1.4460    3.4607 H   0  0  0  0  0  0  0  0  0  0  0  0
    4.7964    3.8598    3.0067 H   0  0  0  0  0  0  0  0  0  0  0  0
    4.3309    4.7579    0.7438 H   0  0  0  0  0  0  0  0  0  0  0  0
    3.6227    3.2306   -1.0754 H   0  0  0  0  0  0  0  0  0  0  0  0
    3.3687    0.8156   -0.6430 H   0  0  0  0  0  0  0  0  0  0  0  0
    0.8748   -4.5655    0.0299 H   0  0  0  0  0  0  0  0  0  0  0  0
    3.6786   -3.2681   -0.0114 H   0  0  0  0  0  0  0  0  0  0  0  0
    3.2767   -4.9848    0.3408 H   0  0  0  0  0  0  0  0  0  0  0  0
    2.7862   -3.7161    1.4907 H   0  0  0  0  0  0  0  0  0  0  0  0
    0.9129   -4.3172   -2.3879 H   0  0  0  0  0  0  0  0  0  0  0  0
    2.4573   -5.0640   -1.9259 H   0  0  0  0  0  0  0  0  0  0  0  0
    2.4176   -3.3055   -2.3277 H   0  0  0  0  0  0  0  0  0  0  0  0
   -1.5090    1.0183   -4.3102 H   0  0  0  0  0  0  0  0  0  0  0  0
   -5.3497   -0.8712   -0.5581 H   0  0  0  0  0  0  0  0  0  0  0  0
   -6.8307    0.8166    0.4464 H   0  0  0  0  0  0  0  0  0  0  0  0
   -6.0813    3.1526    0.6983 H   0  0  0  0  0  0  0  0  0  0  0  0
   -2.5799    4.2747    0.1347 H   0  0  0  0  0  0  0  0  0  0  0  0
   -4.1618    4.7138    0.8395 H   0  0  0  0  0  0  0  0  0  0  0  0
   -5.0387    4.9433   -1.3992 H   0  0  0  0  0  0  0  0  0  0  0  0
   -3.5406    4.5336   -2.0634 H   0  0  0  0  0  0  0  0  0  0  0  0
   -2.3038    2.1397   -1.0917 H   0  0  0  0  0  0  0  0  0  0  0  0
  1  2  1  0
  2  3  1  0
  3  4  1  6
  3  5  2  0
  3  6  1  0
  6  7  1  0
  7  8  1  0
  8  9  2  0
  8 10  2  0
  8 11  1  0
 11 12  1  0
 12 13  1  0
 13 14  2  0
 14 15  1  0
 15 16  2  0
 16 17  1  0
 17 18  2  0
  6 19  1  0
 19 20  1  0
 19 21  1  0
  1 22  1  0
 22 23  1  0
 22 24  2  0
  1 25  1  0
 25 26  2  0
 26 27  1  0
 27 28  2  0
 28 29  1  0
 29 30  1  0
 30 31  1  0
 29 32  2  0
 18 13  1  0
 32 25  1  0
  1 33  1  6
  2 34  1  0
  2 35  1  0
  4 36  1  0
  6 37  1  6
  7 38  1  0
 11 39  1  0
 11 40  1  0
 12 41  1  0
 12 42  1  0
 14 43  1  0
 15 44  1  0
 16 45  1  0
 17 46  1  0
 18 47  1  0
 19 48  1  0
 20 49  1  0
 20 50  1  0
 20 51  1  0
 21 52  1  0
 21 53  1  0
 21 54  1  0
 23 55  1  0
 26 56  1  0
 27 57  1  0
 28 58  1  0
 30 59  1  0
 30 60  1  0
 31 61  1  0
 31 62  1  0
 32 63  1  0
M  END
$$$$
