
     RDKit          3D

 53 55  0  0  0  0  0  0  0  0999 V2000
   -3.7135   -0.7514   -0.6546 C   0  0  2  0  0  0  0  0  0  0  0  0
   -4.6709   -1.9251   -0.9727 C   0  0  0  0  0  0  0  0  0  0  0  0
   -4.6853   -2.3604   -2.4411 C   0  0  0  0  0  0  0  0  0  0  0  0
   -3.9960    0.5001   -1.5093 C   0  0  0  0  0  0  0  0  0  0  0  0
   -3.4402    0.3642   -2.7889 O   0  0  0  0  0  0  0  0  0  0  0  0
   -2.3071   -1.1635   -0.7669 N   0  0  0  0  0  0  0  0  0  0  0  0
   -1.2305   -0.4043   -0.2011 C   0  0  0  0  0  0  0  0  0  0  0  0
   -1.4837    0.7383    0.5094 N   0  0  0  0  0  0  0  0  0  0  0  0
   -0.4322    1.4176    1.0251 C   0  0  0  0  0  0  0  0  0  0  0  0
    0.8471    1.0114    0.8661 C   0  0  0  0  0  0  0  0  0  0  0  0
    1.6928    1.8685    1.4684 N   0  0  0  0  0  0  0  0  0  0  0  0
    0.8515    2.8027    1.9919 C   0  0  0  0  0  0  0  0  0  0  0  0
   -0.4607    2.5507    1.7374 N   0  0  0  0  0  0  0  0  0  0  0  0
   -1.6319    3.3452    2.1233 C   0  0  0  0  0  0  0  0  0  0  0  0
   -1.7120    3.4736    3.6468 C   0  0  0  0  0  0  0  0  0  0  0  0
   -1.5833    4.7212    1.4544 C   0  0  0  0  0  0  0  0  0  0  0  0
    1.1245   -0.1482    0.1509 C   0  0  0  0  0  0  0  0  0  0  0  0
    2.4690   -0.6095   -0.0366 N   0  0  0  0  0  0  0  0  0  0  0  0
    2.7571   -1.8329   -0.7847 C   0  0  0  0  0  0  0  0  0  0  0  0
    4.2370   -2.1303   -0.7763 C   0  0  0  0  0  0  0  0  0  0  0  0
    4.9889   -1.9080   -1.9441 C   0  0  0  0  0  0  0  0  0  0  0  0
    6.3614   -2.1664   -1.9645 C   0  0  0  0  0  0  0  0  0  0  0  0
    7.0007   -2.6427   -0.8197 C   0  0  0  0  0  0  0  0  0  0  0  0
    6.2704   -2.8558    0.3510 C   0  0  0  0  0  0  0  0  0  0  0  0
    4.8945   -2.5978    0.3881 C   0  0  0  0  0  0  0  0  0  0  0  0
    4.2166   -2.8092    1.5908 O   0  0  0  0  0  0  0  0  0  0  0  0
    0.0622   -0.8353   -0.3702 N   0  0  0  0  0  0  0  0  0  0  0  0
   -3.9097   -0.4805    0.4071 H   0  0  0  0  0  0  0  0  0  0  0  0
   -4.3861   -2.7980   -0.3455 H   0  0  0  0  0  0  0  0  0  0  0  0
   -5.7053   -1.6395   -0.6813 H   0  0  0  0  0  0  0  0  0  0  0  0
   -5.2914   -3.2852   -2.5426 H   0  0  0  0  0  0  0  0  0  0  0  0
   -5.1518   -1.5779   -3.0750 H   0  0  0  0  0  0  0  0  0  0  0  0
   -3.6615   -2.5736   -2.8103 H   0  0  0  0  0  0  0  0  0  0  0  0
   -3.5562    1.3930   -1.0129 H   0  0  0  0  0  0  0  0  0  0  0  0
   -5.0943    0.6658   -1.5858 H   0  0  0  0  0  0  0  0  0  0  0  0
   -3.6719    1.1949   -3.2798 H   0  0  0  0  0  0  0  0  0  0  0  0
   -2.0664   -2.0769   -1.2134 H   0  0  0  0  0  0  0  0  0  0  0  0
    1.1997    3.6616    2.5506 H   0  0  0  0  0  0  0  0  0  0  0  0
   -2.5573    2.8322    1.7783 H   0  0  0  0  0  0  0  0  0  0  0  0
   -1.7366    2.4636    4.1083 H   0  0  0  0  0  0  0  0  0  0  0  0
   -0.8348    4.0277    4.0436 H   0  0  0  0  0  0  0  0  0  0  0  0
   -2.6381    4.0143    3.9365 H   0  0  0  0  0  0  0  0  0  0  0  0
   -1.5273    4.6009    0.3516 H   0  0  0  0  0  0  0  0  0  0  0  0
   -0.6962    5.2950    1.7976 H   0  0  0  0  0  0  0  0  0  0  0  0
   -2.5008    5.2979    1.6984 H   0  0  0  0  0  0  0  0  0  0  0  0
    3.2558   -0.0527    0.3697 H   0  0  0  0  0  0  0  0  0  0  0  0
    2.3866   -1.7156   -1.8265 H   0  0  0  0  0  0  0  0  0  0  0  0
    2.2032   -2.6876   -0.3409 H   0  0  0  0  0  0  0  0  0  0  0  0
    4.5128   -1.5354   -2.8427 H   0  0  0  0  0  0  0  0  0  0  0  0
    6.9302   -1.9962   -2.8695 H   0  0  0  0  0  0  0  0  0  0  0  0
    8.0643   -2.8424   -0.8378 H   0  0  0  0  0  0  0  0  0  0  0  0
    6.7764   -3.2179    1.2371 H   0  0  0  0  0  0  0  0  0  0  0  0
    3.2302   -2.6203    1.7121 H   0  0  0  0  0  0  0  0  0  0  0  0
  1  2  1  0
  2  3  1  0
  1  4  1  0
  4  5  1  0
  1  6  1  0
  6  7  1  0
  7  8  2  0
  8  9  1  0
  9 10  2  0
 10 11  1  0
 11 12  2  0
 12 13  1  0
 13 14  1  0
 14 15  1  0
 14 16  1  0
 10 17  1  0
 17 18  1  0
 18 19  1  0
 19 20  1  0
 20 21  2  0
 21 22  1  0
 22 23  2  0
 23 24  1  0
 24 25  2  0
 25 26  1  0
 17 27  2  0
 27  7  1  0
 13  9  1  0
 25 20  1  0
  1 28  1  1
  2 29  1  0
  2 30  1  0
  3 31  1  0
  3 32  1  0
  3 33  1  0
  4 34  1  0
  4 35  1  0
  5 36  1  0
  6 37  1  0
 12 38  1  0
 14 39  1  0
 15 40  1  0
 15 41  1  0
 15 42  1  0
 16 43  1  0
 16 44  1  0
 16 45  1  0
 18 46  1  0
 19 47  1  0
 19 48  1  0
 21 49  1  0
 22 50  1  0
 23 51  1  0
 24 52  1  0
 26 53  1  0
M  END
$$$$
