
     RDKit          3D

 47 50  0  0  0  0  0  0  0  0999 V2000
    8.7532   -1.4254    0.6545 C   0  0  0  0  0  0  0  0  0  0  0  0
    7.2724   -1.5567    0.9876 C   0  0  0  0  0  0  0  0  0  0  0  0
    6.2777   -0.5592   -0.1095 S   0  0  0  0  0  6  0  0  0  0  0  0
    6.4937   -1.0140   -1.5259 O   0  0  0  0  0  0  0  0  0  0  0  0
    6.6766    0.8831    0.0340 O   0  0  0  0  0  0  0  0  0  0  0  0
    4.6065   -0.7495    0.3177 N   0  0  0  0  0  0  0  0  0  0  0  0
    3.5193   -0.0788   -0.3493 C   0  0  0  0  0  0  0  0  0  0  0  0
    3.7427    0.7891   -1.4344 C   0  0  0  0  0  0  0  0  0  0  0  0
    2.6720    1.4224   -2.0664 C   0  0  0  0  0  0  0  0  0  0  0  0
    1.3655    1.2083   -1.6265 C   0  0  0  0  0  0  0  0  0  0  0  0
    0.3421    1.8034   -2.2909 F   0  0  0  0  0  0  0  0  0  0  0  0
    1.1182    0.3577   -0.5344 C   0  0  0  0  0  0  0  0  0  0  0  0
   -0.2640    0.1165   -0.0638 C   0  0  0  0  0  0  0  0  0  0  0  0
   -0.6340   -1.0666    0.1630 O   0  0  0  0  0  0  0  0  0  0  0  0
   -1.2047    1.2318    0.1777 C   0  0  0  0  0  0  0  0  0  0  0  0
   -0.8731    2.5752    0.3686 C   0  0  0  0  0  0  0  0  0  0  0  0
   -1.9824    3.3111    0.6070 N   0  0  0  0  0  0  0  0  0  0  0  0
   -3.0052    2.4438    0.5731 C   0  0  0  0  0  0  0  0  0  0  0  0
   -4.3117    2.7484    0.7609 N   0  0  0  0  0  0  0  0  0  0  0  0
   -5.2458    1.7543    0.6915 C   0  0  0  0  0  0  0  0  0  0  0  0
   -4.8623    0.4116    0.4255 C   0  0  0  0  0  0  0  0  0  0  0  0
   -3.4919    0.1190    0.2346 C   0  0  0  0  0  0  0  0  0  0  0  0
   -2.5814    1.1703    0.3203 C   0  0  0  0  0  0  0  0  0  0  0  0
   -5.8818   -0.6654    0.3470 C   0  0  0  0  0  0  0  0  0  0  0  0
   -5.6243   -1.9430    0.8762 C   0  0  0  0  0  0  0  0  0  0  0  0
   -6.5656   -2.9214    0.7990 N   0  0  0  0  0  0  0  0  0  0  0  0
   -7.7731   -2.7084    0.2136 C   0  0  0  0  0  0  0  0  0  0  0  0
   -8.0761   -1.4587   -0.3268 C   0  0  0  0  0  0  0  0  0  0  0  0
   -7.1289   -0.4356   -0.2592 C   0  0  0  0  0  0  0  0  0  0  0  0
    2.1990   -0.2929    0.0911 C   0  0  0  0  0  0  0  0  0  0  0  0
    1.9681   -1.1171    1.1466 F   0  0  0  0  0  0  0  0  0  0  0  0
    9.0805   -0.3697    0.7629 H   0  0  0  0  0  0  0  0  0  0  0  0
    8.9462   -1.7657   -0.3848 H   0  0  0  0  0  0  0  0  0  0  0  0
    9.3472   -2.0545    1.3503 H   0  0  0  0  0  0  0  0  0  0  0  0
    6.9634   -2.6190    0.8913 H   0  0  0  0  0  0  0  0  0  0  0  0
    7.0971   -1.2289    2.0340 H   0  0  0  0  0  0  0  0  0  0  0  0
    4.4005   -1.3933    1.1137 H   0  0  0  0  0  0  0  0  0  0  0  0
    4.7381    0.9806   -1.8068 H   0  0  0  0  0  0  0  0  0  0  0  0
    2.8567    2.0771   -2.9086 H   0  0  0  0  0  0  0  0  0  0  0  0
    0.1267    2.9890    0.3498 H   0  0  0  0  0  0  0  0  0  0  0  0
   -2.0296    4.3385    0.7866 H   0  0  0  0  0  0  0  0  0  0  0  0
   -6.2849    2.0050    0.8592 H   0  0  0  0  0  0  0  0  0  0  0  0
   -3.1605   -0.8840    0.0038 H   0  0  0  0  0  0  0  0  0  0  0  0
   -4.6843   -2.1592    1.3666 H   0  0  0  0  0  0  0  0  0  0  0  0
   -8.4980   -3.5100    0.1679 H   0  0  0  0  0  0  0  0  0  0  0  0
   -9.0353   -1.2853   -0.7974 H   0  0  0  0  0  0  0  0  0  0  0  0
   -7.3643    0.5262   -0.6969 H   0  0  0  0  0  0  0  0  0  0  0  0
  1  2  1  0
  2  3  1  0
  3  4  2  0
  3  5  2  0
  3  6  1  0
  6  7  1  0
  7  8  2  0
  8  9  1  0
  9 10  2  0
 10 11  1  0
 10 12  1  0
 12 13  1  0
 13 14  2  0
 13 15  1  0
 15 16  2  0
 16 17  1  0
 17 18  1  0
 18 19  2  0
 19 20  1  0
 20 21  2  0
 21 22  1  0
 22 23  2  0
 21 24  1  0
 24 25  2  0
 25 26  1  0
 26 27  2  0
 27 28  1  0
 28 29  2  0
 12 30  2  0
 30 31  1  0
 30  7  1  0
 23 15  1  0
 29 24  1  0
 23 18  1  0
  1 32  1  0
  1 33  1  0
  1 34  1  0
  2 35  1  0
  2 36  1  0
  6 37  1  0
  8 38  1  0
  9 39  1  0
 16 40  1  0
 17 41  1  0
 20 42  1  0
 22 43  1  0
 25 44  1  0
 27 45  1  0
 28 46  1  0
 29 47  1  0
M  END
$$$$
