
     RDKit          3D

 22 21  0  0  0  0  0  0  0  0999 V2000
   -0.7021    0.0150   -2.4156 O   0  0  0  0  0  0  0  0  0  0  0  0
   -0.9752   -0.1239   -1.0428 C   0  0  1  0  0  0  0  0  0  0  0  0
    0.2139   -0.7926   -0.3275 C   0  0  0  0  0  0  0  0  0  0  0  0
    1.3413    0.0520   -0.3675 O   0  0  0  0  0  0  0  0  0  0  0  0
    2.5853   -0.6554    0.5609 P   0  0  0  0  0  5  0  0  0  0  0  0
    2.8853   -2.2425    0.0477 O   0  0  0  0  0  0  0  0  0  0  0  0
    3.9958    0.2569    0.3649 O   0  0  0  0  0  0  0  0  0  0  0  0
    2.2013   -0.6519    2.0243 O   0  0  0  0  0  0  0  0  0  0  0  0
   -1.3648    1.2434   -0.4204 C   0  0  1  0  0  0  0  0  0  0  0  0
   -2.3792    1.8624   -1.1715 O   0  0  0  0  0  0  0  0  0  0  0  0
   -1.8040    1.1008    1.0126 C   0  0  0  0  0  0  0  0  0  0  0  0
   -2.9471    0.3700    1.3234 O   0  0  0  0  0  0  0  0  0  0  0  0
   -1.1307    1.6341    1.9348 O   0  0  0  0  0  0  0  0  0  0  0  0
    0.0395    0.6682   -2.5118 H   0  0  0  0  0  0  0  0  0  0  0  0
   -1.8454   -0.8107   -0.9494 H   0  0  0  0  0  0  0  0  0  0  0  0
   -0.0867   -1.0194    0.7210 H   0  0  0  0  0  0  0  0  0  0  0  0
    0.4323   -1.7506   -0.8506 H   0  0  0  0  0  0  0  0  0  0  0  0
    2.2445   -2.8045    0.5524 H   0  0  0  0  0  0  0  0  0  0  0  0
    4.1795    0.2288   -0.6079 H   0  0  0  0  0  0  0  0  0  0  0  0
   -0.4776    1.9134   -0.4522 H   0  0  0  0  0  0  0  0  0  0  0  0
   -3.1567    1.2447   -1.1990 H   0  0  0  0  0  0  0  0  0  0  0  0
   -3.2492    0.2617    2.2842 H   0  0  0  0  0  0  0  0  0  0  0  0
  1  2  1  0
  2  3  1  0
  3  4  1  0
  4  5  1  0
  5  6  1  0
  5  7  1  0
  5  8  2  0
  2  9  1  0
  9 10  1  0
  9 11  1  0
 11 12  1  0
 11 13  2  0
  1 14  1  0
  2 15  1  6
  3 16  1  0
  3 17  1  0
  6 18  1  0
  7 19  1  0
  9 20  1  1
 10 21  1  0
 12 22  1  0
M  END
$$$$
