
     RDKit          3D

117122  0  0  0  0  0  0  0  0999 V2000
   -2.7515   -0.7608    0.4165 C   0  0  1  0  0  0  0  0  0  0  0  0
   -3.1080    0.5667    1.2568 C   0  0  2  0  0  0  0  0  0  0  0  0
   -3.8449    1.4690    0.4166 O   0  0  0  0  0  0  0  0  0  0  0  0
   -4.9948    2.1754    0.8000 C   0  0  0  0  0  0  0  0  0  0  0  0
   -5.4738    2.0355    1.9592 O   0  0  0  0  0  0  0  0  0  0  0  0
   -5.6466    3.0842   -0.1670 C   0  0  0  0  0  0  0  0  0  0  0  0
   -5.0745    3.2998   -1.4342 C   0  0  0  0  0  0  0  0  0  0  0  0
   -5.6909    4.1548   -2.3526 C   0  0  0  0  0  0  0  0  0  0  0  0
   -6.8812    4.8037   -2.0167 C   0  0  0  0  0  0  0  0  0  0  0  0
   -7.4571    4.5995   -0.7607 C   0  0  0  0  0  0  0  0  0  0  0  0
   -6.8451    3.7451    0.1618 C   0  0  0  0  0  0  0  0  0  0  0  0
   -1.9346    1.4173    1.9456 C   0  0  2  0  0  0  0  0  0  0  0  0
   -2.5321    2.6406    2.3352 O   0  0  0  0  0  0  0  0  0  0  0  0
   -0.7983    1.7355    0.9040 C   0  0  0  0  0  0  0  0  0  0  0  0
    0.5196    0.9122    1.0393 C   0  0  2  0  0  0  0  0  0  0  0  0
    1.0805    0.6807   -0.2557 O   0  0  0  0  0  0  0  0  0  0  0  0
    1.7817    1.6611   -0.9683 C   0  0  0  0  0  0  0  0  0  0  0  0
    1.6644    2.8802   -0.6666 O   0  0  0  0  0  0  0  0  0  0  0  0
    2.7609    1.2517   -2.0336 C   0  0  2  0  0  0  0  0  0  0  0  0
    2.1590    0.3095   -2.8824 O   0  0  0  0  0  0  0  0  0  0  0  0
    4.0236    0.6260   -1.3996 C   0  0  1  0  0  0  0  0  0  0  0  0
    4.9736    0.2161   -2.4404 N   0  0  0  0  0  0  0  0  0  0  0  0
    6.0890   -0.6378   -2.1622 C   0  0  0  0  0  0  0  0  0  0  0  0
    6.2608   -1.0925   -0.9986 O   0  0  0  0  0  0  0  0  0  0  0  0
    6.9781   -0.9522   -3.2006 O   0  0  0  0  0  0  0  0  0  0  0  0
    8.1527   -1.7705   -3.0944 C   0  0  0  0  0  0  0  0  0  0  0  0
    9.1545   -1.1545   -2.0989 C   0  0  0  0  0  0  0  0  0  0  0  0
    7.7792   -3.2044   -2.6721 C   0  0  0  0  0  0  0  0  0  0  0  0
    8.8015   -1.8166   -4.4862 C   0  0  0  0  0  0  0  0  0  0  0  0
    4.6940    1.5930   -0.4416 C   0  0  0  0  0  0  0  0  0  0  0  0
    5.3903    2.7162   -0.9247 C   0  0  0  0  0  0  0  0  0  0  0  0
    5.9782    3.6192   -0.0339 C   0  0  0  0  0  0  0  0  0  0  0  0
    5.8699    3.4152    1.3440 C   0  0  0  0  0  0  0  0  0  0  0  0
    5.1720    2.3086    1.8339 C   0  0  0  0  0  0  0  0  0  0  0  0
    4.5842    1.4016    0.9474 C   0  0  0  0  0  0  0  0  0  0  0  0
    0.3418   -0.4098    1.7766 C   0  0  0  0  0  0  0  0  0  0  0  0
    1.3380   -1.5136    1.4666 C   0  0  0  0  0  0  0  0  0  0  0  0
   -0.6385   -0.5601    2.7322 C   0  0  0  0  0  0  0  0  0  0  0  0
   -1.0907   -1.9848    3.0921 C   0  0  1  0  0  0  0  0  0  0  0  0
   -1.9412   -2.0409    4.2201 O   0  0  0  0  0  0  0  0  0  0  0  0
   -1.9280   -3.3236    4.8130 C   0  0  0  0  0  0  0  0  0  0  0  0
   -1.7280   -2.6638    1.8738 C   0  0  0  0  0  0  0  0  0  0  0  0
   -1.1190   -3.6339    1.4423 O   0  0  0  0  0  0  0  0  0  0  0  0
   -3.0291   -2.1968    1.1392 C   0  0  1  0  0  0  0  0  0  0  0  0
   -4.1899   -2.1778    2.1747 C   0  0  0  0  0  0  0  0  0  0  0  0
   -3.4522   -3.3397    0.1049 C   0  0  2  0  0  0  0  0  0  0  0  0
   -2.7869   -3.1486   -1.2608 C   0  0  0  0  0  0  0  0  0  0  0  0
   -3.2825   -1.8845   -1.9571 C   0  0  1  0  0  0  0  0  0  0  0  0
   -4.6848   -1.8492   -2.1005 O   0  0  0  0  0  0  0  0  0  0  0  0
   -4.7683   -0.7009   -1.2870 C   0  0  0  0  0  0  0  0  0  0  0  0
   -3.2647   -0.6432   -1.0822 C   0  0  1  0  0  0  0  0  0  0  0  0
   -2.7316    0.4846   -1.7892 O   0  0  0  0  0  0  0  0  0  0  0  0
   -1.4870    0.5171   -2.4283 C   0  0  0  0  0  0  0  0  0  0  0  0
   -1.1223    1.7106   -3.2432 C   0  0  0  0  0  0  0  0  0  0  0  0
   -0.6682   -0.4329   -2.3027 O   0  0  0  0  0  0  0  0  0  0  0  0
   -4.8687   -3.3989   -0.0636 O   0  0  0  0  0  0  0  0  0  0  0  0
   -5.3296   -4.7285   -0.1822 C   0  0  0  0  0  0  0  0  0  0  0  0
   -1.3263    0.7343    3.2337 C   0  0  0  0  0  0  0  0  0  0  0  0
   -0.2358    1.6291    3.9339 C   0  0  0  0  0  0  0  0  0  0  0  0
   -2.4031    0.5842    4.3520 C   0  0  0  0  0  0  0  0  0  0  0  0
   -1.6639   -0.7381    0.2443 H   0  0  0  0  0  0  0  0  0  0  0  0
   -3.8018    0.2758    2.0487 H   0  0  0  0  0  0  0  0  0  0  0  0
   -4.1503    2.8127   -1.7162 H   0  0  0  0  0  0  0  0  0  0  0  0
   -5.2443    4.3150   -3.3255 H   0  0  0  0  0  0  0  0  0  0  0  0
   -7.3566    5.4653   -2.7291 H   0  0  0  0  0  0  0  0  0  0  0  0
   -8.3794    5.1033   -0.5014 H   0  0  0  0  0  0  0  0  0  0  0  0
   -7.3107    3.6003    1.1286 H   0  0  0  0  0  0  0  0  0  0  0  0
   -1.8420    3.2534    2.6972 H   0  0  0  0  0  0  0  0  0  0  0  0
   -1.1969    1.6454   -0.1186 H   0  0  0  0  0  0  0  0  0  0  0  0
   -0.5099    2.8067    0.9713 H   0  0  0  0  0  0  0  0  0  0  0  0
    1.2781    1.4862    1.6101 H   0  0  0  0  0  0  0  0  0  0  0  0
    3.0644    2.1529   -2.6194 H   0  0  0  0  0  0  0  0  0  0  0  0
    1.6812    0.8186   -3.5874 H   0  0  0  0  0  0  0  0  0  0  0  0
    3.7045   -0.2888   -0.8512 H   0  0  0  0  0  0  0  0  0  0  0  0
    4.8583    0.5653   -3.4190 H   0  0  0  0  0  0  0  0  0  0  0  0
   10.1138   -1.7158   -2.1121 H   0  0  0  0  0  0  0  0  0  0  0  0
    8.7636   -1.1815   -1.0614 H   0  0  0  0  0  0  0  0  0  0  0  0
    9.3594   -0.0959   -2.3672 H   0  0  0  0  0  0  0  0  0  0  0  0
    8.6692   -3.8688   -2.7158 H   0  0  0  0  0  0  0  0  0  0  0  0
    7.3896   -3.2330   -1.6342 H   0  0  0  0  0  0  0  0  0  0  0  0
    6.9988   -3.6123   -3.3497 H   0  0  0  0  0  0  0  0  0  0  0  0
    8.0934   -2.2462   -5.2273 H   0  0  0  0  0  0  0  0  0  0  0  0
    9.0694   -0.7911   -4.8205 H   0  0  0  0  0  0  0  0  0  0  0  0
    9.7235   -2.4376   -4.4767 H   0  0  0  0  0  0  0  0  0  0  0  0
    5.4757    2.8928   -1.9895 H   0  0  0  0  0  0  0  0  0  0  0  0
    6.5149    4.4796   -0.4122 H   0  0  0  0  0  0  0  0  0  0  0  0
    6.3237    4.1166    2.0321 H   0  0  0  0  0  0  0  0  0  0  0  0
    5.0837    2.1547    2.9016 H   0  0  0  0  0  0  0  0  0  0  0  0
    4.0402    0.5546    1.3453 H   0  0  0  0  0  0  0  0  0  0  0  0
    0.8700   -2.3040    0.8509 H   0  0  0  0  0  0  0  0  0  0  0  0
    1.7574   -1.9393    2.4012 H   0  0  0  0  0  0  0  0  0  0  0  0
    2.2089   -1.1292    0.9001 H   0  0  0  0  0  0  0  0  0  0  0  0
   -0.1542   -2.5307    3.3504 H   0  0  0  0  0  0  0  0  0  0  0  0
   -0.9320   -3.5478    5.2536 H   0  0  0  0  0  0  0  0  0  0  0  0
   -2.2207   -4.1147    4.0884 H   0  0  0  0  0  0  0  0  0  0  0  0
   -2.6695   -3.3370    5.6376 H   0  0  0  0  0  0  0  0  0  0  0  0
   -5.1036   -1.7116    1.7537 H   0  0  0  0  0  0  0  0  0  0  0  0
   -4.4430   -3.2123    2.4961 H   0  0  0  0  0  0  0  0  0  0  0  0
   -3.9641   -1.6555    3.0982 H   0  0  0  0  0  0  0  0  0  0  0  0
   -3.0902   -4.3202    0.4976 H   0  0  0  0  0  0  0  0  0  0  0  0
   -2.9994   -4.0227   -1.9121 H   0  0  0  0  0  0  0  0  0  0  0  0
   -1.6838   -3.0875   -1.1400 H   0  0  0  0  0  0  0  0  0  0  0  0
   -2.8017   -1.7570   -2.9518 H   0  0  0  0  0  0  0  0  0  0  0  0
   -5.3531   -0.8951   -0.3661 H   0  0  0  0  0  0  0  0  0  0  0  0
   -5.1716    0.1606   -1.8642 H   0  0  0  0  0  0  0  0  0  0  0  0
   -2.0304    2.3092   -3.4659 H   0  0  0  0  0  0  0  0  0  0  0  0
   -0.6645    1.3893   -4.2017 H   0  0  0  0  0  0  0  0  0  0  0  0
   -0.4055    2.3431   -2.6818 H   0  0  0  0  0  0  0  0  0  0  0  0
   -6.4154   -4.7075   -0.4076 H   0  0  0  0  0  0  0  0  0  0  0  0
   -4.8219   -5.2643   -1.0134 H   0  0  0  0  0  0  0  0  0  0  0  0
   -5.1928   -5.2774    0.7751 H   0  0  0  0  0  0  0  0  0  0  0  0
    0.2811    2.3332    3.2625 H   0  0  0  0  0  0  0  0  0  0  0  0
    0.5251    0.9984    4.4432 H   0  0  0  0  0  0  0  0  0  0  0  0
   -0.6609    2.3006    4.7123 H   0  0  0  0  0  0  0  0  0  0  0  0
   -2.8152    1.5777    4.6324 H   0  0  0  0  0  0  0  0  0  0  0  0
   -3.2804   -0.0038    4.0908 H   0  0  0  0  0  0  0  0  0  0  0  0
   -1.9555    0.1579    5.2763 H   0  0  0  0  0  0  0  0  0  0  0  0
  1  2  1  0
  2  3  1  0
  3  4  1  0
  4  5  2  0
  4  6  1  0
  6  7  2  0
  7  8  1  0
  8  9  2  0
  9 10  1  0
 10 11  2  0
  2 12  1  0
 12 13  1  1
 12 14  1  0
 14 15  1  0
 15 16  1  0
 16 17  1  0
 17 18  2  0
 17 19  1  0
 19 20  1  0
 19 21  1  0
 21 22  1  0
 22 23  1  0
 23 24  2  0
 23 25  1  0
 25 26  1  0
 26 27  1  0
 26 28  1  0
 26 29  1  0
 21 30  1  0
 30 31  2  0
 31 32  1  0
 32 33  2  0
 33 34  1  0
 34 35  2  0
 15 36  1  0
 36 37  1  0
 36 38  2  0
 38 39  1  0
 39 40  1  0
 40 41  1  0
 39 42  1  0
 42 43  2  0
 42 44  1  0
 44 45  1  1
 44 46  1  0
 46 47  1  0
 47 48  1  0
 48 49  1  0
 49 50  1  0
 50 51  1  0
 51 52  1  6
 52 53  1  0
 53 54  1  0
 53 55  2  0
 46 56  1  0
 56 57  1  0
 38 58  1  0
 58 59  1  0
 58 60  1  0
 44  1  1  0
 51 48  1  0
 51  1  1  0
 11  6  1  0
 58 12  1  0
 35 30  1  0
  1 61  1  6
  2 62  1  1
  7 63  1  0
  8 64  1  0
  9 65  1  0
 10 66  1  0
 11 67  1  0
 13 68  1  0
 14 69  1  0
 14 70  1  0
 15 71  1  1
 19 72  1  6
 20 73  1  0
 21 74  1  1
 22 75  1  0
 27 76  1  0
 27 77  1  0
 27 78  1  0
 28 79  1  0
 28 80  1  0
 28 81  1  0
 29 82  1  0
 29 83  1  0
 29 84  1  0
 31 85  1  0
 32 86  1  0
 33 87  1  0
 34 88  1  0
 35 89  1  0
 37 90  1  0
 37 91  1  0
 37 92  1  0
 39 93  1  1
 41 94  1  0
 41 95  1  0
 41 96  1  0
 45 97  1  0
 45 98  1  0
 45 99  1  0
 46100  1  1
 47101  1  0
 47102  1  0
 48103  1  6
 50104  1  0
 50105  1  0
 54106  1  0
 54107  1  0
 54108  1  0
 57109  1  0
 57110  1  0
 57111  1  0
 59112  1  0
 59113  1  0
 59114  1  0
 60115  1  0
 60116  1  0
 60117  1  0
M  END
$$$$
