
     RDKit          3D

 64 64  0  0  0  0  0  0  0  0999 V2000
   -4.6156    2.2286   -1.3313 C   0  0  1  0  0  0  0  0  0  0  0  0
   -4.3431    3.2095   -2.3830 N   0  0  0  0  0  0  0  0  0  0  0  0
   -3.5044    2.2804   -0.2644 C   0  0  0  0  0  0  0  0  0  0  0  0
   -3.6595    1.1769    0.7939 C   0  0  0  0  0  0  0  0  0  0  0  0
   -2.4648    1.1605    1.7136 C   0  0  0  0  0  0  0  0  0  0  0  0
   -2.3147    2.2264    2.5965 O   0  0  0  0  0  0  0  0  0  0  0  0
   -1.5678    0.2125    1.7184 N   0  0  0  0  0  0  0  0  0  0  0  0
   -1.5119   -0.9971    0.8890 C   0  0  1  0  0  0  0  0  0  0  0  0
   -1.1115   -0.6647   -0.5630 C   0  0  0  0  0  0  0  0  0  0  0  0
    0.3839    0.3953   -0.6498 S   0  0  0  0  0  0  0  0  0  0  0  0
    1.5589   -0.9206   -1.1554 C   0  0  1  0  0  0  0  0  0  0  0  0
    1.4743   -1.2266   -2.6233 C   0  0  0  0  0  0  0  0  0  0  0  0
    2.9102   -1.5981   -2.9790 C   0  0  2  0  0  0  0  0  0  0  0  0
    3.0403   -2.9859   -3.1470 O   0  0  0  0  0  0  0  0  0  0  0  0
    3.7824   -1.1557   -1.9584 O   0  0  0  0  0  0  0  0  0  0  0  0
    3.0047   -0.4652   -1.0066 C   0  0  2  0  0  0  0  0  0  0  0  0
    3.5378   -0.7291    0.4138 C   0  0  0  0  0  0  0  0  0  0  0  0
    5.0103   -0.3200    0.6087 C   0  0  0  0  0  0  0  0  0  0  0  0
    5.3098    1.1727    0.3794 C   0  0  0  0  0  0  0  0  0  0  0  0
    4.5105    2.0953    1.3112 C   0  0  0  0  0  0  0  0  0  0  0  0
    4.9736    3.5434    1.1809 C   0  0  0  0  0  0  0  0  0  0  0  0
   -0.5155   -1.9595    1.4997 C   0  0  0  0  0  0  0  0  0  0  0  0
    0.5935   -1.4353    2.1606 O   0  0  0  0  0  0  0  0  0  0  0  0
   -0.6278   -3.2559    1.4012 N   0  0  0  0  0  0  0  0  0  0  0  0
   -1.7089   -4.0018    0.7575 C   0  0  0  0  0  0  0  0  0  0  0  0
   -2.9164   -4.0451    1.6404 C   0  0  0  0  0  0  0  0  0  0  0  0
   -2.7864   -4.4086    2.9772 O   0  0  0  0  0  0  0  0  0  0  0  0
   -4.0542   -3.7821    1.1674 O   0  0  0  0  0  0  0  0  0  0  0  0
   -5.9604    2.5071   -0.7175 C   0  0  0  0  0  0  0  0  0  0  0  0
   -6.8876    1.4779   -0.5876 O   0  0  0  0  0  0  0  0  0  0  0  0
   -6.2421    3.6628   -0.2997 O   0  0  0  0  0  0  0  0  0  0  0  0
   -4.6306    1.2116   -1.7863 H   0  0  0  0  0  0  0  0  0  0  0  0
   -5.0867    3.1233   -3.1144 H   0  0  0  0  0  0  0  0  0  0  0  0
   -3.4472    2.9472   -2.8554 H   0  0  0  0  0  0  0  0  0  0  0  0
   -2.5199    2.1633   -0.7675 H   0  0  0  0  0  0  0  0  0  0  0  0
   -3.5061    3.2766    0.2316 H   0  0  0  0  0  0  0  0  0  0  0  0
   -3.8307    0.1996    0.3031 H   0  0  0  0  0  0  0  0  0  0  0  0
   -4.5607    1.3850    1.4093 H   0  0  0  0  0  0  0  0  0  0  0  0
   -1.5283    2.2722    3.2340 H   0  0  0  0  0  0  0  0  0  0  0  0
   -2.5117   -1.4728    0.8922 H   0  0  0  0  0  0  0  0  0  0  0  0
   -1.9363   -0.1200   -1.0606 H   0  0  0  0  0  0  0  0  0  0  0  0
   -0.9781   -1.5988   -1.1461 H   0  0  0  0  0  0  0  0  0  0  0  0
    1.3855   -1.8541   -0.5752 H   0  0  0  0  0  0  0  0  0  0  0  0
    0.7591   -2.0523   -2.8316 H   0  0  0  0  0  0  0  0  0  0  0  0
    1.1707   -0.3232   -3.1980 H   0  0  0  0  0  0  0  0  0  0  0  0
    3.1951   -1.1044   -3.9330 H   0  0  0  0  0  0  0  0  0  0  0  0
    2.9110   -3.4020   -2.2544 H   0  0  0  0  0  0  0  0  0  0  0  0
    3.0644    0.6226   -1.2311 H   0  0  0  0  0  0  0  0  0  0  0  0
    2.9013   -0.2054    1.1576 H   0  0  0  0  0  0  0  0  0  0  0  0
    3.4583   -1.8169    0.6318 H   0  0  0  0  0  0  0  0  0  0  0  0
    5.3138   -0.5888    1.6440 H   0  0  0  0  0  0  0  0  0  0  0  0
    5.6476   -0.9187   -0.0776 H   0  0  0  0  0  0  0  0  0  0  0  0
    5.1215    1.4455   -0.6804 H   0  0  0  0  0  0  0  0  0  0  0  0
    6.3954    1.3284    0.5643 H   0  0  0  0  0  0  0  0  0  0  0  0
    4.6391    1.7697    2.3664 H   0  0  0  0  0  0  0  0  0  0  0  0
    3.4309    2.0517    1.0538 H   0  0  0  0  0  0  0  0  0  0  0  0
    4.8421    3.8974    0.1361 H   0  0  0  0  0  0  0  0  0  0  0  0
    4.3699    4.1887    1.8533 H   0  0  0  0  0  0  0  0  0  0  0  0
    6.0428    3.6348    1.4679 H   0  0  0  0  0  0  0  0  0  0  0  0
    1.2978   -2.0409    2.5654 H   0  0  0  0  0  0  0  0  0  0  0  0
   -1.9515   -3.5671   -0.2354 H   0  0  0  0  0  0  0  0  0  0  0  0
   -1.3667   -5.0439    0.5907 H   0  0  0  0  0  0  0  0  0  0  0  0
   -3.5958   -4.4514    3.5848 H   0  0  0  0  0  0  0  0  0  0  0  0
   -7.7937    1.6451   -0.1668 H   0  0  0  0  0  0  0  0  0  0  0  0
  1  2  1  0
  1  3  1  0
  3  4  1  0
  4  5  1  0
  5  6  1  0
  5  7  2  3
  7  8  1  0
  8  9  1  0
  9 10  1  0
 10 11  1  0
 11 12  1  0
 12 13  1  0
 13 14  1  0
 13 15  1  0
 15 16  1  0
 16 17  1  0
 17 18  1  0
 18 19  1  0
 19 20  1  0
 20 21  1  0
  8 22  1  0
 22 23  1  0
 22 24  2  3
 24 25  1  0
 25 26  1  0
 26 27  1  0
 26 28  2  0
  1 29  1  0
 29 30  1  0
 29 31  2  0
 16 11  1  0
  1 32  1  6
  2 33  1  0
  2 34  1  0
  3 35  1  0
  3 36  1  0
  4 37  1  0
  4 38  1  0
  6 39  1  0
  8 40  1  6
  9 41  1  0
  9 42  1  0
 11 43  1  1
 12 44  1  0
 12 45  1  0
 13 46  1  6
 14 47  1  0
 16 48  1  6
 17 49  1  0
 17 50  1  0
 18 51  1  0
 18 52  1  0
 19 53  1  0
 19 54  1  0
 20 55  1  0
 20 56  1  0
 21 57  1  0
 21 58  1  0
 21 59  1  0
 23 60  1  0
 25 61  1  0
 25 62  1  0
 27 63  1  0
 30 64  1  0
M  END
$$$$
