
     RDKit          3D

 32 34  0  0  0  0  0  0  0  0999 V2000
    4.9713   -1.2389   -0.0595 N   0  0  0  0  0  0  0  0  0  0  0  0
    3.6102   -1.0720   -0.4564 C   0  0  0  0  0  0  0  0  0  0  0  0
    2.6195   -0.7194    0.4531 C   0  0  0  0  0  0  0  0  0  0  0  0
    2.7191   -0.4610    1.7708 N   0  0  0  0  0  0  0  0  0  0  0  0
    1.4381   -0.1503    2.1134 C   0  0  0  0  0  0  0  0  0  0  0  0
    0.5696   -0.2168    1.0714 N   0  0  0  0  0  0  0  0  0  0  0  0
   -0.8519    0.1332    1.0808 C   0  0  2  0  0  0  0  0  0  0  0  0
   -1.5769   -0.7476    0.2518 O   0  0  0  0  0  0  0  0  0  0  0  0
   -2.5791    0.0013   -0.4088 C   0  0  2  0  0  0  0  0  0  0  0  0
   -2.4456   -0.2004   -1.9257 C   0  0  0  0  0  0  0  0  0  0  0  0
   -2.5079   -1.5636   -2.2478 O   0  0  0  0  0  0  0  0  0  0  0  0
   -2.4443    1.4839   -0.0240 C   0  0  1  0  0  0  0  0  0  0  0  0
   -3.4475    1.8678    0.8895 O   0  0  0  0  0  0  0  0  0  0  0  0
   -1.0633    1.5554    0.5826 C   0  0  1  0  0  0  0  0  0  0  0  0
   -0.9986    2.4897    1.6288 O   0  0  0  0  0  0  0  0  0  0  0  0
    1.3425   -0.5675    0.0348 C   0  0  0  0  0  0  0  0  0  0  0  0
    0.9714   -0.7389   -1.2570 N   0  0  0  0  0  0  0  0  0  0  0  0
    1.9363   -1.0880   -2.1602 C   0  0  0  0  0  0  0  0  0  0  0  0
    3.2384   -1.2516   -1.7594 N   0  0  0  0  0  0  0  0  0  0  0  0
    5.6947   -1.5020   -0.7649 H   0  0  0  0  0  0  0  0  0  0  0  0
    5.2626   -1.1021    0.9340 H   0  0  0  0  0  0  0  0  0  0  0  0
    1.1475    0.1340    3.1166 H   0  0  0  0  0  0  0  0  0  0  0  0
   -1.2471    0.0326    2.1175 H   0  0  0  0  0  0  0  0  0  0  0  0
   -3.5753   -0.3848   -0.0977 H   0  0  0  0  0  0  0  0  0  0  0  0
   -1.4693    0.2002   -2.2724 H   0  0  0  0  0  0  0  0  0  0  0  0
   -3.2503    0.3559   -2.4589 H   0  0  0  0  0  0  0  0  0  0  0  0
   -3.4612   -1.8303   -2.1709 H   0  0  0  0  0  0  0  0  0  0  0  0
   -2.5066    2.1578   -0.9075 H   0  0  0  0  0  0  0  0  0  0  0  0
   -3.4023    1.2614    1.6752 H   0  0  0  0  0  0  0  0  0  0  0  0
   -0.3279    1.8100   -0.2174 H   0  0  0  0  0  0  0  0  0  0  0  0
   -0.0377    2.5868    1.8580 H   0  0  0  0  0  0  0  0  0  0  0  0
    1.6715   -1.2345   -3.1982 H   0  0  0  0  0  0  0  0  0  0  0  0
  1  2  1  0
  2  3  2  0
  3  4  1  0
  4  5  2  0
  5  6  1  0
  6  7  1  0
  7  8  1  0
  8  9  1  0
  9 10  1  0
 10 11  1  0
  9 12  1  0
 12 13  1  0
 12 14  1  0
 14 15  1  0
  6 16  1  0
 16 17  2  0
 17 18  1  0
 18 19  2  0
 19  2  1  0
 16  3  1  0
 14  7  1  0
  1 20  1  0
  1 21  1  0
  5 22  1  0
  7 23  1  1
  9 24  1  1
 10 25  1  0
 10 26  1  0
 11 27  1  0
 12 28  1  6
 13 29  1  0
 14 30  1  6
 15 31  1  0
 18 32  1  0
M  END
$$$$
