
     RDKit          3D

 45 47  0  0  0  0  0  0  0  0999 V2000
    5.0359    3.1372   -0.2571 C   0  0  0  0  0  0  0  0  0  0  0  0
    3.7045    2.6362   -0.1952 O   0  0  0  0  0  0  0  0  0  0  0  0
    3.3714    1.2813   -0.0455 C   0  0  0  0  0  0  0  0  0  0  0  0
    2.0170    0.9349   -0.0006 C   0  0  0  0  0  0  0  0  0  0  0  0
    1.6169   -0.4052    0.1475 C   0  0  0  0  0  0  0  0  0  0  0  0
    2.6047   -1.4007    0.2509 C   0  0  0  0  0  0  0  0  0  0  0  0
    3.9640   -1.0734    0.2082 C   0  0  0  0  0  0  0  0  0  0  0  0
    4.8999   -2.1134    0.3167 O   0  0  0  0  0  0  0  0  0  0  0  0
    6.3122   -1.9333    0.2897 C   0  0  0  0  0  0  0  0  0  0  0  0
    4.3461    0.2723    0.0594 C   0  0  0  0  0  0  0  0  0  0  0  0
    0.1769   -0.7622    0.1932 C   0  0  0  0  0  0  0  0  0  0  0  0
   -0.7722    0.2028    0.0989 N   0  0  0  0  0  0  0  0  0  0  0  0
   -2.0975   -0.0874    0.1407 C   0  0  0  0  0  0  0  0  0  0  0  0
   -2.5206   -1.4298    0.2889 C   0  0  0  0  0  0  0  0  0  0  0  0
   -3.9973   -1.7908    0.2973 C   0  0  0  0  0  0  0  0  0  0  0  0
   -4.4641   -2.1389   -1.0428 N   0  0  0  0  0  0  0  0  0  0  0  0
   -1.5144   -2.4241    0.3576 C   0  0  0  0  0  0  0  0  0  0  0  0
   -1.8226   -3.8201    0.4527 N   0  0  0  0  0  0  0  0  0  0  0  0
   -0.2067   -2.0583    0.3175 N   0  0  0  0  0  0  0  0  0  0  0  0
   -3.0486    1.0320    0.0131 C   0  0  0  0  0  0  0  0  0  0  0  0
   -3.6780    1.5382    1.1609 C   0  0  0  0  0  0  0  0  0  0  0  0
   -4.5672    2.6114    1.0619 C   0  0  0  0  0  0  0  0  0  0  0  0
   -4.8268    3.1938   -0.1821 C   0  0  0  0  0  0  0  0  0  0  0  0
   -5.9433    4.5411   -0.3041 Cl  0  0  0  0  0  0  0  0  0  0  0  0
   -4.1929    2.7042   -1.3287 C   0  0  0  0  0  0  0  0  0  0  0  0
   -3.3005    1.6292   -1.2377 C   0  0  0  0  0  0  0  0  0  0  0  0
   -2.5225    1.0456   -2.7051 Cl  0  0  0  0  0  0  0  0  0  0  0  0
    5.5780    2.8982    0.6822 H   0  0  0  0  0  0  0  0  0  0  0  0
    5.5683    2.7005   -1.1284 H   0  0  0  0  0  0  0  0  0  0  0  0
    5.0031    4.2394   -0.3773 H   0  0  0  0  0  0  0  0  0  0  0  0
    1.2786    1.7229   -0.0833 H   0  0  0  0  0  0  0  0  0  0  0  0
    2.3265   -2.4410    0.3660 H   0  0  0  0  0  0  0  0  0  0  0  0
    6.6214   -1.4829   -0.6771 H   0  0  0  0  0  0  0  0  0  0  0  0
    6.8055   -2.9212    0.3949 H   0  0  0  0  0  0  0  0  0  0  0  0
    6.6308   -1.2854    1.1334 H   0  0  0  0  0  0  0  0  0  0  0  0
    5.3935    0.5323    0.0256 H   0  0  0  0  0  0  0  0  0  0  0  0
   -4.6158   -0.9566    0.6848 H   0  0  0  0  0  0  0  0  0  0  0  0
   -4.1973   -2.6299    0.9943 H   0  0  0  0  0  0  0  0  0  0  0  0
   -4.3225   -1.3147   -1.6707 H   0  0  0  0  0  0  0  0  0  0  0  0
   -3.8810   -2.9223   -1.4165 H   0  0  0  0  0  0  0  0  0  0  0  0
   -2.7910   -4.1978    0.3805 H   0  0  0  0  0  0  0  0  0  0  0  0
   -1.0461   -4.5126    0.5421 H   0  0  0  0  0  0  0  0  0  0  0  0
   -3.4816    1.0981    2.1311 H   0  0  0  0  0  0  0  0  0  0  0  0
   -5.0521    2.9904    1.9526 H   0  0  0  0  0  0  0  0  0  0  0  0
   -4.3927    3.1601   -2.2903 H   0  0  0  0  0  0  0  0  0  0  0  0
  1  2  1  0
  2  3  1  0
  3  4  2  0
  4  5  1  0
  5  6  2  0
  6  7  1  0
  7  8  1  0
  8  9  1  0
  7 10  2  0
  5 11  1  0
 11 12  2  0
 12 13  1  0
 13 14  2  0
 14 15  1  0
 15 16  1  0
 14 17  1  0
 17 18  1  0
 17 19  2  0
 13 20  1  0
 20 21  2  0
 21 22  1  0
 22 23  2  0
 23 24  1  0
 23 25  1  0
 25 26  2  0
 26 27  1  0
 10  3  1  0
 19 11  1  0
 26 20  1  0
  1 28  1  0
  1 29  1  0
  1 30  1  0
  4 31  1  0
  6 32  1  0
  9 33  1  0
  9 34  1  0
  9 35  1  0
 10 36  1  0
 15 37  1  0
 15 38  1  0
 16 39  1  0
 16 40  1  0
 18 41  1  0
 18 42  1  0
 21 43  1  0
 22 44  1  0
 25 45  1  0
M  END
$$$$
