
     RDKit          3D

 27 26  0  0  0  0  0  0  0  0999 V2000
    3.8893   -1.0082   -0.1725 N   0  0  0  0  0  0  0  0  0  0  0  0
    2.8955    0.0317    0.0750 C   0  0  0  0  0  0  0  0  0  0  0  0
    1.4848   -0.5231   -0.1448 C   0  0  0  0  0  0  0  0  0  0  0  0
    0.4217    0.5513    0.1447 C   0  0  0  0  0  0  0  0  0  0  0  0
   -1.0456    0.1082   -0.1005 C   0  0  0  0  0  0  0  0  0  0  0  0
   -1.2217   -0.3047   -1.4333 O   0  0  0  0  0  0  0  0  0  0  0  0
   -2.1305    1.5593    0.1639 P   0  0  0  0  0  5  0  0  0  0  0  0
   -2.0562    2.0598    1.7797 O   0  0  0  0  0  0  0  0  0  0  0  0
   -1.6311    2.8269   -0.8411 O   0  0  0  0  0  0  0  0  0  0  0  0
   -3.5589    1.1994   -0.1775 O   0  0  0  0  0  0  0  0  0  0  0  0
   -1.5677   -1.2217    1.0685 P   0  0  0  0  0  5  0  0  0  0  0  0
   -3.2404   -1.4629    0.9610 O   0  0  0  0  0  0  0  0  0  0  0  0
   -0.7851   -2.6820    0.7164 O   0  0  0  0  0  0  0  0  0  0  0  0
   -1.2250   -0.8141    2.4834 O   0  0  0  0  0  0  0  0  0  0  0  0
    4.8283   -0.6134    0.0640 H   0  0  0  0  0  0  0  0  0  0  0  0
    3.9029   -1.2101   -1.1990 H   0  0  0  0  0  0  0  0  0  0  0  0
    2.9936    0.3844    1.1255 H   0  0  0  0  0  0  0  0  0  0  0  0
    3.0767    0.8943   -0.6053 H   0  0  0  0  0  0  0  0  0  0  0  0
    1.3449   -1.3892    0.5328 H   0  0  0  0  0  0  0  0  0  0  0  0
    1.4016   -0.8686   -1.1969 H   0  0  0  0  0  0  0  0  0  0  0  0
    0.5324    0.8852    1.1998 H   0  0  0  0  0  0  0  0  0  0  0  0
    0.6398    1.4283   -0.5039 H   0  0  0  0  0  0  0  0  0  0  0  0
   -0.8309   -1.2095   -1.5348 H   0  0  0  0  0  0  0  0  0  0  0  0
   -1.2091    2.5676    1.8505 H   0  0  0  0  0  0  0  0  0  0  0  0
   -2.2057    3.5925   -0.5870 H   0  0  0  0  0  0  0  0  0  0  0  0
   -3.4029   -1.7031    0.0140 H   0  0  0  0  0  0  0  0  0  0  0  0
   -1.3005   -3.0784   -0.0303 H   0  0  0  0  0  0  0  0  0  0  0  0
  1  2  1  0
  2  3  1  0
  3  4  1  0
  4  5  1  0
  5  6  1  0
  5  7  1  0
  7  8  1  0
  7  9  1  0
  7 10  2  0
  5 11  1  0
 11 12  1  0
 11 13  1  0
 11 14  2  0
  1 15  1  0
  1 16  1  0
  2 17  1  0
  2 18  1  0
  3 19  1  0
  3 20  1  0
  4 21  1  0
  4 22  1  0
  6 23  1  0
  8 24  1  0
  9 25  1  0
 12 26  1  0
 13 27  1  0
M  END
$$$$
