
     RDKit          3D

 30 29  0  0  0  0  0  0  0  0999 V2000
   -1.8912    0.1086   -0.0737 C   0  0  2  0  0  0  0  0  0  0  0  0
   -2.2099    1.0208    0.9480 O   0  0  0  0  0  0  0  0  0  0  0  0
   -2.9845   -0.9753   -0.1520 C   0  0  0  0  0  0  0  0  0  0  0  0
   -4.3184   -0.4332   -0.6793 C   0  0  0  0  0  0  0  0  0  0  0  0
   -4.9064    0.4370    0.2510 O   0  0  0  0  0  0  0  0  0  0  0  0
   -0.5020   -0.5293    0.1920 C   0  0  2  0  0  0  0  0  0  0  0  0
   -0.5142   -1.2685    1.3902 O   0  0  0  0  0  0  0  0  0  0  0  0
    0.6430    0.5213    0.2012 C   0  0  2  0  0  0  0  0  0  0  0  0
    0.6396    1.2785   -0.9846 O   0  0  0  0  0  0  0  0  0  0  0  0
    2.0174   -0.1382    0.4032 C   0  0  0  0  0  0  0  0  0  0  0  0
    3.0133    0.8581    0.3968 O   0  0  0  0  0  0  0  0  0  0  0  0
    4.5294    0.1082    0.6199 P   0  0  0  0  0  5  0  0  0  0  0  0
    5.7431    1.2835    0.5295 O   0  0  0  0  0  0  0  0  0  0  0  0
    4.7956   -1.0499   -0.5857 O   0  0  0  0  0  0  0  0  0  0  0  0
    4.5856   -0.5566    1.9774 O   0  0  0  0  0  0  0  0  0  0  0  0
   -1.8596    0.6263   -1.0624 H   0  0  0  0  0  0  0  0  0  0  0  0
   -1.8761    1.9105    0.6608 H   0  0  0  0  0  0  0  0  0  0  0  0
   -2.6515   -1.7821   -0.8413 H   0  0  0  0  0  0  0  0  0  0  0  0
   -3.1432   -1.4311    0.8501 H   0  0  0  0  0  0  0  0  0  0  0  0
   -5.0089   -1.2887   -0.8368 H   0  0  0  0  0  0  0  0  0  0  0  0
   -4.1756    0.0607   -1.6689 H   0  0  0  0  0  0  0  0  0  0  0  0
   -4.6726    1.3605   -0.0279 H   0  0  0  0  0  0  0  0  0  0  0  0
   -0.2953   -1.2424   -0.6368 H   0  0  0  0  0  0  0  0  0  0  0  0
   -0.6442   -0.6292    2.1383 H   0  0  0  0  0  0  0  0  0  0  0  0
    0.4792    1.2208    1.0499 H   0  0  0  0  0  0  0  0  0  0  0  0
    0.7848    0.6516   -1.7412 H   0  0  0  0  0  0  0  0  0  0  0  0
    2.1858   -0.8701   -0.4195 H   0  0  0  0  0  0  0  0  0  0  0  0
    2.0135   -0.6742    1.3795 H   0  0  0  0  0  0  0  0  0  0  0  0
    5.4830    1.9669    1.1975 H   0  0  0  0  0  0  0  0  0  0  0  0
    4.7400   -0.5446   -1.4356 H   0  0  0  0  0  0  0  0  0  0  0  0
  1  2  1  0
  1  3  1  0
  3  4  1  0
  4  5  1  0
  1  6  1  0
  6  7  1  0
  6  8  1  0
  8  9  1  0
  8 10  1  0
 10 11  1  0
 11 12  1  0
 12 13  1  0
 12 14  1  0
 12 15  2  0
  1 16  1  6
  2 17  1  0
  3 18  1  0
  3 19  1  0
  4 20  1  0
  4 21  1  0
  5 22  1  0
  6 23  1  6
  7 24  1  0
  8 25  1  1
  9 26  1  0
 10 27  1  0
 10 28  1  0
 13 29  1  0
 14 30  1  0
M  END
$$$$
