
     RDKit          3D

 60 64  0  0  0  0  0  0  0  0999 V2000
    2.2965   -1.0203    0.5026 C   0  0  2  0  0  0  0  0  0  0  0  0
    0.9540   -1.4771   -0.0531 C   0  0  0  0  0  0  0  0  0  0  0  0
   -0.2235   -0.8171    0.6893 C   0  0  2  0  0  0  0  0  0  0  0  0
   -1.3689   -1.0526   -0.1105 O   0  0  0  0  0  0  0  0  0  0  0  0
   -2.5829   -0.9669    0.6127 C   0  0  2  0  0  0  0  0  0  0  0  0
   -3.6219   -1.8383   -0.1195 C   0  0  0  0  0  0  0  0  0  0  0  0
   -3.8709   -1.3470   -1.5244 C   0  0  0  0  0  0  0  0  0  0  0  0
   -4.7913   -0.4258   -1.8665 C   0  0  0  0  0  0  0  0  0  0  0  0
   -5.8269    0.1705   -0.9355 C   0  0  2  0  0  0  0  0  0  0  0  0
   -6.7988    0.7991   -1.7365 O   0  0  0  0  0  0  0  0  0  0  0  0
   -5.2081    1.2072    0.0408 C   0  0  1  0  0  0  0  0  0  0  0  0
   -6.2928    2.0006    0.7906 C   0  0  0  0  0  0  0  0  0  0  0  0
   -7.0538    1.1579    1.6159 O   0  0  0  0  0  0  0  0  0  0  0  0
   -4.4191    0.5510    1.0206 O   0  0  0  0  0  0  0  0  0  0  0  0
   -3.0373    0.5082    0.6973 C   0  0  1  0  0  0  0  0  0  0  0  0
   -2.2929    1.2248    1.7918 C   0  0  0  0  0  0  0  0  0  0  0  0
   -0.9564    1.3025    1.8738 C   0  0  0  0  0  0  0  0  0  0  0  0
    0.0120    0.7168    0.8724 C   0  0  1  0  0  0  0  0  0  0  0  0
    1.3145    1.0011    1.3663 O   0  0  0  0  0  0  0  0  0  0  0  0
    2.3089    0.5247    0.4864 C   0  0  1  0  0  0  0  0  0  0  0  0
    3.6931    1.0452    0.9348 C   0  0  2  0  0  0  0  0  0  0  0  0
    3.7746    2.4433    0.8056 O   0  0  0  0  0  0  0  0  0  0  0  0
    4.7734    0.3469    0.0935 C   0  0  1  0  0  0  0  0  0  0  0  0
    6.0751    0.6976    0.5208 O   0  0  0  0  0  0  0  0  0  0  0  0
    6.9623    0.8744   -0.5770 C   0  0  0  0  0  0  0  0  0  0  0  0
    6.8895   -0.1608   -1.6985 C   0  0  0  0  0  0  0  0  0  0  0  0
    6.3272   -1.3832   -1.6183 C   0  0  0  0  0  0  0  0  0  0  0  0
    5.7632   -1.9713   -0.3515 C   0  0  0  0  0  0  0  0  0  0  0  0
    4.5975   -1.1708    0.2644 C   0  0  2  0  0  0  0  0  0  0  0  0
    3.3507   -1.5638   -0.2852 O   0  0  0  0  0  0  0  0  0  0  0  0
    2.3667   -1.3899    1.5536 H   0  0  0  0  0  0  0  0  0  0  0  0
    0.8731   -2.5829    0.0332 H   0  0  0  0  0  0  0  0  0  0  0  0
    0.9040   -1.2192   -1.1354 H   0  0  0  0  0  0  0  0  0  0  0  0
   -0.2936   -1.3103    1.6876 H   0  0  0  0  0  0  0  0  0  0  0  0
   -2.4946   -1.3974    1.6387 H   0  0  0  0  0  0  0  0  0  0  0  0
   -3.2235   -2.8740   -0.1840 H   0  0  0  0  0  0  0  0  0  0  0  0
   -4.5641   -1.9122    0.4623 H   0  0  0  0  0  0  0  0  0  0  0  0
   -3.2165   -1.7255   -2.3046 H   0  0  0  0  0  0  0  0  0  0  0  0
   -4.8382   -0.1429   -2.9151 H   0  0  0  0  0  0  0  0  0  0  0  0
   -6.2948   -0.6577   -0.3519 H   0  0  0  0  0  0  0  0  0  0  0  0
   -7.6917    0.5412   -1.3873 H   0  0  0  0  0  0  0  0  0  0  0  0
   -4.6429    1.9692   -0.5463 H   0  0  0  0  0  0  0  0  0  0  0  0
   -5.7945    2.7569    1.4343 H   0  0  0  0  0  0  0  0  0  0  0  0
   -6.9420    2.5656    0.0826 H   0  0  0  0  0  0  0  0  0  0  0  0
   -7.8247    0.8433    1.0764 H   0  0  0  0  0  0  0  0  0  0  0  0
   -2.7789    1.0046   -0.2677 H   0  0  0  0  0  0  0  0  0  0  0  0
   -2.8736    1.6938    2.5823 H   0  0  0  0  0  0  0  0  0  0  0  0
   -0.5438    1.8313    2.7297 H   0  0  0  0  0  0  0  0  0  0  0  0
   -0.1454    1.2394   -0.0994 H   0  0  0  0  0  0  0  0  0  0  0  0
    2.1257    0.8916   -0.5528 H   0  0  0  0  0  0  0  0  0  0  0  0
    3.8459    0.7928    2.0081 H   0  0  0  0  0  0  0  0  0  0  0  0
    3.6475    2.6691   -0.1530 H   0  0  0  0  0  0  0  0  0  0  0  0
    4.5709    0.6305   -0.9698 H   0  0  0  0  0  0  0  0  0  0  0  0
    6.7912    1.8814   -1.0154 H   0  0  0  0  0  0  0  0  0  0  0  0
    7.9996    0.8711   -0.1836 H   0  0  0  0  0  0  0  0  0  0  0  0
    7.3206    0.1297   -2.6520 H   0  0  0  0  0  0  0  0  0  0  0  0
    6.3229   -2.0056   -2.5085 H   0  0  0  0  0  0  0  0  0  0  0  0
    5.4286   -3.0127   -0.5485 H   0  0  0  0  0  0  0  0  0  0  0  0
    6.5917   -2.0360    0.3881 H   0  0  0  0  0  0  0  0  0  0  0  0
    4.6276   -1.4217    1.3532 H   0  0  0  0  0  0  0  0  0  0  0  0
  1  2  1  0
  2  3  1  0
  3  4  1  0
  4  5  1  0
  5  6  1  0
  6  7  1  0
  7  8  2  0
  8  9  1  0
  9 10  1  0
  9 11  1  0
 11 12  1  0
 12 13  1  0
 11 14  1  0
 14 15  1  0
 15 16  1  0
 16 17  2  0
 17 18  1  0
 18 19  1  0
 19 20  1  0
 20 21  1  0
 21 22  1  0
 21 23  1  0
 23 24  1  0
 24 25  1  0
 25 26  1  0
 26 27  2  0
 27 28  1  0
 28 29  1  0
 29 30  1  0
 20  1  1  0
 29 23  1  0
 30  1  1  0
 18  3  1  0
 15  5  1  0
  1 31  1  1
  2 32  1  0
  2 33  1  0
  3 34  1  1
  5 35  1  1
  6 36  1  0
  6 37  1  0
  7 38  1  0
  8 39  1  0
  9 40  1  1
 10 41  1  0
 11 42  1  6
 12 43  1  0
 12 44  1  0
 13 45  1  0
 15 46  1  6
 16 47  1  0
 17 48  1  0
 18 49  1  6
 20 50  1  6
 21 51  1  1
 22 52  1  0
 23 53  1  6
 25 54  1  0
 25 55  1  0
 26 56  1  0
 27 57  1  0
 28 58  1  0
 28 59  1  0
 29 60  1  1
M  END
$$$$
