
     RDKit          3D

 82 86  0  0  0  0  0  0  0  0999 V2000
   -7.1261    2.8361    2.3330 C   0  0  0  0  0  0  0  0  0  0  0  0
   -5.8644    2.1478    1.8213 C   0  0  0  0  0  0  0  0  0  0  0  0
   -5.8702    2.0499    0.2890 C   0  0  0  0  0  0  0  0  0  0  0  0
   -4.5808    1.4240   -0.2580 C   0  0  0  0  0  0  0  0  0  0  0  0
   -4.4803   -0.0330    0.0978 C   0  0  0  0  0  0  0  0  0  0  0  0
   -5.1433   -0.9336   -0.5616 N   0  0  0  0  0  0  0  0  0  0  0  0
   -4.9667   -2.2475    0.0592 C   0  0  0  0  0  0  0  0  0  0  0  0
   -4.3310   -3.2274   -0.9181 C   0  0  0  0  0  0  0  0  0  0  0  0
   -5.5006   -3.8804   -1.6468 C   0  0  0  0  0  0  0  0  0  0  0  0
   -6.7502   -3.6453   -0.7930 C   0  0  0  0  0  0  0  0  0  0  0  0
   -6.3115   -2.8545    0.4350 C   0  0  0  0  0  0  0  0  0  0  0  0
   -4.1033   -1.9215    1.2286 C   0  0  0  0  0  0  0  0  0  0  0  0
   -3.6730   -2.7497    2.0757 O   0  0  0  0  0  0  0  0  0  0  0  0
   -3.8078   -0.5351    1.2559 N   0  0  0  0  0  0  0  0  0  0  0  0
   -2.6758    0.0689    1.9597 C   0  0  0  0  0  0  0  0  0  0  0  0
   -1.3846   -0.2744    1.2632 C   0  0  0  0  0  0  0  0  0  0  0  0
   -0.6718   -1.4234    1.6288 C   0  0  0  0  0  0  0  0  0  0  0  0
    0.4976   -1.7725    0.9539 C   0  0  0  0  0  0  0  0  0  0  0  0
    0.9792   -0.9805   -0.0986 C   0  0  0  0  0  0  0  0  0  0  0  0
    0.2529    0.1694   -0.4952 C   0  0  0  0  0  0  0  0  0  0  0  0
    0.7106    1.0787   -1.6087 C   0  0  0  0  0  0  0  0  0  0  0  0
    1.2099    2.2747   -1.0473 O   0  0  0  0  0  0  0  0  0  0  0  0
    1.7343    3.1176   -2.0561 C   0  0  0  0  0  0  0  0  0  0  0  0
    3.2515    2.9961   -2.0990 C   0  0  0  0  0  0  0  0  0  0  0  0
   -0.9184    0.5132    0.2009 C   0  0  0  0  0  0  0  0  0  0  0  0
    2.2131   -1.4108   -0.7907 C   0  0  0  0  0  0  0  0  0  0  0  0
    2.0905   -2.1001   -2.0079 C   0  0  0  0  0  0  0  0  0  0  0  0
    3.2249   -2.5584   -2.6788 C   0  0  0  0  0  0  0  0  0  0  0  0
    4.4912   -2.3452   -2.1349 C   0  0  0  0  0  0  0  0  0  0  0  0
    4.6283   -1.6675   -0.9217 C   0  0  0  0  0  0  0  0  0  0  0  0
    3.4982   -1.1846   -0.2409 C   0  0  0  0  0  0  0  0  0  0  0  0
    3.7109   -0.3068    1.2832 S   0  0  0  0  0  6  0  0  0  0  0  0
    3.1517   -1.1283    2.4100 O   0  0  0  0  0  0  0  0  0  0  0  0
    2.9868    1.0090    1.2265 O   0  0  0  0  0  0  0  0  0  0  0  0
    5.3879   -0.0088    1.6044 N   0  0  0  0  0  0  0  0  0  0  0  0
    6.1516    0.9146    0.8223 C   0  0  0  0  0  0  0  0  0  0  0  0
    5.6706    1.5770   -0.2469 N   0  0  0  0  0  0  0  0  0  0  0  0
    6.6589    2.2747   -0.7302 O   0  0  0  0  0  0  0  0  0  0  0  0
    7.7575    2.0937   -0.0312 C   0  0  0  0  0  0  0  0  0  0  0  0
    9.0682    2.7374   -0.3415 C   0  0  0  0  0  0  0  0  0  0  0  0
    7.4835    1.2228    1.0056 C   0  0  0  0  0  0  0  0  0  0  0  0
    8.4306    0.6519    2.0135 C   0  0  0  0  0  0  0  0  0  0  0  0
   -7.1931    3.8690    1.9299 H   0  0  0  0  0  0  0  0  0  0  0  0
   -7.0968    2.8891    3.4418 H   0  0  0  0  0  0  0  0  0  0  0  0
   -8.0280    2.2635    2.0283 H   0  0  0  0  0  0  0  0  0  0  0  0
   -5.8112    1.1312    2.2667 H   0  0  0  0  0  0  0  0  0  0  0  0
   -4.9773    2.7275    2.1574 H   0  0  0  0  0  0  0  0  0  0  0  0
   -6.7476    1.4550   -0.0489 H   0  0  0  0  0  0  0  0  0  0  0  0
   -5.9683    3.0718   -0.1386 H   0  0  0  0  0  0  0  0  0  0  0  0
   -4.5825    1.5169   -1.3656 H   0  0  0  0  0  0  0  0  0  0  0  0
   -3.7040    1.9913    0.1093 H   0  0  0  0  0  0  0  0  0  0  0  0
   -3.6394   -2.7207   -1.6271 H   0  0  0  0  0  0  0  0  0  0  0  0
   -3.7660   -4.0110   -0.3651 H   0  0  0  0  0  0  0  0  0  0  0  0
   -5.6322   -3.4085   -2.6455 H   0  0  0  0  0  0  0  0  0  0  0  0
   -5.3152   -4.9676   -1.7880 H   0  0  0  0  0  0  0  0  0  0  0  0
   -7.4970   -3.0579   -1.3714 H   0  0  0  0  0  0  0  0  0  0  0  0
   -7.2122   -4.6107   -0.4915 H   0  0  0  0  0  0  0  0  0  0  0  0
   -7.0587   -2.0768    0.7081 H   0  0  0  0  0  0  0  0  0  0  0  0
   -6.1919   -3.5541    1.2925 H   0  0  0  0  0  0  0  0  0  0  0  0
   -2.6554   -0.3047    3.0064 H   0  0  0  0  0  0  0  0  0  0  0  0
   -2.8025    1.1690    2.0271 H   0  0  0  0  0  0  0  0  0  0  0  0
   -1.0222   -2.0532    2.4367 H   0  0  0  0  0  0  0  0  0  0  0  0
    1.0306   -2.6677    1.2512 H   0  0  0  0  0  0  0  0  0  0  0  0
    1.4795    0.5864   -2.2421 H   0  0  0  0  0  0  0  0  0  0  0  0
   -0.1661    1.2994   -2.2595 H   0  0  0  0  0  0  0  0  0  0  0  0
    1.3108    2.9301   -3.0718 H   0  0  0  0  0  0  0  0  0  0  0  0
    1.4771    4.1662   -1.7967 H   0  0  0  0  0  0  0  0  0  0  0  0
    3.6781    3.2827   -1.1149 H   0  0  0  0  0  0  0  0  0  0  0  0
    3.5481    1.9528   -2.3374 H   0  0  0  0  0  0  0  0  0  0  0  0
    3.6609    3.6732   -2.8779 H   0  0  0  0  0  0  0  0  0  0  0  0
   -1.4649    1.4011   -0.0881 H   0  0  0  0  0  0  0  0  0  0  0  0
    1.1122   -2.2836   -2.4357 H   0  0  0  0  0  0  0  0  0  0  0  0
    3.1216   -3.0867   -3.6177 H   0  0  0  0  0  0  0  0  0  0  0  0
    5.3692   -2.7089   -2.6528 H   0  0  0  0  0  0  0  0  0  0  0  0
    5.6211   -1.5261   -0.5178 H   0  0  0  0  0  0  0  0  0  0  0  0
    5.8421   -0.5257    2.3893 H   0  0  0  0  0  0  0  0  0  0  0  0
    8.9814    3.3482   -1.2644 H   0  0  0  0  0  0  0  0  0  0  0  0
    9.3700    3.3947    0.5003 H   0  0  0  0  0  0  0  0  0  0  0  0
    9.8416    1.9565   -0.4965 H   0  0  0  0  0  0  0  0  0  0  0  0
    7.9481    0.6250    3.0125 H   0  0  0  0  0  0  0  0  0  0  0  0
    9.3473    1.2734    2.0838 H   0  0  0  0  0  0  0  0  0  0  0  0
    8.7122   -0.3788    1.7136 H   0  0  0  0  0  0  0  0  0  0  0  0
  1  2  1  0
  2  3  1  0
  3  4  1  0
  4  5  1  0
  5  6  2  0
  6  7  1  0
  7  8  1  0
  8  9  1  0
  9 10  1  0
 10 11  1  0
  7 12  1  0
 12 13  2  0
 12 14  1  0
 14 15  1  0
 15 16  1  0
 16 17  2  0
 17 18  1  0
 18 19  2  0
 19 20  1  0
 20 21  1  0
 21 22  1  0
 22 23  1  0
 23 24  1  0
 20 25  2  0
 19 26  1  0
 26 27  2  0
 27 28  1  0
 28 29  2  0
 29 30  1  0
 30 31  2  0
 31 32  1  0
 32 33  2  0
 32 34  2  0
 32 35  1  0
 35 36  1  0
 36 37  2  0
 37 38  1  0
 38 39  1  0
 39 40  1  0
 39 41  2  0
 41 42  1  0
 14  5  1  0
 25 16  1  0
 31 26  1  0
 41 36  1  0
 11  7  1  0
  1 43  1  0
  1 44  1  0
  1 45  1  0
  2 46  1  0
  2 47  1  0
  3 48  1  0
  3 49  1  0
  4 50  1  0
  4 51  1  0
  8 52  1  0
  8 53  1  0
  9 54  1  0
  9 55  1  0
 10 56  1  0
 10 57  1  0
 11 58  1  0
 11 59  1  0
 15 60  1  0
 15 61  1  0
 17 62  1  0
 18 63  1  0
 21 64  1  0
 21 65  1  0
 23 66  1  0
 23 67  1  0
 24 68  1  0
 24 69  1  0
 24 70  1  0
 25 71  1  0
 27 72  1  0
 28 73  1  0
 29 74  1  0
 30 75  1  0
 35 76  1  0
 40 77  1  0
 40 78  1  0
 40 79  1  0
 42 80  1  0
 42 81  1  0
 42 82  1  0
M  END
$$$$
