
     RDKit          3D

 87 91  0  0  0  0  0  0  0  0999 V2000
    0.2965   -2.8243    1.2809 C   0  0  0  0  0  0  0  0  0  0  0  0
   -0.6391   -2.2961    0.2838 N   0  0  0  0  0  0  0  0  0  0  0  0
   -0.6706   -2.8662   -1.0748 C   0  0  0  0  0  0  0  0  0  0  0  0
   -0.1767   -1.8485   -2.1126 C   0  0  0  0  0  0  0  0  0  0  0  0
    1.1121   -1.2569   -1.6953 N   0  0  0  0  0  0  0  0  0  0  0  0
    1.2544    0.1194   -2.2241 C   0  0  0  0  0  0  0  0  0  0  0  0
    2.6928    0.6237   -2.0788 C   0  0  0  0  0  0  0  0  0  0  0  0
    3.6815   -0.2439   -2.8917 C   0  0  0  0  0  0  0  0  0  0  0  0
    3.1284   -1.6571   -3.1575 C   0  0  0  0  0  0  0  0  0  0  0  0
    2.2692   -2.1484   -1.9837 C   0  0  0  0  0  0  0  0  0  0  0  0
    4.9236   -0.3525   -2.1942 O   0  0  0  0  0  0  0  0  0  0  0  0
    5.8130    0.7148   -2.0304 C   0  0  0  0  0  0  0  0  0  0  0  0
    5.5715    1.8350   -2.5587 O   0  0  0  0  0  0  0  0  0  0  0  0
    6.9823    0.5276   -1.2244 N   0  0  0  0  0  0  0  0  0  0  0  0
    7.9749    1.5476   -1.0196 C   0  0  0  0  0  0  0  0  0  0  0  0
    8.4863    2.2591   -2.1193 C   0  0  0  0  0  0  0  0  0  0  0  0
    9.5054    3.1972   -1.9456 C   0  0  0  0  0  0  0  0  0  0  0  0
   10.0345    3.4279   -0.6762 C   0  0  0  0  0  0  0  0  0  0  0  0
    9.5442    2.7240    0.4252 C   0  0  0  0  0  0  0  0  0  0  0  0
    8.5109    1.7827    0.2703 C   0  0  0  0  0  0  0  0  0  0  0  0
    7.9845    1.0861    1.4689 C   0  0  0  0  0  0  0  0  0  0  0  0
    8.8622    0.4364    2.3543 C   0  0  0  0  0  0  0  0  0  0  0  0
    8.3667   -0.2147    3.4883 C   0  0  0  0  0  0  0  0  0  0  0  0
    6.9943   -0.2177    3.7512 C   0  0  0  0  0  0  0  0  0  0  0  0
    6.1150    0.4339    2.8826 C   0  0  0  0  0  0  0  0  0  0  0  0
    6.6058    1.0871    1.7482 C   0  0  0  0  0  0  0  0  0  0  0  0
   -1.4070   -1.1208    0.6146 C   0  0  0  0  0  0  0  0  0  0  0  0
   -0.9139   -0.2545    1.3876 O   0  0  0  0  0  0  0  0  0  0  0  0
   -2.7588   -0.8959    0.0625 C   0  0  0  0  0  0  0  0  0  0  0  0
   -3.1437    0.3883   -0.3521 C   0  0  0  0  0  0  0  0  0  0  0  0
   -4.4247    0.6108   -0.8644 C   0  0  0  0  0  0  0  0  0  0  0  0
   -5.3478   -0.4435   -0.9522 C   0  0  0  0  0  0  0  0  0  0  0  0
   -6.7388   -0.2009   -1.5004 C   0  0  0  0  0  0  0  0  0  0  0  0
   -7.7317    0.1777   -0.4698 N   0  0  0  0  0  0  0  0  0  0  0  0
   -7.4156    1.4624    0.1853 C   0  0  0  0  0  0  0  0  0  0  0  0
   -8.5956    1.9089    1.0551 C   0  0  0  0  0  0  0  0  0  0  0  0
   -8.9350    0.8269    2.0957 C   0  0  0  0  0  0  0  0  0  0  0  0
   -9.1598   -0.5316    1.4081 C   0  0  0  0  0  0  0  0  0  0  0  0
   -7.9592   -0.8889    0.5253 C   0  0  0  0  0  0  0  0  0  0  0  0
  -10.1465    1.2234    2.9001 C   0  0  0  0  0  0  0  0  0  0  0  0
  -10.0506    1.4056    4.3133 N   0  0  0  0  0  0  0  0  0  0  0  0
  -11.2562    1.3970    2.3270 O   0  0  0  0  0  0  0  0  0  0  0  0
   -4.9647   -1.7261   -0.5283 C   0  0  0  0  0  0  0  0  0  0  0  0
   -3.6834   -1.9485   -0.0168 C   0  0  0  0  0  0  0  0  0  0  0  0
    1.0637   -2.0580    1.5208 H   0  0  0  0  0  0  0  0  0  0  0  0
   -0.2566   -3.0912    2.2060 H   0  0  0  0  0  0  0  0  0  0  0  0
    0.8190   -3.7330    0.9154 H   0  0  0  0  0  0  0  0  0  0  0  0
   -1.6993   -3.1858   -1.3357 H   0  0  0  0  0  0  0  0  0  0  0  0
   -0.0454   -3.7815   -1.1359 H   0  0  0  0  0  0  0  0  0  0  0  0
   -0.0872   -2.3340   -3.1105 H   0  0  0  0  0  0  0  0  0  0  0  0
   -0.9596   -1.0624   -2.2085 H   0  0  0  0  0  0  0  0  0  0  0  0
    0.5826    0.7975   -1.6539 H   0  0  0  0  0  0  0  0  0  0  0  0
    0.9590    0.1668   -3.2976 H   0  0  0  0  0  0  0  0  0  0  0  0
    2.9638    0.6024   -0.9998 H   0  0  0  0  0  0  0  0  0  0  0  0
    2.7517    1.6795   -2.4213 H   0  0  0  0  0  0  0  0  0  0  0  0
    3.8629    0.2342   -3.8808 H   0  0  0  0  0  0  0  0  0  0  0  0
    3.9653   -2.3676   -3.3336 H   0  0  0  0  0  0  0  0  0  0  0  0
    2.5040   -1.6478   -4.0780 H   0  0  0  0  0  0  0  0  0  0  0  0
    2.9053   -2.1976   -1.0736 H   0  0  0  0  0  0  0  0  0  0  0  0
    1.9512   -3.1929   -2.1943 H   0  0  0  0  0  0  0  0  0  0  0  0
    7.0564   -0.3619   -0.6814 H   0  0  0  0  0  0  0  0  0  0  0  0
    8.1159    2.0665   -3.1179 H   0  0  0  0  0  0  0  0  0  0  0  0
    9.8938    3.7378   -2.7991 H   0  0  0  0  0  0  0  0  0  0  0  0
   10.8264    4.1540   -0.5448 H   0  0  0  0  0  0  0  0  0  0  0  0
    9.9596    2.9268    1.4049 H   0  0  0  0  0  0  0  0  0  0  0  0
    9.9278    0.4240    2.1606 H   0  0  0  0  0  0  0  0  0  0  0  0
    9.0470   -0.7182    4.1629 H   0  0  0  0  0  0  0  0  0  0  0  0
    6.6127   -0.7223    4.6294 H   0  0  0  0  0  0  0  0  0  0  0  0
    5.0527    0.4361    3.0904 H   0  0  0  0  0  0  0  0  0  0  0  0
    5.9124    1.6002    1.0932 H   0  0  0  0  0  0  0  0  0  0  0  0
   -2.4471    1.2157   -0.2931 H   0  0  0  0  0  0  0  0  0  0  0  0
   -4.6981    1.6067   -1.1900 H   0  0  0  0  0  0  0  0  0  0  0  0
   -6.6984    0.5920   -2.2793 H   0  0  0  0  0  0  0  0  0  0  0  0
   -7.0924   -1.1110   -2.0331 H   0  0  0  0  0  0  0  0  0  0  0  0
   -6.5063    1.3727    0.8208 H   0  0  0  0  0  0  0  0  0  0  0  0
   -7.2316    2.2465   -0.5816 H   0  0  0  0  0  0  0  0  0  0  0  0
   -9.4739    2.1022    0.3996 H   0  0  0  0  0  0  0  0  0  0  0  0
   -8.3312    2.8572    1.5721 H   0  0  0  0  0  0  0  0  0  0  0  0
   -8.0657    0.7255    2.7837 H   0  0  0  0  0  0  0  0  0  0  0  0
   -9.2976   -1.3231    2.1768 H   0  0  0  0  0  0  0  0  0  0  0  0
  -10.0747   -0.4966    0.7755 H   0  0  0  0  0  0  0  0  0  0  0  0
   -7.0622   -1.0319    1.1685 H   0  0  0  0  0  0  0  0  0  0  0  0
   -8.1787   -1.8501    0.0109 H   0  0  0  0  0  0  0  0  0  0  0  0
   -9.1442    1.2683    4.8128 H   0  0  0  0  0  0  0  0  0  0  0  0
  -10.8929    1.6803    4.8658 H   0  0  0  0  0  0  0  0  0  0  0  0
   -5.6617   -2.5528   -0.5857 H   0  0  0  0  0  0  0  0  0  0  0  0
   -3.4190   -2.9396    0.3306 H   0  0  0  0  0  0  0  0  0  0  0  0
  1  2  1  0
  2  3  1  0
  3  4  1  0
  4  5  1  0
  5  6  1  0
  6  7  1  0
  7  8  1  0
  8  9  1  0
  9 10  1  0
  8 11  1  0
 11 12  1  0
 12 13  2  0
 12 14  1  0
 14 15  1  0
 15 16  2  0
 16 17  1  0
 17 18  2  0
 18 19  1  0
 19 20  2  0
 20 21  1  0
 21 22  2  0
 22 23  1  0
 23 24  2  0
 24 25  1  0
 25 26  2  0
  2 27  1  0
 27 28  2  0
 27 29  1  0
 29 30  2  0
 30 31  1  0
 31 32  2  0
 32 33  1  0
 33 34  1  0
 34 35  1  0
 35 36  1  0
 36 37  1  0
 37 38  1  0
 38 39  1  0
 37 40  1  0
 40 41  1  0
 40 42  2  0
 32 43  1  0
 43 44  2  0
 10  5  1  0
 20 15  1  0
 26 21  1  0
 44 29  1  0
 39 34  1  0
  1 45  1  0
  1 46  1  0
  1 47  1  0
  3 48  1  0
  3 49  1  0
  4 50  1  0
  4 51  1  0
  6 52  1  0
  6 53  1  0
  7 54  1  0
  7 55  1  0
  8 56  1  0
  9 57  1  0
  9 58  1  0
 10 59  1  0
 10 60  1  0
 14 61  1  0
 16 62  1  0
 17 63  1  0
 18 64  1  0
 19 65  1  0
 22 66  1  0
 23 67  1  0
 24 68  1  0
 25 69  1  0
 26 70  1  0
 30 71  1  0
 31 72  1  0
 33 73  1  0
 33 74  1  0
 35 75  1  0
 35 76  1  0
 36 77  1  0
 36 78  1  0
 37 79  1  0
 38 80  1  0
 38 81  1  0
 39 82  1  0
 39 83  1  0
 41 84  1  0
 41 85  1  0
 43 86  1  0
 44 87  1  0
M  END
$$$$
