
     RDKit          3D

 57 58  0  0  0  0  0  0  0  0999 V2000
   -2.5338    0.2490    1.1034 C   0  0  1  0  0  0  0  0  0  0  0  0
   -2.0712   -0.4461    2.3828 C   0  0  0  0  0  0  0  0  0  0  0  0
   -0.5537   -0.5545    2.2719 C   0  0  1  0  0  0  0  0  0  0  0  0
   -0.0801   -1.6941    2.9404 O   0  0  0  0  0  0  0  0  0  0  0  0
   -0.2781   -0.6498    0.7725 C   0  0  2  0  0  0  0  0  0  0  0  0
    1.1283   -0.2232    0.4172 C   0  0  0  0  0  0  0  0  0  0  0  0
    2.1889   -0.9803    0.7434 C   0  0  0  0  0  0  0  0  0  0  0  0
    3.6069   -0.5845    0.3997 C   0  0  1  0  0  0  0  0  0  0  0  0
    3.7781   -0.5444   -0.9956 O   0  0  0  0  0  0  0  0  0  0  0  0
    4.0033    0.7503    1.0747 C   0  0  0  0  0  0  0  0  0  0  0  0
    5.5224    0.9938    1.1058 C   0  0  0  0  0  0  0  0  0  0  0  0
    6.1087    1.3138   -0.2802 C   0  0  0  0  0  0  0  0  0  0  0  0
    7.5376    1.8727   -0.1999 C   0  0  0  0  0  0  0  0  0  0  0  0
    8.5520    0.8318    0.2730 C   0  0  0  0  0  0  0  0  0  0  0  0
   -1.3445    0.2538    0.1284 C   0  0  1  0  0  0  0  0  0  0  0  0
   -1.8792   -0.2905   -1.2103 C   0  0  0  0  0  0  0  0  0  0  0  0
   -3.2251   -0.7929   -0.8455 C   0  0  0  0  0  0  0  0  0  0  0  0
   -3.5594   -0.4854    0.4584 O   0  0  0  0  0  0  0  0  0  0  0  0
   -4.0289   -1.4615   -1.6760 C   0  0  0  0  0  0  0  0  0  0  0  0
   -5.3884   -1.9503   -1.2590 C   0  0  0  0  0  0  0  0  0  0  0  0
   -6.4035   -0.8058   -1.1184 C   0  0  0  0  0  0  0  0  0  0  0  0
   -6.6987   -0.1264   -2.4615 C   0  0  0  0  0  0  0  0  0  0  0  0
   -7.7298    0.9435   -2.2899 C   0  0  0  0  0  0  0  0  0  0  0  0
   -9.0804    0.6283   -2.3997 O   0  0  0  0  0  0  0  0  0  0  0  0
   -7.3781    2.1199   -2.0064 O   0  0  0  0  0  0  0  0  0  0  0  0
   -2.8826    1.2851    1.3092 H   0  0  0  0  0  0  0  0  0  0  0  0
   -2.5220   -1.4615    2.4537 H   0  0  0  0  0  0  0  0  0  0  0  0
   -2.3600    0.1390    3.2827 H   0  0  0  0  0  0  0  0  0  0  0  0
   -0.0825    0.3689    2.6871 H   0  0  0  0  0  0  0  0  0  0  0  0
   -0.1279   -1.4905    3.9108 H   0  0  0  0  0  0  0  0  0  0  0  0
   -0.4335   -1.7057    0.4493 H   0  0  0  0  0  0  0  0  0  0  0  0
    1.2810    0.7020   -0.1310 H   0  0  0  0  0  0  0  0  0  0  0  0
    2.0353   -1.9149    1.2759 H   0  0  0  0  0  0  0  0  0  0  0  0
    4.2695   -1.3838    0.7969 H   0  0  0  0  0  0  0  0  0  0  0  0
    3.2779    0.2383   -1.3451 H   0  0  0  0  0  0  0  0  0  0  0  0
    3.6520    0.7281    2.1303 H   0  0  0  0  0  0  0  0  0  0  0  0
    3.4924    1.6069    0.5832 H   0  0  0  0  0  0  0  0  0  0  0  0
    6.0308    0.1062    1.5399 H   0  0  0  0  0  0  0  0  0  0  0  0
    5.7119    1.8542    1.7844 H   0  0  0  0  0  0  0  0  0  0  0  0
    6.1123    0.4016   -0.9135 H   0  0  0  0  0  0  0  0  0  0  0  0
    5.4711    2.0753   -0.7801 H   0  0  0  0  0  0  0  0  0  0  0  0
    7.5665    2.7548    0.4760 H   0  0  0  0  0  0  0  0  0  0  0  0
    7.8376    2.2172   -1.2133 H   0  0  0  0  0  0  0  0  0  0  0  0
    9.5753    1.2579    0.2080 H   0  0  0  0  0  0  0  0  0  0  0  0
    8.3610    0.5499    1.3292 H   0  0  0  0  0  0  0  0  0  0  0  0
    8.5054   -0.0750   -0.3668 H   0  0  0  0  0  0  0  0  0  0  0  0
   -0.9738    1.2974    0.0079 H   0  0  0  0  0  0  0  0  0  0  0  0
   -1.2463   -1.0997   -1.6352 H   0  0  0  0  0  0  0  0  0  0  0  0
   -1.9794    0.5334   -1.9493 H   0  0  0  0  0  0  0  0  0  0  0  0
   -3.6867   -1.6838   -2.6797 H   0  0  0  0  0  0  0  0  0  0  0  0
   -5.7592   -2.6780   -2.0129 H   0  0  0  0  0  0  0  0  0  0  0  0
   -5.3048   -2.4922   -0.2919 H   0  0  0  0  0  0  0  0  0  0  0  0
   -6.0304   -0.0537   -0.3895 H   0  0  0  0  0  0  0  0  0  0  0  0
   -7.3483   -1.2286   -0.7112 H   0  0  0  0  0  0  0  0  0  0  0  0
   -5.7705    0.3243   -2.8752 H   0  0  0  0  0  0  0  0  0  0  0  0
   -7.0742   -0.8775   -3.1898 H   0  0  0  0  0  0  0  0  0  0  0  0
   -9.7916    1.3379   -2.2700 H   0  0  0  0  0  0  0  0  0  0  0  0
  1  2  1  0
  2  3  1  0
  3  4  1  0
  3  5  1  0
  5  6  1  0
  6  7  2  0
  7  8  1  0
  8  9  1  0
  8 10  1  0
 10 11  1  0
 11 12  1  0
 12 13  1  0
 13 14  1  0
  5 15  1  0
 15 16  1  0
 16 17  1  0
 17 18  1  0
 17 19  2  0
 19 20  1  0
 20 21  1  0
 21 22  1  0
 22 23  1  0
 23 24  1  0
 23 25  2  0
 15  1  1  0
 18  1  1  0
  1 26  1  1
  2 27  1  0
  2 28  1  0
  3 29  1  1
  4 30  1  0
  5 31  1  6
  6 32  1  0
  7 33  1  0
  8 34  1  1
  9 35  1  0
 10 36  1  0
 10 37  1  0
 11 38  1  0
 11 39  1  0
 12 40  1  0
 12 41  1  0
 13 42  1  0
 13 43  1  0
 14 44  1  0
 14 45  1  0
 14 46  1  0
 15 47  1  6
 16 48  1  0
 16 49  1  0
 19 50  1  0
 20 51  1  0
 20 52  1  0
 21 53  1  0
 21 54  1  0
 22 55  1  0
 22 56  1  0
 24 57  1  0
M  END
$$$$
