
     RDKit          3D

 42 44  0  0  0  0  0  0  0  0999 V2000
   -1.7893   -2.7722   -0.9475 C   0  0  0  0  0  0  0  0  0  0  0  0
   -1.2221   -2.2217    0.2901 N   0  0  0  0  0  0  0  0  0  0  0  0
   -0.6811   -0.8541    0.1459 C   0  0  1  0  0  0  0  0  0  0  0  0
    0.3987   -0.7596   -0.9665 C   0  0  0  0  0  0  0  0  0  0  0  0
    1.0259    0.5678   -0.9718 N   0  0  0  0  0  0  0  0  0  0  0  0
    2.4212    0.7589   -0.6742 C   0  0  0  0  0  0  0  0  0  0  0  0
    3.0352    0.0438    0.3696 C   0  0  0  0  0  0  0  0  0  0  0  0
    4.3995    0.2363    0.6636 C   0  0  0  0  0  0  0  0  0  0  0  0
    5.0518   -0.4556    1.6951 O   0  0  0  0  0  0  0  0  0  0  0  0
    4.4258   -1.4139    2.5422 C   0  0  0  0  0  0  0  0  0  0  0  0
    5.1397    1.1508   -0.0937 C   0  0  0  0  0  0  0  0  0  0  0  0
    4.5344    1.8679   -1.1277 C   0  0  0  0  0  0  0  0  0  0  0  0
    3.1820    1.6756   -1.4167 C   0  0  0  0  0  0  0  0  0  0  0  0
   -0.0201    1.9277   -1.2249 S   0  0  0  0  0  6  0  0  0  0  0  0
    0.4704    3.1175   -0.4487 O   0  0  0  0  0  0  0  0  0  0  0  0
   -0.1086    2.2495   -2.6897 O   0  0  0  0  0  0  0  0  0  0  0  0
   -1.5688    1.4188   -0.6073 C   0  0  0  0  0  0  0  0  0  0  0  0
   -1.7889    0.1704   -0.0384 C   0  0  0  0  0  0  0  0  0  0  0  0
   -3.0932    0.0381    0.4650 C   0  0  0  0  0  0  0  0  0  0  0  0
   -3.8761    1.1641    0.2414 C   0  0  0  0  0  0  0  0  0  0  0  0
   -2.9661    2.3475   -0.5387 S   0  0  0  0  0  0  0  0  0  0  0  0
   -5.5502    1.3414    0.7291 S   0  0  0  0  0  6  0  0  0  0  0  0
   -6.5133    0.1492   -0.0705 N   0  0  0  0  0  0  0  0  0  0  0  0
   -5.6587    1.1733    2.2186 O   0  0  0  0  0  0  0  0  0  0  0  0
   -6.0431    2.7096    0.3504 O   0  0  0  0  0  0  0  0  0  0  0  0
   -2.3914   -3.6707   -0.6988 H   0  0  0  0  0  0  0  0  0  0  0  0
   -0.9845   -3.0831   -1.6480 H   0  0  0  0  0  0  0  0  0  0  0  0
   -2.4599   -2.0416   -1.4470 H   0  0  0  0  0  0  0  0  0  0  0  0
   -0.4511   -2.8564    0.6049 H   0  0  0  0  0  0  0  0  0  0  0  0
   -0.1808   -0.5951    1.1053 H   0  0  0  0  0  0  0  0  0  0  0  0
   -0.0655   -0.9243   -1.9622 H   0  0  0  0  0  0  0  0  0  0  0  0
    1.1604   -1.5565   -0.8261 H   0  0  0  0  0  0  0  0  0  0  0  0
    2.4438   -0.6430    0.9586 H   0  0  0  0  0  0  0  0  0  0  0  0
    5.1739   -1.8052    3.2617 H   0  0  0  0  0  0  0  0  0  0  0  0
    4.0362   -2.2607    1.9385 H   0  0  0  0  0  0  0  0  0  0  0  0
    3.5997   -0.9382    3.1119 H   0  0  0  0  0  0  0  0  0  0  0  0
    6.1890    1.3073    0.1221 H   0  0  0  0  0  0  0  0  0  0  0  0
    5.1155    2.5731   -1.7078 H   0  0  0  0  0  0  0  0  0  0  0  0
    2.7313    2.2323   -2.2280 H   0  0  0  0  0  0  0  0  0  0  0  0
   -3.4547   -0.8417    0.9812 H   0  0  0  0  0  0  0  0  0  0  0  0
   -6.1768   -0.7846    0.2551 H   0  0  0  0  0  0  0  0  0  0  0  0
   -7.4900    0.2576    0.2839 H   0  0  0  0  0  0  0  0  0  0  0  0
  1  2  1  0
  2  3  1  0
  3  4  1  0
  4  5  1  0
  5  6  1  0
  6  7  2  0
  7  8  1  0
  8  9  1  0
  9 10  1  0
  8 11  2  0
 11 12  1  0
 12 13  2  0
  5 14  1  0
 14 15  2  0
 14 16  2  0
 14 17  1  0
 17 18  2  0
 18 19  1  0
 19 20  2  0
 20 21  1  0
 20 22  1  0
 22 23  1  0
 22 24  2  0
 22 25  2  0
 18  3  1  0
 13  6  1  0
 21 17  1  0
  1 26  1  0
  1 27  1  0
  1 28  1  0
  2 29  1  0
  3 30  1  1
  4 31  1  0
  4 32  1  0
  7 33  1  0
 10 34  1  0
 10 35  1  0
 10 36  1  0
 11 37  1  0
 12 38  1  0
 13 39  1  0
 19 40  1  0
 23 41  1  0
 23 42  1  0
M  END
$$$$
