
     RDKit          3D

 49 48  0  0  0  0  0  0  0  0999 V2000
   -6.7113    1.4813   -0.3507 C   0  0  0  0  0  0  0  0  0  0  0  0
   -6.1229    0.1475    0.1074 C   0  0  0  0  0  0  0  0  0  0  0  0
   -4.9659   -0.3359   -0.7846 C   0  0  0  0  0  0  0  0  0  0  0  0
   -3.7377    0.5957   -0.8137 C   0  0  0  0  0  0  0  0  0  0  0  0
   -3.0944    0.8696    0.5600 C   0  0  0  0  0  0  0  0  0  0  0  0
   -2.6497   -0.3870    1.3350 C   0  0  0  0  0  0  0  0  0  0  0  0
   -1.6544   -1.2927    0.5876 C   0  0  0  0  0  0  0  0  0  0  0  0
   -0.3286   -0.5868    0.2670 C   0  0  0  0  0  0  0  0  0  0  0  0
    0.6911   -1.5764   -0.3179 C   0  0  0  0  0  0  0  0  0  0  0  0
    1.9862   -0.8896   -0.7827 C   0  0  0  0  0  0  0  0  0  0  0  0
    2.9076   -0.5106    0.3935 C   0  0  0  0  0  0  0  0  0  0  0  0
    4.1556    0.3069   -0.0189 C   0  0  0  0  0  0  0  0  0  0  0  0
    3.7392    1.4692   -0.6907 O   0  0  0  0  0  0  0  0  0  0  0  0
    5.2736   -0.6767   -1.1016 P   0  0  0  0  0  5  0  0  0  0  0  0
    6.7710    0.1013   -1.2376 O   0  0  0  0  0  0  0  0  0  0  0  0
    4.5972   -0.8185   -2.6471 O   0  0  0  0  0  0  0  0  0  0  0  0
    5.4798   -2.0545   -0.5121 O   0  0  0  0  0  0  0  0  0  0  0  0
    5.0617    0.7843    1.5052 P   0  0  0  0  0  5  0  0  0  0  0  0
    6.4100    1.7321    1.1180 O   0  0  0  0  0  0  0  0  0  0  0  0
    4.0322    1.6716    2.5146 O   0  0  0  0  0  0  0  0  0  0  0  0
    5.5234   -0.4571    2.2350 O   0  0  0  0  0  0  0  0  0  0  0  0
   -7.6259    1.7029    0.2386 H   0  0  0  0  0  0  0  0  0  0  0  0
   -5.9873    2.3061   -0.1856 H   0  0  0  0  0  0  0  0  0  0  0  0
   -6.9853    1.4367   -1.4262 H   0  0  0  0  0  0  0  0  0  0  0  0
   -5.7968    0.2248    1.1656 H   0  0  0  0  0  0  0  0  0  0  0  0
   -6.9286   -0.6174    0.0718 H   0  0  0  0  0  0  0  0  0  0  0  0
   -5.3415   -0.4518   -1.8247 H   0  0  0  0  0  0  0  0  0  0  0  0
   -4.6553   -1.3483   -0.4508 H   0  0  0  0  0  0  0  0  0  0  0  0
   -2.9768    0.1585   -1.4942 H   0  0  0  0  0  0  0  0  0  0  0  0
   -4.0251    1.5668   -1.2694 H   0  0  0  0  0  0  0  0  0  0  0  0
   -2.2205    1.5392    0.4144 H   0  0  0  0  0  0  0  0  0  0  0  0
   -3.8070    1.4415    1.1910 H   0  0  0  0  0  0  0  0  0  0  0  0
   -3.5432   -0.9868    1.6090 H   0  0  0  0  0  0  0  0  0  0  0  0
   -2.1870   -0.0616    2.2921 H   0  0  0  0  0  0  0  0  0  0  0  0
   -2.1137   -1.6826   -0.3452 H   0  0  0  0  0  0  0  0  0  0  0  0
   -1.4450   -2.1703    1.2379 H   0  0  0  0  0  0  0  0  0  0  0  0
   -0.5097    0.2218   -0.4728 H   0  0  0  0  0  0  0  0  0  0  0  0
    0.0733   -0.1356    1.1982 H   0  0  0  0  0  0  0  0  0  0  0  0
    0.2329   -2.0767   -1.1996 H   0  0  0  0  0  0  0  0  0  0  0  0
    0.9287   -2.3653    0.4294 H   0  0  0  0  0  0  0  0  0  0  0  0
    2.5191   -1.6080   -1.4386 H   0  0  0  0  0  0  0  0  0  0  0  0
    1.7376    0.0065   -1.3914 H   0  0  0  0  0  0  0  0  0  0  0  0
    3.2232   -1.4389    0.9186 H   0  0  0  0  0  0  0  0  0  0  0  0
    2.3264    0.0960    1.1187 H   0  0  0  0  0  0  0  0  0  0  0  0
    4.5526    1.9608   -0.9763 H   0  0  0  0  0  0  0  0  0  0  0  0
    7.3111   -0.4867   -1.8235 H   0  0  0  0  0  0  0  0  0  0  0  0
    5.2390   -1.3755   -3.1556 H   0  0  0  0  0  0  0  0  0  0  0  0
    6.0420    2.6303    0.9221 H   0  0  0  0  0  0  0  0  0  0  0  0
    4.5991    1.9395    3.2813 H   0  0  0  0  0  0  0  0  0  0  0  0
  1  2  1  0
  2  3  1  0
  3  4  1  0
  4  5  1  0
  5  6  1  0
  6  7  1  0
  7  8  1  0
  8  9  1  0
  9 10  1  0
 10 11  1  0
 11 12  1  0
 12 13  1  0
 12 14  1  0
 14 15  1  0
 14 16  1  0
 14 17  2  0
 12 18  1  0
 18 19  1  0
 18 20  1  0
 18 21  2  0
  1 22  1  0
  1 23  1  0
  1 24  1  0
  2 25  1  0
  2 26  1  0
  3 27  1  0
  3 28  1  0
  4 29  1  0
  4 30  1  0
  5 31  1  0
  5 32  1  0
  6 33  1  0
  6 34  1  0
  7 35  1  0
  7 36  1  0
  8 37  1  0
  8 38  1  0
  9 39  1  0
  9 40  1  0
 10 41  1  0
 10 42  1  0
 11 43  1  0
 11 44  1  0
 13 45  1  0
 15 46  1  0
 16 47  1  0
 19 48  1  0
 20 49  1  0
M  END
$$$$
