
     RDKit          3D

 21 20  0  0  0  0  0  0  0  0999 V2000
    2.5128    1.8511    1.6740 Cl  0  0  0  0  0  0  0  0  0  0  0  0
    2.9432    0.2298    1.0676 C   0  0  0  0  0  0  0  0  0  0  0  0
    2.4374    0.0320   -0.3610 C   0  0  0  0  0  0  0  0  0  0  0  0
    0.9784    0.1136   -0.4163 N   0  0  0  0  0  0  0  0  0  0  0  0
    0.1287   -0.9541    0.0374 C   0  0  0  0  0  0  0  0  0  0  0  0
    0.6477   -2.0004    0.5136 O   0  0  0  0  0  0  0  0  0  0  0  0
   -1.3093   -0.8466   -0.0401 N   0  0  0  0  0  0  0  0  0  0  0  0
   -1.9656   -0.1223   -1.1333 C   0  0  0  0  0  0  0  0  0  0  0  0
   -2.8000    1.0443   -0.6007 C   0  0  0  0  0  0  0  0  0  0  0  0
   -1.7869    2.2441    0.2441 Cl  0  0  0  0  0  0  0  0  0  0  0  0
   -2.1324   -1.5497    0.8600 N   0  0  0  0  0  0  0  0  0  0  0  0
   -1.6669   -2.1304    1.8625 O   0  0  0  0  0  0  0  0  0  0  0  0
    2.5133   -0.5383    1.7436 H   0  0  0  0  0  0  0  0  0  0  0  0
    4.0488    0.1291    1.0826 H   0  0  0  0  0  0  0  0  0  0  0  0
    2.7756   -0.9525   -0.7505 H   0  0  0  0  0  0  0  0  0  0  0  0
    2.8762    0.8192   -1.0120 H   0  0  0  0  0  0  0  0  0  0  0  0
    0.5615    0.9916   -0.7940 H   0  0  0  0  0  0  0  0  0  0  0  0
   -1.2351    0.2439   -1.8842 H   0  0  0  0  0  0  0  0  0  0  0  0
   -2.6408   -0.8233   -1.6697 H   0  0  0  0  0  0  0  0  0  0  0  0
   -3.3088    1.5481   -1.4494 H   0  0  0  0  0  0  0  0  0  0  0  0
   -3.5776    0.6709    0.0986 H   0  0  0  0  0  0  0  0  0  0  0  0
  1  2  1  0
  2  3  1  0
  3  4  1  0
  4  5  1  0
  5  6  2  0
  5  7  1  0
  7  8  1  0
  8  9  1  0
  9 10  1  0
  7 11  1  0
 11 12  2  0
  2 13  1  0
  2 14  1  0
  3 15  1  0
  3 16  1  0
  4 17  1  0
  8 18  1  0
  8 19  1  0
  9 20  1  0
  9 21  1  0
M  END
$$$$
