
     RDKit          3D

 47 48  0  0  0  0  0  0  0  0999 V2000
   -7.5254    0.7754   -1.6607 N   0  0  0  0  0  0  0  0  0  0  0  0
   -6.2007    0.2555   -1.5499 C   0  0  0  0  0  0  0  0  0  0  0  0
   -5.9504   -1.1040   -1.9290 N   0  0  0  0  0  0  0  0  0  0  0  0
   -5.2417    1.0507   -1.1677 N   0  0  0  0  0  0  0  0  0  0  0  0
   -3.8748    0.6923   -0.9161 C   0  0  0  0  0  0  0  0  0  0  0  0
   -3.5435   -0.4288   -0.1357 C   0  0  0  0  0  0  0  0  0  0  0  0
   -2.2057   -0.7239    0.1416 C   0  0  0  0  0  0  0  0  0  0  0  0
   -1.1824    0.1061   -0.3420 C   0  0  0  0  0  0  0  0  0  0  0  0
    0.2571   -0.1935   -0.0087 C   0  0  0  0  0  0  0  0  0  0  0  0
    0.6267    0.2953    1.4038 C   0  0  0  0  0  0  0  0  0  0  0  0
    1.9735   -0.1654    1.7588 N   0  0  0  0  0  0  0  0  0  0  0  0
    2.2331   -1.5038    2.2093 C   0  0  0  0  0  0  0  0  0  0  0  0
    1.2947   -2.3416    2.2958 O   0  0  0  0  0  0  0  0  0  0  0  0
    3.6281   -1.9255    2.5561 C   0  0  0  0  0  0  0  0  0  0  0  0
    4.3849   -2.8722    1.1897 S   0  0  0  0  0  0  0  0  0  0  0  0
    4.5674   -1.4602    0.0955 C   0  0  0  0  0  0  0  0  0  0  0  0
    3.6098   -1.2157   -0.8965 C   0  0  0  0  0  0  0  0  0  0  0  0
    3.7392   -0.1067   -1.7379 C   0  0  0  0  0  0  0  0  0  0  0  0
    4.8307    0.7572   -1.5953 C   0  0  0  0  0  0  0  0  0  0  0  0
    4.9878    2.1532   -2.6453 Cl  0  0  0  0  0  0  0  0  0  0  0  0
    5.7974    0.5049   -0.6150 C   0  0  0  0  0  0  0  0  0  0  0  0
    5.6687   -0.6049    0.2263 C   0  0  0  0  0  0  0  0  0  0  0  0
    0.5523    1.8009    1.4879 C   0  0  0  0  0  0  0  0  0  0  0  0
   -0.4873    2.4338    2.2349 N   0  0  0  0  0  0  0  0  0  0  0  0
    1.3873    2.5103    0.8641 O   0  0  0  0  0  0  0  0  0  0  0  0
   -1.5178    1.2495   -1.0844 C   0  0  0  0  0  0  0  0  0  0  0  0
   -2.8562    1.5436   -1.3603 C   0  0  0  0  0  0  0  0  0  0  0  0
   -7.7280    1.7695   -1.4125 H   0  0  0  0  0  0  0  0  0  0  0  0
   -8.3082    0.1682   -1.9898 H   0  0  0  0  0  0  0  0  0  0  0  0
   -6.7501   -1.7360   -2.1548 H   0  0  0  0  0  0  0  0  0  0  0  0
   -4.9865   -1.4618   -2.1052 H   0  0  0  0  0  0  0  0  0  0  0  0
   -4.3202   -1.0628    0.2724 H   0  0  0  0  0  0  0  0  0  0  0  0
   -1.9670   -1.5917    0.7441 H   0  0  0  0  0  0  0  0  0  0  0  0
    0.9320    0.2730   -0.7593 H   0  0  0  0  0  0  0  0  0  0  0  0
    0.4167   -1.2914   -0.0762 H   0  0  0  0  0  0  0  0  0  0  0  0
   -0.0949   -0.1331    2.1347 H   0  0  0  0  0  0  0  0  0  0  0  0
    2.7859    0.4838    1.6494 H   0  0  0  0  0  0  0  0  0  0  0  0
    4.2552   -1.0428    2.8038 H   0  0  0  0  0  0  0  0  0  0  0  0
    3.5974   -2.5749    3.4561 H   0  0  0  0  0  0  0  0  0  0  0  0
    2.7622   -1.8791   -1.0103 H   0  0  0  0  0  0  0  0  0  0  0  0
    2.9907    0.0815   -2.4969 H   0  0  0  0  0  0  0  0  0  0  0  0
    6.6457    1.1679   -0.5029 H   0  0  0  0  0  0  0  0  0  0  0  0
    6.4169   -0.7918    0.9860 H   0  0  0  0  0  0  0  0  0  0  0  0
   -1.2118    1.8691    2.7311 H   0  0  0  0  0  0  0  0  0  0  0  0
   -0.5432    3.4754    2.2791 H   0  0  0  0  0  0  0  0  0  0  0  0
   -0.7440    1.9179   -1.4413 H   0  0  0  0  0  0  0  0  0  0  0  0
   -3.1014    2.4330   -1.9271 H   0  0  0  0  0  0  0  0  0  0  0  0
  1  2  1  0
  2  3  1  0
  2  4  2  3
  4  5  1  0
  5  6  2  0
  6  7  1  0
  7  8  2  0
  8  9  1  0
  9 10  1  0
 10 11  1  0
 11 12  1  0
 12 13  2  0
 12 14  1  0
 14 15  1  0
 15 16  1  0
 16 17  2  0
 17 18  1  0
 18 19  2  0
 19 20  1  0
 19 21  1  0
 21 22  2  0
 10 23  1  0
 23 24  1  0
 23 25  2  0
  8 26  1  0
 26 27  2  0
 27  5  1  0
 22 16  1  0
  1 28  1  0
  1 29  1  0
  3 30  1  0
  3 31  1  0
  6 32  1  0
  7 33  1  0
  9 34  1  0
  9 35  1  0
 10 36  1  0
 11 37  1  0
 14 38  1  0
 14 39  1  0
 17 40  1  0
 18 41  1  0
 21 42  1  0
 22 43  1  0
 24 44  1  0
 24 45  1  0
 26 46  1  0
 27 47  1  0
M  END
$$$$
