
     RDKit          3D

 37 39  0  0  0  0  0  0  0  0999 V2000
   -2.3097   -0.2250   -1.8269 O   0  0  0  0  0  0  0  0  0  0  0  0
   -3.2886   -0.2788   -0.8305 C   0  0  0  0  0  0  0  0  0  0  0  0
   -3.0669    0.3148    0.4365 C   0  0  0  0  0  0  0  0  0  0  0  0
   -1.7806    0.9413    0.7970 C   0  0  0  0  0  0  0  0  0  0  0  0
   -0.6393    0.2470    0.9029 C   0  0  0  0  0  0  0  0  0  0  0  0
   -0.5075   -1.5319    0.6564 S   0  0  0  0  0  0  0  0  0  0  0  0
    1.2133   -1.4224    1.1664 C   0  0  0  0  0  0  0  0  0  0  0  0
    2.0026   -2.7605    1.6825 S   0  0  0  0  0  0  0  0  0  0  0  0
    1.6829   -0.1021    1.4565 N   0  0  0  0  0  0  0  0  0  0  0  0
    3.0877    0.2659    1.6559 C   0  0  0  0  0  0  0  0  0  0  0  0
    3.7736    0.4244    0.3263 C   0  0  0  0  0  0  0  0  0  0  0  0
    3.7036    1.6454   -0.3649 C   0  0  0  0  0  0  0  0  0  0  0  0
    4.3069    1.7806   -1.6192 C   0  0  0  0  0  0  0  0  0  0  0  0
    4.9765    0.6975   -2.1948 C   0  0  0  0  0  0  0  0  0  0  0  0
    5.0421   -0.5234   -1.5179 C   0  0  0  0  0  0  0  0  0  0  0  0
    4.4402   -0.6627   -0.2635 C   0  0  0  0  0  0  0  0  0  0  0  0
    0.6333    0.8424    1.2939 C   0  0  0  0  0  0  0  0  0  0  0  0
    0.7971    2.0788    1.4795 O   0  0  0  0  0  0  0  0  0  0  0  0
   -4.1020    0.3461    1.3788 C   0  0  0  0  0  0  0  0  0  0  0  0
   -5.3304   -0.2463    1.0969 C   0  0  0  0  0  0  0  0  0  0  0  0
   -5.5415   -0.8730   -0.1302 C   0  0  0  0  0  0  0  0  0  0  0  0
   -4.5284   -0.9034   -1.1066 C   0  0  0  0  0  0  0  0  0  0  0  0
   -4.7753   -1.5534   -2.3710 N   0  0  0  0  0  4  0  0  0  0  0  0
   -3.7387   -1.8987   -3.2071 O   0  0  0  0  0  1  0  0  0  0  0  0
   -5.9368   -1.8718   -2.7010 O   0  0  0  0  0  0  0  0  0  0  0  0
   -1.4365    0.2751   -1.7194 H   0  0  0  0  0  0  0  0  0  0  0  0
   -1.7914    1.9918    1.0619 H   0  0  0  0  0  0  0  0  0  0  0  0
    3.1542    1.2138    2.2330 H   0  0  0  0  0  0  0  0  0  0  0  0
    3.6030   -0.5037    2.2693 H   0  0  0  0  0  0  0  0  0  0  0  0
    3.1830    2.4912    0.0662 H   0  0  0  0  0  0  0  0  0  0  0  0
    4.2528    2.7244   -2.1461 H   0  0  0  0  0  0  0  0  0  0  0  0
    5.4420    0.8033   -3.1662 H   0  0  0  0  0  0  0  0  0  0  0  0
    5.5572   -1.3629   -1.9665 H   0  0  0  0  0  0  0  0  0  0  0  0
    4.4946   -1.6162    0.2463 H   0  0  0  0  0  0  0  0  0  0  0  0
   -3.9513    0.8174    2.3428 H   0  0  0  0  0  0  0  0  0  0  0  0
   -6.1208   -0.2272    1.8364 H   0  0  0  0  0  0  0  0  0  0  0  0
   -6.5012   -1.3377   -0.3163 H   0  0  0  0  0  0  0  0  0  0  0  0
  1  2  1  0
  2  3  2  0
  3  4  1  0
  4  5  2  0
  5  6  1  0
  6  7  1  0
  7  8  2  0
  7  9  1  0
  9 10  1  0
 10 11  1  0
 11 12  2  0
 12 13  1  0
 13 14  2  0
 14 15  1  0
 15 16  2  0
  9 17  1  0
 17 18  2  0
  3 19  1  0
 19 20  2  0
 20 21  1  0
 21 22  2  0
 22 23  1  0
 23 24  1  0
 23 25  2  0
 22  2  1  0
 17  5  1  0
 16 11  1  0
  1 26  1  0
  4 27  1  0
 10 28  1  0
 10 29  1  0
 12 30  1  0
 13 31  1  0
 14 32  1  0
 15 33  1  0
 16 34  1  0
 19 35  1  0
 20 36  1  0
 21 37  1  0
M  CHG  2  23   1  24  -1
M  END
$$$$
