
     RDKit          3D

 35 35  0  0  0  0  0  0  0  0999 V2000
    4.2803   -1.0872   -0.2228 C   0  0  0  0  0  0  0  0  0  0  0  0
    3.5518    0.1754    0.2367 C   0  0  0  0  0  0  0  0  0  0  0  0
    2.6250    0.7591   -0.8445 C   0  0  0  0  0  0  0  0  0  0  0  0
    1.3972   -0.1241   -1.1542 C   0  0  1  0  0  0  0  0  0  0  0  0
    0.4481   -0.2993    0.0551 C   0  0  0  0  0  0  0  0  0  0  0  0
   -0.9022   -0.2682   -0.4912 N   0  0  0  0  0  0  0  0  0  0  0  0
   -2.1363   -0.3205    0.3044 C   0  0  1  0  0  0  0  0  0  0  0  0
   -2.0772   -1.4642    1.3387 C   0  0  0  0  0  0  0  0  0  0  0  0
   -3.4268   -1.7009    2.0169 C   0  0  0  0  0  0  0  0  0  0  0  0
   -2.3809    1.0208    0.9510 C   0  0  0  0  0  0  0  0  0  0  0  0
   -3.3284    1.9291    0.3893 N   0  0  0  0  0  0  0  0  0  0  0  0
   -1.7204    1.3654    1.9680 O   0  0  0  0  0  0  0  0  0  0  0  0
   -0.8410    0.2187   -1.8208 C   0  0  0  0  0  0  0  0  0  0  0  0
   -1.8648    0.4513   -2.5174 O   0  0  0  0  0  0  0  0  0  0  0  0
    0.5372    0.4652   -2.2894 C   0  0  0  0  0  0  0  0  0  0  0  0
    5.0379   -1.3724    0.5374 H   0  0  0  0  0  0  0  0  0  0  0  0
    4.7994   -0.9087   -1.1883 H   0  0  0  0  0  0  0  0  0  0  0  0
    3.5707   -1.9329   -0.3329 H   0  0  0  0  0  0  0  0  0  0  0  0
    2.9818   -0.0419    1.1649 H   0  0  0  0  0  0  0  0  0  0  0  0
    4.3152    0.9426    0.4899 H   0  0  0  0  0  0  0  0  0  0  0  0
    2.2781    1.7599   -0.5049 H   0  0  0  0  0  0  0  0  0  0  0  0
    3.2095    0.9153   -1.7779 H   0  0  0  0  0  0  0  0  0  0  0  0
    1.7363   -1.1304   -1.4846 H   0  0  0  0  0  0  0  0  0  0  0  0
    0.5674    0.5336    0.7814 H   0  0  0  0  0  0  0  0  0  0  0  0
    0.6424   -1.2677    0.5637 H   0  0  0  0  0  0  0  0  0  0  0  0
   -2.9837   -0.5459   -0.3807 H   0  0  0  0  0  0  0  0  0  0  0  0
   -1.3136   -1.2481    2.1172 H   0  0  0  0  0  0  0  0  0  0  0  0
   -1.7788   -2.4026    0.8222 H   0  0  0  0  0  0  0  0  0  0  0  0
   -3.3421   -2.5537    2.7229 H   0  0  0  0  0  0  0  0  0  0  0  0
   -4.2028   -1.9440    1.2602 H   0  0  0  0  0  0  0  0  0  0  0  0
   -3.7400   -0.8017    2.5880 H   0  0  0  0  0  0  0  0  0  0  0  0
   -3.4876    2.8621    0.8301 H   0  0  0  0  0  0  0  0  0  0  0  0
   -3.8679    1.6782   -0.4686 H   0  0  0  0  0  0  0  0  0  0  0  0
    0.6897    1.5602   -2.4067 H   0  0  0  0  0  0  0  0  0  0  0  0
    0.7266   -0.0548   -3.2531 H   0  0  0  0  0  0  0  0  0  0  0  0
  1  2  1  0
  2  3  1  0
  3  4  1  0
  4  5  1  0
  5  6  1  0
  6  7  1  0
  7  8  1  0
  8  9  1  0
  7 10  1  0
 10 11  1  0
 10 12  2  0
  6 13  1  0
 13 14  2  0
 13 15  1  0
 15  4  1  0
  1 16  1  0
  1 17  1  0
  1 18  1  0
  2 19  1  0
  2 20  1  0
  3 21  1  0
  3 22  1  0
  4 23  1  6
  5 24  1  0
  5 25  1  0
  7 26  1  6
  8 27  1  0
  8 28  1  0
  9 29  1  0
  9 30  1  0
  9 31  1  0
 11 32  1  0
 11 33  1  0
 15 34  1  0
 15 35  1  0
M  END
$$$$
