
     RDKit          3D

101103  0  0  0  0  0  0  0  0999 V2000
    5.6712    5.3349    4.6694 C   0  0  0  0  0  0  0  0  0  0  0  0
    5.1007    5.9600    3.3997 C   0  0  0  0  0  0  0  0  0  0  0  0
    5.1435    4.9718    2.2270 C   0  0  0  0  0  0  0  0  0  0  0  0
    4.5198    5.5903    0.9665 C   0  0  0  0  0  0  0  0  0  0  0  0
    4.6982    4.7128   -0.2836 C   0  0  0  0  0  0  0  0  0  0  0  0
    3.8795    3.4522   -0.2327 C   0  0  0  0  0  0  0  0  0  0  0  0
    4.1990    2.5413    0.5159 O   0  0  0  0  0  0  0  0  0  0  0  0
    2.4834    3.2235   -1.3410 S   0  0  0  0  0  0  0  0  0  0  0  0
    1.2420    4.0575   -0.2820 C   0  0  0  0  0  0  0  0  0  0  0  0
    1.0623    3.3817    1.0817 C   0  0  0  0  0  0  0  0  0  0  0  0
    0.7774    1.9554    0.9281 N   0  0  0  0  0  0  0  0  0  0  0  0
    1.2093    0.9787    1.8857 C   0  0  0  0  0  0  0  0  0  0  0  0
    1.8997    1.3234    2.8832 O   0  0  0  0  0  0  0  0  0  0  0  0
    0.8865   -0.4713    1.6801 C   0  0  0  0  0  0  0  0  0  0  0  0
    1.9496   -1.1637    0.8184 C   0  0  0  0  0  0  0  0  0  0  0  0
    2.0109   -0.5836   -0.5237 N   0  0  0  0  0  0  0  0  0  0  0  0
    0.9662   -0.7707   -1.4895 C   0  0  0  0  0  0  0  0  0  0  0  0
   -0.0331   -1.4837   -1.2046 O   0  0  0  0  0  0  0  0  0  0  0  0
    1.0518   -0.1115   -2.8464 C   0  0  2  0  0  0  0  0  0  0  0  0
   -0.2175    0.3805   -3.2015 O   0  0  0  0  0  0  0  0  0  0  0  0
    1.6065   -1.0504   -3.9722 C   0  0  0  0  0  0  0  0  0  0  0  0
    1.6690   -0.2449   -5.2913 C   0  0  0  0  0  0  0  0  0  0  0  0
    3.0475   -1.5006   -3.6325 C   0  0  0  0  0  0  0  0  0  0  0  0
    0.6950   -2.2909   -4.2047 C   0  0  0  0  0  0  0  0  0  0  0  0
    0.8650   -3.2396   -3.1733 O   0  0  0  0  0  0  0  0  0  0  0  0
   -0.5055   -4.2544   -3.1090 P   0  0  0  0  0  5  0  0  0  0  0  0
   -0.1790   -5.4978   -2.0068 O   0  0  0  0  0  0  0  0  0  0  0  0
   -0.7850   -4.8451   -4.4748 O   0  0  0  0  0  0  0  0  0  0  0  0
   -1.8271   -3.3161   -2.5882 O   0  0  0  0  0  0  0  0  0  0  0  0
   -3.1793   -4.3259   -2.3374 P   0  0  0  0  0  5  0  0  0  0  0  0
   -2.8456   -5.9828   -2.5015 O   0  0  0  0  0  0  0  0  0  0  0  0
   -4.2461   -3.9483   -3.3396 O   0  0  0  0  0  0  0  0  0  0  0  0
   -3.7750   -4.0054   -0.7708 O   0  0  0  0  0  0  0  0  0  0  0  0
   -2.9441   -4.6327    0.1844 C   0  0  0  0  0  0  0  0  0  0  0  0
   -2.8475   -3.7695    1.4488 C   0  0  1  0  0  0  0  0  0  0  0  0
   -2.1847   -2.5619    1.1299 O   0  0  0  0  0  0  0  0  0  0  0  0
   -2.9896   -1.5024    1.5878 C   0  0  2  0  0  0  0  0  0  0  0  0
   -4.4170   -2.0052    1.6983 C   0  0  2  0  0  0  0  0  0  0  0  0
   -5.1252   -1.2897    2.6769 O   0  0  0  0  0  0  0  0  0  0  0  0
   -4.2224   -3.4582    2.0676 C   0  0  2  0  0  0  0  0  0  0  0  0
   -4.1534   -3.5808    3.4777 O   0  0  0  0  0  0  0  0  0  0  0  0
   -4.7508   -5.1064    3.9588 P   0  0  0  0  0  5  0  0  0  0  0  0
   -4.3711   -5.3494    5.5891 O   0  0  0  0  0  0  0  0  0  0  0  0
   -4.0412   -6.3444    3.0456 O   0  0  0  0  0  0  0  0  0  0  0  0
   -6.2547   -5.1397    3.7910 O   0  0  0  0  0  0  0  0  0  0  0  0
   -2.9020   -0.3693    0.6651 N   0  0  0  0  0  0  0  0  0  0  0  0
   -2.9563   -0.3876   -0.6928 C   0  0  0  0  0  0  0  0  0  0  0  0
   -2.8723    0.8501   -1.2537 N   0  0  0  0  0  0  0  0  0  0  0  0
   -2.7675    1.6550   -0.1796 C   0  0  0  0  0  0  0  0  0  0  0  0
   -2.7914    0.9305    0.9619 C   0  0  0  0  0  0  0  0  0  0  0  0
   -2.7074    1.4962    2.1906 N   0  0  0  0  0  0  0  0  0  0  0  0
   -2.5956    2.8567    2.2618 C   0  0  0  0  0  0  0  0  0  0  0  0
   -2.5698    3.6140    1.1176 N   0  0  0  0  0  0  0  0  0  0  0  0
   -2.6535    3.0386   -0.1197 C   0  0  0  0  0  0  0  0  0  0  0  0
   -2.6145    3.8417   -1.2990 N   0  0  0  0  0  0  0  0  0  0  0  0
    5.6402    6.0780    5.4946 H   0  0  0  0  0  0  0  0  0  0  0  0
    6.7265    5.0256    4.5074 H   0  0  0  0  0  0  0  0  0  0  0  0
    5.0707    4.4485    4.9672 H   0  0  0  0  0  0  0  0  0  0  0  0
    5.6929    6.8671    3.1490 H   0  0  0  0  0  0  0  0  0  0  0  0
    4.0493    6.2682    3.5922 H   0  0  0  0  0  0  0  0  0  0  0  0
    6.2008    4.6922    2.0208 H   0  0  0  0  0  0  0  0  0  0  0  0
    4.5805    4.0573    2.5105 H   0  0  0  0  0  0  0  0  0  0  0  0
    3.4405    5.7878    1.1424 H   0  0  0  0  0  0  0  0  0  0  0  0
    5.0097    6.5683    0.7668 H   0  0  0  0  0  0  0  0  0  0  0  0
    4.3877    5.3060   -1.1709 H   0  0  0  0  0  0  0  0  0  0  0  0
    5.7705    4.4542   -0.4216 H   0  0  0  0  0  0  0  0  0  0  0  0
    0.2717    4.0453   -0.8218 H   0  0  0  0  0  0  0  0  0  0  0  0
    1.5293    5.1198   -0.1398 H   0  0  0  0  0  0  0  0  0  0  0  0
    1.9728    3.5402    1.6963 H   0  0  0  0  0  0  0  0  0  0  0  0
    0.2166    3.8640    1.6155 H   0  0  0  0  0  0  0  0  0  0  0  0
    0.1484    1.6509    0.1512 H   0  0  0  0  0  0  0  0  0  0  0  0
    0.8342   -0.9804    2.6669 H   0  0  0  0  0  0  0  0  0  0  0  0
   -0.1129   -0.5686    1.2108 H   0  0  0  0  0  0  0  0  0  0  0  0
    2.9420   -1.0632    1.3101 H   0  0  0  0  0  0  0  0  0  0  0  0
    1.7191   -2.2486    0.7437 H   0  0  0  0  0  0  0  0  0  0  0  0
    2.8613   -0.0387   -0.7907 H   0  0  0  0  0  0  0  0  0  0  0  0
    1.7520    0.7520   -2.7615 H   0  0  0  0  0  0  0  0  0  0  0  0
   -0.3790    1.1912   -2.6499 H   0  0  0  0  0  0  0  0  0  0  0  0
    2.1105   -0.8559   -6.1091 H   0  0  0  0  0  0  0  0  0  0  0  0
    2.2942    0.6670   -5.1685 H   0  0  0  0  0  0  0  0  0  0  0  0
    0.6525    0.0698   -5.6129 H   0  0  0  0  0  0  0  0  0  0  0  0
    3.7145   -0.6195   -3.5116 H   0  0  0  0  0  0  0  0  0  0  0  0
    3.4569   -2.1406   -4.4443 H   0  0  0  0  0  0  0  0  0  0  0  0
    3.0794   -2.0846   -2.6888 H   0  0  0  0  0  0  0  0  0  0  0  0
    0.9733   -2.7782   -5.1662 H   0  0  0  0  0  0  0  0  0  0  0  0
   -0.3583   -1.9388   -4.3013 H   0  0  0  0  0  0  0  0  0  0  0  0
    0.6383   -5.9352   -2.3559 H   0  0  0  0  0  0  0  0  0  0  0  0
   -3.7089   -6.4341   -2.3234 H   0  0  0  0  0  0  0  0  0  0  0  0
   -3.3742   -5.6240    0.4407 H   0  0  0  0  0  0  0  0  0  0  0  0
   -1.8988   -4.7984   -0.1631 H   0  0  0  0  0  0  0  0  0  0  0  0
   -2.2217   -4.3240    2.1834 H   0  0  0  0  0  0  0  0  0  0  0  0
   -2.6152   -1.1964    2.5917 H   0  0  0  0  0  0  0  0  0  0  0  0
   -4.9306   -1.9283    0.7103 H   0  0  0  0  0  0  0  0  0  0  0  0
   -6.0717   -1.5797    2.6056 H   0  0  0  0  0  0  0  0  0  0  0  0
   -5.0533   -4.0493    1.6100 H   0  0  0  0  0  0  0  0  0  0  0  0
   -4.8313   -4.6138    6.0673 H   0  0  0  0  0  0  0  0  0  0  0  0
   -4.6986   -6.5521    2.3359 H   0  0  0  0  0  0  0  0  0  0  0  0
   -3.0671   -1.2910   -1.2748 H   0  0  0  0  0  0  0  0  0  0  0  0
   -2.5271    3.3395    3.2270 H   0  0  0  0  0  0  0  0  0  0  0  0
   -2.5223    4.8791   -1.2239 H   0  0  0  0  0  0  0  0  0  0  0  0
   -2.6741    3.4084   -2.2471 H   0  0  0  0  0  0  0  0  0  0  0  0
  1  2  1  0
  2  3  1  0
  3  4  1  0
  4  5  1  0
  5  6  1  0
  6  7  2  0
  6  8  1  0
  8  9  1  0
  9 10  1  0
 10 11  1  0
 11 12  1  0
 12 13  2  0
 12 14  1  0
 14 15  1  0
 15 16  1  0
 16 17  1  0
 17 18  2  0
 17 19  1  0
 19 20  1  0
 19 21  1  0
 21 22  1  0
 21 23  1  0
 21 24  1  0
 24 25  1  0
 25 26  1  0
 26 27  1  0
 26 28  2  0
 26 29  1  0
 29 30  1  0
 30 31  1  0
 30 32  2  0
 30 33  1  0
 33 34  1  0
 34 35  1  0
 35 36  1  0
 36 37  1  0
 37 38  1  0
 38 39  1  0
 38 40  1  0
 40 41  1  0
 41 42  1  0
 42 43  1  0
 42 44  1  0
 42 45  2  0
 37 46  1  0
 46 47  1  0
 47 48  2  0
 48 49  1  0
 49 50  2  0
 50 51  1  0
 51 52  2  0
 52 53  1  0
 53 54  2  0
 54 55  1  0
 40 35  1  0
 50 46  1  0
 54 49  1  0
  1 56  1  0
  1 57  1  0
  1 58  1  0
  2 59  1  0
  2 60  1  0
  3 61  1  0
  3 62  1  0
  4 63  1  0
  4 64  1  0
  5 65  1  0
  5 66  1  0
  9 67  1  0
  9 68  1  0
 10 69  1  0
 10 70  1  0
 11 71  1  0
 14 72  1  0
 14 73  1  0
 15 74  1  0
 15 75  1  0
 16 76  1  0
 19 77  1  1
 20 78  1  0
 22 79  1  0
 22 80  1  0
 22 81  1  0
 23 82  1  0
 23 83  1  0
 23 84  1  0
 24 85  1  0
 24 86  1  0
 27 87  1  0
 31 88  1  0
 34 89  1  0
 34 90  1  0
 35 91  1  1
 37 92  1  1
 38 93  1  6
 39 94  1  0
 40 95  1  6
 43 96  1  0
 44 97  1  0
 47 98  1  0
 52 99  1  0
 55100  1  0
 55101  1  0
M  END
$$$$
