
     RDKit          3D

 43 46  0  0  0  0  0  0  0  0999 V2000
   -3.4501    2.7251    0.3981 C   0  0  0  0  0  0  0  0  0  0  0  0
   -2.5841    2.2981   -0.7823 C   0  0  0  0  0  0  0  0  0  0  0  0
   -2.5151    0.7945   -0.8787 C   0  0  0  0  0  0  0  0  0  0  0  0
   -3.4907    0.0687   -1.5859 C   0  0  0  0  0  0  0  0  0  0  0  0
   -4.5285    0.7365   -2.2361 O   0  0  0  0  0  0  0  0  0  0  0  0
   -3.4210   -1.3292   -1.6333 C   0  0  0  0  0  0  0  0  0  0  0  0
   -2.3886   -2.0151   -0.9802 C   0  0  0  0  0  0  0  0  0  0  0  0
   -2.3269   -3.4070   -1.0536 O   0  0  0  0  0  0  0  0  0  0  0  0
   -1.4116   -1.2976   -0.2645 C   0  0  0  0  0  0  0  0  0  0  0  0
   -1.4965    0.1038   -0.2045 C   0  0  0  0  0  0  0  0  0  0  0  0
   -0.3212   -2.0090    0.4422 C   0  0  0  0  0  0  0  0  0  0  0  0
   -0.5065   -3.1606    1.1189 N   0  0  0  0  0  0  0  0  0  0  0  0
    0.6500   -3.5098    1.6580 N   0  0  0  0  0  0  0  0  0  0  0  0
    1.5944   -2.6049    1.3389 C   0  0  0  0  0  0  0  0  0  0  0  0
    3.0137   -2.7516    1.7090 C   0  0  0  0  0  0  0  0  0  0  0  0
    3.3931   -3.7562    2.5936 O   0  0  0  0  0  0  0  0  0  0  0  0
    3.8905   -1.9925    1.2177 O   0  0  0  0  0  0  0  0  0  0  0  0
    1.0090   -1.6158    0.5591 C   0  0  0  0  0  0  0  0  0  0  0  0
    1.6565   -0.4456   -0.0660 C   0  0  0  0  0  0  0  0  0  0  0  0
    1.5289   -0.2236   -1.4612 C   0  0  0  0  0  0  0  0  0  0  0  0
    2.1049    0.9119   -2.0588 C   0  0  0  0  0  0  0  0  0  0  0  0
    2.7921    1.7997   -1.2372 C   0  0  0  0  0  0  0  0  0  0  0  0
    3.4323    2.9736   -1.5839 O   0  0  0  0  0  0  0  0  0  0  0  0
    3.9900    3.5429   -0.3911 C   0  0  0  0  0  0  0  0  0  0  0  0
    3.6351    2.6321    0.6588 O   0  0  0  0  0  0  0  0  0  0  0  0
    2.9136    1.5957    0.0988 C   0  0  0  0  0  0  0  0  0  0  0  0
    2.3589    0.4860    0.7295 C   0  0  0  0  0  0  0  0  0  0  0  0
   -3.0260    2.3345    1.3479 H   0  0  0  0  0  0  0  0  0  0  0  0
   -4.4862    2.3434    0.2750 H   0  0  0  0  0  0  0  0  0  0  0  0
   -3.4838    3.8335    0.4529 H   0  0  0  0  0  0  0  0  0  0  0  0
   -2.9983    2.7285   -1.7194 H   0  0  0  0  0  0  0  0  0  0  0  0
   -1.5632    2.7209   -0.6568 H   0  0  0  0  0  0  0  0  0  0  0  0
   -5.2437    0.2351   -2.7499 H   0  0  0  0  0  0  0  0  0  0  0  0
   -4.1712   -1.8849   -2.1817 H   0  0  0  0  0  0  0  0  0  0  0  0
   -3.0166   -3.9438   -1.5664 H   0  0  0  0  0  0  0  0  0  0  0  0
   -0.7789    0.6637    0.3823 H   0  0  0  0  0  0  0  0  0  0  0  0
    0.7891   -4.3772    2.2225 H   0  0  0  0  0  0  0  0  0  0  0  0
    4.3641   -3.8796    2.8549 H   0  0  0  0  0  0  0  0  0  0  0  0
    0.9847   -0.9275   -2.0786 H   0  0  0  0  0  0  0  0  0  0  0  0
    2.0139    1.0915   -3.1218 H   0  0  0  0  0  0  0  0  0  0  0  0
    5.0944    3.6131   -0.4803 H   0  0  0  0  0  0  0  0  0  0  0  0
    3.5445    4.5414   -0.1987 H   0  0  0  0  0  0  0  0  0  0  0  0
    2.4552    0.3572    1.8002 H   0  0  0  0  0  0  0  0  0  0  0  0
  1  2  1  0
  2  3  1  0
  3  4  2  0
  4  5  1  0
  4  6  1  0
  6  7  2  0
  7  8  1  0
  7  9  1  0
  9 10  2  0
  9 11  1  0
 11 12  2  0
 12 13  1  0
 13 14  1  0
 14 15  1  0
 15 16  1  0
 15 17  2  0
 14 18  2  0
 18 19  1  0
 19 20  2  0
 20 21  1  0
 21 22  2  0
 22 23  1  0
 23 24  1  0
 24 25  1  0
 25 26  1  0
 26 27  2  0
 10  3  1  0
 18 11  1  0
 27 19  1  0
 26 22  1  0
  1 28  1  0
  1 29  1  0
  1 30  1  0
  2 31  1  0
  2 32  1  0
  5 33  1  0
  6 34  1  0
  8 35  1  0
 10 36  1  0
 13 37  1  0
 16 38  1  0
 20 39  1  0
 21 40  1  0
 24 41  1  0
 24 42  1  0
 27 43  1  0
M  END
$$$$
