
     RDKit          3D

 54 58  0  0  0  0  0  0  0  0999 V2000
   -3.7729   -1.4000    1.4426 C   0  0  0  0  0  0  0  0  0  0  0  0
   -2.7194   -1.0130    0.4916 N   0  0  0  0  0  0  0  0  0  0  0  0
   -2.8907    0.0138   -0.4072 C   0  0  0  0  0  0  0  0  0  0  0  0
   -1.8860    0.4279   -1.2387 C   0  0  0  0  0  0  0  0  0  0  0  0
   -2.3974    1.4931   -1.9490 C   0  0  0  0  0  0  0  0  0  0  0  0
   -3.6757    1.6921   -1.5562 N   0  0  0  0  0  0  0  0  0  0  0  0
   -3.9775    0.7965   -0.6226 N   0  0  0  0  0  0  0  0  0  0  0  0
   -5.2933    0.6961   -0.0705 C   0  0  0  0  0  0  0  0  0  0  0  0
   -6.1920   -0.2694   -0.5507 C   0  0  0  0  0  0  0  0  0  0  0  0
   -5.8089   -1.1387   -1.5193 F   0  0  0  0  0  0  0  0  0  0  0  0
   -7.4876   -0.3404   -0.0281 C   0  0  0  0  0  0  0  0  0  0  0  0
   -7.8951    0.5609    0.9607 C   0  0  0  0  0  0  0  0  0  0  0  0
   -9.1516    0.4911    1.4653 F   0  0  0  0  0  0  0  0  0  0  0  0
   -7.0092    1.5392    1.4233 C   0  0  0  0  0  0  0  0  0  0  0  0
   -5.7135    1.6128    0.9031 C   0  0  0  0  0  0  0  0  0  0  0  0
   -0.6387   -0.1857   -1.2521 C   0  0  0  0  0  0  0  0  0  0  0  0
    0.3924    0.2435   -2.1590 N   0  0  0  0  0  0  0  0  0  0  0  0
    1.7992    0.0644   -1.9122 C   0  0  0  0  0  0  0  0  0  0  0  0
    2.6770   -0.2640   -2.9684 C   0  0  0  0  0  0  0  0  0  0  0  0
    2.1638   -0.4740   -4.3671 C   0  0  0  0  0  0  0  0  0  0  0  0
    4.0502   -0.3912   -2.7095 C   0  0  0  0  0  0  0  0  0  0  0  0
    4.5524   -0.2006   -1.4212 C   0  0  0  0  0  0  0  0  0  0  0  0
    3.6934    0.1409   -0.3647 C   0  0  0  0  0  0  0  0  0  0  0  0
    2.3183    0.2699   -0.6216 C   0  0  0  0  0  0  0  0  0  0  0  0
    4.2136    0.3469    1.0087 C   0  0  0  0  0  0  0  0  0  0  0  0
    3.4363    0.2081    1.9930 O   0  0  0  0  0  0  0  0  0  0  0  0
    5.5828    0.7126    1.2368 N   0  0  0  0  0  0  0  0  0  0  0  0
    6.1285    0.8032    2.5875 C   0  0  0  0  0  0  0  0  0  0  0  0
    7.5679    0.3322    2.7017 C   0  0  0  0  0  0  0  0  0  0  0  0
    6.4361   -0.5521    3.2010 C   0  0  0  0  0  0  0  0  0  0  0  0
   -0.4653   -1.2802   -0.3853 C   0  0  0  0  0  0  0  0  0  0  0  0
   -1.5085   -1.6802    0.4801 C   0  0  0  0  0  0  0  0  0  0  0  0
   -1.3077   -2.6648    1.2429 O   0  0  0  0  0  0  0  0  0  0  0  0
   -4.5925   -1.9213    0.9084 H   0  0  0  0  0  0  0  0  0  0  0  0
   -3.3972   -2.0852    2.2306 H   0  0  0  0  0  0  0  0  0  0  0  0
   -4.1555   -0.5073    1.9778 H   0  0  0  0  0  0  0  0  0  0  0  0
   -1.8884    2.0838   -2.6986 H   0  0  0  0  0  0  0  0  0  0  0  0
   -8.1769   -1.0914   -0.3923 H   0  0  0  0  0  0  0  0  0  0  0  0
   -7.3265    2.2422    2.1827 H   0  0  0  0  0  0  0  0  0  0  0  0
   -5.0331    2.3748    1.2619 H   0  0  0  0  0  0  0  0  0  0  0  0
    0.1035    0.7165   -3.0443 H   0  0  0  0  0  0  0  0  0  0  0  0
    1.2821   -1.1491   -4.3529 H   0  0  0  0  0  0  0  0  0  0  0  0
    2.9349   -0.9379   -5.0185 H   0  0  0  0  0  0  0  0  0  0  0  0
    1.8727    0.5027   -4.8070 H   0  0  0  0  0  0  0  0  0  0  0  0
    4.7375   -0.6482   -3.5062 H   0  0  0  0  0  0  0  0  0  0  0  0
    5.6122   -0.3409   -1.2554 H   0  0  0  0  0  0  0  0  0  0  0  0
    1.6480    0.5574    0.1792 H   0  0  0  0  0  0  0  0  0  0  0  0
    6.1677    1.0618    0.4453 H   0  0  0  0  0  0  0  0  0  0  0  0
    5.7672    1.6008    3.2708 H   0  0  0  0  0  0  0  0  0  0  0  0
    8.1476    0.8244    3.5107 H   0  0  0  0  0  0  0  0  0  0  0  0
    8.0362   -0.0237    1.7590 H   0  0  0  0  0  0  0  0  0  0  0  0
    6.2296   -1.4315    2.5535 H   0  0  0  0  0  0  0  0  0  0  0  0
    6.3433   -0.5866    4.3069 H   0  0  0  0  0  0  0  0  0  0  0  0
    0.4667   -1.8318   -0.3839 H   0  0  0  0  0  0  0  0  0  0  0  0
  1  2  1  0
  2  3  1  0
  3  4  2  0
  4  5  1  0
  5  6  2  0
  6  7  1  0
  7  8  1  0
  8  9  2  0
  9 10  1  0
  9 11  1  0
 11 12  2  0
 12 13  1  0
 12 14  1  0
 14 15  2  0
  4 16  1  0
 16 17  1  0
 17 18  1  0
 18 19  2  0
 19 20  1  0
 19 21  1  0
 21 22  2  0
 22 23  1  0
 23 24  2  0
 23 25  1  0
 25 26  2  0
 25 27  1  0
 27 28  1  0
 28 29  1  0
 29 30  1  0
 16 31  2  0
 31 32  1  0
 32 33  2  0
 32  2  1  0
  7  3  1  0
 15  8  1  0
 24 18  1  0
 30 28  1  0
  1 34  1  0
  1 35  1  0
  1 36  1  0
  5 37  1  0
 11 38  1  0
 14 39  1  0
 15 40  1  0
 17 41  1  0
 20 42  1  0
 20 43  1  0
 20 44  1  0
 21 45  1  0
 22 46  1  0
 24 47  1  0
 27 48  1  0
 28 49  1  0
 29 50  1  0
 29 51  1  0
 30 52  1  0
 30 53  1  0
 31 54  1  0
M  END
$$$$
