
     RDKit          3D

 49 51  0  0  0  0  0  0  0  0999 V2000
   -1.8586   -0.9095    0.6878 C   0  0  1  0  0  0  0  0  0  0  0  0
   -2.3304    0.4499    0.9827 N   0  0  0  0  0  0  0  0  0  0  0  0
   -2.5608   -1.9490    1.5878 C   0  0  0  0  0  0  0  0  0  0  0  0
   -4.0538   -2.1262    1.2459 C   0  0  0  0  0  0  0  0  0  0  0  0
   -4.3689   -1.9717   -0.2558 C   0  0  0  0  0  0  0  0  0  0  0  0
   -3.1441   -2.2483   -1.1307 C   0  0  0  0  0  0  0  0  0  0  0  0
   -1.9890   -1.2606   -0.8318 C   0  0  1  0  0  0  0  0  0  0  0  0
   -2.1162   -0.0512   -1.6588 N   0  0  0  0  0  0  0  0  0  0  0  0
   -1.0242    0.8528   -1.8733 C   0  0  0  0  0  0  0  0  0  0  0  0
    0.1533    0.6816   -1.2190 N   0  0  0  0  0  0  0  0  0  0  0  0
    1.1996    1.5341   -1.3890 C   0  0  0  0  0  0  0  0  0  0  0  0
    2.4375    1.2687   -0.7084 N   0  0  0  0  0  0  0  0  0  0  0  0
    2.5052    0.6031    0.5643 C   0  0  0  0  0  0  0  0  0  0  0  0
    1.4824    0.7502    1.5182 C   0  0  0  0  0  0  0  0  0  0  0  0
    1.5639    0.0909    2.7467 C   0  0  0  0  0  0  0  0  0  0  0  0
    2.6743   -0.7016    3.0455 C   0  0  0  0  0  0  0  0  0  0  0  0
    3.7234   -0.8234    2.1221 C   0  0  0  0  0  0  0  0  0  0  0  0
    4.9025   -1.6980    2.4300 C   0  0  0  0  0  0  0  0  0  0  0  0
    3.6291   -0.1760    0.8798 C   0  0  0  0  0  0  0  0  0  0  0  0
    1.0702    2.6173   -2.2856 C   0  0  0  0  0  0  0  0  0  0  0  0
   -0.1544    2.7665   -2.9539 C   0  0  0  0  0  0  0  0  0  0  0  0
   -1.1689    1.8928   -2.7325 N   0  0  0  0  0  0  0  0  0  0  0  0
    2.1479    3.6148   -2.4870 C   0  0  0  0  0  0  0  0  0  0  0  0
    2.3514    4.2270   -3.7624 N   0  0  0  0  0  0  0  0  0  0  0  0
    2.8875    3.9478   -1.5224 O   0  0  0  0  0  0  0  0  0  0  0  0
   -0.7761   -0.9444    0.9412 H   0  0  0  0  0  0  0  0  0  0  0  0
   -3.3647    0.5103    0.8509 H   0  0  0  0  0  0  0  0  0  0  0  0
   -2.1266    0.6692    1.9850 H   0  0  0  0  0  0  0  0  0  0  0  0
   -2.4552   -1.6634    2.6570 H   0  0  0  0  0  0  0  0  0  0  0  0
   -2.0452   -2.9269    1.4634 H   0  0  0  0  0  0  0  0  0  0  0  0
   -4.6546   -1.3857    1.8176 H   0  0  0  0  0  0  0  0  0  0  0  0
   -4.3739   -3.1352    1.5864 H   0  0  0  0  0  0  0  0  0  0  0  0
   -4.7366   -0.9430   -0.4611 H   0  0  0  0  0  0  0  0  0  0  0  0
   -5.1853   -2.6725   -0.5348 H   0  0  0  0  0  0  0  0  0  0  0  0
   -2.7995   -3.2892   -0.9406 H   0  0  0  0  0  0  0  0  0  0  0  0
   -3.4305   -2.1989   -2.2039 H   0  0  0  0  0  0  0  0  0  0  0  0
   -1.0574   -1.7853   -1.1436 H   0  0  0  0  0  0  0  0  0  0  0  0
   -3.0163    0.1458   -2.1532 H   0  0  0  0  0  0  0  0  0  0  0  0
    3.3325    1.4588   -1.2134 H   0  0  0  0  0  0  0  0  0  0  0  0
    0.6248    1.3789    1.3170 H   0  0  0  0  0  0  0  0  0  0  0  0
    0.7646    0.1958    3.4691 H   0  0  0  0  0  0  0  0  0  0  0  0
    2.7197   -1.2137    3.9988 H   0  0  0  0  0  0  0  0  0  0  0  0
    4.6984   -2.7303    2.0768 H   0  0  0  0  0  0  0  0  0  0  0  0
    5.8156   -1.3160    1.9255 H   0  0  0  0  0  0  0  0  0  0  0  0
    5.0991   -1.7211    3.5231 H   0  0  0  0  0  0  0  0  0  0  0  0
    4.4241   -0.2870    0.1521 H   0  0  0  0  0  0  0  0  0  0  0  0
   -0.3191    3.5952   -3.6298 H   0  0  0  0  0  0  0  0  0  0  0  0
    1.8191    3.9152   -4.6044 H   0  0  0  0  0  0  0  0  0  0  0  0
    3.0842    4.9615   -3.8795 H   0  0  0  0  0  0  0  0  0  0  0  0
  1  2  1  0
  1  3  1  0
  3  4  1  0
  4  5  1  0
  5  6  1  0
  6  7  1  0
  7  8  1  0
  8  9  1  0
  9 10  2  0
 10 11  1  0
 11 12  1  0
 12 13  1  0
 13 14  2  0
 14 15  1  0
 15 16  2  0
 16 17  1  0
 17 18  1  0
 17 19  2  0
 11 20  2  0
 20 21  1  0
 21 22  2  0
 20 23  1  0
 23 24  1  0
 23 25  2  0
  7  1  1  0
 22  9  1  0
 19 13  1  0
  1 26  1  1
  2 27  1  0
  2 28  1  0
  3 29  1  0
  3 30  1  0
  4 31  1  0
  4 32  1  0
  5 33  1  0
  5 34  1  0
  6 35  1  0
  6 36  1  0
  7 37  1  6
  8 38  1  0
 12 39  1  0
 14 40  1  0
 15 41  1  0
 16 42  1  0
 18 43  1  0
 18 44  1  0
 18 45  1  0
 19 46  1  0
 21 47  1  0
 24 48  1  0
 24 49  1  0
M  END
$$$$
