
     RDKit          3D

 39 40  0  0  0  0  0  0  0  0999 V2000
    9.0915   -0.4653    0.6703 O   0  0  0  0  0  0  0  0  0  0  0  0
    8.3826    0.6559    0.2462 C   0  0  0  0  0  0  0  0  0  0  0  0
    9.0072    1.7221   -0.0047 O   0  0  0  0  0  0  0  0  0  0  0  0
    6.9123    0.5945    0.0924 C   0  0  0  0  0  0  0  0  0  0  0  0
    6.1878    1.7209   -0.3351 C   0  0  0  0  0  0  0  0  0  0  0  0
    4.7986    1.6581   -0.4789 C   0  0  0  0  0  0  0  0  0  0  0  0
    4.1070    0.4706   -0.1990 C   0  0  0  0  0  0  0  0  0  0  0  0
    2.6395    0.4313   -0.3591 C   0  0  0  0  0  0  0  0  0  0  0  0
    1.9670   -0.6462   -0.1103 N   0  0  0  0  0  0  0  0  0  0  0  0
    0.5997   -0.6687   -0.2636 O   0  0  0  0  0  0  0  0  0  0  0  0
   -0.1336   -1.8524    0.0114 C   0  0  0  0  0  0  0  0  0  0  0  0
   -1.6160   -1.6112   -0.2346 C   0  0  0  0  0  0  0  0  0  0  0  0
   -2.0898   -0.5914    0.6435 O   0  0  0  0  0  0  0  0  0  0  0  0
   -3.4008   -0.1415    0.6653 N   0  0  0  0  0  0  0  0  0  0  0  0
   -4.3511   -0.5876   -0.1009 C   0  0  0  0  0  0  0  0  0  0  0  0
   -5.7192   -0.0418   -0.0014 C   0  0  0  0  0  0  0  0  0  0  0  0
   -6.7220   -0.5419   -0.8393 C   0  0  0  0  0  0  0  0  0  0  0  0
   -8.0095   -0.0166   -0.7339 C   0  0  0  0  0  0  0  0  0  0  0  0
   -8.9289   -0.4511   -1.4779 O   0  0  0  0  0  0  0  0  0  0  0  0
   -8.2710    0.9637    0.1715 N   0  0  0  0  0  0  0  0  0  0  0  0
   -7.2882    1.4430    0.9817 C   0  0  0  0  0  0  0  0  0  0  0  0
   -7.5488    2.3519    1.8152 O   0  0  0  0  0  0  0  0  0  0  0  0
   -6.0244    0.9431    0.8943 N   0  0  0  0  0  0  0  0  0  0  0  0
    4.8293   -0.6571    0.2287 C   0  0  0  0  0  0  0  0  0  0  0  0
    6.2186   -0.5948    0.3727 C   0  0  0  0  0  0  0  0  0  0  0  0
   10.0983   -0.4340    0.7789 H   0  0  0  0  0  0  0  0  0  0  0  0
    6.6936    2.6519   -0.5588 H   0  0  0  0  0  0  0  0  0  0  0  0
    4.2631    2.5398   -0.8098 H   0  0  0  0  0  0  0  0  0  0  0  0
    2.1159    1.3207   -0.6909 H   0  0  0  0  0  0  0  0  0  0  0  0
    0.0262   -2.1528    1.0696 H   0  0  0  0  0  0  0  0  0  0  0  0
    0.2222   -2.6698   -0.6521 H   0  0  0  0  0  0  0  0  0  0  0  0
   -1.7668   -1.2992   -1.2908 H   0  0  0  0  0  0  0  0  0  0  0  0
   -2.1722   -2.5545   -0.0453 H   0  0  0  0  0  0  0  0  0  0  0  0
   -4.1551   -1.3675   -0.8252 H   0  0  0  0  0  0  0  0  0  0  0  0
   -6.5083   -1.3235   -1.5595 H   0  0  0  0  0  0  0  0  0  0  0  0
   -9.2385    1.3537    0.2459 H   0  0  0  0  0  0  0  0  0  0  0  0
   -5.2872    1.3280    1.5277 H   0  0  0  0  0  0  0  0  0  0  0  0
    4.3227   -1.5876    0.4522 H   0  0  0  0  0  0  0  0  0  0  0  0
    6.7482   -1.4792    0.7037 H   0  0  0  0  0  0  0  0  0  0  0  0
  1  2  1  0
  2  3  2  0
  2  4  1  0
  4  5  2  0
  5  6  1  0
  6  7  2  0
  7  8  1  0
  8  9  2  0
  9 10  1  0
 10 11  1  0
 11 12  1  0
 12 13  1  0
 13 14  1  0
 14 15  2  0
 15 16  1  0
 16 17  2  0
 17 18  1  0
 18 19  2  0
 18 20  1  0
 20 21  1  0
 21 22  2  0
 21 23  1  0
  7 24  1  0
 24 25  2  0
 25  4  1  0
 23 16  1  0
  1 26  1  0
  5 27  1  0
  6 28  1  0
  8 29  1  0
 11 30  1  0
 11 31  1  0
 12 32  1  0
 12 33  1  0
 15 34  1  0
 17 35  1  0
 20 36  1  0
 23 37  1  0
 24 38  1  0
 25 39  1  0
M  END
$$$$
