
     RDKit          3D

 36 36  0  0  0  0  0  0  0  0999 V2000
    5.2922    2.0109   -1.4077 O   0  0  0  0  0  0  0  0  0  0  0  0
    5.2972    0.6627   -1.7510 C   0  0  0  0  0  0  0  0  0  0  0  0
    5.6418    0.3088   -2.9103 O   0  0  0  0  0  0  0  0  0  0  0  0
    4.8474   -0.3607   -0.7571 C   0  0  0  0  0  0  0  0  0  0  0  0
    3.3329   -0.5664   -0.8484 C   0  0  0  0  0  0  0  0  0  0  0  0
    2.8568   -1.6082    0.1689 C   0  0  0  0  0  0  0  0  0  0  0  0
    1.4155   -1.8187    0.0485 N   0  0  0  0  0  0  0  0  0  0  0  0
    0.4527   -0.8739    0.5354 C   0  0  0  0  0  0  0  0  0  0  0  0
    0.8358    0.1716    1.1286 O   0  0  0  0  0  0  0  0  0  0  0  0
   -0.9474   -1.1282    0.3550 N   0  0  0  0  0  0  0  0  0  0  0  0
   -1.9798   -0.1831    0.7934 C   0  0  0  0  0  0  0  0  0  0  0  0
   -3.3497   -0.8850    0.8657 C   0  0  0  0  0  0  0  0  0  0  0  0
   -4.4523    0.0982    1.2777 C   0  0  0  0  0  0  0  0  0  0  0  0
   -4.5091    1.2924    0.3177 C   0  0  0  0  0  0  0  0  0  0  0  0
   -3.1492    1.9959    0.2346 C   0  0  0  0  0  0  0  0  0  0  0  0
   -2.0435    1.0140   -0.1739 C   0  0  0  0  0  0  0  0  0  0  0  0
    5.5781    2.7178   -2.0746 H   0  0  0  0  0  0  0  0  0  0  0  0
    5.3730   -1.3211   -0.9522 H   0  0  0  0  0  0  0  0  0  0  0  0
    5.1199   -0.0170    0.2644 H   0  0  0  0  0  0  0  0  0  0  0  0
    2.8192    0.4012   -0.6588 H   0  0  0  0  0  0  0  0  0  0  0  0
    3.0665   -0.9109   -1.8722 H   0  0  0  0  0  0  0  0  0  0  0  0
    3.3795   -2.5708   -0.0232 H   0  0  0  0  0  0  0  0  0  0  0  0
    3.1043   -1.2849    1.2037 H   0  0  0  0  0  0  0  0  0  0  0  0
    1.0770   -2.7156   -0.3670 H   0  0  0  0  0  0  0  0  0  0  0  0
   -1.2307   -2.0334   -0.0847 H   0  0  0  0  0  0  0  0  0  0  0  0
   -1.7252    0.1818    1.8143 H   0  0  0  0  0  0  0  0  0  0  0  0
   -3.6036   -1.3276   -0.1233 H   0  0  0  0  0  0  0  0  0  0  0  0
   -3.3035   -1.7100    1.6094 H   0  0  0  0  0  0  0  0  0  0  0  0
   -4.2646    0.4589    2.3131 H   0  0  0  0  0  0  0  0  0  0  0  0
   -5.4325   -0.4253    1.2700 H   0  0  0  0  0  0  0  0  0  0  0  0
   -5.2745    2.0144    0.6751 H   0  0  0  0  0  0  0  0  0  0  0  0
   -4.8122    0.9443   -0.6943 H   0  0  0  0  0  0  0  0  0  0  0  0
   -3.2061    2.8160   -0.5131 H   0  0  0  0  0  0  0  0  0  0  0  0
   -2.9016    2.4479    1.2203 H   0  0  0  0  0  0  0  0  0  0  0  0
   -1.0715    1.5520   -0.1739 H   0  0  0  0  0  0  0  0  0  0  0  0
   -2.2328    0.6523   -1.2089 H   0  0  0  0  0  0  0  0  0  0  0  0
  1  2  1  0
  2  3  2  0
  2  4  1  0
  4  5  1  0
  5  6  1  0
  6  7  1  0
  7  8  1  0
  8  9  2  0
  8 10  1  0
 10 11  1  0
 11 12  1  0
 12 13  1  0
 13 14  1  0
 14 15  1  0
 15 16  1  0
 16 11  1  0
  1 17  1  0
  4 18  1  0
  4 19  1  0
  5 20  1  0
  5 21  1  0
  6 22  1  0
  6 23  1  0
  7 24  1  0
 10 25  1  0
 11 26  1  0
 12 27  1  0
 12 28  1  0
 13 29  1  0
 13 30  1  0
 14 31  1  0
 14 32  1  0
 15 33  1  0
 15 34  1  0
 16 35  1  0
 16 36  1  0
M  END
$$$$
