
     RDKit          3D

 34 33  0  0  0  0  0  0  0  0999 V2000
    3.6750   -0.6340    0.5304 C   0  0  1  0  0  0  0  0  0  0  0  0
    4.1972    0.7273    0.6912 N   0  0  0  0  0  0  0  0  0  0  0  0
    2.1938   -0.7563    0.9599 C   0  0  0  0  0  0  0  0  0  0  0  0
    1.2168    0.0905    0.1244 C   0  0  0  0  0  0  0  0  0  0  0  0
   -0.2357   -0.1721    0.5455 C   0  0  0  0  0  0  0  0  0  0  0  0
   -1.2121    0.6900   -0.2891 C   0  0  0  0  0  0  0  0  0  0  0  0
   -2.6601    0.5104    0.0392 N   0  0  0  0  0  4  0  0  0  0  0  0
   -2.9448    0.8842    1.4457 C   0  0  0  0  0  0  0  0  0  0  0  0
   -3.4434    1.4057   -0.8474 C   0  0  0  0  0  0  0  0  0  0  0  0
   -3.0996   -0.8849   -0.2040 C   0  0  0  0  0  0  0  0  0  0  0  0
    3.8960   -1.1393   -0.8706 C   0  0  0  0  0  0  0  0  0  0  0  0
    4.0573   -2.5040   -1.0888 O   0  0  0  0  0  0  0  0  0  0  0  0
    3.8950   -0.3457   -1.8505 O   0  0  0  0  0  0  0  0  0  0  0  0
    4.2629   -1.2946    1.2054 H   0  0  0  0  0  0  0  0  0  0  0  0
    3.6894    1.3893    0.0620 H   0  0  0  0  0  0  0  0  0  0  0  0
    4.0333    1.0389    1.6762 H   0  0  0  0  0  0  0  0  0  0  0  0
    1.8977   -1.8267    0.8916 H   0  0  0  0  0  0  0  0  0  0  0  0
    2.1056   -0.4614    2.0287 H   0  0  0  0  0  0  0  0  0  0  0  0
    1.3298   -0.1571   -0.9529 H   0  0  0  0  0  0  0  0  0  0  0  0
    1.4392    1.1690    0.2686 H   0  0  0  0  0  0  0  0  0  0  0  0
   -0.4507   -1.2502    0.3955 H   0  0  0  0  0  0  0  0  0  0  0  0
   -0.3330    0.0708    1.6239 H   0  0  0  0  0  0  0  0  0  0  0  0
   -1.0396    0.4549   -1.3651 H   0  0  0  0  0  0  0  0  0  0  0  0
   -0.9261    1.7586   -0.1514 H   0  0  0  0  0  0  0  0  0  0  0  0
   -2.5083    0.1544    2.1605 H   0  0  0  0  0  0  0  0  0  0  0  0
   -2.5387    1.8932    1.6812 H   0  0  0  0  0  0  0  0  0  0  0  0
   -4.0408    0.9009    1.6411 H   0  0  0  0  0  0  0  0  0  0  0  0
   -3.2738    1.1567   -1.9193 H   0  0  0  0  0  0  0  0  0  0  0  0
   -4.5360    1.3180   -0.6510 H   0  0  0  0  0  0  0  0  0  0  0  0
   -3.1590    2.4711   -0.6936 H   0  0  0  0  0  0  0  0  0  0  0  0
   -2.8107   -1.2229   -1.2242 H   0  0  0  0  0  0  0  0  0  0  0  0
   -4.2052   -0.9779   -0.1115 H   0  0  0  0  0  0  0  0  0  0  0  0
   -2.6613   -1.5880    0.5361 H   0  0  0  0  0  0  0  0  0  0  0  0
    4.1898   -2.8685   -2.0247 H   0  0  0  0  0  0  0  0  0  0  0  0
  1  2  1  0
  1  3  1  0
  3  4  1  0
  4  5  1  0
  5  6  1  0
  6  7  1  0
  7  8  1  0
  7  9  1  0
  7 10  1  0
  1 11  1  0
 11 12  1  0
 11 13  2  0
  1 14  1  1
  2 15  1  0
  2 16  1  0
  3 17  1  0
  3 18  1  0
  4 19  1  0
  4 20  1  0
  5 21  1  0
  5 22  1  0
  6 23  1  0
  6 24  1  0
  8 25  1  0
  8 26  1  0
  8 27  1  0
  9 28  1  0
  9 29  1  0
  9 30  1  0
 10 31  1  0
 10 32  1  0
 10 33  1  0
 12 34  1  0
M  CHG  1   7   1
M  END
$$$$
