
     RDKit          3D

 61 63  0  0  0  0  0  0  0  0999 V2000
   -4.9339    3.5318    1.8058 C   0  0  0  0  0  0  0  0  0  0  0  0
   -3.5318    4.0818    1.5694 C   0  0  0  0  0  0  0  0  0  0  0  0
   -2.7801    3.1970    0.7420 O   0  0  0  0  0  0  0  0  0  0  0  0
   -2.2385    1.9904    1.1991 C   0  0  0  0  0  0  0  0  0  0  0  0
   -2.3345    1.6674    2.4155 O   0  0  0  0  0  0  0  0  0  0  0  0
   -1.5903    1.0591    0.2018 C   0  0  2  0  0  0  0  0  0  0  0  0
   -2.6352    0.1235   -0.4356 C   0  0  0  0  0  0  0  0  0  0  0  0
   -3.2852   -0.8534    0.5582 C   0  0  0  0  0  0  0  0  0  0  0  0
   -4.2979   -1.7179   -0.1434 C   0  0  0  0  0  0  0  0  0  0  0  0
   -5.6307   -1.2901   -0.2659 C   0  0  0  0  0  0  0  0  0  0  0  0
   -6.5633   -2.0785   -0.9472 C   0  0  0  0  0  0  0  0  0  0  0  0
   -6.1705   -3.2920   -1.5186 C   0  0  0  0  0  0  0  0  0  0  0  0
   -4.8433   -3.7174   -1.4132 C   0  0  0  0  0  0  0  0  0  0  0  0
   -3.9074   -2.9321   -0.7328 C   0  0  0  0  0  0  0  0  0  0  0  0
   -0.4861    0.2660    0.7861 N   0  0  0  0  0  0  0  0  0  0  0  0
    0.8343    0.9248    0.7196 C   0  0  1  0  0  0  0  0  0  0  0  0
    0.9836    2.0176    1.7872 C   0  0  0  0  0  0  0  0  0  0  0  0
    1.9198   -0.1112    0.9084 C   0  0  0  0  0  0  0  0  0  0  0  0
    1.7519   -1.0155    1.7724 O   0  0  0  0  0  0  0  0  0  0  0  0
    3.1657   -0.0569    0.1822 N   0  0  0  0  0  0  0  0  0  0  0  0
    4.2750   -0.9475    0.4897 C   0  0  0  0  0  0  0  0  0  0  0  0
    5.3843   -0.6016   -0.5119 C   0  0  0  0  0  0  0  0  0  0  0  0
    5.0208    0.7965   -1.0290 C   0  0  0  0  0  0  0  0  0  0  0  0
    3.5103    0.9366   -0.8287 C   0  0  1  0  0  0  0  0  0  0  0  0
    2.7681    0.6741   -2.1114 C   0  0  0  0  0  0  0  0  0  0  0  0
    2.3124   -0.6062   -2.4146 O   0  0  0  0  0  0  0  0  0  0  0  0
    2.5848    1.6139   -2.9302 O   0  0  0  0  0  0  0  0  0  0  0  0
    5.3734   -1.7947   -1.9031 S   0  0  0  0  0  0  0  0  0  0  0  0
    6.5487   -2.8822   -1.0679 C   0  0  0  0  0  0  0  0  0  0  0  0
    7.6908   -2.0248   -0.5740 C   0  0  0  0  0  0  0  0  0  0  0  0
    7.0281   -0.5821    0.3102 S   0  0  0  0  0  0  0  0  0  0  0  0
   -4.8853    2.5701    2.3578 H   0  0  0  0  0  0  0  0  0  0  0  0
   -5.5238    4.2574    2.4044 H   0  0  0  0  0  0  0  0  0  0  0  0
   -5.4446    3.3669    0.8335 H   0  0  0  0  0  0  0  0  0  0  0  0
   -3.6150    5.0621    1.0548 H   0  0  0  0  0  0  0  0  0  0  0  0
   -3.0111    4.2435    2.5383 H   0  0  0  0  0  0  0  0  0  0  0  0
   -1.2062    1.6888   -0.6319 H   0  0  0  0  0  0  0  0  0  0  0  0
   -2.1381   -0.4600   -1.2422 H   0  0  0  0  0  0  0  0  0  0  0  0
   -3.4279    0.7411   -0.9144 H   0  0  0  0  0  0  0  0  0  0  0  0
   -3.7865   -0.2926    1.3757 H   0  0  0  0  0  0  0  0  0  0  0  0
   -2.5085   -1.4974    1.0241 H   0  0  0  0  0  0  0  0  0  0  0  0
   -5.9455   -0.3471    0.1640 H   0  0  0  0  0  0  0  0  0  0  0  0
   -7.5898   -1.7468   -1.0354 H   0  0  0  0  0  0  0  0  0  0  0  0
   -6.8933   -3.9004   -2.0467 H   0  0  0  0  0  0  0  0  0  0  0  0
   -4.5388   -4.6540   -1.8620 H   0  0  0  0  0  0  0  0  0  0  0  0
   -2.8800   -3.2683   -0.6666 H   0  0  0  0  0  0  0  0  0  0  0  0
   -0.7016   -0.0362    1.7653 H   0  0  0  0  0  0  0  0  0  0  0  0
    0.9587    1.3945   -0.2762 H   0  0  0  0  0  0  0  0  0  0  0  0
    0.2969    2.8625    1.5760 H   0  0  0  0  0  0  0  0  0  0  0  0
    0.7654    1.6134    2.7988 H   0  0  0  0  0  0  0  0  0  0  0  0
    2.0191    2.4206    1.7808 H   0  0  0  0  0  0  0  0  0  0  0  0
    4.6044   -0.7612    1.5352 H   0  0  0  0  0  0  0  0  0  0  0  0
    3.9525   -2.0076    0.4015 H   0  0  0  0  0  0  0  0  0  0  0  0
    5.5253    1.5706   -0.4091 H   0  0  0  0  0  0  0  0  0  0  0  0
    5.3383    0.9556   -2.0838 H   0  0  0  0  0  0  0  0  0  0  0  0
    3.2789    1.9595   -0.4572 H   0  0  0  0  0  0  0  0  0  0  0  0
    1.8218   -0.7915   -3.2811 H   0  0  0  0  0  0  0  0  0  0  0  0
    6.9223   -3.6487   -1.7787 H   0  0  0  0  0  0  0  0  0  0  0  0
    6.0504   -3.3894   -0.2140 H   0  0  0  0  0  0  0  0  0  0  0  0
    8.2951   -1.6704   -1.4363 H   0  0  0  0  0  0  0  0  0  0  0  0
    8.3439   -2.6115    0.1056 H   0  0  0  0  0  0  0  0  0  0  0  0
  1  2  1  0
  2  3  1  0
  3  4  1  0
  4  5  2  0
  4  6  1  0
  6  7  1  0
  7  8  1  0
  8  9  1  0
  9 10  2  0
 10 11  1  0
 11 12  2  0
 12 13  1  0
 13 14  2  0
  6 15  1  0
 15 16  1  0
 16 17  1  0
 16 18  1  0
 18 19  2  0
 18 20  1  0
 20 21  1  0
 21 22  1  0
 22 23  1  0
 23 24  1  0
 24 25  1  0
 25 26  1  0
 25 27  2  0
 22 28  1  0
 28 29  1  0
 29 30  1  0
 30 31  1  0
 14  9  1  0
 24 20  1  0
 31 22  1  0
  1 32  1  0
  1 33  1  0
  1 34  1  0
  2 35  1  0
  2 36  1  0
  6 37  1  6
  7 38  1  0
  7 39  1  0
  8 40  1  0
  8 41  1  0
 10 42  1  0
 11 43  1  0
 12 44  1  0
 13 45  1  0
 14 46  1  0
 15 47  1  0
 16 48  1  6
 17 49  1  0
 17 50  1  0
 17 51  1  0
 21 52  1  0
 21 53  1  0
 23 54  1  0
 23 55  1  0
 24 56  1  1
 26 57  1  0
 29 58  1  0
 29 59  1  0
 30 60  1  0
 30 61  1  0
M  END
$$$$
