
     RDKit          3D

 40 42  0  0  0  0  0  0  0  0999 V2000
   -1.4907    1.1360   -2.2993 N   0  0  0  0  0  0  0  0  0  0  0  0
   -2.0527   -0.1399   -1.8438 C   0  0  1  0  0  0  0  0  0  0  0  0
   -0.9714   -1.0175   -1.2682 C   0  0  0  0  0  0  0  0  0  0  0  0
   -0.6560   -2.0804   -1.8697 O   0  0  0  0  0  0  0  0  0  0  0  0
   -0.2902   -0.6504   -0.0590 N   0  0  0  0  0  0  0  0  0  0  0  0
    0.7950   -1.4696    0.4866 C   0  0  1  0  0  0  0  0  0  0  0  0
    2.0951   -1.2311   -0.1119 C   0  0  1  0  0  0  0  0  0  0  0  0
    2.2616   -0.1979   -1.2409 C   0  0  0  0  0  0  0  0  0  0  0  0
    3.7335    0.2787   -1.2770 C   0  0  0  0  0  0  0  0  0  0  0  0
    4.2581    0.7490    0.0765 C   0  0  0  0  0  0  0  0  0  0  0  0
    5.6700    1.8024    0.0449 Cl  0  0  0  0  0  0  0  0  0  0  0  0
    3.7223    0.2715    1.2253 C   0  0  0  0  0  0  0  0  0  0  0  0
    2.6260   -0.6293    1.0834 N   0  0  0  0  0  0  0  0  0  0  0  0
    1.3404   -0.9038    1.7659 C   0  0  0  0  0  0  0  0  0  0  0  0
    0.8795   -0.6995    2.9192 O   0  0  0  0  0  0  0  0  0  0  0  0
    4.1543    0.6716    2.5839 C   0  0  0  0  0  0  0  0  0  0  0  0
    4.9421    1.7991    2.7954 O   0  0  0  0  0  0  0  0  0  0  0  0
    3.7816   -0.0094    3.5763 O   0  0  0  0  0  0  0  0  0  0  0  0
   -3.1984    0.0262   -0.8565 C   0  0  0  0  0  0  0  0  0  0  0  0
   -4.2230   -0.9386   -0.8343 C   0  0  0  0  0  0  0  0  0  0  0  0
   -5.2734   -0.8409    0.0829 C   0  0  0  0  0  0  0  0  0  0  0  0
   -5.3092    0.2138    0.9967 C   0  0  0  0  0  0  0  0  0  0  0  0
   -4.2919    1.1699    0.9982 C   0  0  0  0  0  0  0  0  0  0  0  0
   -3.2386    1.0777    0.0832 C   0  0  0  0  0  0  0  0  0  0  0  0
   -0.9604    1.6048   -1.5304 H   0  0  0  0  0  0  0  0  0  0  0  0
   -2.2699    1.7696   -2.5927 H   0  0  0  0  0  0  0  0  0  0  0  0
   -2.4561   -0.6476   -2.7491 H   0  0  0  0  0  0  0  0  0  0  0  0
   -0.5900    0.2084    0.4548 H   0  0  0  0  0  0  0  0  0  0  0  0
    0.5211   -2.5426    0.5890 H   0  0  0  0  0  0  0  0  0  0  0  0
    2.6346   -2.1784   -0.3401 H   0  0  0  0  0  0  0  0  0  0  0  0
    1.6158    0.6908   -1.0680 H   0  0  0  0  0  0  0  0  0  0  0  0
    1.9854   -0.6545   -2.2152 H   0  0  0  0  0  0  0  0  0  0  0  0
    3.8203    1.1071   -2.0122 H   0  0  0  0  0  0  0  0  0  0  0  0
    4.3769   -0.5551   -1.6317 H   0  0  0  0  0  0  0  0  0  0  0  0
    5.2251    2.0688    3.7300 H   0  0  0  0  0  0  0  0  0  0  0  0
   -4.2072   -1.7707   -1.5276 H   0  0  0  0  0  0  0  0  0  0  0  0
   -6.0581   -1.5863    0.0874 H   0  0  0  0  0  0  0  0  0  0  0  0
   -6.1223    0.2871    1.7073 H   0  0  0  0  0  0  0  0  0  0  0  0
   -4.3168    1.9825    1.7129 H   0  0  0  0  0  0  0  0  0  0  0  0
   -2.4624    1.8283    0.1203 H   0  0  0  0  0  0  0  0  0  0  0  0
  1  2  1  0
  2  3  1  0
  3  4  2  0
  3  5  1  0
  5  6  1  0
  6  7  1  0
  7  8  1  0
  8  9  1  0
  9 10  1  0
 10 11  1  0
 10 12  2  0
 12 13  1  0
 13 14  1  0
 14 15  2  0
 12 16  1  0
 16 17  1  0
 16 18  2  0
  2 19  1  0
 19 20  2  0
 20 21  1  0
 21 22  2  0
 22 23  1  0
 23 24  2  0
 14  6  1  0
 24 19  1  0
 13  7  1  0
  1 25  1  0
  1 26  1  0
  2 27  1  6
  5 28  1  0
  6 29  1  1
  7 30  1  6
  8 31  1  0
  8 32  1  0
  9 33  1  0
  9 34  1  0
 17 35  1  0
 20 36  1  0
 21 37  1  0
 22 38  1  0
 23 39  1  0
 24 40  1  0
M  END
$$$$
