
     RDKit          3D

 40 42  0  0  0  0  0  0  0  0999 V2000
    2.2821   -1.0237   -1.2374 C   0  0  1  0  0  0  0  0  0  0  0  0
    2.6123   -2.0626   -2.1296 O   0  0  0  0  0  0  0  0  0  0  0  0
    0.8799   -0.5323   -1.4664 C   0  0  0  0  0  0  0  0  0  0  0  0
    0.0656   -1.3399   -0.4679 C   0  0  1  0  0  0  0  0  0  0  0  0
    0.9059   -1.7792    0.5795 O   0  0  0  0  0  0  0  0  0  0  0  0
    2.2456   -1.5211    0.2132 C   0  0  2  0  0  0  0  0  0  0  0  0
    2.8388   -0.4953    1.1877 C   0  0  0  0  0  0  0  0  0  0  0  0
    4.2171   -0.3495    0.9355 O   0  0  0  0  0  0  0  0  0  0  0  0
    4.8370    0.8322    1.9979 P   0  0  0  0  0  5  0  0  0  0  0  0
    4.0261    2.3017    1.7776 O   0  0  0  0  0  0  0  0  0  0  0  0
    6.4813    1.0584    1.6704 O   0  0  0  0  0  0  0  0  0  0  0  0
    4.6763    0.3787    3.4320 O   0  0  0  0  0  0  0  0  0  0  0  0
   -1.0408   -0.5380    0.0661 N   0  0  0  0  0  0  0  0  0  0  0  0
   -1.0219    0.2086    1.1977 C   0  0  0  0  0  0  0  0  0  0  0  0
   -2.2148    0.9047    1.3453 C   0  0  0  0  0  0  0  0  0  0  0  0
   -2.9757    0.5715    0.2418 C   0  0  0  0  0  0  0  0  0  0  0  0
   -4.2530    0.9930   -0.1479 C   0  0  0  0  0  0  0  0  0  0  0  0
   -5.0451    1.9559    0.6873 C   0  0  0  0  0  0  0  0  0  0  0  0
   -4.7568    0.4961   -1.3693 C   0  0  0  0  0  0  0  0  0  0  0  0
   -3.9908   -0.3921   -2.1536 C   0  0  0  0  0  0  0  0  0  0  0  0
   -2.7130   -0.7972   -1.7326 C   0  0  0  0  0  0  0  0  0  0  0  0
   -2.2330   -0.2980   -0.5186 C   0  0  0  0  0  0  0  0  0  0  0  0
    3.0093   -0.1948   -1.3854 H   0  0  0  0  0  0  0  0  0  0  0  0
    1.9660   -2.8054   -1.9961 H   0  0  0  0  0  0  0  0  0  0  0  0
    0.8253    0.5542   -1.2297 H   0  0  0  0  0  0  0  0  0  0  0  0
    0.5366   -0.6986   -2.5110 H   0  0  0  0  0  0  0  0  0  0  0  0
   -0.3425   -2.2438   -0.9714 H   0  0  0  0  0  0  0  0  0  0  0  0
    2.8273   -2.4649    0.3092 H   0  0  0  0  0  0  0  0  0  0  0  0
    2.6740   -0.8700    2.2236 H   0  0  0  0  0  0  0  0  0  0  0  0
    2.2997    0.4712    1.0580 H   0  0  0  0  0  0  0  0  0  0  0  0
    4.1505    2.5155    0.8186 H   0  0  0  0  0  0  0  0  0  0  0  0
    6.8778    0.1528    1.7316 H   0  0  0  0  0  0  0  0  0  0  0  0
   -0.1842    0.2622    1.8808 H   0  0  0  0  0  0  0  0  0  0  0  0
   -2.4785    1.5806    2.1479 H   0  0  0  0  0  0  0  0  0  0  0  0
   -5.1465    1.5615    1.7203 H   0  0  0  0  0  0  0  0  0  0  0  0
   -6.0631    2.1097    0.2705 H   0  0  0  0  0  0  0  0  0  0  0  0
   -4.5234    2.9353    0.7206 H   0  0  0  0  0  0  0  0  0  0  0  0
   -5.7366    0.7962   -1.7191 H   0  0  0  0  0  0  0  0  0  0  0  0
   -4.3891   -0.7618   -3.0896 H   0  0  0  0  0  0  0  0  0  0  0  0
   -2.1256   -1.4717   -2.3408 H   0  0  0  0  0  0  0  0  0  0  0  0
  1  2  1  0
  1  3  1  0
  3  4  1  0
  4  5  1  0
  5  6  1  0
  6  7  1  0
  7  8  1  0
  8  9  1  0
  9 10  1  0
  9 11  1  0
  9 12  2  0
  4 13  1  0
 13 14  1  0
 14 15  2  0
 15 16  1  0
 16 17  2  0
 17 18  1  0
 17 19  1  0
 19 20  2  0
 20 21  1  0
 21 22  2  0
  6  1  1  0
 22 13  1  0
 22 16  1  0
  1 23  1  1
  2 24  1  0
  3 25  1  0
  3 26  1  0
  4 27  1  6
  6 28  1  6
  7 29  1  0
  7 30  1  0
 10 31  1  0
 11 32  1  0
 14 33  1  0
 15 34  1  0
 18 35  1  0
 18 36  1  0
 18 37  1  0
 19 38  1  0
 20 39  1  0
 21 40  1  0
M  END
$$$$
