
     RDKit          3D

 40 42  0  0  0  0  0  0  0  0999 V2000
    1.7256   -2.7324    0.9102 C   0  0  0  0  0  0  0  0  0  0  0  0
    1.8688   -1.3890    1.6182 C   0  0  0  0  0  0  0  0  0  0  0  0
    2.2054   -0.3294    0.6510 N   0  0  0  0  0  0  0  0  0  0  0  0
    3.5226   -0.0285    0.4406 C   0  0  0  0  0  0  0  0  0  0  0  0
    3.9121    0.9568   -0.4820 C   0  0  0  0  0  0  0  0  0  0  0  0
    5.3591    1.2512   -0.6641 C   0  0  0  0  0  0  0  0  0  0  0  0
    6.3126    0.5594    0.0793 O   0  0  0  0  0  0  0  0  0  0  0  0
    5.7441    2.1247   -1.4874 O   0  0  0  0  0  0  0  0  0  0  0  0
    2.9104    1.6316   -1.2094 C   0  0  0  0  0  0  0  0  0  0  0  0
    3.2204    2.5237   -2.0470 O   0  0  0  0  0  0  0  0  0  0  0  0
    1.5591    1.3055   -1.0031 C   0  0  0  0  0  0  0  0  0  0  0  0
    0.5266    1.9335   -1.7202 C   0  0  0  0  0  0  0  0  0  0  0  0
   -0.8036    1.5756   -1.4996 C   0  0  0  0  0  0  0  0  0  0  0  0
   -1.7758    2.1536   -2.2486 F   0  0  0  0  0  0  0  0  0  0  0  0
   -1.1049    0.5889   -0.5452 C   0  0  0  0  0  0  0  0  0  0  0  0
   -0.0875   -0.0125    0.1284 N   0  0  0  0  0  0  0  0  0  0  0  0
    1.2230    0.3099   -0.0614 C   0  0  0  0  0  0  0  0  0  0  0  0
   -2.4598    0.1724   -0.2870 N   0  0  0  0  0  0  0  0  0  0  0  0
   -3.5701    1.1342   -0.2829 C   0  0  0  0  0  0  0  0  0  0  0  0
   -4.5778    0.8317    0.8479 C   0  0  0  0  0  0  0  0  0  0  0  0
   -4.6920   -0.5962    1.2101 N   0  0  0  0  0  0  0  0  0  0  0  0
   -4.2212   -1.4994    0.1552 C   0  0  0  0  0  0  0  0  0  0  0  0
   -2.7352   -1.2591   -0.1213 C   0  0  0  0  0  0  0  0  0  0  0  0
    0.9083   -2.6870    0.1597 H   0  0  0  0  0  0  0  0  0  0  0  0
    2.6757   -2.9970    0.3995 H   0  0  0  0  0  0  0  0  0  0  0  0
    1.4851   -3.5222    1.6525 H   0  0  0  0  0  0  0  0  0  0  0  0
    0.9253   -1.1477    2.1549 H   0  0  0  0  0  0  0  0  0  0  0  0
    2.6559   -1.4731    2.4003 H   0  0  0  0  0  0  0  0  0  0  0  0
    4.2842   -0.5625    0.9973 H   0  0  0  0  0  0  0  0  0  0  0  0
    7.3010    0.7502   -0.0350 H   0  0  0  0  0  0  0  0  0  0  0  0
    0.7458    2.6912   -2.4627 H   0  0  0  0  0  0  0  0  0  0  0  0
   -3.1929    2.1714   -0.1473 H   0  0  0  0  0  0  0  0  0  0  0  0
   -4.0906    1.0829   -1.2639 H   0  0  0  0  0  0  0  0  0  0  0  0
   -5.5794    1.2012    0.5411 H   0  0  0  0  0  0  0  0  0  0  0  0
   -4.2873    1.4150    1.7504 H   0  0  0  0  0  0  0  0  0  0  0  0
   -4.1252   -0.7736    2.0734 H   0  0  0  0  0  0  0  0  0  0  0  0
   -4.3718   -2.5526    0.4763 H   0  0  0  0  0  0  0  0  0  0  0  0
   -4.8162   -1.3420   -0.7714 H   0  0  0  0  0  0  0  0  0  0  0  0
   -2.1434   -1.6533    0.7337 H   0  0  0  0  0  0  0  0  0  0  0  0
   -2.4363   -1.8073   -1.0406 H   0  0  0  0  0  0  0  0  0  0  0  0
  1  2  1  0
  2  3  1  0
  3  4  1  0
  4  5  2  0
  5  6  1  0
  6  7  1  0
  6  8  2  0
  5  9  1  0
  9 10  2  0
  9 11  1  0
 11 12  2  0
 12 13  1  0
 13 14  1  0
 13 15  2  0
 15 16  1  0
 16 17  2  0
 15 18  1  0
 18 19  1  0
 19 20  1  0
 20 21  1  0
 21 22  1  0
 22 23  1  0
 17  3  1  0
 23 18  1  0
 17 11  1  0
  1 24  1  0
  1 25  1  0
  1 26  1  0
  2 27  1  0
  2 28  1  0
  4 29  1  0
  7 30  1  0
 12 31  1  0
 19 32  1  0
 19 33  1  0
 20 34  1  0
 20 35  1  0
 21 36  1  0
 22 37  1  0
 22 38  1  0
 23 39  1  0
 23 40  1  0
M  END
$$$$
