
     RDKit          3D

 17 17  0  0  0  0  0  0  0  0999 V2000
    0.5976    1.5783    0.5360 N   0  0  0  0  0  0  0  0  0  0  0  0
    0.2066    0.2433    0.0734 C   0  0  1  0  0  0  0  0  0  0  0  0
   -0.7518   -0.4393    1.0554 C   0  0  0  0  0  0  0  0  0  0  0  0
   -1.8601   -0.3739    0.0108 C   0  0  2  0  0  0  0  0  0  0  0  0
   -2.2361   -1.6337   -0.4252 F   0  0  0  0  0  0  0  0  0  0  0  0
   -0.9141    0.3100   -0.9697 C   0  0  0  0  0  0  0  0  0  0  0  0
    1.3823   -0.6193   -0.3399 C   0  0  0  0  0  0  0  0  0  0  0  0
    2.6805   -0.1225   -0.2601 O   0  0  0  0  0  0  0  0  0  0  0  0
    1.1926   -1.7936   -0.7593 O   0  0  0  0  0  0  0  0  0  0  0  0
    1.2491    1.4752    1.3482 H   0  0  0  0  0  0  0  0  0  0  0  0
    1.1225    2.0593   -0.2305 H   0  0  0  0  0  0  0  0  0  0  0  0
   -0.4695   -1.4834    1.3166 H   0  0  0  0  0  0  0  0  0  0  0  0
   -0.9866    0.1820    1.9480 H   0  0  0  0  0  0  0  0  0  0  0  0
   -2.7206    0.2611    0.3147 H   0  0  0  0  0  0  0  0  0  0  0  0
   -0.7258   -0.3004   -1.8807 H   0  0  0  0  0  0  0  0  0  0  0  0
   -1.2392    1.3480   -1.2035 H   0  0  0  0  0  0  0  0  0  0  0  0
    3.4727   -0.6913   -0.5341 H   0  0  0  0  0  0  0  0  0  0  0  0
  2  1  1  1
  2  3  1  0
  3  4  1  0
  4  5  1  0
  4  6  1  0
  2  7  1  0
  7  8  1  0
  7  9  2  0
  6  2  1  0
  1 10  1  0
  1 11  1  0
  3 12  1  0
  3 13  1  0
  4 14  1  1
  6 15  1  0
  6 16  1  0
  8 17  1  0
M  ISO  1   5  18
M  END
$$$$
