
     RDKit          3D

 31 32  0  0  0  0  0  0  0  0999 V2000
   -3.6579   -0.7791    1.6592 N   0  0  0  0  0  0  0  0  0  0  0  0
   -4.2580    0.2144    0.8180 C   0  0  0  0  0  0  0  0  0  0  0  0
   -5.6540    0.4827    0.9462 N   0  0  0  0  0  0  0  0  0  0  0  0
   -3.5537    0.9258   -0.0162 N   0  0  0  0  0  0  0  0  0  0  0  0
   -2.1675    0.7471   -0.3428 C   0  0  0  0  0  0  0  0  0  0  0  0
   -1.6463   -0.5202   -0.6547 C   0  0  0  0  0  0  0  0  0  0  0  0
   -0.3046   -0.6604   -1.0213 C   0  0  0  0  0  0  0  0  0  0  0  0
    0.5277    0.4668   -1.1018 C   0  0  0  0  0  0  0  0  0  0  0  0
   -0.0037    1.7364   -0.8276 C   0  0  0  0  0  0  0  0  0  0  0  0
   -1.3462    1.8741   -0.4619 C   0  0  0  0  0  0  0  0  0  0  0  0
    2.0422    0.3091   -1.5084 B   0  0  0  0  0  0  0  0  0  0  0  0
    2.9695    1.3761   -1.1782 O   0  0  0  0  0  0  0  0  0  0  0  0
    3.7229    0.7465   -0.1815 C   0  0  0  0  0  0  0  0  0  0  0  0
    3.6111   -0.7815   -0.4032 C   0  0  1  0  0  0  0  0  0  0  0  0
    3.2191   -1.5465    0.8708 C   0  0  0  0  0  0  0  0  0  0  0  0
    4.2561   -1.4963    1.8141 O   0  0  0  0  0  0  0  0  0  0  0  0
    2.6594   -1.0033   -1.4108 O   0  0  0  0  0  0  0  0  0  0  0  0
   -2.6248   -0.8458    1.7880 H   0  0  0  0  0  0  0  0  0  0  0  0
   -4.2605   -1.3846    2.2592 H   0  0  0  0  0  0  0  0  0  0  0  0
   -6.2375   -0.0537    1.6258 H   0  0  0  0  0  0  0  0  0  0  0  0
   -6.1093    1.2181    0.3607 H   0  0  0  0  0  0  0  0  0  0  0  0
   -2.2813   -1.3966   -0.6283 H   0  0  0  0  0  0  0  0  0  0  0  0
    0.0770   -1.6486   -1.2480 H   0  0  0  0  0  0  0  0  0  0  0  0
    0.6145    2.6232   -0.8990 H   0  0  0  0  0  0  0  0  0  0  0  0
   -1.7462    2.8600   -0.2605 H   0  0  0  0  0  0  0  0  0  0  0  0
    3.3443    1.0609    0.8183 H   0  0  0  0  0  0  0  0  0  0  0  0
    4.7830    1.0692   -0.2648 H   0  0  0  0  0  0  0  0  0  0  0  0
    4.5897   -1.1708   -0.7632 H   0  0  0  0  0  0  0  0  0  0  0  0
    2.2697   -1.1445    1.2954 H   0  0  0  0  0  0  0  0  0  0  0  0
    3.0403   -2.6108    0.6083 H   0  0  0  0  0  0  0  0  0  0  0  0
    4.1250   -0.6675    2.3438 H   0  0  0  0  0  0  0  0  0  0  0  0
  1  2  1  0
  2  3  1  0
  2  4  2  3
  4  5  1  0
  5  6  2  0
  6  7  1  0
  7  8  2  0
  8  9  1  0
  9 10  2  0
  8 11  1  0
 11 12  1  0
 12 13  1  0
 13 14  1  0
 14 15  1  0
 15 16  1  0
 14 17  1  0
 10  5  1  0
 17 11  1  0
  1 18  1  0
  1 19  1  0
  3 20  1  0
  3 21  1  0
  6 22  1  0
  7 23  1  0
  9 24  1  0
 10 25  1  0
 13 26  1  0
 13 27  1  0
 14 28  1  6
 15 29  1  0
 15 30  1  0
 16 31  1  0
M  END
$$$$
