
     RDKit          3D

 80 81  0  0  0  0  0  0  0  0999 V2000
   -5.8963   -1.2538   -1.6750 C   0  0  0  0  0  0  0  0  0  0  0  0
   -5.9927    0.1912   -1.1647 C   0  0  0  0  0  0  0  0  0  0  0  0
   -7.2696    0.8474   -1.7095 C   0  0  0  0  0  0  0  0  0  0  0  0
   -4.7139    0.9717   -1.5559 C   0  0  0  0  0  0  0  0  0  0  0  0
   -4.5570    2.3364   -0.8417 C   0  0  1  0  0  0  0  0  0  0  0  0
   -3.1464    2.7394   -0.8405 N   0  0  0  0  0  0  0  0  0  0  0  0
   -2.1923    2.1872    0.0791 C   0  0  0  0  0  0  0  0  0  0  0  0
   -2.5626    1.3375    0.9355 O   0  0  0  0  0  0  0  0  0  0  0  0
   -0.7328    2.5679   -0.0379 C   0  0  2  0  0  0  0  0  0  0  0  0
   -0.0342    1.8044   -1.1835 C   0  0  0  0  0  0  0  0  0  0  0  0
   -0.2605    0.3120   -1.1376 C   0  0  0  0  0  0  0  0  0  0  0  0
    0.4467   -0.4886   -0.2273 C   0  0  0  0  0  0  0  0  0  0  0  0
    0.2309   -1.8701   -0.1876 C   0  0  0  0  0  0  0  0  0  0  0  0
   -0.6919   -2.4602   -1.0545 C   0  0  0  0  0  0  0  0  0  0  0  0
   -1.4006   -1.6706   -1.9631 C   0  0  0  0  0  0  0  0  0  0  0  0
   -1.1855   -0.2903   -2.0075 C   0  0  0  0  0  0  0  0  0  0  0  0
   -0.0142    2.3868    1.2320 N   0  0  0  0  0  0  0  0  0  0  0  0
    1.1846    3.1180    1.5356 C   0  0  0  0  0  0  0  0  0  0  0  0
    1.7018    3.8774    0.6720 O   0  0  0  0  0  0  0  0  0  0  0  0
    1.8076    3.0313    2.8984 C   0  0  0  0  0  0  0  0  0  0  0  0
    1.9548    1.6408    3.3227 N   0  0  0  0  0  0  0  0  0  0  0  0
    2.8321    0.7215    2.6518 C   0  0  0  0  0  0  0  0  0  0  0  0
    3.5677    1.1376    1.7149 O   0  0  0  0  0  0  0  0  0  0  0  0
    2.9459   -0.7193    3.0993 C   0  0  1  0  0  0  0  0  0  0  0  0
    1.5912   -1.3124    3.5052 C   0  0  0  0  0  0  0  0  0  0  0  0
    3.5111   -1.5356    2.0201 N   0  0  0  0  0  0  0  0  0  0  0  0
    4.7637   -2.2291    2.1340 C   0  0  0  0  0  0  0  0  0  0  0  0
    5.5727   -1.9189    3.0502 O   0  0  0  0  0  0  0  0  0  0  0  0
    5.1508   -3.3200    1.1575 C   0  0  1  0  0  0  0  0  0  0  0  0
    4.0582   -4.2711    0.9280 N   0  0  0  0  0  0  0  0  0  0  0  0
    5.7137   -2.7676   -0.1688 C   0  0  0  0  0  0  0  0  0  0  0  0
    4.7270   -1.9621   -0.9808 C   0  0  0  0  0  0  0  0  0  0  0  0
    3.8501   -2.6013   -1.8734 C   0  0  0  0  0  0  0  0  0  0  0  0
    2.9586   -1.8517   -2.6464 C   0  0  0  0  0  0  0  0  0  0  0  0
    2.9389   -0.4549   -2.5416 C   0  0  0  0  0  0  0  0  0  0  0  0
    2.0708    0.3034   -3.3235 O   0  0  0  0  0  0  0  0  0  0  0  0
    3.7995    0.1857   -1.6447 C   0  0  0  0  0  0  0  0  0  0  0  0
    4.6918   -0.5619   -0.8700 C   0  0  0  0  0  0  0  0  0  0  0  0
   -5.3802    3.4158   -1.4918 C   0  0  0  0  0  0  0  0  0  0  0  0
   -6.2152    4.2105   -0.7123 O   0  0  0  0  0  0  0  0  0  0  0  0
   -5.2915    3.6287   -2.7315 O   0  0  0  0  0  0  0  0  0  0  0  0
   -5.0026   -1.7563   -1.2465 H   0  0  0  0  0  0  0  0  0  0  0  0
   -6.7920   -1.8337   -1.3656 H   0  0  0  0  0  0  0  0  0  0  0  0
   -5.8209   -1.2727   -2.7837 H   0  0  0  0  0  0  0  0  0  0  0  0
   -6.0658    0.1482   -0.0553 H   0  0  0  0  0  0  0  0  0  0  0  0
   -8.1474    0.1883   -1.5376 H   0  0  0  0  0  0  0  0  0  0  0  0
   -7.4744    1.7993   -1.1804 H   0  0  0  0  0  0  0  0  0  0  0  0
   -7.1789    1.0417   -2.7997 H   0  0  0  0  0  0  0  0  0  0  0  0
   -3.8458    0.3413   -1.2689 H   0  0  0  0  0  0  0  0  0  0  0  0
   -4.6564    1.0962   -2.6598 H   0  0  0  0  0  0  0  0  0  0  0  0
   -4.8974    2.2386    0.2131 H   0  0  0  0  0  0  0  0  0  0  0  0
   -2.7986    3.3917   -1.5805 H   0  0  0  0  0  0  0  0  0  0  0  0
   -0.7090    3.6510   -0.2918 H   0  0  0  0  0  0  0  0  0  0  0  0
   -0.3983    2.2089   -2.1537 H   0  0  0  0  0  0  0  0  0  0  0  0
    1.0580    2.0075   -1.1601 H   0  0  0  0  0  0  0  0  0  0  0  0
    1.1698   -0.0424    0.4403 H   0  0  0  0  0  0  0  0  0  0  0  0
    0.7775   -2.4860    0.5137 H   0  0  0  0  0  0  0  0  0  0  0  0
   -0.8577   -3.5292   -1.0221 H   0  0  0  0  0  0  0  0  0  0  0  0
   -2.1173   -2.1276   -2.6331 H   0  0  0  0  0  0  0  0  0  0  0  0
   -1.7410    0.3083   -2.7187 H   0  0  0  0  0  0  0  0  0  0  0  0
   -0.3709    1.7129    1.9464 H   0  0  0  0  0  0  0  0  0  0  0  0
    2.8036    3.5253    2.9018 H   0  0  0  0  0  0  0  0  0  0  0  0
    1.1570    3.5718    3.6186 H   0  0  0  0  0  0  0  0  0  0  0  0
    1.4352    1.3378    4.1753 H   0  0  0  0  0  0  0  0  0  0  0  0
    3.6079   -0.7449    3.9914 H   0  0  0  0  0  0  0  0  0  0  0  0
    1.6827   -2.4128    3.6287 H   0  0  0  0  0  0  0  0  0  0  0  0
    1.2543   -0.8981    4.4778 H   0  0  0  0  0  0  0  0  0  0  0  0
    0.8212   -1.1057    2.7325 H   0  0  0  0  0  0  0  0  0  0  0  0
    2.9539   -1.6332    1.1442 H   0  0  0  0  0  0  0  0  0  0  0  0
    5.9833   -3.8947    1.6233 H   0  0  0  0  0  0  0  0  0  0  0  0
    3.2158   -3.7826    0.5520 H   0  0  0  0  0  0  0  0  0  0  0  0
    3.7847   -4.6916    1.8461 H   0  0  0  0  0  0  0  0  0  0  0  0
    6.0781   -3.6201   -0.7832 H   0  0  0  0  0  0  0  0  0  0  0  0
    6.6097   -2.1462    0.0521 H   0  0  0  0  0  0  0  0  0  0  0  0
    3.8624   -3.6793   -1.9756 H   0  0  0  0  0  0  0  0  0  0  0  0
    2.2892   -2.3562   -3.3314 H   0  0  0  0  0  0  0  0  0  0  0  0
    1.4275   -0.1317   -3.9744 H   0  0  0  0  0  0  0  0  0  0  0  0
    3.7807    1.2641   -1.5521 H   0  0  0  0  0  0  0  0  0  0  0  0
    5.3577   -0.0500   -0.1866 H   0  0  0  0  0  0  0  0  0  0  0  0
   -6.7685    4.9487   -1.1305 H   0  0  0  0  0  0  0  0  0  0  0  0
  1  2  1  0
  2  3  1  0
  2  4  1  0
  4  5  1  0
  5  6  1  0
  6  7  1  0
  7  8  2  0
  7  9  1  0
  9 10  1  0
 10 11  1  0
 11 12  2  0
 12 13  1  0
 13 14  2  0
 14 15  1  0
 15 16  2  0
  9 17  1  0
 17 18  1  0
 18 19  2  0
 18 20  1  0
 20 21  1  0
 21 22  1  0
 22 23  2  0
 22 24  1  0
 24 25  1  0
 24 26  1  0
 26 27  1  0
 27 28  2  0
 27 29  1  0
 29 30  1  0
 29 31  1  0
 31 32  1  0
 32 33  2  0
 33 34  1  0
 34 35  2  0
 35 36  1  0
 35 37  1  0
 37 38  2  0
  5 39  1  0
 39 40  1  0
 39 41  2  0
 16 11  1  0
 38 32  1  0
  1 42  1  0
  1 43  1  0
  1 44  1  0
  2 45  1  0
  3 46  1  0
  3 47  1  0
  3 48  1  0
  4 49  1  0
  4 50  1  0
  5 51  1  1
  6 52  1  0
  9 53  1  6
 10 54  1  0
 10 55  1  0
 12 56  1  0
 13 57  1  0
 14 58  1  0
 15 59  1  0
 16 60  1  0
 17 61  1  0
 20 62  1  0
 20 63  1  0
 21 64  1  0
 24 65  1  1
 25 66  1  0
 25 67  1  0
 25 68  1  0
 26 69  1  0
 29 70  1  1
 30 71  1  0
 30 72  1  0
 31 73  1  0
 31 74  1  0
 33 75  1  0
 34 76  1  0
 36 77  1  0
 37 78  1  0
 38 79  1  0
 40 80  1  0
M  END
$$$$
