
     RDKit          3D

 35 36  0  0  0  0  0  0  0  0999 V2000
    6.6641    0.7232    0.5170 N   0  0  0  0  0  0  0  0  0  0  0  0
    5.8658   -0.8098    0.5289 S   0  0  0  0  0  6  0  0  0  0  0  0
    6.3656   -1.6498   -0.6132 O   0  0  0  0  0  0  0  0  0  0  0  0
    6.1664   -1.5213    1.8183 O   0  0  0  0  0  0  0  0  0  0  0  0
    4.1294   -0.5665    0.3726 C   0  0  0  0  0  0  0  0  0  0  0  0
    3.5439   -0.4724   -0.8965 C   0  0  0  0  0  0  0  0  0  0  0  0
    2.1672   -0.2656   -1.0228 C   0  0  0  0  0  0  0  0  0  0  0  0
    1.3567   -0.1616    0.1172 C   0  0  0  0  0  0  0  0  0  0  0  0
   -0.0523    0.0799   -0.0359 N   0  0  0  0  0  0  0  0  0  0  0  0
   -1.0621   -0.4305    0.8554 C   0  0  0  0  0  0  0  0  0  0  0  0
   -0.8548   -1.8648    1.6208 S   0  0  0  0  0  0  0  0  0  0  0  0
   -2.2671    0.2527    1.0629 O   0  0  0  0  0  0  0  0  0  0  0  0
   -2.6623    1.4338    0.3664 C   0  0  0  0  0  0  0  0  0  0  0  0
   -3.2816    1.0879   -0.9912 C   0  0  0  0  0  0  0  0  0  0  0  0
   -4.4989    0.2246   -0.8254 C   0  0  0  0  0  0  0  0  0  0  0  0
   -4.4514   -1.1658   -0.8333 C   0  0  0  0  0  0  0  0  0  0  0  0
   -6.0063   -1.7375   -0.5540 S   0  0  0  0  0  0  0  0  0  0  0  0
   -6.7499   -0.2369   -0.4129 C   0  0  0  0  0  0  0  0  0  0  0  0
   -5.7807    0.7418   -0.5814 C   0  0  0  0  0  0  0  0  0  0  0  0
    1.9524   -0.2245    1.3892 C   0  0  0  0  0  0  0  0  0  0  0  0
    3.3294   -0.4307    1.5147 C   0  0  0  0  0  0  0  0  0  0  0  0
    7.6909    0.5334    0.5468 H   0  0  0  0  0  0  0  0  0  0  0  0
    6.4656    1.1632   -0.4095 H   0  0  0  0  0  0  0  0  0  0  0  0
    4.1527   -0.5543   -1.7880 H   0  0  0  0  0  0  0  0  0  0  0  0
    1.7287   -0.1941   -2.0103 H   0  0  0  0  0  0  0  0  0  0  0  0
   -0.3553    0.6187   -0.8761 H   0  0  0  0  0  0  0  0  0  0  0  0
   -3.4178    1.9683    0.9812 H   0  0  0  0  0  0  0  0  0  0  0  0
   -1.7995    2.1223    0.2388 H   0  0  0  0  0  0  0  0  0  0  0  0
   -3.5636    2.0288   -1.5112 H   0  0  0  0  0  0  0  0  0  0  0  0
   -2.5403    0.5659   -1.6315 H   0  0  0  0  0  0  0  0  0  0  0  0
   -3.5681   -1.7728   -0.9823 H   0  0  0  0  0  0  0  0  0  0  0  0
   -7.7989   -0.0616   -0.2163 H   0  0  0  0  0  0  0  0  0  0  0  0
   -5.9965    1.8007   -0.5237 H   0  0  0  0  0  0  0  0  0  0  0  0
    1.3571   -0.0934    2.2833 H   0  0  0  0  0  0  0  0  0  0  0  0
    3.7714   -0.4739    2.5019 H   0  0  0  0  0  0  0  0  0  0  0  0
  1  2  1  0
  2  3  2  0
  2  4  2  0
  2  5  1  0
  5  6  2  0
  6  7  1  0
  7  8  2  0
  8  9  1  0
  9 10  1  0
 10 11  2  0
 10 12  1  0
 12 13  1  0
 13 14  1  0
 14 15  1  0
 15 16  2  0
 16 17  1  0
 17 18  1  0
 18 19  2  0
  8 20  1  0
 20 21  2  0
 21  5  1  0
 19 15  1  0
  1 22  1  0
  1 23  1  0
  6 24  1  0
  7 25  1  0
  9 26  1  0
 13 27  1  0
 13 28  1  0
 14 29  1  0
 14 30  1  0
 16 31  1  0
 18 32  1  0
 19 33  1  0
 20 34  1  0
 21 35  1  0
M  END
$$$$
