
     RDKit          3D

 42 44  0  0  0  0  0  0  0  0999 V2000
   -4.4215    3.7406    0.5549 C   0  0  0  0  0  0  0  0  0  0  0  0
   -3.3787    3.1198   -0.1914 O   0  0  0  0  0  0  0  0  0  0  0  0
   -2.9545    1.7902   -0.0274 C   0  0  0  0  0  0  0  0  0  0  0  0
   -3.5220    0.9587    0.8815 C   0  0  0  0  0  0  0  0  0  0  0  0
   -3.0660   -0.4415    1.0421 C   0  0  0  0  0  0  0  0  0  0  0  0
   -3.6284   -1.1991    1.8755 O   0  0  0  0  0  0  0  0  0  0  0  0
   -1.9537   -0.9123    0.1974 C   0  0  0  0  0  0  0  0  0  0  0  0
   -1.3752   -0.0804   -0.7247 C   0  0  0  0  0  0  0  0  0  0  0  0
   -0.3787   -0.8096   -1.3607 C   0  0  0  0  0  0  0  0  0  0  0  0
    0.5640   -0.3432   -2.4394 C   0  0  0  0  0  0  0  0  0  0  0  0
    1.9164   -0.6390   -2.0898 O   0  0  0  0  0  0  0  0  0  0  0  0
    2.6332   -0.0406   -1.0411 C   0  0  0  0  0  0  0  0  0  0  0  0
    3.9047   -0.5394   -0.7404 C   0  0  0  0  0  0  0  0  0  0  0  0
    4.6591    0.0125    0.2987 C   0  0  0  0  0  0  0  0  0  0  0  0
    4.1526    1.0812    1.0576 C   0  0  0  0  0  0  0  0  0  0  0  0
    2.8763    1.5866    0.7515 C   0  0  0  0  0  0  0  0  0  0  0  0
    2.1238    1.0334   -0.2885 C   0  0  0  0  0  0  0  0  0  0  0  0
    4.9304    1.6475    2.1283 N   0  0  0  0  0  4  0  0  0  0  0  0
    6.1792    1.1506    2.4240 O   0  0  0  0  0  1  0  0  0  0  0  0
    4.4851    2.5971    2.8059 O   0  0  0  0  0  0  0  0  0  0  0  0
   -0.4287   -2.0865   -0.7973 C   0  0  0  0  0  0  0  0  0  0  0  0
    0.4564   -3.2414   -1.1727 C   0  0  0  0  0  0  0  0  0  0  0  0
   -1.3734   -2.1325    0.1769 N   0  0  0  0  0  0  0  0  0  0  0  0
   -1.7253   -3.2786    1.0174 C   0  0  0  0  0  0  0  0  0  0  0  0
   -1.8481    1.3068   -0.8936 C   0  0  0  0  0  0  0  0  0  0  0  0
   -1.3406    2.0725   -1.7543 O   0  0  0  0  0  0  0  0  0  0  0  0
   -5.3808    3.2066    0.3884 H   0  0  0  0  0  0  0  0  0  0  0  0
   -4.5360    4.7897    0.2134 H   0  0  0  0  0  0  0  0  0  0  0  0
   -4.1673    3.7450    1.6359 H   0  0  0  0  0  0  0  0  0  0  0  0
   -4.3304    1.2992    1.5140 H   0  0  0  0  0  0  0  0  0  0  0  0
    0.3154   -0.8834   -3.3762 H   0  0  0  0  0  0  0  0  0  0  0  0
    0.4658    0.7381   -2.6522 H   0  0  0  0  0  0  0  0  0  0  0  0
    4.3088   -1.3646   -1.3132 H   0  0  0  0  0  0  0  0  0  0  0  0
    5.6381   -0.3984    0.5081 H   0  0  0  0  0  0  0  0  0  0  0  0
    2.4597    2.4113    1.3155 H   0  0  0  0  0  0  0  0  0  0  0  0
    1.1513    1.4527   -0.4991 H   0  0  0  0  0  0  0  0  0  0  0  0
   -0.1462   -4.1689   -1.2599 H   0  0  0  0  0  0  0  0  0  0  0  0
    0.9457   -3.0717   -2.1532 H   0  0  0  0  0  0  0  0  0  0  0  0
    1.2374   -3.3768   -0.3960 H   0  0  0  0  0  0  0  0  0  0  0  0
   -0.9698   -4.0862    0.9383 H   0  0  0  0  0  0  0  0  0  0  0  0
   -1.7638   -2.9685    2.0824 H   0  0  0  0  0  0  0  0  0  0  0  0
   -2.7143   -3.6775    0.7094 H   0  0  0  0  0  0  0  0  0  0  0  0
  1  2  1  0
  2  3  1  0
  3  4  2  0
  4  5  1  0
  5  6  2  0
  5  7  1  0
  7  8  2  0
  8  9  1  0
  9 10  1  0
 10 11  1  0
 11 12  1  0
 12 13  2  0
 13 14  1  0
 14 15  2  0
 15 16  1  0
 16 17  2  0
 15 18  1  0
 18 19  1  0
 18 20  2  0
  9 21  2  0
 21 22  1  0
 21 23  1  0
 23 24  1  0
  8 25  1  0
 25 26  2  0
 25  3  1  0
 23  7  1  0
 17 12  1  0
  1 27  1  0
  1 28  1  0
  1 29  1  0
  4 30  1  0
 10 31  1  0
 10 32  1  0
 13 33  1  0
 14 34  1  0
 16 35  1  0
 17 36  1  0
 22 37  1  0
 22 38  1  0
 22 39  1  0
 24 40  1  0
 24 41  1  0
 24 42  1  0
M  CHG  2  18   1  19  -1
M  END
$$$$
