
     RDKit          3D

 21 18  0  0  0  0  0  0  0  0999 V2000
    0.0000    0.0000    0.0000 Mg  0  0  0  0  0 15  0  0  0  0  0  0
   -1.1321   -0.2823    0.0268 C   0  0  0  0  0  0  0  0  0  0  0  0
    0.1128    0.5986   -0.0230 C   0  0  0  0  0  0  0  0  0  0  0  0
    0.0991    1.3678   -1.1887 O   0  0  0  0  0  1  0  0  0  0  0  0
    1.3541   -0.2393    0.0165 C   0  0  0  0  0  0  0  0  0  0  0  0
    2.0670   -0.3677    1.2019 O   0  0  0  0  0  1  0  0  0  0  0  0
    1.7362   -0.8621   -1.0098 O   0  0  0  0  0  0  0  0  0  0  0  0
   -1.1342   -0.2489    0.0569 C   0  0  0  0  0  0  0  0  0  0  0  0
    0.1469    0.4344   -0.4116 C   0  0  0  0  0  0  0  0  0  0  0  0
    0.0887    1.7967   -0.1116 O   0  0  0  0  0  1  0  0  0  0  0  0
    1.3410   -0.1755    0.2563 C   0  0  0  0  0  0  0  0  0  0  0  0
    1.6419    0.1407    1.5757 O   0  0  0  0  0  1  0  0  0  0  0  0
    2.0546   -1.0087   -0.3619 O   0  0  0  0  0  0  0  0  0  0  0  0
   -2.0427    0.3537    0.0152 H   0  0  0  0  0  0  0  0  0  0  0  0
   -1.1371   -0.8872    0.9589 H   0  0  0  0  0  0  0  0  0  0  0  0
   -1.1626   -0.9646   -0.8500 H   0  0  0  0  0  0  0  0  0  0  0  0
    0.1054    1.2831    0.8523 H   0  0  0  0  0  0  0  0  0  0  0  0
   -1.2608   -0.1301    1.1547 H   0  0  0  0  0  0  0  0  0  0  0  0
   -1.1042   -1.3318   -0.1907 H   0  0  0  0  0  0  0  0  0  0  0  0
   -2.0100    0.2046   -0.4540 H   0  0  0  0  0  0  0  0  0  0  0  0
    0.2360    0.3186   -1.5137 H   0  0  0  0  0  0  0  0  0  0  0  0
  2  3  1  0
  3  4  1  0
  3  5  1  0
  5  6  1  0
  5  7  2  0
  8  9  1  0
  9 10  1  0
  9 11  1  0
 11 12  1  0
 11 13  2  0
  2 14  1  0
  2 15  1  0
  2 16  1  0
  3 17  1  0
  8 18  1  0
  8 19  1  0
  8 20  1  0
  9 21  1  0
M  CHG  5   1   4   4  -1   6  -1  10  -1  12  -1
M  END
$$$$
