
     RDKit          3D

 51 54  0  0  0  0  0  0  0  0999 V2000
   -0.8189   -0.7062    0.7999 C   0  0  2  0  0  0  0  0  0  0  0  0
   -1.6394   -1.9546    1.1070 C   0  0  0  0  0  0  0  0  0  0  0  0
   -3.0885   -1.5988    0.7442 C   0  0  0  0  0  0  0  0  0  0  0  0
   -3.0898   -0.1447    0.1672 C   0  0  2  0  0  0  0  0  0  0  0  0
   -3.4983    0.8181    1.3186 C   0  0  0  0  0  0  0  0  0  0  0  0
   -4.1206    0.0242   -0.9655 C   0  0  0  0  0  0  0  0  0  0  0  0
   -4.3704    1.3467   -1.6380 C   0  0  0  0  0  0  0  0  0  0  0  0
   -4.7809   -0.9310   -1.3482 O   0  0  0  0  0  0  0  0  0  0  0  0
   -1.5933    0.0275   -0.3054 C   0  0  2  0  0  0  0  0  0  0  0  0
   -1.3986   -0.6395   -1.7087 C   0  0  0  0  0  0  0  0  0  0  0  0
   -1.0282    1.4657   -0.3417 C   0  0  0  0  0  0  0  0  0  0  0  0
    0.4910    1.5013   -0.6284 C   0  0  0  0  0  0  0  0  0  0  0  0
    1.3329    0.3616   -0.0358 C   0  0  0  0  0  0  0  0  0  0  0  0
    2.6953    0.4365   -0.0549 C   0  0  0  0  0  0  0  0  0  0  0  0
    3.4265    1.6642   -0.5866 C   0  0  0  0  0  0  0  0  0  0  0  0
    4.7983    1.3123   -1.1686 C   0  0  0  0  0  0  0  0  0  0  0  0
    5.5652    0.4269   -0.2386 C   0  0  0  0  0  0  0  0  0  0  0  0
    6.8212    0.5043   -0.1844 O   0  0  0  0  0  0  0  0  0  0  0  0
    4.8607   -0.5992    0.5388 C   0  0  0  0  0  0  0  0  0  0  0  0
    3.5208   -0.6244    0.6133 C   0  0  0  0  0  0  0  0  0  0  0  0
    2.8668   -1.7701    1.3441 C   0  0  0  0  0  0  0  0  0  0  0  0
    1.4206   -1.4498    1.7057 C   0  0  0  0  0  0  0  0  0  0  0  0
    0.6708   -0.9270    0.4689 C   0  0  1  0  0  0  0  0  0  0  0  0
   -0.8385   -0.0835    1.7244 H   0  0  0  0  0  0  0  0  0  0  0  0
   -1.2897   -2.8141    0.4932 H   0  0  0  0  0  0  0  0  0  0  0  0
   -1.5579   -2.2259    2.1824 H   0  0  0  0  0  0  0  0  0  0  0  0
   -3.7493   -1.7014    1.6337 H   0  0  0  0  0  0  0  0  0  0  0  0
   -3.4358   -2.3480    0.0009 H   0  0  0  0  0  0  0  0  0  0  0  0
   -4.5505    0.6229    1.6202 H   0  0  0  0  0  0  0  0  0  0  0  0
   -2.8703    0.6801    2.2219 H   0  0  0  0  0  0  0  0  0  0  0  0
   -3.4384    1.8827    1.0182 H   0  0  0  0  0  0  0  0  0  0  0  0
   -3.7800    2.1677   -1.1934 H   0  0  0  0  0  0  0  0  0  0  0  0
   -4.1137    1.2694   -2.7151 H   0  0  0  0  0  0  0  0  0  0  0  0
   -5.4449    1.6092   -1.5441 H   0  0  0  0  0  0  0  0  0  0  0  0
   -0.3400   -0.6671   -2.0322 H   0  0  0  0  0  0  0  0  0  0  0  0
   -1.7758   -1.6831   -1.7207 H   0  0  0  0  0  0  0  0  0  0  0  0
   -1.9407   -0.0674   -2.4896 H   0  0  0  0  0  0  0  0  0  0  0  0
   -1.5433    2.0660   -1.1183 H   0  0  0  0  0  0  0  0  0  0  0  0
   -1.1927    1.9749    0.6318 H   0  0  0  0  0  0  0  0  0  0  0  0
    0.8641    2.4736   -0.2387 H   0  0  0  0  0  0  0  0  0  0  0  0
    0.6393    1.5064   -1.7300 H   0  0  0  0  0  0  0  0  0  0  0  0
    3.5550    2.3874    0.2477 H   0  0  0  0  0  0  0  0  0  0  0  0
    2.8624    2.1697   -1.3968 H   0  0  0  0  0  0  0  0  0  0  0  0
    4.6652    0.7801   -2.1353 H   0  0  0  0  0  0  0  0  0  0  0  0
    5.3674    2.2479   -1.3604 H   0  0  0  0  0  0  0  0  0  0  0  0
    5.4490   -1.3565    1.0446 H   0  0  0  0  0  0  0  0  0  0  0  0
    2.8943   -2.6718    0.6941 H   0  0  0  0  0  0  0  0  0  0  0  0
    3.4227   -2.0004    2.2798 H   0  0  0  0  0  0  0  0  0  0  0  0
    1.4014   -0.6873    2.5164 H   0  0  0  0  0  0  0  0  0  0  0  0
    0.9411   -2.3760    2.0893 H   0  0  0  0  0  0  0  0  0  0  0  0
    0.7565   -1.6996   -0.3267 H   0  0  0  0  0  0  0  0  0  0  0  0
  1  2  1  0
  2  3  1  0
  3  4  1  0
  4  5  1  1
  4  6  1  0
  6  7  1  0
  6  8  2  0
  4  9  1  0
  9 10  1  6
  9 11  1  0
 11 12  1  0
 12 13  1  0
 13 14  2  0
 14 15  1  0
 15 16  1  0
 16 17  1  0
 17 18  2  0
 17 19  1  0
 19 20  2  0
 20 21  1  0
 21 22  1  0
 22 23  1  0
  9  1  1  0
 23 13  1  0
 23  1  1  0
 20 14  1  0
  1 24  1  1
  2 25  1  0
  2 26  1  0
  3 27  1  0
  3 28  1  0
  5 29  1  0
  5 30  1  0
  5 31  1  0
  7 32  1  0
  7 33  1  0
  7 34  1  0
 10 35  1  0
 10 36  1  0
 10 37  1  0
 11 38  1  0
 11 39  1  0
 12 40  1  0
 12 41  1  0
 15 42  1  0
 15 43  1  0
 16 44  1  0
 16 45  1  0
 19 46  1  0
 21 47  1  0
 21 48  1  0
 22 49  1  0
 22 50  1  0
 23 51  1  6
M  END
$$$$
