
     RDKit          3D

124126  0  0  0  0  0  0  0  0999 V2000
    5.2032    0.8363   -2.0881 C   0  0  1  0  0  0  0  0  0  0  0  0
    6.3999    1.8010   -2.1694 C   0  0  0  0  0  0  0  0  0  0  0  0
    7.2297    1.8023   -0.8710 C   0  0  1  0  0  0  0  0  0  0  0  0
    8.5190    2.6189   -1.0996 C   0  0  0  0  0  0  0  0  0  0  0  0
    6.4614    2.4097    0.1447 O   0  0  0  0  0  0  0  0  0  0  0  0
    7.5703    0.3358   -0.4982 C   0  0  1  0  0  0  0  0  0  0  0  0
    8.2056    0.3089    0.7866 O   0  0  0  0  0  0  0  0  0  0  0  0
    9.3394   -0.4385    1.1437 C   0  0  0  0  0  0  0  0  0  0  0  0
    9.7419   -0.3746    2.3351 O   0  0  0  0  0  0  0  0  0  0  0  0
   10.1297   -1.2663    0.1661 C   0  0  0  0  0  0  0  0  0  0  0  0
   11.1432   -0.4056   -0.5799 C   0  0  0  0  0  0  0  0  0  0  0  0
    6.2668   -0.4982   -0.4677 C   0  0  2  0  0  0  0  0  0  0  0  0
    6.5387   -1.9601   -0.1122 C   0  0  0  0  0  0  0  0  0  0  0  0
    5.6215   -0.4722   -1.7324 O   0  0  0  0  0  0  0  0  0  0  0  0
    4.2319    1.3344   -1.1774 O   0  0  0  0  0  0  0  0  0  0  0  0
    2.9127    0.9047   -1.4911 C   0  0  2  0  0  0  0  0  0  0  0  0
    1.9615    2.1045   -1.2549 C   0  0  1  0  0  0  0  0  0  0  0  0
    1.9729    3.0682   -2.4435 C   0  0  0  0  0  0  0  0  0  0  0  0
    0.6474    1.6311   -1.0631 O   0  0  0  0  0  0  0  0  0  0  0  0
    0.5041    1.0513    0.2247 C   0  0  1  0  0  0  0  0  0  0  0  0
   -0.6748    0.2647    0.2209 O   0  0  0  0  0  0  0  0  0  0  0  0
   -1.8492    1.0401    0.4444 C   0  0  1  0  0  0  0  0  0  0  0  0
   -2.8400    0.8886   -0.7824 C   0  0  1  0  0  0  0  0  0  0  0  0
   -2.8212   -0.5320   -1.4230 C   0  0  0  0  0  0  0  0  0  0  0  0
   -1.6297   -0.7610   -2.3082 C   0  0  0  0  0  0  0  0  0  0  0  0
   -1.4223   -0.0426   -3.2731 O   0  0  0  0  0  0  0  0  0  0  0  0
   -4.3048    1.3424   -0.5038 C   0  0  0  0  0  0  0  0  0  0  0  0
   -5.0334    2.1359   -1.6337 C   0  0  1  0  0  0  0  0  0  0  0  0
   -4.9442    1.4657   -3.0196 C   0  0  0  0  0  0  0  0  0  0  0  0
   -6.5235    2.4040   -1.2344 C   0  0  1  0  0  0  0  0  0  0  0  0
   -7.2101    3.0681   -2.2629 O   0  0  0  0  0  0  0  0  0  0  0  0
   -7.2450    1.1108   -0.9221 C   0  0  0  0  0  0  0  0  0  0  0  0
   -7.4920    0.7501    0.3450 C   0  0  0  0  0  0  0  0  0  0  0  0
   -7.6655   -0.6516    0.7852 C   0  0  0  0  0  0  0  0  0  0  0  0
   -7.1141   -1.6935    0.1437 C   0  0  0  0  0  0  0  0  0  0  0  0
   -7.0812   -3.0765    0.7490 C   0  0  0  0  0  0  0  0  0  0  0  0
   -5.6526   -3.6639    0.7941 C   0  0  1  0  0  0  0  0  0  0  0  0
   -5.1743   -4.0901   -0.6009 C   0  0  0  0  0  0  0  0  0  0  0  0
   -4.7582   -2.6979    1.3477 O   0  0  0  0  0  0  0  0  0  0  0  0
   -3.4371   -2.9581    1.7435 C   0  0  0  0  0  0  0  0  0  0  0  0
   -3.0195   -4.1437    1.8383 O   0  0  0  0  0  0  0  0  0  0  0  0
   -2.4880   -1.8152    2.0079 C   0  0  0  0  0  0  0  0  0  0  0  0
   -3.2367   -0.4721    2.1429 C   0  0  1  0  0  0  0  0  0  0  0  0
   -3.8079   -0.4423    3.4551 O   0  0  0  0  0  0  0  0  0  0  0  0
   -5.0060    0.2054    3.7765 C   0  0  0  0  0  0  0  0  0  0  0  0
   -5.6081    0.9131    2.9254 O   0  0  0  0  0  0  0  0  0  0  0  0
   -5.6105   -0.0022    5.1263 C   0  0  0  0  0  0  0  0  0  0  0  0
   -6.5091   -1.2334    5.1181 C   0  0  0  0  0  0  0  0  0  0  0  0
   -2.3368    0.7731    1.9187 C   0  0  2  0  0  0  0  0  0  0  0  0
   -3.0226    1.9242    2.3940 O   0  0  0  0  0  0  0  0  0  0  0  0
   -2.1938    2.7119    3.2213 C   0  0  0  0  0  0  0  0  0  0  0  0
    1.7159    0.1547    0.6365 C   0  0  2  0  0  0  0  0  0  0  0  0
    2.5929    0.8910    1.4563 O   0  0  0  0  0  0  0  0  0  0  0  0
    2.5195   -0.3387   -0.6081 C   0  0  1  0  0  0  0  0  0  0  0  0
    1.8109   -1.3826   -1.4196 N   0  0  0  0  0  0  0  0  0  0  0  0
    2.7510   -2.0509   -2.3502 C   0  0  0  0  0  0  0  0  0  0  0  0
    1.2140   -2.4483   -0.5844 C   0  0  0  0  0  0  0  0  0  0  0  0
    4.8104    0.7958   -3.1294 H   0  0  0  0  0  0  0  0  0  0  0  0
    6.0316    2.8280   -2.3880 H   0  0  0  0  0  0  0  0  0  0  0  0
    7.0419    1.4864   -3.0230 H   0  0  0  0  0  0  0  0  0  0  0  0
    8.2659    3.6738   -1.3396 H   0  0  0  0  0  0  0  0  0  0  0  0
    9.1103    2.1987   -1.9411 H   0  0  0  0  0  0  0  0  0  0  0  0
    9.1550    2.6133   -0.1887 H   0  0  0  0  0  0  0  0  0  0  0  0
    7.0261    2.4953    0.9566 H   0  0  0  0  0  0  0  0  0  0  0  0
    8.2363   -0.0701   -1.2886 H   0  0  0  0  0  0  0  0  0  0  0  0
    9.4651   -1.7827   -0.5534 H   0  0  0  0  0  0  0  0  0  0  0  0
   10.6773   -2.0605    0.7187 H   0  0  0  0  0  0  0  0  0  0  0  0
   11.7279   -1.0414   -1.2774 H   0  0  0  0  0  0  0  0  0  0  0  0
   11.8442    0.0725    0.1374 H   0  0  0  0  0  0  0  0  0  0  0  0
   10.6305    0.3830   -1.1674 H   0  0  0  0  0  0  0  0  0  0  0  0
    5.5983   -0.0976    0.3275 H   0  0  0  0  0  0  0  0  0  0  0  0
    7.1927   -2.4307   -0.8759 H   0  0  0  0  0  0  0  0  0  0  0  0
    5.5795   -2.5194   -0.0830 H   0  0  0  0  0  0  0  0  0  0  0  0
    7.0125   -2.0440    0.8879 H   0  0  0  0  0  0  0  0  0  0  0  0
    2.7796    0.6534   -2.5632 H   0  0  0  0  0  0  0  0  0  0  0  0
    2.3001    2.6975   -0.3712 H   0  0  0  0  0  0  0  0  0  0  0  0
    3.0051    3.4333   -2.6329 H   0  0  0  0  0  0  0  0  0  0  0  0
    1.5900    2.5667   -3.3581 H   0  0  0  0  0  0  0  0  0  0  0  0
    1.3238    3.9421   -2.2231 H   0  0  0  0  0  0  0  0  0  0  0  0
    0.4332    1.8665    0.9859 H   0  0  0  0  0  0  0  0  0  0  0  0
   -1.6249    2.1356    0.4253 H   0  0  0  0  0  0  0  0  0  0  0  0
   -2.4477    1.5935   -1.5496 H   0  0  0  0  0  0  0  0  0  0  0  0
   -2.8609   -1.3146   -0.6486 H   0  0  0  0  0  0  0  0  0  0  0  0
   -3.7185   -0.7052   -2.0459 H   0  0  0  0  0  0  0  0  0  0  0  0
   -0.9629   -1.5894   -2.1100 H   0  0  0  0  0  0  0  0  0  0  0  0
   -4.8999    0.4386   -0.2879 H   0  0  0  0  0  0  0  0  0  0  0  0
   -4.3403    1.9862    0.3946 H   0  0  0  0  0  0  0  0  0  0  0  0
   -4.5276    3.1232   -1.7208 H   0  0  0  0  0  0  0  0  0  0  0  0
   -5.4562    2.0872   -3.7835 H   0  0  0  0  0  0  0  0  0  0  0  0
   -3.8903    1.3720   -3.3492 H   0  0  0  0  0  0  0  0  0  0  0  0
   -5.4175    0.4630   -3.0151 H   0  0  0  0  0  0  0  0  0  0  0  0
   -6.5273    3.0578   -0.3298 H   0  0  0  0  0  0  0  0  0  0  0  0
   -6.8456    3.9910   -2.3015 H   0  0  0  0  0  0  0  0  0  0  0  0
   -7.3648    0.3914   -1.7211 H   0  0  0  0  0  0  0  0  0  0  0  0
   -7.4346    1.4971    1.1262 H   0  0  0  0  0  0  0  0  0  0  0  0
   -8.1012   -0.8056    1.7647 H   0  0  0  0  0  0  0  0  0  0  0  0
   -6.6300   -1.5499   -0.8124 H   0  0  0  0  0  0  0  0  0  0  0  0
   -7.7487   -3.7425    0.1613 H   0  0  0  0  0  0  0  0  0  0  0  0
   -7.4792   -3.0539    1.7876 H   0  0  0  0  0  0  0  0  0  0  0  0
   -5.6738   -4.5634    1.4487 H   0  0  0  0  0  0  0  0  0  0  0  0
   -4.2072   -4.6290   -0.5234 H   0  0  0  0  0  0  0  0  0  0  0  0
   -5.9112   -4.7750   -1.0715 H   0  0  0  0  0  0  0  0  0  0  0  0
   -5.0262   -3.2061   -1.2556 H   0  0  0  0  0  0  0  0  0  0  0  0
   -1.7433   -1.7856    1.1926 H   0  0  0  0  0  0  0  0  0  0  0  0
   -1.9231   -2.0186    2.9437 H   0  0  0  0  0  0  0  0  0  0  0  0
   -4.0507   -0.4460    1.4109 H   0  0  0  0  0  0  0  0  0  0  0  0
   -4.8017   -0.1392    5.8756 H   0  0  0  0  0  0  0  0  0  0  0  0
   -6.2058    0.8909    5.4151 H   0  0  0  0  0  0  0  0  0  0  0  0
   -7.3362   -1.1024    4.3876 H   0  0  0  0  0  0  0  0  0  0  0  0
   -6.9461   -1.3817    6.1279 H   0  0  0  0  0  0  0  0  0  0  0  0
   -5.9225   -2.1377    4.8471 H   0  0  0  0  0  0  0  0  0  0  0  0
   -1.4194    0.5690    2.5273 H   0  0  0  0  0  0  0  0  0  0  0  0
   -2.7407    3.6381    3.4916 H   0  0  0  0  0  0  0  0  0  0  0  0
   -1.2597    3.0096    2.6956 H   0  0  0  0  0  0  0  0  0  0  0  0
   -1.9544    2.1714    4.1633 H   0  0  0  0  0  0  0  0  0  0  0  0
    1.3579   -0.7028    1.2465 H   0  0  0  0  0  0  0  0  0  0  0  0
    2.1679    0.9653    2.3512 H   0  0  0  0  0  0  0  0  0  0  0  0
    3.4460   -0.7987   -0.2015 H   0  0  0  0  0  0  0  0  0  0  0  0
    3.2283   -1.3461   -3.0545 H   0  0  0  0  0  0  0  0  0  0  0  0
    2.2070   -2.7798   -2.9896 H   0  0  0  0  0  0  0  0  0  0  0  0
    3.5527   -2.5893   -1.7968 H   0  0  0  0  0  0  0  0  0  0  0  0
    0.2945   -2.0862   -0.0883 H   0  0  0  0  0  0  0  0  0  0  0  0
    0.8785   -3.3094   -1.2039 H   0  0  0  0  0  0  0  0  0  0  0  0
    1.9371   -2.8208    0.1752 H   0  0  0  0  0  0  0  0  0  0  0  0
  1  2  1  0
  2  3  1  0
  3  4  1  0
  3  5  1  1
  3  6  1  0
  6  7  1  0
  7  8  1  0
  8  9  2  0
  8 10  1  0
 10 11  1  0
  6 12  1  0
 12 13  1  0
 12 14  1  0
  1 15  1  0
 15 16  1  0
 16 17  1  0
 17 18  1  0
 17 19  1  0
 19 20  1  0
 20 21  1  0
 21 22  1  0
 22 23  1  0
 23 24  1  0
 24 25  1  0
 25 26  2  0
 23 27  1  0
 27 28  1  0
 28 29  1  0
 28 30  1  0
 30 31  1  0
 30 32  1  0
 32 33  2  0
 33 34  1  0
 34 35  2  0
 35 36  1  0
 36 37  1  0
 37 38  1  0
 37 39  1  0
 39 40  1  0
 40 41  2  0
 40 42  1  0
 42 43  1  0
 43 44  1  0
 44 45  1  0
 45 46  2  0
 45 47  1  0
 47 48  1  0
 43 49  1  0
 49 50  1  0
 50 51  1  0
 20 52  1  0
 52 53  1  0
 52 54  1  0
 54 55  1  0
 55 56  1  0
 55 57  1  0
 14  1  1  0
 54 16  1  0
 49 22  1  0
  1 58  1  6
  2 59  1  0
  2 60  1  0
  4 61  1  0
  4 62  1  0
  4 63  1  0
  5 64  1  0
  6 65  1  6
 10 66  1  0
 10 67  1  0
 11 68  1  0
 11 69  1  0
 11 70  1  0
 12 71  1  1
 13 72  1  0
 13 73  1  0
 13 74  1  0
 16 75  1  6
 17 76  1  1
 18 77  1  0
 18 78  1  0
 18 79  1  0
 20 80  1  1
 22 81  1  1
 23 82  1  6
 24 83  1  0
 24 84  1  0
 25 85  1  0
 27 86  1  0
 27 87  1  0
 28 88  1  6
 29 89  1  0
 29 90  1  0
 29 91  1  0
 30 92  1  1
 31 93  1  0
 32 94  1  0
 33 95  1  0
 34 96  1  0
 35 97  1  0
 36 98  1  0
 36 99  1  0
 37100  1  1
 38101  1  0
 38102  1  0
 38103  1  0
 42104  1  0
 42105  1  0
 43106  1  6
 47107  1  0
 47108  1  0
 48109  1  0
 48110  1  0
 48111  1  0
 49112  1  1
 51113  1  0
 51114  1  0
 51115  1  0
 52116  1  1
 53117  1  0
 54118  1  1
 56119  1  0
 56120  1  0
 56121  1  0
 57122  1  0
 57123  1  0
 57124  1  0
M  END
$$$$
