
     RDKit          2D

133132  0  0  0  0  0  0  0  0999 V2000
   23.3827   10.5000    0.0000 C   0  0  0  0  0  0  0  0  0  0  0  0
   22.0836    9.7500    0.0000 C   0  0  0  0  0  0  0  0  0  0  0  0
   20.7846    9.0000    0.0000 C   0  0  0  0  0  0  0  0  0  0  0  0
   19.4856    8.2500    0.0000 C   0  0  0  0  0  0  0  0  0  0  0  0
   18.1865    7.5000    0.0000 C   0  0  0  0  0  0  0  0  0  0  0  0
   16.8875    6.7500    0.0000 C   0  0  0  0  0  0  0  0  0  0  0  0
   15.5885    6.0000    0.0000 C   0  0  0  0  0  0  0  0  0  0  0  0
   14.2894    5.2500    0.0000 C   0  0  0  0  0  0  0  0  0  0  0  0
   12.9904    4.5000    0.0000 C   0  0  0  0  0  0  0  0  0  0  0  0
   11.6913    3.7500    0.0000 C   0  0  0  0  0  0  0  0  0  0  0  0
   10.3923    3.0000    0.0000 C   0  0  0  0  0  0  0  0  0  0  0  0
    9.0933    2.2500    0.0000 C   0  0  0  0  0  0  0  0  0  0  0  0
    7.7942    1.5000    0.0000 C   0  0  0  0  0  0  0  0  0  0  0  0
    6.4952    0.7500    0.0000 C   0  0  0  0  0  0  0  0  0  0  0  0
    5.1962    0.0000    0.0000 C   0  0  0  0  0  0  0  0  0  0  0  0
    3.8971   -0.7500    0.0000 C   0  0  0  0  0  0  0  0  0  0  0  0
    2.5981   -1.5000    0.0000 C   0  0  0  0  0  0  0  0  0  0  0  0
    1.2990   -2.2500    0.0000 C   0  0  0  0  0  0  0  0  0  0  0  0
    1.2990   -3.7500    0.0000 O   0  0  0  0  0  0  0  0  0  0  0  0
   -0.0000   -1.5000    0.0000 O   0  0  0  0  0  0  0  0  0  0  0  0
   -1.2990   -2.2500    0.0000 C   0  0  0  0  0  0  0  0  0  0  0  0
   -2.5981   -3.0000    0.0000 C   0  0  0  0  0  0  0  0  0  0  0  0
   -3.8971   -3.7500    0.0000 C   0  0  0  0  0  0  0  0  0  0  0  0
   -5.1962   -4.5000    0.0000 O   0  0  0  0  0  0  0  0  0  0  0  0
   -6.4952   -3.7500    0.0000 P   0  0  0  0  0  5  0  0  0  0  0  0
   -5.7452   -2.4510    0.0000 O   0  0  0  0  0  0  0  0  0  0  0  0
   -7.7942   -3.0000    0.0000 O   0  0  0  0  0  0  0  0  0  0  0  0
   -7.2452   -5.0490    0.0000 O   0  0  0  0  0  0  0  0  0  0  0  0
   -8.7452   -5.0490    0.0000 C   0  0  0  0  0  0  0  0  0  0  0  0
  -10.2452   -5.0490    0.0000 C   0  0  0  0  0  0  0  0  0  0  0  0
  -11.7452   -5.0490    0.0000 N   0  0  0  0  0  0  0  0  0  0  0  0
   -3.3481   -1.7010    0.0000 O   0  0  0  0  0  0  0  0  0  0  0  0
   -2.5981   -0.4019    0.0000 C   0  0  0  0  0  0  0  0  0  0  0  0
   -1.7123   -0.4019    0.0000 O   0  0  0  0  0  0  0  0  0  0  0  0
   -3.3481    0.8971    0.0000 C   0  0  0  0  0  0  0  0  0  0  0  0
   -4.0981    2.1962    0.0000 C   0  0  0  0  0  0  0  0  0  0  0  0
   -4.8481    3.4952    0.0000 C   0  0  0  0  0  0  0  0  0  0  0  0
   -5.5981    4.7942    0.0000 C   0  0  0  0  0  0  0  0  0  0  0  0
   -6.3481    6.0933    0.0000 C   0  0  0  0  0  0  0  0  0  0  0  0
   -7.0981    7.3923    0.0000 C   0  0  0  0  0  0  0  0  0  0  0  0
   -7.8481    8.6913    0.0000 C   0  0  0  0  0  0  0  0  0  0  0  0
   -8.5981    9.9904    0.0000 C   0  0  0  0  0  0  0  0  0  0  0  0
   -9.3481   11.2894    0.0000 C   0  0  0  0  0  0  0  0  0  0  0  0
  -10.0981   12.5885    0.0000 C   0  0  0  0  0  0  0  0  0  0  0  0
  -10.8481   13.8875    0.0000 C   0  0  0  0  0  0  0  0  0  0  0  0
  -11.5981   15.1865    0.0000 C   0  0  0  0  0  0  0  0  0  0  0  0
  -12.3481   16.4856    0.0000 C   0  0  0  0  0  0  0  0  0  0  0  0
  -13.0981   17.7846    0.0000 C   0  0  0  0  0  0  0  0  0  0  0  0
  -13.8481   19.0836    0.0000 C   0  0  0  0  0  0  0  0  0  0  0  0
  -14.5981   20.3827    0.0000 C   0  0  0  0  0  0  0  0  0  0  0  0
  -15.3481   21.6817    0.0000 C   0  0  0  0  0  0  0  0  0  0  0  0
   24.6817   11.2500    0.0000 H   0  0  0  0  0  0  0  0  0  0  0  0
   22.6327   11.7990    0.0000 H   0  0  0  0  0  0  0  0  0  0  0  0
   24.1327    9.2010    0.0000 H   0  0  0  0  0  0  0  0  0  0  0  0
   21.3336   11.0490    0.0000 H   0  0  0  0  0  0  0  0  0  0  0  0
   22.8336    8.4510    0.0000 H   0  0  0  0  0  0  0  0  0  0  0  0
   21.5346    7.7010    0.0000 H   0  0  0  0  0  0  0  0  0  0  0  0
   20.0346   10.2990    0.0000 H   0  0  0  0  0  0  0  0  0  0  0  0
   18.7356    9.5490    0.0000 H   0  0  0  0  0  0  0  0  0  0  0  0
   20.2356    6.9510    0.0000 H   0  0  0  0  0  0  0  0  0  0  0  0
   18.9365    6.2010    0.0000 H   0  0  0  0  0  0  0  0  0  0  0  0
   17.4365    8.7990    0.0000 H   0  0  0  0  0  0  0  0  0  0  0  0
   16.1375    8.0490    0.0000 H   0  0  0  0  0  0  0  0  0  0  0  0
   17.6375    5.4510    0.0000 H   0  0  0  0  0  0  0  0  0  0  0  0
   16.3385    4.7010    0.0000 H   0  0  0  0  0  0  0  0  0  0  0  0
   14.8385    7.2990    0.0000 H   0  0  0  0  0  0  0  0  0  0  0  0
   13.5394    6.5490    0.0000 H   0  0  0  0  0  0  0  0  0  0  0  0
   15.0394    3.9510    0.0000 H   0  0  0  0  0  0  0  0  0  0  0  0
   13.7404    3.2010    0.0000 H   0  0  0  0  0  0  0  0  0  0  0  0
   12.2404    5.7990    0.0000 H   0  0  0  0  0  0  0  0  0  0  0  0
   10.9413    5.0490    0.0000 H   0  0  0  0  0  0  0  0  0  0  0  0
   12.4413    2.4510    0.0000 H   0  0  0  0  0  0  0  0  0  0  0  0
   11.1423    1.7010    0.0000 H   0  0  0  0  0  0  0  0  0  0  0  0
    9.6423    4.2990    0.0000 H   0  0  0  0  0  0  0  0  0  0  0  0
    8.3433    3.5490    0.0000 H   0  0  0  0  0  0  0  0  0  0  0  0
    9.8433    0.9510    0.0000 H   0  0  0  0  0  0  0  0  0  0  0  0
    8.5442    0.2010    0.0000 H   0  0  0  0  0  0  0  0  0  0  0  0
    7.0442    2.7990    0.0000 H   0  0  0  0  0  0  0  0  0  0  0  0
    5.7452    2.0490    0.0000 H   0  0  0  0  0  0  0  0  0  0  0  0
    7.2452   -0.5490    0.0000 H   0  0  0  0  0  0  0  0  0  0  0  0
    5.9462   -1.2990    0.0000 H   0  0  0  0  0  0  0  0  0  0  0  0
    4.4462    1.2990    0.0000 H   0  0  0  0  0  0  0  0  0  0  0  0
    3.1471    0.5490    0.0000 H   0  0  0  0  0  0  0  0  0  0  0  0
    4.6471   -2.0490    0.0000 H   0  0  0  0  0  0  0  0  0  0  0  0
    1.8481   -0.2010    0.0000 H   0  0  0  0  0  0  0  0  0  0  0  0
    3.3481   -2.7990    0.0000 H   0  0  0  0  0  0  0  0  0  0  0  0
   -0.5490   -3.5490    0.0000 H   0  0  0  0  0  0  0  0  0  0  0  0
   -1.5431   -1.3986    0.0000 H   0  0  0  0  0  0  0  0  0  0  0  0
   -1.8481   -4.2990    0.0000 H   0  0  0  0  0  0  0  0  0  0  0  0
   -3.1471   -5.0490    0.0000 H   0  0  0  0  0  0  0  0  0  0  0  0
   -4.6471   -2.4510    0.0000 H   0  0  0  0  0  0  0  0  0  0  0  0
   -6.4952   -1.1519    0.0000 H   0  0  0  0  0  0  0  0  0  0  0  0
   -8.7452   -3.5490    0.0000 H   0  0  0  0  0  0  0  0  0  0  0  0
   -8.7452   -6.5490    0.0000 H   0  0  0  0  0  0  0  0  0  0  0  0
  -10.2452   -3.5490    0.0000 H   0  0  0  0  0  0  0  0  0  0  0  0
  -10.2452   -6.5490    0.0000 H   0  0  0  0  0  0  0  0  0  0  0  0
  -12.4952   -6.3481    0.0000 H   0  0  0  0  0  0  0  0  0  0  0  0
  -12.4952   -3.7500    0.0000 H   0  0  0  0  0  0  0  0  0  0  0  0
   -2.0490    1.6471    0.0000 H   0  0  0  0  0  0  0  0  0  0  0  0
   -4.6471    0.1471    0.0000 H   0  0  0  0  0  0  0  0  0  0  0  0
   -5.3971    1.4462    0.0000 H   0  0  0  0  0  0  0  0  0  0  0  0
   -2.7990    2.9462    0.0000 H   0  0  0  0  0  0  0  0  0  0  0  0
   -3.5490    4.2452    0.0000 H   0  0  0  0  0  0  0  0  0  0  0  0
   -6.1471    2.7452    0.0000 H   0  0  0  0  0  0  0  0  0  0  0  0
   -6.8971    4.0442    0.0000 H   0  0  0  0  0  0  0  0  0  0  0  0
   -4.2990    5.5442    0.0000 H   0  0  0  0  0  0  0  0  0  0  0  0
   -5.0490    6.8433    0.0000 H   0  0  0  0  0  0  0  0  0  0  0  0
   -7.6471    5.3433    0.0000 H   0  0  0  0  0  0  0  0  0  0  0  0
   -8.3971    6.6423    0.0000 H   0  0  0  0  0  0  0  0  0  0  0  0
   -5.7990    8.1423    0.0000 H   0  0  0  0  0  0  0  0  0  0  0  0
   -6.5490    9.4413    0.0000 H   0  0  0  0  0  0  0  0  0  0  0  0
   -9.1471    7.9413    0.0000 H   0  0  0  0  0  0  0  0  0  0  0  0
   -9.8971    9.2404    0.0000 H   0  0  0  0  0  0  0  0  0  0  0  0
   -7.2990   10.7404    0.0000 H   0  0  0  0  0  0  0  0  0  0  0  0
   -8.0490   12.0394    0.0000 H   0  0  0  0  0  0  0  0  0  0  0  0
  -10.6471   10.5394    0.0000 H   0  0  0  0  0  0  0  0  0  0  0  0
  -11.3971   11.8385    0.0000 H   0  0  0  0  0  0  0  0  0  0  0  0
   -8.7990   13.3385    0.0000 H   0  0  0  0  0  0  0  0  0  0  0  0
   -9.5490   14.6375    0.0000 H   0  0  0  0  0  0  0  0  0  0  0  0
  -12.1471   13.1375    0.0000 H   0  0  0  0  0  0  0  0  0  0  0  0
  -12.8971   14.4365    0.0000 H   0  0  0  0  0  0  0  0  0  0  0  0
  -10.2990   15.9365    0.0000 H   0  0  0  0  0  0  0  0  0  0  0  0
  -11.0490   17.2356    0.0000 H   0  0  0  0  0  0  0  0  0  0  0  0
  -13.6471   15.7356    0.0000 H   0  0  0  0  0  0  0  0  0  0  0  0
  -14.3971   17.0346    0.0000 H   0  0  0  0  0  0  0  0  0  0  0  0
  -11.7990   18.5346    0.0000 H   0  0  0  0  0  0  0  0  0  0  0  0
  -12.5490   19.8336    0.0000 H   0  0  0  0  0  0  0  0  0  0  0  0
  -15.1471   18.3336    0.0000 H   0  0  0  0  0  0  0  0  0  0  0  0
  -15.8971   19.6327    0.0000 H   0  0  0  0  0  0  0  0  0  0  0  0
  -13.2990   21.1327    0.0000 H   0  0  0  0  0  0  0  0  0  0  0  0
  -16.0981   22.9808    0.0000 H   0  0  0  0  0  0  0  0  0  0  0  0
  -14.0490   22.4317    0.0000 H   0  0  0  0  0  0  0  0  0  0  0  0
  -16.6471   20.9317    0.0000 H   0  0  0  0  0  0  0  0  0  0  0  0
  1  2  1  0
  2  3  1  0
  3  4  1  0
  4  5  1  0
  5  6  1  0
  6  7  1  0
  7  8  1  0
  8  9  1  0
  9 10  1  0
 10 11  1  0
 11 12  1  0
 12 13  1  0
 13 14  1  0
 14 15  1  0
 15 16  1  0
 16 17  1  0
 17 18  1  0
 18 19  2  0
 18 20  1  0
 20 21  1  0
 21 22  1  0
 22 23  1  0
 23 24  1  0
 25 24  1  1
 25 26  1  0
 25 27  2  0
 25 28  1  0
 28 29  1  0
 29 30  1  0
 30 31  1  0
 22 32  1  0
 32 33  1  0
 33 34  2  0
 33 35  1  0
 35 36  1  0
 36 37  1  0
 37 38  1  0
 38 39  1  0
 39 40  1  0
 40 41  1  0
 41 42  1  0
 42 43  1  0
 43 44  1  0
 44 45  1  0
 45 46  1  0
 46 47  1  0
 47 48  1  0
 48 49  1  0
 49 50  1  0
 50 51  1  0
  1 52  1  0
  1 53  1  0
  1 54  1  0
  2 55  1  0
  2 56  1  0
  3 57  1  0
  3 58  1  0
  4 59  1  0
  4 60  1  0
  5 61  1  0
  5 62  1  0
  6 63  1  0
  6 64  1  0
  7 65  1  0
  7 66  1  0
  8 67  1  0
  8 68  1  0
  9 69  1  0
  9 70  1  0
 10 71  1  0
 10 72  1  0
 11 73  1  0
 11 74  1  0
 12 75  1  0
 12 76  1  0
 13 77  1  0
 13 78  1  0
 14 79  1  0
 14 80  1  0
 15 81  1  0
 15 82  1  0
 16 83  1  0
 16 84  1  0
 17 85  1  0
 17 86  1  0
 21 87  1  0
 21 88  1  0
 22 89  1  6
 23 90  1  0
 23 91  1  0
 26 92  1  0
 29 93  1  0
 29 94  1  0
 30 95  1  0
 30 96  1  0
 31 97  1  0
 31 98  1  0
 35 99  1  0
 35100  1  0
 36101  1  0
 36102  1  0
 37103  1  0
 37104  1  0
 38105  1  0
 38106  1  0
 39107  1  0
 39108  1  0
 40109  1  0
 40110  1  0
 41111  1  0
 41112  1  0
 42113  1  0
 42114  1  0
 43115  1  0
 43116  1  0
 44117  1  0
 44118  1  0
 45119  1  0
 45120  1  0
 46121  1  0
 46122  1  0
 47123  1  0
 47124  1  0
 48125  1  0
 48126  1  0
 49127  1  0
 49128  1  0
 50129  1  0
 50130  1  0
 51131  1  0
 51132  1  0
 51133  1  0
M  END
$$$$
