
     RDKit          3D

 27 28  0  0  0  0  0  0  0  0999 V2000
    4.7761    0.1359   -0.8204 C   0  0  0  0  0  0  0  0  0  0  0  0
    4.1542   -0.6036    0.3585 C   0  0  0  0  0  0  0  0  0  0  0  0
    2.7315   -0.5119    0.3161 O   0  0  0  0  0  0  0  0  0  0  0  0
    2.0188    0.6410    0.6719 C   0  0  0  0  0  0  0  0  0  0  0  0
    2.6360    1.6513    1.1084 O   0  0  0  0  0  0  0  0  0  0  0  0
    0.5394    0.6603    0.5383 C   0  0  0  0  0  0  0  0  0  0  0  0
   -0.1283   -0.4729    0.0480 C   0  0  0  0  0  0  0  0  0  0  0  0
   -1.5191   -0.4627   -0.0816 C   0  0  0  0  0  0  0  0  0  0  0  0
   -2.2192   -1.5766   -0.5678 C   0  0  0  0  0  0  0  0  0  0  0  0
   -3.6121   -1.5292   -0.6836 C   0  0  0  0  0  0  0  0  0  0  0  0
   -4.3128   -0.3743   -0.3164 C   0  0  0  0  0  0  0  0  0  0  0  0
   -5.7001   -0.3452   -0.4386 O   0  0  0  0  0  0  0  0  0  0  0  0
   -3.6152    0.7411    0.1700 C   0  0  0  0  0  0  0  0  0  0  0  0
   -2.2215    0.7012    0.2887 C   0  0  0  0  0  0  0  0  0  0  0  0
   -1.5647    1.7598    0.7497 O   0  0  0  0  0  0  0  0  0  0  0  0
   -0.2417    1.7870    0.8867 C   0  0  0  0  0  0  0  0  0  0  0  0
    0.2976    2.8346    1.3322 O   0  0  0  0  0  0  0  0  0  0  0  0
    5.8787    0.0062   -0.8026 H   0  0  0  0  0  0  0  0  0  0  0  0
    4.5440    1.2198   -0.7643 H   0  0  0  0  0  0  0  0  0  0  0  0
    4.3808   -0.2725   -1.7745 H   0  0  0  0  0  0  0  0  0  0  0  0
    4.5410   -0.1967    1.3181 H   0  0  0  0  0  0  0  0  0  0  0  0
    4.4409   -1.6746    0.2984 H   0  0  0  0  0  0  0  0  0  0  0  0
    0.4280   -1.3597   -0.2326 H   0  0  0  0  0  0  0  0  0  0  0  0
   -1.6923   -2.4783   -0.8563 H   0  0  0  0  0  0  0  0  0  0  0  0
   -4.1486   -2.3912   -1.0593 H   0  0  0  0  0  0  0  0  0  0  0  0
   -6.2372    0.4749   -0.1817 H   0  0  0  0  0  0  0  0  0  0  0  0
   -4.1543    1.6361    0.4548 H   0  0  0  0  0  0  0  0  0  0  0  0
  1  2  1  0
  2  3  1  0
  3  4  1  0
  4  5  2  0
  4  6  1  0
  6  7  2  0
  7  8  1  0
  8  9  2  0
  9 10  1  0
 10 11  2  0
 11 12  1  0
 11 13  1  0
 13 14  2  0
 14 15  1  0
 15 16  1  0
 16 17  2  0
 16  6  1  0
 14  8  1  0
  1 18  1  0
  1 19  1  0
  1 20  1  0
  2 21  1  0
  2 22  1  0
  7 23  1  0
  9 24  1  0
 10 25  1  0
 12 26  1  0
 13 27  1  0
M  END
$$$$
