
     RDKit          3D

 57 60  0  0  0  0  0  0  0  0999 V2000
    9.3493    1.9828   -0.0921 O   0  0  0  0  0  0  0  0  0  0  0  0
    8.0115    2.1807   -0.4187 C   0  0  0  0  0  0  0  0  0  0  0  0
    7.4551    3.2806   -0.1566 O   0  0  0  0  0  0  0  0  0  0  0  0
    7.2279    1.0748   -1.0582 C   0  0  0  0  0  0  0  0  0  0  0  0
    6.8850   -0.0510   -0.0527 C   0  0  1  0  0  0  0  0  0  0  0  0
    5.9904    0.4465    1.1066 C   0  0  0  0  0  0  0  0  0  0  0  0
    4.5639    0.8085    0.6505 C   0  0  0  0  0  0  0  0  0  0  0  0
    4.0115   -0.1345   -0.4515 C   0  0  1  0  0  0  0  0  0  0  0  0
    4.7566   -1.4812   -0.4837 C   0  0  0  0  0  0  0  0  0  0  0  0
    6.2564   -1.2812   -0.7726 C   0  0  0  0  0  0  0  0  0  0  0  0
    2.5136   -0.3382   -0.3097 C   0  0  0  0  0  0  0  0  0  0  0  0
    1.6401    0.1338   -1.3031 C   0  0  0  0  0  0  0  0  0  0  0  0
    0.2595   -0.0473   -1.1815 C   0  0  0  0  0  0  0  0  0  0  0  0
   -0.2810   -0.6993   -0.0575 C   0  0  0  0  0  0  0  0  0  0  0  0
    0.5952   -1.1794    0.9311 C   0  0  0  0  0  0  0  0  0  0  0  0
    1.9751   -0.9973    0.8096 C   0  0  0  0  0  0  0  0  0  0  0  0
   -1.7446   -0.9090    0.0878 C   0  0  0  0  0  0  0  0  0  0  0  0
   -2.1972   -1.9863    0.7890 N   0  0  0  0  0  0  0  0  0  0  0  0
   -3.5214   -2.2360    0.9659 C   0  0  0  0  0  0  0  0  0  0  0  0
   -4.4810   -1.3649    0.4378 C   0  0  0  0  0  0  0  0  0  0  0  0
   -5.8789   -1.6561    0.6065 N   0  0  0  0  0  0  0  0  0  0  0  0
   -6.9133   -0.6601    0.6818 C   0  0  0  0  0  0  0  0  0  0  0  0
   -6.6803    0.6023    1.2522 C   0  0  0  0  0  0  0  0  0  0  0  0
   -7.6879    1.5112    1.3372 N   0  0  0  0  0  0  0  0  0  0  0  0
   -8.9447    1.2404    0.8887 C   0  0  0  0  0  0  0  0  0  0  0  0
   -9.2247   -0.0172    0.3376 C   0  0  0  0  0  0  0  0  0  0  0  0
   -8.2068   -0.9675    0.2430 C   0  0  0  0  0  0  0  0  0  0  0  0
  -10.0257    2.2743    1.0082 C   0  0  0  0  0  0  0  0  0  0  0  0
   -9.5161    3.4536    1.5229 F   0  0  0  0  0  0  0  0  0  0  0  0
  -11.0195    1.8105    1.8505 F   0  0  0  0  0  0  0  0  0  0  0  0
  -10.5676    2.5288   -0.2386 F   0  0  0  0  0  0  0  0  0  0  0  0
   -4.0439   -0.2555   -0.3012 C   0  0  0  0  0  0  0  0  0  0  0  0
   -2.6788   -0.0181   -0.4693 C   0  0  0  0  0  0  0  0  0  0  0  0
    9.8900    2.7165    0.3499 H   0  0  0  0  0  0  0  0  0  0  0  0
    7.8490    0.6577   -1.8801 H   0  0  0  0  0  0  0  0  0  0  0  0
    6.3054    1.4858   -1.5197 H   0  0  0  0  0  0  0  0  0  0  0  0
    7.8466   -0.3887    0.3965 H   0  0  0  0  0  0  0  0  0  0  0  0
    5.9260   -0.3605    1.8698 H   0  0  0  0  0  0  0  0  0  0  0  0
    6.4511    1.3193    1.6165 H   0  0  0  0  0  0  0  0  0  0  0  0
    3.9113    0.8036    1.5505 H   0  0  0  0  0  0  0  0  0  0  0  0
    4.5585    1.8517    0.2652 H   0  0  0  0  0  0  0  0  0  0  0  0
    4.2083    0.3529   -1.4330 H   0  0  0  0  0  0  0  0  0  0  0  0
    4.3204   -2.1366   -1.2696 H   0  0  0  0  0  0  0  0  0  0  0  0
    4.6424   -2.0044    0.4906 H   0  0  0  0  0  0  0  0  0  0  0  0
    6.3973   -1.2082   -1.8736 H   0  0  0  0  0  0  0  0  0  0  0  0
    6.7916   -2.2026   -0.4540 H   0  0  0  0  0  0  0  0  0  0  0  0
    2.0259    0.6387   -2.1800 H   0  0  0  0  0  0  0  0  0  0  0  0
   -0.3773    0.3038   -1.9823 H   0  0  0  0  0  0  0  0  0  0  0  0
    0.2121   -1.6850    1.8089 H   0  0  0  0  0  0  0  0  0  0  0  0
    2.6228   -1.3664    1.5945 H   0  0  0  0  0  0  0  0  0  0  0  0
   -3.8269   -3.1092    1.5274 H   0  0  0  0  0  0  0  0  0  0  0  0
   -6.1624   -2.6599    0.6795 H   0  0  0  0  0  0  0  0  0  0  0  0
   -5.7063    0.8596    1.6459 H   0  0  0  0  0  0  0  0  0  0  0  0
  -10.2209   -0.2588   -0.0122 H   0  0  0  0  0  0  0  0  0  0  0  0
   -8.4225   -1.9404   -0.1806 H   0  0  0  0  0  0  0  0  0  0  0  0
   -4.7557    0.4205   -0.7569 H   0  0  0  0  0  0  0  0  0  0  0  0
   -2.3648    0.8619   -1.0143 H   0  0  0  0  0  0  0  0  0  0  0  0
  1  2  1  0
  2  3  2  0
  2  4  1  0
  4  5  1  0
  5  6  1  0
  6  7  1  0
  7  8  1  0
  8  9  1  0
  9 10  1  0
  8 11  1  0
 11 12  2  0
 12 13  1  0
 13 14  2  0
 14 15  1  0
 15 16  2  0
 14 17  1  0
 17 18  2  0
 18 19  1  0
 19 20  2  0
 20 21  1  0
 21 22  1  0
 22 23  2  0
 23 24  1  0
 24 25  2  0
 25 26  1  0
 26 27  2  0
 25 28  1  0
 28 29  1  0
 28 30  1  0
 28 31  1  0
 20 32  1  0
 32 33  2  0
 10  5  1  0
 16 11  1  0
 33 17  1  0
 27 22  1  0
  1 34  1  0
  4 35  1  0
  4 36  1  0
  5 37  1  1
  6 38  1  0
  6 39  1  0
  7 40  1  0
  7 41  1  0
  8 42  1  6
  9 43  1  0
  9 44  1  0
 10 45  1  0
 10 46  1  0
 12 47  1  0
 13 48  1  0
 15 49  1  0
 16 50  1  0
 19 51  1  0
 21 52  1  0
 23 53  1  0
 26 54  1  0
 27 55  1  0
 32 56  1  0
 33 57  1  0
M  END
$$$$
