
     RDKit          3D

 31 33  0  0  0  0  0  0  0  0999 V2000
    4.9445    1.4440    0.2893 N   0  0  0  0  0  0  0  0  0  0  0  0
    4.0431    0.3914   -0.0537 C   0  0  0  0  0  0  0  0  0  0  0  0
    2.6678    0.5894   -0.0973 C   0  0  0  0  0  0  0  0  0  0  0  0
    1.9527    1.6976    0.1737 N   0  0  0  0  0  0  0  0  0  0  0  0
    0.6697    1.2789   -0.0095 C   0  0  0  0  0  0  0  0  0  0  0  0
    0.5762   -0.0232   -0.3877 N   0  0  0  0  0  0  0  0  0  0  0  0
   -0.6360   -0.8230   -0.5744 C   0  0  1  0  0  0  0  0  0  0  0  0
   -1.1805   -1.2933    0.7738 C   0  0  0  0  0  0  0  0  0  0  0  0
   -2.4470   -0.4991    0.9369 C   0  0  2  0  0  0  0  0  0  0  0  0
   -3.4564   -1.2560    1.5516 O   0  0  0  0  0  0  0  0  0  0  0  0
   -2.8115   -0.1767   -0.5043 C   0  0  1  0  0  0  0  0  0  0  0  0
   -3.6491    1.1005   -0.6295 C   0  0  0  0  0  0  0  0  0  0  0  0
   -2.9029    2.2189   -0.2344 O   0  0  0  0  0  0  0  0  0  0  0  0
   -1.6167   -0.0524   -1.2390 O   0  0  0  0  0  0  0  0  0  0  0  0
    1.8487   -0.4364   -0.4225 C   0  0  0  0  0  0  0  0  0  0  0  0
    2.3091   -1.6786   -0.7071 N   0  0  0  0  0  0  0  0  0  0  0  0
    3.6603   -1.8845   -0.6702 C   0  0  0  0  0  0  0  0  0  0  0  0
    4.3075   -3.4691   -1.0339 Cl  0  0  0  0  0  0  0  0  0  0  0  0
    4.5122   -0.8583   -0.3471 N   0  0  0  0  0  0  0  0  0  0  0  0
    4.5929    2.4008    0.5159 H   0  0  0  0  0  0  0  0  0  0  0  0
    5.9728    1.2656    0.3165 H   0  0  0  0  0  0  0  0  0  0  0  0
   -0.1873    1.9195    0.1493 H   0  0  0  0  0  0  0  0  0  0  0  0
   -0.3985   -1.7071   -1.2072 H   0  0  0  0  0  0  0  0  0  0  0  0
   -0.4764   -1.1050    1.6144 H   0  0  0  0  0  0  0  0  0  0  0  0
   -1.4050   -2.3826    0.7265 H   0  0  0  0  0  0  0  0  0  0  0  0
   -2.2378    0.4316    1.5155 H   0  0  0  0  0  0  0  0  0  0  0  0
   -3.2222   -1.3048    2.5151 H   0  0  0  0  0  0  0  0  0  0  0  0
   -3.3986   -1.0201   -0.9360 H   0  0  0  0  0  0  0  0  0  0  0  0
   -4.5618    1.0100    0.0015 H   0  0  0  0  0  0  0  0  0  0  0  0
   -3.9648    1.2211   -1.6899 H   0  0  0  0  0  0  0  0  0  0  0  0
   -3.5050    3.0011   -0.3360 H   0  0  0  0  0  0  0  0  0  0  0  0
  1  2  1  0
  2  3  2  0
  3  4  1  0
  4  5  2  0
  5  6  1  0
  6  7  1  0
  7  8  1  0
  8  9  1  0
  9 10  1  0
  9 11  1  0
 11 12  1  0
 12 13  1  0
 11 14  1  0
  6 15  1  0
 15 16  2  0
 16 17  1  0
 17 18  1  0
 17 19  2  0
 19  2  1  0
 15  3  1  0
 14  7  1  0
  1 20  1  0
  1 21  1  0
  5 22  1  0
  7 23  1  6
  8 24  1  0
  8 25  1  0
  9 26  1  1
 10 27  1  0
 11 28  1  6
 12 29  1  0
 12 30  1  0
 13 31  1  0
M  END
$$$$
