
     RDKit          3D

 44 45  0  0  0  0  0  0  0  0999 V2000
   -3.1513   -3.6738    0.2178 O   0  0  0  0  0  0  0  0  0  0  0  0
   -2.4784   -2.6374   -0.4526 C   0  0  1  0  0  0  0  0  0  0  0  0
   -3.3353   -1.3981   -0.4985 C   0  0  1  0  0  0  0  0  0  0  0  0
   -4.7068   -1.6959   -0.5427 O   0  0  0  0  0  0  0  0  0  0  0  0
   -2.9682   -0.6996    0.8018 C   0  0  1  0  0  0  0  0  0  0  0  0
   -1.6403   -1.0429    1.1399 O   0  0  0  0  0  0  0  0  0  0  0  0
   -1.2721   -2.1721    0.3716 C   0  0  2  0  0  0  0  0  0  0  0  0
   -0.0845   -1.8079   -0.5278 C   0  0  0  0  0  0  0  0  0  0  0  0
    0.9680   -1.3209    0.2717 O   0  0  0  0  0  0  0  0  0  0  0  0
    2.2187   -0.7752   -0.7513 P   0  0  0  0  0  5  0  0  0  0  0  0
    2.6747   -2.0190   -1.8081 O   0  0  0  0  0  0  0  0  0  0  0  0
    1.7282    0.4150   -1.5472 O   0  0  0  0  0  0  0  0  0  0  0  0
    3.5299   -0.3073    0.2289 O   0  0  0  0  0  0  0  0  0  0  0  0
    4.8547    0.0361   -0.7880 P   0  0  0  0  0  5  0  0  0  0  0  0
    5.4336   -1.4034   -1.4634 O   0  0  0  0  0  0  0  0  0  0  0  0
    4.4630    0.9771   -1.9082 O   0  0  0  0  0  0  0  0  0  0  0  0
    6.1106    0.7191    0.1374 O   0  0  0  0  0  0  0  0  0  0  0  0
    5.5985    2.2560    0.6662 P   0  0  0  0  0  5  0  0  0  0  0  0
    6.7316    2.8446    1.7758 O   0  0  0  0  0  0  0  0  0  0  0  0
    4.0922    2.1706    1.4392 O   0  0  0  0  0  0  0  0  0  0  0  0
    5.5259    3.2120   -0.5048 O   0  0  0  0  0  0  0  0  0  0  0  0
   -3.1170    0.7655    0.6740 N   0  0  0  0  0  0  0  0  0  0  0  0
   -2.1007    1.5094    0.1364 C   0  0  0  0  0  0  0  0  0  0  0  0
   -2.2330    2.8860   -0.0205 C   0  0  0  0  0  0  0  0  0  0  0  0
   -3.4247    3.4892    0.3656 C   0  0  0  0  0  0  0  0  0  0  0  0
   -3.5721    4.7337    0.2359 O   0  0  0  0  0  0  0  0  0  0  0  0
   -4.4298    2.7325    0.8777 N   0  0  0  0  0  0  0  0  0  0  0  0
   -4.2915    1.3855    1.0267 C   0  0  0  0  0  0  0  0  0  0  0  0
   -5.2571    0.7173    1.4891 O   0  0  0  0  0  0  0  0  0  0  0  0
   -2.6362   -4.5040    0.0417 H   0  0  0  0  0  0  0  0  0  0  0  0
   -2.2077   -2.9604   -1.4859 H   0  0  0  0  0  0  0  0  0  0  0  0
   -3.0422   -0.7678   -1.3716 H   0  0  0  0  0  0  0  0  0  0  0  0
   -4.8950   -2.0098   -1.4655 H   0  0  0  0  0  0  0  0  0  0  0  0
   -3.6146   -1.0840    1.6239 H   0  0  0  0  0  0  0  0  0  0  0  0
   -0.9450   -2.9811    1.0621 H   0  0  0  0  0  0  0  0  0  0  0  0
   -0.4205   -1.0410   -1.2632 H   0  0  0  0  0  0  0  0  0  0  0  0
    0.2390   -2.7242   -1.0713 H   0  0  0  0  0  0  0  0  0  0  0  0
    2.9145   -2.7760   -1.2162 H   0  0  0  0  0  0  0  0  0  0  0  0
    5.6398   -1.9804   -0.6854 H   0  0  0  0  0  0  0  0  0  0  0  0
    7.5982    2.8035    1.2981 H   0  0  0  0  0  0  0  0  0  0  0  0
    3.4286    2.4243    0.7487 H   0  0  0  0  0  0  0  0  0  0  0  0
   -1.1762    1.0430   -0.1787 H   0  0  0  0  0  0  0  0  0  0  0  0
   -1.4228    3.4701   -0.4396 H   0  0  0  0  0  0  0  0  0  0  0  0
   -5.3269    3.1919    1.1574 H   0  0  0  0  0  0  0  0  0  0  0  0
  1  2  1  0
  2  3  1  0
  3  4  1  0
  3  5  1  0
  5  6  1  0
  6  7  1  0
  7  8  1  0
  8  9  1  0
  9 10  1  0
 10 11  1  0
 10 12  2  0
 10 13  1  0
 13 14  1  0
 14 15  1  0
 14 16  2  0
 14 17  1  0
 17 18  1  0
 18 19  1  0
 18 20  1  0
 18 21  2  0
  5 22  1  0
 22 23  1  0
 23 24  2  0
 24 25  1  0
 25 26  2  0
 25 27  1  0
 27 28  1  0
 28 29  2  0
  7  2  1  0
 28 22  1  0
  1 30  1  0
  2 31  1  6
  3 32  1  6
  4 33  1  0
  5 34  1  1
  7 35  1  1
  8 36  1  0
  8 37  1  0
 11 38  1  0
 15 39  1  0
 19 40  1  0
 20 41  1  0
 23 42  1  0
 24 43  1  0
 27 44  1  0
M  END
$$$$
