
     RDKit          3D

 23 23  0  0  0  0  0  0  0  0999 V2000
   -1.7149   -0.6629   -0.0566 C   0  0  1  0  0  0  0  0  0  0  0  0
   -1.7083   -1.2101    1.2381 O   0  0  0  0  0  0  0  0  0  0  0  0
   -1.2646    0.8049    0.0048 C   0  0  1  0  0  0  0  0  0  0  0  0
   -2.0662    1.5264    0.9049 O   0  0  0  0  0  0  0  0  0  0  0  0
    0.2189    0.9180    0.4262 C   0  0  2  0  0  0  0  0  0  0  0  0
    0.7368    2.1328   -0.0588 O   0  0  0  0  0  0  0  0  0  0  0  0
    1.0487   -0.2972   -0.0976 C   0  0  2  0  0  0  0  0  0  0  0  0
    1.0997   -1.2783    0.8890 F   0  0  0  0  0  0  0  0  0  0  0  0
    2.5059    0.0770   -0.4260 C   0  0  0  0  0  0  0  0  0  0  0  0
    3.1439    0.6462    0.6868 O   0  0  0  0  0  0  0  0  0  0  0  0
    0.4530   -0.8194   -1.2741 O   0  0  0  0  0  0  0  0  0  0  0  0
   -0.7767   -1.4752   -0.9928 C   0  0  0  0  0  0  0  0  0  0  0  0
   -1.4267   -1.6929   -2.1947 F   0  0  0  0  0  0  0  0  0  0  0  0
   -2.7557   -0.6888   -0.4580 H   0  0  0  0  0  0  0  0  0  0  0  0
   -2.2541   -2.0387    1.2013 H   0  0  0  0  0  0  0  0  0  0  0  0
   -1.3732    1.2398   -1.0182 H   0  0  0  0  0  0  0  0  0  0  0  0
   -2.9451    1.6605    0.4629 H   0  0  0  0  0  0  0  0  0  0  0  0
    0.2860    0.9127    1.5405 H   0  0  0  0  0  0  0  0  0  0  0  0
    0.3768    2.8528    0.5226 H   0  0  0  0  0  0  0  0  0  0  0  0
    2.5332    0.8030   -1.2665 H   0  0  0  0  0  0  0  0  0  0  0  0
    3.0592   -0.8293   -0.7641 H   0  0  0  0  0  0  0  0  0  0  0  0
    3.3920   -0.1030    1.2888 H   0  0  0  0  0  0  0  0  0  0  0  0
   -0.5686   -2.4782   -0.5585 H   0  0  0  0  0  0  0  0  0  0  0  0
  1  2  1  0
  1  3  1  0
  3  4  1  0
  3  5  1  0
  5  6  1  0
  5  7  1  0
  7  8  1  1
  7  9  1  0
  9 10  1  0
  7 11  1  0
 11 12  1  0
 12 13  1  0
 12  1  1  0
  1 14  1  6
  2 15  1  0
  3 16  1  6
  4 17  1  0
  5 18  1  1
  6 19  1  0
  9 20  1  0
  9 21  1  0
 10 22  1  0
 12 23  1  0
M  END
$$$$
