
     RDKit          3D

 52 52  0  0  0  0  0  0  0  0999 V2000
   -0.2963   -2.6480    0.4450 C   0  0  1  0  0  0  0  0  0  0  0  0
   -1.5515   -3.4880    0.1632 C   0  0  0  0  0  0  0  0  0  0  0  0
    0.7919   -3.5056    0.6883 O   0  0  0  0  0  0  0  0  0  0  0  0
    0.0294   -1.6614   -0.7187 C   0  0  2  0  0  0  0  0  0  0  0  0
    1.4343   -1.2367   -0.6735 N   0  0  0  0  0  0  0  0  0  0  0  0
    2.0234   -0.4709    0.2028 C   0  0  0  0  0  0  0  0  0  0  0  0
    1.3512    0.0949    1.2887 O   0  0  0  0  0  0  0  0  0  0  0  0
    3.4830   -0.1999    0.0539 C   0  0  1  0  0  0  0  0  0  0  0  0
    3.7736    0.3721   -1.2010 O   0  0  0  0  0  0  0  0  0  0  0  0
    3.8542    1.2281   -0.0849 C   0  0  2  0  0  0  0  0  0  0  0  0
    5.2715    1.5544    0.2444 C   0  0  0  0  0  0  0  0  0  0  0  0
    6.0085    2.0863   -0.6296 O   0  0  0  0  0  0  0  0  0  0  0  0
    5.7538    1.2989    1.5326 O   0  0  0  0  0  0  0  0  0  0  0  0
    7.1072    1.5227    1.9221 C   0  0  0  0  0  0  0  0  0  0  0  0
    8.0147    0.4344    1.3605 C   0  0  0  0  0  0  0  0  0  0  0  0
   -0.8783   -0.4555   -0.8311 C   0  0  0  0  0  0  0  0  0  0  0  0
   -0.5659    0.5029   -1.8006 O   0  0  0  0  0  0  0  0  0  0  0  0
   -1.9073   -0.3251   -0.0405 N   0  0  0  0  0  0  0  0  0  0  0  0
   -2.8697    0.7792   -0.0253 C   0  0  2  0  0  0  0  0  0  0  0  0
   -3.5847    0.7780    1.2989 C   0  0  0  0  0  0  0  0  0  0  0  0
   -3.9067   -0.4254    1.9213 O   0  0  0  0  0  0  0  0  0  0  0  0
   -3.9170    1.8685    1.8365 O   0  0  0  0  0  0  0  0  0  0  0  0
   -3.8610    0.6768   -1.2233 C   0  0  1  0  0  0  0  0  0  0  0  0
   -4.7342   -0.5908   -1.1524 C   0  0  0  0  0  0  0  0  0  0  0  0
   -4.7263    1.9561   -1.3326 C   0  0  0  0  0  0  0  0  0  0  0  0
   -5.4731    2.0591   -2.6634 C   0  0  0  0  0  0  0  0  0  0  0  0
   -0.4809   -2.0804    1.3800 H   0  0  0  0  0  0  0  0  0  0  0  0
   -2.4522   -2.8476    0.0946 H   0  0  0  0  0  0  0  0  0  0  0  0
   -1.4397   -4.0561   -0.7848 H   0  0  0  0  0  0  0  0  0  0  0  0
   -1.7100   -4.2111    0.9911 H   0  0  0  0  0  0  0  0  0  0  0  0
    0.9656   -4.0132   -0.1479 H   0  0  0  0  0  0  0  0  0  0  0  0
   -0.0925   -2.2249   -1.6689 H   0  0  0  0  0  0  0  0  0  0  0  0
    0.3598   -0.0008    1.4493 H   0  0  0  0  0  0  0  0  0  0  0  0
    4.2423   -0.9531    0.3547 H   0  0  0  0  0  0  0  0  0  0  0  0
    3.0712    2.0158   -0.1070 H   0  0  0  0  0  0  0  0  0  0  0  0
    7.4484    2.5244    1.5813 H   0  0  0  0  0  0  0  0  0  0  0  0
    7.1646    1.4978    3.0307 H   0  0  0  0  0  0  0  0  0  0  0  0
    8.0133    0.4634    0.2509 H   0  0  0  0  0  0  0  0  0  0  0  0
    9.0534    0.5921    1.7199 H   0  0  0  0  0  0  0  0  0  0  0  0
    7.6637   -0.5634    1.6991 H   0  0  0  0  0  0  0  0  0  0  0  0
   -1.0791    1.3649   -1.9251 H   0  0  0  0  0  0  0  0  0  0  0  0
   -2.3080    1.7376   -0.0877 H   0  0  0  0  0  0  0  0  0  0  0  0
   -4.3984   -0.4373    2.8067 H   0  0  0  0  0  0  0  0  0  0  0  0
   -3.2575    0.6013   -2.1532 H   0  0  0  0  0  0  0  0  0  0  0  0
   -5.4773   -0.5183   -0.3304 H   0  0  0  0  0  0  0  0  0  0  0  0
   -4.1053   -1.4893   -0.9909 H   0  0  0  0  0  0  0  0  0  0  0  0
   -5.2770   -0.7420   -2.1081 H   0  0  0  0  0  0  0  0  0  0  0  0
   -4.0716    2.8508   -1.2468 H   0  0  0  0  0  0  0  0  0  0  0  0
   -5.4628    1.9967   -0.5009 H   0  0  0  0  0  0  0  0  0  0  0  0
   -4.7672    1.9619   -3.5154 H   0  0  0  0  0  0  0  0  0  0  0  0
   -5.9712    3.0493   -2.7307 H   0  0  0  0  0  0  0  0  0  0  0  0
   -6.2559    1.2764   -2.7382 H   0  0  0  0  0  0  0  0  0  0  0  0
  1  2  1  0
  1  3  1  0
  1  4  1  0
  4  5  1  0
  5  6  2  3
  6  7  1  0
  6  8  1  0
  8  9  1  0
  9 10  1  0
 10 11  1  0
 11 12  2  0
 11 13  1  0
 13 14  1  0
 14 15  1  0
  4 16  1  0
 16 17  1  0
 16 18  2  3
 18 19  1  0
 19 20  1  0
 20 21  1  0
 20 22  2  0
 19 23  1  0
 23 24  1  0
 23 25  1  0
 25 26  1  0
 10  8  1  0
  1 27  1  1
  2 28  1  0
  2 29  1  0
  2 30  1  0
  3 31  1  0
  4 32  1  6
  7 33  1  0
  8 34  1  1
 10 35  1  6
 14 36  1  0
 14 37  1  0
 15 38  1  0
 15 39  1  0
 15 40  1  0
 17 41  1  0
 19 42  1  6
 21 43  1  0
 23 44  1  6
 24 45  1  0
 24 46  1  0
 24 47  1  0
 25 48  1  0
 25 49  1  0
 26 50  1  0
 26 51  1  0
 26 52  1  0
M  END
$$$$
