
     RDKit          3D

 42 45  0  0  0  0  0  0  0  0999 V2000
    4.8444    0.4868    0.9410 C   0  0  0  0  0  0  0  0  0  0  0  0
    3.8211    1.5253    0.7333 N   0  0  0  0  0  0  0  0  0  0  0  0
    2.8104    1.5505    1.8115 C   0  0  0  0  0  0  0  0  0  0  0  0
    1.8295    0.3731    1.7299 C   0  0  0  0  0  0  0  0  0  0  0  0
    1.2892    0.2658    0.3726 N   0  0  0  0  0  0  0  0  0  0  0  0
    2.2323    0.2730   -0.7487 C   0  0  0  0  0  0  0  0  0  0  0  0
    3.2032    1.4531   -0.6075 C   0  0  0  0  0  0  0  0  0  0  0  0
   -0.1119    0.0055    0.1590 C   0  0  0  0  0  0  0  0  0  0  0  0
   -0.9733    0.7009    0.8454 N   0  0  0  0  0  0  0  0  0  0  0  0
   -2.4063    0.6837    0.8013 C   0  0  0  0  0  0  0  0  0  0  0  0
   -3.0988    1.0270    1.9710 C   0  0  0  0  0  0  0  0  0  0  0  0
   -4.4899    1.1625    1.9628 C   0  0  0  0  0  0  0  0  0  0  0  0
   -5.3409    1.5787    3.4392 Cl  0  0  0  0  0  0  0  0  0  0  0  0
   -5.1990    0.9853    0.7737 C   0  0  0  0  0  0  0  0  0  0  0  0
   -4.5187    0.6690   -0.4035 C   0  0  0  0  0  0  0  0  0  0  0  0
   -3.1237    0.5088   -0.4000 C   0  0  0  0  0  0  0  0  0  0  0  0
   -2.4598    0.1805   -1.6228 N   0  0  0  0  0  0  0  0  0  0  0  0
   -1.5867   -0.9492   -1.6726 C   0  0  0  0  0  0  0  0  0  0  0  0
   -1.8259   -1.9496   -2.6286 C   0  0  0  0  0  0  0  0  0  0  0  0
   -1.0354   -3.0987   -2.6651 C   0  0  0  0  0  0  0  0  0  0  0  0
    0.0023   -3.2585   -1.7487 C   0  0  0  0  0  0  0  0  0  0  0  0
    0.2645   -2.2597   -0.8092 C   0  0  0  0  0  0  0  0  0  0  0  0
   -0.5132   -1.0865   -0.7689 C   0  0  0  0  0  0  0  0  0  0  0  0
    5.3427    0.6349    1.9227 H   0  0  0  0  0  0  0  0  0  0  0  0
    4.4115   -0.5344    0.9106 H   0  0  0  0  0  0  0  0  0  0  0  0
    5.6300    0.5654    0.1595 H   0  0  0  0  0  0  0  0  0  0  0  0
    2.2349    2.4994    1.7411 H   0  0  0  0  0  0  0  0  0  0  0  0
    3.3059    1.5528    2.8072 H   0  0  0  0  0  0  0  0  0  0  0  0
    1.0185    0.5317    2.4732 H   0  0  0  0  0  0  0  0  0  0  0  0
    2.3415   -0.5750    1.9974 H   0  0  0  0  0  0  0  0  0  0  0  0
    2.7934   -0.6846   -0.7725 H   0  0  0  0  0  0  0  0  0  0  0  0
    1.6904    0.3752   -1.7146 H   0  0  0  0  0  0  0  0  0  0  0  0
    2.6469    2.3974   -0.7965 H   0  0  0  0  0  0  0  0  0  0  0  0
    3.9879    1.3846   -1.3927 H   0  0  0  0  0  0  0  0  0  0  0  0
   -2.5502    1.1975    2.8893 H   0  0  0  0  0  0  0  0  0  0  0  0
   -6.2757    1.0977    0.7589 H   0  0  0  0  0  0  0  0  0  0  0  0
   -5.0800    0.5370   -1.3202 H   0  0  0  0  0  0  0  0  0  0  0  0
   -2.9268    0.4650   -2.5143 H   0  0  0  0  0  0  0  0  0  0  0  0
   -2.6434   -1.8472   -3.3314 H   0  0  0  0  0  0  0  0  0  0  0  0
   -1.2344   -3.8702   -3.3978 H   0  0  0  0  0  0  0  0  0  0  0  0
    0.6109   -4.1533   -1.7714 H   0  0  0  0  0  0  0  0  0  0  0  0
    1.0826   -2.4012   -0.1137 H   0  0  0  0  0  0  0  0  0  0  0  0
  1  2  1  0
  2  3  1  0
  3  4  1  0
  4  5  1  0
  5  6  1  0
  6  7  1  0
  5  8  1  0
  8  9  2  0
  9 10  1  0
 10 11  2  0
 11 12  1  0
 12 13  1  0
 12 14  2  0
 14 15  1  0
 15 16  2  0
 16 17  1  0
 17 18  1  0
 18 19  2  0
 19 20  1  0
 20 21  2  0
 21 22  1  0
 22 23  2  0
  7  2  1  0
 23  8  1  0
 16 10  1  0
 23 18  1  0
  1 24  1  0
  1 25  1  0
  1 26  1  0
  3 27  1  0
  3 28  1  0
  4 29  1  0
  4 30  1  0
  6 31  1  0
  6 32  1  0
  7 33  1  0
  7 34  1  0
 11 35  1  0
 14 36  1  0
 15 37  1  0
 17 38  1  0
 19 39  1  0
 20 40  1  0
 21 41  1  0
 22 42  1  0
M  END
$$$$
