
     RDKit          3D

 49 51  0  0  0  0  0  0  0  0999 V2000
    3.2800    2.4252   -0.9794 O   0  0  0  0  0  0  0  0  0  0  0  0
    1.9879    2.4437   -1.4948 C   0  0  0  0  0  0  0  0  0  0  0  0
    1.7518    1.9340   -2.6226 O   0  0  0  0  0  0  0  0  0  0  0  0
    0.8724    3.0397   -0.6952 C   0  0  0  0  0  0  0  0  0  0  0  0
   -0.0047    1.9903   -0.1818 N   0  0  0  0  0  0  0  0  0  0  0  0
    0.3099    1.1074    0.7224 C   0  0  0  0  0  0  0  0  0  0  0  0
   -0.6531    0.1127    1.1160 N   0  0  0  0  0  0  0  0  0  0  0  0
   -1.8109   -0.2981    0.3075 C   0  0  0  0  0  0  0  0  0  0  0  0
   -2.8748    0.7903    0.1873 C   0  0  0  0  0  0  0  0  0  0  0  0
   -3.9459    0.6226   -0.7142 C   0  0  0  0  0  0  0  0  0  0  0  0
   -4.9622    1.5781   -0.8012 C   0  0  0  0  0  0  0  0  0  0  0  0
   -4.9443    2.6971    0.0323 C   0  0  0  0  0  0  0  0  0  0  0  0
   -3.9190    2.8539    0.9660 C   0  0  0  0  0  0  0  0  0  0  0  0
   -2.9001    1.9010    1.0578 C   0  0  0  0  0  0  0  0  0  0  0  0
   -1.3293   -0.8623   -1.0216 C   0  0  0  0  0  0  0  0  0  0  0  0
   -1.1725   -0.0528   -2.1655 C   0  0  0  0  0  0  0  0  0  0  0  0
   -0.6631   -0.5913   -3.3505 C   0  0  0  0  0  0  0  0  0  0  0  0
   -0.2937   -1.9365   -3.4072 C   0  0  0  0  0  0  0  0  0  0  0  0
   -0.4314   -2.7461   -2.2780 C   0  0  0  0  0  0  0  0  0  0  0  0
   -0.9415   -2.2129   -1.0908 C   0  0  0  0  0  0  0  0  0  0  0  0
    1.5911    1.1452    1.3739 N   0  0  0  0  0  0  0  0  0  0  0  0
    2.3353   -0.0376    1.7088 C   0  0  0  0  0  0  0  0  0  0  0  0
    2.1844   -1.2274    0.9733 C   0  0  0  0  0  0  0  0  0  0  0  0
    2.9314   -2.3619    1.3033 C   0  0  0  0  0  0  0  0  0  0  0  0
    3.8460   -2.3169    2.3621 C   0  0  0  0  0  0  0  0  0  0  0  0
    4.0160   -1.1299    3.0850 C   0  0  0  0  0  0  0  0  0  0  0  0
    3.2690    0.0053    2.7552 C   0  0  0  0  0  0  0  0  0  0  0  0
    4.6160   -3.4849    2.7008 C   0  0  0  0  0  0  0  0  0  0  0  0
    5.2351   -4.4240    2.9730 N   0  0  0  0  0  0  0  0  0  0  0  0
    4.0417    2.0095   -1.5019 H   0  0  0  0  0  0  0  0  0  0  0  0
    1.2685    3.6595    0.1369 H   0  0  0  0  0  0  0  0  0  0  0  0
    0.2779    3.7070   -1.3537 H   0  0  0  0  0  0  0  0  0  0  0  0
   -0.4657   -0.4244    1.9928 H   0  0  0  0  0  0  0  0  0  0  0  0
   -2.3177   -1.1255    0.8534 H   0  0  0  0  0  0  0  0  0  0  0  0
   -3.9954   -0.2501   -1.3533 H   0  0  0  0  0  0  0  0  0  0  0  0
   -5.7695    1.4454   -1.5098 H   0  0  0  0  0  0  0  0  0  0  0  0
   -5.7338    3.4346   -0.0342 H   0  0  0  0  0  0  0  0  0  0  0  0
   -3.9190    3.7101    1.6281 H   0  0  0  0  0  0  0  0  0  0  0  0
   -2.1394    2.0375    1.8144 H   0  0  0  0  0  0  0  0  0  0  0  0
   -1.4464    0.9936   -2.1474 H   0  0  0  0  0  0  0  0  0  0  0  0
   -0.5502    0.0371   -4.2245 H   0  0  0  0  0  0  0  0  0  0  0  0
    0.1036   -2.3505   -4.3249 H   0  0  0  0  0  0  0  0  0  0  0  0
   -0.1363   -3.7866   -2.3201 H   0  0  0  0  0  0  0  0  0  0  0  0
   -1.0230   -2.8517   -0.2200 H   0  0  0  0  0  0  0  0  0  0  0  0
    1.9811    2.0715    1.6583 H   0  0  0  0  0  0  0  0  0  0  0  0
    1.5056   -1.2744    0.1332 H   0  0  0  0  0  0  0  0  0  0  0  0
    2.8008   -3.2710    0.7282 H   0  0  0  0  0  0  0  0  0  0  0  0
    4.7263   -1.0813    3.9017 H   0  0  0  0  0  0  0  0  0  0  0  0
    3.4109    0.9173    3.3214 H   0  0  0  0  0  0  0  0  0  0  0  0
  1  2  1  0
  2  3  2  0
  2  4  1  0
  4  5  1  0
  5  6  2  0
  6  7  1  0
  7  8  1  0
  8  9  1  0
  9 10  2  0
 10 11  1  0
 11 12  2  0
 12 13  1  0
 13 14  2  0
  8 15  1  0
 15 16  2  0
 16 17  1  0
 17 18  2  0
 18 19  1  0
 19 20  2  0
  6 21  1  0
 21 22  1  0
 22 23  2  0
 23 24  1  0
 24 25  2  0
 25 26  1  0
 26 27  2  0
 25 28  1  0
 28 29  3  0
 14  9  1  0
 20 15  1  0
 27 22  1  0
  1 30  1  0
  4 31  1  0
  4 32  1  0
  7 33  1  0
  8 34  1  0
 10 35  1  0
 11 36  1  0
 12 37  1  0
 13 38  1  0
 14 39  1  0
 16 40  1  0
 17 41  1  0
 18 42  1  0
 19 43  1  0
 20 44  1  0
 21 45  1  0
 23 46  1  0
 24 47  1  0
 26 48  1  0
 27 49  1  0
M  END
$$$$
