
     RDKit          3D

 18 17  0  0  0  0  0  0  0  0999 V2000
   -1.0116   -2.0013    0.1875 O   0  0  0  0  0  0  0  0  0  0  0  0
   -0.2953   -1.0705   -0.5834 C   0  0  0  0  0  0  0  0  0  0  0  0
   -1.1910    0.1520   -0.8661 C   0  0  0  0  0  0  0  0  0  0  0  0
   -1.6451    0.8380    0.3878 C   0  0  0  0  0  0  0  0  0  0  0  0
   -0.9668    1.9622    0.8482 O   0  0  0  0  0  0  0  0  0  0  0  0
   -2.6246    0.3840    1.0376 O   0  0  0  0  0  0  0  0  0  0  0  0
    1.0208   -0.7037    0.1338 C   0  0  0  0  0  0  0  0  0  0  0  0
    1.8919    0.1767   -0.7094 C   0  0  0  0  0  0  0  0  0  0  0  0
    1.9469    1.5441   -0.4584 O   0  0  0  0  0  0  0  0  0  0  0  0
    2.5540   -0.3161   -1.6616 O   0  0  0  0  0  0  0  0  0  0  0  0
   -0.5547   -2.8767    0.0821 H   0  0  0  0  0  0  0  0  0  0  0  0
   -0.0451   -1.5308   -1.5687 H   0  0  0  0  0  0  0  0  0  0  0  0
   -2.0855   -0.1814   -1.4359 H   0  0  0  0  0  0  0  0  0  0  0  0
   -0.6527    0.8794   -1.5105 H   0  0  0  0  0  0  0  0  0  0  0  0
   -1.2535    2.4293    1.7000 H   0  0  0  0  0  0  0  0  0  0  0  0
    1.5828   -1.6351    0.3630 H   0  0  0  0  0  0  0  0  0  0  0  0
    0.8088   -0.2042    1.1032 H   0  0  0  0  0  0  0  0  0  0  0  0
    2.5208    2.1541   -1.0281 H   0  0  0  0  0  0  0  0  0  0  0  0
  1  2  1  0
  2  3  1  0
  3  4  1  0
  4  5  1  0
  4  6  2  0
  2  7  1  0
  7  8  1  0
  8  9  1  0
  8 10  2  0
  1 11  1  0
  2 12  1  0
  3 13  1  0
  3 14  1  0
  5 15  1  0
  7 16  1  0
  7 17  1  0
  9 18  1  0
M  END
$$$$
