
     RDKit          3D

 31 33  0  0  0  0  0  0  0  0999 V2000
    1.8173   -2.4543   -0.1491 C   0  0  0  0  0  0  0  0  0  0  0  0
    0.9405   -1.2443    0.0586 C   0  0  0  0  0  0  0  0  0  0  0  0
    1.4734   -0.0699    0.4504 C   0  0  0  0  0  0  0  0  0  0  0  0
    2.8795    0.0615    0.6767 N   0  0  0  0  0  0  0  0  0  0  0  0
    4.0798    0.8642    1.0564 C   0  0  0  0  0  0  0  0  0  0  0  0
    4.2791   -0.4587    0.7252 C   0  0  0  0  0  0  0  0  0  0  0  0
    0.6080    1.1117    0.6511 C   0  0  0  0  0  0  0  0  0  0  0  0
    1.1294    2.2077    0.9924 O   0  0  0  0  0  0  0  0  0  0  0  0
   -0.8601    1.0135    0.4484 C   0  0  0  0  0  0  0  0  0  0  0  0
   -1.7241    2.2384    0.6534 C   0  0  0  0  0  0  0  0  0  0  0  0
   -2.0932    2.7846   -0.5831 O   0  0  0  0  0  0  0  0  0  0  0  0
   -1.3910   -0.1558    0.0333 C   0  0  0  0  0  0  0  0  0  0  0  0
   -2.7924   -0.2837   -0.2254 N   0  0  0  0  0  0  0  0  0  0  0  0
   -3.9771   -1.0874   -0.6499 C   0  0  0  0  0  0  0  0  0  0  0  0
   -4.1936    0.2292   -0.3058 C   0  0  0  0  0  0  0  0  0  0  0  0
   -0.5235   -1.3355   -0.1752 C   0  0  0  0  0  0  0  0  0  0  0  0
   -1.0398   -2.4210   -0.5556 O   0  0  0  0  0  0  0  0  0  0  0  0
    1.2335   -3.3454   -0.4578 H   0  0  0  0  0  0  0  0  0  0  0  0
    2.3432   -2.7051    0.7962 H   0  0  0  0  0  0  0  0  0  0  0  0
    2.5649   -2.2451   -0.9429 H   0  0  0  0  0  0  0  0  0  0  0  0
    4.3207    1.6171    0.2767 H   0  0  0  0  0  0  0  0  0  0  0  0
    4.0688    1.1131    2.1383 H   0  0  0  0  0  0  0  0  0  0  0  0
    4.4146   -1.1693    1.5675 H   0  0  0  0  0  0  0  0  0  0  0  0
    4.6663   -0.6654   -0.2947 H   0  0  0  0  0  0  0  0  0  0  0  0
   -2.6389    1.9676    1.2198 H   0  0  0  0  0  0  0  0  0  0  0  0
   -1.2053    3.0060    1.2696 H   0  0  0  0  0  0  0  0  0  0  0  0
   -1.2853    3.2339   -0.9458 H   0  0  0  0  0  0  0  0  0  0  0  0
   -4.2349   -1.8531    0.1117 H   0  0  0  0  0  0  0  0  0  0  0  0
   -3.9346   -1.3206   -1.7346 H   0  0  0  0  0  0  0  0  0  0  0  0
   -4.6140    0.4161    0.7047 H   0  0  0  0  0  0  0  0  0  0  0  0
   -4.3111    0.9502   -1.1418 H   0  0  0  0  0  0  0  0  0  0  0  0
  1  2  1  0
  2  3  2  0
  3  4  1  0
  4  5  1  0
  5  6  1  0
  3  7  1  0
  7  8  2  0
  7  9  1  0
  9 10  1  0
 10 11  1  0
  9 12  2  0
 12 13  1  0
 13 14  1  0
 14 15  1  0
 12 16  1  0
 16 17  2  0
 16  2  1  0
  6  4  1  0
 15 13  1  0
  1 18  1  0
  1 19  1  0
  1 20  1  0
  5 21  1  0
  5 22  1  0
  6 23  1  0
  6 24  1  0
 10 25  1  0
 10 26  1  0
 11 27  1  0
 14 28  1  0
 14 29  1  0
 15 30  1  0
 15 31  1  0
M  END
$$$$
