
     RDKit          3D

152157  0  0  0  0  0  0  0  0999 V2000
    8.8182   -3.5286    2.1617 C   0  0  0  0  0  0  0  0  0  0  0  0
    9.9222   -3.3153    1.2879 O   0  0  0  0  0  0  0  0  0  0  0  0
    9.8893   -2.4983    0.1460 C   0  0  0  0  0  0  0  0  0  0  0  0
    8.7199   -1.8268   -0.2502 C   0  0  0  0  0  0  0  0  0  0  0  0
    8.7167   -1.0156   -1.3891 C   0  0  0  0  0  0  0  0  0  0  0  0
    7.4821   -0.2252   -1.7563 C   0  0  0  0  0  0  0  0  0  0  0  0
    7.3709    1.1314   -0.9731 C   0  0  0  0  0  0  0  0  0  0  0  0
    8.6312    1.9580   -1.2393 C   0  0  0  0  0  0  0  0  0  0  0  0
    9.7958    1.7816   -0.4535 C   0  0  0  0  0  0  0  0  0  0  0  0
    9.6743    0.9824    0.7029 O   0  0  0  0  0  0  0  0  0  0  0  0
   10.6922    0.6591    1.6435 C   0  0  0  0  0  0  0  0  0  0  0  0
   11.0198    2.3812   -0.8574 C   0  0  0  0  0  0  0  0  0  0  0  0
   12.1782    2.1084   -0.1060 O   0  0  0  0  0  0  0  0  0  0  0  0
   13.5218    2.4330   -0.4455 C   0  0  0  0  0  0  0  0  0  0  0  0
   11.0390    3.2184   -2.0019 C   0  0  0  0  0  0  0  0  0  0  0  0
   12.2371    3.8297   -2.4051 O   0  0  0  0  0  0  0  0  0  0  0  0
   12.3887    4.6653   -3.5485 C   0  0  0  0  0  0  0  0  0  0  0  0
    9.8492    3.4448   -2.7109 C   0  0  0  0  0  0  0  0  0  0  0  0
    8.6552    2.8245   -2.3415 C   0  0  0  0  0  0  0  0  0  0  0  0
    7.3882    3.2472   -3.0384 C   0  0  0  0  0  0  0  0  0  0  0  0
    6.1472    2.4042   -2.6907 C   0  0  0  0  0  0  0  0  0  0  0  0
    6.1169    1.9187   -1.2781 N   0  0  0  0  0  4  0  0  0  0  0  0
    6.0390    3.0782   -0.3396 C   0  0  0  0  0  0  0  0  0  0  0  0
    4.9076    1.0436   -1.0760 C   0  0  0  0  0  0  0  0  0  0  0  0
    3.5429    1.7753   -0.9986 C   0  0  0  0  0  0  0  0  0  0  0  0
    2.3850    0.7716   -0.9725 C   0  0  0  0  0  0  0  0  0  0  0  0
    1.1387    1.4490   -0.8263 O   0  0  0  0  0  0  0  0  0  0  0  0
    0.5093    2.1383   -1.8690 C   0  0  0  0  0  0  0  0  0  0  0  0
    1.0040    2.1472   -3.0293 O   0  0  0  0  0  0  0  0  0  0  0  0
   -0.7974    2.8235   -1.6131 C   0  0  0  0  0  0  0  0  0  0  0  0
   -1.9831    1.9038   -1.9217 C   0  0  0  0  0  0  0  0  0  0  0  0
   -2.0348    0.7401   -0.9802 C   0  0  0  0  0  0  0  0  0  0  0  0
   -1.6390   -0.3944   -1.3641 O   0  0  0  0  0  0  0  0  0  0  0  0
   -2.4818    0.9376    0.3308 O   0  0  0  0  0  0  0  0  0  0  0  0
   -2.6073   -0.1152    1.2859 C   0  0  0  0  0  0  0  0  0  0  0  0
   -3.8217   -1.0025    0.9818 C   0  0  0  0  0  0  0  0  0  0  0  0
   -5.1402   -0.1830    1.0121 C   0  0  0  0  0  0  0  0  0  0  0  0
   -6.4144   -0.9596    0.7999 N   0  0  0  0  0  4  0  0  0  0  0  0
   -6.4719   -2.0884    1.7703 C   0  0  0  0  0  0  0  0  0  0  0  0
   -6.3986   -1.5205   -0.5842 C   0  0  0  0  0  0  0  0  0  0  0  0
   -7.6778   -2.2947   -0.9149 C   0  0  0  0  0  0  0  0  0  0  0  0
   -8.8757   -1.4229   -0.7295 C   0  0  0  0  0  0  0  0  0  0  0  0
  -10.0458   -1.7373   -1.4204 C   0  0  0  0  0  0  0  0  0  0  0  0
  -11.1391   -0.8602   -1.4304 C   0  0  0  0  0  0  0  0  0  0  0  0
  -12.3271   -1.2082   -2.0931 O   0  0  0  0  0  0  0  0  0  0  0  0
  -12.5706   -2.4520   -2.7430 C   0  0  0  0  0  0  0  0  0  0  0  0
  -11.0261    0.3956   -0.7823 C   0  0  0  0  0  0  0  0  0  0  0  0
  -12.0699    1.3404   -0.7840 O   0  0  0  0  0  0  0  0  0  0  0  0
  -13.3735    1.1878   -1.3345 C   0  0  0  0  0  0  0  0  0  0  0  0
   -9.8256    0.7160   -0.0884 C   0  0  0  0  0  0  0  0  0  0  0  0
   -9.5899    1.9816    0.4872 O   0  0  0  0  0  0  0  0  0  0  0  0
  -10.4288    3.1297    0.4291 C   0  0  0  0  0  0  0  0  0  0  0  0
   -8.8051   -0.2612    0.0540 C   0  0  0  0  0  0  0  0  0  0  0  0
   -7.5871    0.0066    0.9632 C   0  0  0  0  0  0  0  0  0  0  0  0
   -8.0010    0.3034    2.4619 C   0  0  0  0  0  0  0  0  0  0  0  0
   -8.8397   -0.7407    3.1892 C   0  0  0  0  0  0  0  0  0  0  0  0
  -10.1655   -0.9985    2.8194 C   0  0  0  0  0  0  0  0  0  0  0  0
  -10.9311   -1.9664    3.4895 C   0  0  0  0  0  0  0  0  0  0  0  0
  -12.2464   -2.2688    3.0982 O   0  0  0  0  0  0  0  0  0  0  0  0
  -12.9041   -1.7077    1.9656 C   0  0  0  0  0  0  0  0  0  0  0  0
  -10.3879   -2.6587    4.5824 C   0  0  0  0  0  0  0  0  0  0  0  0
  -11.2138   -3.6217    5.1941 O   0  0  0  0  0  0  0  0  0  0  0  0
  -10.8739   -4.4543    6.2973 C   0  0  0  0  0  0  0  0  0  0  0  0
   -9.0711   -2.3610    5.0153 C   0  0  0  0  0  0  0  0  0  0  0  0
   -8.5290   -3.0294    6.1247 O   0  0  0  0  0  0  0  0  0  0  0  0
   -7.2139   -2.8344    6.6356 C   0  0  0  0  0  0  0  0  0  0  0  0
   -8.3228   -1.3905    4.3212 C   0  0  0  0  0  0  0  0  0  0  0  0
    9.8901   -0.8803   -2.1411 C   0  0  0  0  0  0  0  0  0  0  0  0
   11.0808   -1.5194   -1.7482 C   0  0  0  0  0  0  0  0  0  0  0  0
   12.2684   -1.3317   -2.4728 O   0  0  0  0  0  0  0  0  0  0  0  0
   12.4204   -0.4433   -3.5757 C   0  0  0  0  0  0  0  0  0  0  0  0
   11.0732   -2.3482   -0.5963 C   0  0  0  0  0  0  0  0  0  0  0  0
   12.2059   -3.0388   -0.1238 O   0  0  0  0  0  0  0  0  0  0  0  0
   13.5152   -3.0020   -0.6804 C   0  0  0  0  0  0  0  0  0  0  0  0
    8.4920   -2.5645    2.6063 H   0  0  0  0  0  0  0  0  0  0  0  0
    9.1303   -4.2092    2.9800 H   0  0  0  0  0  0  0  0  0  0  0  0
    7.9785   -3.9997    1.6085 H   0  0  0  0  0  0  0  0  0  0  0  0
    7.8122   -1.9139    0.3318 H   0  0  0  0  0  0  0  0  0  0  0  0
    6.6139   -0.8797   -1.5417 H   0  0  0  0  0  0  0  0  0  0  0  0
    7.4878   -0.0486   -2.8513 H   0  0  0  0  0  0  0  0  0  0  0  0
    7.3444    0.8623    0.1077 H   0  0  0  0  0  0  0  0  0  0  0  0
   11.0922    1.5827    2.1119 H   0  0  0  0  0  0  0  0  0  0  0  0
   10.2511    0.0282    2.4421 H   0  0  0  0  0  0  0  0  0  0  0  0
   11.4987    0.0744    1.1539 H   0  0  0  0  0  0  0  0  0  0  0  0
   13.7756    2.0259   -1.4472 H   0  0  0  0  0  0  0  0  0  0  0  0
   13.6748    3.5316   -0.4068 H   0  0  0  0  0  0  0  0  0  0  0  0
   14.1995    1.9674    0.2988 H   0  0  0  0  0  0  0  0  0  0  0  0
   13.4494    4.9799   -3.6276 H   0  0  0  0  0  0  0  0  0  0  0  0
   11.7574    5.5729   -3.4453 H   0  0  0  0  0  0  0  0  0  0  0  0
   12.1149    4.1071   -4.4687 H   0  0  0  0  0  0  0  0  0  0  0  0
    9.8370    4.1215   -3.5549 H   0  0  0  0  0  0  0  0  0  0  0  0
    7.1855    4.3055   -2.7639 H   0  0  0  0  0  0  0  0  0  0  0  0
    7.5427    3.2175   -4.1393 H   0  0  0  0  0  0  0  0  0  0  0  0
    6.0882    1.5553   -3.4046 H   0  0  0  0  0  0  0  0  0  0  0  0
    5.2580    3.0309   -2.9144 H   0  0  0  0  0  0  0  0  0  0  0  0
    5.8454    2.7344    0.7011 H   0  0  0  0  0  0  0  0  0  0  0  0
    6.9750    3.6736   -0.3149 H   0  0  0  0  0  0  0  0  0  0  0  0
    5.2384    3.7911   -0.6341 H   0  0  0  0  0  0  0  0  0  0  0  0
    4.8224    0.3114   -1.9093 H   0  0  0  0  0  0  0  0  0  0  0  0
    5.0172    0.4545   -0.1363 H   0  0  0  0  0  0  0  0  0  0  0  0
    3.4068    2.4484   -1.8674 H   0  0  0  0  0  0  0  0  0  0  0  0
    3.4832    2.3789   -0.0680 H   0  0  0  0  0  0  0  0  0  0  0  0
    2.3767    0.1545   -1.8978 H   0  0  0  0  0  0  0  0  0  0  0  0
    2.5128    0.0889   -0.1054 H   0  0  0  0  0  0  0  0  0  0  0  0
   -0.8655    3.7292   -2.2539 H   0  0  0  0  0  0  0  0  0  0  0  0
   -0.8413    3.1590   -0.5540 H   0  0  0  0  0  0  0  0  0  0  0  0
   -1.9231    1.5451   -2.9729 H   0  0  0  0  0  0  0  0  0  0  0  0
   -2.9252    2.4835   -1.8183 H   0  0  0  0  0  0  0  0  0  0  0  0
   -2.7223    0.3325    2.2960 H   0  0  0  0  0  0  0  0  0  0  0  0
   -1.6807   -0.7299    1.2971 H   0  0  0  0  0  0  0  0  0  0  0  0
   -3.6633   -1.4700   -0.0092 H   0  0  0  0  0  0  0  0  0  0  0  0
   -3.8400   -1.8043    1.7478 H   0  0  0  0  0  0  0  0  0  0  0  0
   -5.1705    0.3414    1.9907 H   0  0  0  0  0  0  0  0  0  0  0  0
   -5.0537    0.6155    0.2396 H   0  0  0  0  0  0  0  0  0  0  0  0
   -6.1293   -1.7747    2.7776 H   0  0  0  0  0  0  0  0  0  0  0  0
   -7.4952   -2.5095    1.8472 H   0  0  0  0  0  0  0  0  0  0  0  0
   -5.8147   -2.9320    1.4638 H   0  0  0  0  0  0  0  0  0  0  0  0
   -5.5575   -2.2294   -0.7333 H   0  0  0  0  0  0  0  0  0  0  0  0
   -6.2726   -0.7037   -1.3326 H   0  0  0  0  0  0  0  0  0  0  0  0
   -7.6143   -2.6202   -1.9769 H   0  0  0  0  0  0  0  0  0  0  0  0
   -7.7759   -3.2126   -0.2992 H   0  0  0  0  0  0  0  0  0  0  0  0
  -10.0850   -2.6661   -1.9738 H   0  0  0  0  0  0  0  0  0  0  0  0
  -11.8632   -2.5868   -3.5881 H   0  0  0  0  0  0  0  0  0  0  0  0
  -12.4703   -3.2877   -2.0186 H   0  0  0  0  0  0  0  0  0  0  0  0
  -13.6045   -2.4531   -3.1445 H   0  0  0  0  0  0  0  0  0  0  0  0
  -13.9578    2.1073   -1.1266 H   0  0  0  0  0  0  0  0  0  0  0  0
  -13.8957    0.3322   -0.8565 H   0  0  0  0  0  0  0  0  0  0  0  0
  -13.3149    1.0603   -2.4357 H   0  0  0  0  0  0  0  0  0  0  0  0
  -11.3742    2.9437    0.9803 H   0  0  0  0  0  0  0  0  0  0  0  0
   -9.9082    3.9764    0.9211 H   0  0  0  0  0  0  0  0  0  0  0  0
  -10.6257    3.4115   -0.6267 H   0  0  0  0  0  0  0  0  0  0  0  0
   -7.2444    1.0004    0.5910 H   0  0  0  0  0  0  0  0  0  0  0  0
   -8.5611    1.2573    2.5164 H   0  0  0  0  0  0  0  0  0  0  0  0
   -7.0889    0.5186    3.0530 H   0  0  0  0  0  0  0  0  0  0  0  0
  -10.6179   -0.4295    2.0308 H   0  0  0  0  0  0  0  0  0  0  0  0
  -13.9192   -2.1465    1.8814 H   0  0  0  0  0  0  0  0  0  0  0  0
  -13.0025   -0.6079    2.0839 H   0  0  0  0  0  0  0  0  0  0  0  0
  -12.3378   -1.9446    1.0406 H   0  0  0  0  0  0  0  0  0  0  0  0
  -11.7344   -5.1162    6.5245 H   0  0  0  0  0  0  0  0  0  0  0  0
  -10.0027   -5.0938    6.0429 H   0  0  0  0  0  0  0  0  0  0  0  0
  -10.6667   -3.8365    7.1961 H   0  0  0  0  0  0  0  0  0  0  0  0
   -7.0595   -3.5088    7.5026 H   0  0  0  0  0  0  0  0  0  0  0  0
   -6.4610   -3.0797    5.8568 H   0  0  0  0  0  0  0  0  0  0  0  0
   -7.0877   -1.7852    6.9764 H   0  0  0  0  0  0  0  0  0  0  0  0
   -7.3283   -1.1358    4.6590 H   0  0  0  0  0  0  0  0  0  0  0  0
    9.8755   -0.2374   -3.0109 H   0  0  0  0  0  0  0  0  0  0  0  0
   13.4737   -0.4736   -3.9216 H   0  0  0  0  0  0  0  0  0  0  0  0
   12.1791    0.5956   -3.2659 H   0  0  0  0  0  0  0  0  0  0  0  0
   11.7631   -0.7574   -4.4135 H   0  0  0  0  0  0  0  0  0  0  0  0
   13.9145   -1.9661   -0.6556 H   0  0  0  0  0  0  0  0  0  0  0  0
   13.5045   -3.4011   -1.7164 H   0  0  0  0  0  0  0  0  0  0  0  0
   14.1819   -3.6443   -0.0697 H   0  0  0  0  0  0  0  0  0  0  0  0
  1  2  1  0
  2  3  1  0
  3  4  2  0
  4  5  1  0
  5  6  1  0
  6  7  1  0
  7  8  1  0
  8  9  2  0
  9 10  1  0
 10 11  1  0
  9 12  1  0
 12 13  1  0
 13 14  1  0
 12 15  2  0
 15 16  1  0
 16 17  1  0
 15 18  1  0
 18 19  2  0
 19 20  1  0
 20 21  1  0
 21 22  1  0
 22 23  1  0
 22 24  1  0
 24 25  1  0
 25 26  1  0
 26 27  1  0
 27 28  1  0
 28 29  2  0
 28 30  1  0
 30 31  1  0
 31 32  1  0
 32 33  2  0
 32 34  1  0
 34 35  1  0
 35 36  1  0
 36 37  1  0
 37 38  1  0
 38 39  1  0
 38 40  1  0
 40 41  1  0
 41 42  1  0
 42 43  2  0
 43 44  1  0
 44 45  1  0
 45 46  1  0
 44 47  2  0
 47 48  1  0
 48 49  1  0
 47 50  1  0
 50 51  1  0
 51 52  1  0
 50 53  2  0
 53 54  1  0
 54 55  1  0
 55 56  1  0
 56 57  2  0
 57 58  1  0
 58 59  1  0
 59 60  1  0
 58 61  2  0
 61 62  1  0
 62 63  1  0
 61 64  1  0
 64 65  1  0
 65 66  1  0
 64 67  2  0
  5 68  2  0
 68 69  1  0
 69 70  1  0
 70 71  1  0
 69 72  2  0
 72 73  1  0
 73 74  1  0
 72  3  1  0
 22  7  1  0
 54 38  1  0
 67 56  1  0
 19  8  1  0
 53 42  1  0
  1 75  1  0
  1 76  1  0
  1 77  1  0
  4 78  1  0
  6 79  1  0
  6 80  1  0
  7 81  1  0
 11 82  1  0
 11 83  1  0
 11 84  1  0
 14 85  1  0
 14 86  1  0
 14 87  1  0
 17 88  1  0
 17 89  1  0
 17 90  1  0
 18 91  1  0
 20 92  1  0
 20 93  1  0
 21 94  1  0
 21 95  1  0
 23 96  1  0
 23 97  1  0
 23 98  1  0
 24 99  1  0
 24100  1  0
 25101  1  0
 25102  1  0
 26103  1  0
 26104  1  0
 30105  1  0
 30106  1  0
 31107  1  0
 31108  1  0
 35109  1  0
 35110  1  0
 36111  1  0
 36112  1  0
 37113  1  0
 37114  1  0
 39115  1  0
 39116  1  0
 39117  1  0
 40118  1  0
 40119  1  0
 41120  1  0
 41121  1  0
 43122  1  0
 46123  1  0
 46124  1  0
 46125  1  0
 49126  1  0
 49127  1  0
 49128  1  0
 52129  1  0
 52130  1  0
 52131  1  0
 54132  1  0
 55133  1  0
 55134  1  0
 57135  1  0
 60136  1  0
 60137  1  0
 60138  1  0
 63139  1  0
 63140  1  0
 63141  1  0
 66142  1  0
 66143  1  0
 66144  1  0
 67145  1  0
 68146  1  0
 71147  1  0
 71148  1  0
 71149  1  0
 74150  1  0
 74151  1  0
 74152  1  0
M  CHG  2  22   1  38   1
M  END
$$$$
