
     RDKit          3D

 65 68  0  0  0  0  0  0  0  0999 V2000
   -0.9410    1.5173    0.7229 C   0  0  2  0  0  0  0  0  0  0  0  0
   -0.4358    2.9553    0.7151 C   0  0  0  0  0  0  0  0  0  0  0  0
    0.9402    2.8841    1.4041 C   0  0  0  0  0  0  0  0  0  0  0  0
    1.2553    1.3712    1.6330 C   0  0  2  0  0  0  0  0  0  0  0  0
    0.8493    1.0226    2.9409 O   0  0  0  0  0  0  0  0  0  0  0  0
    2.7399    1.0296    1.4584 C   0  0  0  0  0  0  0  0  0  0  0  0
    3.4268    1.6552    0.6627 O   0  0  0  0  0  0  0  0  0  0  0  0
    3.3907   -0.0479    2.2902 C   0  0  0  0  0  0  0  0  0  0  0  0
    4.5399   -0.5789    1.6320 O   0  0  0  0  0  0  0  0  0  0  0  0
    4.4678   -1.4675    0.5538 C   0  0  0  0  0  0  0  0  0  0  0  0
    3.3598   -1.9322    0.1721 O   0  0  0  0  0  0  0  0  0  0  0  0
    5.7168   -1.8300   -0.1828 C   0  0  0  0  0  0  0  0  0  0  0  0
    5.9884   -0.8155   -1.2945 C   0  0  0  0  0  0  0  0  0  0  0  0
    7.2429   -1.1675   -2.0289 C   0  0  0  0  0  0  0  0  0  0  0  0
    8.4689   -0.6940   -1.5725 O   0  0  0  0  0  0  0  0  0  0  0  0
    7.1945   -1.9237   -3.0357 O   0  0  0  0  0  0  0  0  0  0  0  0
    0.3265    0.6608    0.5957 C   0  0  2  0  0  0  0  0  0  0  0  0
    0.9684    0.7294   -0.8327 C   0  0  0  0  0  0  0  0  0  0  0  0
   -0.0561   -0.8028    0.9428 C   0  0  0  0  0  0  0  0  0  0  0  0
   -1.2178   -1.3465    0.0637 C   0  0  2  0  0  0  0  0  0  0  0  0
   -0.7544   -1.6347   -1.2281 O   0  0  0  0  0  0  0  0  0  0  0  0
   -2.4582   -0.3819    0.0247 C   0  0  1  0  0  0  0  0  0  0  0  0
   -2.0620    1.1121   -0.2618 C   0  0  1  0  0  0  0  0  0  0  0  0
   -3.2829    2.0416   -0.0841 C   0  0  0  0  0  0  0  0  0  0  0  0
   -4.4452    1.6203   -0.9795 C   0  0  0  0  0  0  0  0  0  0  0  0
   -4.7933    0.1784   -0.7119 C   0  0  0  0  0  0  0  0  0  0  0  0
   -6.0510   -0.1442   -0.3693 C   0  0  0  0  0  0  0  0  0  0  0  0
   -6.4089   -1.5226   -0.0391 C   0  0  0  0  0  0  0  0  0  0  0  0
   -7.5964   -1.8152    0.2602 O   0  0  0  0  0  0  0  0  0  0  0  0
   -5.3763   -2.5548   -0.0420 C   0  0  0  0  0  0  0  0  0  0  0  0
   -4.1225   -2.2586   -0.3857 C   0  0  0  0  0  0  0  0  0  0  0  0
   -3.6780   -0.8711   -0.8532 C   0  0  2  0  0  0  0  0  0  0  0  0
   -3.3420   -0.9959   -2.3592 C   0  0  0  0  0  0  0  0  0  0  0  0
   -1.3669    1.3626    1.7451 H   0  0  0  0  0  0  0  0  0  0  0  0
   -1.1260    3.6249    1.2735 H   0  0  0  0  0  0  0  0  0  0  0  0
   -0.3331    3.3266   -0.3281 H   0  0  0  0  0  0  0  0  0  0  0  0
    0.9184    3.4444    2.3643 H   0  0  0  0  0  0  0  0  0  0  0  0
    1.6906    3.3786    0.7509 H   0  0  0  0  0  0  0  0  0  0  0  0
    1.4035    1.5400    3.5831 H   0  0  0  0  0  0  0  0  0  0  0  0
    3.7149    0.4020    3.2513 H   0  0  0  0  0  0  0  0  0  0  0  0
    2.6709   -0.8635    2.5178 H   0  0  0  0  0  0  0  0  0  0  0  0
    5.6095   -2.8487   -0.6167 H   0  0  0  0  0  0  0  0  0  0  0  0
    6.5681   -1.8440    0.5322 H   0  0  0  0  0  0  0  0  0  0  0  0
    6.0971    0.2017   -0.8585 H   0  0  0  0  0  0  0  0  0  0  0  0
    5.1347   -0.7974   -2.0075 H   0  0  0  0  0  0  0  0  0  0  0  0
    9.3293   -0.9363   -2.0491 H   0  0  0  0  0  0  0  0  0  0  0  0
    1.3520    1.7435   -1.0659 H   0  0  0  0  0  0  0  0  0  0  0  0
    1.8210    0.0229   -0.9055 H   0  0  0  0  0  0  0  0  0  0  0  0
    0.2738    0.4702   -1.6489 H   0  0  0  0  0  0  0  0  0  0  0  0
   -0.3812   -0.8733    2.0034 H   0  0  0  0  0  0  0  0  0  0  0  0
    0.8309   -1.4624    0.8420 H   0  0  0  0  0  0  0  0  0  0  0  0
   -1.5419   -2.2969    0.5449 H   0  0  0  0  0  0  0  0  0  0  0  0
   -0.1966   -2.4536   -1.1625 H   0  0  0  0  0  0  0  0  0  0  0  0
   -2.8427   -0.3907    1.0726 H   0  0  0  0  0  0  0  0  0  0  0  0
   -1.7103    1.2331   -1.3036 H   0  0  0  0  0  0  0  0  0  0  0  0
   -3.6196    2.0347    0.9767 H   0  0  0  0  0  0  0  0  0  0  0  0
   -3.0037    3.0848   -0.3466 H   0  0  0  0  0  0  0  0  0  0  0  0
   -5.3063    2.2969   -0.7845 H   0  0  0  0  0  0  0  0  0  0  0  0
   -4.1645    1.7454   -2.0468 H   0  0  0  0  0  0  0  0  0  0  0  0
   -6.8182    0.6182   -0.3026 H   0  0  0  0  0  0  0  0  0  0  0  0
   -5.6330   -3.5710    0.2313 H   0  0  0  0  0  0  0  0  0  0  0  0
   -3.4127   -3.0750   -0.4181 H   0  0  0  0  0  0  0  0  0  0  0  0
   -2.7337   -1.8979   -2.5758 H   0  0  0  0  0  0  0  0  0  0  0  0
   -4.2778   -1.1032   -2.9504 H   0  0  0  0  0  0  0  0  0  0  0  0
   -2.8008   -0.1094   -2.7439 H   0  0  0  0  0  0  0  0  0  0  0  0
  1  2  1  0
  2  3  1  0
  3  4  1  0
  4  5  1  1
  4  6  1  0
  6  7  2  0
  6  8  1  0
  8  9  1  0
  9 10  1  0
 10 11  2  0
 10 12  1  0
 12 13  1  0
 13 14  1  0
 14 15  1  0
 14 16  2  0
  4 17  1  0
 17 18  1  6
 17 19  1  0
 19 20  1  0
 20 21  1  0
 20 22  1  0
 22 23  1  0
 23 24  1  0
 24 25  1  0
 25 26  1  0
 26 27  2  0
 27 28  1  0
 28 29  2  0
 28 30  1  0
 30 31  2  0
 31 32  1  0
 32 33  1  6
 17  1  1  0
 32 22  1  0
 23  1  1  0
 32 26  1  0
  1 34  1  1
  2 35  1  0
  2 36  1  0
  3 37  1  0
  3 38  1  0
  5 39  1  0
  8 40  1  0
  8 41  1  0
 12 42  1  0
 12 43  1  0
 13 44  1  0
 13 45  1  0
 15 46  1  0
 18 47  1  0
 18 48  1  0
 18 49  1  0
 19 50  1  0
 19 51  1  0
 20 52  1  1
 21 53  1  0
 22 54  1  1
 23 55  1  6
 24 56  1  0
 24 57  1  0
 25 58  1  0
 25 59  1  0
 27 60  1  0
 30 61  1  0
 31 62  1  0
 33 63  1  0
 33 64  1  0
 33 65  1  0
M  END
$$$$
