
     RDKit          3D

 16 17  0  0  0  0  0  0  0  0999 V2000
    3.5572    0.4120   -0.0145 O   0  0  0  0  0  0  0  0  0  0  0  0
    2.3059    0.2707   -0.0094 C   0  0  0  0  0  0  0  0  0  0  0  0
    1.6974   -0.9418   -0.0204 N   0  0  0  0  0  0  0  0  0  0  0  0
    0.3933   -0.6245   -0.0095 C   0  0  0  0  0  0  0  0  0  0  0  0
    0.2379    0.7217    0.0072 C   0  0  0  0  0  0  0  0  0  0  0  0
    1.4421    1.3173    0.0077 N   0  0  0  0  0  0  0  0  0  0  0  0
   -1.0338    1.2754    0.0207 C   0  0  0  0  0  0  0  0  0  0  0  0
   -1.2032    2.5237    0.0364 O   0  0  0  0  0  0  0  0  0  0  0  0
   -2.1025    0.4209    0.0164 N   0  0  0  0  0  0  0  0  0  0  0  0
   -1.9228   -0.9429   -0.0007 C   0  0  0  0  0  0  0  0  0  0  0  0
   -2.9248   -1.7071   -0.0042 O   0  0  0  0  0  0  0  0  0  0  0  0
   -0.6606   -1.4760   -0.0138 N   0  0  0  0  0  0  0  0  0  0  0  0
    2.1354   -1.8897   -0.0340 H   0  0  0  0  0  0  0  0  0  0  0  0
    1.6615    2.3384    0.0186 H   0  0  0  0  0  0  0  0  0  0  0  0
   -3.0722    0.8120    0.0263 H   0  0  0  0  0  0  0  0  0  0  0  0
   -0.5108   -2.5101   -0.0269 H   0  0  0  0  0  0  0  0  0  0  0  0
  1  2  2  0
  2  3  1  0
  3  4  1  0
  4  5  2  0
  5  6  1  0
  5  7  1  0
  7  8  2  0
  7  9  1  0
  9 10  1  0
 10 11  2  0
 10 12  1  0
  6  2  1  0
 12  4  1  0
  3 13  1  0
  6 14  1  0
  9 15  1  0
 12 16  1  0
M  END
$$$$
