
     RDKit          3D

 31 31  0  0  0  0  0  0  0  0999 V2000
   -2.1753   -1.2878    0.2652 C   0  0  0  0  0  0  0  0  0  0  0  0
   -2.5494   -1.4672    1.6728 N   0  0  0  0  0  0  0  0  0  0  0  0
   -3.2842   -0.8119   -0.4537 O   0  0  0  0  0  0  0  0  0  0  0  0
   -0.9575   -0.3244    0.0992 C   0  0  1  0  0  0  0  0  0  0  0  0
    0.1383   -0.9168    0.7860 O   0  0  0  0  0  0  0  0  0  0  0  0
    1.4344   -0.3806    0.5131 C   0  0  2  0  0  0  0  0  0  0  0  0
    2.1323   -0.1500    1.8630 C   0  0  0  0  0  0  0  0  0  0  0  0
    3.5107    0.0509    1.6897 O   0  0  0  0  0  0  0  0  0  0  0  0
    1.4674    0.9065   -0.3658 C   0  0  1  0  0  0  0  0  0  0  0  0
    2.7860    1.2646   -0.7025 O   0  0  0  0  0  0  0  0  0  0  0  0
    0.6219    0.7474   -1.6489 C   0  0  2  0  0  0  0  0  0  0  0  0
    0.2211    2.0152   -2.1053 O   0  0  0  0  0  0  0  0  0  0  0  0
   -0.6294   -0.1363   -1.4180 C   0  0  1  0  0  0  0  0  0  0  0  0
   -0.4764   -1.3803   -2.0614 O   0  0  0  0  0  0  0  0  0  0  0  0
   -1.2698    0.9676    0.7274 N   0  0  0  0  0  0  0  0  0  0  0  0
   -2.1645    1.7048    0.3092 N   0  0  0  0  0  4  0  0  0  0  0  0
   -3.0566    2.4416   -0.1079 N   0  0  0  0  0  2  0  0  0  0  0  0
   -1.8882   -2.2866   -0.1388 H   0  0  0  0  0  0  0  0  0  0  0  0
   -2.8276   -0.5478    2.0853 H   0  0  0  0  0  0  0  0  0  0  0  0
   -1.7286   -1.8289    2.2099 H   0  0  0  0  0  0  0  0  0  0  0  0
   -3.9531   -1.5455   -0.4631 H   0  0  0  0  0  0  0  0  0  0  0  0
    2.0027   -1.1739   -0.0207 H   0  0  0  0  0  0  0  0  0  0  0  0
    1.9977   -1.0533    2.4960 H   0  0  0  0  0  0  0  0  0  0  0  0
    1.6549    0.7016    2.4031 H   0  0  0  0  0  0  0  0  0  0  0  0
    3.6822    1.0212    1.8100 H   0  0  0  0  0  0  0  0  0  0  0  0
    1.0517    1.7465    0.2315 H   0  0  0  0  0  0  0  0  0  0  0  0
    3.1956    0.4984   -1.1833 H   0  0  0  0  0  0  0  0  0  0  0  0
    1.2433    0.2646   -2.4406 H   0  0  0  0  0  0  0  0  0  0  0  0
    1.0235    2.4476   -2.4994 H   0  0  0  0  0  0  0  0  0  0  0  0
   -1.4986    0.3589   -1.9047 H   0  0  0  0  0  0  0  0  0  0  0  0
    0.2956   -1.8459   -1.6473 H   0  0  0  0  0  0  0  0  0  0  0  0
  1  2  1  0
  1  3  1  0
  4  1  1  6
  4  5  1  0
  5  6  1  0
  6  7  1  0
  7  8  1  0
  6  9  1  0
  9 10  1  0
  9 11  1  0
 11 12  1  0
 11 13  1  0
 13 14  1  0
  4 15  1  0
 15 16  2  0
 16 17  2  0
 13  4  1  0
  1 18  1  0
  2 19  1  0
  2 20  1  0
  3 21  1  0
  6 22  1  6
  7 23  1  0
  7 24  1  0
  8 25  1  0
  9 26  1  1
 10 27  1  0
 11 28  1  6
 12 29  1  0
 13 30  1  6
 14 31  1  0
M  CHG  2  16   1  17  -1
M  END
$$$$
