
     RDKit          3D

 24 24  0  0  0  0  0  0  0  0999 V2000
    3.4128   -0.9276    1.3976 C   0  0  0  0  0  0  0  0  0  0  0  0
    2.7661   -0.2590    0.1954 C   0  0  0  0  0  0  0  0  0  0  0  0
    1.3517   -0.2625    0.3540 O   0  0  0  0  0  0  0  0  0  0  0  0
    0.4819    0.2846   -0.5931 C   0  0  0  0  0  0  0  0  0  0  0  0
    0.9406    0.8109   -1.6433 O   0  0  0  0  0  0  0  0  0  0  0  0
   -0.9762    0.2450   -0.3610 C   0  0  0  0  0  0  0  0  0  0  0  0
   -1.9864    0.7313   -1.1774 C   0  0  0  0  0  0  0  0  0  0  0  0
   -1.8329    1.4172   -2.4986 C   0  0  0  0  0  0  0  0  0  0  0  0
   -3.1731    0.4896   -0.5902 N   0  0  0  0  0  0  0  0  0  0  0  0
   -2.9807   -0.1281    0.5639 N   0  0  0  0  0  0  0  0  0  0  0  0
   -1.6526   -0.2898    0.7289 C   0  0  0  0  0  0  0  0  0  0  0  0
   -1.0504   -0.9532    1.9258 C   0  0  0  0  0  0  0  0  0  0  0  0
    3.1491   -0.3766    2.3252 H   0  0  0  0  0  0  0  0  0  0  0  0
    4.5168   -0.9274    1.2785 H   0  0  0  0  0  0  0  0  0  0  0  0
    3.0587   -1.9768    1.4838 H   0  0  0  0  0  0  0  0  0  0  0  0
    3.0420   -0.8148   -0.7270 H   0  0  0  0  0  0  0  0  0  0  0  0
    3.1326    0.7875    0.1155 H   0  0  0  0  0  0  0  0  0  0  0  0
   -2.8272    1.6898   -2.9102 H   0  0  0  0  0  0  0  0  0  0  0  0
   -1.2339    2.3431   -2.3726 H   0  0  0  0  0  0  0  0  0  0  0  0
   -1.3245    0.7396   -3.2157 H   0  0  0  0  0  0  0  0  0  0  0  0
   -4.1135    0.7413   -0.9679 H   0  0  0  0  0  0  0  0  0  0  0  0
   -0.4715   -1.8458    1.6092 H   0  0  0  0  0  0  0  0  0  0  0  0
   -1.8487   -1.2765    2.6265 H   0  0  0  0  0  0  0  0  0  0  0  0
   -0.3808   -0.2417    2.4526 H   0  0  0  0  0  0  0  0  0  0  0  0
  1  2  1  0
  2  3  1  0
  3  4  1  0
  4  5  2  0
  4  6  1  0
  6  7  2  0
  7  8  1  0
  7  9  1  0
  9 10  1  0
 10 11  2  0
 11 12  1  0
 11  6  1  0
  1 13  1  0
  1 14  1  0
  1 15  1  0
  2 16  1  0
  2 17  1  0
  8 18  1  0
  8 19  1  0
  8 20  1  0
  9 21  1  0
 12 22  1  0
 12 23  1  0
 12 24  1  0
M  END
$$$$
