
     RDKit          3D

 47 51  0  0  0  0  0  0  0  0999 V2000
    0.6132    0.1831   -2.2783 C   0  0  0  0  0  0  0  0  0  0  0  0
    0.4954    0.9555   -0.9538 C   0  0  2  0  0  0  0  0  0  0  0  0
    1.4380    0.4515    0.0515 N   0  0  0  0  0  0  0  0  0  0  0  0
    2.8603    0.4430   -0.1436 C   0  0  0  0  0  0  0  0  0  0  0  0
    3.7103   -0.1780    0.7652 C   0  0  0  0  0  0  0  0  0  0  0  0
    3.4145   -0.8491    1.8929 N   0  0  0  0  0  0  0  0  0  0  0  0
    4.6427   -1.2316    2.3404 C   0  0  0  0  0  0  0  0  0  0  0  0
    5.6635   -0.8290    1.5422 N   0  0  0  0  0  0  0  0  0  0  0  0
    5.0458   -0.1689    0.5589 C   0  0  0  0  0  0  0  0  0  0  0  0
    5.6170    0.4311   -0.5121 N   0  0  0  0  0  0  0  0  0  0  0  0
    4.7944    1.0500   -1.4120 C   0  0  0  0  0  0  0  0  0  0  0  0
    3.4353    1.0533   -1.2248 N   0  0  0  0  0  0  0  0  0  0  0  0
   -0.9360    0.9631   -0.4021 C   0  0  0  0  0  0  0  0  0  0  0  0
   -1.5322    2.2127   -0.1864 C   0  0  0  0  0  0  0  0  0  0  0  0
   -2.8187    2.3063    0.3405 C   0  0  0  0  0  0  0  0  0  0  0  0
   -3.3922    3.5711    0.5430 C   0  0  0  0  0  0  0  0  0  0  0  0
   -4.6753    3.6856    1.0692 C   0  0  0  0  0  0  0  0  0  0  0  0
   -5.3986    2.5431    1.3988 C   0  0  0  0  0  0  0  0  0  0  0  0
   -4.8507    1.2689    1.2080 C   0  0  0  0  0  0  0  0  0  0  0  0
   -5.8759   -0.0919    1.6678 Cl  0  0  0  0  0  0  0  0  0  0  0  0
   -3.5369    1.1330    0.6699 C   0  0  0  0  0  0  0  0  0  0  0  0
   -2.9065   -0.1169    0.4457 C   0  0  0  0  0  0  0  0  0  0  0  0
   -3.5119   -1.1885    0.7279 O   0  0  0  0  0  0  0  0  0  0  0  0
   -1.6353   -0.1838   -0.0778 N   0  0  0  0  0  0  0  0  0  0  0  0
   -1.0743   -1.4947   -0.2932 C   0  0  0  0  0  0  0  0  0  0  0  0
   -0.3422   -2.1304    0.7223 C   0  0  0  0  0  0  0  0  0  0  0  0
    0.1561   -3.4219    0.5272 C   0  0  0  0  0  0  0  0  0  0  0  0
   -0.1040   -4.0997   -0.6673 C   0  0  0  0  0  0  0  0  0  0  0  0
   -0.8765   -3.4928   -1.6617 C   0  0  0  0  0  0  0  0  0  0  0  0
   -1.3742   -2.2004   -1.4701 C   0  0  0  0  0  0  0  0  0  0  0  0
   -0.3289    0.2521   -2.8632 H   0  0  0  0  0  0  0  0  0  0  0  0
    1.4223    0.6166   -2.9029 H   0  0  0  0  0  0  0  0  0  0  0  0
    0.8707   -0.8810   -2.1026 H   0  0  0  0  0  0  0  0  0  0  0  0
    0.7952    2.0019   -1.1867 H   0  0  0  0  0  0  0  0  0  0  0  0
    1.0795    0.1891    0.9961 H   0  0  0  0  0  0  0  0  0  0  0  0
    4.7892   -1.8046    3.2464 H   0  0  0  0  0  0  0  0  0  0  0  0
    6.6861   -0.9983    1.6667 H   0  0  0  0  0  0  0  0  0  0  0  0
    5.2179    1.5399   -2.2779 H   0  0  0  0  0  0  0  0  0  0  0  0
   -0.9911    3.1213   -0.4269 H   0  0  0  0  0  0  0  0  0  0  0  0
   -2.8466    4.4737    0.2934 H   0  0  0  0  0  0  0  0  0  0  0  0
   -5.1114    4.6644    1.2224 H   0  0  0  0  0  0  0  0  0  0  0  0
   -6.3959    2.6504    1.8072 H   0  0  0  0  0  0  0  0  0  0  0  0
   -0.1710   -1.6313    1.6669 H   0  0  0  0  0  0  0  0  0  0  0  0
    0.7334   -3.9019    1.3067 H   0  0  0  0  0  0  0  0  0  0  0  0
    0.2797   -5.1008   -0.8159 H   0  0  0  0  0  0  0  0  0  0  0  0
   -1.0933   -4.0253   -2.5787 H   0  0  0  0  0  0  0  0  0  0  0  0
   -1.9810   -1.7400   -2.2394 H   0  0  0  0  0  0  0  0  0  0  0  0
  1  2  1  0
  2  3  1  0
  3  4  1  0
  4  5  2  0
  5  6  1  0
  6  7  2  0
  7  8  1  0
  8  9  1  0
  9 10  2  0
 10 11  1  0
 11 12  2  0
  2 13  1  0
 13 14  2  0
 14 15  1  0
 15 16  2  0
 16 17  1  0
 17 18  2  0
 18 19  1  0
 19 20  1  0
 19 21  2  0
 21 22  1  0
 22 23  2  0
 22 24  1  0
 24 25  1  0
 25 26  2  0
 26 27  1  0
 27 28  2  0
 28 29  1  0
 29 30  2  0
 12  4  1  0
 24 13  1  0
 30 25  1  0
  9  5  1  0
 21 15  1  0
  1 31  1  0
  1 32  1  0
  1 33  1  0
  2 34  1  6
  3 35  1  0
  7 36  1  0
  8 37  1  0
 11 38  1  0
 14 39  1  0
 16 40  1  0
 17 41  1  0
 18 42  1  0
 26 43  1  0
 27 44  1  0
 28 45  1  0
 29 46  1  0
 30 47  1  0
M  END
$$$$
