
     RDKit          3D

 55 58  0  0  0  0  0  0  0  0999 V2000
   -2.6416   -0.9467   -2.5707 C   0  0  1  0  0  0  0  0  0  0  0  0
   -3.6193   -2.0355   -2.0819 C   0  0  0  0  0  0  0  0  0  0  0  0
   -4.3139   -2.7048   -3.2290 C   0  0  0  0  0  0  0  0  0  0  0  0
   -3.6703   -3.7094   -3.9404 O   0  0  0  0  0  1  0  0  0  0  0  0
   -5.4666   -2.3353   -3.5759 O   0  0  0  0  0  0  0  0  0  0  0  0
   -3.3530    0.1965   -3.2482 C   0  0  0  0  0  0  0  0  0  0  0  0
   -4.5454    0.6949   -2.7295 O   0  0  0  0  0  0  0  0  0  0  0  0
   -2.8444    0.7329   -4.2688 O   0  0  0  0  0  0  0  0  0  0  0  0
   -1.7942   -0.4262   -1.4253 C   0  0  0  0  0  0  0  0  0  0  0  0
   -2.3860    0.2084   -0.3214 C   0  0  0  0  0  0  0  0  0  0  0  0
   -1.6048    0.6703    0.7477 C   0  0  0  0  0  0  0  0  0  0  0  0
   -0.2069    0.5062    0.7083 C   0  0  0  0  0  0  0  0  0  0  0  0
    0.5606    0.9005    1.8010 O   0  0  0  0  0  1  0  0  0  0  0  0
    0.4048   -0.0960   -0.4104 C   0  0  0  0  0  0  0  0  0  0  0  0
   -0.3986   -0.5730   -1.4588 C   0  0  0  0  0  0  0  0  0  0  0  0
    1.8742   -0.2640   -0.4979 C   0  0  0  0  0  0  0  0  0  0  0  0
    2.4551   -1.3055   -1.1544 N   0  0  0  0  0  0  0  0  0  0  0  0
    3.7684   -1.0524   -1.0185 C   0  0  0  0  0  0  0  0  0  0  0  0
    3.9603    0.0974   -0.3181 C   0  0  0  0  0  0  0  0  0  0  0  0
    2.7728    0.6153    0.0176 N   0  0  0  0  0  0  0  0  0  0  0  0
    5.2297    0.6038   -0.0525 C   0  0  0  0  0  0  0  0  0  0  0  0
    6.3467   -0.1210   -0.5321 C   0  0  0  0  0  0  0  0  0  0  0  0
    6.1361   -1.3264   -1.2587 C   0  0  0  0  0  0  0  0  0  0  0  0
    4.8341   -1.7990   -1.5090 C   0  0  0  0  0  0  0  0  0  0  0  0
    7.7208    0.3746   -0.2690 C   0  0  0  0  0  0  0  0  0  0  0  0
    8.0272    1.0233    0.9680 N   0  0  0  0  0  0  0  0  0  0  0  0
    8.6595    0.2389   -1.1537 N   0  0  0  0  0  0  0  0  0  0  0  0
   -2.2630    1.3197    1.9069 C   0  0  0  0  0  0  0  0  0  0  0  0
   -1.8720    2.6142    2.2901 C   0  0  0  0  0  0  0  0  0  0  0  0
   -2.4913    3.2508    3.3668 C   0  0  0  0  0  0  0  0  0  0  0  0
   -3.5074    2.6047    4.0704 C   0  0  0  0  0  0  0  0  0  0  0  0
   -3.9071    1.3181    3.7023 C   0  0  0  0  0  0  0  0  0  0  0  0
   -3.2884    0.6605    2.6199 C   0  0  0  0  0  0  0  0  0  0  0  0
   -3.6554   -0.6412    2.2385 O   0  0  0  0  0  0  0  0  0  0  0  0
   -4.6820   -1.4073    2.8593 C   0  0  0  0  0  0  0  0  0  0  0  0
   -1.9760   -1.4229   -3.3268 H   0  0  0  0  0  0  0  0  0  0  0  0
   -3.0541   -2.8103   -1.5193 H   0  0  0  0  0  0  0  0  0  0  0  0
   -4.3754   -1.6084   -1.3875 H   0  0  0  0  0  0  0  0  0  0  0  0
   -5.0192    1.4735   -3.1714 H   0  0  0  0  0  0  0  0  0  0  0  0
   -3.4598    0.3459   -0.2921 H   0  0  0  0  0  0  0  0  0  0  0  0
    0.0671   -1.0484   -2.3140 H   0  0  0  0  0  0  0  0  0  0  0  0
    2.5956    1.5149    0.5169 H   0  0  0  0  0  0  0  0  0  0  0  0
    5.3428    1.5342    0.4894 H   0  0  0  0  0  0  0  0  0  0  0  0
    6.9756   -1.9091   -1.6154 H   0  0  0  0  0  0  0  0  0  0  0  0
    4.6687   -2.7141   -2.0627 H   0  0  0  0  0  0  0  0  0  0  0  0
    7.3264    1.0758    1.7399 H   0  0  0  0  0  0  0  0  0  0  0  0
    8.9824    1.4100    1.1379 H   0  0  0  0  0  0  0  0  0  0  0  0
    8.5017   -0.2045   -2.0858 H   0  0  0  0  0  0  0  0  0  0  0  0
   -1.0947    3.1361    1.7453 H   0  0  0  0  0  0  0  0  0  0  0  0
   -2.1857    4.2489    3.6533 H   0  0  0  0  0  0  0  0  0  0  0  0
   -3.9868    3.1017    4.9039 H   0  0  0  0  0  0  0  0  0  0  0  0
   -4.6952    0.8417    4.2690 H   0  0  0  0  0  0  0  0  0  0  0  0
   -5.6564   -0.8819    2.7716 H   0  0  0  0  0  0  0  0  0  0  0  0
   -4.4350   -1.5822    3.9277 H   0  0  0  0  0  0  0  0  0  0  0  0
   -4.7606   -2.3884    2.3477 H   0  0  0  0  0  0  0  0  0  0  0  0
  1  2  1  0
  2  3  1  0
  3  4  1  0
  3  5  2  0
  1  6  1  0
  6  7  1  0
  6  8  2  0
  1  9  1  0
  9 10  2  0
 10 11  1  0
 11 12  2  0
 12 13  1  0
 12 14  1  0
 14 15  2  0
 14 16  1  0
 16 17  2  0
 17 18  1  0
 18 19  2  0
 19 20  1  0
 19 21  1  0
 21 22  2  0
 22 23  1  0
 23 24  2  0
 22 25  1  0
 25 26  1  0
 25 27  2  3
 11 28  1  0
 28 29  2  0
 29 30  1  0
 30 31  2  0
 31 32  1  0
 32 33  2  0
 33 34  1  0
 34 35  1  0
 15  9  1  0
 20 16  1  0
 33 28  1  0
 24 18  1  0
  1 36  1  6
  2 37  1  0
  2 38  1  0
  7 39  1  0
 10 40  1  0
 15 41  1  0
 20 42  1  0
 21 43  1  0
 23 44  1  0
 24 45  1  0
 26 46  1  0
 26 47  1  0
 27 48  1  0
 29 49  1  0
 30 50  1  0
 31 51  1  0
 32 52  1  0
 35 53  1  0
 35 54  1  0
 35 55  1  0
M  CHG  2   4  -1  13  -1
M  END
$$$$
