
     RDKit          3D

 42 44  0  0  0  0  0  0  0  0999 V2000
   -6.5044   -0.0623   -1.6771 N   0  0  0  0  0  0  0  0  0  0  0  0
   -5.5199    0.2032   -0.6782 C   0  0  0  0  0  0  0  0  0  0  0  0
   -4.2357   -0.2323   -0.8638 N   0  0  0  0  0  0  0  0  0  0  0  0
   -3.3257    0.0325    0.1038 C   0  0  0  0  0  0  0  0  0  0  0  0
   -3.6347    0.7140    1.2283 C   0  0  0  0  0  0  0  0  0  0  0  0
   -2.5439    0.8729    2.0015 N   0  0  0  0  0  0  0  0  0  0  0  0
   -1.5723    0.2487    1.2792 C   0  0  0  0  0  0  0  0  0  0  0  0
   -2.0265   -0.2873    0.1154 N   0  0  0  0  0  0  0  0  0  0  0  0
   -1.2511   -0.9334   -0.9446 C   0  0  1  0  0  0  0  0  0  0  0  0
   -0.7161    0.0984   -1.9240 C   0  0  0  0  0  0  0  0  0  0  0  0
    0.6143   -0.4756   -2.3258 C   0  0  2  0  0  0  0  0  0  0  0  0
    0.5088   -1.2318   -3.5097 O   0  0  0  0  0  0  0  0  0  0  0  0
    0.9914   -1.3581   -1.1283 C   0  0  1  0  0  0  0  0  0  0  0  0
    2.0034   -0.6692   -0.2039 C   0  0  0  0  0  0  0  0  0  0  0  0
    3.2300   -0.5167   -0.8801 O   0  0  0  0  0  0  0  0  0  0  0  0
    4.2943    0.3556    0.1269 P   0  0  0  0  0  5  0  0  0  0  0  0
    5.8186    0.3725   -0.6080 O   0  0  0  0  0  0  0  0  0  0  0  0
    3.7931    1.7774    0.2637 O   0  0  0  0  0  0  0  0  0  0  0  0
    4.3901   -0.4075    1.6486 O   0  0  0  0  0  0  0  0  0  0  0  0
    5.3376    0.5735    2.6682 P   0  0  0  0  0  5  0  0  0  0  0  0
    6.8335    0.9218    1.9552 O   0  0  0  0  0  0  0  0  0  0  0  0
    5.6103   -0.2592    4.1156 O   0  0  0  0  0  0  0  0  0  0  0  0
    4.6083    1.8626    2.9769 O   0  0  0  0  0  0  0  0  0  0  0  0
   -0.1743   -1.6575   -0.3882 O   0  0  0  0  0  0  0  0  0  0  0  0
   -4.9309    1.1647    1.4292 C   0  0  0  0  0  0  0  0  0  0  0  0
   -5.2448    1.8061    2.4672 O   0  0  0  0  0  0  0  0  0  0  0  0
   -5.8607    0.8945    0.4623 N   0  0  0  0  0  0  0  0  0  0  0  0
   -7.4893    0.2620   -1.5549 H   0  0  0  0  0  0  0  0  0  0  0  0
   -6.2480   -0.5856   -2.5435 H   0  0  0  0  0  0  0  0  0  0  0  0
   -0.5394    0.2009    1.5985 H   0  0  0  0  0  0  0  0  0  0  0  0
   -1.9025   -1.6526   -1.4898 H   0  0  0  0  0  0  0  0  0  0  0  0
   -1.3986    0.2385   -2.7908 H   0  0  0  0  0  0  0  0  0  0  0  0
   -0.5587    1.0772   -1.4174 H   0  0  0  0  0  0  0  0  0  0  0  0
    1.3484    0.3418   -2.5005 H   0  0  0  0  0  0  0  0  0  0  0  0
   -0.1442   -1.9644   -3.3545 H   0  0  0  0  0  0  0  0  0  0  0  0
    1.4411   -2.3126   -1.4820 H   0  0  0  0  0  0  0  0  0  0  0  0
    2.1399   -1.3116    0.6952 H   0  0  0  0  0  0  0  0  0  0  0  0
    1.5857    0.3156    0.1097 H   0  0  0  0  0  0  0  0  0  0  0  0
    6.0839   -0.5804   -0.6566 H   0  0  0  0  0  0  0  0  0  0  0  0
    7.3263    1.4390    2.6410 H   0  0  0  0  0  0  0  0  0  0  0  0
    4.7068   -0.4987    4.4433 H   0  0  0  0  0  0  0  0  0  0  0  0
   -6.8442    1.2235    0.5922 H   0  0  0  0  0  0  0  0  0  0  0  0
  1  2  1  0
  2  3  2  0
  3  4  1  0
  4  5  2  0
  5  6  1  0
  6  7  2  0
  7  8  1  0
  8  9  1  0
  9 10  1  0
 10 11  1  0
 11 12  1  0
 11 13  1  0
 13 14  1  0
 14 15  1  0
 15 16  1  0
 16 17  1  0
 16 18  2  0
 16 19  1  0
 19 20  1  0
 20 21  1  0
 20 22  1  0
 20 23  2  0
 13 24  1  0
  5 25  1  0
 25 26  2  0
 25 27  1  0
 27  2  1  0
  8  4  1  0
 24  9  1  0
  1 28  1  0
  1 29  1  0
  7 30  1  0
  9 31  1  6
 10 32  1  0
 10 33  1  0
 11 34  1  6
 12 35  1  0
 13 36  1  6
 14 37  1  0
 14 38  1  0
 17 39  1  0
 21 40  1  0
 22 41  1  0
 27 42  1  0
M  END
$$$$
