
     RDKit          3D

 50 51  0  0  0  0  0  0  0  0999 V2000
    1.9408    0.9154    0.2715 C   0  0  1  0  0  0  0  0  0  0  0  0
    2.1348    2.0449   -0.6464 N   0  0  0  0  0  0  0  0  0  0  0  0
    3.2620    0.5332    0.9850 C   0  0  0  0  0  0  0  0  0  0  0  0
    4.3528    0.0856    0.0081 C   0  0  0  0  0  0  0  0  0  0  0  0
    5.8006   -0.5250    0.9360 S   0  0  0  0  0  0  0  0  0  0  0  0
    6.7733   -0.9303   -0.5532 C   0  0  0  0  0  0  0  0  0  0  0  0
    8.1252   -1.4994   -0.1507 C   0  0  0  0  0  0  0  0  0  0  0  0
    0.8399    1.2707    1.2985 C   0  0  2  0  0  0  0  0  0  0  0  0
    0.5646    0.1659    2.1234 O   0  0  0  0  0  0  0  0  0  0  0  0
   -0.4310    1.6702    0.5987 C   0  0  0  0  0  0  0  0  0  0  0  0
   -0.7919    2.8786    0.6131 O   0  0  0  0  0  0  0  0  0  0  0  0
   -1.2119    0.6899   -0.1020 N   0  0  0  0  0  0  0  0  0  0  0  0
   -2.3860    1.0437   -0.9028 C   0  0  1  0  0  0  0  0  0  0  0  0
   -1.9338    1.4909   -2.3004 C   0  0  0  0  0  0  0  0  0  0  0  0
   -3.3864   -0.1151   -0.8862 C   0  0  0  0  0  0  0  0  0  0  0  0
   -4.1826   -0.3839    0.2682 C   0  0  0  0  0  0  0  0  0  0  0  0
   -4.0792    0.3810    1.4539 C   0  0  0  0  0  0  0  0  0  0  0  0
   -4.8833    0.0972    2.5602 C   0  0  0  0  0  0  0  0  0  0  0  0
   -5.7990   -0.9517    2.5149 C   0  0  0  0  0  0  0  0  0  0  0  0
   -5.9106   -1.7328    1.3658 C   0  0  0  0  0  0  0  0  0  0  0  0
   -5.1077   -1.4654    0.2454 C   0  0  0  0  0  0  0  0  0  0  0  0
   -5.2125   -2.2767   -0.8897 C   0  0  0  0  0  0  0  0  0  0  0  0
   -4.4024   -2.0429   -1.9947 C   0  0  0  0  0  0  0  0  0  0  0  0
   -3.4944   -0.9863   -1.9934 C   0  0  0  0  0  0  0  0  0  0  0  0
    1.5950    0.0342   -0.3156 H   0  0  0  0  0  0  0  0  0  0  0  0
    2.6518    1.7187   -1.4943 H   0  0  0  0  0  0  0  0  0  0  0  0
    2.7043    2.7887   -0.1805 H   0  0  0  0  0  0  0  0  0  0  0  0
    3.0660   -0.3078    1.6848 H   0  0  0  0  0  0  0  0  0  0  0  0
    3.6337    1.3945    1.5826 H   0  0  0  0  0  0  0  0  0  0  0  0
    3.9642   -0.7284   -0.6411 H   0  0  0  0  0  0  0  0  0  0  0  0
    4.6714    0.9415   -0.6232 H   0  0  0  0  0  0  0  0  0  0  0  0
    6.2276   -1.6815   -1.1633 H   0  0  0  0  0  0  0  0  0  0  0  0
    6.9290   -0.0126   -1.1595 H   0  0  0  0  0  0  0  0  0  0  0  0
    8.6897   -0.7552    0.4503 H   0  0  0  0  0  0  0  0  0  0  0  0
    7.9877   -2.4257    0.4465 H   0  0  0  0  0  0  0  0  0  0  0  0
    8.7127   -1.7442   -1.0606 H   0  0  0  0  0  0  0  0  0  0  0  0
    1.1871    2.1372    1.9132 H   0  0  0  0  0  0  0  0  0  0  0  0
    1.0788    0.2879    2.9639 H   0  0  0  0  0  0  0  0  0  0  0  0
   -0.8675   -0.2970   -0.1308 H   0  0  0  0  0  0  0  0  0  0  0  0
   -2.8925    1.9304   -0.4645 H   0  0  0  0  0  0  0  0  0  0  0  0
   -1.3688    2.4442   -2.2233 H   0  0  0  0  0  0  0  0  0  0  0  0
   -2.8134    1.6639   -2.9567 H   0  0  0  0  0  0  0  0  0  0  0  0
   -1.2607    0.7368   -2.7608 H   0  0  0  0  0  0  0  0  0  0  0  0
   -3.3746    1.1932    1.5535 H   0  0  0  0  0  0  0  0  0  0  0  0
   -4.7927    0.6930    3.4595 H   0  0  0  0  0  0  0  0  0  0  0  0
   -6.4187   -1.1655    3.3763 H   0  0  0  0  0  0  0  0  0  0  0  0
   -6.6208   -2.5514    1.3547 H   0  0  0  0  0  0  0  0  0  0  0  0
   -5.9116   -3.1044   -0.9163 H   0  0  0  0  0  0  0  0  0  0  0  0
   -4.4765   -2.6880   -2.8610 H   0  0  0  0  0  0  0  0  0  0  0  0
   -2.8825   -0.8604   -2.8743 H   0  0  0  0  0  0  0  0  0  0  0  0
  1  2  1  0
  1  3  1  0
  3  4  1  0
  4  5  1  0
  5  6  1  0
  6  7  1  0
  1  8  1  0
  8  9  1  0
  8 10  1  0
 10 11  2  0
 10 12  1  0
 12 13  1  0
 13 14  1  0
 13 15  1  0
 15 16  2  0
 16 17  1  0
 17 18  2  0
 18 19  1  0
 19 20  2  0
 20 21  1  0
 21 22  2  0
 22 23  1  0
 23 24  2  0
 24 15  1  0
 21 16  1  0
  1 25  1  6
  2 26  1  0
  2 27  1  0
  3 28  1  0
  3 29  1  0
  4 30  1  0
  4 31  1  0
  6 32  1  0
  6 33  1  0
  7 34  1  0
  7 35  1  0
  7 36  1  0
  8 37  1  1
  9 38  1  0
 12 39  1  0
 13 40  1  1
 14 41  1  0
 14 42  1  0
 14 43  1  0
 17 44  1  0
 18 45  1  0
 19 46  1  0
 20 47  1  0
 22 48  1  0
 23 49  1  0
 24 50  1  0
M  END
$$$$
