
     RDKit          3D

 48 50  0  0  0  0  0  0  0  0999 V2000
   -5.4555    1.0949   -0.6513 C   0  0  0  0  0  0  0  0  0  0  0  0
   -4.0991    0.8564   -0.1280 N   0  0  0  0  0  0  0  0  0  0  0  0
   -3.9286    1.5798    1.1420 C   0  0  0  0  0  0  0  0  0  0  0  0
   -3.0689    1.2837   -1.1014 C   0  0  0  0  0  0  0  0  0  0  0  0
   -2.8374    0.2164   -2.1802 C   0  0  0  0  0  0  0  0  0  0  0  0
   -2.4933   -1.1120   -1.5721 C   0  0  0  0  0  0  0  0  0  0  0  0
   -3.3661   -2.1731   -1.3517 C   0  0  0  0  0  0  0  0  0  0  0  0
   -2.7340   -3.1757   -0.7001 N   0  0  0  0  0  0  0  0  0  0  0  0
   -1.4747   -2.7510   -0.4968 C   0  0  0  0  0  0  0  0  0  0  0  0
   -1.2907   -1.4946   -1.0119 C   0  0  0  0  0  0  0  0  0  0  0  0
   -0.0753   -0.8222   -0.8957 C   0  0  0  0  0  0  0  0  0  0  0  0
    0.9850   -1.4776   -0.2324 C   0  0  0  0  0  0  0  0  0  0  0  0
    2.2970   -0.7732   -0.0384 C   0  0  0  0  0  0  0  0  0  0  0  0
    2.2737    0.1708    1.4836 S   0  0  0  0  0  6  0  0  0  0  0  0
    2.1831   -0.7776    2.6464 O   0  0  0  0  0  0  0  0  0  0  0  0
    1.0654    1.0660    1.4972 O   0  0  0  0  0  0  0  0  0  0  0  0
    3.7134    1.1503    1.6571 N   0  0  0  0  0  0  0  0  0  0  0  0
    4.9289    0.3321    1.5566 C   0  0  0  0  0  0  0  0  0  0  0  0
    5.5697    0.6165    0.2128 C   0  0  0  0  0  0  0  0  0  0  0  0
    5.1124    2.0132   -0.1269 C   0  0  0  0  0  0  0  0  0  0  0  0
    3.7905    2.1796    0.6071 C   0  0  0  0  0  0  0  0  0  0  0  0
    0.7861   -2.7755    0.3045 C   0  0  0  0  0  0  0  0  0  0  0  0
   -0.4543   -3.4247    0.1705 C   0  0  0  0  0  0  0  0  0  0  0  0
   -5.6240    0.5096   -1.5783 H   0  0  0  0  0  0  0  0  0  0  0  0
   -5.6244    2.1740   -0.8649 H   0  0  0  0  0  0  0  0  0  0  0  0
   -6.2149    0.7516    0.0840 H   0  0  0  0  0  0  0  0  0  0  0  0
   -2.9425    1.3334    1.5915 H   0  0  0  0  0  0  0  0  0  0  0  0
   -3.9956    2.6805    0.9903 H   0  0  0  0  0  0  0  0  0  0  0  0
   -4.7042    1.2652    1.8735 H   0  0  0  0  0  0  0  0  0  0  0  0
   -3.3460    2.2476   -1.5855 H   0  0  0  0  0  0  0  0  0  0  0  0
   -2.0935    1.4526   -0.5906 H   0  0  0  0  0  0  0  0  0  0  0  0
   -3.7351    0.1141   -2.8248 H   0  0  0  0  0  0  0  0  0  0  0  0
   -2.0027    0.5412   -2.8377 H   0  0  0  0  0  0  0  0  0  0  0  0
   -4.4103   -2.2006   -1.6352 H   0  0  0  0  0  0  0  0  0  0  0  0
   -3.1501   -4.0845   -0.3977 H   0  0  0  0  0  0  0  0  0  0  0  0
    0.0462    0.1769   -1.2951 H   0  0  0  0  0  0  0  0  0  0  0  0
    2.4955   -0.0959   -0.8952 H   0  0  0  0  0  0  0  0  0  0  0  0
    3.1232   -1.5139   -0.0005 H   0  0  0  0  0  0  0  0  0  0  0  0
    4.7410   -0.7564    1.6862 H   0  0  0  0  0  0  0  0  0  0  0  0
    5.6260    0.6455    2.3637 H   0  0  0  0  0  0  0  0  0  0  0  0
    5.1890   -0.1002   -0.5470 H   0  0  0  0  0  0  0  0  0  0  0  0
    6.6781    0.5488    0.2641 H   0  0  0  0  0  0  0  0  0  0  0  0
    5.8518    2.7520    0.2544 H   0  0  0  0  0  0  0  0  0  0  0  0
    4.9922    2.1438   -1.2245 H   0  0  0  0  0  0  0  0  0  0  0  0
    2.9533    2.1158   -0.1225 H   0  0  0  0  0  0  0  0  0  0  0  0
    3.7439    3.1842    1.0790 H   0  0  0  0  0  0  0  0  0  0  0  0
    1.5888   -3.2758    0.8317 H   0  0  0  0  0  0  0  0  0  0  0  0
   -0.6131   -4.4122    0.5839 H   0  0  0  0  0  0  0  0  0  0  0  0
  1  2  1  0
  2  3  1  0
  2  4  1  0
  4  5  1  0
  5  6  1  0
  6  7  2  0
  7  8  1  0
  8  9  1  0
  9 10  2  0
 10 11  1  0
 11 12  2  0
 12 13  1  0
 13 14  1  0
 14 15  2  0
 14 16  2  0
 14 17  1  0
 17 18  1  0
 18 19  1  0
 19 20  1  0
 20 21  1  0
 12 22  1  0
 22 23  2  0
 10  6  1  0
 21 17  1  0
 23  9  1  0
  1 24  1  0
  1 25  1  0
  1 26  1  0
  3 27  1  0
  3 28  1  0
  3 29  1  0
  4 30  1  0
  4 31  1  0
  5 32  1  0
  5 33  1  0
  7 34  1  0
  8 35  1  0
 11 36  1  0
 13 37  1  0
 13 38  1  0
 18 39  1  0
 18 40  1  0
 19 41  1  0
 19 42  1  0
 20 43  1  0
 20 44  1  0
 21 45  1  0
 21 46  1  0
 22 47  1  0
 23 48  1  0
M  END
$$$$
