
     RDKit          3D

 64 67  0  0  0  0  0  0  0  0999 V2000
   -5.0002   -3.4669    1.8592 C   0  0  0  0  0  0  0  0  0  0  0  0
   -5.3174   -3.1490    0.4024 C   0  0  0  0  0  0  0  0  0  0  0  0
   -5.7940   -1.7317    0.2592 C   0  0  0  0  0  0  0  0  0  0  0  0
   -7.1160   -1.4176    0.2064 N   0  0  0  0  0  0  0  0  0  0  0  0
   -7.1073   -0.0712    0.1984 C   0  0  0  0  0  0  0  0  0  0  0  0
   -8.1941    0.8005    0.1458 C   0  0  0  0  0  0  0  0  0  0  0  0
   -9.6008    0.2973    0.0800 C   0  0  0  0  0  0  0  0  0  0  0  0
   -7.9362    2.1434    0.1501 N   0  0  0  0  0  0  0  0  0  0  0  0
   -6.6602    2.6455    0.2083 C   0  0  0  0  0  0  0  0  0  0  0  0
   -6.4428    4.1244    0.1967 C   0  0  0  0  0  0  0  0  0  0  0  0
   -5.5569    1.7688    0.2607 C   0  0  0  0  0  0  0  0  0  0  0  0
   -5.8337    0.4025    0.2600 C   0  0  0  0  0  0  0  0  0  0  0  0
   -4.9843   -0.6372    0.2978 N   0  0  0  0  0  0  0  0  0  0  0  0
   -3.5538   -0.5914    0.4108 C   0  0  0  0  0  0  0  0  0  0  0  0
   -2.9544    0.0388    1.5105 C   0  0  0  0  0  0  0  0  0  0  0  0
   -1.5622    0.0885    1.6218 C   0  0  0  0  0  0  0  0  0  0  0  0
   -0.7520   -0.4966    0.6357 C   0  0  0  0  0  0  0  0  0  0  0  0
    0.7472   -0.4125    0.7358 C   0  0  0  0  0  0  0  0  0  0  0  0
    1.2624    0.8537    0.0463 C   0  0  0  0  0  0  0  0  0  0  0  0
    2.7164    0.9434    0.1621 N   0  0  0  0  0  0  0  0  0  0  0  0
    3.6053    0.1371   -0.6226 C   0  0  0  0  0  0  0  0  0  0  0  0
    3.1439   -0.6737   -1.4716 O   0  0  0  0  0  0  0  0  0  0  0  0
    5.0195    0.2597   -0.4436 N   0  0  0  0  0  0  0  0  0  0  0  0
    6.1403   -0.6909   -1.3597 S   0  0  0  0  0  6  0  0  0  0  0  0
    5.9708   -0.4037   -2.8255 O   0  0  0  0  0  0  0  0  0  0  0  0
    5.8888   -2.1521   -1.1119 O   0  0  0  0  0  0  0  0  0  0  0  0
    7.7807   -0.2849   -0.8662 C   0  0  0  0  0  0  0  0  0  0  0  0
    8.3878   -0.9712    0.1941 C   0  0  0  0  0  0  0  0  0  0  0  0
    9.6845   -0.6384    0.5974 C   0  0  0  0  0  0  0  0  0  0  0  0
   10.3906    0.3801   -0.0610 C   0  0  0  0  0  0  0  0  0  0  0  0
   11.7660    0.7645    0.3976 C   0  0  0  0  0  0  0  0  0  0  0  0
    9.7709    1.0839   -1.1051 C   0  0  0  0  0  0  0  0  0  0  0  0
    8.4741    0.7503   -1.5076 C   0  0  0  0  0  0  0  0  0  0  0  0
   -1.3537   -1.1084   -0.4755 C   0  0  0  0  0  0  0  0  0  0  0  0
   -2.7462   -1.1573   -0.5854 C   0  0  0  0  0  0  0  0  0  0  0  0
   -4.1817   -2.8140    2.2299 H   0  0  0  0  0  0  0  0  0  0  0  0
   -5.9020   -3.3184    2.4911 H   0  0  0  0  0  0  0  0  0  0  0  0
   -4.6751   -4.5250    1.9460 H   0  0  0  0  0  0  0  0  0  0  0  0
   -6.1092   -3.8414    0.0440 H   0  0  0  0  0  0  0  0  0  0  0  0
   -4.4168   -3.3204   -0.2210 H   0  0  0  0  0  0  0  0  0  0  0  0
   -9.7397   -0.3069   -0.8410 H   0  0  0  0  0  0  0  0  0  0  0  0
   -9.8159   -0.3329    0.9684 H   0  0  0  0  0  0  0  0  0  0  0  0
  -10.3167    1.1461    0.0624 H   0  0  0  0  0  0  0  0  0  0  0  0
   -7.4140    4.6616    0.2389 H   0  0  0  0  0  0  0  0  0  0  0  0
   -5.8331    4.4226    1.0756 H   0  0  0  0  0  0  0  0  0  0  0  0
   -5.9119    4.4162   -0.7336 H   0  0  0  0  0  0  0  0  0  0  0  0
   -4.5407    2.1406    0.2949 H   0  0  0  0  0  0  0  0  0  0  0  0
   -3.5684    0.4855    2.2824 H   0  0  0  0  0  0  0  0  0  0  0  0
   -1.1156    0.5834    2.4753 H   0  0  0  0  0  0  0  0  0  0  0  0
    1.2038   -1.3121    0.2695 H   0  0  0  0  0  0  0  0  0  0  0  0
    1.0563   -0.4034    1.8041 H   0  0  0  0  0  0  0  0  0  0  0  0
    0.8052    1.7441    0.5315 H   0  0  0  0  0  0  0  0  0  0  0  0
    0.9695    0.8608   -1.0265 H   0  0  0  0  0  0  0  0  0  0  0  0
    3.1213    1.6612    0.8044 H   0  0  0  0  0  0  0  0  0  0  0  0
    5.3948    0.9344    0.2592 H   0  0  0  0  0  0  0  0  0  0  0  0
    7.8563   -1.7587    0.7130 H   0  0  0  0  0  0  0  0  0  0  0  0
   10.1368   -1.1734    1.4233 H   0  0  0  0  0  0  0  0  0  0  0  0
   12.3648    1.1613   -0.4497 H   0  0  0  0  0  0  0  0  0  0  0  0
   12.3008   -0.1161    0.8130 H   0  0  0  0  0  0  0  0  0  0  0  0
   11.6884    1.5449    1.1832 H   0  0  0  0  0  0  0  0  0  0  0  0
   10.2905    1.8913   -1.6062 H   0  0  0  0  0  0  0  0  0  0  0  0
    8.0100    1.3036   -2.3140 H   0  0  0  0  0  0  0  0  0  0  0  0
   -0.7441   -1.5419   -1.2588 H   0  0  0  0  0  0  0  0  0  0  0  0
   -3.1964   -1.6208   -1.4539 H   0  0  0  0  0  0  0  0  0  0  0  0
  1  2  1  0
  2  3  1  0
  3  4  2  0
  4  5  1  0
  5  6  2  0
  6  7  1  0
  6  8  1  0
  8  9  2  0
  9 10  1  0
  9 11  1  0
 11 12  2  0
 12 13  1  0
 13 14  1  0
 14 15  2  0
 15 16  1  0
 16 17  2  0
 17 18  1  0
 18 19  1  0
 19 20  1  0
 20 21  1  0
 21 22  2  0
 21 23  1  0
 23 24  1  0
 24 25  2  0
 24 26  2  0
 24 27  1  0
 27 28  2  0
 28 29  1  0
 29 30  2  0
 30 31  1  0
 30 32  1  0
 32 33  2  0
 17 34  1  0
 34 35  2  0
 13  3  1  0
 35 14  1  0
 12  5  1  0
 33 27  1  0
  1 36  1  0
  1 37  1  0
  1 38  1  0
  2 39  1  0
  2 40  1  0
  7 41  1  0
  7 42  1  0
  7 43  1  0
 10 44  1  0
 10 45  1  0
 10 46  1  0
 11 47  1  0
 15 48  1  0
 16 49  1  0
 18 50  1  0
 18 51  1  0
 19 52  1  0
 19 53  1  0
 20 54  1  0
 23 55  1  0
 28 56  1  0
 29 57  1  0
 31 58  1  0
 31 59  1  0
 31 60  1  0
 32 61  1  0
 33 62  1  0
 34 63  1  0
 35 64  1  0
M  END
$$$$
