
     RDKit          3D

 11 10  0  0  0  0  0  0  0  0999 V2000
    2.1039    0.1302    0.2856 N   0  0  0  0  0  0  0  0  0  0  0  0
    0.8048    0.3994    0.5741 O   0  0  0  0  0  0  0  0  0  0  0  0
    0.0399   -0.4334   -0.2585 C   0  0  0  0  0  0  0  0  0  0  0  0
   -1.4078   -0.1862    0.0048 C   0  0  0  0  0  0  0  0  0  0  0  0
   -2.0914    0.7774   -0.7299 O   0  0  0  0  0  0  0  0  0  0  0  0
   -1.9996   -0.8179    0.9205 O   0  0  0  0  0  0  0  0  0  0  0  0
    2.5440    1.0352    0.0043 H   0  0  0  0  0  0  0  0  0  0  0  0
    2.5587   -0.1553    1.1820 H   0  0  0  0  0  0  0  0  0  0  0  0
    0.2502   -0.2133   -1.3299 H   0  0  0  0  0  0  0  0  0  0  0  0
    0.2674   -1.5052   -0.0557 H   0  0  0  0  0  0  0  0  0  0  0  0
   -3.0701    0.9690   -0.5517 H   0  0  0  0  0  0  0  0  0  0  0  0
  1  2  1  0
  2  3  1  0
  3  4  1  0
  4  5  1  0
  4  6  2  0
  1  7  1  0
  1  8  1  0
  3  9  1  0
  3 10  1  0
  5 11  1  0
M  END
$$$$
