
     RDKit          3D

 81 85  0  0  0  0  0  0  0  0999 V2000
   10.8754    1.0850    1.5542 O   0  0  0  0  0  0  0  0  0  0  0  0
    9.7743    0.6085    1.1695 C   0  0  0  0  0  0  0  0  0  0  0  0
    8.7713    0.3993    2.0663 N   0  0  0  0  0  0  0  0  0  0  0  0
    7.5603   -0.1076    1.6896 C   0  0  0  0  0  0  0  0  0  0  0  0
    7.3369   -0.4511    0.3341 C   0  0  0  0  0  0  0  0  0  0  0  0
    8.3686   -0.2390   -0.5912 C   0  0  0  0  0  0  0  0  0  0  0  0
    9.5881    0.2902   -0.1756 C   0  0  0  0  0  0  0  0  0  0  0  0
    5.9838   -0.9480   -0.1523 C   0  0  1  0  0  0  0  0  0  0  0  0
    5.1830   -1.5832    0.9933 C   0  0  0  0  0  0  0  0  0  0  0  0
    5.1286   -0.6452    2.2000 C   0  0  0  0  0  0  0  0  0  0  0  0
    6.5341   -0.4064    2.7588 C   0  0  0  0  0  0  0  0  0  0  0  0
    5.1892    0.1560   -0.7378 N   0  0  0  0  0  0  0  0  0  0  0  0
    5.1348    0.1198   -2.2065 C   0  0  0  0  0  0  0  0  0  0  0  0
    4.0412   -0.8431   -2.7000 C   0  0  0  0  0  0  0  0  0  0  0  0
    2.6226   -0.2487   -2.6421 C   0  0  0  0  0  0  0  0  0  0  0  0
    2.0808   -0.1282   -1.2074 C   0  0  0  0  0  0  0  0  0  0  0  0
    0.6174    0.3418   -1.1690 C   0  0  0  0  0  0  0  0  0  0  0  0
   -0.3742   -0.8012   -1.4470 C   0  0  0  0  0  0  0  0  0  0  0  0
   -1.8332   -0.3182   -1.5337 C   0  0  0  0  0  0  0  0  0  0  0  0
   -2.3893    0.3056   -0.2414 C   0  0  0  0  0  0  0  0  0  0  0  0
   -2.3736   -0.6710    0.9478 C   0  0  0  0  0  0  0  0  0  0  0  0
   -3.1830   -0.1519    2.1485 C   0  0  0  0  0  0  0  0  0  0  0  0
   -4.5938   -0.5469    2.0777 N   0  0  0  0  0  0  0  0  0  0  0  0
   -5.4669   -0.1863    0.9936 C   0  0  0  0  0  0  0  0  0  0  0  0
   -5.9438    1.1404    0.8597 C   0  0  0  0  0  0  0  0  0  0  0  0
   -5.5206    2.2170    1.8393 C   0  0  0  0  0  0  0  0  0  0  0  0
   -6.4669    3.4189    1.8397 C   0  0  0  0  0  0  0  0  0  0  0  0
   -6.6846    3.9104    0.4108 C   0  0  0  0  0  0  0  0  0  0  0  0
   -7.3787    2.8300   -0.4212 C   0  0  0  0  0  0  0  0  0  0  0  0
   -6.7656    1.4629   -0.2473 C   0  0  0  0  0  0  0  0  0  0  0  0
   -7.1184    0.4957   -1.1325 N   0  0  0  0  0  0  0  0  0  0  0  0
   -6.7010   -0.7885   -1.0151 C   0  0  0  0  0  0  0  0  0  0  0  0
   -7.1019   -1.7350   -1.9652 C   0  0  0  0  0  0  0  0  0  0  0  0
   -6.6869   -3.0631   -1.8504 C   0  0  0  0  0  0  0  0  0  0  0  0
   -5.8739   -3.4523   -0.7844 C   0  0  0  0  0  0  0  0  0  0  0  0
   -5.4689   -2.5153    0.1707 C   0  0  0  0  0  0  0  0  0  0  0  0
   -5.8740   -1.1690    0.0646 C   0  0  0  0  0  0  0  0  0  0  0  0
    8.9408    0.6276    3.0728 H   0  0  0  0  0  0  0  0  0  0  0  0
    8.2309   -0.4831   -1.6361 H   0  0  0  0  0  0  0  0  0  0  0  0
   10.3815    0.4516   -0.8952 H   0  0  0  0  0  0  0  0  0  0  0  0
    6.1570   -1.7591   -0.8969 H   0  0  0  0  0  0  0  0  0  0  0  0
    4.1503   -1.8087    0.6512 H   0  0  0  0  0  0  0  0  0  0  0  0
    5.6543   -2.5459    1.2922 H   0  0  0  0  0  0  0  0  0  0  0  0
    4.4926   -1.0982    2.9908 H   0  0  0  0  0  0  0  0  0  0  0  0
    4.6682    0.3246    1.9100 H   0  0  0  0  0  0  0  0  0  0  0  0
    6.8627   -1.3131    3.3113 H   0  0  0  0  0  0  0  0  0  0  0  0
    6.4929    0.4366    3.4818 H   0  0  0  0  0  0  0  0  0  0  0  0
    5.5636    1.0873   -0.4371 H   0  0  0  0  0  0  0  0  0  0  0  0
    4.9278    1.1406   -2.5979 H   0  0  0  0  0  0  0  0  0  0  0  0
    6.1163   -0.1823   -2.6317 H   0  0  0  0  0  0  0  0  0  0  0  0
    4.2601   -1.0844   -3.7631 H   0  0  0  0  0  0  0  0  0  0  0  0
    4.0772   -1.8024   -2.1402 H   0  0  0  0  0  0  0  0  0  0  0  0
    2.6103    0.7479   -3.1350 H   0  0  0  0  0  0  0  0  0  0  0  0
    1.9601   -0.9161   -3.2313 H   0  0  0  0  0  0  0  0  0  0  0  0
    2.1786   -1.0995   -0.6756 H   0  0  0  0  0  0  0  0  0  0  0  0
    2.6859    0.6232   -0.6586 H   0  0  0  0  0  0  0  0  0  0  0  0
    0.4228    0.7433   -0.1518 H   0  0  0  0  0  0  0  0  0  0  0  0
    0.4646    1.1702   -1.8951 H   0  0  0  0  0  0  0  0  0  0  0  0
   -0.1280   -1.2775   -2.4185 H   0  0  0  0  0  0  0  0  0  0  0  0
   -0.2760   -1.5874   -0.6688 H   0  0  0  0  0  0  0  0  0  0  0  0
   -2.4751   -1.1811   -1.8170 H   0  0  0  0  0  0  0  0  0  0  0  0
   -1.9172    0.4288   -2.3530 H   0  0  0  0  0  0  0  0  0  0  0  0
   -1.8243    1.2254    0.0187 H   0  0  0  0  0  0  0  0  0  0  0  0
   -3.4278    0.6262   -0.4560 H   0  0  0  0  0  0  0  0  0  0  0  0
   -2.7495   -1.6690    0.6390 H   0  0  0  0  0  0  0  0  0  0  0  0
   -1.3205   -0.8009    1.2780 H   0  0  0  0  0  0  0  0  0  0  0  0
   -2.7472   -0.5903    3.0727 H   0  0  0  0  0  0  0  0  0  0  0  0
   -3.0832    0.9465    2.2484 H   0  0  0  0  0  0  0  0  0  0  0  0
   -4.9475   -1.2334    2.7817 H   0  0  0  0  0  0  0  0  0  0  0  0
   -4.5076    2.5733    1.5558 H   0  0  0  0  0  0  0  0  0  0  0  0
   -5.4774    1.8063    2.8710 H   0  0  0  0  0  0  0  0  0  0  0  0
   -6.0236    4.2360    2.4489 H   0  0  0  0  0  0  0  0  0  0  0  0
   -7.4404    3.1350    2.2973 H   0  0  0  0  0  0  0  0  0  0  0  0
   -7.3147    4.8258    0.4247 H   0  0  0  0  0  0  0  0  0  0  0  0
   -5.7074    4.1724   -0.0521 H   0  0  0  0  0  0  0  0  0  0  0  0
   -8.4477    2.7730   -0.1220 H   0  0  0  0  0  0  0  0  0  0  0  0
   -7.3402    3.1198   -1.4934 H   0  0  0  0  0  0  0  0  0  0  0  0
   -7.7361   -1.4428   -2.7932 H   0  0  0  0  0  0  0  0  0  0  0  0
   -6.9981   -3.7924   -2.5871 H   0  0  0  0  0  0  0  0  0  0  0  0
   -5.5569   -4.4835   -0.6969 H   0  0  0  0  0  0  0  0  0  0  0  0
   -4.8432   -2.8531    0.9860 H   0  0  0  0  0  0  0  0  0  0  0  0
  1  2  2  0
  2  3  1  0
  3  4  1  0
  4  5  2  0
  5  6  1  0
  6  7  2  0
  5  8  1  0
  8  9  1  0
  9 10  1  0
 10 11  1  0
  8 12  1  0
 12 13  1  0
 13 14  1  0
 14 15  1  0
 15 16  1  0
 16 17  1  0
 17 18  1  0
 18 19  1  0
 19 20  1  0
 20 21  1  0
 21 22  1  0
 22 23  1  0
 23 24  1  0
 24 25  2  0
 25 26  1  0
 26 27  1  0
 27 28  1  0
 28 29  1  0
 29 30  1  0
 30 31  2  0
 31 32  1  0
 32 33  2  0
 33 34  1  0
 34 35  2  0
 35 36  1  0
 36 37  2  0
  7  2  1  0
 37 24  1  0
 11  4  1  0
 30 25  1  0
 37 32  1  0
  3 38  1  0
  6 39  1  0
  7 40  1  0
  8 41  1  6
  9 42  1  0
  9 43  1  0
 10 44  1  0
 10 45  1  0
 11 46  1  0
 11 47  1  0
 12 48  1  0
 13 49  1  0
 13 50  1  0
 14 51  1  0
 14 52  1  0
 15 53  1  0
 15 54  1  0
 16 55  1  0
 16 56  1  0
 17 57  1  0
 17 58  1  0
 18 59  1  0
 18 60  1  0
 19 61  1  0
 19 62  1  0
 20 63  1  0
 20 64  1  0
 21 65  1  0
 21 66  1  0
 22 67  1  0
 22 68  1  0
 23 69  1  0
 26 70  1  0
 26 71  1  0
 27 72  1  0
 27 73  1  0
 28 74  1  0
 28 75  1  0
 29 76  1  0
 29 77  1  0
 33 78  1  0
 34 79  1  0
 35 80  1  0
 36 81  1  0
M  END
$$$$
