
     RDKit          3D

 38 39  0  0  0  0  0  0  0  0999 V2000
    0.8419    0.0695   -1.7044 C   0  0  0  0  0  0  0  0  0  0  0  0
    2.0920    0.6391   -2.3071 C   0  0  0  0  0  0  0  0  0  0  0  0
    0.7101   -0.2238   -0.3944 C   0  0  0  0  0  0  0  0  0  0  0  0
   -0.6090   -0.6769    0.1382 C   0  0  0  0  0  0  0  0  0  0  0  0
   -0.6560   -1.5293    1.1825 C   0  0  0  0  0  0  0  0  0  0  0  0
   -1.9289   -1.9488    1.8565 C   0  0  0  0  0  0  0  0  0  0  0  0
   -1.8524   -0.1262   -0.4545 C   0  0  0  0  0  0  0  0  0  0  0  0
   -2.1069    1.2522   -0.3865 C   0  0  0  0  0  0  0  0  0  0  0  0
   -3.2637    1.7840   -0.9640 C   0  0  0  0  0  0  0  0  0  0  0  0
   -4.1709    0.9438   -1.6241 C   0  0  0  0  0  0  0  0  0  0  0  0
   -5.3271    1.4620   -2.2029 O   0  0  0  0  0  0  0  0  0  0  0  0
   -3.9125   -0.4284   -1.7065 C   0  0  0  0  0  0  0  0  0  0  0  0
   -2.7561   -0.9623   -1.1299 C   0  0  0  0  0  0  0  0  0  0  0  0
    1.8424   -0.0418    0.5465 C   0  0  0  0  0  0  0  0  0  0  0  0
    2.9938   -0.8393    0.4456 C   0  0  0  0  0  0  0  0  0  0  0  0
    4.0444   -0.6762    1.3534 C   0  0  0  0  0  0  0  0  0  0  0  0
    3.9491    0.2772    2.3764 C   0  0  0  0  0  0  0  0  0  0  0  0
    4.9896    0.4490    3.2865 O   0  0  0  0  0  0  0  0  0  0  0  0
    2.7969    1.0625    2.4882 C   0  0  0  0  0  0  0  0  0  0  0  0
    1.7451    0.9011    1.5814 C   0  0  0  0  0  0  0  0  0  0  0  0
    0.0005   -0.0701   -2.3727 H   0  0  0  0  0  0  0  0  0  0  0  0
    2.3921    1.5618   -1.7668 H   0  0  0  0  0  0  0  0  0  0  0  0
    2.9140   -0.1044   -2.2680 H   0  0  0  0  0  0  0  0  0  0  0  0
    1.9079    0.8976   -3.3708 H   0  0  0  0  0  0  0  0  0  0  0  0
    0.2654   -1.9176    1.6000 H   0  0  0  0  0  0  0  0  0  0  0  0
   -2.5446   -2.5659    1.1710 H   0  0  0  0  0  0  0  0  0  0  0  0
   -1.6915   -2.5581    2.7536 H   0  0  0  0  0  0  0  0  0  0  0  0
   -2.5043   -1.0555    2.1792 H   0  0  0  0  0  0  0  0  0  0  0  0
   -1.4118    1.9125    0.1177 H   0  0  0  0  0  0  0  0  0  0  0  0
   -3.4529    2.8479   -0.8998 H   0  0  0  0  0  0  0  0  0  0  0  0
   -5.5422    2.4514   -2.1614 H   0  0  0  0  0  0  0  0  0  0  0  0
   -4.6053   -1.0805   -2.2229 H   0  0  0  0  0  0  0  0  0  0  0  0
   -2.5589   -2.0232   -1.2202 H   0  0  0  0  0  0  0  0  0  0  0  0
    3.0717   -1.5943   -0.3268 H   0  0  0  0  0  0  0  0  0  0  0  0
    4.9286   -1.2945    1.2647 H   0  0  0  0  0  0  0  0  0  0  0  0
    5.8365   -0.1048    3.2330 H   0  0  0  0  0  0  0  0  0  0  0  0
    2.7159    1.7967    3.2795 H   0  0  0  0  0  0  0  0  0  0  0  0
    0.8572    1.5134    1.6818 H   0  0  0  0  0  0  0  0  0  0  0  0
  1  2  1  0
  1  3  2  0
  3  4  1  0
  4  5  2  0
  5  6  1  0
  4  7  1  0
  7  8  2  0
  8  9  1  0
  9 10  2  0
 10 11  1  0
 10 12  1  0
 12 13  2  0
  3 14  1  0
 14 15  2  0
 15 16  1  0
 16 17  2  0
 17 18  1  0
 17 19  1  0
 19 20  2  0
 13  7  1  0
 20 14  1  0
  1 21  1  0
  2 22  1  0
  2 23  1  0
  2 24  1  0
  5 25  1  0
  6 26  1  0
  6 27  1  0
  6 28  1  0
  8 29  1  0
  9 30  1  0
 11 31  1  0
 12 32  1  0
 13 33  1  0
 15 34  1  0
 16 35  1  0
 18 36  1  0
 19 37  1  0
 20 38  1  0
M  END
$$$$
