
     RDKit          3D

 56 58  0  0  0  0  0  0  0  0999 V2000
   -2.6686    0.0871    1.2603 O   0  0  0  0  0  0  0  0  0  0  0  0
   -1.8356    0.2740    0.1622 C   0  0  0  0  0  0  0  0  0  0  0  0
   -2.3193    0.6897   -0.9257 O   0  0  0  0  0  0  0  0  0  0  0  0
   -0.3987   -0.0182    0.2910 C   0  0  0  0  0  0  0  0  0  0  0  0
    0.4578    0.1395   -0.7246 C   0  0  0  0  0  0  0  0  0  0  0  0
    1.8923   -0.1549   -0.5871 C   0  0  0  0  0  0  0  0  0  0  0  0
    2.4151   -0.6136    0.6196 O   0  0  0  0  0  0  0  0  0  0  0  0
    2.6560    0.0108   -1.5750 O   0  0  0  0  0  0  0  0  0  0  0  0
   -6.9262    0.4283   -1.8701 F   0  0  0  0  0  0  0  0  0  0  0  0
   -5.8781    0.4252   -1.0073 C   0  0  0  0  0  0  0  0  0  0  0  0
   -5.3469    1.6306   -0.5261 C   0  0  0  0  0  0  0  0  0  0  0  0
   -4.2644    1.6103    0.3640 C   0  0  0  0  0  0  0  0  0  0  0  0
   -3.7084    0.3874    0.7757 C   0  0  0  0  0  0  0  0  0  0  0  0
   -2.5378    0.3554    1.7235 C   0  0  0  0  0  0  0  0  0  0  0  0
   -1.3467   -0.2052    1.0534 N   0  0  0  0  0  0  0  0  0  0  0  0
   -0.4045   -0.7631    2.0536 C   0  0  0  0  0  0  0  0  0  0  0  0
    0.9889   -0.9801    1.4550 C   0  0  0  0  0  0  0  0  0  0  0  0
    1.6186    0.3567    0.9992 C   0  0  0  0  0  0  0  0  0  0  0  0
    0.5426    1.4176    0.6683 C   0  0  0  0  0  0  0  0  0  0  0  0
   -0.7274    0.7633    0.1065 C   0  0  0  0  0  0  0  0  0  0  0  0
    2.4940    0.1247   -0.1569 N   0  0  0  0  0  0  0  0  0  0  0  0
    3.7654   -0.5368   -0.0312 C   0  0  0  0  0  0  0  0  0  0  0  0
    4.5635   -0.8242   -1.1489 C   0  0  0  0  0  0  0  0  0  0  0  0
    4.3088   -0.5579   -2.5025 C   0  0  0  0  0  0  0  0  0  0  0  0
    5.3423   -0.9977   -3.3273 C   0  0  0  0  0  0  0  0  0  0  0  0
    5.3776   -0.8399   -5.0707 Cl  0  0  0  0  0  0  0  0  0  0  0  0
    6.5650   -1.7127   -2.4036 S   0  0  0  0  0  0  0  0  0  0  0  0
    5.7740   -1.4601   -0.9467 C   0  0  0  0  0  0  0  0  0  0  0  0
    6.2125   -1.8128    0.2840 N   0  0  0  0  0  0  0  0  0  0  0  0
    5.4322   -1.5301    1.3632 C   0  0  0  0  0  0  0  0  0  0  0  0
    4.2303   -0.9023    1.2008 N   0  0  0  0  0  0  0  0  0  0  0  0
   -4.2473   -0.8135    0.2881 C   0  0  0  0  0  0  0  0  0  0  0  0
   -5.3270   -0.7928   -0.5988 C   0  0  0  0  0  0  0  0  0  0  0  0
   -5.9072    2.8901   -0.9434 C   0  0  0  0  0  0  0  0  0  0  0  0
   -6.3572    3.9022   -1.2786 N   0  0  0  0  0  0  0  0  0  0  0  0
   -3.6611    0.2805    1.1988 H   0  0  0  0  0  0  0  0  0  0  0  0
   -0.0430   -0.3725    1.2509 H   0  0  0  0  0  0  0  0  0  0  0  0
    0.1021    0.4940   -1.6850 H   0  0  0  0  0  0  0  0  0  0  0  0
    3.4030   -0.8164    0.7145 H   0  0  0  0  0  0  0  0  0  0  0  0
   -3.8534    2.5435    0.7319 H   0  0  0  0  0  0  0  0  0  0  0  0
   -2.3154    1.3680    2.1309 H   0  0  0  0  0  0  0  0  0  0  0  0
   -2.8345   -0.2800    2.5888 H   0  0  0  0  0  0  0  0  0  0  0  0
   -0.3137   -0.0907    2.9380 H   0  0  0  0  0  0  0  0  0  0  0  0
   -0.7936   -1.7418    2.4089 H   0  0  0  0  0  0  0  0  0  0  0  0
    1.6445   -1.4653    2.2101 H   0  0  0  0  0  0  0  0  0  0  0  0
    0.8941   -1.6763    0.5920 H   0  0  0  0  0  0  0  0  0  0  0  0
    2.2310    0.7697    1.8320 H   0  0  0  0  0  0  0  0  0  0  0  0
    0.2731    1.9738    1.5931 H   0  0  0  0  0  0  0  0  0  0  0  0
    0.9356    2.1662   -0.0537 H   0  0  0  0  0  0  0  0  0  0  0  0
   -0.4662    0.2206   -0.8274 H   0  0  0  0  0  0  0  0  0  0  0  0
   -1.4374    1.5650   -0.1938 H   0  0  0  0  0  0  0  0  0  0  0  0
    2.1767    0.4490   -1.0969 H   0  0  0  0  0  0  0  0  0  0  0  0
    3.4218   -0.0722   -2.8838 H   0  0  0  0  0  0  0  0  0  0  0  0
    5.7657   -1.8042    2.3545 H   0  0  0  0  0  0  0  0  0  0  0  0
   -3.8287   -1.7645    0.5944 H   0  0  0  0  0  0  0  0  0  0  0  0
   -5.7362   -1.7234   -0.9705 H   0  0  0  0  0  0  0  0  0  0  0  0
  1  2  1  0
  2  3  2  0
  2  4  1  0
  4  5  2  0
  5  6  1  0
  6  7  1  0
  6  8  2  0
  9 10  1  0
 10 11  2  0
 11 12  1  0
 12 13  2  0
 13 14  1  0
 14 15  1  0
 15 16  1  0
 16 17  1  0
 17 18  1  0
 18 19  1  0
 19 20  1  0
 18 21  1  0
 21 22  1  0
 22 23  2  0
 23 24  1  0
 24 25  2  0
 25 26  1  0
 25 27  1  0
 27 28  1  0
 28 29  2  0
 29 30  1  0
 30 31  2  0
 13 32  1  0
 32 33  2  0
 11 34  1  0
 34 35  3  0
 33 10  1  0
 20 15  1  0
 31 22  1  0
 28 23  1  0
  1 36  1  0
  4 37  1  0
  5 38  1  0
  7 39  1  0
 12 40  1  0
 14 41  1  0
 14 42  1  0
 16 43  1  0
 16 44  1  0
 17 45  1  0
 17 46  1  0
 18 47  1  0
 19 48  1  0
 19 49  1  0
 20 50  1  0
 20 51  1  0
 21 52  1  0
 24 53  1  0
 30 54  1  0
 32 55  1  0
 33 56  1  0
M  END
$$$$
