
     RDKit          3D

 26 26  0  0  0  0  0  0  0  0999 V2000
    1.7315   -2.0044    0.3687 C   0  0  0  0  0  0  0  0  0  0  0  0
    1.9381   -0.6723   -0.3508 C   0  0  0  0  0  0  0  0  0  0  0  0
    1.0637    0.4508    0.2441 C   0  0  2  0  0  0  0  0  0  0  0  0
   -0.3669    0.1403    0.1124 N   0  0  0  0  0  0  0  0  0  0  0  0
   -1.0953    0.0400   -1.1443 C   0  0  0  0  0  0  0  0  0  0  0  0
   -2.5465   -0.3187   -0.7705 C   0  0  0  0  0  0  0  0  0  0  0  0
   -2.5633   -0.6478    0.7291 C   0  0  0  0  0  0  0  0  0  0  0  0
   -1.2062   -0.2774    1.1735 C   0  0  0  0  0  0  0  0  0  0  0  0
   -0.8236   -0.3435    2.3721 O   0  0  0  0  0  0  0  0  0  0  0  0
    1.3585    1.7836   -0.3966 C   0  0  0  0  0  0  0  0  0  0  0  0
    1.2455    2.9847    0.3667 N   0  0  0  0  0  0  0  0  0  0  0  0
    1.6489    1.8538   -1.6217 O   0  0  0  0  0  0  0  0  0  0  0  0
    0.6926   -2.3685    0.2235 H   0  0  0  0  0  0  0  0  0  0  0  0
    2.4288   -2.7620   -0.0469 H   0  0  0  0  0  0  0  0  0  0  0  0
    1.9345   -1.8935    1.4551 H   0  0  0  0  0  0  0  0  0  0  0  0
    1.7186   -0.8074   -1.4318 H   0  0  0  0  0  0  0  0  0  0  0  0
    3.0091   -0.3877   -0.2561 H   0  0  0  0  0  0  0  0  0  0  0  0
    1.3260    0.5399    1.3216 H   0  0  0  0  0  0  0  0  0  0  0  0
   -1.0595    1.0061   -1.6916 H   0  0  0  0  0  0  0  0  0  0  0  0
   -0.6568   -0.7641   -1.7728 H   0  0  0  0  0  0  0  0  0  0  0  0
   -3.2111    0.5502   -0.9710 H   0  0  0  0  0  0  0  0  0  0  0  0
   -2.9038   -1.1861   -1.3673 H   0  0  0  0  0  0  0  0  0  0  0  0
   -3.3289   -0.0475    1.2659 H   0  0  0  0  0  0  0  0  0  0  0  0
   -2.7315   -1.7335    0.8948 H   0  0  0  0  0  0  0  0  0  0  0  0
    1.4314    3.9108   -0.0783 H   0  0  0  0  0  0  0  0  0  0  0  0
    0.9663    2.9542    1.3723 H   0  0  0  0  0  0  0  0  0  0  0  0
  1  2  1  0
  2  3  1  0
  3  4  1  0
  4  5  1  0
  5  6  1  0
  6  7  1  0
  7  8  1  0
  8  9  2  0
  3 10  1  0
 10 11  1  0
 10 12  2  0
  8  4  1  0
  1 13  1  0
  1 14  1  0
  1 15  1  0
  2 16  1  0
  2 17  1  0
  3 18  1  1
  5 19  1  0
  5 20  1  0
  6 21  1  0
  6 22  1  0
  7 23  1  0
  7 24  1  0
 11 25  1  0
 11 26  1  0
M  END
$$$$
