
     RDKit          3D

 14 13  0  0  0  0  0  0  0  0999 V2000
   -2.0266   -0.4826    0.2708 C   0  0  0  0  0  0  0  0  0  0  0  0
   -0.8706    0.4024   -0.0909 C   0  0  0  0  0  0  0  0  0  0  0  0
   -0.9683    1.6077    0.0831 O   0  0  0  0  0  0  0  0  0  0  0  0
    0.3974   -0.1636   -0.6774 C   0  0  0  0  0  0  0  0  0  0  0  0
    1.5600   -0.0789    0.3163 C   0  0  0  0  0  0  0  0  0  0  0  0
    1.8842    1.2560    0.5990 O   0  0  0  0  0  0  0  0  0  0  0  0
   -1.7968   -1.5508    0.0755 H   0  0  0  0  0  0  0  0  0  0  0  0
   -2.2603   -0.3638    1.3496 H   0  0  0  0  0  0  0  0  0  0  0  0
   -2.9164   -0.1943   -0.3271 H   0  0  0  0  0  0  0  0  0  0  0  0
    0.6532    0.3895   -1.6069 H   0  0  0  0  0  0  0  0  0  0  0  0
    0.2505   -1.2287   -0.9577 H   0  0  0  0  0  0  0  0  0  0  0  0
    2.4468   -0.6076   -0.1014 H   0  0  0  0  0  0  0  0  0  0  0  0
    1.2803   -0.5906    1.2621 H   0  0  0  0  0  0  0  0  0  0  0  0
    2.3669    1.6053   -0.1951 H   0  0  0  0  0  0  0  0  0  0  0  0
  1  2  1  0
  2  3  2  0
  2  4  1  0
  4  5  1  0
  5  6  1  0
  1  7  1  0
  1  8  1  0
  1  9  1  0
  4 10  1  0
  4 11  1  0
  5 12  1  0
  5 13  1  0
  6 14  1  0
M  END
$$$$
