
     RDKit          3D

 45 48  0  0  0  0  0  0  0  0999 V2000
   -1.4551   -0.5876    0.1657 C   0  0  2  0  0  0  0  0  0  0  0  0
   -2.4237   -1.4472   -0.6365 C   0  0  0  0  0  0  0  0  0  0  0  0
   -3.8099   -0.8344   -0.3330 C   0  0  1  0  0  0  0  0  0  0  0  0
   -4.5892   -1.7130    0.4357 O   0  0  0  0  0  0  0  0  0  0  0  0
   -3.5459    0.4691    0.4615 C   0  0  2  0  0  0  0  0  0  0  0  0
   -4.4276    1.4948    0.0816 O   0  0  0  0  0  0  0  0  0  0  0  0
   -2.0765    0.8153    0.1499 C   0  0  2  0  0  0  0  0  0  0  0  0
   -1.9889    1.5386   -1.2339 C   0  0  0  0  0  0  0  0  0  0  0  0
   -1.3677    1.6604    1.2301 C   0  0  0  0  0  0  0  0  0  0  0  0
    0.1660    1.7006    1.0053 C   0  0  0  0  0  0  0  0  0  0  0  0
    0.8028    0.2854    0.8378 C   0  0  2  0  0  0  0  0  0  0  0  0
    2.3004    0.3035    0.5256 C   0  0  0  0  0  0  0  0  0  0  0  0
    2.8981   -0.7815   -0.1744 C   0  0  0  0  0  0  0  0  0  0  0  0
    2.0820   -1.9014   -0.7839 C   0  0  0  0  0  0  0  0  0  0  0  0
    0.6465   -1.9712   -0.2565 C   0  0  0  0  0  0  0  0  0  0  0  0
    0.0362   -0.5647   -0.2193 C   0  0  1  0  0  0  0  0  0  0  0  0
    4.2856   -0.7919   -0.3921 C   0  0  0  0  0  0  0  0  0  0  0  0
    5.0956    0.2288    0.1131 C   0  0  0  0  0  0  0  0  0  0  0  0
    6.4724    0.2150   -0.0992 O   0  0  0  0  0  0  0  0  0  0  0  0
    4.5223    1.2692    0.8407 C   0  0  0  0  0  0  0  0  0  0  0  0
    3.1441    1.3028    1.0581 C   0  0  0  0  0  0  0  0  0  0  0  0
   -1.5038   -0.9868    1.2097 H   0  0  0  0  0  0  0  0  0  0  0  0
   -2.3634   -2.5126   -0.3225 H   0  0  0  0  0  0  0  0  0  0  0  0
   -2.1970   -1.3804   -1.7229 H   0  0  0  0  0  0  0  0  0  0  0  0
   -4.3315   -0.5978   -1.2904 H   0  0  0  0  0  0  0  0  0  0  0  0
   -4.8993   -2.4275   -0.1799 H   0  0  0  0  0  0  0  0  0  0  0  0
   -3.6537    0.2724    1.5557 H   0  0  0  0  0  0  0  0  0  0  0  0
   -5.3199    1.2438    0.4368 H   0  0  0  0  0  0  0  0  0  0  0  0
   -2.4846    2.5311   -1.1771 H   0  0  0  0  0  0  0  0  0  0  0  0
   -0.9501    1.7297   -1.5609 H   0  0  0  0  0  0  0  0  0  0  0  0
   -2.4900    0.9595   -2.0364 H   0  0  0  0  0  0  0  0  0  0  0  0
   -1.5656    1.2334    2.2384 H   0  0  0  0  0  0  0  0  0  0  0  0
   -1.7698    2.6968    1.2285 H   0  0  0  0  0  0  0  0  0  0  0  0
    0.4121    2.3339    0.1274 H   0  0  0  0  0  0  0  0  0  0  0  0
    0.5933    2.1998    1.8992 H   0  0  0  0  0  0  0  0  0  0  0  0
    0.7030   -0.2199    1.8253 H   0  0  0  0  0  0  0  0  0  0  0  0
    2.5780   -2.8772   -0.5888 H   0  0  0  0  0  0  0  0  0  0  0  0
    2.0536   -1.7508   -1.8852 H   0  0  0  0  0  0  0  0  0  0  0  0
    0.6395   -2.4242    0.7598 H   0  0  0  0  0  0  0  0  0  0  0  0
    0.0593   -2.6317   -0.9299 H   0  0  0  0  0  0  0  0  0  0  0  0
    0.1592   -0.1234   -1.2307 H   0  0  0  0  0  0  0  0  0  0  0  0
    4.7384   -1.5991   -0.9555 H   0  0  0  0  0  0  0  0  0  0  0  0
    6.9206   -0.5279   -0.6228 H   0  0  0  0  0  0  0  0  0  0  0  0
    5.1489    2.0530    1.2475 H   0  0  0  0  0  0  0  0  0  0  0  0
    2.7558    2.1153    1.6522 H   0  0  0  0  0  0  0  0  0  0  0  0
  1  2  1  0
  2  3  1  0
  3  4  1  0
  3  5  1  0
  5  6  1  0
  5  7  1  0
  7  8  1  6
  7  9  1  0
  9 10  1  0
 10 11  1  0
 11 12  1  0
 12 13  2  0
 13 14  1  0
 14 15  1  0
 15 16  1  0
 13 17  1  0
 17 18  2  0
 18 19  1  0
 18 20  1  0
 20 21  2  0
  7  1  1  0
 16 11  1  0
 16  1  1  0
 21 12  1  0
  1 22  1  1
  2 23  1  0
  2 24  1  0
  3 25  1  6
  4 26  1  0
  5 27  1  1
  6 28  1  0
  8 29  1  0
  8 30  1  0
  8 31  1  0
  9 32  1  0
  9 33  1  0
 10 34  1  0
 10 35  1  0
 11 36  1  1
 14 37  1  0
 14 38  1  0
 15 39  1  0
 15 40  1  0
 16 41  1  6
 17 42  1  0
 19 43  1  0
 20 44  1  0
 21 45  1  0
M  END
$$$$
