
     RDKit          3D

 43 45  0  0  0  0  0  0  0  0999 V2000
   10.8094    0.8257   -0.9942 Cl  0  0  0  0  0  0  0  0  0  0  0  0
    9.1039    1.2219   -1.0016 C   0  0  0  0  0  0  0  0  0  0  0  0
    8.5557    2.4498   -0.6650 C   0  0  0  0  0  0  0  0  0  0  0  0
    7.1588    2.4748   -0.7588 C   0  0  0  0  0  0  0  0  0  0  0  0
    6.6109    1.2611   -1.1736 C   0  0  0  0  0  0  0  0  0  0  0  0
    7.8677    0.1637   -1.4138 S   0  0  0  0  0  0  0  0  0  0  0  0
    5.1818    0.9484   -1.3613 C   0  0  0  0  0  0  0  0  0  0  0  0
    4.8483   -0.2348   -1.6421 O   0  0  0  0  0  0  0  0  0  0  0  0
    4.1733    1.9647   -1.2390 N   0  0  0  0  0  0  0  0  0  0  0  0
    2.7453    1.6623   -1.3188 C   0  0  0  0  0  0  0  0  0  0  0  0
    2.2673    0.9865   -0.0307 C   0  0  0  0  0  0  0  0  0  0  0  0
    0.8322    0.7080   -0.0872 N   0  0  0  0  0  0  0  0  0  0  0  0
    0.1520    0.0836    1.0130 C   0  0  0  0  0  0  0  0  0  0  0  0
    0.7624   -0.0869    2.1042 O   0  0  0  0  0  0  0  0  0  0  0  0
   -1.2619   -0.3486    0.8968 C   0  0  0  0  0  0  0  0  0  0  0  0
   -2.0570   -0.4670    2.0506 C   0  0  0  0  0  0  0  0  0  0  0  0
   -3.3894   -0.8782    1.9567 C   0  0  0  0  0  0  0  0  0  0  0  0
   -3.9501   -1.1909    0.7088 C   0  0  0  0  0  0  0  0  0  0  0  0
   -3.1577   -1.0808   -0.4441 C   0  0  0  0  0  0  0  0  0  0  0  0
   -1.8251   -0.6690   -0.3518 C   0  0  0  0  0  0  0  0  0  0  0  0
   -5.3270   -1.6076    0.6089 N   0  0  0  0  0  0  0  0  0  0  0  0
   -6.1729   -0.9015   -0.2036 C   0  0  0  0  0  0  0  0  0  0  0  0
   -7.5157   -1.2650   -0.3224 C   0  0  0  0  0  0  0  0  0  0  0  0
   -7.9945   -2.3593    0.3933 C   0  0  0  0  0  0  0  0  0  0  0  0
   -7.1298   -3.0797    1.2143 C   0  0  0  0  0  0  0  0  0  0  0  0
   -5.7881   -2.6946    1.3117 C   0  0  0  0  0  0  0  0  0  0  0  0
   -5.0097   -3.3690    2.0407 O   0  0  0  0  0  0  0  0  0  0  0  0
    9.1463    3.3022   -0.3566 H   0  0  0  0  0  0  0  0  0  0  0  0
    6.5808    3.3557   -0.5180 H   0  0  0  0  0  0  0  0  0  0  0  0
    4.4515    2.9672   -1.1588 H   0  0  0  0  0  0  0  0  0  0  0  0
    2.1803    2.6095   -1.4605 H   0  0  0  0  0  0  0  0  0  0  0  0
    2.5452    1.0091   -2.1960 H   0  0  0  0  0  0  0  0  0  0  0  0
    2.4785    1.6555    0.8318 H   0  0  0  0  0  0  0  0  0  0  0  0
    2.8163    0.0318    0.1166 H   0  0  0  0  0  0  0  0  0  0  0  0
    0.2855    1.0077   -0.9257 H   0  0  0  0  0  0  0  0  0  0  0  0
   -1.6521   -0.2275    3.0262 H   0  0  0  0  0  0  0  0  0  0  0  0
   -3.9894   -0.9438    2.8555 H   0  0  0  0  0  0  0  0  0  0  0  0
   -3.5710   -1.3297   -1.4135 H   0  0  0  0  0  0  0  0  0  0  0  0
   -1.2351   -0.6288   -1.2575 H   0  0  0  0  0  0  0  0  0  0  0  0
   -5.8148   -0.0412   -0.7576 H   0  0  0  0  0  0  0  0  0  0  0  0
   -8.1798   -0.6993   -0.9631 H   0  0  0  0  0  0  0  0  0  0  0  0
   -9.0337   -2.6504    0.3100 H   0  0  0  0  0  0  0  0  0  0  0  0
   -7.4984   -3.9354    1.7668 H   0  0  0  0  0  0  0  0  0  0  0  0
  1  2  1  0
  2  3  2  0
  3  4  1  0
  4  5  2  0
  5  6  1  0
  5  7  1  0
  7  8  2  0
  7  9  1  0
  9 10  1  0
 10 11  1  0
 11 12  1  0
 12 13  1  0
 13 14  2  0
 13 15  1  0
 15 16  2  0
 16 17  1  0
 17 18  2  0
 18 19  1  0
 19 20  2  0
 18 21  1  0
 21 22  1  0
 22 23  2  0
 23 24  1  0
 24 25  2  0
 25 26  1  0
 26 27  2  0
  6  2  1  0
 20 15  1  0
 26 21  1  0
  3 28  1  0
  4 29  1  0
  9 30  1  0
 10 31  1  0
 10 32  1  0
 11 33  1  0
 11 34  1  0
 12 35  1  0
 16 36  1  0
 17 37  1  0
 19 38  1  0
 20 39  1  0
 22 40  1  0
 23 41  1  0
 24 42  1  0
 25 43  1  0
M  END
$$$$
