
     RDKit          3D

 33 35  0  0  0  0  0  0  0  0999 V2000
    0.9678   -2.7085    0.8006 C   0  0  0  0  0  0  0  0  0  0  0  0
    1.6022   -1.5051    0.2565 N   0  0  0  0  0  0  0  0  0  0  0  0
    0.8002   -0.3936   -0.2364 C   0  0  0  0  0  0  0  0  0  0  0  0
   -0.6709   -0.5554   -0.3325 C   0  0  0  0  0  0  0  0  0  0  0  0
   -1.1419   -1.5145   -1.0005 O   0  0  0  0  0  0  0  0  0  0  0  0
   -1.5440    0.3659    0.3443 N   0  0  0  0  0  0  0  0  0  0  0  0
   -2.9761    0.3725    0.2125 C   0  0  0  0  0  0  0  0  0  0  0  0
   -3.7423    1.2717    0.9690 C   0  0  0  0  0  0  0  0  0  0  0  0
   -5.1319    1.2776    0.8311 C   0  0  0  0  0  0  0  0  0  0  0  0
   -5.7457    0.3933   -0.0569 C   0  0  0  0  0  0  0  0  0  0  0  0
   -4.9553   -0.4872   -0.7975 C   0  0  0  0  0  0  0  0  0  0  0  0
   -3.6036   -0.4778   -0.6491 N   0  0  0  0  0  0  0  0  0  0  0  0
    1.3409    0.7950   -0.6165 C   0  0  0  0  0  0  0  0  0  0  0  0
    0.4942    1.7974   -1.1005 O   0  0  0  0  0  0  0  0  0  0  0  0
    2.7953    1.0712   -0.5569 C   0  0  0  0  0  0  0  0  0  0  0  0
    3.7686    0.1722   -0.1809 C   0  0  0  0  0  0  0  0  0  0  0  0
    5.0746    0.6724   -0.2187 C   0  0  0  0  0  0  0  0  0  0  0  0
    5.1343    1.9958   -0.6356 C   0  0  0  0  0  0  0  0  0  0  0  0
    3.5639    2.5178   -0.9494 S   0  0  0  0  0  0  0  0  0  0  0  0
    3.3362   -1.4330    0.2917 S   0  0  0  0  0  6  0  0  0  0  0  0
    3.8343   -1.7005    1.6842 O   0  0  0  0  0  0  0  0  0  0  0  0
    3.9109   -2.4290   -0.6754 O   0  0  0  0  0  0  0  0  0  0  0  0
    0.2435   -2.4295    1.5949 H   0  0  0  0  0  0  0  0  0  0  0  0
    0.4470   -3.2612   -0.0079 H   0  0  0  0  0  0  0  0  0  0  0  0
    1.7214   -3.3918    1.2461 H   0  0  0  0  0  0  0  0  0  0  0  0
   -1.1056    1.0684    0.9827 H   0  0  0  0  0  0  0  0  0  0  0  0
   -3.2677    1.9592    1.6577 H   0  0  0  0  0  0  0  0  0  0  0  0
   -5.7317    1.9669    1.4113 H   0  0  0  0  0  0  0  0  0  0  0  0
   -6.8220    0.3907   -0.1707 H   0  0  0  0  0  0  0  0  0  0  0  0
   -5.4156   -1.1781   -1.4911 H   0  0  0  0  0  0  0  0  0  0  0  0
    0.8367    2.6996   -1.4056 H   0  0  0  0  0  0  0  0  0  0  0  0
    5.9478    0.0917    0.0477 H   0  0  0  0  0  0  0  0  0  0  0  0
    6.0345    2.5859   -0.7407 H   0  0  0  0  0  0  0  0  0  0  0  0
  1  2  1  0
  2  3  1  0
  3  4  1  0
  4  5  2  0
  4  6  1  0
  6  7  1  0
  7  8  2  0
  8  9  1  0
  9 10  2  0
 10 11  1  0
 11 12  2  0
  3 13  2  0
 13 14  1  0
 13 15  1  0
 15 16  2  0
 16 17  1  0
 17 18  2  0
 18 19  1  0
 16 20  1  0
 20 21  2  0
 20 22  2  0
 20  2  1  0
 12  7  1  0
 19 15  1  0
  1 23  1  0
  1 24  1  0
  1 25  1  0
  6 26  1  0
  8 27  1  0
  9 28  1  0
 10 29  1  0
 11 30  1  0
 14 31  1  0
 17 32  1  0
 18 33  1  0
M  END
$$$$
