
     RDKit          3D

 14 13  0  0  0  0  0  0  0  0999 V2000
   -0.0173   -0.5692    1.3855 N   0  0  0  0  0  0  0  0  0  0  0  0
    0.1411   -0.6120   -0.0693 C   0  0  1  0  0  0  0  0  0  0  0  0
   -1.1476   -0.1545   -0.7749 C   0  0  0  0  0  0  0  0  0  0  0  0
   -1.6378    1.5436   -0.3148 S   0  0  0  0  0  0  0  0  0  0  0  0
    1.3110    0.2327   -0.4947 C   0  0  0  0  0  0  0  0  0  0  0  0
    1.6285    1.3957    0.2021 O   0  0  0  0  0  0  0  0  0  0  0  0
    1.9829   -0.0918   -1.5103 O   0  0  0  0  0  0  0  0  0  0  0  0
   -0.7912   -1.2210    1.6516 H   0  0  0  0  0  0  0  0  0  0  0  0
    0.8502   -0.9589    1.8221 H   0  0  0  0  0  0  0  0  0  0  0  0
    0.3415   -1.6646   -0.3751 H   0  0  0  0  0  0  0  0  0  0  0  0
   -1.9787   -0.8477   -0.5233 H   0  0  0  0  0  0  0  0  0  0  0  0
   -1.0019   -0.1934   -1.8758 H   0  0  0  0  0  0  0  0  0  0  0  0
   -2.0847    1.1616    0.9642 H   0  0  0  0  0  0  0  0  0  0  0  0
    2.4040    1.9795   -0.0873 H   0  0  0  0  0  0  0  0  0  0  0  0
  1  2  1  0
  2  3  1  0
  3  4  1  0
  2  5  1  0
  5  6  1  0
  5  7  2  0
  1  8  1  0
  1  9  1  0
  2 10  1  6
  3 11  1  0
  3 12  1  0
  4 13  1  0
  6 14  1  0
M  END
$$$$
