
     RDKit          3D

 58 61  0  0  0  0  0  0  0  0999 V2000
   -7.0344   -1.2499    1.1177 C   0  0  0  0  0  0  0  0  0  0  0  0
   -5.8274   -0.5782    0.4998 C   0  0  0  0  0  0  0  0  0  0  0  0
   -4.5236   -1.0570    0.7659 C   0  0  0  0  0  0  0  0  0  0  0  0
   -4.3037   -2.2416    1.6802 C   0  0  0  0  0  0  0  0  0  0  0  0
   -3.4215   -0.4677    0.1209 C   0  0  0  0  0  0  0  0  0  0  0  0
   -3.5962    0.6415   -0.7342 C   0  0  0  0  0  0  0  0  0  0  0  0
   -2.3885    1.2294   -1.4426 C   0  0  0  0  0  0  0  0  0  0  0  0
   -1.1976    0.2653   -1.4947 C   0  0  0  0  0  0  0  0  0  0  0  0
   -0.9368   -0.3891   -0.1208 C   0  0  0  0  0  0  0  0  0  0  0  0
    0.1229   -1.4900   -0.2746 C   0  0  0  0  0  0  0  0  0  0  0  0
   -0.4948    0.6481    0.9455 C   0  0  0  0  0  0  0  0  0  0  0  0
    0.5743    1.4778    0.4813 O   0  0  0  0  0  0  0  0  0  0  0  0
    1.9498    1.2164    0.5962 C   0  0  0  0  0  0  0  0  0  0  0  0
    2.4759    0.1939    1.4106 C   0  0  0  0  0  0  0  0  0  0  0  0
    3.8564   -0.0169    1.4743 C   0  0  0  0  0  0  0  0  0  0  0  0
    4.7339    0.7929    0.7375 C   0  0  0  0  0  0  0  0  0  0  0  0
    6.2207    0.5474    0.7792 C   0  0  0  0  0  0  0  0  0  0  0  0
    6.6993   -0.2249   -0.4606 C   0  0  0  0  0  0  0  0  0  0  0  0
    6.0109   -1.9366   -0.4737 S   0  0  0  0  0  0  0  0  0  0  0  0
    7.6595   -2.6108   -0.3589 C   0  0  0  0  0  0  0  0  0  0  0  0
    7.8790   -3.8455   -0.2546 O   0  0  0  0  0  0  0  0  0  0  0  0
    8.7080   -1.6657   -0.3835 N   0  0  0  0  0  0  0  0  0  0  0  0
    8.1938   -0.3502   -0.4613 C   0  0  0  0  0  0  0  0  0  0  0  0
    8.9562    0.6496   -0.5389 O   0  0  0  0  0  0  0  0  0  0  0  0
    4.2102    1.8147   -0.0681 C   0  0  0  0  0  0  0  0  0  0  0  0
    2.8304    2.0251   -0.1317 C   0  0  0  0  0  0  0  0  0  0  0  0
   -2.1427   -1.0103    0.3242 O   0  0  0  0  0  0  0  0  0  0  0  0
   -4.8842    1.2156   -0.8809 C   0  0  0  0  0  0  0  0  0  0  0  0
   -5.0879    2.4912   -1.6704 C   0  0  0  0  0  0  0  0  0  0  0  0
   -6.0026    0.5661   -0.3052 C   0  0  0  0  0  0  0  0  0  0  0  0
   -7.3037    1.0353   -0.5251 O   0  0  0  0  0  0  0  0  0  0  0  0
   -7.9729   -1.0085    0.5777 H   0  0  0  0  0  0  0  0  0  0  0  0
   -6.9308   -2.3544    1.0804 H   0  0  0  0  0  0  0  0  0  0  0  0
   -7.1392   -0.9252    2.1740 H   0  0  0  0  0  0  0  0  0  0  0  0
   -4.9635   -2.1793    2.5705 H   0  0  0  0  0  0  0  0  0  0  0  0
   -3.2640   -2.2829    2.0663 H   0  0  0  0  0  0  0  0  0  0  0  0
   -4.5161   -3.1809    1.1283 H   0  0  0  0  0  0  0  0  0  0  0  0
   -2.0847    2.1669   -0.9298 H   0  0  0  0  0  0  0  0  0  0  0  0
   -2.6531    1.4812   -2.4924 H   0  0  0  0  0  0  0  0  0  0  0  0
   -0.2955    0.8064   -1.8549 H   0  0  0  0  0  0  0  0  0  0  0  0
   -1.4279   -0.5281   -2.2408 H   0  0  0  0  0  0  0  0  0  0  0  0
    0.3446   -1.9571    0.7083 H   0  0  0  0  0  0  0  0  0  0  0  0
   -0.2512   -2.2882   -0.9512 H   0  0  0  0  0  0  0  0  0  0  0  0
    1.0610   -1.0854   -0.7088 H   0  0  0  0  0  0  0  0  0  0  0  0
   -0.2513    0.1591    1.9101 H   0  0  0  0  0  0  0  0  0  0  0  0
   -1.3536    1.3125    1.1749 H   0  0  0  0  0  0  0  0  0  0  0  0
    1.8389   -0.4476    1.9989 H   0  0  0  0  0  0  0  0  0  0  0  0
    4.2409   -0.8153    2.0971 H   0  0  0  0  0  0  0  0  0  0  0  0
    6.4967   -0.0123    1.7005 H   0  0  0  0  0  0  0  0  0  0  0  0
    6.7408    1.5295    0.8298 H   0  0  0  0  0  0  0  0  0  0  0  0
    6.3829    0.3001   -1.3877 H   0  0  0  0  0  0  0  0  0  0  0  0
    9.7240   -1.9051   -0.3503 H   0  0  0  0  0  0  0  0  0  0  0  0
    4.8710    2.4457   -0.6497 H   0  0  0  0  0  0  0  0  0  0  0  0
    2.4408    2.8168   -0.7593 H   0  0  0  0  0  0  0  0  0  0  0  0
   -4.1568    3.0785   -1.7911 H   0  0  0  0  0  0  0  0  0  0  0  0
   -5.4947    2.2487   -2.6743 H   0  0  0  0  0  0  0  0  0  0  0  0
   -5.7868    3.1683   -1.1368 H   0  0  0  0  0  0  0  0  0  0  0  0
   -7.5354    1.7807   -1.1681 H   0  0  0  0  0  0  0  0  0  0  0  0
  1  2  1  0
  2  3  2  0
  3  4  1  0
  3  5  1  0
  5  6  2  0
  6  7  1  0
  7  8  1  0
  8  9  1  0
  9 10  1  0
  9 11  1  0
 11 12  1  0
 12 13  1  0
 13 14  2  0
 14 15  1  0
 15 16  2  0
 16 17  1  0
 17 18  1  0
 18 19  1  0
 19 20  1  0
 20 21  2  0
 20 22  1  0
 22 23  1  0
 23 24  2  0
 16 25  1  0
 25 26  2  0
  9 27  1  0
  6 28  1  0
 28 29  1  0
 28 30  2  0
 30 31  1  0
 30  2  1  0
 27  5  1  0
 26 13  1  0
 23 18  1  0
  1 32  1  0
  1 33  1  0
  1 34  1  0
  4 35  1  0
  4 36  1  0
  4 37  1  0
  7 38  1  0
  7 39  1  0
  8 40  1  0
  8 41  1  0
 10 42  1  0
 10 43  1  0
 10 44  1  0
 11 45  1  0
 11 46  1  0
 14 47  1  0
 15 48  1  0
 17 49  1  0
 17 50  1  0
 18 51  1  0
 22 52  1  0
 25 53  1  0
 26 54  1  0
 29 55  1  0
 29 56  1  0
 29 57  1  0
 31 58  1  0
M  END
$$$$
