
     RDKit          3D

 33 34  0  0  0  0  0  0  0  0999 V2000
    1.5625   -1.2384    1.7048 C   0  0  1  0  0  0  0  0  0  0  0  0
    2.5069   -0.2158    1.0655 C   0  0  0  0  0  0  0  0  0  0  0  0
    2.0273    0.1528   -0.2074 O   0  0  0  0  0  0  0  0  0  0  0  0
    2.9691    1.4498   -0.7855 P   0  0  0  0  0  5  0  0  0  0  0  0
    4.6111    1.0373   -0.7712 O   0  0  0  0  0  0  0  0  0  0  0  0
    2.7232    2.8155    0.1837 O   0  0  0  0  0  0  0  0  0  0  0  0
    2.5501    1.7684   -2.2026 O   0  0  0  0  0  0  0  0  0  0  0  0
    0.3017   -0.6488    1.9719 O   0  0  0  0  0  0  0  0  0  0  0  0
   -0.6787   -1.5168    1.4251 C   0  0  2  0  0  0  0  0  0  0  0  0
    0.0409   -2.5467    0.6350 C   0  0  0  0  0  0  0  0  0  0  0  0
    1.3267   -2.3986    0.8095 C   0  0  0  0  0  0  0  0  0  0  0  0
   -1.6461   -0.7890    0.5747 N   0  0  0  0  0  0  0  0  0  0  0  0
   -1.3151    0.4140    0.0098 C   0  0  0  0  0  0  0  0  0  0  0  0
   -2.2065    1.0829   -0.8345 C   0  0  0  0  0  0  0  0  0  0  0  0
   -1.8428    2.4156   -1.4291 C   0  0  0  0  0  0  0  0  0  0  0  0
   -3.4559    0.4990   -1.0684 C   0  0  0  0  0  0  0  0  0  0  0  0
   -4.3040    1.0749   -1.8032 O   0  0  0  0  0  0  0  0  0  0  0  0
   -3.7589   -0.6973   -0.5017 N   0  0  0  0  0  0  0  0  0  0  0  0
   -2.8722   -1.3443    0.3029 C   0  0  0  0  0  0  0  0  0  0  0  0
   -3.1926   -2.4620    0.7945 O   0  0  0  0  0  0  0  0  0  0  0  0
    2.0037   -1.5987    2.6596 H   0  0  0  0  0  0  0  0  0  0  0  0
    2.5657    0.6612    1.7506 H   0  0  0  0  0  0  0  0  0  0  0  0
    3.5167   -0.6760    0.9759 H   0  0  0  0  0  0  0  0  0  0  0  0
    4.6695    0.2138   -1.3185 H   0  0  0  0  0  0  0  0  0  0  0  0
    1.7395    2.9283    0.2149 H   0  0  0  0  0  0  0  0  0  0  0  0
   -1.2067   -2.0115    2.2703 H   0  0  0  0  0  0  0  0  0  0  0  0
   -0.4165   -3.3390    0.0515 H   0  0  0  0  0  0  0  0  0  0  0  0
    2.0884   -3.0446    0.3850 H   0  0  0  0  0  0  0  0  0  0  0  0
   -0.3585    0.8734    0.2133 H   0  0  0  0  0  0  0  0  0  0  0  0
   -2.3936    3.2202   -0.8987 H   0  0  0  0  0  0  0  0  0  0  0  0
   -0.7525    2.6125   -1.3440 H   0  0  0  0  0  0  0  0  0  0  0  0
   -2.1105    2.4394   -2.5066 H   0  0  0  0  0  0  0  0  0  0  0  0
   -4.6918   -1.1312   -0.6898 H   0  0  0  0  0  0  0  0  0  0  0  0
  1  2  1  0
  2  3  1  0
  3  4  1  0
  4  5  1  0
  4  6  1  0
  4  7  2  0
  1  8  1  0
  8  9  1  0
  9 10  1  0
 10 11  2  0
  9 12  1  0
 12 13  1  0
 13 14  2  0
 14 15  1  0
 14 16  1  0
 16 17  2  0
 16 18  1  0
 18 19  1  0
 19 20  2  0
 11  1  1  0
 19 12  1  0
  1 21  1  1
  2 22  1  0
  2 23  1  0
  5 24  1  0
  6 25  1  0
  9 26  1  1
 10 27  1  0
 11 28  1  0
 13 29  1  0
 15 30  1  0
 15 31  1  0
 15 32  1  0
 18 33  1  0
M  END
$$$$
