
     RDKit          3D

 81 80  0  0  0  0  0  0  0  0999 V2000
   -0.0130    2.2823   -0.2759 O   0  0  0  0  0  0  0  0  0  0  0  0
   -0.1795    1.2679    0.6781 C   0  0  0  0  0  0  0  0  0  0  0  0
    0.0215   -0.1325    0.0392 C   0  0  0  0  0  0  0  0  0  0  0  0
   -0.1676   -1.1716    1.0701 N   0  0  0  0  0  4  0  0  0  0  0  0
   -1.0054   -0.3491   -1.1040 C   0  0  0  0  0  0  0  0  0  0  0  0
   -2.3186   -0.2400   -0.6241 O   0  0  0  0  0  0  0  0  0  0  0  0
    1.4508   -0.2468   -0.5592 C   0  0  0  0  0  0  0  0  0  0  0  0
    2.4359   -0.0193    0.4156 O   0  0  0  0  0  0  0  0  0  0  0  0
    7.5733   -0.2392    2.2788 C   0  0  0  0  0  0  0  0  0  0  0  0
    6.1170   -0.6875    2.1981 C   0  0  0  0  0  0  0  0  0  0  0  0
    5.4685   -0.2260    0.8844 C   0  0  0  0  0  0  0  0  0  0  0  0
    4.0024   -0.6788    0.7681 C   0  0  0  0  0  0  0  0  0  0  0  0
    3.0256    0.1764    1.6166 C   0  0  0  0  0  0  0  0  0  0  0  0
    2.1792    1.2092    0.8153 C   0  0  1  0  0  0  0  0  0  0  0  0
    1.4039    1.9565    1.7241 O   0  0  0  0  0  0  0  0  0  0  0  0
    3.0965    2.1947    0.0685 C   0  0  0  0  0  0  0  0  0  0  0  0
    1.2582    0.5037   -0.1718 C   0  0  0  0  0  0  0  0  0  0  0  0
    0.3369    1.1743   -0.8883 C   0  0  0  0  0  0  0  0  0  0  0  0
   -0.6290    0.5193   -1.8591 C   0  0  1  0  0  0  0  0  0  0  0  0
   -0.0063    0.0257   -3.1747 C   0  0  1  0  0  0  0  0  0  0  0  0
    1.3138   -0.4382   -3.0122 O   0  0  0  0  0  0  0  0  0  0  0  0
   -0.9372   -1.0936   -3.6789 C   0  0  0  0  0  0  0  0  0  0  0  0
   -1.9603   -1.3692   -2.5646 C   0  0  2  0  0  0  0  0  0  0  0  0
   -3.2047   -0.8186   -2.9170 O   0  0  0  0  0  0  0  0  0  0  0  0
   -1.3975   -0.6849   -1.3080 C   0  0  2  0  0  0  0  0  0  0  0  0
   -2.4581   -0.2857   -0.2606 C   0  0  0  0  0  0  0  0  0  0  0  0
   -3.1524   -1.5071    0.2949 C   0  0  0  0  0  0  0  0  0  0  0  0
   -4.4789   -1.7415    0.2725 C   0  0  0  0  0  0  0  0  0  0  0  0
   -5.5329   -0.8215   -0.2963 C   0  0  0  0  0  0  0  0  0  0  0  0
   -6.1804    0.0507    0.7883 C   0  0  0  0  0  0  0  0  0  0  0  0
   -5.2392    1.1432    1.3081 C   0  0  0  0  0  0  0  0  0  0  0  0
   -5.9382    1.9981    2.3171 C   0  0  0  0  0  0  0  0  0  0  0  0
   -6.5682    3.0248    1.9504 O   0  0  0  0  0  0  0  0  0  0  0  0
   -5.9356    1.6343    3.6577 O   0  0  0  0  0  1  0  0  0  0  0  0
   -0.1561    3.1391    0.2039 H   0  0  0  0  0  0  0  0  0  0  0  0
   -1.1990    1.3394    1.1196 H   0  0  0  0  0  0  0  0  0  0  0  0
    0.5513    1.4149    1.5050 H   0  0  0  0  0  0  0  0  0  0  0  0
   -0.0102   -2.1233    0.6644 H   0  0  0  0  0  0  0  0  0  0  0  0
    0.5001   -1.0333    1.8631 H   0  0  0  0  0  0  0  0  0  0  0  0
   -1.1377   -1.1339    1.4596 H   0  0  0  0  0  0  0  0  0  0  0  0
   -0.8444    0.4016   -1.9107 H   0  0  0  0  0  0  0  0  0  0  0  0
   -0.8610   -1.3604   -1.5480 H   0  0  0  0  0  0  0  0  0  0  0  0
   -2.9118   -0.3906   -1.4053 H   0  0  0  0  0  0  0  0  0  0  0  0
    1.5929   -1.2475   -1.0316 H   0  0  0  0  0  0  0  0  0  0  0  0
    1.5849    0.5050   -1.3664 H   0  0  0  0  0  0  0  0  0  0  0  0
    2.6670   -0.9019    0.8066 H   0  0  0  0  0  0  0  0  0  0  0  0
    7.6380    0.8692    2.2414 H   0  0  0  0  0  0  0  0  0  0  0  0
    8.1572   -0.6697    1.4375 H   0  0  0  0  0  0  0  0  0  0  0  0
    8.0176   -0.5886    3.2345 H   0  0  0  0  0  0  0  0  0  0  0  0
    6.0806   -1.7968    2.2638 H   0  0  0  0  0  0  0  0  0  0  0  0
    5.5689   -0.2690    3.0683 H   0  0  0  0  0  0  0  0  0  0  0  0
    6.0366   -0.6667    0.0358 H   0  0  0  0  0  0  0  0  0  0  0  0
    5.5380    0.8788    0.7947 H   0  0  0  0  0  0  0  0  0  0  0  0
    3.9259   -1.7429    1.0828 H   0  0  0  0  0  0  0  0  0  0  0  0
    3.7132   -0.6606   -0.3038 H   0  0  0  0  0  0  0  0  0  0  0  0
    2.3275   -0.5164    2.1372 H   0  0  0  0  0  0  0  0  0  0  0  0
    3.5721    0.7123    2.4223 H   0  0  0  0  0  0  0  0  0  0  0  0
    0.7795    1.3325    2.1810 H   0  0  0  0  0  0  0  0  0  0  0  0
    3.6586    1.6883   -0.7443 H   0  0  0  0  0  0  0  0  0  0  0  0
    2.5013    3.0145   -0.3866 H   0  0  0  0  0  0  0  0  0  0  0  0
    3.8189    2.6583    0.7737 H   0  0  0  0  0  0  0  0  0  0  0  0
    1.3282   -0.5738   -0.2644 H   0  0  0  0  0  0  0  0  0  0  0  0
    0.2413    2.2473   -0.7480 H   0  0  0  0  0  0  0  0  0  0  0  0
   -1.3764    1.2988   -2.1367 H   0  0  0  0  0  0  0  0  0  0  0  0
    0.0120    0.8601   -3.9101 H   0  0  0  0  0  0  0  0  0  0  0  0
    1.2846   -1.2693   -2.4702 H   0  0  0  0  0  0  0  0  0  0  0  0
   -0.3670   -2.0207   -3.9079 H   0  0  0  0  0  0  0  0  0  0  0  0
   -1.4450   -0.7755   -4.6163 H   0  0  0  0  0  0  0  0  0  0  0  0
   -2.0628   -2.4650   -2.3822 H   0  0  0  0  0  0  0  0  0  0  0  0
   -3.6304   -1.4574   -3.5464 H   0  0  0  0  0  0  0  0  0  0  0  0
   -0.6861   -1.3962   -0.8333 H   0  0  0  0  0  0  0  0  0  0  0  0
   -3.1552    0.4589   -0.6875 H   0  0  0  0  0  0  0  0  0  0  0  0
   -1.9467    0.2171    0.5879 H   0  0  0  0  0  0  0  0  0  0  0  0
   -2.5205   -2.2563    0.7637 H   0  0  0  0  0  0  0  0  0  0  0  0
   -4.8322   -2.6604    0.7320 H   0  0  0  0  0  0  0  0  0  0  0  0
   -6.3287   -1.4648   -0.7296 H   0  0  0  0  0  0  0  0  0  0  0  0
   -5.1622   -0.2040   -1.1377 H   0  0  0  0  0  0  0  0  0  0  0  0
   -7.0831    0.5325    0.3518 H   0  0  0  0  0  0  0  0  0  0  0  0
   -6.5154   -0.5923    1.6326 H   0  0  0  0  0  0  0  0  0  0  0  0
   -4.8948    1.7797    0.4642 H   0  0  0  0  0  0  0  0  0  0  0  0
   -4.3499    0.6835    1.7885 H   0  0  0  0  0  0  0  0  0  0  0  0
  1  2  1  0
  2  3  1  0
  3  4  1  0
  3  5  1  0
  5  6  1  0
  3  7  1  0
  7  8  1  0
  9 10  1  0
 10 11  1  0
 11 12  1  0
 12 13  1  0
 13 14  1  0
 14 15  1  1
 14 16  1  0
 14 17  1  0
 17 18  2  0
 18 19  1  0
 19 20  1  0
 20 21  1  0
 20 22  1  0
 22 23  1  0
 23 24  1  0
 23 25  1  0
 25 26  1  0
 26 27  1  0
 27 28  2  0
 28 29  1  0
 29 30  1  0
 30 31  1  0
 31 32  1  0
 32 33  2  0
 32 34  1  0
 25 19  1  0
  1 35  1  0
  2 36  1  0
  2 37  1  0
  4 38  1  0
  4 39  1  0
  4 40  1  0
  5 41  1  0
  5 42  1  0
  6 43  1  0
  7 44  1  0
  7 45  1  0
  8 46  1  0
  9 47  1  0
  9 48  1  0
  9 49  1  0
 10 50  1  0
 10 51  1  0
 11 52  1  0
 11 53  1  0
 12 54  1  0
 12 55  1  0
 13 56  1  0
 13 57  1  0
 15 58  1  0
 16 59  1  0
 16 60  1  0
 16 61  1  0
 17 62  1  0
 18 63  1  0
 19 64  1  6
 20 65  1  6
 21 66  1  0
 22 67  1  0
 22 68  1  0
 23 69  1  1
 24 70  1  0
 25 71  1  1
 26 72  1  0
 26 73  1  0
 27 74  1  0
 28 75  1  0
 29 76  1  0
 29 77  1  0
 30 78  1  0
 30 79  1  0
 31 80  1  0
 31 81  1  0
M  CHG  2   4   1  34  -1
M  END
$$$$
