
     RDKit          3D

 18 18  0  0  0  0  0  0  0  0999 V2000
    2.1886    1.8304    0.3719 O   0  0  0  0  0  0  0  0  0  0  0  0
    2.0360    0.4517    0.1580 C   0  0  2  0  0  0  0  0  0  0  0  0
    2.6311    0.0785   -1.1336 C   0  0  0  0  0  0  0  0  0  0  0  0
    3.0995   -0.2153   -2.1503 N   0  0  0  0  0  0  0  0  0  0  0  0
    0.5706    0.0940    0.1619 C   0  0  0  0  0  0  0  0  0  0  0  0
   -0.3511    0.8418   -0.5941 C   0  0  0  0  0  0  0  0  0  0  0  0
   -1.7052    0.4944   -0.6034 C   0  0  0  0  0  0  0  0  0  0  0  0
   -2.1542   -0.6078    0.1358 C   0  0  0  0  0  0  0  0  0  0  0  0
   -3.5011   -0.9633    0.1343 O   0  0  0  0  0  0  0  0  0  0  0  0
   -1.2421   -1.3610    0.8814 C   0  0  0  0  0  0  0  0  0  0  0  0
    0.1131   -1.0164    0.8929 C   0  0  0  0  0  0  0  0  0  0  0  0
    3.1383    1.9814    0.6213 H   0  0  0  0  0  0  0  0  0  0  0  0
    2.5658   -0.1097    0.9621 H   0  0  0  0  0  0  0  0  0  0  0  0
   -0.0195    1.6919   -1.1776 H   0  0  0  0  0  0  0  0  0  0  0  0
   -2.4037    1.0804   -1.1871 H   0  0  0  0  0  0  0  0  0  0  0  0
   -4.1866   -0.4382   -0.3961 H   0  0  0  0  0  0  0  0  0  0  0  0
   -1.5834   -2.2161    1.4509 H   0  0  0  0  0  0  0  0  0  0  0  0
    0.8040   -1.6168    1.4717 H   0  0  0  0  0  0  0  0  0  0  0  0
  1  2  1  0
  2  3  1  0
  3  4  3  0
  2  5  1  0
  5  6  2  0
  6  7  1  0
  7  8  2  0
  8  9  1  0
  8 10  1  0
 10 11  2  0
 11  5  1  0
  1 12  1  0
  2 13  1  1
  6 14  1  0
  7 15  1  0
  9 16  1  0
 10 17  1  0
 11 18  1  0
M  END
$$$$
