
     RDKit          3D

 31 32  0  0  0  0  0  0  0  0999 V2000
   -5.8603    0.5531   -1.8298 O   0  0  0  0  0  0  0  0  0  0  0  0
   -5.5269    0.1305   -0.5468 C   0  0  0  0  0  0  0  0  0  0  0  0
   -5.9741    0.7484    0.4562 O   0  0  0  0  0  0  0  0  0  0  0  0
   -4.6110   -1.0403   -0.3620 C   0  0  0  0  0  0  0  0  0  0  0  0
   -3.1496   -0.6668   -0.6414 C   0  0  0  0  0  0  0  0  0  0  0  0
   -2.5807    0.2820    0.4206 C   0  0  0  0  0  0  0  0  0  0  0  0
   -1.1420    0.5735    0.1399 C   0  0  0  0  0  0  0  0  0  0  0  0
   -0.1181   -0.1666    0.6058 N   0  0  0  0  0  0  0  0  0  0  0  0
    0.9413    0.4724    0.0632 C   0  0  0  0  0  0  0  0  0  0  0  0
    0.5716    1.5302   -0.6881 N   0  0  0  0  0  0  0  0  0  0  0  0
   -0.7238    1.5567   -0.6170 O   0  0  0  0  0  0  0  0  0  0  0  0
    2.3462    0.0564    0.2664 C   0  0  0  0  0  0  0  0  0  0  0  0
    3.3970    0.7734   -0.3340 C   0  0  0  0  0  0  0  0  0  0  0  0
    4.7357    0.3832   -0.1453 C   0  0  0  0  0  0  0  0  0  0  0  0
    5.0120   -0.7391    0.6558 C   0  0  0  0  0  0  0  0  0  0  0  0
    3.9728   -1.4541    1.2538 C   0  0  0  0  0  0  0  0  0  0  0  0
    2.6472   -1.0612    1.0621 C   0  0  0  0  0  0  0  0  0  0  0  0
    5.8043    1.1235   -0.7639 N   0  0  0  0  0  4  0  0  0  0  0  0
    5.5330    2.2217   -1.5477 O   0  0  0  0  0  1  0  0  0  0  0  0
    6.9940    0.7818   -0.5999 O   0  0  0  0  0  0  0  0  0  0  0  0
   -6.4689    1.3503   -1.9722 H   0  0  0  0  0  0  0  0  0  0  0  0
   -4.7108   -1.4476    0.6681 H   0  0  0  0  0  0  0  0  0  0  0  0
   -4.9180   -1.8411   -1.0683 H   0  0  0  0  0  0  0  0  0  0  0  0
   -2.5475   -1.6022   -0.6499 H   0  0  0  0  0  0  0  0  0  0  0  0
   -3.0675   -0.2015   -1.6490 H   0  0  0  0  0  0  0  0  0  0  0  0
   -3.1452    1.2388    0.4213 H   0  0  0  0  0  0  0  0  0  0  0  0
   -2.6697   -0.1788    1.4283 H   0  0  0  0  0  0  0  0  0  0  0  0
    3.1730    1.6359   -0.9487 H   0  0  0  0  0  0  0  0  0  0  0  0
    6.0315   -1.0639    0.8198 H   0  0  0  0  0  0  0  0  0  0  0  0
    4.1958   -2.3167    1.8687 H   0  0  0  0  0  0  0  0  0  0  0  0
    1.8587   -1.6320    1.5365 H   0  0  0  0  0  0  0  0  0  0  0  0
  1  2  1  0
  2  3  2  0
  2  4  1  0
  4  5  1  0
  5  6  1  0
  6  7  1  0
  7  8  2  0
  8  9  1  0
  9 10  2  0
 10 11  1  0
  9 12  1  0
 12 13  2  0
 13 14  1  0
 14 15  2  0
 15 16  1  0
 16 17  2  0
 14 18  1  0
 18 19  1  0
 18 20  2  0
 11  7  1  0
 17 12  1  0
  1 21  1  0
  4 22  1  0
  4 23  1  0
  5 24  1  0
  5 25  1  0
  6 26  1  0
  6 27  1  0
 13 28  1  0
 15 29  1  0
 16 30  1  0
 17 31  1  0
M  CHG  2  18   1  19  -1
M  END
$$$$
