
     RDKit          3D

 35 37  0  0  0  0  0  0  0  0999 V2000
    6.4973   -0.2317   -0.3617 C   0  0  0  0  0  0  0  0  0  0  0  0
    5.3532   -1.0226   -0.0571 O   0  0  0  0  0  0  0  0  0  0  0  0
    4.0322   -0.5523   -0.0969 C   0  0  0  0  0  0  0  0  0  0  0  0
    3.7119    0.7720   -0.4524 C   0  0  0  0  0  0  0  0  0  0  0  0
    2.3785    1.1920   -0.4756 C   0  0  0  0  0  0  0  0  0  0  0  0
    1.3495    0.3082   -0.1344 C   0  0  0  0  0  0  0  0  0  0  0  0
    0.0241    0.7657   -0.1864 O   0  0  0  0  0  0  0  0  0  0  0  0
   -1.0423    0.2606    0.5720 C   0  0  0  0  0  0  0  0  0  0  0  0
   -0.8271   -0.1161    1.9113 C   0  0  0  0  0  0  0  0  0  0  0  0
   -1.8874   -0.5236    2.7182 C   0  0  0  0  0  0  0  0  0  0  0  0
   -3.1849   -0.5339    2.2146 C   0  0  0  0  0  0  0  0  0  0  0  0
   -3.4290   -0.1565    0.8915 C   0  0  0  0  0  0  0  0  0  0  0  0
   -4.7079   -0.1283    0.4385 N   0  0  0  0  0  0  0  0  0  0  0  0
   -4.9952    0.2415   -0.8326 C   0  0  0  0  0  0  0  0  0  0  0  0
   -6.3492    0.2752   -1.2774 N   0  0  0  0  0  0  0  0  0  0  0  0
   -3.9920    0.5592   -1.6872 N   0  0  0  0  0  0  0  0  0  0  0  0
   -2.6868    0.5360   -1.3072 C   0  0  0  0  0  0  0  0  0  0  0  0
   -1.6968    0.7839   -2.3104 N   0  0  0  0  0  0  0  0  0  0  0  0
   -2.3575    0.2106    0.0363 C   0  0  0  0  0  0  0  0  0  0  0  0
    1.6670   -1.0192    0.2030 C   0  0  0  0  0  0  0  0  0  0  0  0
    2.9996   -1.4402    0.2263 C   0  0  0  0  0  0  0  0  0  0  0  0
    6.5642    0.6282    0.3379 H   0  0  0  0  0  0  0  0  0  0  0  0
    6.4425    0.1313   -1.4098 H   0  0  0  0  0  0  0  0  0  0  0  0
    7.4086   -0.8537   -0.2483 H   0  0  0  0  0  0  0  0  0  0  0  0
    4.4840    1.4826   -0.7139 H   0  0  0  0  0  0  0  0  0  0  0  0
    2.1436    2.2116   -0.7537 H   0  0  0  0  0  0  0  0  0  0  0  0
    0.1625   -0.0572    2.3452 H   0  0  0  0  0  0  0  0  0  0  0  0
   -1.7058   -0.8045    3.7477 H   0  0  0  0  0  0  0  0  0  0  0  0
   -4.0051   -0.8242    2.8598 H   0  0  0  0  0  0  0  0  0  0  0  0
   -6.5768    0.5519   -2.2581 H   0  0  0  0  0  0  0  0  0  0  0  0
   -7.1260    0.0241   -0.6263 H   0  0  0  0  0  0  0  0  0  0  0  0
   -0.7892    0.2716   -2.3201 H   0  0  0  0  0  0  0  0  0  0  0  0
   -1.9773    1.2554   -3.1988 H   0  0  0  0  0  0  0  0  0  0  0  0
    0.8862   -1.7330    0.4300 H   0  0  0  0  0  0  0  0  0  0  0  0
    3.2314   -2.4643    0.4903 H   0  0  0  0  0  0  0  0  0  0  0  0
  1  2  1  0
  2  3  1  0
  3  4  2  0
  4  5  1  0
  5  6  2  0
  6  7  1  0
  7  8  1  0
  8  9  2  0
  9 10  1  0
 10 11  2  0
 11 12  1  0
 12 13  2  0
 13 14  1  0
 14 15  1  0
 14 16  2  0
 16 17  1  0
 17 18  1  0
 17 19  2  0
  6 20  1  0
 20 21  2  0
 21  3  1  0
 19  8  1  0
 19 12  1  0
  1 22  1  0
  1 23  1  0
  1 24  1  0
  4 25  1  0
  5 26  1  0
  9 27  1  0
 10 28  1  0
 11 29  1  0
 15 30  1  0
 15 31  1  0
 18 32  1  0
 18 33  1  0
 20 34  1  0
 21 35  1  0
M  END
$$$$
