
     RDKit          3D

 39 39  0  0  0  0  0  0  0  0999 V2000
   -6.5871   -1.1119    0.8061 O   0  0  0  0  0  0  0  0  0  0  0  0
   -5.4059   -0.7452    0.1577 C   0  0  0  0  0  0  0  0  0  0  0  0
   -4.7714    0.4733    0.4973 C   0  0  0  0  0  0  0  0  0  0  0  0
   -3.5677    0.8199   -0.1449 C   0  0  0  0  0  0  0  0  0  0  0  0
   -3.0061   -0.0113   -1.1228 C   0  0  0  0  0  0  0  0  0  0  0  0
   -1.7024    0.3571   -1.7768 C   0  0  0  0  0  0  0  0  0  0  0  0
   -0.5596   -0.2489   -1.0217 C   0  0  0  0  0  0  0  0  0  0  0  0
   -0.1031   -1.3682   -1.3809 O   0  0  0  0  0  0  0  0  0  0  0  0
   -0.0265    0.4160    0.1324 N   0  0  0  0  0  0  0  0  0  0  0  0
    1.0734   -0.1360    0.9205 C   0  0  0  0  0  0  0  0  0  0  0  0
    2.4038    0.0413    0.1818 C   0  0  0  0  0  0  0  0  0  0  0  0
    3.5745   -0.4894    1.0223 C   0  0  0  0  0  0  0  0  0  0  0  0
    4.9111   -0.4537    0.2647 C   0  0  0  0  0  0  0  0  0  0  0  0
    5.4399    0.9728    0.0670 C   0  0  0  0  0  0  0  0  0  0  0  0
    6.7978    0.9433   -0.5604 C   0  0  0  0  0  0  0  0  0  0  0  0
    6.9240    0.9011   -1.9431 O   0  0  0  0  0  1  0  0  0  0  0  0
    7.8290    0.9114    0.1615 O   0  0  0  0  0  0  0  0  0  0  0  0
   -3.6400   -1.2150   -1.4485 C   0  0  0  0  0  0  0  0  0  0  0  0
   -4.8322   -1.5842   -0.8214 C   0  0  0  0  0  0  0  0  0  0  0  0
   -5.6991   -3.4317   -1.3981 I   0  0  0  0  0  0  0  0  0  0  0  0
   -5.3295    1.3597    1.4911 N   0  0  0  0  0  4  0  0  0  0  0  0
   -6.6289    1.2209    1.9213 O   0  0  0  0  0  1  0  0  0  0  0  0
   -4.6520    2.3053    1.9455 O   0  0  0  0  0  0  0  0  0  0  0  0
   -7.0848   -1.9701    0.6113 H   0  0  0  0  0  0  0  0  0  0  0  0
   -3.0662    1.7454    0.1095 H   0  0  0  0  0  0  0  0  0  0  0  0
   -1.5824    1.4618   -1.8105 H   0  0  0  0  0  0  0  0  0  0  0  0
   -1.6888    0.0004   -2.8301 H   0  0  0  0  0  0  0  0  0  0  0  0
   -0.4762    1.3008    0.4594 H   0  0  0  0  0  0  0  0  0  0  0  0
    0.8826   -1.2113    1.1296 H   0  0  0  0  0  0  0  0  0  0  0  0
    1.1235    0.3984    1.8944 H   0  0  0  0  0  0  0  0  0  0  0  0
    2.3661   -0.5047   -0.7854 H   0  0  0  0  0  0  0  0  0  0  0  0
    2.5494    1.1222   -0.0283 H   0  0  0  0  0  0  0  0  0  0  0  0
    3.6601    0.0948    1.9649 H   0  0  0  0  0  0  0  0  0  0  0  0
    3.3663   -1.5463    1.2992 H   0  0  0  0  0  0  0  0  0  0  0  0
    4.7993   -0.9568   -0.7211 H   0  0  0  0  0  0  0  0  0  0  0  0
    5.6550   -1.0329    0.8555 H   0  0  0  0  0  0  0  0  0  0  0  0
    4.7587    1.5470   -0.5952 H   0  0  0  0  0  0  0  0  0  0  0  0
    5.4982    1.4962    1.0463 H   0  0  0  0  0  0  0  0  0  0  0  0
   -3.2027   -1.8714   -2.1909 H   0  0  0  0  0  0  0  0  0  0  0  0
  1  2  1  0
  2  3  2  0
  3  4  1  0
  4  5  2  0
  5  6  1  0
  6  7  1  0
  7  8  2  0
  7  9  1  0
  9 10  1  0
 10 11  1  0
 11 12  1  0
 12 13  1  0
 13 14  1  0
 14 15  1  0
 15 16  1  0
 15 17  2  0
  5 18  1  0
 18 19  2  0
 19 20  1  0
  3 21  1  0
 21 22  1  0
 21 23  2  0
 19  2  1  0
  1 24  1  0
  4 25  1  0
  6 26  1  0
  6 27  1  0
  9 28  1  0
 10 29  1  0
 10 30  1  0
 11 31  1  0
 11 32  1  0
 12 33  1  0
 12 34  1  0
 13 35  1  0
 13 36  1  0
 14 37  1  0
 14 38  1  0
 18 39  1  0
M  CHG  3  16  -1  21   1  22  -1
M  END
$$$$
