
     RDKit          3D

 21 22  0  0  0  0  0  0  0  0999 V2000
   -3.1466    0.0866   -0.0877 C   0  0  0  0  0  0  0  0  0  0  0  0
   -1.7865   -0.3674    0.1824 N   0  0  0  0  0  0  0  0  0  0  0  0
   -1.4147   -1.4797    0.8638 C   0  0  0  0  0  0  0  0  0  0  0  0
   -0.0664   -1.6235    0.9605 N   0  0  0  0  0  0  0  0  0  0  0  0
    0.3987   -0.5421    0.3030 C   0  0  0  0  0  0  0  0  0  0  0  0
   -0.6263    0.2136   -0.1622 C   0  0  0  0  0  0  0  0  0  0  0  0
   -0.3707    1.3899   -0.8555 C   0  0  0  0  0  0  0  0  0  0  0  0
   -1.3043    2.1114   -1.2971 O   0  0  0  0  0  0  0  0  0  0  0  0
    0.9336    1.7483   -1.0420 N   0  0  0  0  0  0  0  0  0  0  0  0
    1.9641    0.9755   -0.5633 C   0  0  0  0  0  0  0  0  0  0  0  0
    3.1534    1.3570   -0.7424 O   0  0  0  0  0  0  0  0  0  0  0  0
    1.7041   -0.2006    0.1072 N   0  0  0  0  0  0  0  0  0  0  0  0
    2.7903   -1.0195    0.6598 C   0  0  0  0  0  0  0  0  0  0  0  0
   -3.8852   -0.6354    0.3210 H   0  0  0  0  0  0  0  0  0  0  0  0
   -3.3023    0.1724   -1.1836 H   0  0  0  0  0  0  0  0  0  0  0  0
   -3.3127    1.0753    0.3890 H   0  0  0  0  0  0  0  0  0  0  0  0
   -2.1165   -2.1838    1.2919 H   0  0  0  0  0  0  0  0  0  0  0  0
    1.1518    2.6335   -1.5541 H   0  0  0  0  0  0  0  0  0  0  0  0
    2.4705   -2.0749    0.7941 H   0  0  0  0  0  0  0  0  0  0  0  0
    3.6630   -1.0284   -0.0276 H   0  0  0  0  0  0  0  0  0  0  0  0
    3.1028   -0.6081    1.6425 H   0  0  0  0  0  0  0  0  0  0  0  0
  1  2  1  0
  2  3  1  0
  3  4  2  0
  4  5  1  0
  5  6  2  0
  6  7  1  0
  7  8  2  0
  7  9  1  0
  9 10  1  0
 10 11  2  0
 10 12  1  0
 12 13  1  0
  6  2  1  0
 12  5  1  0
  1 14  1  0
  1 15  1  0
  1 16  1  0
  3 17  1  0
  9 18  1  0
 13 19  1  0
 13 20  1  0
 13 21  1  0
M  END
$$$$
