
     RDKit          3D

 24 25  0  0  0  0  0  0  0  0999 V2000
    3.9480   -0.6830    0.2494 O   0  0  0  0  0  0  0  0  0  0  0  0
    3.2685    0.5273   -0.7192 P   0  0  0  0  0  5  0  0  0  0  0  0
    4.1262    1.9686   -0.4999 O   0  0  0  0  0  0  0  0  0  0  0  0
    3.3442    0.1202   -2.1733 O   0  0  0  0  0  0  0  0  0  0  0  0
    1.6240    0.7745   -0.2706 O   0  0  0  0  0  0  0  0  0  0  0  0
    0.6239   -0.2111   -0.3066 C   0  0  0  0  0  0  0  0  0  0  0  0
    0.8745   -1.5341   -0.7253 C   0  0  0  0  0  0  0  0  0  0  0  0
   -0.1550   -2.4797   -0.7431 C   0  0  0  0  0  0  0  0  0  0  0  0
   -1.4457   -2.1262   -0.3462 C   0  0  0  0  0  0  0  0  0  0  0  0
   -1.7141   -0.8171    0.0728 C   0  0  0  0  0  0  0  0  0  0  0  0
   -3.0001   -0.4353    0.4764 C   0  0  0  0  0  0  0  0  0  0  0  0
   -3.2386    0.8768    0.8894 C   0  0  0  0  0  0  0  0  0  0  0  0
   -2.1857    1.7980    0.8951 C   0  0  0  0  0  0  0  0  0  0  0  0
   -0.9423    1.4139    0.5009 N   0  0  0  0  0  0  0  0  0  0  0  0
   -0.6757    0.1425    0.0924 C   0  0  0  0  0  0  0  0  0  0  0  0
   -2.4094    3.1537    1.3166 C   0  0  0  0  0  0  0  0  0  0  0  0
   -2.5894    4.2453    1.6559 N   0  0  0  0  0  0  0  0  0  0  0  0
    4.8983   -0.7235   -0.0266 H   0  0  0  0  0  0  0  0  0  0  0  0
    4.0207    2.1791    0.4621 H   0  0  0  0  0  0  0  0  0  0  0  0
    1.8588   -1.8478   -1.0403 H   0  0  0  0  0  0  0  0  0  0  0  0
    0.0496   -3.4922   -1.0666 H   0  0  0  0  0  0  0  0  0  0  0  0
   -2.2308   -2.8726   -0.3667 H   0  0  0  0  0  0  0  0  0  0  0  0
   -3.8163   -1.1480    0.4723 H   0  0  0  0  0  0  0  0  0  0  0  0
   -4.2336    1.1708    1.2012 H   0  0  0  0  0  0  0  0  0  0  0  0
  1  2  1  0
  2  3  1  0
  2  4  2  0
  2  5  1  0
  5  6  1  0
  6  7  2  0
  7  8  1  0
  8  9  2  0
  9 10  1  0
 10 11  2  0
 11 12  1  0
 12 13  2  0
 13 14  1  0
 14 15  2  0
 13 16  1  0
 16 17  3  0
 15  6  1  0
 15 10  1  0
  1 18  1  0
  3 19  1  0
  7 20  1  0
  8 21  1  0
  9 22  1  0
 11 23  1  0
 12 24  1  0
M  END
$$$$
