
     RDKit          3D

 20 19  0  0  0  0  0  0  0  0999 V2000
   -3.1808   -0.2576    0.2978 C   0  0  0  0  0  0  0  0  0  0  0  0
   -1.5226    0.1549   -0.3116 P   0  0  1  0  0  5  0  0  0  0  0  0
   -0.8360   -1.2070   -1.0446 O   0  0  0  0  0  0  0  0  0  0  0  0
   -1.6248    1.2764   -1.3207 O   0  0  0  0  0  0  0  0  0  0  0  0
   -0.4858    0.6789    1.0884 C   0  0  0  0  0  0  0  0  0  0  0  0
    0.9109    0.9862    0.6226 C   0  0  0  0  0  0  0  0  0  0  0  0
    1.1030    1.9515   -0.1025 O   0  0  0  0  0  0  0  0  0  0  0  0
    2.0804    0.1435    1.0521 C   0  0  0  0  0  0  0  0  0  0  0  0
    2.6222   -0.6184   -0.1143 C   0  0  0  0  0  0  0  0  0  0  0  0
    3.5641   -0.0277   -0.9508 O   0  0  0  0  0  0  0  0  0  0  0  0
    2.1999   -1.7795   -0.3618 O   0  0  0  0  0  0  0  0  0  0  0  0
   -3.8197   -0.5755   -0.5516 H   0  0  0  0  0  0  0  0  0  0  0  0
   -3.1088   -1.0838    1.0347 H   0  0  0  0  0  0  0  0  0  0  0  0
   -3.6292    0.6330    0.7844 H   0  0  0  0  0  0  0  0  0  0  0  0
   -1.4489   -1.4309   -1.7896 H   0  0  0  0  0  0  0  0  0  0  0  0
   -0.4824   -0.1333    1.8450 H   0  0  0  0  0  0  0  0  0  0  0  0
   -0.9290    1.5836    1.5549 H   0  0  0  0  0  0  0  0  0  0  0  0
    1.7844   -0.5697    1.8511 H   0  0  0  0  0  0  0  0  0  0  0  0
    2.8737    0.8001    1.4690 H   0  0  0  0  0  0  0  0  0  0  0  0
    3.9292   -0.5247   -1.7543 H   0  0  0  0  0  0  0  0  0  0  0  0
  1  2  1  0
  2  3  1  6
  2  4  2  0
  2  5  1  0
  5  6  1  0
  6  7  2  0
  6  8  1  0
  8  9  1  0
  9 10  1  0
  9 11  2  0
  1 12  1  0
  1 13  1  0
  1 14  1  0
  3 15  1  0
  5 16  1  0
  5 17  1  0
  8 18  1  0
  8 19  1  0
 10 20  1  0
M  END
$$$$
