
     RDKit          2D

418426  0  0  0  0  0  0  0  0999 V2000
  -19.9625    0.3645    0.0000 C   0  0  0  0  0  0  0  0  0  0  0  0
  -19.6506   -1.1027    0.0000 S   0  0  0  0  0  0  0  0  0  0  0  0
  -18.2240   -1.5663    0.0000 C   0  0  0  0  0  0  0  0  0  0  0  0
  -16.7974   -2.0298    0.0000 C   0  0  0  0  0  0  0  0  0  0  0  0
  -15.3709   -2.4933    0.0000 C   0  0  0  0  0  0  0  0  0  0  0  0
  -15.8344   -3.9199    0.0000 N   0  0  0  0  0  0  0  0  0  0  0  0
  -17.3016   -4.2318    0.0000 C   0  0  0  0  0  0  0  0  0  0  0  0
  -18.4337   -3.2477    0.0000 O   0  0  0  0  0  0  0  0  0  0  0  0
  -17.7651   -5.6584    0.0000 C   0  0  0  0  0  0  0  0  0  0  0  0
  -18.2287   -7.0849    0.0000 C   0  0  0  0  0  0  0  0  0  0  0  0
  -18.6922   -8.5115    0.0000 O   0  0  0  0  0  0  0  0  0  0  0  0
  -19.1917   -5.1948    0.0000 N   0  0  0  0  0  0  0  0  0  0  0  0
  -20.3064   -6.1985    0.0000 C   0  0  0  0  0  0  0  0  0  0  0  0
  -19.9946   -7.6657    0.0000 O   0  0  0  0  0  0  0  0  0  0  0  0
  -21.7330   -5.7350    0.0000 C   0  0  0  0  0  0  0  0  0  0  0  0
  -23.1596   -5.2715    0.0000 C   0  0  0  0  0  0  0  0  0  0  0  0
  -24.5862   -4.8079    0.0000 C   0  0  0  0  0  0  0  0  0  0  0  0
  -24.8981   -3.3407    0.0000 C   0  0  0  0  0  0  0  0  0  0  0  0
  -26.3246   -2.8772    0.0000 C   0  0  0  0  0  0  0  0  0  0  0  0
  -27.4394   -3.8809    0.0000 C   0  0  0  0  0  0  0  0  0  0  0  0
  -28.8659   -3.4174    0.0000 O   0  0  0  0  0  0  0  0  0  0  0  0
  -27.1275   -5.3481    0.0000 C   0  0  0  0  0  0  0  0  0  0  0  0
  -25.7009   -5.8116    0.0000 C   0  0  0  0  0  0  0  0  0  0  0  0
  -22.1965   -7.1616    0.0000 N   0  0  0  0  0  0  0  0  0  0  0  0
  -23.6638   -7.4734    0.0000 C   0  0  0  0  0  0  0  0  0  0  0  0
  -24.6675   -6.3587    0.0000 O   0  0  0  0  0  0  0  0  0  0  0  0
  -24.1273   -8.9000    0.0000 C   0  0  0  0  0  0  0  0  0  0  0  0
  -25.5539   -8.4365    0.0000 N   0  0  0  0  0  0  0  0  0  0  0  0
  -24.5908  -10.3266    0.0000 C   0  0  0  0  0  0  0  0  0  0  0  0
  -25.0543  -11.7532    0.0000 O   0  0  0  0  0  0  0  0  0  0  0  0
  -13.9443   -2.9568    0.0000 C   0  0  0  0  0  0  0  0  0  0  0  0
  -13.8136   -4.4511    0.0000 O   0  0  0  0  0  0  0  0  0  0  0  0
  -12.8296   -1.9531    0.0000 N   0  0  0  0  0  0  0  0  0  0  0  0
  -11.4030   -2.4167    0.0000 C   0  0  0  0  0  0  0  0  0  0  0  0
  -11.8665   -3.8433    0.0000 C   0  0  0  0  0  0  0  0  0  0  0  0
  -12.3300   -5.2698    0.0000 C   0  0  0  0  0  0  0  0  0  0  0  0
  -12.7935   -6.6964    0.0000 C   0  0  0  0  0  0  0  0  0  0  0  0
  -14.2608   -7.0083    0.0000 O   0  0  0  0  0  0  0  0  0  0  0  0
  -11.7898   -7.8111    0.0000 O   0  0  0  0  0  0  0  0  0  0  0  0
  -10.9394   -0.9901    0.0000 C   0  0  0  0  0  0  0  0  0  0  0  0
  -11.9431    0.1246    0.0000 O   0  0  0  0  0  0  0  0  0  0  0  0
   -9.4722   -0.6782    0.0000 N   0  0  0  0  0  0  0  0  0  0  0  0
   -9.0087    0.7484    0.0000 C   0  0  0  0  0  0  0  0  0  0  0  0
  -10.4353    1.2119    0.0000 C   0  0  0  0  0  0  0  0  0  0  0  0
  -11.8619    1.6754    0.0000 C   0  0  0  0  0  0  0  0  0  0  0  0
  -13.0754    0.7937    0.0000 C   0  0  0  0  0  0  0  0  0  0  0  0
  -14.2889    1.6754    0.0000 N   0  0  0  0  0  0  0  0  0  0  0  0
  -13.8254    3.1020    0.0000 C   0  0  0  0  0  0  0  0  0  0  0  0
  -12.3254    3.1020    0.0000 N   0  0  0  0  0  0  0  0  0  0  0  0
   -7.5821    0.2848    0.0000 C   0  0  0  0  0  0  0  0  0  0  0  0
   -7.2702   -1.1824    0.0000 O   0  0  0  0  0  0  0  0  0  0  0  0
   -6.4674    1.2885    0.0000 N   0  0  0  0  0  0  0  0  0  0  0  0
   -5.0408    0.8250    0.0000 C   0  0  0  0  0  0  0  0  0  0  0  0
   -5.5043   -0.6016    0.0000 C   0  0  0  0  0  0  0  0  0  0  0  0
   -5.9679   -2.0282    0.0000 C   0  0  0  0  0  0  0  0  0  0  0  0
   -7.4351   -2.3400    0.0000 C   0  0  0  0  0  0  0  0  0  0  0  0
   -7.8986   -3.7666    0.0000 C   0  0  0  0  0  0  0  0  0  0  0  0
   -6.8949   -4.8813    0.0000 C   0  0  0  0  0  0  0  0  0  0  0  0
   -5.4277   -4.5695    0.0000 C   0  0  0  0  0  0  0  0  0  0  0  0
   -4.9642   -3.1429    0.0000 C   0  0  0  0  0  0  0  0  0  0  0  0
   -4.5773    2.2516    0.0000 C   0  0  0  0  0  0  0  0  0  0  0  0
   -5.7094    3.2357    0.0000 O   0  0  0  0  0  0  0  0  0  0  0  0
   -3.1101    2.5635    0.0000 N   0  0  0  0  0  0  0  0  0  0  0  0
   -2.6465    3.9901    0.0000 C   0  0  0  0  0  0  0  0  0  0  0  0
   -4.0731    4.4536    0.0000 C   0  0  0  0  0  0  0  0  0  0  0  0
   -5.4997    4.9171    0.0000 C   0  0  0  0  0  0  0  0  0  0  0  0
   -6.9263    5.3806    0.0000 C   0  0  0  0  0  0  0  0  0  0  0  0
   -8.3529    5.8442    0.0000 N   0  0  0  0  0  0  0  0  0  0  0  0
   -9.4676    4.8405    0.0000 C   0  0  0  0  0  0  0  0  0  0  0  0
   -9.1557    3.3732    0.0000 N   0  0  0  0  0  0  0  0  0  0  0  0
  -10.8942    5.3040    0.0000 N   0  0  0  0  0  0  0  0  0  0  0  0
   -1.2200    3.5265    0.0000 C   0  0  0  0  0  0  0  0  0  0  0  0
   -0.9081    2.0593    0.0000 O   0  0  0  0  0  0  0  0  0  0  0  0
   -0.1052    4.5302    0.0000 N   0  0  0  0  0  0  0  0  0  0  0  0
    1.3213    4.0667    0.0000 C   0  0  0  0  0  0  0  0  0  0  0  0
    0.8578    2.6401    0.0000 C   0  0  0  0  0  0  0  0  0  0  0  0
    0.3943    1.2135    0.0000 C   0  0  0  0  0  0  0  0  0  0  0  0
   -1.0323    0.7500    0.0000 C   0  0  0  0  0  0  0  0  0  0  0  0
   -1.0323   -0.7500    0.0000 N   0  0  0  0  0  0  0  0  0  0  0  0
    0.3943   -1.2135    0.0000 C   0  0  0  0  0  0  0  0  0  0  0  0
    1.2760    0.0000    0.0000 C   0  0  0  0  0  0  0  0  0  0  0  0
    2.7678   -0.1568    0.0000 C   0  0  0  0  0  0  0  0  0  0  0  0
    3.3779   -1.5271    0.0000 C   0  0  0  0  0  0  0  0  0  0  0  0
    2.4962   -2.7406    0.0000 C   0  0  0  0  0  0  0  0  0  0  0  0
    1.0044   -2.5838    0.0000 C   0  0  0  0  0  0  0  0  0  0  0  0
    1.7849    5.4933    0.0000 C   0  0  0  0  0  0  0  0  0  0  0  0
    0.7812    6.6080    0.0000 O   0  0  0  0  0  0  0  0  0  0  0  0
    3.2521    5.8051    0.0000 N   0  0  0  0  0  0  0  0  0  0  0  0
    3.7156    7.2317    0.0000 C   0  0  0  0  0  0  0  0  0  0  0  0
    4.1791    8.6583    0.0000 C   0  0  0  0  0  0  0  0  0  0  0  0
    5.2685    8.7536    0.0000 O   0  0  0  0  0  0  0  0  0  0  0  0
    3.1755    9.7730    0.0000 N   0  0  0  0  0  0  0  0  0  0  0  0
    3.6390   11.1996    0.0000 C   0  0  0  0  0  0  0  0  0  0  0  0
    2.2124   11.6631    0.0000 C   0  0  0  0  0  0  0  0  0  0  0  0
    0.7858   12.1267    0.0000 C   0  0  0  0  0  0  0  0  0  0  0  0
   -0.6408   12.5902    0.0000 C   0  0  0  0  0  0  0  0  0  0  0  0
   -2.0674   13.0537    0.0000 C   0  0  0  0  0  0  0  0  0  0  0  0
   -3.4939   13.5172    0.0000 N   0  0  0  0  0  0  0  0  0  0  0  0
    5.0656   10.7361    0.0000 C   0  0  0  0  0  0  0  0  0  0  0  0
    5.4216    9.7022    0.0000 O   0  0  0  0  0  0  0  0  0  0  0  0
    6.1803   11.7398    0.0000 N   0  0  0  0  0  0  0  0  0  0  0  0
    6.0235   13.2316    0.0000 C   0  0  0  0  0  0  0  0  0  0  0  0
    7.3938   13.8417    0.0000 C   0  0  0  0  0  0  0  0  0  0  0  0
    8.3975   12.7270    0.0000 C   0  0  0  0  0  0  0  0  0  0  0  0
    7.6475   11.4279    0.0000 C   0  0  0  0  0  0  0  0  0  0  0  0
    9.0178   10.8178    0.0000 C   0  0  0  0  0  0  0  0  0  0  0  0
    9.9025   11.4606    0.0000 O   0  0  0  0  0  0  0  0  0  0  0  0
    9.1746    9.3260    0.0000 N   0  0  0  0  0  0  0  0  0  0  0  0
   10.5449    8.7159    0.0000 C   0  0  0  0  0  0  0  0  0  0  0  0
    9.9348    7.3456    0.0000 C   0  0  0  0  0  0  0  0  0  0  0  0
    9.3247    5.9753    0.0000 C   0  0  0  0  0  0  0  0  0  0  0  0
   11.3051    6.7355    0.0000 C   0  0  0  0  0  0  0  0  0  0  0  0
   11.1550   10.0862    0.0000 C   0  0  0  0  0  0  0  0  0  0  0  0
   10.7455   11.1001    0.0000 O   0  0  0  0  0  0  0  0  0  0  0  0
   12.6468   10.2430    0.0000 N   0  0  0  0  0  0  0  0  0  0  0  0
   13.2569   11.6134    0.0000 C   0  0  0  0  0  0  0  0  0  0  0  0
   13.8670   12.9837    0.0000 C   0  0  0  0  0  0  0  0  0  0  0  0
   14.8458   13.0865    0.0000 O   0  0  0  0  0  0  0  0  0  0  0  0
   12.9853   14.1972    0.0000 N   0  0  0  0  0  0  0  0  0  0  0  0
   13.5955   15.5675    0.0000 C   0  0  0  0  0  0  0  0  0  0  0  0
   12.2251   16.1776    0.0000 C   0  0  0  0  0  0  0  0  0  0  0  0
   10.8548   16.7877    0.0000 C   0  0  0  0  0  0  0  0  0  0  0  0
    9.4845   17.3978    0.0000 C   0  0  0  0  0  0  0  0  0  0  0  0
    8.1142   18.0079    0.0000 C   0  0  0  0  0  0  0  0  0  0  0  0
    6.7439   18.6180    0.0000 N   0  0  0  0  0  0  0  0  0  0  0  0
   14.9658   14.9574    0.0000 C   0  0  0  0  0  0  0  0  0  0  0  0
   15.2385   14.2083    0.0000 O   0  0  0  0  0  0  0  0  0  0  0  0
   16.1793   15.8391    0.0000 N   0  0  0  0  0  0  0  0  0  0  0  0
   17.5496   15.2290    0.0000 C   0  0  0  0  0  0  0  0  0  0  0  0
   18.1597   16.5993    0.0000 C   0  0  0  0  0  0  0  0  0  0  0  0
   18.7698   17.9696    0.0000 C   0  0  0  0  0  0  0  0  0  0  0  0
   19.3799   19.3399    0.0000 C   0  0  0  0  0  0  0  0  0  0  0  0
   19.9900   20.7103    0.0000 C   0  0  0  0  0  0  0  0  0  0  0  0
   20.6001   22.0806    0.0000 N   0  0  0  0  0  0  0  0  0  0  0  0
   16.9395   13.8587    0.0000 C   0  0  0  0  0  0  0  0  0  0  0  0
   15.9608   13.7558    0.0000 O   0  0  0  0  0  0  0  0  0  0  0  0
   17.8212   12.6451    0.0000 N   0  0  0  0  0  0  0  0  0  0  0  0
   17.2111   11.2748    0.0000 C   0  0  0  0  0  0  0  0  0  0  0  0
   18.5814   10.6647    0.0000 C   0  0  0  0  0  0  0  0  0  0  0  0
   19.9517   10.0546    0.0000 C   0  0  0  0  0  0  0  0  0  0  0  0
   21.3220    9.4445    0.0000 C   0  0  0  0  0  0  0  0  0  0  0  0
   22.6924    8.8344    0.0000 N   0  0  0  0  0  0  0  0  0  0  0  0
   22.8491    7.3426    0.0000 C   0  0  0  0  0  0  0  0  0  0  0  0
   21.6356    6.4609    0.0000 N   0  0  0  0  0  0  0  0  0  0  0  0
   24.2195    6.7325    0.0000 N   0  0  0  0  0  0  0  0  0  0  0  0
   15.8408   11.8849    0.0000 C   0  0  0  0  0  0  0  0  0  0  0  0
   15.8670   13.3847    0.0000 O   0  0  0  0  0  0  0  0  0  0  0  0
   14.6272   11.0033    0.0000 N   0  0  0  0  0  0  0  0  0  0  0  0
   13.2569   11.6134    0.0000 C   0  0  0  0  0  0  0  0  0  0  0  0
   12.6468   10.2430    0.0000 C   0  0  0  0  0  0  0  0  0  0  0  0
   12.0367    8.8727    0.0000 C   0  0  0  0  0  0  0  0  0  0  0  0
   11.4266    7.5024    0.0000 C   0  0  0  0  0  0  0  0  0  0  0  0
   10.8165    6.1321    0.0000 N   0  0  0  0  0  0  0  0  0  0  0  0
   11.6982    4.9186    0.0000 C   0  0  0  0  0  0  0  0  0  0  0  0
   13.1900    5.0754    0.0000 N   0  0  0  0  0  0  0  0  0  0  0  0
   11.0881    3.5482    0.0000 N   0  0  0  0  0  0  0  0  0  0  0  0
   13.8670   12.9837    0.0000 C   0  0  0  0  0  0  0  0  0  0  0  0
   15.3588   13.1405    0.0000 O   0  0  0  0  0  0  0  0  0  0  0  0
   12.9853   14.1972    0.0000 N   0  0  0  0  0  0  0  0  0  0  0  0
   11.4853   14.1972    0.0000 C   0  0  0  0  0  0  0  0  0  0  0  0
   11.0218   15.6238    0.0000 C   0  0  0  0  0  0  0  0  0  0  0  0
   12.2353   16.5055    0.0000 C   0  0  0  0  0  0  0  0  0  0  0  0
   13.4489   15.6238    0.0000 C   0  0  0  0  0  0  0  0  0  0  0  0
   14.1989   16.9228    0.0000 C   0  0  0  0  0  0  0  0  0  0  0  0
   15.6543   17.2858    0.0000 O   0  0  0  0  0  0  0  0  0  0  0  0
   13.4489   18.2219    0.0000 N   0  0  0  0  0  0  0  0  0  0  0  0
   14.1989   19.5209    0.0000 C   0  0  0  0  0  0  0  0  0  0  0  0
   12.8998   20.2709    0.0000 C   0  0  0  0  0  0  0  0  0  0  0  0
   11.6008   21.0209    0.0000 C   0  0  0  0  0  0  0  0  0  0  0  0
   13.6498   21.5699    0.0000 C   0  0  0  0  0  0  0  0  0  0  0  0
   15.4979   18.7709    0.0000 C   0  0  0  0  0  0  0  0  0  0  0  0
   15.4979   17.2709    0.0000 O   0  0  0  0  0  0  0  0  0  0  0  0
   16.7970   19.5209    0.0000 N   0  0  0  0  0  0  0  0  0  0  0  0
   18.0960   18.7709    0.0000 C   0  0  0  0  0  0  0  0  0  0  0  0
   18.8460   20.0699    0.0000 C   0  0  0  0  0  0  0  0  0  0  0  0
   19.5960   21.3690    0.0000 C   0  0  0  0  0  0  0  0  0  0  0  0
   20.3460   22.6680    0.0000 C   0  0  0  0  0  0  0  0  0  0  0  0
   21.0960   23.9671    0.0000 C   0  0  0  0  0  0  0  0  0  0  0  0
   21.8460   25.2661    0.0000 N   0  0  0  0  0  0  0  0  0  0  0  0
   17.3460   17.4719    0.0000 C   0  0  0  0  0  0  0  0  0  0  0  0
   18.6181   16.6771    0.0000 O   0  0  0  0  0  0  0  0  0  0  0  0
   15.8460   17.4719    0.0000 N   0  0  0  0  0  0  0  0  0  0  0  0
   15.0960   16.1728    0.0000 C   0  0  0  0  0  0  0  0  0  0  0  0
   13.7970   16.9228    0.0000 C   0  0  0  0  0  0  0  0  0  0  0  0
   12.4979   17.6728    0.0000 C   0  0  0  0  0  0  0  0  0  0  0  0
   13.0470   15.6238    0.0000 C   0  0  0  0  0  0  0  0  0  0  0  0
   16.3950   15.4228    0.0000 C   0  0  0  0  0  0  0  0  0  0  0  0
   15.6907   14.0985    0.0000 O   0  0  0  0  0  0  0  0  0  0  0  0
   17.6941   16.1728    0.0000 N   0  0  0  0  0  0  0  0  0  0  0  0
   18.9931   15.4228    0.0000 C   0  0  0  0  0  0  0  0  0  0  0  0
   19.7431   16.7219    0.0000 C   0  0  0  0  0  0  0  0  0  0  0  0
   20.4931   18.0209    0.0000 C   0  0  0  0  0  0  0  0  0  0  0  0
   21.9931   18.0209    0.0000 C   0  0  0  0  0  0  0  0  0  0  0  0
   22.7431   19.3199    0.0000 C   0  0  0  0  0  0  0  0  0  0  0  0
   21.9931   20.6190    0.0000 C   0  0  0  0  0  0  0  0  0  0  0  0
   22.7431   21.9180    0.0000 O   0  0  0  0  0  0  0  0  0  0  0  0
   20.4931   20.6190    0.0000 C   0  0  0  0  0  0  0  0  0  0  0  0
   19.7431   19.3199    0.0000 C   0  0  0  0  0  0  0  0  0  0  0  0
   18.2431   14.1238    0.0000 C   0  0  0  0  0  0  0  0  0  0  0  0
   16.7543   14.3066    0.0000 O   0  0  0  0  0  0  0  0  0  0  0  0
   18.9931   12.8247    0.0000 N   0  0  0  0  0  0  0  0  0  0  0  0
   20.4849   12.6680    0.0000 C   0  0  0  0  0  0  0  0  0  0  0  0
   20.7968   11.2007    0.0000 C   0  0  0  0  0  0  0  0  0  0  0  0
   19.4977   10.4507    0.0000 C   0  0  0  0  0  0  0  0  0  0  0  0
   18.3830   11.4544    0.0000 C   0  0  0  0  0  0  0  0  0  0  0  0
   17.5013   10.2409    0.0000 C   0  0  0  0  0  0  0  0  0  0  0  0
   16.0095   10.3977    0.0000 O   0  0  0  0  0  0  0  0  0  0  0  0
   17.7617    8.7637    0.0000 O   0  0  0  0  0  0  0  0  0  0  0  0
  -20.2743    1.8317    0.0000 H   0  0  0  0  0  0  0  0  0  0  0  0
  -21.4297    0.0526    0.0000 H   0  0  0  0  0  0  0  0  0  0  0  0
  -18.4953    0.6764    0.0000 H   0  0  0  0  0  0  0  0  0  0  0  0
  -17.7605   -0.1397    0.0000 H   0  0  0  0  0  0  0  0  0  0  0  0
  -18.8580   -2.9257    0.0000 H   0  0  0  0  0  0  0  0  0  0  0  0
  -17.5924   -3.3018    0.0000 H   0  0  0  0  0  0  0  0  0  0  0  0
  -16.3339   -0.6032    0.0000 H   0  0  0  0  0  0  0  0  0  0  0  0
  -14.9073   -1.0667    0.0000 H   0  0  0  0  0  0  0  0  0  0  0  0
  -14.8307   -5.0346    0.0000 H   0  0  0  0  0  0  0  0  0  0  0  0
  -16.3385   -6.1219    0.0000 H   0  0  0  0  0  0  0  0  0  0  0  0
  -19.7250   -6.9804    0.0000 H   0  0  0  0  0  0  0  0  0  0  0  0
  -16.8021   -7.5485    0.0000 H   0  0  0  0  0  0  0  0  0  0  0  0
  -17.6885   -9.6262    0.0000 H   0  0  0  0  0  0  0  0  0  0  0  0
  -19.5036   -3.7276    0.0000 H   0  0  0  0  0  0  0  0  0  0  0  0
  -21.2695   -4.3084    0.0000 H   0  0  0  0  0  0  0  0  0  0  0  0
  -23.9545   -6.5435    0.0000 H   0  0  0  0  0  0  0  0  0  0  0  0
  -22.6961   -3.8449    0.0000 H   0  0  0  0  0  0  0  0  0  0  0  0
  -23.7833   -2.3370    0.0000 H   0  0  0  0  0  0  0  0  0  0  0  0
  -26.6365   -1.4100    0.0000 H   0  0  0  0  0  0  0  0  0  0  0  0
  -29.9807   -4.4211    0.0000 H   0  0  0  0  0  0  0  0  0  0  0  0
  -28.2422   -6.3518    0.0000 H   0  0  0  0  0  0  0  0  0  0  0  0
  -25.5702   -7.3059    0.0000 H   0  0  0  0  0  0  0  0  0  0  0  0
  -21.1928   -8.2763    0.0000 H   0  0  0  0  0  0  0  0  0  0  0  0
  -22.7007   -9.3636    0.0000 H   0  0  0  0  0  0  0  0  0  0  0  0
  -26.7826   -9.2968    0.0000 H   0  0  0  0  0  0  0  0  0  0  0  0
  -26.0423   -7.0182    0.0000 H   0  0  0  0  0  0  0  0  0  0  0  0
  -23.1642  -10.7901    0.0000 H   0  0  0  0  0  0  0  0  0  0  0  0
  -26.0633  -10.0404    0.0000 H   0  0  0  0  0  0  0  0  0  0  0  0
  -26.5216  -12.0651    0.0000 H   0  0  0  0  0  0  0  0  0  0  0  0
  -13.3179   -0.5349    0.0000 H   0  0  0  0  0  0  0  0  0  0  0  0
   -9.9764   -2.8802    0.0000 H   0  0  0  0  0  0  0  0  0  0  0  0
  -13.3628   -3.7387    0.0000 H   0  0  0  0  0  0  0  0  0  0  0  0
  -10.4399   -4.3068    0.0000 H   0  0  0  0  0  0  0  0  0  0  0  0
  -10.9034   -5.7334    0.0000 H   0  0  0  0  0  0  0  0  0  0  0  0
  -13.8025   -4.9837    0.0000 H   0  0  0  0  0  0  0  0  0  0  0  0
  -14.7243   -8.4349    0.0000 H   0  0  0  0  0  0  0  0  0  0  0  0
   -8.3401   -1.6623    0.0000 H   0  0  0  0  0  0  0  0  0  0  0  0
   -8.5452    2.1750    0.0000 H   0  0  0  0  0  0  0  0  0  0  0  0
  -10.1491    2.6843    0.0000 H   0  0  0  0  0  0  0  0  0  0  0  0
  -11.2302   -0.0601    0.0000 H   0  0  0  0  0  0  0  0  0  0  0  0
  -13.2582   -0.6951    0.0000 H   0  0  0  0  0  0  0  0  0  0  0  0
  -14.7071    4.3155    0.0000 H   0  0  0  0  0  0  0  0  0  0  0  0
  -11.5982    4.4140    0.0000 H   0  0  0  0  0  0  0  0  0  0  0  0
   -6.7793    2.7558    0.0000 H   0  0  0  0  0  0  0  0  0  0  0  0
   -3.6142    0.3615    0.0000 H   0  0  0  0  0  0  0  0  0  0  0  0
   -4.0778   -1.0651    0.0000 H   0  0  0  0  0  0  0  0  0  0  0  0
   -7.0007   -0.4970    0.0000 H   0  0  0  0  0  0  0  0  0  0  0  0
   -8.2954   -1.1113    0.0000 H   0  0  0  0  0  0  0  0  0  0  0  0
   -9.3658   -4.0785    0.0000 H   0  0  0  0  0  0  0  0  0  0  0  0
   -7.3584   -6.3079    0.0000 H   0  0  0  0  0  0  0  0  0  0  0  0
   -4.4240   -5.6842    0.0000 H   0  0  0  0  0  0  0  0  0  0  0  0
   -3.4969   -2.8310    0.0000 H   0  0  0  0  0  0  0  0  0  0  0  0
   -2.2497    1.3347    0.0000 H   0  0  0  0  0  0  0  0  0  0  0  0
   -2.1830    5.4166    0.0000 H   0  0  0  0  0  0  0  0  0  0  0  0
   -3.6096    5.8802    0.0000 H   0  0  0  0  0  0  0  0  0  0  0  0
   -4.8681    3.1815    0.0000 H   0  0  0  0  0  0  0  0  0  0  0  0
   -5.0362    6.3437    0.0000 H   0  0  0  0  0  0  0  0  0  0  0  0
   -6.1337    3.5577    0.0000 H   0  0  0  0  0  0  0  0  0  0  0  0
   -6.4628    6.8072    0.0000 H   0  0  0  0  0  0  0  0  0  0  0  0
   -7.3898    3.9540    0.0000 H   0  0  0  0  0  0  0  0  0  0  0  0
   -8.6647    7.3114    0.0000 H   0  0  0  0  0  0  0  0  0  0  0  0
  -10.3845    2.5129    0.0000 H   0  0  0  0  0  0  0  0  0  0  0  0
   -7.7291    2.9097    0.0000 H   0  0  0  0  0  0  0  0  0  0  0  0
  -12.1229    4.4437    0.0000 H   0  0  0  0  0  0  0  0  0  0  0  0
   -0.4171    5.9974    0.0000 H   0  0  0  0  0  0  0  0  0  0  0  0
    2.7479    3.6032    0.0000 H   0  0  0  0  0  0  0  0  0  0  0  0
   -0.6385    2.7447    0.0000 H   0  0  0  0  0  0  0  0  0  0  0  0
    2.2844    2.1766    0.0000 H   0  0  0  0  0  0  0  0  0  0  0  0
   -2.3442    1.4772    0.0000 H   0  0  0  0  0  0  0  0  0  0  0  0
   -2.2458   -1.6317    0.0000 H   0  0  0  0  0  0  0  0  0  0  0  0
    3.6494    1.0567    0.0000 H   0  0  0  0  0  0  0  0  0  0  0  0
    4.8696   -1.6839    0.0000 H   0  0  0  0  0  0  0  0  0  0  0  0
    3.1063   -4.1110    0.0000 H   0  0  0  0  0  0  0  0  0  0  0  0
    0.1227   -3.7974    0.0000 H   0  0  0  0  0  0  0  0  0  0  0  0
    4.2558    4.6904    0.0000 H   0  0  0  0  0  0  0  0  0  0  0  0
    2.2890    7.6953    0.0000 H   0  0  0  0  0  0  0  0  0  0  0  0
    5.1422    6.7682    0.0000 H   0  0  0  0  0  0  0  0  0  0  0  0
    1.7572    9.2846    0.0000 H   0  0  0  0  0  0  0  0  0  0  0  0
    3.9252   12.6721    0.0000 H   0  0  0  0  0  0  0  0  0  0  0  0
    2.6759   13.0897    0.0000 H   0  0  0  0  0  0  0  0  0  0  0  0
    1.5784   10.3037    0.0000 H   0  0  0  0  0  0  0  0  0  0  0  0
    1.2493   13.5533    0.0000 H   0  0  0  0  0  0  0  0  0  0  0  0
    0.3223   10.7001    0.0000 H   0  0  0  0  0  0  0  0  0  0  0  0
   -1.1043   11.1636    0.0000 H   0  0  0  0  0  0  0  0  0  0  0  0
   -0.1773   14.0168    0.0000 H   0  0  0  0  0  0  0  0  0  0  0  0
   -1.6038   14.4803    0.0000 H   0  0  0  0  0  0  0  0  0  0  0  0
   -2.5309   11.6271    0.0000 H   0  0  0  0  0  0  0  0  0  0  0  0
   -4.6087   12.5136    0.0000 H   0  0  0  0  0  0  0  0  0  0  0  0
   -3.8058   14.9845    0.0000 H   0  0  0  0  0  0  0  0  0  0  0  0
    4.5292   13.1009    0.0000 H   0  0  0  0  0  0  0  0  0  0  0  0
    5.5600   14.6582    0.0000 H   0  0  0  0  0  0  0  0  0  0  0  0
    6.6438   15.1407    0.0000 H   0  0  0  0  0  0  0  0  0  0  0  0
    8.6073   14.7234    0.0000 H   0  0  0  0  0  0  0  0  0  0  0  0
    9.2578   13.9557    0.0000 H   0  0  0  0  0  0  0  0  0  0  0  0
    9.7883   12.1651    0.0000 H   0  0  0  0  0  0  0  0  0  0  0  0
    7.1840   10.0013    0.0000 H   0  0  0  0  0  0  0  0  0  0  0  0
    7.8627    8.5989    0.0000 H   0  0  0  0  0  0  0  0  0  0  0  0
   11.6055    7.6552    0.0000 H   0  0  0  0  0  0  0  0  0  0  0  0
    8.5004    7.7841    0.0000 H   0  0  0  0  0  0  0  0  0  0  0  0
    8.7146    4.6050    0.0000 H   0  0  0  0  0  0  0  0  0  0  0  0
   10.3853    4.9145    0.0000 H   0  0  0  0  0  0  0  0  0  0  0  0
    7.9544    6.5854    0.0000 H   0  0  0  0  0  0  0  0  0  0  0  0
   12.5909    5.9629    0.0000 H   0  0  0  0  0  0  0  0  0  0  0  0
   11.2268    5.2376    0.0000 H   0  0  0  0  0  0  0  0  0  0  0  0
   12.5910    7.5079    0.0000 H   0  0  0  0  0  0  0  0  0  0  0  0
   13.5285    9.0295    0.0000 H   0  0  0  0  0  0  0  0  0  0  0  0
   11.7797   11.8738    0.0000 H   0  0  0  0  0  0  0  0  0  0  0  0
   14.4389   10.6898    0.0000 H   0  0  0  0  0  0  0  0  0  0  0  0
   11.7419   13.3583    0.0000 H   0  0  0  0  0  0  0  0  0  0  0  0
   14.2056   16.9378    0.0000 H   0  0  0  0  0  0  0  0  0  0  0  0
   12.6637   17.6121    0.0000 H   0  0  0  0  0  0  0  0  0  0  0  0
   11.0430   15.2543    0.0000 H   0  0  0  0  0  0  0  0  0  0  0  0
   10.9332   18.2857    0.0000 H   0  0  0  0  0  0  0  0  0  0  0  0
   10.0822   15.5020    0.0000 H   0  0  0  0  0  0  0  0  0  0  0  0
   10.0946   18.7682    0.0000 H   0  0  0  0  0  0  0  0  0  0  0  0
    8.8744   16.0275    0.0000 H   0  0  0  0  0  0  0  0  0  0  0  0
    8.7243   19.3783    0.0000 H   0  0  0  0  0  0  0  0  0  0  0  0
    7.5041   16.6376    0.0000 H   0  0  0  0  0  0  0  0  0  0  0  0
    6.5871   20.1098    0.0000 H   0  0  0  0  0  0  0  0  0  0  0  0
    5.5303   17.7364    0.0000 H   0  0  0  0  0  0  0  0  0  0  0  0
   15.8418   17.3006    0.0000 H   0  0  0  0  0  0  0  0  0  0  0  0
   18.9199   14.6189    0.0000 H   0  0  0  0  0  0  0  0  0  0  0  0
   19.6561   16.7041    0.0000 H   0  0  0  0  0  0  0  0  0  0  0  0
   16.7253   17.0378    0.0000 H   0  0  0  0  0  0  0  0  0  0  0  0
   17.2926   18.2300    0.0000 H   0  0  0  0  0  0  0  0  0  0  0  0
   20.2662   18.0744    0.0000 H   0  0  0  0  0  0  0  0  0  0  0  0
   17.9455   19.7785    0.0000 H   0  0  0  0  0  0  0  0  0  0  0  0
   20.8144   18.9014    0.0000 H   0  0  0  0  0  0  0  0  0  0  0  0
   21.2758   19.9377    0.0000 H   0  0  0  0  0  0  0  0  0  0  0  0
   18.5556   21.1488    0.0000 H   0  0  0  0  0  0  0  0  0  0  0  0
   19.5771   23.1776    0.0000 H   0  0  0  0  0  0  0  0  0  0  0  0
   22.0617   22.4180    0.0000 H   0  0  0  0  0  0  0  0  0  0  0  0
   19.3210   12.6189    0.0000 H   0  0  0  0  0  0  0  0  0  0  0  0
   16.2875   10.0929    0.0000 H   0  0  0  0  0  0  0  0  0  0  0  0
   17.9713    9.2944    0.0000 H   0  0  0  0  0  0  0  0  0  0  0  0
   19.6421   11.7253    0.0000 H   0  0  0  0  0  0  0  0  0  0  0  0
   19.3416    8.6843    0.0000 H   0  0  0  0  0  0  0  0  0  0  0  0
   20.8753   11.2366    0.0000 H   0  0  0  0  0  0  0  0  0  0  0  0
   22.0946   10.7302    0.0000 H   0  0  0  0  0  0  0  0  0  0  0  0
   20.7119    8.0742    0.0000 H   0  0  0  0  0  0  0  0  0  0  0  0
   23.9059    9.7161    0.0000 H   0  0  0  0  0  0  0  0  0  0  0  0
   21.7924    4.9692    0.0000 H   0  0  0  0  0  0  0  0  0  0  0  0
   20.2653    7.0711    0.0000 H   0  0  0  0  0  0  0  0  0  0  0  0
   24.3763    5.2407    0.0000 H   0  0  0  0  0  0  0  0  0  0  0  0
   14.7840    9.5115    0.0000 H   0  0  0  0  0  0  0  0  0  0  0  0
   11.8866   12.2235    0.0000 H   0  0  0  0  0  0  0  0  0  0  0  0
   11.4649   11.1666    0.0000 H   0  0  0  0  0  0  0  0  0  0  0  0
   14.0171    9.6329    0.0000 H   0  0  0  0  0  0  0  0  0  0  0  0
   13.3224    8.1001    0.0000 H   0  0  0  0  0  0  0  0  0  0  0  0
   10.5404    8.7679    0.0000 H   0  0  0  0  0  0  0  0  0  0  0  0
   12.8611    7.0639    0.0000 H   0  0  0  0  0  0  0  0  0  0  0  0
    9.9303    7.3976    0.0000 H   0  0  0  0  0  0  0  0  0  0  0  0
    9.4070    5.6190    0.0000 H   0  0  0  0  0  0  0  0  0  0  0  0
   14.0716    3.8618    0.0000 H   0  0  0  0  0  0  0  0  0  0  0  0
   13.8001    6.4457    0.0000 H   0  0  0  0  0  0  0  0  0  0  0  0
   11.9698    2.3347    0.0000 H   0  0  0  0  0  0  0  0  0  0  0  0
   11.2765   12.7118    0.0000 H   0  0  0  0  0  0  0  0  0  0  0  0
    9.9911   14.0665    0.0000 H   0  0  0  0  0  0  0  0  0  0  0  0
    9.7361   14.8512    0.0000 H   0  0  0  0  0  0  0  0  0  0  0  0
    9.9798   16.7027    0.0000 H   0  0  0  0  0  0  0  0  0  0  0  0
   11.2317   17.6202    0.0000 H   0  0  0  0  0  0  0  0  0  0  0  0
   12.4180   17.9943    0.0000 H   0  0  0  0  0  0  0  0  0  0  0  0
   14.5094   14.5630    0.0000 H   0  0  0  0  0  0  0  0  0  0  0  0
   12.0485   18.7595    0.0000 H   0  0  0  0  0  0  0  0  0  0  0  0
   15.1016   20.7188    0.0000 H   0  0  0  0  0  0  0  0  0  0  0  0
   11.9971   19.0730    0.0000 H   0  0  0  0  0  0  0  0  0  0  0  0
   10.3018   21.7709    0.0000 H   0  0  0  0  0  0  0  0  0  0  0  0
   12.1869   22.4017    0.0000 H   0  0  0  0  0  0  0  0  0  0  0  0
   10.8508   19.7219    0.0000 H   0  0  0  0  0  0  0  0  0  0  0  0
   14.3998   22.8690    0.0000 H   0  0  0  0  0  0  0  0  0  0  0  0
   12.4519   22.4727    0.0000 H   0  0  0  0  0  0  0  0  0  0  0  0
   15.0306   20.9839    0.0000 H   0  0  0  0  0  0  0  0  0  0  0  0
   16.6141   21.0097    0.0000 H   0  0  0  0  0  0  0  0  0  0  0  0
   19.5379   18.3575    0.0000 H   0  0  0  0  0  0  0  0  0  0  0  0
   20.3403   20.2009    0.0000 H   0  0  0  0  0  0  0  0  0  0  0  0
   17.6481   20.9727    0.0000 H   0  0  0  0  0  0  0  0  0  0  0  0
   18.3981   22.2717    0.0000 H   0  0  0  0  0  0  0  0  0  0  0  0
   21.0775   21.1344    0.0000 H   0  0  0  0  0  0  0  0  0  0  0  0
   19.1481   23.5708    0.0000 H   0  0  0  0  0  0  0  0  0  0  0  0
   21.7268   22.0820    0.0000 H   0  0  0  0  0  0  0  0  0  0  0  0
   22.3950   23.2171    0.0000 H   0  0  0  0  0  0  0  0  0  0  0  0
   19.7970   24.7171    0.0000 H   0  0  0  0  0  0  0  0  0  0  0  0
   21.0960   26.5651    0.0000 H   0  0  0  0  0  0  0  0  0  0  0  0
   23.3460   25.2661    0.0000 H   0  0  0  0  0  0  0  0  0  0  0  0
   14.9432   18.6698    0.0000 H   0  0  0  0  0  0  0  0  0  0  0  0
   14.1932   14.9749    0.0000 H   0  0  0  0  0  0  0  0  0  0  0  0
   14.3830   18.3036    0.0000 H   0  0  0  0  0  0  0  0  0  0  0  0
   11.3000   18.5756    0.0000 H   0  0  0  0  0  0  0  0  0  0  0  0
   13.0840   19.0536    0.0000 H   0  0  0  0  0  0  0  0  0  0  0  0
   12.7324   19.1544    0.0000 H   0  0  0  0  0  0  0  0  0  0  0  0
   11.7748   14.8290    0.0000 H   0  0  0  0  0  0  0  0  0  0  0  0
   11.5654   15.8583    0.0000 H   0  0  0  0  0  0  0  0  0  0  0  0
   11.5527   15.4929    0.0000 H   0  0  0  0  0  0  0  0  0  0  0  0
   17.8769   17.6616    0.0000 H   0  0  0  0  0  0  0  0  0  0  0  0
   20.3739   14.8368    0.0000 H   0  0  0  0  0  0  0  0  0  0  0  0
   18.7992   17.8877    0.0000 H   0  0  0  0  0  0  0  0  0  0  0  0
   21.0421   15.9719    0.0000 H   0  0  0  0  0  0  0  0  0  0  0  0
   22.7431   16.7219    0.0000 H   0  0  0  0  0  0  0  0  0  0  0  0
   24.2431   19.3199    0.0000 H   0  0  0  0  0  0  0  0  0  0  0  0
   24.2431   21.9180    0.0000 H   0  0  0  0  0  0  0  0  0  0  0  0
   20.4409   22.1181    0.0000 H   0  0  0  0  0  0  0  0  0  0  0  0
   18.3428   19.8576    0.0000 H   0  0  0  0  0  0  0  0  0  0  0  0
   20.6677   14.1568    0.0000 H   0  0  0  0  0  0  0  0  0  0  0  0
   21.9767   12.8247    0.0000 H   0  0  0  0  0  0  0  0  0  0  0  0
   22.1562   11.8347    0.0000 H   0  0  0  0  0  0  0  0  0  0  0  0
   21.7203   10.0188    0.0000 H   0  0  0  0  0  0  0  0  0  0  0  0
   20.3794    9.2372    0.0000 H   0  0  0  0  0  0  0  0  0  0  0  0
   18.6590    9.2071    0.0000 H   0  0  0  0  0  0  0  0  0  0  0  0
   17.3040   12.4965    0.0000 H   0  0  0  0  0  0  0  0  0  0  0  0
   15.2824    9.0857    0.0000 H   0  0  0  0  0  0  0  0  0  0  0  0
  1  2  1  0
  2  3  1  0
  3  4  1  0
  4  5  1  0
  5  6  1  0
  6  7  1  0
  7  8  2  0
  7  9  1  0
  9 10  1  0
 10 11  1  0
  9 12  1  0
 12 13  1  0
 13 14  2  0
 13 15  1  0
 15 16  1  0
 16 17  1  0
 17 18  2  0
 18 19  1  0
 19 20  2  0
 20 21  1  0
 20 22  1  0
 22 23  2  0
 15 24  1  0
 24 25  1  0
 25 26  2  0
 25 27  1  0
 27 28  1  0
 27 29  1  0
 29 30  1  0
  5 31  1  0
 31 32  2  0
 31 33  1  0
 33 34  1  0
 34 35  1  0
 35 36  1  0
 36 37  1  0
 37 38  1  0
 37 39  2  0
 34 40  1  0
 40 41  2  0
 40 42  1  0
 42 43  1  0
 43 44  1  0
 44 45  1  0
 45 46  2  0
 46 47  1  0
 47 48  2  0
 48 49  1  0
 43 50  1  0
 50 51  2  0
 50 52  1  0
 52 53  1  0
 53 54  1  0
 54 55  1  0
 55 56  2  0
 56 57  1  0
 57 58  2  0
 58 59  1  0
 59 60  2  0
 53 61  1  0
 61 62  2  0
 61 63  1  0
 63 64  1  0
 64 65  1  0
 65 66  1  0
 66 67  1  0
 67 68  1  0
 68 69  1  0
 69 70  1  0
 69 71  2  3
 64 72  1  0
 72 73  2  0
 72 74  1  0
 74 75  1  0
 75 76  1  0
 76 77  1  0
 77 78  2  0
 78 79  1  0
 79 80  1  0
 80 81  2  0
 81 82  1  0
 82 83  2  0
 83 84  1  0
 84 85  2  0
 75 86  1  0
 86 87  2  0
 86 88  1  0
 88 89  1  0
 89 90  1  0
 90 91  2  0
 90 92  1  0
 92 93  1  0
 93 94  1  0
 94 95  1  0
 95 96  1  0
 96 97  1  0
 97 98  1  0
 93 99  1  0
 99100  2  0
 99101  1  0
101102  1  0
102103  1  0
103104  1  0
104105  1  0
105106  1  0
106107  2  0
106108  1  0
108109  1  0
109110  1  0
110111  1  0
110112  1  0
109113  1  0
113114  2  0
113115  1  0
115116  1  0
116117  1  0
117118  2  0
117119  1  0
119120  1  0
120121  1  0
121122  1  0
122123  1  0
123124  1  0
124125  1  0
120126  1  0
126127  2  0
126128  1  0
128129  1  0
129130  1  0
130131  1  0
131132  1  0
132133  1  0
133134  1  0
129135  1  0
135136  2  0
135137  1  0
137138  1  0
138139  1  0
139140  1  0
140141  1  0
141142  1  0
142143  1  0
143144  1  0
143145  2  3
138146  1  0
146147  2  0
146148  1  0
148149  1  0
149150  1  0
150151  1  0
151152  1  0
152153  1  0
153154  1  0
154155  1  0
154156  2  3
149157  1  0
157158  2  0
157159  1  0
159160  1  0
160161  1  0
161162  1  0
162163  1  0
163164  1  0
164165  2  0
164166  1  0
166167  1  0
167168  1  0
168169  1  0
168170  1  0
167171  1  0
171172  2  0
171173  1  0
173174  1  0
174175  1  0
175176  1  0
176177  1  0
177178  1  0
178179  1  0
174180  1  0
180181  2  0
180182  1  0
182183  1  0
183184  1  0
184185  1  0
184186  1  0
183187  1  0
187188  2  0
187189  1  0
189190  1  0
190191  1  0
191192  1  0
192193  2  0
193194  1  0
194195  2  0
195196  1  0
195197  1  0
197198  2  0
190199  1  0
199200  2  0
199201  1  0
201202  1  0
202203  1  0
203204  1  0
204205  1  0
205206  1  0
206207  1  0
206208  2  0
 23 17  1  0
 49 45  1  0
 60 55  1  0
 81 77  1  0
105101  1  0
163159  1  0
198192  1  0
205201  1  0
 85 80  1  0
  1209  1  0
  1210  1  0
  1211  1  0
  3212  1  0
  3213  1  0
  4214  1  0
  4215  1  0
  5216  1  6
  6217  1  0
  9218  1  1
 10219  1  0
 10220  1  0
 11221  1  0
 12222  1  0
 15223  1  6
 16224  1  0
 16225  1  0
 18226  1  0
 19227  1  0
 21228  1  0
 22229  1  0
 23230  1  0
 24231  1  0
 27232  1  1
 28233  1  0
 28234  1  0
 29235  1  0
 29236  1  0
 30237  1  0
 33238  1  0
 34239  1  1
 35240  1  0
 35241  1  0
 36242  1  0
 36243  1  0
 38244  1  0
 42245  1  0
 43246  1  6
 44247  1  0
 44248  1  0
 46249  1  0
 48250  1  0
 49251  1  0
 52252  1  0
 53253  1  1
 54254  1  0
 54255  1  0
 56256  1  0
 57257  1  0
 58258  1  0
 59259  1  0
 60260  1  0
 63261  1  0
 64262  1  6
 65263  1  0
 65264  1  0
 66265  1  0
 66266  1  0
 67267  1  0
 67268  1  0
 68269  1  0
 70270  1  0
 70271  1  0
 71272  1  0
 74273  1  0
 75274  1  1
 76275  1  0
 76276  1  0
 78277  1  0
 79278  1  0
 82279  1  0
 83280  1  0
 84281  1  0
 85282  1  0
 88283  1  0
 89284  1  0
 89285  1  0
 92286  1  0
 93287  1  6
 94288  1  0
 94289  1  0
 95290  1  0
 95291  1  0
 96292  1  0
 96293  1  0
 97294  1  0
 97295  1  0
 98296  1  0
 98297  1  0
102298  1  0
102299  1  0
103300  1  0
103301  1  0
104302  1  0
104303  1  0
105304  1  6
108305  1  0
109306  1  1
110307  1  0
111308  1  0
111309  1  0
111310  1  0
112311  1  0
112312  1  0
112313  1  0
115314  1  0
116315  1  0
116316  1  0
119317  1  0
120318  1  6
121319  1  0
121320  1  0
122321  1  0
122322  1  0
123323  1  0
123324  1  0
124325  1  0
124326  1  0
125327  1  0
125328  1  0
128329  1  0
129330  1  6
130331  1  0
130332  1  0
131333  1  0
131334  1  0
132335  1  0
132336  1  0
133337  1  0
133338  1  0
134339  1  0
134340  1  0
137341  1  0
138342  1  6
139343  1  0
139344  1  0
140345  1  0
140346  1  0
141347  1  0
141348  1  0
142349  1  0
144350  1  0
144351  1  0
145352  1  0
148353  1  0
149354  1  6
150355  1  0
150356  1  0
151357  1  0
151358  1  0
152359  1  0
152360  1  0
153361  1  0
155362  1  0
155363  1  0
156364  1  0
160365  1  0
160366  1  0
161367  1  0
161368  1  0
162369  1  0
162370  1  0
163371  1  6
166372  1  0
167373  1  6
168374  1  0
169375  1  0
169376  1  0
169377  1  0
170378  1  0
170379  1  0
170380  1  0
173381  1  0
174382  1  6
175383  1  0
175384  1  0
176385  1  0
176386  1  0
177387  1  0
177388  1  0
178389  1  0
178390  1  0
179391  1  0
179392  1  0
182393  1  0
183394  1  1
184395  1  0
185396  1  0
185397  1  0
185398  1  0
186399  1  0
186400  1  0
186401  1  0
189402  1  0
190403  1  6
191404  1  0
191405  1  0
193406  1  0
194407  1  0
196408  1  0
197409  1  0
198410  1  0
202411  1  0
202412  1  0
203413  1  0
203414  1  0
204415  1  0
204416  1  0
205417  1  6
207418  1  0
M  END
$$$$
