
     RDKit          3D

 58 62  0  0  0  0  0  0  0  0999 V2000
    0.7354    4.2753    4.2518 C   0  0  0  0  0  0  0  0  0  0  0  0
    0.5834    3.0749    3.5014 O   0  0  0  0  0  0  0  0  0  0  0  0
    1.5947    2.1182    3.3161 C   0  0  0  0  0  0  0  0  0  0  0  0
    2.8818    2.2793    3.8658 C   0  0  0  0  0  0  0  0  0  0  0  0
    3.8696    1.3159    3.6497 C   0  0  0  0  0  0  0  0  0  0  0  0
    3.5822    0.1662    2.9072 C   0  0  0  0  0  0  0  0  0  0  0  0
    2.3017   -0.0074    2.3708 C   0  0  0  0  0  0  0  0  0  0  0  0
    1.3128    0.9754    2.5440 C   0  0  0  0  0  0  0  0  0  0  0  0
    0.0106    0.8087    1.9589 N   0  0  0  0  0  0  0  0  0  0  0  0
   -0.1951    0.3014    0.6342 C   0  0  0  0  0  0  0  0  0  0  0  0
    0.8011    0.0730   -0.2482 N   0  0  0  0  0  0  0  0  0  0  0  0
    0.1511   -0.3687   -1.3413 C   0  0  0  0  0  0  0  0  0  0  0  0
   -1.2073   -0.3850   -1.0812 C   0  0  0  0  0  0  0  0  0  0  0  0
   -1.3848    0.0377    0.1471 O   0  0  0  0  0  0  0  0  0  0  0  0
   -2.3040   -0.7936   -1.9883 C   0  0  0  0  0  0  0  0  0  0  0  0
   -3.6341   -0.7424   -1.5357 C   0  0  0  0  0  0  0  0  0  0  0  0
   -4.6979   -1.1271   -2.3732 C   0  0  0  0  0  0  0  0  0  0  0  0
   -4.4129   -1.5676   -3.6770 C   0  0  0  0  0  0  0  0  0  0  0  0
   -3.0948   -1.6203   -4.1329 C   0  0  0  0  0  0  0  0  0  0  0  0
   -2.0446   -1.2365   -3.2970 C   0  0  0  0  0  0  0  0  0  0  0  0
   -6.1004   -1.0690   -1.8871 C   0  0  0  0  0  0  0  0  0  0  0  0
   -6.5465    0.0051   -1.0960 C   0  0  0  0  0  0  0  0  0  0  0  0
   -7.8331    0.0479   -0.6577 N   0  0  0  0  0  0  0  0  0  0  0  0
   -8.7250   -0.9317   -0.9595 C   0  0  0  0  0  0  0  0  0  0  0  0
   -8.3311   -2.0180   -1.7410 C   0  0  0  0  0  0  0  0  0  0  0  0
   -7.0168   -2.0859   -2.2060 C   0  0  0  0  0  0  0  0  0  0  0  0
    4.8343   -1.0388    2.6120 S   0  0  0  0  0  6  0  0  0  0  0  0
    4.2151   -2.4068    2.5264 O   0  0  0  0  0  0  0  0  0  0  0  0
    5.8098   -1.0313    3.7555 O   0  0  0  0  0  0  0  0  0  0  0  0
    5.6812   -0.6699    1.1388 N   0  0  0  0  0  0  0  0  0  0  0  0
    4.7963   -0.8720   -0.0103 C   0  0  0  0  0  0  0  0  0  0  0  0
    5.5274   -0.4766   -1.2977 C   0  0  0  0  0  0  0  0  0  0  0  0
    4.6255   -0.0706   -2.4536 C   0  0  0  0  0  0  0  0  0  0  0  0
    5.4113    0.9876   -1.6932 C   0  0  0  0  0  0  0  0  0  0  0  0
    0.9871    4.0370    5.3068 H   0  0  0  0  0  0  0  0  0  0  0  0
   -0.2206    4.8376    4.2333 H   0  0  0  0  0  0  0  0  0  0  0  0
    1.5289    4.9088    3.8022 H   0  0  0  0  0  0  0  0  0  0  0  0
    3.1330    3.1519    4.4528 H   0  0  0  0  0  0  0  0  0  0  0  0
    4.8582    1.4678    4.0638 H   0  0  0  0  0  0  0  0  0  0  0  0
    2.0759   -0.9090    1.8165 H   0  0  0  0  0  0  0  0  0  0  0  0
   -0.8252    1.1650    2.4747 H   0  0  0  0  0  0  0  0  0  0  0  0
    0.6464   -0.6533   -2.2590 H   0  0  0  0  0  0  0  0  0  0  0  0
   -3.8408   -0.4198   -0.5224 H   0  0  0  0  0  0  0  0  0  0  0  0
   -5.2107   -1.8541   -4.3507 H   0  0  0  0  0  0  0  0  0  0  0  0
   -2.8864   -1.9567   -5.1404 H   0  0  0  0  0  0  0  0  0  0  0  0
   -1.0352   -1.2887   -3.6806 H   0  0  0  0  0  0  0  0  0  0  0  0
   -5.8796    0.8183   -0.8413 H   0  0  0  0  0  0  0  0  0  0  0  0
   -9.7406   -0.8667   -0.5925 H   0  0  0  0  0  0  0  0  0  0  0  0
   -9.0371   -2.8023   -1.9814 H   0  0  0  0  0  0  0  0  0  0  0  0
   -6.7131   -2.9401   -2.7979 H   0  0  0  0  0  0  0  0  0  0  0  0
    6.4694   -1.3542    1.0657 H   0  0  0  0  0  0  0  0  0  0  0  0
    4.5060   -1.9427   -0.0892 H   0  0  0  0  0  0  0  0  0  0  0  0
    3.8714   -0.2684    0.1126 H   0  0  0  0  0  0  0  0  0  0  0  0
    6.4717   -0.9851   -1.5877 H   0  0  0  0  0  0  0  0  0  0  0  0
    5.0361   -0.2967   -3.4602 H   0  0  0  0  0  0  0  0  0  0  0  0
    3.5335   -0.0564   -2.2469 H   0  0  0  0  0  0  0  0  0  0  0  0
    6.2872    1.3838   -2.2490 H   0  0  0  0  0  0  0  0  0  0  0  0
    4.7875    1.6270   -1.0321 H   0  0  0  0  0  0  0  0  0  0  0  0
  1  2  1  0
  2  3  1  0
  3  4  2  0
  4  5  1  0
  5  6  2  0
  6  7  1  0
  7  8  2  0
  8  9  1  0
  9 10  1  0
 10 11  2  0
 11 12  1  0
 12 13  2  0
 13 14  1  0
 13 15  1  0
 15 16  2  0
 16 17  1  0
 17 18  2  0
 18 19  1  0
 19 20  2  0
 17 21  1  0
 21 22  2  0
 22 23  1  0
 23 24  2  0
 24 25  1  0
 25 26  2  0
  6 27  1  0
 27 28  2  0
 27 29  2  0
 27 30  1  0
 30 31  1  0
 31 32  1  0
 32 33  1  0
 33 34  1  0
  8  3  1  0
 14 10  1  0
 20 15  1  0
 26 21  1  0
 34 32  1  0
  1 35  1  0
  1 36  1  0
  1 37  1  0
  4 38  1  0
  5 39  1  0
  7 40  1  0
  9 41  1  0
 12 42  1  0
 16 43  1  0
 18 44  1  0
 19 45  1  0
 20 46  1  0
 22 47  1  0
 24 48  1  0
 25 49  1  0
 26 50  1  0
 30 51  1  0
 31 52  1  0
 31 53  1  0
 32 54  1  0
 33 55  1  0
 33 56  1  0
 34 57  1  0
 34 58  1  0
M  END
$$$$
