
     RDKit          3D

 21 20  0  0  0  0  0  0  0  0999 V2000
    2.0932    1.5068   -1.1070 C   0  0  0  0  0  0  0  0  0  0  0  0
    1.6865    0.2827   -0.5079 O   0  0  0  0  0  0  0  0  0  0  0  0
    1.4105    0.1684    0.8575 C   0  0  0  0  0  0  0  0  0  0  0  0
    1.5227    1.1648    1.6229 O   0  0  0  0  0  0  0  0  0  0  0  0
    0.9290   -1.1400    1.4051 C   0  0  0  0  0  0  0  0  0  0  0  0
   -0.6016   -1.1878    1.4733 C   0  0  0  0  0  0  0  0  0  0  0  0
   -1.2233   -1.1540    0.0991 C   0  0  0  0  0  0  0  0  0  0  0  0
   -1.0633   -2.1028   -0.6544 O   0  0  0  0  0  0  0  0  0  0  0  0
   -2.0529    0.0164   -0.3556 C   0  0  0  0  0  0  0  0  0  0  0  0
   -1.4024    0.6851   -1.4778 N   0  0  0  0  0  0  0  0  0  0  0  0
    2.2482    1.3467   -2.1936 H   0  0  0  0  0  0  0  0  0  0  0  0
    3.0458    1.8540   -0.6540 H   0  0  0  0  0  0  0  0  0  0  0  0
    1.3066    2.2781   -0.9659 H   0  0  0  0  0  0  0  0  0  0  0  0
    1.3416   -1.2796    2.4277 H   0  0  0  0  0  0  0  0  0  0  0  0
    1.3100   -1.9726    0.7747 H   0  0  0  0  0  0  0  0  0  0  0  0
   -0.9118   -2.1273    1.9793 H   0  0  0  0  0  0  0  0  0  0  0  0
   -0.9689   -0.3442    2.0972 H   0  0  0  0  0  0  0  0  0  0  0  0
   -2.1833    0.7451    0.4734 H   0  0  0  0  0  0  0  0  0  0  0  0
   -3.0624   -0.3412   -0.6571 H   0  0  0  0  0  0  0  0  0  0  0  0
   -1.9590    1.5407   -1.7051 H   0  0  0  0  0  0  0  0  0  0  0  0
   -1.4650    0.0606   -2.3148 H   0  0  0  0  0  0  0  0  0  0  0  0
  1  2  1  0
  2  3  1  0
  3  4  2  0
  3  5  1  0
  5  6  1  0
  6  7  1  0
  7  8  2  0
  7  9  1  0
  9 10  1  0
  1 11  1  0
  1 12  1  0
  1 13  1  0
  5 14  1  0
  5 15  1  0
  6 16  1  0
  6 17  1  0
  9 18  1  0
  9 19  1  0
 10 20  1  0
 10 21  1  0
M  END
$$$$
