
     RDKit          3D

 63 65  0  0  0  0  0  0  0  0999 V2000
   -3.1313   -2.7651   -0.9883 N   0  0  0  0  0  0  0  0  0  0  0  0
   -4.4210   -2.6708   -1.0773 C   0  0  0  0  0  0  0  0  0  0  0  0
   -5.1157   -3.4014   -2.0954 N   0  0  0  0  0  0  0  0  0  0  0  0
   -5.1416   -1.8278   -0.1554 N   0  0  0  0  0  0  0  0  0  0  0  0
   -6.5470   -2.1079    0.1672 C   0  0  0  0  0  0  0  0  0  0  0  0
   -6.8292   -1.8033    1.6408 C   0  0  0  0  0  0  0  0  0  0  0  0
   -6.3599   -0.3939    2.0120 C   0  0  0  0  0  0  0  0  0  0  0  0
   -4.8606   -0.2201    1.7081 C   0  0  2  0  0  0  0  0  0  0  0  0
   -4.3996    1.1996    2.0984 C   0  0  0  0  0  0  0  0  0  0  0  0
   -2.9072    1.3394    2.0084 C   0  0  0  0  0  0  0  0  0  0  0  0
   -2.1901    0.9379    2.9648 O   0  0  0  0  0  0  0  0  0  0  0  0
   -2.3021    1.8746    0.8219 N   0  0  0  0  0  0  0  0  0  0  0  0
   -0.8613    1.7774    0.5708 C   0  0  1  0  0  0  0  0  0  0  0  0
   -0.5307    0.3993   -0.0302 C   0  0  0  0  0  0  0  0  0  0  0  0
    0.9565    0.1977   -0.1754 C   0  0  0  0  0  0  0  0  0  0  0  0
    1.5934    0.4582   -1.4000 C   0  0  0  0  0  0  0  0  0  0  0  0
    2.9783    0.3100   -1.5202 C   0  0  0  0  0  0  0  0  0  0  0  0
    3.7397   -0.0946   -0.4168 C   0  0  0  0  0  0  0  0  0  0  0  0
    3.1110   -0.3479    0.8086 C   0  0  0  0  0  0  0  0  0  0  0  0
    1.7262   -0.1988    0.9302 C   0  0  0  0  0  0  0  0  0  0  0  0
    5.1655   -0.2442   -0.5404 C   0  0  0  0  0  0  0  0  0  0  0  0
    6.3600   -0.3692   -0.6440 C   0  0  0  0  0  0  0  0  0  0  0  0
    7.7859   -0.5183   -0.7677 C   0  0  0  0  0  0  0  0  0  0  0  0
    8.5447   -0.9520    0.3282 C   0  0  0  0  0  0  0  0  0  0  0  0
    9.9308   -1.0963    0.2063 C   0  0  0  0  0  0  0  0  0  0  0  0
   10.5610   -0.8082   -1.0084 C   0  0  0  0  0  0  0  0  0  0  0  0
    9.8059   -0.3754   -2.1029 C   0  0  0  0  0  0  0  0  0  0  0  0
    8.4196   -0.2300   -1.9843 C   0  0  0  0  0  0  0  0  0  0  0  0
   -0.4184    2.8879   -0.3433 C   0  0  0  0  0  0  0  0  0  0  0  0
   -0.9964    3.0662   -1.4512 O   0  0  0  0  0  0  0  0  0  0  0  0
    0.6682    3.6856    0.0265 O   0  0  0  0  0  0  0  0  0  0  0  0
    1.1893    4.7071   -0.8145 C   0  0  0  0  0  0  0  0  0  0  0  0
   -4.5916   -0.5165    0.2187 C   0  0  0  0  0  0  0  0  0  0  0  0
   -2.5761   -3.3631   -1.6401 H   0  0  0  0  0  0  0  0  0  0  0  0
   -6.1330   -3.2495   -2.2714 H   0  0  0  0  0  0  0  0  0  0  0  0
   -4.6005   -4.0532   -2.7282 H   0  0  0  0  0  0  0  0  0  0  0  0
   -6.7854   -3.1791   -0.0097 H   0  0  0  0  0  0  0  0  0  0  0  0
   -7.2046   -1.4879   -0.4802 H   0  0  0  0  0  0  0  0  0  0  0  0
   -6.3051   -2.5486    2.2787 H   0  0  0  0  0  0  0  0  0  0  0  0
   -7.9201   -1.8925    1.8333 H   0  0  0  0  0  0  0  0  0  0  0  0
   -6.9554    0.3563    1.4453 H   0  0  0  0  0  0  0  0  0  0  0  0
   -6.5448   -0.2319    3.0964 H   0  0  0  0  0  0  0  0  0  0  0  0
   -4.2945   -0.9566    2.3231 H   0  0  0  0  0  0  0  0  0  0  0  0
   -4.7066    1.4158    3.1452 H   0  0  0  0  0  0  0  0  0  0  0  0
   -4.8916    1.9560    1.4488 H   0  0  0  0  0  0  0  0  0  0  0  0
   -2.9320    2.1695    0.0410 H   0  0  0  0  0  0  0  0  0  0  0  0
   -0.3161    1.8920    1.5342 H   0  0  0  0  0  0  0  0  0  0  0  0
   -1.0362    0.2832   -1.0148 H   0  0  0  0  0  0  0  0  0  0  0  0
   -0.9379   -0.3968    0.6311 H   0  0  0  0  0  0  0  0  0  0  0  0
    1.0187    0.7819   -2.2589 H   0  0  0  0  0  0  0  0  0  0  0  0
    3.4554    0.5143   -2.4712 H   0  0  0  0  0  0  0  0  0  0  0  0
    3.6914   -0.6562    1.6700 H   0  0  0  0  0  0  0  0  0  0  0  0
    1.2534   -0.3879    1.8861 H   0  0  0  0  0  0  0  0  0  0  0  0
    8.0659   -1.1777    1.2735 H   0  0  0  0  0  0  0  0  0  0  0  0
   10.5161   -1.4313    1.0529 H   0  0  0  0  0  0  0  0  0  0  0  0
   11.6335   -0.9203   -1.1014 H   0  0  0  0  0  0  0  0  0  0  0  0
   10.2945   -0.1526   -3.0426 H   0  0  0  0  0  0  0  0  0  0  0  0
    7.8434    0.1060   -2.8381 H   0  0  0  0  0  0  0  0  0  0  0  0
    2.0444    5.1972   -0.3056 H   0  0  0  0  0  0  0  0  0  0  0  0
    0.4067    5.4682   -1.0184 H   0  0  0  0  0  0  0  0  0  0  0  0
    1.5439    4.2667   -1.7706 H   0  0  0  0  0  0  0  0  0  0  0  0
   -3.4977   -0.4862    0.0340 H   0  0  0  0  0  0  0  0  0  0  0  0
   -5.0622    0.2653   -0.4170 H   0  0  0  0  0  0  0  0  0  0  0  0
  1  2  2  3
  2  3  1  0
  2  4  1  0
  4  5  1  0
  5  6  1  0
  6  7  1  0
  7  8  1  0
  8  9  1  0
  9 10  1  0
 10 11  2  0
 10 12  1  0
 12 13  1  0
 13 14  1  0
 14 15  1  0
 15 16  2  0
 16 17  1  0
 17 18  2  0
 18 19  1  0
 19 20  2  0
 18 21  1  0
 21 22  3  0
 22 23  1  0
 23 24  2  0
 24 25  1  0
 25 26  2  0
 26 27  1  0
 27 28  2  0
 13 29  1  0
 29 30  2  0
 29 31  1  0
 31 32  1  0
  8 33  1  0
 33  4  1  0
 20 15  1  0
 28 23  1  0
  1 34  1  0
  3 35  1  0
  3 36  1  0
  5 37  1  0
  5 38  1  0
  6 39  1  0
  6 40  1  0
  7 41  1  0
  7 42  1  0
  8 43  1  1
  9 44  1  0
  9 45  1  0
 12 46  1  0
 13 47  1  1
 14 48  1  0
 14 49  1  0
 16 50  1  0
 17 51  1  0
 19 52  1  0
 20 53  1  0
 24 54  1  0
 25 55  1  0
 26 56  1  0
 27 57  1  0
 28 58  1  0
 32 59  1  0
 32 60  1  0
 32 61  1  0
 33 62  1  0
 33 63  1  0
M  END
$$$$
