
     RDKit          3D

 41 43  0  0  0  0  0  0  0  0999 V2000
   -1.7007   -1.0711   -0.7174 C   0  0  1  0  0  0  0  0  0  0  0  0
   -1.8064   -1.3777    1.0786 S   0  0  0  0  0  0  0  0  0  0  0  0
   -3.6432   -1.4190    1.0430 C   0  0  0  0  0  0  0  0  0  0  0  0
   -4.2810   -0.1254    0.5478 C   0  0  0  0  0  0  0  0  0  0  0  0
   -5.6038    0.2670    1.1582 C   0  0  0  0  0  0  0  0  0  0  0  0
   -3.7223    0.5729   -0.4775 C   0  0  0  0  0  0  0  0  0  0  0  0
   -2.4746    0.1106   -0.9978 N   0  0  0  0  0  0  0  0  0  0  0  0
   -1.2731    0.7160   -1.6189 C   0  0  0  0  0  0  0  0  0  0  0  0
   -1.0108    1.8137   -2.1760 O   0  0  0  0  0  0  0  0  0  0  0  0
   -0.4814   -0.5029   -1.2527 C   0  0  1  0  0  0  0  0  0  0  0  0
    0.5459   -0.2066   -0.2501 N   0  0  0  0  0  0  0  0  0  0  0  0
    1.4857   -1.2081    0.1734 C   0  0  0  0  0  0  0  0  0  0  0  0
    1.4541   -2.3540   -0.3532 O   0  0  0  0  0  0  0  0  0  0  0  0
    2.5486   -0.9187    1.2121 C   0  0  2  0  0  0  0  0  0  0  0  0
    2.0725   -0.0336    2.2804 N   0  0  0  0  0  0  0  0  0  0  0  0
    3.8057   -0.3653    0.5699 C   0  0  0  0  0  0  0  0  0  0  0  0
    5.0273   -1.0506    0.7091 C   0  0  0  0  0  0  0  0  0  0  0  0
    6.1931   -0.5480    0.1230 C   0  0  0  0  0  0  0  0  0  0  0  0
    6.1542    0.6426   -0.6057 C   0  0  0  0  0  0  0  0  0  0  0  0
    4.9495    1.3341   -0.7491 C   0  0  0  0  0  0  0  0  0  0  0  0
    3.7807    0.8364   -0.1651 C   0  0  0  0  0  0  0  0  0  0  0  0
   -4.2950    1.8158   -1.0519 C   0  0  0  0  0  0  0  0  0  0  0  0
   -3.9209    2.2086   -2.3333 O   0  0  0  0  0  0  0  0  0  0  0  0
   -5.0933    2.5388   -0.3981 O   0  0  0  0  0  0  0  0  0  0  0  0
   -2.0682   -1.9362   -1.3135 H   0  0  0  0  0  0  0  0  0  0  0  0
   -3.9850   -1.6474    2.0742 H   0  0  0  0  0  0  0  0  0  0  0  0
   -3.9735   -2.2550    0.3905 H   0  0  0  0  0  0  0  0  0  0  0  0
   -5.4938    1.2146    1.7256 H   0  0  0  0  0  0  0  0  0  0  0  0
   -5.9711   -0.5071    1.8642 H   0  0  0  0  0  0  0  0  0  0  0  0
   -6.3734    0.3820    0.3658 H   0  0  0  0  0  0  0  0  0  0  0  0
   -0.0804   -1.0216   -2.1511 H   0  0  0  0  0  0  0  0  0  0  0  0
    0.6006    0.7584    0.1440 H   0  0  0  0  0  0  0  0  0  0  0  0
    2.7929   -1.8915    1.6950 H   0  0  0  0  0  0  0  0  0  0  0  0
    1.1543   -0.3881    2.6354 H   0  0  0  0  0  0  0  0  0  0  0  0
    1.9266    0.9374    1.9241 H   0  0  0  0  0  0  0  0  0  0  0  0
    5.0805   -1.9750    1.2705 H   0  0  0  0  0  0  0  0  0  0  0  0
    7.1277   -1.0825    0.2344 H   0  0  0  0  0  0  0  0  0  0  0  0
    7.0578    1.0299   -1.0586 H   0  0  0  0  0  0  0  0  0  0  0  0
    4.9208    2.2575   -1.3130 H   0  0  0  0  0  0  0  0  0  0  0  0
    2.8610    1.3910   -0.2889 H   0  0  0  0  0  0  0  0  0  0  0  0
   -4.2876    3.0582   -2.7454 H   0  0  0  0  0  0  0  0  0  0  0  0
  1  2  1  0
  2  3  1  0
  3  4  1  0
  4  5  1  0
  4  6  2  0
  6  7  1  0
  7  8  1  0
  8  9  2  0
  8 10  1  0
 10 11  1  0
 11 12  1  0
 12 13  2  0
 12 14  1  0
 14 15  1  0
 14 16  1  0
 16 17  2  0
 17 18  1  0
 18 19  2  0
 19 20  1  0
 20 21  2  0
  6 22  1  0
 22 23  1  0
 22 24  2  0
  7  1  1  0
 21 16  1  0
 10  1  1  0
  1 25  1  6
  3 26  1  0
  3 27  1  0
  5 28  1  0
  5 29  1  0
  5 30  1  0
 10 31  1  6
 11 32  1  0
 14 33  1  1
 15 34  1  0
 15 35  1  0
 17 36  1  0
 18 37  1  0
 19 38  1  0
 20 39  1  0
 21 40  1  0
 23 41  1  0
M  END
$$$$
