
     RDKit          3D

 23 24  0  0  0  0  0  0  0  0999 V2000
   -3.5072   -0.8597    1.1586 C   0  0  0  0  0  0  0  0  0  0  0  0
   -2.6523   -0.2902    0.1237 N   0  0  0  0  0  0  0  0  0  0  0  0
   -3.1603    0.2274   -1.3766 S   0  0  0  0  0  0  0  0  0  0  0  0
   -1.6851    0.7266   -1.9806 C   0  0  0  0  0  0  0  0  0  0  0  0
   -1.4749    1.2221   -3.1189 O   0  0  0  0  0  0  0  0  0  0  0  0
   -0.7420    0.4891   -0.9879 C   0  0  0  0  0  0  0  0  0  0  0  0
    0.6268    0.7551   -1.0651 C   0  0  0  0  0  0  0  0  0  0  0  0
    1.4432    0.4537    0.0387 C   0  0  0  0  0  0  0  0  0  0  0  0
    0.8820   -0.1204    1.1973 C   0  0  0  0  0  0  0  0  0  0  0  0
   -0.4928   -0.3865    1.2727 C   0  0  0  0  0  0  0  0  0  0  0  0
   -1.3069   -0.0794    0.1767 C   0  0  0  0  0  0  0  0  0  0  0  0
    3.1750    0.7628   -0.0395 S   0  0  0  0  0  6  0  0  0  0  0  0
    3.9844   -0.6266   -0.6734 N   0  0  0  0  0  0  0  0  0  0  0  0
    3.7010    1.0653    1.3356 O   0  0  0  0  0  0  0  0  0  0  0  0
    3.4412    1.9462   -0.9271 O   0  0  0  0  0  0  0  0  0  0  0  0
   -3.4527   -0.2355    2.0750 H   0  0  0  0  0  0  0  0  0  0  0  0
   -4.5611   -0.8930    0.8106 H   0  0  0  0  0  0  0  0  0  0  0  0
   -3.1746   -1.8926    1.3926 H   0  0  0  0  0  0  0  0  0  0  0  0
    1.0509    1.1843   -1.9645 H   0  0  0  0  0  0  0  0  0  0  0  0
    1.5120   -0.3650    2.0429 H   0  0  0  0  0  0  0  0  0  0  0  0
   -0.9069   -0.8261    2.1706 H   0  0  0  0  0  0  0  0  0  0  0  0
    3.7393   -1.4313   -0.0539 H   0  0  0  0  0  0  0  0  0  0  0  0
    3.5612   -0.8262   -1.6074 H   0  0  0  0  0  0  0  0  0  0  0  0
  1  2  1  0
  2  3  1  0
  3  4  1  0
  4  5  2  0
  4  6  1  0
  6  7  2  0
  7  8  1  0
  8  9  2  0
  9 10  1  0
 10 11  2  0
  8 12  1  0
 12 13  1  0
 12 14  2  0
 12 15  2  0
 11  2  1  0
 11  6  1  0
  1 16  1  0
  1 17  1  0
  1 18  1  0
  7 19  1  0
  9 20  1  0
 10 21  1  0
 13 22  1  0
 13 23  1  0
M  END
$$$$
