
     RDKit          3D

 39 41  0  0  0  0  0  0  0  0999 V2000
   -4.1203   -2.8214    1.5574 C   0  0  0  0  0  0  0  0  0  0  0  0
   -3.4543   -1.6303    0.9460 C   0  0  0  0  0  0  0  0  0  0  0  0
   -3.7530   -0.3811    1.3957 N   0  0  0  0  0  0  0  0  0  0  0  0
   -3.1826    0.7313    0.8609 C   0  0  0  0  0  0  0  0  0  0  0  0
   -2.2497    0.6166   -0.1801 C   0  0  0  0  0  0  0  0  0  0  0  0
   -1.9529   -0.6624   -0.6768 C   0  0  0  0  0  0  0  0  0  0  0  0
   -2.5504   -1.7893   -0.1109 C   0  0  0  0  0  0  0  0  0  0  0  0
   -1.6375    1.8307   -0.7664 C   0  0  0  0  0  0  0  0  0  0  0  0
   -0.2438    1.9470   -1.0063 C   0  0  0  0  0  0  0  0  0  0  0  0
    0.2330    3.1089   -1.6339 C   0  0  0  0  0  0  0  0  0  0  0  0
   -0.6461    4.1343   -1.9823 C   0  0  0  0  0  0  0  0  0  0  0  0
   -0.0471    5.5931   -2.7503 Cl  0  0  0  0  0  0  0  0  0  0  0  0
   -2.0035    3.9945   -1.6986 C   0  0  0  0  0  0  0  0  0  0  0  0
   -2.4612    2.8604   -1.1090 N   0  0  0  0  0  0  0  0  0  0  0  0
    0.7305    0.9196   -0.5661 C   0  0  0  0  0  0  0  0  0  0  0  0
    1.6493    0.3784   -1.4800 C   0  0  0  0  0  0  0  0  0  0  0  0
    2.5644   -0.5948   -1.0685 C   0  0  0  0  0  0  0  0  0  0  0  0
    2.5742   -1.0369    0.2608 C   0  0  0  0  0  0  0  0  0  0  0  0
    1.6742   -0.4837    1.1807 C   0  0  0  0  0  0  0  0  0  0  0  0
    0.7594    0.4901    0.7714 C   0  0  0  0  0  0  0  0  0  0  0  0
    3.7350   -2.2534    0.7811 S   0  0  0  0  0  6  0  0  0  0  0  0
    5.2195   -1.4512    1.3414 C   0  0  0  0  0  0  0  0  0  0  0  0
    4.0604   -3.1703   -0.3646 O   0  0  0  0  0  0  0  0  0  0  0  0
    3.1506   -3.0689    1.9003 O   0  0  0  0  0  0  0  0  0  0  0  0
   -3.3577   -3.5756    1.8454 H   0  0  0  0  0  0  0  0  0  0  0  0
   -4.6878   -2.5270    2.4656 H   0  0  0  0  0  0  0  0  0  0  0  0
   -4.8229   -3.2719    0.8253 H   0  0  0  0  0  0  0  0  0  0  0  0
   -3.4473    1.7036    1.2565 H   0  0  0  0  0  0  0  0  0  0  0  0
   -1.2690   -0.7877   -1.5068 H   0  0  0  0  0  0  0  0  0  0  0  0
   -2.3161   -2.7745   -0.4949 H   0  0  0  0  0  0  0  0  0  0  0  0
    1.2923    3.2298   -1.8273 H   0  0  0  0  0  0  0  0  0  0  0  0
   -2.6990    4.7833   -1.9528 H   0  0  0  0  0  0  0  0  0  0  0  0
    1.6481    0.7004   -2.5141 H   0  0  0  0  0  0  0  0  0  0  0  0
    3.2644   -1.0022   -1.7867 H   0  0  0  0  0  0  0  0  0  0  0  0
    1.6829   -0.8021    2.2153 H   0  0  0  0  0  0  0  0  0  0  0  0
    0.0763    0.9123    1.4981 H   0  0  0  0  0  0  0  0  0  0  0  0
    4.9798   -0.7797    2.1916 H   0  0  0  0  0  0  0  0  0  0  0  0
    5.9538   -2.2151    1.6703 H   0  0  0  0  0  0  0  0  0  0  0  0
    5.6539   -0.8546    0.5127 H   0  0  0  0  0  0  0  0  0  0  0  0
  1  2  1  0
  2  3  2  0
  3  4  1  0
  4  5  2  0
  5  6  1  0
  6  7  2  0
  5  8  1  0
  8  9  1  0
  9 10  2  0
 10 11  1  0
 11 12  1  0
 11 13  2  0
 13 14  1  0
  9 15  1  0
 15 16  2  0
 16 17  1  0
 17 18  2  0
 18 19  1  0
 19 20  2  0
 18 21  1  0
 21 22  1  0
 21 23  2  0
 21 24  2  0
  7  2  1  0
 14  8  2  0
 20 15  1  0
  1 25  1  0
  1 26  1  0
  1 27  1  0
  4 28  1  0
  6 29  1  0
  7 30  1  0
 10 31  1  0
 13 32  1  0
 16 33  1  0
 17 34  1  0
 19 35  1  0
 20 36  1  0
 22 37  1  0
 22 38  1  0
 22 39  1  0
M  END
$$$$
