
     RDKit          3D

 24 24  0  0  0  0  0  0  0  0999 V2000
    1.7227   -0.0591    0.7345 C   0  0  2  0  0  0  0  0  0  0  0  0
    2.9700   -0.6809    0.5447 O   0  0  0  0  0  0  0  0  0  0  0  0
    0.6583   -1.0717    1.1844 C   0  0  0  0  0  0  0  0  0  0  0  0
   -0.6255   -0.3982    1.4228 N   0  0  0  0  0  0  0  0  0  0  0  0
   -1.1527    0.2954    0.2286 C   0  0  2  0  0  0  0  0  0  0  0  0
   -1.6815   -0.6805   -0.8512 C   0  0  0  0  0  0  0  0  0  0  0  0
   -2.7226   -1.4701   -0.3416 O   0  0  0  0  0  0  0  0  0  0  0  0
   -0.1229    1.3153   -0.3313 C   0  0  1  0  0  0  0  0  0  0  0  0
   -0.0055    2.3977    0.5583 O   0  0  0  0  0  0  0  0  0  0  0  0
    1.2756    0.6907   -0.5349 C   0  0  2  0  0  0  0  0  0  0  0  0
    1.2740   -0.1782   -1.6392 O   0  0  0  0  0  0  0  0  0  0  0  0
    1.8463    0.6863    1.5511 H   0  0  0  0  0  0  0  0  0  0  0  0
    2.8474   -1.4225   -0.1038 H   0  0  0  0  0  0  0  0  0  0  0  0
    0.9966   -1.5382    2.1350 H   0  0  0  0  0  0  0  0  0  0  0  0
    0.5460   -1.8908    0.4423 H   0  0  0  0  0  0  0  0  0  0  0  0
   -1.3190   -1.1087    1.7534 H   0  0  0  0  0  0  0  0  0  0  0  0
   -2.0356    0.8877    0.5579 H   0  0  0  0  0  0  0  0  0  0  0  0
   -0.8833   -1.3539   -1.2163 H   0  0  0  0  0  0  0  0  0  0  0  0
   -2.0461   -0.1058   -1.7332 H   0  0  0  0  0  0  0  0  0  0  0  0
   -3.5250   -0.8875   -0.2924 H   0  0  0  0  0  0  0  0  0  0  0  0
   -0.4789    1.6997   -1.3165 H   0  0  0  0  0  0  0  0  0  0  0  0
   -0.8030    2.9736    0.4220 H   0  0  0  0  0  0  0  0  0  0  0  0
    2.0101    1.5096   -0.7214 H   0  0  0  0  0  0  0  0  0  0  0  0
    1.2545    0.3900   -2.4532 H   0  0  0  0  0  0  0  0  0  0  0  0
  1  2  1  0
  1  3  1  0
  3  4  1  0
  4  5  1  0
  5  6  1  0
  6  7  1  0
  5  8  1  0
  8  9  1  0
  8 10  1  0
 10 11  1  0
 10  1  1  0
  1 12  1  1
  2 13  1  0
  3 14  1  0
  3 15  1  0
  4 16  1  0
  5 17  1  1
  6 18  1  0
  6 19  1  0
  7 20  1  0
  8 21  1  6
  9 22  1  0
 10 23  1  6
 11 24  1  0
M  END
$$$$
