
     RDKit          3D

 26 26  0  0  0  0  0  0  0  0999 V2000
    3.0433    1.6306    0.0400 C   0  0  0  0  0  0  0  0  0  0  0  0
    2.1246    0.4449    0.0298 C   0  0  0  0  0  0  0  0  0  0  0  0
    2.5124   -0.7446   -0.6048 C   0  0  0  0  0  0  0  0  0  0  0  0
    1.6690   -1.8582   -0.5873 C   0  0  0  0  0  0  0  0  0  0  0  0
    0.4395   -1.7975    0.0732 C   0  0  0  0  0  0  0  0  0  0  0  0
    0.0467   -0.6211    0.7316 C   0  0  0  0  0  0  0  0  0  0  0  0
   -1.2900   -0.5488    1.4318 C   0  0  0  0  0  0  0  0  0  0  0  0
   -2.4383   -0.1179    0.4959 C   0  0  2  0  0  0  0  0  0  0  0  0
   -2.5793   -1.0518   -0.6231 N   0  0  0  0  0  0  0  0  0  0  0  0
   -2.2231    1.2813   -0.0144 C   0  0  0  0  0  0  0  0  0  0  0  0
   -1.5187    1.4969   -1.1961 O   0  0  0  0  0  0  0  0  0  0  0  0
   -2.6432    2.2645    0.6526 O   0  0  0  0  0  0  0  0  0  0  0  0
    0.8980    0.4967    0.7103 C   0  0  0  0  0  0  0  0  0  0  0  0
    2.4605    2.5761    0.0648 H   0  0  0  0  0  0  0  0  0  0  0  0
    3.6786    1.6435   -0.8712 H   0  0  0  0  0  0  0  0  0  0  0  0
    3.6964    1.5837    0.9362 H   0  0  0  0  0  0  0  0  0  0  0  0
    3.4657   -0.8092   -1.1148 H   0  0  0  0  0  0  0  0  0  0  0  0
    1.9694   -2.7708   -1.0856 H   0  0  0  0  0  0  0  0  0  0  0  0
   -0.2043   -2.6682    0.0752 H   0  0  0  0  0  0  0  0  0  0  0  0
   -1.2292    0.1586    2.2883 H   0  0  0  0  0  0  0  0  0  0  0  0
   -1.5318   -1.5419    1.8701 H   0  0  0  0  0  0  0  0  0  0  0  0
   -3.3817   -0.1292    1.0888 H   0  0  0  0  0  0  0  0  0  0  0  0
   -3.4119   -0.7648   -1.1882 H   0  0  0  0  0  0  0  0  0  0  0  0
   -2.8067   -1.9967   -0.2360 H   0  0  0  0  0  0  0  0  0  0  0  0
   -1.3480    2.4359   -1.5353 H   0  0  0  0  0  0  0  0  0  0  0  0
    0.6024    1.4079    1.2170 H   0  0  0  0  0  0  0  0  0  0  0  0
  1  2  1  0
  2  3  2  0
  3  4  1  0
  4  5  2  0
  5  6  1  0
  6  7  1  0
  7  8  1  0
  8  9  1  0
  8 10  1  0
 10 11  1  0
 10 12  2  0
  6 13  2  0
 13  2  1  0
  1 14  1  0
  1 15  1  0
  1 16  1  0
  3 17  1  0
  4 18  1  0
  5 19  1  0
  7 20  1  0
  7 21  1  0
  8 22  1  1
  9 23  1  0
  9 24  1  0
 11 25  1  0
 13 26  1  0
M  END
$$$$
