
     RDKit          3D

 72 77  0  0  0  0  0  0  0  0999 V2000
  -12.4701    0.4703   -1.6357 C   0  0  0  0  0  0  0  0  0  0  0  0
  -11.6836    1.3166   -0.6173 C   0  0  0  0  0  0  0  0  0  0  0  0
  -12.2750    1.1168    0.7907 C   0  0  0  0  0  0  0  0  0  0  0  0
  -11.7967    2.8046   -1.0047 C   0  0  0  0  0  0  0  0  0  0  0  0
  -10.2301    0.8868   -0.6196 C   0  0  0  0  0  0  0  0  0  0  0  0
   -9.7435   -0.3736   -0.3231 C   0  0  0  0  0  0  0  0  0  0  0  0
   -8.3821   -0.2308   -0.4706 C   0  0  0  0  0  0  0  0  0  0  0  0
   -7.4194   -1.2746   -0.2686 N   0  0  0  0  0  0  0  0  0  0  0  0
   -6.0037   -1.0988   -0.4284 C   0  0  0  0  0  0  0  0  0  0  0  0
   -5.5371    0.0149   -0.7922 O   0  0  0  0  0  0  0  0  0  0  0  0
   -5.1255   -2.2143   -0.2119 N   0  0  0  0  0  0  0  0  0  0  0  0
   -3.6930   -2.1119   -0.1356 C   0  0  0  0  0  0  0  0  0  0  0  0
   -2.9027   -3.1727   -0.5971 C   0  0  0  0  0  0  0  0  0  0  0  0
   -1.5090   -3.1085   -0.5149 C   0  0  0  0  0  0  0  0  0  0  0  0
   -0.8759   -1.9856    0.0463 C   0  0  0  0  0  0  0  0  0  0  0  0
   -1.6726   -0.9323    0.5321 C   0  0  0  0  0  0  0  0  0  0  0  0
   -3.0666   -0.9979    0.4479 C   0  0  0  0  0  0  0  0  0  0  0  0
    0.6050   -1.9339    0.1252 C   0  0  0  0  0  0  0  0  0  0  0  0
    1.3738   -0.8800    0.6412 C   0  0  0  0  0  0  0  0  0  0  0  0
    2.6450   -1.2661    0.5077 N   0  0  0  0  0  0  0  0  0  0  0  0
    2.6371   -2.4624   -0.0474 C   0  0  0  0  0  0  0  0  0  0  0  0
    4.1821   -3.1008   -0.2901 S   0  0  0  0  0  0  0  0  0  0  0  0
    4.8768   -1.6897    0.3886 C   0  0  0  0  0  0  0  0  0  0  0  0
    3.8802   -0.7926    0.7699 C   0  0  0  0  0  0  0  0  0  0  0  0
    4.1961    0.4343    1.3492 C   0  0  0  0  0  0  0  0  0  0  0  0
    5.5517    0.7499    1.5417 C   0  0  0  0  0  0  0  0  0  0  0  0
    6.5723   -0.1605    1.1542 C   0  0  0  0  0  0  0  0  0  0  0  0
    7.9338    0.1230    1.3292 O   0  0  0  0  0  0  0  0  0  0  0  0
    8.4440    1.3389    1.8667 C   0  0  0  0  0  0  0  0  0  0  0  0
    9.9837    1.3256    1.8896 C   0  0  0  0  0  0  0  0  0  0  0  0
   10.6390    1.1483    0.5717 N   0  0  0  0  0  0  0  0  0  0  0  0
   10.0622    1.9481   -0.5215 C   0  0  0  0  0  0  0  0  0  0  0  0
   10.9777    1.8693   -1.7626 C   0  0  0  0  0  0  0  0  0  0  0  0
   11.9404    0.8307   -1.6724 O   0  0  0  0  0  0  0  0  0  0  0  0
   11.3184   -0.3731   -1.2699 C   0  0  0  0  0  0  0  0  0  0  0  0
   10.8247   -0.2646    0.1849 C   0  0  0  0  0  0  0  0  0  0  0  0
    6.2239   -1.3935    0.5720 C   0  0  0  0  0  0  0  0  0  0  0  0
    1.4119   -2.9449   -0.3153 N   0  0  0  0  0  0  0  0  0  0  0  0
   -8.0823    1.0317   -0.8304 N   0  0  0  0  0  0  0  0  0  0  0  0
   -9.2132    1.6711   -0.9099 O   0  0  0  0  0  0  0  0  0  0  0  0
  -12.4379   -0.6070   -1.3645 H   0  0  0  0  0  0  0  0  0  0  0  0
  -12.0397    0.5869   -2.6540 H   0  0  0  0  0  0  0  0  0  0  0  0
  -13.5355    0.7856   -1.6674 H   0  0  0  0  0  0  0  0  0  0  0  0
  -12.2408    0.0461    1.0865 H   0  0  0  0  0  0  0  0  0  0  0  0
  -11.7024    1.7046    1.5407 H   0  0  0  0  0  0  0  0  0  0  0  0
  -13.3354    1.4486    0.8209 H   0  0  0  0  0  0  0  0  0  0  0  0
  -12.8595    3.1306   -1.0061 H   0  0  0  0  0  0  0  0  0  0  0  0
  -11.2398    3.4410   -0.2830 H   0  0  0  0  0  0  0  0  0  0  0  0
  -11.3794    2.9781   -2.0204 H   0  0  0  0  0  0  0  0  0  0  0  0
  -10.2964   -1.2604   -0.0425 H   0  0  0  0  0  0  0  0  0  0  0  0
   -7.7713   -2.2156    0.0183 H   0  0  0  0  0  0  0  0  0  0  0  0
   -5.5509   -3.1687   -0.1943 H   0  0  0  0  0  0  0  0  0  0  0  0
   -3.3686   -4.0482   -1.0319 H   0  0  0  0  0  0  0  0  0  0  0  0
   -0.9278   -3.9411   -0.8910 H   0  0  0  0  0  0  0  0  0  0  0  0
   -1.2278   -0.0586    0.9873 H   0  0  0  0  0  0  0  0  0  0  0  0
   -3.6518   -0.1886    0.8636 H   0  0  0  0  0  0  0  0  0  0  0  0
    1.0488    0.0608    1.0636 H   0  0  0  0  0  0  0  0  0  0  0  0
    3.4199    1.1284    1.6447 H   0  0  0  0  0  0  0  0  0  0  0  0
    5.7982    1.7011    1.9927 H   0  0  0  0  0  0  0  0  0  0  0  0
    8.0807    1.4553    2.9107 H   0  0  0  0  0  0  0  0  0  0  0  0
    8.0736    2.2052    1.2785 H   0  0  0  0  0  0  0  0  0  0  0  0
   10.3270    0.5377    2.5964 H   0  0  0  0  0  0  0  0  0  0  0  0
   10.3257    2.2921    2.3179 H   0  0  0  0  0  0  0  0  0  0  0  0
    9.0568    1.5570   -0.7958 H   0  0  0  0  0  0  0  0  0  0  0  0
    9.9562    3.0097   -0.2066 H   0  0  0  0  0  0  0  0  0  0  0  0
   11.5242    2.8308   -1.8654 H   0  0  0  0  0  0  0  0  0  0  0  0
   10.3679    1.7435   -2.6849 H   0  0  0  0  0  0  0  0  0  0  0  0
   10.4728   -0.6275   -1.9505 H   0  0  0  0  0  0  0  0  0  0  0  0
   12.0548   -1.2008   -1.3485 H   0  0  0  0  0  0  0  0  0  0  0  0
   11.5854   -0.7192    0.8563 H   0  0  0  0  0  0  0  0  0  0  0  0
    9.8868   -0.8469    0.2887 H   0  0  0  0  0  0  0  0  0  0  0  0
    6.9882   -2.0984    0.2703 H   0  0  0  0  0  0  0  0  0  0  0  0
  1  2  1  0
  2  3  1  0
  2  4  1  0
  2  5  1  0
  5  6  2  0
  6  7  1  0
  7  8  1  0
  8  9  1  0
  9 10  2  0
  9 11  1  0
 11 12  1  0
 12 13  2  0
 13 14  1  0
 14 15  2  0
 15 16  1  0
 16 17  2  0
 15 18  1  0
 18 19  2  0
 19 20  1  0
 20 21  1  0
 21 22  1  0
 22 23  1  0
 23 24  2  0
 24 25  1  0
 25 26  2  0
 26 27  1  0
 27 28  1  0
 28 29  1  0
 29 30  1  0
 30 31  1  0
 31 32  1  0
 32 33  1  0
 33 34  1  0
 34 35  1  0
 35 36  1  0
 27 37  2  0
 21 38  2  0
  7 39  2  0
 39 40  1  0
 40  5  1  0
 17 12  1  0
 38 18  1  0
 24 20  1  0
 36 31  1  0
 37 23  1  0
  1 41  1  0
  1 42  1  0
  1 43  1  0
  3 44  1  0
  3 45  1  0
  3 46  1  0
  4 47  1  0
  4 48  1  0
  4 49  1  0
  6 50  1  0
  8 51  1  0
 11 52  1  0
 13 53  1  0
 14 54  1  0
 16 55  1  0
 17 56  1  0
 19 57  1  0
 25 58  1  0
 26 59  1  0
 29 60  1  0
 29 61  1  0
 30 62  1  0
 30 63  1  0
 32 64  1  0
 32 65  1  0
 33 66  1  0
 33 67  1  0
 35 68  1  0
 35 69  1  0
 36 70  1  0
 36 71  1  0
 37 72  1  0
M  END
$$$$
