
     RDKit          3D

 59 63  0  0  0  0  0  0  0  0999 V2000
   -3.0710    1.4037    0.6246 C   0  0  2  0  0  0  0  0  0  0  0  0
   -3.6647    2.3961    1.6197 C   0  0  0  0  0  0  0  0  0  0  0  0
   -5.1415    1.9753    1.7598 C   0  0  0  0  0  0  0  0  0  0  0  0
   -5.3035    0.6286    0.9864 C   0  0  1  0  0  0  0  0  0  0  0  0
   -6.1653   -0.2807    1.6365 O   0  0  0  0  0  0  0  0  0  0  0  0
   -5.9003    0.9129   -0.3383 C   0  0  0  0  0  0  0  0  0  0  0  0
   -6.3888    1.1472   -1.4157 C   0  0  0  0  0  0  0  0  0  0  0  0
   -3.8384    0.0933    0.8715 C   0  0  2  0  0  0  0  0  0  0  0  0
   -3.4407   -0.6107    2.2127 C   0  0  0  0  0  0  0  0  0  0  0  0
   -3.5324   -0.8675   -0.3078 C   0  0  0  0  0  0  0  0  0  0  0  0
   -2.0095   -1.0987   -0.4818 C   0  0  0  0  0  0  0  0  0  0  0  0
   -1.1939    0.2282   -0.5726 C   0  0  2  0  0  0  0  0  0  0  0  0
    0.3205    0.0286   -0.6685 C   0  0  0  0  0  0  0  0  0  0  0  0
    1.2059    1.0444   -0.2159 C   0  0  0  0  0  0  0  0  0  0  0  0
    0.7203    2.2738    0.5214 C   0  0  0  0  0  0  0  0  0  0  0  0
   -0.7857    2.5131    0.3883 C   0  0  0  0  0  0  0  0  0  0  0  0
   -1.5434    1.1958    0.5975 C   0  0  1  0  0  0  0  0  0  0  0  0
    2.5916    0.8833   -0.3730 C   0  0  0  0  0  0  0  0  0  0  0  0
    3.1214   -0.2388   -1.0112 C   0  0  0  0  0  0  0  0  0  0  0  0
    4.5172   -0.3333   -1.1364 O   0  0  0  0  0  0  0  0  0  0  0  0
    5.2239   -1.4273   -1.7281 C   0  0  0  0  0  0  0  0  0  0  0  0
    6.6850   -1.0465   -1.8967 C   0  0  0  0  0  0  0  0  0  0  0  0
    7.3561   -1.3953   -0.5774 C   0  0  0  0  0  0  0  0  0  0  0  0
    6.4987   -2.4786    0.0716 C   0  0  0  0  0  0  0  0  0  0  0  0
    5.2464   -2.6284   -0.7870 C   0  0  0  0  0  0  0  0  0  0  0  0
    2.2476   -1.2187   -1.5054 C   0  0  0  0  0  0  0  0  0  0  0  0
    0.8680   -1.0803   -1.3475 C   0  0  0  0  0  0  0  0  0  0  0  0
   -3.3470    1.7938   -0.3856 H   0  0  0  0  0  0  0  0  0  0  0  0
   -3.1429    2.3265    2.5992 H   0  0  0  0  0  0  0  0  0  0  0  0
   -3.5840    3.4379    1.2397 H   0  0  0  0  0  0  0  0  0  0  0  0
   -5.3790    1.8643    2.8398 H   0  0  0  0  0  0  0  0  0  0  0  0
   -5.8102    2.7718    1.3619 H   0  0  0  0  0  0  0  0  0  0  0  0
   -6.0301   -0.2239    2.6170 H   0  0  0  0  0  0  0  0  0  0  0  0
   -6.8165    1.3528   -2.3615 H   0  0  0  0  0  0  0  0  0  0  0  0
   -3.6277    0.0376    3.0933 H   0  0  0  0  0  0  0  0  0  0  0  0
   -4.0319   -1.5418    2.3439 H   0  0  0  0  0  0  0  0  0  0  0  0
   -2.3799   -0.9167    2.2554 H   0  0  0  0  0  0  0  0  0  0  0  0
   -4.0406   -1.8428   -0.1459 H   0  0  0  0  0  0  0  0  0  0  0  0
   -3.9158   -0.4533   -1.2646 H   0  0  0  0  0  0  0  0  0  0  0  0
   -1.6132   -1.7367    0.3351 H   0  0  0  0  0  0  0  0  0  0  0  0
   -1.8950   -1.6726   -1.4243 H   0  0  0  0  0  0  0  0  0  0  0  0
   -1.4986    0.7166   -1.5262 H   0  0  0  0  0  0  0  0  0  0  0  0
    0.9720    2.1554    1.5980 H   0  0  0  0  0  0  0  0  0  0  0  0
    1.2556    3.1732    0.1460 H   0  0  0  0  0  0  0  0  0  0  0  0
   -1.0880    3.2615    1.1517 H   0  0  0  0  0  0  0  0  0  0  0  0
   -1.0130    2.9364   -0.6153 H   0  0  0  0  0  0  0  0  0  0  0  0
   -1.2014    0.7703    1.5641 H   0  0  0  0  0  0  0  0  0  0  0  0
    3.2691    1.6402    0.0046 H   0  0  0  0  0  0  0  0  0  0  0  0
    4.7854   -1.6808   -2.7184 H   0  0  0  0  0  0  0  0  0  0  0  0
    7.1341   -1.6562   -2.7123 H   0  0  0  0  0  0  0  0  0  0  0  0
    6.8063    0.0308   -2.1443 H   0  0  0  0  0  0  0  0  0  0  0  0
    8.3963   -1.7504   -0.7443 H   0  0  0  0  0  0  0  0  0  0  0  0
    7.3829   -0.4952    0.0759 H   0  0  0  0  0  0  0  0  0  0  0  0
    6.2216   -2.1766    1.1056 H   0  0  0  0  0  0  0  0  0  0  0  0
    7.0527   -3.4417    0.1174 H   0  0  0  0  0  0  0  0  0  0  0  0
    5.3176   -3.5618   -1.3881 H   0  0  0  0  0  0  0  0  0  0  0  0
    4.3340   -2.6840   -0.1552 H   0  0  0  0  0  0  0  0  0  0  0  0
    2.6213   -2.0934   -2.0190 H   0  0  0  0  0  0  0  0  0  0  0  0
    0.2424   -1.8504   -1.7709 H   0  0  0  0  0  0  0  0  0  0  0  0
  1  2  1  0
  2  3  1  0
  3  4  1  0
  4  5  1  0
  4  6  1  6
  6  7  3  0
  4  8  1  0
  8  9  1  1
  8 10  1  0
 10 11  1  0
 11 12  1  0
 12 13  1  0
 13 14  2  0
 14 15  1  0
 15 16  1  0
 16 17  1  0
 14 18  1  0
 18 19  2  0
 19 20  1  0
 20 21  1  0
 21 22  1  0
 22 23  1  0
 23 24  1  0
 24 25  1  0
 19 26  1  0
 26 27  2  0
  8  1  1  0
 17 12  1  0
 25 21  1  0
 17  1  1  0
 27 13  1  0
  1 28  1  6
  2 29  1  0
  2 30  1  0
  3 31  1  0
  3 32  1  0
  5 33  1  0
  7 34  1  0
  9 35  1  0
  9 36  1  0
  9 37  1  0
 10 38  1  0
 10 39  1  0
 11 40  1  0
 11 41  1  0
 12 42  1  6
 15 43  1  0
 15 44  1  0
 16 45  1  0
 16 46  1  0
 17 47  1  1
 18 48  1  0
 21 49  1  0
 22 50  1  0
 22 51  1  0
 23 52  1  0
 23 53  1  0
 24 54  1  0
 24 55  1  0
 25 56  1  0
 25 57  1  0
 26 58  1  0
 27 59  1  0
M  END
$$$$
