
     RDKit          3D

 35 37  0  0  0  0  0  0  0  0999 V2000
   -3.7459    2.1232   -0.1682 C   0  0  0  0  0  0  0  0  0  0  0  0
   -3.4756    1.2040   -1.2799 N   0  0  0  0  0  0  0  0  0  0  0  0
   -2.4840    0.1476   -0.9883 C   0  0  2  0  0  0  0  0  0  0  0  0
   -3.0489   -0.9284   -0.0243 C   0  0  0  0  0  0  0  0  0  0  0  0
   -2.1122   -2.1523    0.0593 C   0  0  0  0  0  0  0  0  0  0  0  0
   -0.6833   -1.7185    0.2126 C   0  0  0  0  0  0  0  0  0  0  0  0
   -0.2299   -0.4499   -0.1151 C   0  0  0  0  0  0  0  0  0  0  0  0
   -1.1208    0.6961   -0.4890 C   0  0  0  0  0  0  0  0  0  0  0  0
    1.1274   -0.4662    0.1204 C   0  0  0  0  0  0  0  0  0  0  0  0
    1.4382   -1.7377    0.5360 C   0  0  0  0  0  0  0  0  0  0  0  0
    0.3404   -2.5172    0.5899 N   0  0  0  0  0  0  0  0  0  0  0  0
    2.7446   -2.1006    0.8481 C   0  0  0  0  0  0  0  0  0  0  0  0
    3.7471   -1.1209    0.7332 C   0  0  0  0  0  0  0  0  0  0  0  0
    3.4336    0.2030    0.3196 C   0  0  0  0  0  0  0  0  0  0  0  0
    2.0934    0.5304    0.0011 C   0  0  0  0  0  0  0  0  0  0  0  0
    4.5136    1.2132    0.2060 C   0  0  0  0  0  0  0  0  0  0  0  0
    4.2341    2.6153    0.2464 N   0  0  0  0  0  0  0  0  0  0  0  0
    5.7101    0.8353    0.0839 O   0  0  0  0  0  0  0  0  0  0  0  0
   -3.9655    1.5778    0.7709 H   0  0  0  0  0  0  0  0  0  0  0  0
   -2.8991    2.8258   -0.0159 H   0  0  0  0  0  0  0  0  0  0  0  0
   -4.6420    2.7294   -0.4160 H   0  0  0  0  0  0  0  0  0  0  0  0
   -3.1253    1.7725   -2.0866 H   0  0  0  0  0  0  0  0  0  0  0  0
   -2.2848   -0.3731   -1.9536 H   0  0  0  0  0  0  0  0  0  0  0  0
   -4.0496   -1.2606   -0.3759 H   0  0  0  0  0  0  0  0  0  0  0  0
   -3.1632   -0.5080    0.9973 H   0  0  0  0  0  0  0  0  0  0  0  0
   -2.4052   -2.7897    0.9206 H   0  0  0  0  0  0  0  0  0  0  0  0
   -2.2030   -2.7528   -0.8710 H   0  0  0  0  0  0  0  0  0  0  0  0
   -0.6423    1.3040   -1.2862 H   0  0  0  0  0  0  0  0  0  0  0  0
   -1.2488    1.3211    0.4181 H   0  0  0  0  0  0  0  0  0  0  0  0
    0.2893   -3.5234    0.8652 H   0  0  0  0  0  0  0  0  0  0  0  0
    2.9830   -3.1053    1.1724 H   0  0  0  0  0  0  0  0  0  0  0  0
    4.7664   -1.3921    0.9785 H   0  0  0  0  0  0  0  0  0  0  0  0
    1.8104    1.5126   -0.3520 H   0  0  0  0  0  0  0  0  0  0  0  0
    5.0065    3.3036    0.1049 H   0  0  0  0  0  0  0  0  0  0  0  0
    3.2913    2.9817    0.5013 H   0  0  0  0  0  0  0  0  0  0  0  0
  1  2  1  0
  2  3  1  0
  3  4  1  0
  4  5  1  0
  5  6  1  0
  6  7  2  0
  7  8  1  0
  7  9  1  0
  9 10  2  0
 10 11  1  0
 10 12  1  0
 12 13  2  0
 13 14  1  0
 14 15  2  0
 14 16  1  0
 16 17  1  0
 16 18  2  0
  8  3  1  0
 15  9  1  0
 11  6  1  0
  1 19  1  0
  1 20  1  0
  1 21  1  0
  2 22  1  0
  3 23  1  6
  4 24  1  0
  4 25  1  0
  5 26  1  0
  5 27  1  0
  8 28  1  0
  8 29  1  0
 11 30  1  0
 12 31  1  0
 13 32  1  0
 15 33  1  0
 17 34  1  0
 17 35  1  0
M  END
$$$$
