
     RDKit          3D

 66 70  0  0  0  0  0  0  0  0999 V2000
   -9.4471    0.8366   -2.8453 C   0  0  0  0  0  0  0  0  0  0  0  0
   -8.3395   -0.0483   -2.4526 N   0  0  0  0  0  0  0  0  0  0  0  0
   -7.0602    0.6975   -2.4551 C   0  0  0  0  0  0  0  0  0  0  0  0
   -5.9992   -0.0170   -1.6071 C   0  0  0  0  0  0  0  0  0  0  0  0
   -6.4102   -0.1518   -0.1849 N   0  0  0  0  0  0  0  0  0  0  0  0
   -5.7370    0.8351    0.6856 C   0  0  0  0  0  0  0  0  0  0  0  0
   -4.2754    0.4747    0.8799 C   0  0  0  0  0  0  0  0  0  0  0  0
   -3.9807   -0.8309    1.3094 C   0  0  0  0  0  0  0  0  0  0  0  0
   -2.6644   -1.2423    1.5037 C   0  0  0  0  0  0  0  0  0  0  0  0
   -1.6054   -0.3621    1.2710 C   0  0  0  0  0  0  0  0  0  0  0  0
   -0.2559   -0.8088    1.4910 N   0  0  0  0  0  0  0  0  0  0  0  0
    0.8748   -0.3245    0.7465 C   0  0  0  0  0  0  0  0  0  0  0  0
    0.6971    0.2031   -0.3858 O   0  0  0  0  0  0  0  0  0  0  0  0
    2.2539   -0.4818    1.2701 C   0  0  0  0  0  0  0  0  0  0  0  0
    3.3549   -0.3985    0.3998 C   0  0  0  0  0  0  0  0  0  0  0  0
    4.6630   -0.5395    0.8831 C   0  0  0  0  0  0  0  0  0  0  0  0
    5.7627   -0.4525   -0.0471 C   0  0  0  0  0  0  0  0  0  0  0  0
    6.6863   -0.3810   -0.8179 C   0  0  0  0  0  0  0  0  0  0  0  0
    7.7945   -0.2973   -1.7296 C   0  0  0  0  0  0  0  0  0  0  0  0
    7.7395   -0.0820   -3.0970 C   0  0  0  0  0  0  0  0  0  0  0  0
    8.9975   -0.0678   -3.6115 N   0  0  0  0  0  0  0  0  0  0  0  0
    9.7809   -0.2765   -2.5317 C   0  0  0  0  0  0  0  0  0  0  0  0
   11.1686   -0.3519   -2.5131 C   0  0  0  0  0  0  0  0  0  0  0  0
   11.7826   -0.5769   -1.2708 C   0  0  0  0  0  0  0  0  0  0  0  0
   10.9920   -0.7156   -0.1122 C   0  0  0  0  0  0  0  0  0  0  0  0
    9.6342   -0.6302   -0.2052 N   0  0  0  0  0  0  0  0  0  0  0  0
    9.0835   -0.4161   -1.3984 N   0  0  0  0  0  0  0  0  0  0  0  0
    4.8866   -0.7620    2.2581 C   0  0  0  0  0  0  0  0  0  0  0  0
    6.2819   -0.9141    2.8050 C   0  0  0  0  0  0  0  0  0  0  0  0
    3.7869   -0.8329    3.1270 C   0  0  0  0  0  0  0  0  0  0  0  0
    2.4854   -0.6925    2.6399 C   0  0  0  0  0  0  0  0  0  0  0  0
   -1.8841    0.9596    0.8878 C   0  0  0  0  0  0  0  0  0  0  0  0
   -3.2103    1.4012    0.6922 C   0  0  0  0  0  0  0  0  0  0  0  0
   -3.4635    2.8457    0.2974 C   0  0  0  0  0  0  0  0  0  0  0  0
   -2.2920    3.5820    0.2460 F   0  0  0  0  0  0  0  0  0  0  0  0
   -4.2982    3.4450    1.2237 F   0  0  0  0  0  0  0  0  0  0  0  0
   -4.0508    2.8933   -0.9538 F   0  0  0  0  0  0  0  0  0  0  0  0
   -7.8775   -0.0990    0.0123 C   0  0  0  0  0  0  0  0  0  0  0  0
   -8.6245   -0.7362   -1.1682 C   0  0  0  0  0  0  0  0  0  0  0  0
  -10.3717    0.2405   -3.0015 H   0  0  0  0  0  0  0  0  0  0  0  0
   -9.6372    1.6074   -2.0657 H   0  0  0  0  0  0  0  0  0  0  0  0
   -9.2143    1.3416   -3.8079 H   0  0  0  0  0  0  0  0  0  0  0  0
   -6.6905    0.7771   -3.5002 H   0  0  0  0  0  0  0  0  0  0  0  0
   -7.1905    1.7309   -2.0587 H   0  0  0  0  0  0  0  0  0  0  0  0
   -5.8396   -1.0350   -2.0231 H   0  0  0  0  0  0  0  0  0  0  0  0
   -5.0294    0.5166   -1.7143 H   0  0  0  0  0  0  0  0  0  0  0  0
   -6.2027    0.8333    1.6969 H   0  0  0  0  0  0  0  0  0  0  0  0
   -5.8883    1.8524    0.2731 H   0  0  0  0  0  0  0  0  0  0  0  0
   -4.7794   -1.5401    1.4906 H   0  0  0  0  0  0  0  0  0  0  0  0
   -2.4683   -2.2572    1.8264 H   0  0  0  0  0  0  0  0  0  0  0  0
   -0.1074   -1.6133    2.1411 H   0  0  0  0  0  0  0  0  0  0  0  0
    3.1967   -0.2322   -0.6599 H   0  0  0  0  0  0  0  0  0  0  0  0
    6.8417    0.0563   -3.6851 H   0  0  0  0  0  0  0  0  0  0  0  0
   11.7527   -0.2419   -3.4177 H   0  0  0  0  0  0  0  0  0  0  0  0
   12.8606   -0.6438   -1.2032 H   0  0  0  0  0  0  0  0  0  0  0  0
   11.4578   -0.8891    0.8485 H   0  0  0  0  0  0  0  0  0  0  0  0
    6.7874   -1.7702    2.3103 H   0  0  0  0  0  0  0  0  0  0  0  0
    6.2760   -1.1005    3.9000 H   0  0  0  0  0  0  0  0  0  0  0  0
    6.8623    0.0126    2.6123 H   0  0  0  0  0  0  0  0  0  0  0  0
    3.9343   -0.9924    4.1880 H   0  0  0  0  0  0  0  0  0  0  0  0
    1.6644   -0.7299    3.3438 H   0  0  0  0  0  0  0  0  0  0  0  0
   -1.0601    1.6496    0.7700 H   0  0  0  0  0  0  0  0  0  0  0  0
   -8.1371   -0.6518    0.9408 H   0  0  0  0  0  0  0  0  0  0  0  0
   -8.2317    0.9512    0.1282 H   0  0  0  0  0  0  0  0  0  0  0  0
   -8.3023   -1.7958   -1.2594 H   0  0  0  0  0  0  0  0  0  0  0  0
   -9.7144   -0.7600   -0.9408 H   0  0  0  0  0  0  0  0  0  0  0  0
  1  2  1  0
  2  3  1  0
  3  4  1  0
  4  5  1  0
  5  6  1  0
  6  7  1  0
  7  8  2  0
  8  9  1  0
  9 10  2  0
 10 11  1  0
 11 12  1  0
 12 13  2  0
 12 14  1  0
 14 15  2  0
 15 16  1  0
 16 17  1  0
 17 18  3  0
 18 19  1  0
 19 20  2  0
 20 21  1  0
 21 22  2  0
 22 23  1  0
 23 24  2  0
 24 25  1  0
 25 26  2  0
 26 27  1  0
 16 28  2  0
 28 29  1  0
 28 30  1  0
 30 31  2  0
 10 32  1  0
 32 33  2  0
 33 34  1  0
 34 35  1  0
 34 36  1  0
 34 37  1  0
  5 38  1  0
 38 39  1  0
 39  2  1  0
 33  7  1  0
 31 14  1  0
 27 19  1  0
 27 22  1  0
  1 40  1  0
  1 41  1  0
  1 42  1  0
  3 43  1  0
  3 44  1  0
  4 45  1  0
  4 46  1  0
  6 47  1  0
  6 48  1  0
  8 49  1  0
  9 50  1  0
 11 51  1  0
 15 52  1  0
 20 53  1  0
 23 54  1  0
 24 55  1  0
 25 56  1  0
 29 57  1  0
 29 58  1  0
 29 59  1  0
 30 60  1  0
 31 61  1  0
 32 62  1  0
 38 63  1  0
 38 64  1  0
 39 65  1  0
 39 66  1  0
M  END
$$$$
