
     RDKit          3D

 55 57  0  0  0  0  0  0  0  0999 V2000
  -10.3005   -0.2331   -1.1540 N   0  0  0  0  0  0  0  0  0  0  0  0
   -8.8844   -0.2610   -0.9753 C   0  0  0  0  0  0  0  0  0  0  0  0
   -8.1369   -1.1697   -1.6577 N   0  0  0  0  0  0  0  0  0  0  0  0
   -6.7881   -1.2272   -1.5103 C   0  0  0  0  0  0  0  0  0  0  0  0
   -6.1278   -2.0856   -2.1529 O   0  0  0  0  0  0  0  0  0  0  0  0
   -6.1487   -0.3371   -0.6393 C   0  0  0  0  0  0  0  0  0  0  0  0
   -6.9295    0.6046    0.0404 C   0  0  0  0  0  0  0  0  0  0  0  0
   -6.2886    1.5511    0.9065 N   0  0  0  0  0  0  0  0  0  0  0  0
   -4.8362    1.7240    0.8703 C   0  0  0  0  0  0  0  0  0  0  0  0
   -4.1441    0.3575    0.7142 C   0  0  0  0  0  0  0  0  0  0  0  0
   -2.6251    0.5314    0.5359 C   0  0  0  0  0  0  0  0  0  0  0  0
   -1.9306   -0.7585    0.5812 N   0  0  0  0  0  0  0  0  0  0  0  0
   -0.5069   -0.8944    0.4120 C   0  0  0  0  0  0  0  0  0  0  0  0
    0.0697   -2.1726    0.4480 C   0  0  0  0  0  0  0  0  0  0  0  0
    1.4480   -2.3372    0.2866 C   0  0  0  0  0  0  0  0  0  0  0  0
    2.2831   -1.2237    0.0937 C   0  0  0  0  0  0  0  0  0  0  0  0
    1.7051    0.0570    0.0466 C   0  0  0  0  0  0  0  0  0  0  0  0
    0.3260    0.2212    0.2069 C   0  0  0  0  0  0  0  0  0  0  0  0
    3.7436   -1.4122   -0.0811 C   0  0  0  0  0  0  0  0  0  0  0  0
    4.1802   -2.5288   -0.4745 O   0  0  0  0  0  0  0  0  0  0  0  0
    4.6685   -0.3501    0.2074 N   0  0  0  0  0  0  0  0  0  0  0  0
    6.1034   -0.4738   -0.0639 C   0  0  1  0  0  0  0  0  0  0  0  0
    6.7258    0.9228   -0.2539 C   0  0  0  0  0  0  0  0  0  0  0  0
    8.1794    0.8494   -0.7404 C   0  0  0  0  0  0  0  0  0  0  0  0
    8.7285    2.2242   -0.9542 C   0  0  0  0  0  0  0  0  0  0  0  0
    9.3156    2.9082    0.1056 O   0  0  0  0  0  0  0  0  0  0  0  0
    8.6239    2.7782   -2.0812 O   0  0  0  0  0  0  0  0  0  0  0  0
    6.7648   -1.2166    1.0630 C   0  0  0  0  0  0  0  0  0  0  0  0
    7.5598   -2.3248    0.7880 O   0  0  0  0  0  0  0  0  0  0  0  0
    6.6148   -0.8309    2.2539 O   0  0  0  0  0  0  0  0  0  0  0  0
   -4.7289   -0.3639   -0.4245 N   0  0  0  0  0  0  0  0  0  0  0  0
   -8.2802    0.6200   -0.1293 N   0  0  0  0  0  0  0  0  0  0  0  0
  -10.8899    0.4583   -0.6395 H   0  0  0  0  0  0  0  0  0  0  0  0
  -10.7630   -0.9071   -1.8036 H   0  0  0  0  0  0  0  0  0  0  0  0
   -6.8635    2.1766    1.5145 H   0  0  0  0  0  0  0  0  0  0  0  0
   -4.5760    2.3780    0.0096 H   0  0  0  0  0  0  0  0  0  0  0  0
   -4.4979    2.2204    1.8056 H   0  0  0  0  0  0  0  0  0  0  0  0
   -4.3332   -0.2285    1.6412 H   0  0  0  0  0  0  0  0  0  0  0  0
   -2.4254    1.0261   -0.4398 H   0  0  0  0  0  0  0  0  0  0  0  0
   -2.2329    1.1772    1.3517 H   0  0  0  0  0  0  0  0  0  0  0  0
   -2.4896   -1.6268    0.7484 H   0  0  0  0  0  0  0  0  0  0  0  0
   -0.5512   -3.0464    0.6015 H   0  0  0  0  0  0  0  0  0  0  0  0
    1.8620   -3.3373    0.3238 H   0  0  0  0  0  0  0  0  0  0  0  0
    2.3102    0.9348   -0.1373 H   0  0  0  0  0  0  0  0  0  0  0  0
   -0.0806    1.2222    0.1642 H   0  0  0  0  0  0  0  0  0  0  0  0
    4.3408    0.4662    0.7716 H   0  0  0  0  0  0  0  0  0  0  0  0
    6.2436   -1.0443   -1.0094 H   0  0  0  0  0  0  0  0  0  0  0  0
    6.6786    1.4911    0.7020 H   0  0  0  0  0  0  0  0  0  0  0  0
    6.1250    1.4774   -1.0088 H   0  0  0  0  0  0  0  0  0  0  0  0
    8.8083    0.3266    0.0117 H   0  0  0  0  0  0  0  0  0  0  0  0
    8.2319    0.2788   -1.6933 H   0  0  0  0  0  0  0  0  0  0  0  0
    9.6776    3.8461   -0.0184 H   0  0  0  0  0  0  0  0  0  0  0  0
    8.0186   -2.8329    1.5345 H   0  0  0  0  0  0  0  0  0  0  0  0
   -4.1194   -0.9272   -1.0603 H   0  0  0  0  0  0  0  0  0  0  0  0
   -8.8574    1.3221    0.3864 H   0  0  0  0  0  0  0  0  0  0  0  0
  1  2  1  0
  2  3  2  0
  3  4  1  0
  4  5  2  0
  4  6  1  0
  6  7  2  0
  7  8  1  0
  8  9  1  0
  9 10  1  0
 10 11  1  0
 11 12  1  0
 12 13  1  0
 13 14  2  0
 14 15  1  0
 15 16  2  0
 16 17  1  0
 17 18  2  0
 16 19  1  0
 19 20  2  0
 19 21  1  0
 21 22  1  0
 22 23  1  0
 23 24  1  0
 24 25  1  0
 25 26  1  0
 25 27  2  0
 22 28  1  0
 28 29  1  0
 28 30  2  0
 10 31  1  0
  7 32  1  0
 32  2  1  0
 31  6  1  0
 18 13  1  0
  1 33  1  0
  1 34  1  0
  8 35  1  0
  9 36  1  0
  9 37  1  0
 10 38  1  0
 11 39  1  0
 11 40  1  0
 12 41  1  0
 14 42  1  0
 15 43  1  0
 17 44  1  0
 18 45  1  0
 21 46  1  0
 22 47  1  6
 23 48  1  0
 23 49  1  0
 24 50  1  0
 24 51  1  0
 26 52  1  0
 29 53  1  0
 31 54  1  0
 32 55  1  0
M  END
$$$$
