
     RDKit          3D

 44 46  0  0  0  0  0  0  0  0999 V2000
    2.2215    0.7466   -0.0181 C   0  0  2  0  0  0  0  0  0  0  0  0
    2.4834    1.7633   -1.0416 N   0  0  0  0  0  0  0  0  0  0  0  0
    3.1643   -0.4602   -0.1925 C   0  0  0  0  0  0  0  0  0  0  0  0
    4.6060   -0.0660    0.0147 C   0  0  0  0  0  0  0  0  0  0  0  0
    5.4064    0.2804   -1.0876 C   0  0  0  0  0  0  0  0  0  0  0  0
    6.7350    0.6740   -0.8998 C   0  0  0  0  0  0  0  0  0  0  0  0
    7.5016    1.0032   -1.9685 F   0  0  0  0  0  0  0  0  0  0  0  0
    7.2722    0.7320    0.3889 C   0  0  0  0  0  0  0  0  0  0  0  0
    6.4812    0.4000    1.4918 C   0  0  0  0  0  0  0  0  0  0  0  0
    5.1514    0.0058    1.3105 C   0  0  0  0  0  0  0  0  0  0  0  0
    4.3969   -0.3020    2.3960 F   0  0  0  0  0  0  0  0  0  0  0  0
    0.7655    0.3107   -0.0400 C   0  0  0  0  0  0  0  0  0  0  0  0
   -0.0503    0.5297    1.0825 C   0  0  0  0  0  0  0  0  0  0  0  0
   -1.3908    0.1347    1.0752 C   0  0  0  0  0  0  0  0  0  0  0  0
   -1.9458   -0.4890   -0.0555 C   0  0  0  0  0  0  0  0  0  0  0  0
   -1.1298   -0.7093   -1.1784 C   0  0  0  0  0  0  0  0  0  0  0  0
    0.2103   -0.3133   -1.1716 C   0  0  0  0  0  0  0  0  0  0  0  0
   -3.3702   -0.9100   -0.0639 C   0  0  0  0  0  0  0  0  0  0  0  0
   -3.7422   -2.1481   -0.6147 C   0  0  0  0  0  0  0  0  0  0  0  0
   -5.0783   -2.5503   -0.6100 C   0  0  0  0  0  0  0  0  0  0  0  0
   -6.0600   -1.7223   -0.0636 C   0  0  0  0  0  0  0  0  0  0  0  0
   -5.7173   -0.4723    0.4801 C   0  0  0  0  0  0  0  0  0  0  0  0
   -4.3655   -0.0786    0.4841 C   0  0  0  0  0  0  0  0  0  0  0  0
   -6.7728    0.3967    1.0560 C   0  0  0  0  0  0  0  0  0  0  0  0
   -6.5991    1.8121    1.1658 N   0  0  0  0  0  0  0  0  0  0  0  0
   -7.8568   -0.1149    1.4466 O   0  0  0  0  0  0  0  0  0  0  0  0
    2.4473    1.2026    0.9724 H   0  0  0  0  0  0  0  0  0  0  0  0
    1.8325    2.5683   -0.8897 H   0  0  0  0  0  0  0  0  0  0  0  0
    2.2866    1.3734   -1.9916 H   0  0  0  0  0  0  0  0  0  0  0  0
    3.0378   -0.9055   -1.2035 H   0  0  0  0  0  0  0  0  0  0  0  0
    2.8918   -1.2523    0.5394 H   0  0  0  0  0  0  0  0  0  0  0  0
    4.9999    0.2475   -2.0911 H   0  0  0  0  0  0  0  0  0  0  0  0
    8.3003    1.0376    0.5344 H   0  0  0  0  0  0  0  0  0  0  0  0
    6.8992    0.4516    2.4890 H   0  0  0  0  0  0  0  0  0  0  0  0
    0.3503    1.0042    1.9696 H   0  0  0  0  0  0  0  0  0  0  0  0
   -1.9888    0.3012    1.9623 H   0  0  0  0  0  0  0  0  0  0  0  0
   -1.5327   -1.1734   -2.0699 H   0  0  0  0  0  0  0  0  0  0  0  0
    0.8115   -0.4947   -2.0528 H   0  0  0  0  0  0  0  0  0  0  0  0
   -2.9965   -2.8151   -1.0289 H   0  0  0  0  0  0  0  0  0  0  0  0
   -5.3540   -3.5095   -1.0292 H   0  0  0  0  0  0  0  0  0  0  0  0
   -7.0905   -2.0553   -0.0765 H   0  0  0  0  0  0  0  0  0  0  0  0
   -4.0794    0.8700    0.9174 H   0  0  0  0  0  0  0  0  0  0  0  0
   -7.3330    2.3914    1.6308 H   0  0  0  0  0  0  0  0  0  0  0  0
   -5.7988    2.3049    0.7131 H   0  0  0  0  0  0  0  0  0  0  0  0
  1  2  1  0
  1  3  1  0
  3  4  1  0
  4  5  2  0
  5  6  1  0
  6  7  1  0
  6  8  2  0
  8  9  1  0
  9 10  2  0
 10 11  1  0
  1 12  1  0
 12 13  2  0
 13 14  1  0
 14 15  2  0
 15 16  1  0
 16 17  2  0
 15 18  1  0
 18 19  2  0
 19 20  1  0
 20 21  2  0
 21 22  1  0
 22 23  2  0
 22 24  1  0
 24 25  1  0
 24 26  2  0
 10  4  1  0
 17 12  1  0
 23 18  1  0
  1 27  1  1
  2 28  1  0
  2 29  1  0
  3 30  1  0
  3 31  1  0
  5 32  1  0
  8 33  1  0
  9 34  1  0
 13 35  1  0
 14 36  1  0
 16 37  1  0
 17 38  1  0
 19 39  1  0
 20 40  1  0
 21 41  1  0
 23 42  1  0
 25 43  1  0
 25 44  1  0
M  END
$$$$
