
     RDKit          3D

 50 54  0  0  0  0  0  0  0  0999 V2000
    5.7401   -0.0670    0.1037 C   0  0  1  0  0  0  0  0  0  0  0  0
    6.1836   -0.2294   -1.2282 O   0  0  0  0  0  0  0  0  0  0  0  0
    5.1435    0.7056   -1.0210 C   0  0  1  0  0  0  0  0  0  0  0  0
    3.6896    0.1722   -1.0829 C   0  0  1  0  0  0  0  0  0  0  0  0
    3.8365   -1.2885   -0.7128 C   0  0  0  0  0  0  0  0  0  0  0  0
    4.5808   -0.9836    0.5668 C   0  0  2  0  0  0  0  0  0  0  0  0
    3.5655   -0.0912    1.3092 C   0  0  0  0  0  0  0  0  0  0  0  0
    2.9624    0.7506    0.1550 C   0  0  2  0  0  0  0  0  0  0  0  0
    1.4574    0.6818    0.0233 C   0  0  0  0  0  0  0  0  0  0  0  0
    0.7417    1.7104   -0.5003 N   0  0  0  0  0  0  0  0  0  0  0  0
   -0.5154    1.2329   -0.5195 C   0  0  0  0  0  0  0  0  0  0  0  0
   -0.5433   -0.0358   -0.0451 C   0  0  0  0  0  0  0  0  0  0  0  0
    0.6986   -0.4109    0.2952 N   0  0  0  0  0  0  0  0  0  0  0  0
   -1.7167   -0.8619   -0.0869 N   0  0  0  0  0  0  0  0  0  0  0  0
   -1.6612   -2.2789    0.2901 C   0  0  0  0  0  0  0  0  0  0  0  0
   -1.1561   -3.1224   -0.8844 C   0  0  0  0  0  0  0  0  0  0  0  0
   -1.0706   -4.5981   -0.5080 C   0  0  0  0  0  0  0  0  0  0  0  0
   -2.9147   -0.2867   -0.6633 C   0  0  0  0  0  0  0  0  0  0  0  0
   -3.8848   -1.0303   -0.9744 O   0  0  0  0  0  0  0  0  0  0  0  0
   -3.0559    1.2209   -0.8513 C   0  0  0  0  0  0  0  0  0  0  0  0
   -3.7808    1.8113    0.3757 C   0  0  0  0  0  0  0  0  0  0  0  0
   -4.1973    3.2761    0.1721 C   0  0  0  0  0  0  0  0  0  0  0  0
   -5.0235    3.7821    1.3513 C   0  0  0  0  0  0  0  0  0  0  0  0
   -1.7063    1.8838   -1.0576 C   0  0  0  0  0  0  0  0  0  0  0  0
   -1.6119    2.9821   -1.6678 O   0  0  0  0  0  0  0  0  0  0  0  0
    6.3798    0.5382    0.7807 H   0  0  0  0  0  0  0  0  0  0  0  0
    5.4221    1.7810   -1.0248 H   0  0  0  0  0  0  0  0  0  0  0  0
    3.1875    0.3570   -2.0567 H   0  0  0  0  0  0  0  0  0  0  0  0
    2.8715   -1.8140   -0.5522 H   0  0  0  0  0  0  0  0  0  0  0  0
    4.4351   -1.8742   -1.4464 H   0  0  0  0  0  0  0  0  0  0  0  0
    4.9100   -1.8786    1.1355 H   0  0  0  0  0  0  0  0  0  0  0  0
    4.0699    0.5557    2.0608 H   0  0  0  0  0  0  0  0  0  0  0  0
    2.8163   -0.7159    1.8380 H   0  0  0  0  0  0  0  0  0  0  0  0
    3.2359    1.8213    0.2973 H   0  0  0  0  0  0  0  0  0  0  0  0
    1.0027   -1.3432    0.6486 H   0  0  0  0  0  0  0  0  0  0  0  0
   -0.9973   -2.4107    1.1715 H   0  0  0  0  0  0  0  0  0  0  0  0
   -2.6699   -2.6306    0.5992 H   0  0  0  0  0  0  0  0  0  0  0  0
   -0.1484   -2.7705   -1.1940 H   0  0  0  0  0  0  0  0  0  0  0  0
   -1.8466   -3.0075   -1.7478 H   0  0  0  0  0  0  0  0  0  0  0  0
   -0.3637   -4.7398    0.3372 H   0  0  0  0  0  0  0  0  0  0  0  0
   -2.0722   -4.9809   -0.2176 H   0  0  0  0  0  0  0  0  0  0  0  0
   -0.7053   -5.1830   -1.3783 H   0  0  0  0  0  0  0  0  0  0  0  0
   -3.6749    1.3962   -1.7593 H   0  0  0  0  0  0  0  0  0  0  0  0
   -4.6985    1.2123    0.5717 H   0  0  0  0  0  0  0  0  0  0  0  0
   -3.1264    1.7310    1.2725 H   0  0  0  0  0  0  0  0  0  0  0  0
   -3.2966    3.9184    0.0762 H   0  0  0  0  0  0  0  0  0  0  0  0
   -4.8016    3.3710   -0.7562 H   0  0  0  0  0  0  0  0  0  0  0  0
   -5.9551    3.1860    1.4548 H   0  0  0  0  0  0  0  0  0  0  0  0
   -5.2996    4.8444    1.1833 H   0  0  0  0  0  0  0  0  0  0  0  0
   -4.4362    3.7119    2.2917 H   0  0  0  0  0  0  0  0  0  0  0  0
  1  2  1  0
  2  3  1  0
  3  4  1  0
  4  5  1  0
  5  6  1  0
  6  7  1  0
  7  8  1  0
  8  9  1  0
  9 10  2  0
 10 11  1  0
 11 12  2  0
 12 13  1  0
 12 14  1  0
 14 15  1  0
 15 16  1  0
 16 17  1  0
 14 18  1  0
 18 19  2  0
 18 20  1  0
 20 21  1  0
 21 22  1  0
 22 23  1  0
 20 24  1  0
 24 25  2  0
  3  1  1  0
  8  4  1  0
 13  9  1  0
  6  1  1  0
 24 11  1  0
  1 26  1  1
  3 27  1  1
  4 28  1  6
  5 29  1  0
  5 30  1  0
  6 31  1  1
  7 32  1  0
  7 33  1  0
  8 34  1  1
 13 35  1  0
 15 36  1  0
 15 37  1  0
 16 38  1  0
 16 39  1  0
 17 40  1  0
 17 41  1  0
 17 42  1  0
 20 43  1  0
 21 44  1  0
 21 45  1  0
 22 46  1  0
 22 47  1  0
 23 48  1  0
 23 49  1  0
 23 50  1  0
M  END
$$$$
