
     RDKit          3D

 51 53  0  0  0  0  0  0  0  0999 V2000
   -0.4842    2.5077   -3.2437 N   0  0  0  0  0  0  0  0  0  0  0  0
   -0.9866    2.2088   -1.9393 C   0  0  0  0  0  0  0  0  0  0  0  0
   -0.5631    2.9027   -0.9290 N   0  0  0  0  0  0  0  0  0  0  0  0
   -1.9845    1.1271   -1.7534 C   0  0  0  0  0  0  0  0  0  0  0  0
   -1.9063    0.2661   -0.6457 C   0  0  0  0  0  0  0  0  0  0  0  0
   -2.8534   -0.7609   -0.4594 C   0  0  0  0  0  0  0  0  0  0  0  0
   -2.7793   -1.6476    0.6420 C   0  0  0  0  0  0  0  0  0  0  0  0
   -1.7537   -1.5039    1.6355 N   0  0  0  0  0  0  0  0  0  0  0  0
   -0.7663   -2.5234    1.8591 C   0  0  0  0  0  0  0  0  0  0  0  0
   -1.0408   -3.7255    1.5925 O   0  0  0  0  0  0  0  0  0  0  0  0
    0.5860   -2.1821    2.3670 C   0  0  0  0  0  0  0  0  0  0  0  0
    1.4085   -3.1828    2.9157 C   0  0  0  0  0  0  0  0  0  0  0  0
    2.7100   -2.8836    3.3277 C   0  0  0  0  0  0  0  0  0  0  0  0
    3.2117   -1.5882    3.1862 C   0  0  0  0  0  0  0  0  0  0  0  0
    2.4070   -0.5792    2.6432 C   0  0  0  0  0  0  0  0  0  0  0  0
    1.0973   -0.8767    2.2441 C   0  0  0  0  0  0  0  0  0  0  0  0
    3.0441    1.0517    2.4186 S   0  0  0  0  0  6  0  0  0  0  0  0
    4.1678    1.2759    3.3910 O   0  0  0  0  0  0  0  0  0  0  0  0
    1.9689    2.0626    2.7097 O   0  0  0  0  0  0  0  0  0  0  0  0
    3.6424    1.2702    0.8459 O   0  0  0  0  0  0  0  0  0  0  0  0
    2.5982    1.0582   -0.0758 C   0  0  0  0  0  0  0  0  0  0  0  0
    3.0384    1.4975   -1.4745 C   0  0  0  0  0  0  0  0  0  0  0  0
    3.1591    3.0198   -1.6070 C   0  0  0  0  0  0  0  0  0  0  0  0
    4.2361    3.5027   -0.8487 O   0  0  0  0  0  0  0  0  0  0  0  0
   -3.7352   -2.6658    0.7771 C   0  0  0  0  0  0  0  0  0  0  0  0
   -4.7518   -2.8150   -0.1668 C   0  0  0  0  0  0  0  0  0  0  0  0
   -4.8298   -1.9508   -1.2590 C   0  0  0  0  0  0  0  0  0  0  0  0
   -3.8871   -0.9244   -1.4163 C   0  0  0  0  0  0  0  0  0  0  0  0
   -3.9579   -0.0653   -2.5219 C   0  0  0  0  0  0  0  0  0  0  0  0
   -3.0137    0.9490   -2.6895 C   0  0  0  0  0  0  0  0  0  0  0  0
   -0.7482    1.9263   -4.0696 H   0  0  0  0  0  0  0  0  0  0  0  0
    0.2010    3.2842   -3.3796 H   0  0  0  0  0  0  0  0  0  0  0  0
   -0.9024    2.7466    0.0464 H   0  0  0  0  0  0  0  0  0  0  0  0
   -1.0873    0.3867    0.0492 H   0  0  0  0  0  0  0  0  0  0  0  0
   -1.6516   -0.5750    2.1009 H   0  0  0  0  0  0  0  0  0  0  0  0
    1.0473   -4.1983    3.0217 H   0  0  0  0  0  0  0  0  0  0  0  0
    3.3356   -3.6614    3.7463 H   0  0  0  0  0  0  0  0  0  0  0  0
    4.2281   -1.3768    3.4921 H   0  0  0  0  0  0  0  0  0  0  0  0
    0.5048   -0.0926    1.7967 H   0  0  0  0  0  0  0  0  0  0  0  0
    2.3600   -0.0264   -0.1227 H   0  0  0  0  0  0  0  0  0  0  0  0
    1.6779    1.6198    0.2003 H   0  0  0  0  0  0  0  0  0  0  0  0
    4.0083    1.0188   -1.7321 H   0  0  0  0  0  0  0  0  0  0  0  0
    2.2811    1.1433   -2.2077 H   0  0  0  0  0  0  0  0  0  0  0  0
    2.2033    3.5155   -1.3183 H   0  0  0  0  0  0  0  0  0  0  0  0
    3.3470    3.2667   -2.6732 H   0  0  0  0  0  0  0  0  0  0  0  0
    3.8666    3.7952    0.0249 H   0  0  0  0  0  0  0  0  0  0  0  0
   -3.6997   -3.3370    1.6257 H   0  0  0  0  0  0  0  0  0  0  0  0
   -5.4843   -3.6032   -0.0498 H   0  0  0  0  0  0  0  0  0  0  0  0
   -5.6256   -2.0859   -1.9820 H   0  0  0  0  0  0  0  0  0  0  0  0
   -4.7444   -0.1786   -3.2588 H   0  0  0  0  0  0  0  0  0  0  0  0
   -3.0991    1.6071   -3.5453 H   0  0  0  0  0  0  0  0  0  0  0  0
  1  2  1  0
  2  3  2  3
  2  4  1  0
  4  5  2  0
  5  6  1  0
  6  7  2  0
  7  8  1  0
  8  9  1  0
  9 10  2  0
  9 11  1  0
 11 12  2  0
 12 13  1  0
 13 14  2  0
 14 15  1  0
 15 16  2  0
 15 17  1  0
 17 18  2  0
 17 19  2  0
 17 20  1  0
 20 21  1  0
 21 22  1  0
 22 23  1  0
 23 24  1  0
  7 25  1  0
 25 26  2  0
 26 27  1  0
 27 28  2  0
 28 29  1  0
 29 30  2  0
 30  4  1  0
 28  6  1  0
 16 11  1  0
  1 31  1  0
  1 32  1  0
  3 33  1  0
  5 34  1  0
  8 35  1  0
 12 36  1  0
 13 37  1  0
 14 38  1  0
 16 39  1  0
 21 40  1  0
 21 41  1  0
 22 42  1  0
 22 43  1  0
 23 44  1  0
 23 45  1  0
 24 46  1  0
 25 47  1  0
 26 48  1  0
 27 49  1  0
 29 50  1  0
 30 51  1  0
M  END
$$$$
