
     RDKit          3D

 33 34  0  0  0  0  0  0  0  0999 V2000
   -0.0709   -0.9028   -2.2213 C   0  0  0  0  0  0  0  0  0  0  0  0
   -0.0694   -0.8722   -0.6737 C   0  0  0  0  0  0  0  0  0  0  0  0
   -0.1766   -2.3354   -0.1800 C   0  0  0  0  0  0  0  0  0  0  0  0
   -1.2638    0.0005   -0.2412 C   0  0  0  0  0  0  0  0  0  0  0  0
   -2.4587   -0.5410    0.2871 C   0  0  0  0  0  0  0  0  0  0  0  0
   -3.5257    0.2908    0.6397 C   0  0  0  0  0  0  0  0  0  0  0  0
   -3.4320    1.6748    0.4607 C   0  0  0  0  0  0  0  0  0  0  0  0
   -4.4902    2.5105    0.8105 O   0  0  0  0  0  0  0  0  0  0  0  0
   -2.2678    2.2243   -0.0775 C   0  0  0  0  0  0  0  0  0  0  0  0
   -1.1983    1.3986   -0.4319 C   0  0  0  0  0  0  0  0  0  0  0  0
    1.2305   -0.2932   -0.0819 C   0  0  0  0  0  0  0  0  0  0  0  0
    1.2877   -0.0037    1.2994 C   0  0  0  0  0  0  0  0  0  0  0  0
    2.4538    0.4985    1.8820 C   0  0  0  0  0  0  0  0  0  0  0  0
    3.5934    0.7094    1.1049 C   0  0  0  0  0  0  0  0  0  0  0  0
    4.7489    1.2117    1.6991 O   0  0  0  0  0  0  0  0  0  0  0  0
    3.5647    0.4108   -0.2613 C   0  0  0  0  0  0  0  0  0  0  0  0
    2.4007   -0.0920   -0.8503 C   0  0  0  0  0  0  0  0  0  0  0  0
    0.1353    0.1053   -2.6411 H   0  0  0  0  0  0  0  0  0  0  0  0
    0.6864   -1.6163   -2.6119 H   0  0  0  0  0  0  0  0  0  0  0  0
   -1.0625   -1.2338   -2.6005 H   0  0  0  0  0  0  0  0  0  0  0  0
    0.7501   -2.8968   -0.4304 H   0  0  0  0  0  0  0  0  0  0  0  0
   -1.0243   -2.8646   -0.6663 H   0  0  0  0  0  0  0  0  0  0  0  0
   -0.3125   -2.3762    0.9222 H   0  0  0  0  0  0  0  0  0  0  0  0
   -2.5859   -1.6030    0.4349 H   0  0  0  0  0  0  0  0  0  0  0  0
   -4.4287   -0.1440    1.0495 H   0  0  0  0  0  0  0  0  0  0  0  0
   -5.3489    2.1419    1.2024 H   0  0  0  0  0  0  0  0  0  0  0  0
   -2.1920    3.2941   -0.2253 H   0  0  0  0  0  0  0  0  0  0  0  0
   -0.3117    1.8532   -0.8561 H   0  0  0  0  0  0  0  0  0  0  0  0
    0.4224   -0.1659    1.9300 H   0  0  0  0  0  0  0  0  0  0  0  0
    2.4719    0.7207    2.9414 H   0  0  0  0  0  0  0  0  0  0  0  0
    5.5926    1.3747    1.1621 H   0  0  0  0  0  0  0  0  0  0  0  0
    4.4472    0.5644   -0.8694 H   0  0  0  0  0  0  0  0  0  0  0  0
    2.4343   -0.3165   -1.9058 H   0  0  0  0  0  0  0  0  0  0  0  0
  1  2  1  0
  2  3  1  0
  2  4  1  0
  4  5  2  0
  5  6  1  0
  6  7  2  0
  7  8  1  0
  7  9  1  0
  9 10  2  0
  2 11  1  0
 11 12  2  0
 12 13  1  0
 13 14  2  0
 14 15  1  0
 14 16  1  0
 16 17  2  0
 10  4  1  0
 17 11  1  0
  1 18  1  0
  1 19  1  0
  1 20  1  0
  3 21  1  0
  3 22  1  0
  3 23  1  0
  5 24  1  0
  6 25  1  0
  8 26  1  0
  9 27  1  0
 10 28  1  0
 12 29  1  0
 13 30  1  0
 15 31  1  0
 16 32  1  0
 17 33  1  0
M  END
$$$$
