
     RDKit          3D

 32 32  0  0  0  0  0  0  0  0999 V2000
   -3.8821    2.3702    0.6871 C   0  0  0  0  0  0  0  0  0  0  0  0
   -2.7384    1.6640    0.2172 O   0  0  0  0  0  0  0  0  0  0  0  0
   -2.7243    0.2974   -0.1041 C   0  0  0  0  0  0  0  0  0  0  0  0
   -1.5202   -0.2696   -0.5554 C   0  0  0  0  0  0  0  0  0  0  0  0
   -0.3948    0.5660   -0.6640 O   0  0  0  0  0  0  0  0  0  0  0  0
    0.9299    0.1432   -0.9900 C   0  0  0  0  0  0  0  0  0  0  0  0
    1.5930   -0.5465    0.2116 C   0  0  0  0  0  0  0  0  0  0  0  0
    1.6720    0.3602    1.2802 O   0  0  0  0  0  0  0  0  0  0  0  0
    2.9916   -1.0739   -0.1537 C   0  0  0  0  0  0  0  0  0  0  0  0
    3.8464   -0.0251   -0.6111 O   0  0  0  0  0  0  0  0  0  0  0  0
    4.5662    0.8184    0.2421 C   0  0  0  0  0  0  0  0  0  0  0  0
    5.3284    1.8884   -0.3095 N   0  0  0  0  0  0  0  0  0  0  0  0
    4.5577    0.6370    1.4897 O   0  0  0  0  0  0  0  0  0  0  0  0
   -1.4804   -1.6390   -0.8888 C   0  0  0  0  0  0  0  0  0  0  0  0
   -2.6255   -2.4285   -0.7658 C   0  0  0  0  0  0  0  0  0  0  0  0
   -3.8189   -1.8657   -0.3144 C   0  0  0  0  0  0  0  0  0  0  0  0
   -3.8730   -0.5101    0.0150 C   0  0  0  0  0  0  0  0  0  0  0  0
   -3.6072    3.4308    0.8602 H   0  0  0  0  0  0  0  0  0  0  0  0
   -4.6926    2.3323   -0.0711 H   0  0  0  0  0  0  0  0  0  0  0  0
   -4.2335    1.9331    1.6456 H   0  0  0  0  0  0  0  0  0  0  0  0
    0.9186   -0.5174   -1.8831 H   0  0  0  0  0  0  0  0  0  0  0  0
    1.5188    1.0455   -1.2604 H   0  0  0  0  0  0  0  0  0  0  0  0
    0.9661   -1.4173    0.5104 H   0  0  0  0  0  0  0  0  0  0  0  0
    1.8243   -0.1767    2.1015 H   0  0  0  0  0  0  0  0  0  0  0  0
    3.4476   -1.5976    0.7149 H   0  0  0  0  0  0  0  0  0  0  0  0
    2.8900   -1.8226   -0.9682 H   0  0  0  0  0  0  0  0  0  0  0  0
    5.3431    2.0440   -1.3416 H   0  0  0  0  0  0  0  0  0  0  0  0
    5.8750    2.5252    0.3117 H   0  0  0  0  0  0  0  0  0  0  0  0
   -0.5740   -2.1059   -1.2459 H   0  0  0  0  0  0  0  0  0  0  0  0
   -2.5877   -3.4794   -1.0225 H   0  0  0  0  0  0  0  0  0  0  0  0
   -4.7046   -2.4808   -0.2207 H   0  0  0  0  0  0  0  0  0  0  0  0
   -4.8116   -0.0996    0.3610 H   0  0  0  0  0  0  0  0  0  0  0  0
  1  2  1  0
  2  3  1  0
  3  4  2  0
  4  5  1  0
  5  6  1  0
  6  7  1  0
  7  8  1  0
  7  9  1  0
  9 10  1  0
 10 11  1  0
 11 12  1  0
 11 13  2  0
  4 14  1  0
 14 15  2  0
 15 16  1  0
 16 17  2  0
 17  3  1  0
  1 18  1  0
  1 19  1  0
  1 20  1  0
  6 21  1  0
  6 22  1  0
  7 23  1  0
  8 24  1  0
  9 25  1  0
  9 26  1  0
 12 27  1  0
 12 28  1  0
 14 29  1  0
 15 30  1  0
 16 31  1  0
 17 32  1  0
M  END
$$$$
