
     RDKit          3D

 45 45  0  0  0  0  0  0  0  0999 V2000
   -4.7134   -0.7123    1.1512 C   0  0  0  0  0  0  0  0  0  0  0  0
   -3.2777   -0.9897    0.8770 N   0  0  0  0  0  4  0  0  0  0  0  0
   -3.1634   -2.3802    0.3693 C   0  0  0  0  0  0  0  0  0  0  0  0
   -2.5601   -0.9056    2.1769 C   0  0  0  0  0  0  0  0  0  0  0  0
   -2.7408    0.0344   -0.0987 C   0  0  1  0  0  0  0  0  0  0  0  0
   -1.1994   -0.0403   -0.3381 C   0  0  0  0  0  0  0  0  0  0  0  0
   -0.6886    1.0941   -1.2419 C   0  0  0  0  0  0  0  0  0  0  0  0
    0.8020    1.0312   -1.3657 C   0  0  0  0  0  0  0  0  0  0  0  0
    1.6413    1.6681   -0.5211 N   0  0  0  0  0  0  0  0  0  0  0  0
    2.8644    1.2884   -0.9427 C   0  0  0  0  0  0  0  0  0  0  0  0
    4.1420    1.6847   -0.2673 C   0  0  0  0  0  0  0  0  0  0  0  0
    4.5584    0.6456    0.7873 C   0  0  2  0  0  0  0  0  0  0  0  0
    3.5477    0.5487    1.8444 N   0  0  0  0  0  0  0  0  0  0  0  0
    5.9048    0.9921    1.3657 C   0  0  0  0  0  0  0  0  0  0  0  0
    6.9762    0.1215    1.1917 O   0  0  0  0  0  0  0  0  0  0  0  0
    6.0679    2.0674    2.0036 O   0  0  0  0  0  0  0  0  0  0  0  0
    2.7475    0.4158   -2.0028 C   0  0  0  0  0  0  0  0  0  0  0  0
    1.4418    0.2578   -2.2653 N   0  0  0  0  0  0  0  0  0  0  0  0
   -3.5007    0.0452   -1.4216 C   0  0  0  0  0  0  0  0  0  0  0  0
   -3.2032   -0.8796   -2.4717 N   0  0  0  0  0  0  0  0  0  0  0  0
   -4.4179    0.8921   -1.5960 O   0  0  0  0  0  0  0  0  0  0  0  0
   -4.8562    0.3265    1.5249 H   0  0  0  0  0  0  0  0  0  0  0  0
   -5.3380   -0.8430    0.2410 H   0  0  0  0  0  0  0  0  0  0  0  0
   -5.1244   -1.4084    1.9172 H   0  0  0  0  0  0  0  0  0  0  0  0
   -2.1118   -2.6497    0.1405 H   0  0  0  0  0  0  0  0  0  0  0  0
   -3.5268   -3.1101    1.1277 H   0  0  0  0  0  0  0  0  0  0  0  0
   -3.7794   -2.5358   -0.5412 H   0  0  0  0  0  0  0  0  0  0  0  0
   -3.0712   -1.5030    2.9656 H   0  0  0  0  0  0  0  0  0  0  0  0
   -2.4996    0.1461    2.5359 H   0  0  0  0  0  0  0  0  0  0  0  0
   -1.5311   -1.3197    2.1068 H   0  0  0  0  0  0  0  0  0  0  0  0
   -2.9037    1.0430    0.3507 H   0  0  0  0  0  0  0  0  0  0  0  0
   -0.6635    0.0622    0.6275 H   0  0  0  0  0  0  0  0  0  0  0  0
   -0.9068   -1.0126   -0.7833 H   0  0  0  0  0  0  0  0  0  0  0  0
   -1.1319    1.0149   -2.2569 H   0  0  0  0  0  0  0  0  0  0  0  0
   -0.9768    2.0783   -0.8132 H   0  0  0  0  0  0  0  0  0  0  0  0
    4.9402    1.7773   -1.0364 H   0  0  0  0  0  0  0  0  0  0  0  0
    4.0107    2.6819    0.2070 H   0  0  0  0  0  0  0  0  0  0  0  0
    4.6402   -0.3456    0.2870 H   0  0  0  0  0  0  0  0  0  0  0  0
    3.8410   -0.1929    2.5218 H   0  0  0  0  0  0  0  0  0  0  0  0
    3.5006    1.4529    2.3692 H   0  0  0  0  0  0  0  0  0  0  0  0
    7.8894    0.3388    1.5726 H   0  0  0  0  0  0  0  0  0  0  0  0
    3.5505   -0.0834   -2.5293 H   0  0  0  0  0  0  0  0  0  0  0  0
    1.0153   -0.3543   -2.9959 H   0  0  0  0  0  0  0  0  0  0  0  0
   -2.4521   -1.5967   -2.3755 H   0  0  0  0  0  0  0  0  0  0  0  0
   -3.7435   -0.8460   -3.3644 H   0  0  0  0  0  0  0  0  0  0  0  0
  1  2  1  0
  2  3  1  0
  2  4  1  0
  2  5  1  0
  5  6  1  0
  6  7  1  0
  7  8  1  0
  8  9  2  0
  9 10  1  0
 10 11  1  0
 11 12  1  0
 12 13  1  0
 12 14  1  0
 14 15  1  0
 14 16  2  0
 10 17  2  0
 17 18  1  0
  5 19  1  0
 19 20  1  0
 19 21  2  0
 18  8  1  0
  1 22  1  0
  1 23  1  0
  1 24  1  0
  3 25  1  0
  3 26  1  0
  3 27  1  0
  4 28  1  0
  4 29  1  0
  4 30  1  0
  5 31  1  1
  6 32  1  0
  6 33  1  0
  7 34  1  0
  7 35  1  0
 11 36  1  0
 11 37  1  0
 12 38  1  6
 13 39  1  0
 13 40  1  0
 15 41  1  0
 17 42  1  0
 18 43  1  0
 20 44  1  0
 20 45  1  0
M  CHG  1   2   1
M  END
$$$$
