
     RDKit          3D

 60 62  0  0  0  0  0  0  0  0999 V2000
    5.3072   -1.1764   -0.9643 C   0  0  0  0  0  0  0  0  0  0  0  0
    3.9625   -1.7815   -0.8961 N   0  0  0  0  0  4  0  0  0  0  0  0
    3.8900   -2.9375   -1.8096 C   0  0  0  0  0  0  0  0  0  0  0  0
    3.0600   -0.8677   -1.3349 O   0  0  0  0  0  1  0  0  0  0  0  0
    3.5903   -2.2104    0.4787 C   0  0  0  0  0  0  0  0  0  0  0  0
    3.7318   -1.1245    1.5711 C   0  0  0  0  0  0  0  0  0  0  0  0
    2.9342    0.0730    1.2901 N   0  0  0  0  0  0  0  0  0  0  0  0
    1.4929    0.0965    1.1896 C   0  0  0  0  0  0  0  0  0  0  0  0
    0.7307   -0.8806    1.8500 C   0  0  0  0  0  0  0  0  0  0  0  0
   -0.6574   -0.8184    1.8664 C   0  0  0  0  0  0  0  0  0  0  0  0
   -1.3369    0.2258    1.2287 C   0  0  0  0  0  0  0  0  0  0  0  0
   -2.7683    0.3318    1.3587 N   0  0  0  0  0  0  0  0  0  0  0  0
   -3.6725   -0.8193    1.3283 C   0  0  0  0  0  0  0  0  0  0  0  0
   -3.5700   -1.5464   -0.0299 C   0  0  0  0  0  0  0  0  0  0  0  0
   -4.4575   -2.7299   -0.1684 N   0  0  0  0  0  4  0  0  0  0  0  0
   -4.1248   -3.7971    0.7949 C   0  0  0  0  0  0  0  0  0  0  0  0
   -5.8876   -2.3769   -0.0830 C   0  0  0  0  0  0  0  0  0  0  0  0
   -4.2462   -3.2359   -1.4114 O   0  0  0  0  0  1  0  0  0  0  0  0
   -0.5959    1.2019    0.5188 C   0  0  0  0  0  0  0  0  0  0  0  0
    0.8205    1.1388    0.4924 C   0  0  0  0  0  0  0  0  0  0  0  0
    1.5501    2.1640   -0.3106 C   0  0  0  0  0  0  0  0  0  0  0  0
    2.7026    1.9248   -0.7610 O   0  0  0  0  0  0  0  0  0  0  0  0
    0.8800    3.4445   -0.6531 C   0  0  0  0  0  0  0  0  0  0  0  0
    1.6193    4.5749   -1.0646 C   0  0  0  0  0  0  0  0  0  0  0  0
    3.0117    4.5268   -1.1381 O   0  0  0  0  0  0  0  0  0  0  0  0
    0.9539    5.7601   -1.3942 C   0  0  0  0  0  0  0  0  0  0  0  0
   -0.4320    5.8434   -1.2888 C   0  0  0  0  0  0  0  0  0  0  0  0
   -1.1808    4.7458   -0.8579 C   0  0  0  0  0  0  0  0  0  0  0  0
   -2.5557    4.9261   -0.6902 O   0  0  0  0  0  0  0  0  0  0  0  0
   -0.5287    3.5186   -0.5770 C   0  0  0  0  0  0  0  0  0  0  0  0
   -1.2710    2.2769   -0.2548 C   0  0  0  0  0  0  0  0  0  0  0  0
   -2.4171    2.0817   -0.7421 O   0  0  0  0  0  0  0  0  0  0  0  0
    5.3241   -0.1856   -0.4614 H   0  0  0  0  0  0  0  0  0  0  0  0
    5.6098   -0.9985   -2.0203 H   0  0  0  0  0  0  0  0  0  0  0  0
    6.0640   -1.8385   -0.4884 H   0  0  0  0  0  0  0  0  0  0  0  0
    2.8773   -3.3983   -1.7826 H   0  0  0  0  0  0  0  0  0  0  0  0
    4.0851   -2.6249   -2.8598 H   0  0  0  0  0  0  0  0  0  0  0  0
    4.6377   -3.7132   -1.5302 H   0  0  0  0  0  0  0  0  0  0  0  0
    2.5415   -2.5820    0.4836 H   0  0  0  0  0  0  0  0  0  0  0  0
    4.2276   -3.0698    0.7887 H   0  0  0  0  0  0  0  0  0  0  0  0
    4.7995   -0.8420    1.6873 H   0  0  0  0  0  0  0  0  0  0  0  0
    3.4348   -1.5490    2.5525 H   0  0  0  0  0  0  0  0  0  0  0  0
    3.4557    0.9769    1.2763 H   0  0  0  0  0  0  0  0  0  0  0  0
    1.2031   -1.6821    2.3986 H   0  0  0  0  0  0  0  0  0  0  0  0
   -1.1966   -1.5704    2.4251 H   0  0  0  0  0  0  0  0  0  0  0  0
   -3.1960    1.2791    1.4663 H   0  0  0  0  0  0  0  0  0  0  0  0
   -3.4359   -1.4977    2.1708 H   0  0  0  0  0  0  0  0  0  0  0  0
   -4.7080   -0.4498    1.4782 H   0  0  0  0  0  0  0  0  0  0  0  0
   -3.7995   -0.8112   -0.8349 H   0  0  0  0  0  0  0  0  0  0  0  0
   -2.5133   -1.8598   -0.1882 H   0  0  0  0  0  0  0  0  0  0  0  0
   -4.6650   -4.7353    0.5371 H   0  0  0  0  0  0  0  0  0  0  0  0
   -4.4183   -3.5183    1.8296 H   0  0  0  0  0  0  0  0  0  0  0  0
   -3.0346   -4.0183    0.7791 H   0  0  0  0  0  0  0  0  0  0  0  0
   -6.1255   -1.5255   -0.7583 H   0  0  0  0  0  0  0  0  0  0  0  0
   -6.1788   -2.1043    0.9542 H   0  0  0  0  0  0  0  0  0  0  0  0
   -6.5197   -3.2400   -0.3897 H   0  0  0  0  0  0  0  0  0  0  0  0
    3.5581    5.3293   -1.4286 H   0  0  0  0  0  0  0  0  0  0  0  0
    1.5152    6.6286   -1.7149 H   0  0  0  0  0  0  0  0  0  0  0  0
   -0.9279    6.7782   -1.5186 H   0  0  0  0  0  0  0  0  0  0  0  0
   -3.1497    4.2690   -0.2036 H   0  0  0  0  0  0  0  0  0  0  0  0
  1  2  1  0
  2  3  1  0
  2  4  1  0
  2  5  1  0
  5  6  1  0
  6  7  1  0
  7  8  1  0
  8  9  2  0
  9 10  1  0
 10 11  2  0
 11 12  1  0
 12 13  1  0
 13 14  1  0
 14 15  1  0
 15 16  1  0
 15 17  1  0
 15 18  1  0
 11 19  1  0
 19 20  2  0
 20 21  1  0
 21 22  2  0
 21 23  1  0
 23 24  2  0
 24 25  1  0
 24 26  1  0
 26 27  2  0
 27 28  1  0
 28 29  1  0
 28 30  2  0
 30 31  1  0
 31 32  2  0
 20  8  1  0
 30 23  1  0
 31 19  1  0
  1 33  1  0
  1 34  1  0
  1 35  1  0
  3 36  1  0
  3 37  1  0
  3 38  1  0
  5 39  1  0
  5 40  1  0
  6 41  1  0
  6 42  1  0
  7 43  1  0
  9 44  1  0
 10 45  1  0
 12 46  1  0
 13 47  1  0
 13 48  1  0
 14 49  1  0
 14 50  1  0
 16 51  1  0
 16 52  1  0
 16 53  1  0
 17 54  1  0
 17 55  1  0
 17 56  1  0
 25 57  1  0
 26 58  1  0
 27 59  1  0
 29 60  1  0
M  CHG  4   2   1   4  -1  15   1  18  -1
M  END
$$$$
