
     RDKit          3D

 16 16  0  0  0  0  0  0  0  0999 V2000
   -2.6690   -0.3911    0.7224 O   0  0  0  0  0  0  0  0  0  0  0  0
   -2.0209    0.1206   -0.4096 C   0  0  0  0  0  0  0  0  0  0  0  0
   -0.5284    0.0277   -0.2368 C   0  0  0  0  0  0  0  0  0  0  0  0
    0.1502   -1.1410   -0.6211 C   0  0  0  0  0  0  0  0  0  0  0  0
    1.5314   -1.2486   -0.4340 C   0  0  0  0  0  0  0  0  0  0  0  0
    2.2435   -0.1969    0.1479 C   0  0  0  0  0  0  0  0  0  0  0  0
    1.5751    0.9633    0.5490 C   0  0  0  0  0  0  0  0  0  0  0  0
    2.2693    1.9774    1.1224 F   0  0  0  0  0  0  0  0  0  0  0  0
    0.1920    1.0769    0.3642 C   0  0  0  0  0  0  0  0  0  0  0  0
   -0.4435    2.2049    0.7723 F   0  0  0  0  0  0  0  0  0  0  0  0
   -2.6003    0.3044    1.4277 H   0  0  0  0  0  0  0  0  0  0  0  0
   -2.3351    1.1725   -0.5975 H   0  0  0  0  0  0  0  0  0  0  0  0
   -2.3365   -0.4687   -1.2969 H   0  0  0  0  0  0  0  0  0  0  0  0
   -0.3899   -1.9680   -1.0653 H   0  0  0  0  0  0  0  0  0  0  0  0
    2.0494   -2.1493   -0.7372 H   0  0  0  0  0  0  0  0  0  0  0  0
    3.3126   -0.2841    0.2925 H   0  0  0  0  0  0  0  0  0  0  0  0
  1  2  1  0
  2  3  1  0
  3  4  2  0
  4  5  1  0
  5  6  2  0
  6  7  1  0
  7  8  1  0
  7  9  2  0
  9 10  1  0
  9  3  1  0
  1 11  1  0
  2 12  1  0
  2 13  1  0
  4 14  1  0
  5 15  1  0
  6 16  1  0
M  END
$$$$
