
     RDKit          3D

 42 42  0  0  0  0  0  0  0  0999 V2000
   -3.6328   -0.8674    0.5193 C   0  0  1  0  0  0  0  0  0  0  0  0
   -4.4250   -0.9449    1.6771 O   0  0  0  0  0  0  0  0  0  0  0  0
   -3.6881    0.5620   -0.0496 C   0  0  1  0  0  0  0  0  0  0  0  0
   -3.3641    1.4937    0.9533 O   0  0  0  0  0  0  0  0  0  0  0  0
   -2.6847    0.6747   -1.2199 C   0  0  1  0  0  0  0  0  0  0  0  0
   -2.6967    2.0717   -1.8558 C   0  0  0  0  0  0  0  0  0  0  0  0
   -2.1499    3.0202   -0.9809 O   0  0  0  0  0  0  0  0  0  0  0  0
   -1.3725    0.3726   -0.7761 O   0  0  0  0  0  0  0  0  0  0  0  0
   -1.2792   -0.9902   -0.3864 C   0  0  1  0  0  0  0  0  0  0  0  0
    0.0583   -1.2751   -0.0252 O   0  0  0  0  0  0  0  0  0  0  0  0
    0.8594   -1.4148   -1.1819 C   0  0  0  0  0  0  0  0  0  0  0  0
    2.3301   -1.5229   -0.7775 C   0  0  0  0  0  0  0  0  0  0  0  0
    2.8359   -0.2271   -0.1285 C   0  0  0  0  0  0  0  0  0  0  0  0
    4.3156   -0.3504    0.2632 C   0  0  0  0  0  0  0  0  0  0  0  0
    4.8942    0.9656    0.8055 C   0  0  0  0  0  0  0  0  0  0  0  0
    4.3469    1.3282    2.1858 C   0  0  0  0  0  0  0  0  0  0  0  0
   -2.1745   -1.2564    0.8391 C   0  0  2  0  0  0  0  0  0  0  0  0
   -2.1026   -2.6188    1.1738 O   0  0  0  0  0  0  0  0  0  0  0  0
   -4.0332   -1.5622   -0.2582 H   0  0  0  0  0  0  0  0  0  0  0  0
   -4.6833   -1.8970    1.7884 H   0  0  0  0  0  0  0  0  0  0  0  0
   -4.7157    0.7562   -0.4398 H   0  0  0  0  0  0  0  0  0  0  0  0
   -4.1994    1.6813    1.4559 H   0  0  0  0  0  0  0  0  0  0  0  0
   -2.9947   -0.0320   -2.0263 H   0  0  0  0  0  0  0  0  0  0  0  0
   -2.0932    2.0440   -2.7908 H   0  0  0  0  0  0  0  0  0  0  0  0
   -3.7396    2.3557   -2.1228 H   0  0  0  0  0  0  0  0  0  0  0  0
   -2.1978    3.8911   -1.4542 H   0  0  0  0  0  0  0  0  0  0  0  0
   -1.6126   -1.6674   -1.2137 H   0  0  0  0  0  0  0  0  0  0  0  0
    0.5813   -2.3468   -1.7235 H   0  0  0  0  0  0  0  0  0  0  0  0
    0.7412   -0.5488   -1.8739 H   0  0  0  0  0  0  0  0  0  0  0  0
    2.9329   -1.7401   -1.6864 H   0  0  0  0  0  0  0  0  0  0  0  0
    2.4523   -2.3718   -0.0692 H   0  0  0  0  0  0  0  0  0  0  0  0
    2.7118    0.6146   -0.8450 H   0  0  0  0  0  0  0  0  0  0  0  0
    2.2286   -0.0145    0.7769 H   0  0  0  0  0  0  0  0  0  0  0  0
    4.9029   -0.6374   -0.6366 H   0  0  0  0  0  0  0  0  0  0  0  0
    4.4415   -1.1567    1.0190 H   0  0  0  0  0  0  0  0  0  0  0  0
    5.9975    0.8561    0.8870 H   0  0  0  0  0  0  0  0  0  0  0  0
    4.6911    1.7953    0.0941 H   0  0  0  0  0  0  0  0  0  0  0  0
    4.8880    2.2163    2.5750 H   0  0  0  0  0  0  0  0  0  0  0  0
    4.4931    0.4868    2.8959 H   0  0  0  0  0  0  0  0  0  0  0  0
    3.2680    1.5808    2.1275 H   0  0  0  0  0  0  0  0  0  0  0  0
   -1.8015   -0.6321    1.6866 H   0  0  0  0  0  0  0  0  0  0  0  0
   -2.3294   -2.6921    2.1375 H   0  0  0  0  0  0  0  0  0  0  0  0
  1  2  1  0
  1  3  1  0
  3  4  1  0
  3  5  1  0
  5  6  1  0
  6  7  1  0
  5  8  1  0
  8  9  1  0
  9 10  1  0
 10 11  1  0
 11 12  1  0
 12 13  1  0
 13 14  1  0
 14 15  1  0
 15 16  1  0
  9 17  1  0
 17 18  1  0
 17  1  1  0
  1 19  1  6
  2 20  1  0
  3 21  1  6
  4 22  1  0
  5 23  1  6
  6 24  1  0
  6 25  1  0
  7 26  1  0
  9 27  1  6
 11 28  1  0
 11 29  1  0
 12 30  1  0
 12 31  1  0
 13 32  1  0
 13 33  1  0
 14 34  1  0
 14 35  1  0
 15 36  1  0
 15 37  1  0
 16 38  1  0
 16 39  1  0
 16 40  1  0
 17 41  1  1
 18 42  1  0
M  END
$$$$
