
     RDKit          3D

 29 31  0  0  0  0  0  0  0  0999 V2000
   -3.3539   -1.9138    1.1020 O   0  0  0  0  0  0  0  0  0  0  0  0
   -2.9065   -1.2450   -0.0462 C   0  0  0  0  0  0  0  0  0  0  0  0
   -2.3506    0.1356    0.3227 C   0  0  2  0  0  0  0  0  0  0  0  0
   -1.9538    0.9373   -0.9092 C   0  0  0  0  0  0  0  0  0  0  0  0
   -0.7689    1.7417   -0.4428 C   0  0  0  0  0  0  0  0  0  0  0  0
   -0.4488    1.1679    0.9358 C   0  0  1  0  0  0  0  0  0  0  0  0
   -1.2103    0.0003    1.1351 O   0  0  0  0  0  0  0  0  0  0  0  0
    0.9788    0.8655    1.0671 N   0  0  0  0  0  0  0  0  0  0  0  0
    1.8913    1.5488    1.8059 C   0  0  0  0  0  0  0  0  0  0  0  0
    3.1541    1.0498    1.7050 N   0  0  0  0  0  0  0  0  0  0  0  0
    2.9969    0.0155    0.8583 C   0  0  0  0  0  0  0  0  0  0  0  0
    1.7043   -0.0956    0.4733 C   0  0  0  0  0  0  0  0  0  0  0  0
    1.2857   -1.0471   -0.4003 N   0  0  0  0  0  0  0  0  0  0  0  0
    2.2141   -1.9241   -0.8911 C   0  0  0  0  0  0  0  0  0  0  0  0
    3.5285   -1.8311   -0.5092 N   0  0  0  0  0  0  0  0  0  0  0  0
    3.9458   -0.8680    0.3640 C   0  0  0  0  0  0  0  0  0  0  0  0
    5.1554   -0.7892    0.7034 O   0  0  0  0  0  0  0  0  0  0  0  0
   -2.5496   -2.2944    1.5424 H   0  0  0  0  0  0  0  0  0  0  0  0
   -3.7688   -1.1194   -0.7353 H   0  0  0  0  0  0  0  0  0  0  0  0
   -2.1344   -1.8516   -0.5732 H   0  0  0  0  0  0  0  0  0  0  0  0
   -3.1308    0.6952    0.8887 H   0  0  0  0  0  0  0  0  0  0  0  0
   -2.7860    1.5931   -1.2468 H   0  0  0  0  0  0  0  0  0  0  0  0
   -1.6461    0.2716   -1.7466 H   0  0  0  0  0  0  0  0  0  0  0  0
   -1.0326    2.8192   -0.3618 H   0  0  0  0  0  0  0  0  0  0  0  0
    0.0798    1.6310   -1.1538 H   0  0  0  0  0  0  0  0  0  0  0  0
   -0.7406    1.9082    1.7159 H   0  0  0  0  0  0  0  0  0  0  0  0
    1.6448    2.4097    2.4140 H   0  0  0  0  0  0  0  0  0  0  0  0
    0.2892   -1.1156   -0.6997 H   0  0  0  0  0  0  0  0  0  0  0  0
    1.9130   -2.6955   -1.5875 H   0  0  0  0  0  0  0  0  0  0  0  0
  1  2  1  0
  2  3  1  0
  3  4  1  0
  4  5  1  0
  5  6  1  0
  6  7  1  0
  6  8  1  0
  8  9  1  0
  9 10  2  0
 10 11  1  0
 11 12  2  0
 12 13  1  0
 13 14  1  0
 14 15  2  0
 15 16  1  0
 16 17  2  0
  7  3  1  0
 12  8  1  0
 16 11  1  0
  1 18  1  0
  2 19  1  0
  2 20  1  0
  3 21  1  1
  4 22  1  0
  4 23  1  0
  5 24  1  0
  5 25  1  0
  6 26  1  1
  9 27  1  0
 13 28  1  0
 14 29  1  0
M  END
$$$$
