
     RDKit          3D

 26 26  0  0  0  0  0  0  0  0999 V2000
   -1.3452    0.1216    1.2377 C   0  0  2  0  0  0  0  0  0  0  0  0
   -2.1374    1.4345    1.2421 C   0  0  0  0  0  0  0  0  0  0  0  0
    0.0225    0.3617    1.5630 O   0  0  0  0  0  0  0  0  0  0  0  0
    0.8325    0.5336    0.4140 C   0  0  1  0  0  0  0  0  0  0  0  0
    2.1089    0.9781    0.8443 O   0  0  0  0  0  0  0  0  0  0  0  0
    2.7426    1.7386   -0.1623 C   0  0  0  0  0  0  0  0  0  0  0  0
    0.9575   -0.8127   -0.3516 C   0  0  1  0  0  0  0  0  0  0  0  0
    2.0276   -1.5612    0.1686 O   0  0  0  0  0  0  0  0  0  0  0  0
   -0.3477   -1.6428   -0.2558 C   0  0  2  0  0  0  0  0  0  0  0  0
   -0.5249   -2.4166   -1.4144 O   0  0  0  0  0  0  0  0  0  0  0  0
   -1.5630   -0.7259   -0.0526 C   0  0  2  0  0  0  0  0  0  0  0  0
   -1.7365    0.1040   -1.1767 O   0  0  0  0  0  0  0  0  0  0  0  0
   -1.7544   -0.4842    2.0762 H   0  0  0  0  0  0  0  0  0  0  0  0
   -1.7615    2.1309    0.4639 H   0  0  0  0  0  0  0  0  0  0  0  0
   -2.0376    1.9285    2.2318 H   0  0  0  0  0  0  0  0  0  0  0  0
   -3.2137    1.2314    1.0567 H   0  0  0  0  0  0  0  0  0  0  0  0
    0.3532    1.2948   -0.2515 H   0  0  0  0  0  0  0  0  0  0  0  0
    2.8390    1.1648   -1.1099 H   0  0  0  0  0  0  0  0  0  0  0  0
    2.1994    2.6929   -0.3387 H   0  0  0  0  0  0  0  0  0  0  0  0
    3.7664    1.9939    0.1798 H   0  0  0  0  0  0  0  0  0  0  0  0
    1.1582   -0.5678   -1.4216 H   0  0  0  0  0  0  0  0  0  0  0  0
    2.2834   -2.2205   -0.5282 H   0  0  0  0  0  0  0  0  0  0  0  0
   -0.2921   -2.3171    0.6328 H   0  0  0  0  0  0  0  0  0  0  0  0
    0.1116   -3.1758   -1.3524 H   0  0  0  0  0  0  0  0  0  0  0  0
   -2.4752   -1.3533    0.0907 H   0  0  0  0  0  0  0  0  0  0  0  0
   -2.2139   -0.4316   -1.8628 H   0  0  0  0  0  0  0  0  0  0  0  0
  1  2  1  0
  1  3  1  0
  3  4  1  0
  4  5  1  0
  5  6  1  0
  4  7  1  0
  7  8  1  0
  7  9  1  0
  9 10  1  0
  9 11  1  0
 11 12  1  0
 11  1  1  0
  1 13  1  1
  2 14  1  0
  2 15  1  0
  2 16  1  0
  4 17  1  6
  6 18  1  0
  6 19  1  0
  6 20  1  0
  7 21  1  6
  8 22  1  0
  9 23  1  1
 10 24  1  0
 11 25  1  1
 12 26  1  0
M  END
$$$$
