
     RDKit          3D

 40 42  0  0  0  0  0  0  0  0999 V2000
   -2.4983    2.7270    1.3227 C   0  0  0  0  0  0  0  0  0  0  0  0
   -2.7589    2.0094   -0.0018 C   0  0  0  0  0  0  0  0  0  0  0  0
   -4.2103    1.4571   -0.0962 C   0  0  0  0  0  0  0  0  0  0  0  0
   -4.0063    0.0224   -0.4422 C   0  0  0  0  0  0  0  0  0  0  0  0
   -4.9754   -0.9288   -0.7657 C   0  0  0  0  0  0  0  0  0  0  0  0
   -4.5541   -2.2192   -1.1250 C   0  0  0  0  0  0  0  0  0  0  0  0
   -3.1813   -2.5296   -1.1692 C   0  0  0  0  0  0  0  0  0  0  0  0
   -2.2245   -1.5543   -0.8442 C   0  0  0  0  0  0  0  0  0  0  0  0
   -2.6726   -0.2856   -0.4602 C   0  0  0  0  0  0  0  0  0  0  0  0
   -1.8819    0.8444   -0.1302 N   0  0  0  0  0  0  0  0  0  0  0  0
   -0.5013    0.9468   -0.3703 N   0  0  0  0  0  0  0  0  0  0  0  0
    0.4377    0.1348    0.3513 C   0  0  0  0  0  0  0  0  0  0  0  0
    0.0134   -0.6925    1.2037 O   0  0  0  0  0  0  0  0  0  0  0  0
    1.8969    0.2432    0.1126 C   0  0  0  0  0  0  0  0  0  0  0  0
    2.7235   -0.8733    0.3280 C   0  0  0  0  0  0  0  0  0  0  0  0
    4.1090   -0.8007    0.1102 C   0  0  0  0  0  0  0  0  0  0  0  0
    4.6776    0.4194   -0.3101 C   0  0  0  0  0  0  0  0  0  0  0  0
    6.4071    0.6056   -0.5807 Cl  0  0  0  0  0  0  0  0  0  0  0  0
    3.8585    1.5344   -0.5116 C   0  0  0  0  0  0  0  0  0  0  0  0
    2.4811    1.4513   -0.3020 C   0  0  0  0  0  0  0  0  0  0  0  0
    5.1038   -2.2372    0.3934 S   0  0  0  0  0  6  0  0  0  0  0  0
    6.0022   -2.0499    1.8591 N   0  0  0  0  0  0  0  0  0  0  0  0
    6.0473   -2.4430   -0.7582 O   0  0  0  0  0  0  0  0  0  0  0  0
    4.2295   -3.4543    0.5121 O   0  0  0  0  0  0  0  0  0  0  0  0
   -3.1924    3.5872    1.4307 H   0  0  0  0  0  0  0  0  0  0  0  0
   -2.6441    2.0310    2.1766 H   0  0  0  0  0  0  0  0  0  0  0  0
   -1.4556    3.1087    1.3459 H   0  0  0  0  0  0  0  0  0  0  0  0
   -2.5707    2.7079   -0.8472 H   0  0  0  0  0  0  0  0  0  0  0  0
   -4.7601    1.5331    0.8672 H   0  0  0  0  0  0  0  0  0  0  0  0
   -4.7784    1.9717   -0.9007 H   0  0  0  0  0  0  0  0  0  0  0  0
   -6.0274   -0.6752   -0.7509 H   0  0  0  0  0  0  0  0  0  0  0  0
   -5.2864   -2.9736   -1.3816 H   0  0  0  0  0  0  0  0  0  0  0  0
   -2.8619   -3.5210   -1.4628 H   0  0  0  0  0  0  0  0  0  0  0  0
   -1.1707   -1.7877   -0.9032 H   0  0  0  0  0  0  0  0  0  0  0  0
   -0.1658    1.7083   -0.9990 H   0  0  0  0  0  0  0  0  0  0  0  0
    2.2833   -1.8062    0.6571 H   0  0  0  0  0  0  0  0  0  0  0  0
    4.2922    2.4762   -0.8238 H   0  0  0  0  0  0  0  0  0  0  0  0
    1.8871    2.3447   -0.4355 H   0  0  0  0  0  0  0  0  0  0  0  0
    5.3142   -1.8209    2.6111 H   0  0  0  0  0  0  0  0  0  0  0  0
    6.6137   -1.2114    1.7448 H   0  0  0  0  0  0  0  0  0  0  0  0
  1  2  1  0
  2  3  1  0
  3  4  1  0
  4  5  2  0
  5  6  1  0
  6  7  2  0
  7  8  1  0
  8  9  2  0
  9 10  1  0
 10 11  1  0
 11 12  1  0
 12 13  2  0
 12 14  1  0
 14 15  2  0
 15 16  1  0
 16 17  2  0
 17 18  1  0
 17 19  1  0
 19 20  2  0
 16 21  1  0
 21 22  1  0
 21 23  2  0
 21 24  2  0
 10  2  1  0
 20 14  1  0
  9  4  1  0
  1 25  1  0
  1 26  1  0
  1 27  1  0
  2 28  1  0
  3 29  1  0
  3 30  1  0
  5 31  1  0
  6 32  1  0
  7 33  1  0
  8 34  1  0
 11 35  1  0
 15 36  1  0
 19 37  1  0
 20 38  1  0
 22 39  1  0
 22 40  1  0
M  END
$$$$
