
     RDKit          3D

 69 72  0  0  0  0  0  0  0  0999 V2000
    0.2023   -0.1215   -1.0433 C   0  0  2  0  0  0  0  0  0  0  0  0
   -0.4187    0.2523   -2.3815 C   0  0  0  0  0  0  0  0  0  0  0  0
   -1.9337    0.2591   -2.1128 C   0  0  0  0  0  0  0  0  0  0  0  0
   -2.1396    0.0142   -0.5887 C   0  0  2  0  0  0  0  0  0  0  0  0
   -2.3365   -1.4050   -0.4298 O   0  0  0  0  0  0  0  0  0  0  0  0
   -2.8605   -2.0644    0.6941 C   0  0  0  0  0  0  0  0  0  0  0  0
   -3.1759   -1.4334    1.7388 O   0  0  0  0  0  0  0  0  0  0  0  0
   -3.0841   -3.5401    0.6285 C   0  0  0  0  0  0  0  0  0  0  0  0
   -4.4201   -3.8454   -0.0377 C   0  0  0  0  0  0  0  0  0  0  0  0
   -3.3750    0.7607   -0.0719 C   0  0  0  0  0  0  0  0  0  0  0  0
   -3.3441    1.3194    1.0145 O   0  0  0  0  0  0  0  0  0  0  0  0
   -4.7061    0.6420   -0.7733 C   0  0  0  0  0  0  0  0  0  0  0  0
   -5.4685    1.8388   -0.6238 O   0  0  0  0  0  0  0  0  0  0  0  0
   -5.1480    3.0420   -1.2619 C   0  0  0  0  0  0  0  0  0  0  0  0
   -6.0004    4.2433   -1.0331 C   0  0  0  0  0  0  0  0  0  0  0  0
   -4.1746    3.1117   -2.0596 O   0  0  0  0  0  0  0  0  0  0  0  0
   -0.7544    0.4740    0.0023 C   0  0  2  0  0  0  0  0  0  0  0  0
   -0.6901    2.0435    0.0527 C   0  0  0  0  0  0  0  0  0  0  0  0
   -0.3600   -0.1196    1.3809 C   0  0  0  0  0  0  0  0  0  0  0  0
    1.1259    0.1509    1.7443 C   0  0  2  0  0  0  0  0  0  0  0  0
    1.3101    1.5050    2.0601 O   0  0  0  0  0  0  0  0  0  0  0  0
    2.1097   -0.3123    0.6125 C   0  0  1  0  0  0  0  0  0  0  0  0
    1.6963    0.2127   -0.8045 C   0  0  1  0  0  0  0  0  0  0  0  0
    2.5636   -0.4626   -1.8849 C   0  0  0  0  0  0  0  0  0  0  0  0
    4.0466   -0.1911   -1.6579 C   0  0  0  0  0  0  0  0  0  0  0  0
    4.4652   -0.6129   -0.2705 C   0  0  0  0  0  0  0  0  0  0  0  0
    5.6491   -1.2349   -0.1166 C   0  0  0  0  0  0  0  0  0  0  0  0
    6.2044   -1.5353    1.2092 C   0  0  0  0  0  0  0  0  0  0  0  0
    7.2972   -2.1547    1.3020 O   0  0  0  0  0  0  0  0  0  0  0  0
    5.5194   -1.0489    2.4445 C   0  0  0  0  0  0  0  0  0  0  0  0
    4.0113   -0.9371    2.2077 C   0  0  0  0  0  0  0  0  0  0  0  0
    3.6484   -0.1116    0.9300 C   0  0  2  0  0  0  0  0  0  0  0  0
    4.0233    1.3763    1.1595 C   0  0  0  0  0  0  0  0  0  0  0  0
    0.1302   -1.2356   -0.9835 H   0  0  0  0  0  0  0  0  0  0  0  0
   -0.0749    1.2604   -2.7021 H   0  0  0  0  0  0  0  0  0  0  0  0
   -0.1574   -0.4910   -3.1662 H   0  0  0  0  0  0  0  0  0  0  0  0
   -2.4352   -0.5310   -2.7146 H   0  0  0  0  0  0  0  0  0  0  0  0
   -2.3480    1.2392   -2.4320 H   0  0  0  0  0  0  0  0  0  0  0  0
   -2.2639   -4.0096    0.0444 H   0  0  0  0  0  0  0  0  0  0  0  0
   -3.0725   -3.9718    1.6528 H   0  0  0  0  0  0  0  0  0  0  0  0
   -5.2529   -3.3957    0.5446 H   0  0  0  0  0  0  0  0  0  0  0  0
   -4.5703   -4.9446   -0.0832 H   0  0  0  0  0  0  0  0  0  0  0  0
   -4.4366   -3.4407   -1.0726 H   0  0  0  0  0  0  0  0  0  0  0  0
   -4.5924    0.3999   -1.8502 H   0  0  0  0  0  0  0  0  0  0  0  0
   -5.2695   -0.1912   -0.3039 H   0  0  0  0  0  0  0  0  0  0  0  0
   -5.3722    5.1589   -1.0167 H   0  0  0  0  0  0  0  0  0  0  0  0
   -6.5285    4.1539   -0.0607 H   0  0  0  0  0  0  0  0  0  0  0  0
   -6.7490    4.3263   -1.8482 H   0  0  0  0  0  0  0  0  0  0  0  0
   -1.2079    2.5138   -0.8078 H   0  0  0  0  0  0  0  0  0  0  0  0
   -1.1651    2.4296    0.9775 H   0  0  0  0  0  0  0  0  0  0  0  0
    0.3353    2.4486    0.0489 H   0  0  0  0  0  0  0  0  0  0  0  0
   -0.4878   -1.2215    1.3746 H   0  0  0  0  0  0  0  0  0  0  0  0
   -1.0230    0.2832    2.1765 H   0  0  0  0  0  0  0  0  0  0  0  0
    1.3379   -0.4590    2.6516 H   0  0  0  0  0  0  0  0  0  0  0  0
    0.8941    1.6560    2.9489 H   0  0  0  0  0  0  0  0  0  0  0  0
    1.9654   -1.4174    0.5604 H   0  0  0  0  0  0  0  0  0  0  0  0
    1.8633    1.3027   -0.8871 H   0  0  0  0  0  0  0  0  0  0  0  0
    2.2908   -0.0701   -2.8882 H   0  0  0  0  0  0  0  0  0  0  0  0
    2.3900   -1.5620   -1.8896 H   0  0  0  0  0  0  0  0  0  0  0  0
    4.2522    0.8936   -1.7854 H   0  0  0  0  0  0  0  0  0  0  0  0
    4.6213   -0.7344   -2.4404 H   0  0  0  0  0  0  0  0  0  0  0  0
    6.2313   -1.5214   -0.9847 H   0  0  0  0  0  0  0  0  0  0  0  0
    5.9391   -0.0618    2.7316 H   0  0  0  0  0  0  0  0  0  0  0  0
    5.7054   -1.7577    3.2805 H   0  0  0  0  0  0  0  0  0  0  0  0
    3.5588   -0.4797    3.1132 H   0  0  0  0  0  0  0  0  0  0  0  0
    3.6024   -1.9685    2.1193 H   0  0  0  0  0  0  0  0  0  0  0  0
    3.5612    2.0397    0.4019 H   0  0  0  0  0  0  0  0  0  0  0  0
    5.1233    1.5196    1.0919 H   0  0  0  0  0  0  0  0  0  0  0  0
    3.7226    1.7246    2.1686 H   0  0  0  0  0  0  0  0  0  0  0  0
  1  2  1  0
  2  3  1  0
  3  4  1  0
  4  5  1  6
  5  6  1  0
  6  7  2  0
  6  8  1  0
  8  9  1  0
  4 10  1  0
 10 11  2  0
 10 12  1  0
 12 13  1  0
 13 14  1  0
 14 15  1  0
 14 16  2  0
  4 17  1  0
 17 18  1  1
 17 19  1  0
 19 20  1  0
 20 21  1  0
 20 22  1  0
 22 23  1  0
 23 24  1  0
 24 25  1  0
 25 26  1  0
 26 27  2  0
 27 28  1  0
 28 29  2  0
 28 30  1  0
 30 31  1  0
 31 32  1  0
 32 33  1  1
 17  1  1  0
 32 22  1  0
 23  1  1  0
 32 26  1  0
  1 34  1  1
  2 35  1  0
  2 36  1  0
  3 37  1  0
  3 38  1  0
  8 39  1  0
  8 40  1  0
  9 41  1  0
  9 42  1  0
  9 43  1  0
 12 44  1  0
 12 45  1  0
 15 46  1  0
 15 47  1  0
 15 48  1  0
 18 49  1  0
 18 50  1  0
 18 51  1  0
 19 52  1  0
 19 53  1  0
 20 54  1  1
 21 55  1  0
 22 56  1  6
 23 57  1  1
 24 58  1  0
 24 59  1  0
 25 60  1  0
 25 61  1  0
 27 62  1  0
 30 63  1  0
 30 64  1  0
 31 65  1  0
 31 66  1  0
 33 67  1  0
 33 68  1  0
 33 69  1  0
M  END
$$$$
