
     RDKit          3D

 30 30  0  0  0  0  0  0  0  0999 V2000
   -3.1475    1.2492    0.2723 C   0  0  0  0  0  0  0  0  0  0  0  0
   -1.8647    0.3971    0.2709 C   0  0  1  0  0  0  0  0  0  0  0  0
   -0.7001    1.2888   -0.2769 C   0  0  0  0  0  0  0  0  0  0  0  0
    0.6716    0.6521   -0.2406 C   0  0  0  0  0  0  0  0  0  0  0  0
    1.0961   -0.2015   -1.2726 C   0  0  0  0  0  0  0  0  0  0  0  0
    2.3665   -0.7939   -1.2292 C   0  0  0  0  0  0  0  0  0  0  0  0
    2.7829   -1.6452   -2.2511 O   0  0  0  0  0  0  0  0  0  0  0  0
    3.2247   -0.5285   -0.1549 C   0  0  0  0  0  0  0  0  0  0  0  0
    4.4851   -1.1217   -0.1136 O   0  0  0  0  0  0  0  0  0  0  0  0
    2.8121    0.3330    0.8696 C   0  0  0  0  0  0  0  0  0  0  0  0
    1.5467    0.9234    0.8252 C   0  0  0  0  0  0  0  0  0  0  0  0
   -1.6230   -0.0296    1.6706 N   0  0  0  0  0  0  0  0  0  0  0  0
   -0.6187   -1.0190    1.7324 N   0  0  0  0  0  0  0  0  0  0  0  0
   -2.1426   -0.7884   -0.6410 C   0  0  0  0  0  0  0  0  0  0  0  0
   -2.0755   -0.6351   -2.0235 O   0  0  0  0  0  0  0  0  0  0  0  0
   -2.5530   -1.8815   -0.1650 O   0  0  0  0  0  0  0  0  0  0  0  0
   -4.0078    0.6565    0.6533 H   0  0  0  0  0  0  0  0  0  0  0  0
   -3.0280    2.1377    0.9295 H   0  0  0  0  0  0  0  0  0  0  0  0
   -3.3918    1.6045   -0.7529 H   0  0  0  0  0  0  0  0  0  0  0  0
   -0.6651    2.2376    0.3039 H   0  0  0  0  0  0  0  0  0  0  0  0
   -0.9215    1.5972   -1.3227 H   0  0  0  0  0  0  0  0  0  0  0  0
    0.4505   -0.3997   -2.1165 H   0  0  0  0  0  0  0  0  0  0  0  0
    2.1850   -1.8572   -3.0414 H   0  0  0  0  0  0  0  0  0  0  0  0
    5.1278   -0.9480    0.6504 H   0  0  0  0  0  0  0  0  0  0  0  0
    3.4712    0.5450    1.7018 H   0  0  0  0  0  0  0  0  0  0  0  0
    1.2441    1.5831    1.6290 H   0  0  0  0  0  0  0  0  0  0  0  0
   -1.3180    0.8034    2.2310 H   0  0  0  0  0  0  0  0  0  0  0  0
   -0.0118   -0.8313    2.5649 H   0  0  0  0  0  0  0  0  0  0  0  0
   -1.0966   -1.9241    1.9411 H   0  0  0  0  0  0  0  0  0  0  0  0
   -2.2987   -1.4041   -2.6439 H   0  0  0  0  0  0  0  0  0  0  0  0
  1  2  1  0
  2  3  1  0
  3  4  1  0
  4  5  2  0
  5  6  1  0
  6  7  1  0
  6  8  2  0
  8  9  1  0
  8 10  1  0
 10 11  2  0
  2 12  1  1
 12 13  1  0
  2 14  1  0
 14 15  1  0
 14 16  2  0
 11  4  1  0
  1 17  1  0
  1 18  1  0
  1 19  1  0
  3 20  1  0
  3 21  1  0
  5 22  1  0
  7 23  1  0
  9 24  1  0
 10 25  1  0
 11 26  1  0
 12 27  1  0
 13 28  1  0
 13 29  1  0
 15 30  1  0
M  END
$$$$
