
     RDKit          3D

 27 28  0  0  0  0  0  0  0  0999 V2000
    1.7336   -1.3690    0.1336 N   0  0  0  0  0  0  0  0  0  0  0  0
    2.1903    0.0086   -0.0695 C   0  0  2  0  0  0  0  0  0  0  0  0
    1.1256    0.8295   -0.8165 C   0  0  0  0  0  0  0  0  0  0  0  0
   -0.1395    0.9390   -0.0149 C   0  0  0  0  0  0  0  0  0  0  0  0
   -0.3936    1.8509    1.0053 C   0  0  0  0  0  0  0  0  0  0  0  0
   -1.6063    1.6171    1.5566 N   0  0  0  0  0  0  0  0  0  0  0  0
   -2.1148    0.5591    0.9014 C   0  0  0  0  0  0  0  0  0  0  0  0
   -3.3413   -0.0642    1.1275 C   0  0  0  0  0  0  0  0  0  0  0  0
   -3.6703   -1.1765    0.3314 C   0  0  0  0  0  0  0  0  0  0  0  0
   -2.7753   -1.6373   -0.6595 C   0  0  0  0  0  0  0  0  0  0  0  0
   -1.5434   -0.9896   -0.8646 C   0  0  0  0  0  0  0  0  0  0  0  0
   -1.2464    0.1131   -0.0624 C   0  0  0  0  0  0  0  0  0  0  0  0
    3.4962    0.0327   -0.8189 C   0  0  0  0  0  0  0  0  0  0  0  0
    4.6223    0.5959   -0.2267 O   0  0  0  0  0  0  0  0  0  0  0  0
    3.5746   -0.4522   -1.9802 O   0  0  0  0  0  0  0  0  0  0  0  0
    2.4584   -1.8845    0.6846 H   0  0  0  0  0  0  0  0  0  0  0  0
    1.6430   -1.8489   -0.7919 H   0  0  0  0  0  0  0  0  0  0  0  0
    2.3539    0.4755    0.9278 H   0  0  0  0  0  0  0  0  0  0  0  0
    1.5134    1.8548   -1.0045 H   0  0  0  0  0  0  0  0  0  0  0  0
    0.9062    0.3704   -1.8047 H   0  0  0  0  0  0  0  0  0  0  0  0
    0.2779    2.6341    1.3327 H   0  0  0  0  0  0  0  0  0  0  0  0
   -2.0482    2.1453    2.3416 H   0  0  0  0  0  0  0  0  0  0  0  0
   -4.0185    0.2932    1.8924 H   0  0  0  0  0  0  0  0  0  0  0  0
   -4.6146   -1.6836    0.4809 H   0  0  0  0  0  0  0  0  0  0  0  0
   -3.0382   -2.4952   -1.2645 H   0  0  0  0  0  0  0  0  0  0  0  0
   -0.8538   -1.3403   -1.6208 H   0  0  0  0  0  0  0  0  0  0  0  0
    5.5087    0.6219   -0.7163 H   0  0  0  0  0  0  0  0  0  0  0  0
  1  2  1  0
  2  3  1  0
  3  4  1  0
  4  5  2  0
  5  6  1  0
  6  7  1  0
  7  8  2  0
  8  9  1  0
  9 10  2  0
 10 11  1  0
 11 12  2  0
  2 13  1  0
 13 14  1  0
 13 15  2  0
 12  4  1  0
 12  7  1  0
  1 16  1  0
  1 17  1  0
  2 18  1  1
  3 19  1  0
  3 20  1  0
  5 21  1  0
  6 22  1  0
  8 23  1  0
  9 24  1  0
 10 25  1  0
 11 26  1  0
 14 27  1  0
M  END
$$$$
