
     RDKit          3D

 44 46  0  0  0  0  0  0  0  0999 V2000
   -5.9211   -2.3936    2.3022 O   0  0  0  0  0  0  0  0  0  0  0  0
   -4.9376   -2.0158    1.3931 C   0  0  0  0  0  0  0  0  0  0  0  0
   -3.9212   -2.7450    1.2432 O   0  0  0  0  0  0  0  0  0  0  0  0
   -5.1358   -0.8025    0.5721 C   0  0  0  0  0  0  0  0  0  0  0  0
   -4.1993   -0.1224   -0.0924 C   0  0  0  0  0  0  0  0  0  0  0  0
   -4.7926    0.9563   -0.9304 C   0  0  0  0  0  0  0  0  0  0  0  0
   -6.2676    0.9887   -0.5338 C   0  0  0  0  0  0  0  0  0  0  0  0
   -6.4969   -0.2503    0.3305 C   0  0  0  0  0  0  0  0  0  0  0  0
   -2.7346   -0.3126    0.0040 C   0  0  0  0  0  0  0  0  0  0  0  0
   -2.2194   -0.7200    1.0805 O   0  0  0  0  0  0  0  0  0  0  0  0
   -1.8961    0.0015   -1.1188 N   0  0  0  0  0  0  0  0  0  0  0  0
   -0.4641    0.0802   -1.0343 C   0  0  0  0  0  0  0  0  0  0  0  0
    0.1654    0.8005   -0.0029 C   0  0  0  0  0  0  0  0  0  0  0  0
   -0.5674    1.4713    0.9213 F   0  0  0  0  0  0  0  0  0  0  0  0
    1.5603    0.8773    0.0523 C   0  0  0  0  0  0  0  0  0  0  0  0
    2.3515    0.2507   -0.9262 C   0  0  0  0  0  0  0  0  0  0  0  0
    1.7168   -0.4462   -1.9689 C   0  0  0  0  0  0  0  0  0  0  0  0
    0.3224   -0.5242   -2.0266 C   0  0  0  0  0  0  0  0  0  0  0  0
   -0.2636   -1.2114   -3.0393 F   0  0  0  0  0  0  0  0  0  0  0  0
    3.8335    0.3330   -0.8644 C   0  0  0  0  0  0  0  0  0  0  0  0
    4.5855    0.5400   -2.0341 C   0  0  0  0  0  0  0  0  0  0  0  0
    5.9779    0.6192   -1.9740 C   0  0  0  0  0  0  0  0  0  0  0  0
    6.6359    0.4928   -0.7497 C   0  0  0  0  0  0  0  0  0  0  0  0
    5.9113    0.2853    0.4288 C   0  0  0  0  0  0  0  0  0  0  0  0
    6.6265    0.1635    1.6315 O   0  0  0  0  0  0  0  0  0  0  0  0
    6.0483   -0.0470    2.9179 C   0  0  0  0  0  0  0  0  0  0  0  0
    5.3498   -1.2410    2.9373 F   0  0  0  0  0  0  0  0  0  0  0  0
    7.0581   -0.1071    3.8586 F   0  0  0  0  0  0  0  0  0  0  0  0
    5.2026    1.0000    3.2382 F   0  0  0  0  0  0  0  0  0  0  0  0
    4.5055    0.2056    0.3663 C   0  0  0  0  0  0  0  0  0  0  0  0
   -5.8188   -3.2326    2.8606 H   0  0  0  0  0  0  0  0  0  0  0  0
   -4.6877    0.6998   -2.0066 H   0  0  0  0  0  0  0  0  0  0  0  0
   -4.3023    1.9317   -0.7209 H   0  0  0  0  0  0  0  0  0  0  0  0
   -6.4814    1.9072    0.0561 H   0  0  0  0  0  0  0  0  0  0  0  0
   -6.9221    0.9745   -1.4325 H   0  0  0  0  0  0  0  0  0  0  0  0
   -7.1144   -0.9975   -0.2137 H   0  0  0  0  0  0  0  0  0  0  0  0
   -6.9859    0.0206    1.2913 H   0  0  0  0  0  0  0  0  0  0  0  0
   -2.3346    0.0386   -2.0664 H   0  0  0  0  0  0  0  0  0  0  0  0
    2.0213    1.4515    0.8463 H   0  0  0  0  0  0  0  0  0  0  0  0
    2.3007   -0.9465   -2.7315 H   0  0  0  0  0  0  0  0  0  0  0  0
    4.0959    0.6585   -2.9925 H   0  0  0  0  0  0  0  0  0  0  0  0
    6.5488    0.7832   -2.8789 H   0  0  0  0  0  0  0  0  0  0  0  0
    7.7162    0.5567   -0.7153 H   0  0  0  0  0  0  0  0  0  0  0  0
    3.9303    0.0276    1.2637 H   0  0  0  0  0  0  0  0  0  0  0  0
  1  2  1  0
  2  3  2  0
  2  4  1  0
  4  5  2  0
  5  6  1  0
  6  7  1  0
  7  8  1  0
  5  9  1  0
  9 10  2  0
  9 11  1  0
 11 12  1  0
 12 13  2  0
 13 14  1  0
 13 15  1  0
 15 16  2  0
 16 17  1  0
 17 18  2  0
 18 19  1  0
 16 20  1  0
 20 21  2  0
 21 22  1  0
 22 23  2  0
 23 24  1  0
 24 25  1  0
 25 26  1  0
 26 27  1  0
 26 28  1  0
 26 29  1  0
 24 30  2  0
  8  4  1  0
 18 12  1  0
 30 20  1  0
  1 31  1  0
  6 32  1  0
  6 33  1  0
  7 34  1  0
  7 35  1  0
  8 36  1  0
  8 37  1  0
 11 38  1  0
 15 39  1  0
 17 40  1  0
 21 41  1  0
 22 42  1  0
 23 43  1  0
 30 44  1  0
M  END
$$$$
