
     RDKit          3D

 49 52  0  0  0  0  0  0  0  0999 V2000
   -5.7992    2.8876    2.1245 C   0  0  0  0  0  0  0  0  0  0  0  0
   -5.9162    1.6952    1.3548 O   0  0  0  0  0  0  0  0  0  0  0  0
   -4.8441    1.0454    0.7210 C   0  0  0  0  0  0  0  0  0  0  0  0
   -3.5296    1.5369    0.7988 C   0  0  0  0  0  0  0  0  0  0  0  0
   -2.4776    0.8641    0.1732 C   0  0  0  0  0  0  0  0  0  0  0  0
   -1.1473    1.4035    0.2572 N   0  0  0  0  0  0  0  0  0  0  0  0
    0.0408    0.6046    0.3515 C   0  0  0  0  0  0  0  0  0  0  0  0
    1.2577    1.1941    0.2072 N   0  0  0  0  0  0  0  0  0  0  0  0
    2.4114    0.4832    0.3224 C   0  0  0  0  0  0  0  0  0  0  0  0
    3.6671    1.1552    0.1346 N   0  0  0  0  0  0  0  0  0  0  0  0
    4.9381    0.5914    0.4870 C   0  0  0  0  0  0  0  0  0  0  0  0
    5.2507    0.1913    1.8113 C   0  0  0  0  0  0  0  0  0  0  0  0
    4.1084    0.4149    3.1298 Cl  0  0  0  0  0  0  0  0  0  0  0  0
    6.5252   -0.3482    2.1031 C   0  0  0  0  0  0  0  0  0  0  0  0
    7.4948   -0.4779    1.0930 C   0  0  0  0  0  0  0  0  0  0  0  0
    7.1594   -0.0512   -0.1876 C   0  0  0  0  0  0  0  0  0  0  0  0
    5.9382    0.4655   -0.4773 C   0  0  0  0  0  0  0  0  0  0  0  0
    5.8892    0.8010   -1.8173 O   0  0  0  0  0  0  0  0  0  0  0  0
    7.1569    0.4760   -2.4039 C   0  0  0  0  0  0  0  0  0  0  0  0
    7.9372   -0.0656   -1.3293 O   0  0  0  0  0  0  0  0  0  0  0  0
    2.3424   -0.8941    0.5820 C   0  0  0  0  0  0  0  0  0  0  0  0
    1.0888   -1.4808    0.7422 C   0  0  0  0  0  0  0  0  0  0  0  0
   -0.0329   -0.7252    0.6309 N   0  0  0  0  0  0  0  0  0  0  0  0
   -2.7491   -0.2886   -0.5758 C   0  0  0  0  0  0  0  0  0  0  0  0
   -4.0575   -0.8024   -0.6680 C   0  0  0  0  0  0  0  0  0  0  0  0
   -4.3225   -1.9657   -1.4082 O   0  0  0  0  0  0  0  0  0  0  0  0
   -3.3448   -2.7346   -2.1022 C   0  0  0  0  0  0  0  0  0  0  0  0
   -5.1148   -0.1263   -0.0053 C   0  0  0  0  0  0  0  0  0  0  0  0
   -6.4551   -0.5585   -0.0291 O   0  0  0  0  0  0  0  0  0  0  0  0
   -6.9635   -1.7136   -0.6871 C   0  0  0  0  0  0  0  0  0  0  0  0
   -5.1266    2.7181    2.9917 H   0  0  0  0  0  0  0  0  0  0  0  0
   -6.8016    3.1737    2.5037 H   0  0  0  0  0  0  0  0  0  0  0  0
   -5.4097    3.7135    1.4925 H   0  0  0  0  0  0  0  0  0  0  0  0
   -3.3112    2.4380    1.3559 H   0  0  0  0  0  0  0  0  0  0  0  0
   -1.0395    2.4400    0.3397 H   0  0  0  0  0  0  0  0  0  0  0  0
    3.6634    2.0591   -0.3896 H   0  0  0  0  0  0  0  0  0  0  0  0
    6.7662   -0.6529    3.1135 H   0  0  0  0  0  0  0  0  0  0  0  0
    8.4739   -0.8859    1.3064 H   0  0  0  0  0  0  0  0  0  0  0  0
    7.6399    1.3919   -2.8043 H   0  0  0  0  0  0  0  0  0  0  0  0
    7.0258   -0.2837   -3.2028 H   0  0  0  0  0  0  0  0  0  0  0  0
    3.2333   -1.5039    0.6546 H   0  0  0  0  0  0  0  0  0  0  0  0
    1.0065   -2.5387    0.9529 H   0  0  0  0  0  0  0  0  0  0  0  0
   -1.9399   -0.7680   -1.1069 H   0  0  0  0  0  0  0  0  0  0  0  0
   -3.8416   -3.6024   -2.5822 H   0  0  0  0  0  0  0  0  0  0  0  0
   -2.8652   -2.1195   -2.8926 H   0  0  0  0  0  0  0  0  0  0  0  0
   -2.5799   -3.1124   -1.3912 H   0  0  0  0  0  0  0  0  0  0  0  0
   -6.4902   -2.6302   -0.2766 H   0  0  0  0  0  0  0  0  0  0  0  0
   -8.0558   -1.7775   -0.5052 H   0  0  0  0  0  0  0  0  0  0  0  0
   -6.7996   -1.6360   -1.7825 H   0  0  0  0  0  0  0  0  0  0  0  0
  1  2  1  0
  2  3  1  0
  3  4  2  0
  4  5  1  0
  5  6  1  0
  6  7  1  0
  7  8  2  0
  8  9  1  0
  9 10  1  0
 10 11  1  0
 11 12  2  0
 12 13  1  0
 12 14  1  0
 14 15  2  0
 15 16  1  0
 16 17  2  0
 17 18  1  0
 18 19  1  0
 19 20  1  0
  9 21  2  0
 21 22  1  0
 22 23  2  0
  5 24  2  0
 24 25  1  0
 25 26  1  0
 26 27  1  0
 25 28  2  0
 28 29  1  0
 29 30  1  0
 28  3  1  0
 23  7  1  0
 17 11  1  0
 20 16  1  0
  1 31  1  0
  1 32  1  0
  1 33  1  0
  4 34  1  0
  6 35  1  0
 10 36  1  0
 14 37  1  0
 15 38  1  0
 19 39  1  0
 19 40  1  0
 21 41  1  0
 22 42  1  0
 24 43  1  0
 27 44  1  0
 27 45  1  0
 27 46  1  0
 30 47  1  0
 30 48  1  0
 30 49  1  0
M  END
$$$$
