
     RDKit          3D

 51 53  0  0  0  0  0  0  0  0999 V2000
    7.5198   -1.5567   -1.1139 C   0  0  0  0  0  0  0  0  0  0  0  0
    6.2988   -1.3842   -0.4288 O   0  0  0  0  0  0  0  0  0  0  0  0
    5.9017   -0.0247   -0.4557 C   0  0  0  0  0  0  0  0  0  0  0  0
    4.8986    0.2296   -1.5908 C   0  0  0  0  0  0  0  0  0  0  0  0
    3.6045   -0.6052   -1.4627 C   0  0  0  0  0  0  0  0  0  0  0  0
    2.4704    0.2100   -0.9695 N   0  0  0  0  0  0  0  0  0  0  0  0
    2.6496    0.5909    0.4564 C   0  0  0  0  0  0  0  0  0  0  0  0
    1.3180    0.9478    1.1253 C   0  0  0  0  0  0  0  0  0  0  0  0
    0.3827   -0.2836    1.1640 C   0  0  0  0  0  0  0  0  0  0  0  0
    0.6073   -1.2126   -0.0541 C   0  0  0  0  0  0  0  0  0  0  0  0
    1.1603   -0.4362   -1.2576 C   0  0  0  0  0  0  0  0  0  0  0  0
   -1.0223    0.1374    1.2375 N   0  0  0  0  0  0  0  0  0  0  0  0
   -2.0721   -0.7714    1.6064 C   0  0  0  0  0  0  0  0  0  0  0  0
   -1.7830   -1.8840    2.1261 O   0  0  0  0  0  0  0  0  0  0  0  0
   -3.4930   -0.4127    1.4042 C   0  0  0  0  0  0  0  0  0  0  0  0
   -3.9036    0.4210    0.3558 C   0  0  0  0  0  0  0  0  0  0  0  0
   -3.1028    0.9870   -0.6144 O   0  0  0  0  0  0  0  0  0  0  0  0
   -3.8840    1.7613   -1.5204 C   0  0  0  0  0  0  0  0  0  0  0  0
   -5.3441    1.6313   -1.0308 C   0  0  0  0  0  0  0  0  0  0  0  0
   -5.2171    0.7508    0.1648 C   0  0  0  0  0  0  0  0  0  0  0  0
   -6.2266    0.2594    1.0038 C   0  0  0  0  0  0  0  0  0  0  0  0
   -7.5969    0.6163    0.7794 N   0  0  0  0  0  0  0  0  0  0  0  0
   -5.8477   -0.5981    2.0634 C   0  0  0  0  0  0  0  0  0  0  0  0
   -7.0355   -1.2749    3.1706 Cl  0  0  0  0  0  0  0  0  0  0  0  0
   -4.4915   -0.9318    2.2529 C   0  0  0  0  0  0  0  0  0  0  0  0
    7.4564   -1.1903   -2.1622 H   0  0  0  0  0  0  0  0  0  0  0  0
    8.3495   -1.0487   -0.5747 H   0  0  0  0  0  0  0  0  0  0  0  0
    7.7551   -2.6401   -1.1502 H   0  0  0  0  0  0  0  0  0  0  0  0
    6.7571    0.6861   -0.5525 H   0  0  0  0  0  0  0  0  0  0  0  0
    5.4284    0.2145    0.5172 H   0  0  0  0  0  0  0  0  0  0  0  0
    5.3952   -0.0125   -2.5555 H   0  0  0  0  0  0  0  0  0  0  0  0
    4.6542    1.3135   -1.6285 H   0  0  0  0  0  0  0  0  0  0  0  0
    3.3774   -0.9792   -2.4859 H   0  0  0  0  0  0  0  0  0  0  0  0
    3.7497   -1.5071   -0.8269 H   0  0  0  0  0  0  0  0  0  0  0  0
    3.3149    1.4786    0.5128 H   0  0  0  0  0  0  0  0  0  0  0  0
    3.1206   -0.2329    1.0397 H   0  0  0  0  0  0  0  0  0  0  0  0
    1.5022    1.3093    2.1604 H   0  0  0  0  0  0  0  0  0  0  0  0
    0.8567    1.7820    0.5519 H   0  0  0  0  0  0  0  0  0  0  0  0
    0.6283   -0.8582    2.0853 H   0  0  0  0  0  0  0  0  0  0  0  0
    1.3358   -2.0078    0.2173 H   0  0  0  0  0  0  0  0  0  0  0  0
   -0.3359   -1.7223   -0.3469 H   0  0  0  0  0  0  0  0  0  0  0  0
    0.4308    0.3550   -1.5361 H   0  0  0  0  0  0  0  0  0  0  0  0
    1.2108   -1.1189   -2.1342 H   0  0  0  0  0  0  0  0  0  0  0  0
   -1.2681    1.1422    1.0912 H   0  0  0  0  0  0  0  0  0  0  0  0
   -3.7741    1.3578   -2.5496 H   0  0  0  0  0  0  0  0  0  0  0  0
   -3.5504    2.8205   -1.4918 H   0  0  0  0  0  0  0  0  0  0  0  0
   -5.7577    2.6212   -0.7414 H   0  0  0  0  0  0  0  0  0  0  0  0
   -5.9809    1.1481   -1.8027 H   0  0  0  0  0  0  0  0  0  0  0  0
   -8.3643    0.2588    1.3889 H   0  0  0  0  0  0  0  0  0  0  0  0
   -7.8646    1.2507   -0.0053 H   0  0  0  0  0  0  0  0  0  0  0  0
   -4.2189   -1.5869    3.0715 H   0  0  0  0  0  0  0  0  0  0  0  0
  1  2  1  0
  2  3  1  0
  3  4  1  0
  4  5  1  0
  5  6  1  0
  6  7  1  0
  7  8  1  0
  8  9  1  0
  9 10  1  0
 10 11  1  0
  9 12  1  0
 12 13  1  0
 13 14  2  0
 13 15  1  0
 15 16  2  0
 16 17  1  0
 17 18  1  0
 18 19  1  0
 19 20  1  0
 20 21  2  0
 21 22  1  0
 21 23  1  0
 23 24  1  0
 23 25  2  0
 11  6  1  0
 25 15  1  0
 20 16  1  0
  1 26  1  0
  1 27  1  0
  1 28  1  0
  3 29  1  0
  3 30  1  0
  4 31  1  0
  4 32  1  0
  5 33  1  0
  5 34  1  0
  7 35  1  0
  7 36  1  0
  8 37  1  0
  8 38  1  0
  9 39  1  0
 10 40  1  0
 10 41  1  0
 11 42  1  0
 11 43  1  0
 12 44  1  0
 18 45  1  0
 18 46  1  0
 19 47  1  0
 19 48  1  0
 22 49  1  0
 22 50  1  0
 25 51  1  0
M  END
$$$$
