
     RDKit          3D

 43 44  0  0  0  0  0  0  0  0999 V2000
   -4.0777   -2.3394    1.3490 C   0  0  0  0  0  0  0  0  0  0  0  0
   -3.3485   -1.0294    1.0645 C   0  0  0  0  0  0  0  0  0  0  0  0
   -2.2358   -1.2221    0.0321 C   0  0  0  0  0  0  0  0  0  0  0  0
   -1.5569    0.0746   -0.2021 N   0  0  0  0  0  0  0  0  0  0  0  0
   -1.6159    0.5319   -1.6079 C   0  0  0  0  0  0  0  0  0  0  0  0
   -2.9983    1.1056   -1.9474 C   0  0  0  0  0  0  0  0  0  0  0  0
   -3.3187    2.3494   -1.1203 C   0  0  0  0  0  0  0  0  0  0  0  0
   -0.1921    0.1282    0.3685 C   0  0  0  0  0  0  0  0  0  0  0  0
    0.8445   -0.6937   -0.4263 C   0  0  0  0  0  0  0  0  0  0  0  0
    2.1758   -0.6771    0.2771 C   0  0  0  0  0  0  0  0  0  0  0  0
    3.1266    0.3268    0.0304 C   0  0  0  0  0  0  0  0  0  0  0  0
    3.0526    1.4768   -0.9295 C   0  0  0  0  0  0  0  0  0  0  0  0
    4.3780    2.1240   -0.6640 C   0  0  0  0  0  0  0  0  0  0  0  0
    4.7869    3.1623   -1.2466 O   0  0  0  0  0  0  0  0  0  0  0  0
    5.1402    1.4421    0.3244 N   0  0  0  0  0  0  0  0  0  0  0  0
    4.3266    0.3523    0.7149 C   0  0  0  0  0  0  0  0  0  0  0  0
    4.6420   -0.6040    1.6776 C   0  0  0  0  0  0  0  0  0  0  0  0
    3.7033   -1.6103    1.9486 C   0  0  0  0  0  0  0  0  0  0  0  0
    2.4764   -1.6452    1.2586 C   0  0  0  0  0  0  0  0  0  0  0  0
   -4.8767   -2.1642    2.0998 H   0  0  0  0  0  0  0  0  0  0  0  0
   -3.3706   -3.0952    1.7527 H   0  0  0  0  0  0  0  0  0  0  0  0
   -4.5434   -2.7314    0.4197 H   0  0  0  0  0  0  0  0  0  0  0  0
   -4.0812   -0.2834    0.6887 H   0  0  0  0  0  0  0  0  0  0  0  0
   -2.9118   -0.6445    2.0116 H   0  0  0  0  0  0  0  0  0  0  0  0
   -1.5343   -1.9964    0.4136 H   0  0  0  0  0  0  0  0  0  0  0  0
   -2.6800   -1.6315   -0.9029 H   0  0  0  0  0  0  0  0  0  0  0  0
   -0.8635    1.3320   -1.7924 H   0  0  0  0  0  0  0  0  0  0  0  0
   -1.3807   -0.3043   -2.3038 H   0  0  0  0  0  0  0  0  0  0  0  0
   -3.0157    1.3807   -3.0241 H   0  0  0  0  0  0  0  0  0  0  0  0
   -3.7860    0.3400   -1.7845 H   0  0  0  0  0  0  0  0  0  0  0  0
   -2.5543    3.1363   -1.2946 H   0  0  0  0  0  0  0  0  0  0  0  0
   -4.3115    2.7471   -1.4184 H   0  0  0  0  0  0  0  0  0  0  0  0
   -3.3488    2.1021   -0.0382 H   0  0  0  0  0  0  0  0  0  0  0  0
   -0.2208   -0.2270    1.4231 H   0  0  0  0  0  0  0  0  0  0  0  0
    0.1375    1.1892    0.4099 H   0  0  0  0  0  0  0  0  0  0  0  0
    0.5060   -1.7441   -0.5446 H   0  0  0  0  0  0  0  0  0  0  0  0
    0.9630   -0.2804   -1.4495 H   0  0  0  0  0  0  0  0  0  0  0  0
    2.9915    1.1192   -1.9789 H   0  0  0  0  0  0  0  0  0  0  0  0
    2.2182    2.1622   -0.6718 H   0  0  0  0  0  0  0  0  0  0  0  0
    6.0865    1.6949    0.6862 H   0  0  0  0  0  0  0  0  0  0  0  0
    5.5851   -0.5690    2.2073 H   0  0  0  0  0  0  0  0  0  0  0  0
    3.9214   -2.3614    2.6967 H   0  0  0  0  0  0  0  0  0  0  0  0
    1.7610   -2.4239    1.4923 H   0  0  0  0  0  0  0  0  0  0  0  0
  1  2  1  0
  2  3  1  0
  3  4  1  0
  4  5  1  0
  5  6  1  0
  6  7  1  0
  4  8  1  0
  8  9  1  0
  9 10  1  0
 10 11  2  0
 11 12  1  0
 12 13  1  0
 13 14  2  0
 13 15  1  0
 15 16  1  0
 16 17  2  0
 17 18  1  0
 18 19  2  0
 19 10  1  0
 16 11  1  0
  1 20  1  0
  1 21  1  0
  1 22  1  0
  2 23  1  0
  2 24  1  0
  3 25  1  0
  3 26  1  0
  5 27  1  0
  5 28  1  0
  6 29  1  0
  6 30  1  0
  7 31  1  0
  7 32  1  0
  7 33  1  0
  8 34  1  0
  8 35  1  0
  9 36  1  0
  9 37  1  0
 12 38  1  0
 12 39  1  0
 15 40  1  0
 17 41  1  0
 18 42  1  0
 19 43  1  0
M  END
$$$$
