
     RDKit          3D

 53 56  0  0  0  0  0  0  0  0999 V2000
    6.6978    3.2260    0.8833 F   0  0  0  0  0  0  0  0  0  0  0  0
    5.9810    2.2519    0.2657 C   0  0  0  0  0  0  0  0  0  0  0  0
    5.2923    1.2597    1.0018 C   0  0  0  0  0  0  0  0  0  0  0  0
    5.3067    1.2445    2.4049 C   0  0  0  0  0  0  0  0  0  0  0  0
    5.9418    2.1161    3.0596 O   0  0  0  0  0  0  0  0  0  0  0  0
    4.6271    0.2855    3.0752 N   0  0  0  0  0  0  0  0  0  0  0  0
    3.9320   -0.6834    2.4281 C   0  0  0  0  0  0  0  0  0  0  0  0
    3.3200   -1.5480    3.1161 O   0  0  0  0  0  0  0  0  0  0  0  0
    3.8950   -0.7278    1.0530 N   0  0  0  0  0  0  0  0  0  0  0  0
    3.1348   -1.8347    0.4193 C   0  0  0  0  0  0  0  0  0  0  0  0
    1.6239   -1.5478    0.3824 C   0  0  0  0  0  0  0  0  0  0  0  0
    1.2574   -0.3874   -0.5527 C   0  0  0  0  0  0  0  0  0  0  0  0
   -0.2434   -0.0769   -0.5378 C   0  0  0  0  0  0  0  0  0  0  0  0
   -1.0102   -1.2109   -1.1087 N   0  0  0  0  0  0  0  0  0  0  0  0
   -1.8537   -0.8298   -2.2576 C   0  0  0  0  0  0  0  0  0  0  0  0
   -3.0146    0.0850   -1.8367 C   0  0  0  0  0  0  0  0  0  0  0  0
   -3.7046   -0.3865   -0.5762 C   0  0  0  0  0  0  0  0  0  0  0  0
   -3.0877   -1.2402    0.2601 C   0  0  0  0  0  0  0  0  0  0  0  0
   -1.8027   -1.9401   -0.0979 C   0  0  0  0  0  0  0  0  0  0  0  0
   -5.0347    0.1809   -0.2200 C   0  0  0  0  0  0  0  0  0  0  0  0
   -5.3373    1.5278   -0.4999 C   0  0  0  0  0  0  0  0  0  0  0  0
   -6.5906    2.0559   -0.1749 C   0  0  0  0  0  0  0  0  0  0  0  0
   -7.5581    1.2480    0.4256 C   0  0  0  0  0  0  0  0  0  0  0  0
   -7.2757   -0.0914    0.7001 C   0  0  0  0  0  0  0  0  0  0  0  0
   -6.0242   -0.6251    0.3783 C   0  0  0  0  0  0  0  0  0  0  0  0
    4.5556    0.2482    0.3227 C   0  0  0  0  0  0  0  0  0  0  0  0
    4.5230    0.2928   -1.0954 C   0  0  0  0  0  0  0  0  0  0  0  0
    5.2062    1.2821   -1.8017 C   0  0  0  0  0  0  0  0  0  0  0  0
    5.9346    2.2528   -1.1259 C   0  0  0  0  0  0  0  0  0  0  0  0
    4.6405    0.2900    4.1213 H   0  0  0  0  0  0  0  0  0  0  0  0
    3.2895   -2.7720    0.9984 H   0  0  0  0  0  0  0  0  0  0  0  0
    3.5152   -2.1083   -0.5819 H   0  0  0  0  0  0  0  0  0  0  0  0
    1.1123   -2.4704    0.0334 H   0  0  0  0  0  0  0  0  0  0  0  0
    1.2630   -1.3263    1.4099 H   0  0  0  0  0  0  0  0  0  0  0  0
    1.7967    0.5289   -0.2315 H   0  0  0  0  0  0  0  0  0  0  0  0
    1.5653   -0.6315   -1.5924 H   0  0  0  0  0  0  0  0  0  0  0  0
   -0.5664    0.1684    0.4996 H   0  0  0  0  0  0  0  0  0  0  0  0
   -0.3836    0.8532   -1.1317 H   0  0  0  0  0  0  0  0  0  0  0  0
   -1.2378   -0.3247   -3.0337 H   0  0  0  0  0  0  0  0  0  0  0  0
   -2.2668   -1.7493   -2.7286 H   0  0  0  0  0  0  0  0  0  0  0  0
   -3.7516    0.1322   -2.6673 H   0  0  0  0  0  0  0  0  0  0  0  0
   -2.6281    1.1122   -1.6714 H   0  0  0  0  0  0  0  0  0  0  0  0
   -3.5589   -1.5260    1.1924 H   0  0  0  0  0  0  0  0  0  0  0  0
   -2.0538   -2.9468   -0.4952 H   0  0  0  0  0  0  0  0  0  0  0  0
   -1.2071   -2.1053    0.8257 H   0  0  0  0  0  0  0  0  0  0  0  0
   -4.6038    2.1792   -0.9558 H   0  0  0  0  0  0  0  0  0  0  0  0
   -6.8112    3.0939   -0.3882 H   0  0  0  0  0  0  0  0  0  0  0  0
   -8.5277    1.6591    0.6751 H   0  0  0  0  0  0  0  0  0  0  0  0
   -8.0294   -0.7191    1.1579 H   0  0  0  0  0  0  0  0  0  0  0  0
   -5.8381   -1.6725    0.5796 H   0  0  0  0  0  0  0  0  0  0  0  0
    3.9627   -0.4058   -1.6915 H   0  0  0  0  0  0  0  0  0  0  0  0
    5.1658    1.2978   -2.8836 H   0  0  0  0  0  0  0  0  0  0  0  0
    6.4612    3.0159   -1.6849 H   0  0  0  0  0  0  0  0  0  0  0  0
  1  2  1  0
  2  3  2  0
  3  4  1  0
  4  5  2  0
  4  6  1  0
  6  7  1  0
  7  8  2  0
  7  9  1  0
  9 10  1  0
 10 11  1  0
 11 12  1  0
 12 13  1  0
 13 14  1  0
 14 15  1  0
 15 16  1  0
 16 17  1  0
 17 18  2  0
 18 19  1  0
 17 20  1  0
 20 21  2  0
 21 22  1  0
 22 23  2  0
 23 24  1  0
 24 25  2  0
  9 26  1  0
 26 27  2  0
 27 28  1  0
 28 29  2  0
 29  2  1  0
 26  3  1  0
 19 14  1  0
 25 20  1  0
  6 30  1  0
 10 31  1  0
 10 32  1  0
 11 33  1  0
 11 34  1  0
 12 35  1  0
 12 36  1  0
 13 37  1  0
 13 38  1  0
 15 39  1  0
 15 40  1  0
 16 41  1  0
 16 42  1  0
 18 43  1  0
 19 44  1  0
 19 45  1  0
 21 46  1  0
 22 47  1  0
 23 48  1  0
 24 49  1  0
 25 50  1  0
 27 51  1  0
 28 52  1  0
 29 53  1  0
M  END
$$$$
