
     RDKit          3D

 51 53  0  0  0  0  0  0  0  0999 V2000
   -2.7065   -0.1187    0.5977 C   0  0  1  0  0  0  0  0  0  0  0  0
   -1.6549   -0.8684   -0.2874 C   0  0  1  0  0  0  0  0  0  0  0  0
   -2.1514   -2.1560   -0.9534 C   0  0  0  0  0  0  0  0  0  0  0  0
   -1.2528    0.1712   -1.3323 C   0  0  0  0  0  0  0  0  0  0  0  0
    0.0324   -0.1092   -2.5610 S   0  0  0  0  0  0  0  0  0  0  0  0
    1.3421    0.7645   -1.6243 C   0  0  2  0  0  0  0  0  0  0  0  0
    2.5865    0.9630   -2.4725 C   0  0  0  0  0  0  0  0  0  0  0  0
    3.7466    0.9413   -1.5799 N   0  0  0  0  0  0  0  0  0  0  0  0
    3.2896    0.4332   -0.2795 C   0  0  2  0  0  0  0  0  0  0  0  0
    4.2016   -0.7043    0.2023 C   0  0  0  0  0  0  0  0  0  0  0  0
    5.5408   -0.1903    0.5023 N   0  0  0  0  0  0  0  0  0  0  0  0
    6.5257   -1.4594    1.1670 S   0  0  0  0  0  6  0  0  0  0  0  0
    5.9227   -1.9376    2.7165 N   0  0  0  0  0  0  0  0  0  0  0  0
    6.5350   -2.6450    0.2421 O   0  0  0  0  0  0  0  0  0  0  0  0
    7.9312   -0.9533    1.3276 O   0  0  0  0  0  0  0  0  0  0  0  0
    1.8438   -0.0299   -0.4418 C   0  0  0  0  0  0  0  0  0  0  0  0
   -2.0099    1.2645   -1.2375 C   0  0  0  0  0  0  0  0  0  0  0  0
   -2.9070    1.0694   -0.1780 N   0  0  0  0  0  0  0  0  0  0  0  0
   -4.3692    0.8472   -0.1136 C   0  0  0  0  0  0  0  0  0  0  0  0
   -5.3827    1.4500   -0.5535 O   0  0  0  0  0  0  0  0  0  0  0  0
   -4.1257   -0.4485    0.6025 C   0  0  2  0  0  0  0  0  0  0  0  0
   -4.7838   -0.5469    2.0072 C   0  0  1  0  0  0  0  0  0  0  0  0
   -4.7901    0.7585    2.8262 C   0  0  0  0  0  0  0  0  0  0  0  0
   -6.0945   -1.0390    1.8893 O   0  0  0  0  0  0  0  0  0  0  0  0
   -2.0203    2.4565   -2.1022 C   0  0  0  0  0  0  0  0  0  0  0  0
   -2.9227    3.4816   -1.8380 O   0  0  0  0  0  0  0  0  0  0  0  0
   -1.2265    2.5618   -3.0747 O   0  0  0  0  0  0  0  0  0  0  0  0
   -2.2798    0.1398    1.5920 H   0  0  0  0  0  0  0  0  0  0  0  0
   -0.7726   -1.1177    0.3390 H   0  0  0  0  0  0  0  0  0  0  0  0
   -2.5443   -2.8550   -0.1851 H   0  0  0  0  0  0  0  0  0  0  0  0
   -1.3083   -2.6574   -1.4742 H   0  0  0  0  0  0  0  0  0  0  0  0
   -2.9421   -1.9379   -1.7029 H   0  0  0  0  0  0  0  0  0  0  0  0
    0.9760    1.7585   -1.2816 H   0  0  0  0  0  0  0  0  0  0  0  0
    2.6972    0.1333   -3.2043 H   0  0  0  0  0  0  0  0  0  0  0  0
    2.5285    1.9211   -3.0362 H   0  0  0  0  0  0  0  0  0  0  0  0
    4.0883    1.9237   -1.4536 H   0  0  0  0  0  0  0  0  0  0  0  0
    3.3109    1.2533    0.4771 H   0  0  0  0  0  0  0  0  0  0  0  0
    4.2565   -1.4966   -0.5785 H   0  0  0  0  0  0  0  0  0  0  0  0
    3.7547   -1.1400    1.1224 H   0  0  0  0  0  0  0  0  0  0  0  0
    5.9923    0.0935   -0.3976 H   0  0  0  0  0  0  0  0  0  0  0  0
    5.5836   -1.0727    3.1941 H   0  0  0  0  0  0  0  0  0  0  0  0
    5.0886   -2.5450    2.5548 H   0  0  0  0  0  0  0  0  0  0  0  0
    1.2499    0.1872    0.4723 H   0  0  0  0  0  0  0  0  0  0  0  0
    1.7959   -1.1194   -0.6668 H   0  0  0  0  0  0  0  0  0  0  0  0
   -4.4109   -1.3058   -0.0391 H   0  0  0  0  0  0  0  0  0  0  0  0
   -4.2057   -1.2982    2.5880 H   0  0  0  0  0  0  0  0  0  0  0  0
   -5.3895    1.5435    2.3193 H   0  0  0  0  0  0  0  0  0  0  0  0
   -5.2445    0.5669    3.8213 H   0  0  0  0  0  0  0  0  0  0  0  0
   -3.7615    1.1383    2.9900 H   0  0  0  0  0  0  0  0  0  0  0  0
   -6.6120   -0.3816    1.3541 H   0  0  0  0  0  0  0  0  0  0  0  0
   -2.9508    4.3120   -2.4176 H   0  0  0  0  0  0  0  0  0  0  0  0
  1  2  1  0
  2  3  1  0
  2  4  1  0
  4  5  1  0
  5  6  1  0
  6  7  1  0
  7  8  1  0
  8  9  1  0
  9 10  1  0
 10 11  1  0
 11 12  1  0
 12 13  1  0
 12 14  2  0
 12 15  2  0
  9 16  1  0
  4 17  2  0
 17 18  1  0
 18 19  1  0
 19 20  2  0
 19 21  1  0
 21 22  1  0
 22 23  1  0
 22 24  1  0
 17 25  1  0
 25 26  1  0
 25 27  2  0
 18  1  1  0
 21  1  1  0
 16  6  1  0
  1 28  1  1
  2 29  1  1
  3 30  1  0
  3 31  1  0
  3 32  1  0
  6 33  1  1
  7 34  1  0
  7 35  1  0
  8 36  1  0
  9 37  1  1
 10 38  1  0
 10 39  1  0
 11 40  1  0
 13 41  1  0
 13 42  1  0
 16 43  1  0
 16 44  1  0
 21 45  1  6
 22 46  1  1
 23 47  1  0
 23 48  1  0
 23 49  1  0
 24 50  1  0
 26 51  1  0
M  END
$$$$
