
     RDKit          3D

 66 69  0  0  0  0  0  0  0  0999 V2000
   -6.8674   -1.9898   -0.8428 C   0  0  0  0  0  0  0  0  0  0  0  0
   -6.1183   -0.6649   -0.7400 C   0  0  0  0  0  0  0  0  0  0  0  0
   -5.9243   -0.2503    0.7204 C   0  0  0  0  0  0  0  0  0  0  0  0
   -5.1281    1.0173    0.7975 C   0  0  0  0  0  0  0  0  0  0  0  0
   -5.6959    2.2470    0.8715 N   0  0  0  0  0  0  0  0  0  0  0  0
   -4.6493    3.1095    0.8419 C   0  0  0  0  0  0  0  0  0  0  0  0
   -4.7914    4.5955    0.8979 C   0  0  0  0  0  0  0  0  0  0  0  0
   -3.4754    2.3893    0.7345 C   0  0  0  0  0  0  0  0  0  0  0  0
   -3.7853    1.0934    0.7032 N   0  0  0  0  0  0  0  0  0  0  0  0
   -2.8761    0.1230    0.5973 N   0  0  0  0  0  0  0  0  0  0  0  0
   -1.5532    0.4702    0.5131 C   0  0  0  0  0  0  0  0  0  0  0  0
   -1.2038    1.7946    0.5547 N   0  0  0  0  0  0  0  0  0  0  0  0
   -2.1426    2.7751    0.6599 C   0  0  0  0  0  0  0  0  0  0  0  0
   -1.8003    3.9863    0.6894 O   0  0  0  0  0  0  0  0  0  0  0  0
   -0.4894   -0.5577    0.4287 C   0  0  0  0  0  0  0  0  0  0  0  0
   -0.6134   -1.6917   -0.4058 C   0  0  0  0  0  0  0  0  0  0  0  0
   -1.7669   -1.8474   -1.1932 O   0  0  0  0  0  0  0  0  0  0  0  0
   -1.9856   -2.9223   -2.1041 C   0  0  0  0  0  0  0  0  0  0  0  0
   -3.3590   -2.7827   -2.7391 C   0  0  0  0  0  0  0  0  0  0  0  0
    0.4368   -2.6306   -0.4487 C   0  0  0  0  0  0  0  0  0  0  0  0
    1.5931   -2.4391    0.3078 C   0  0  0  0  0  0  0  0  0  0  0  0
    1.7274   -1.3078    1.1170 C   0  0  0  0  0  0  0  0  0  0  0  0
    0.6882   -0.3726    1.1737 C   0  0  0  0  0  0  0  0  0  0  0  0
    3.2041   -1.0582    2.0523 S   0  0  0  0  0  6  0  0  0  0  0  0
    3.7426   -2.3925    2.4880 O   0  0  0  0  0  0  0  0  0  0  0  0
    2.8837   -0.2606    3.2862 O   0  0  0  0  0  0  0  0  0  0  0  0
    4.4219   -0.2230    1.1202 N   0  0  0  0  0  0  0  0  0  0  0  0
    4.0132    1.1719    0.8691 C   0  0  0  0  0  0  0  0  0  0  0  0
    4.8466    1.8236   -0.2575 C   0  0  0  0  0  0  0  0  0  0  0  0
    6.1219    1.1163   -0.4920 N   0  0  0  0  0  0  0  0  0  0  0  0
    7.0700    1.2770    0.6339 C   0  0  0  0  0  0  0  0  0  0  0  0
    8.5015    1.3304    0.1103 C   0  0  0  0  0  0  0  0  0  0  0  0
    5.8972   -0.3057   -0.8544 C   0  0  0  0  0  0  0  0  0  0  0  0
    4.6789   -0.9284   -0.1416 C   0  0  0  0  0  0  0  0  0  0  0  0
   -7.8732   -1.9010   -0.3797 H   0  0  0  0  0  0  0  0  0  0  0  0
   -6.2979   -2.7955   -0.3324 H   0  0  0  0  0  0  0  0  0  0  0  0
   -6.9903   -2.2649   -1.9115 H   0  0  0  0  0  0  0  0  0  0  0  0
   -5.1293   -0.7690   -1.2355 H   0  0  0  0  0  0  0  0  0  0  0  0
   -6.6957    0.1194   -1.2769 H   0  0  0  0  0  0  0  0  0  0  0  0
   -6.9155   -0.0876    1.1968 H   0  0  0  0  0  0  0  0  0  0  0  0
   -5.4041   -1.0528    1.2855 H   0  0  0  0  0  0  0  0  0  0  0  0
   -5.8615    4.8740    0.9979 H   0  0  0  0  0  0  0  0  0  0  0  0
   -4.3878    5.0448   -0.0333 H   0  0  0  0  0  0  0  0  0  0  0  0
   -4.2339    4.9921    1.7719 H   0  0  0  0  0  0  0  0  0  0  0  0
   -3.1679   -0.8791    0.6148 H   0  0  0  0  0  0  0  0  0  0  0  0
   -1.2108   -2.9005   -2.9008 H   0  0  0  0  0  0  0  0  0  0  0  0
   -1.9375   -3.8927   -1.5642 H   0  0  0  0  0  0  0  0  0  0  0  0
   -3.4550   -1.7899   -3.2277 H   0  0  0  0  0  0  0  0  0  0  0  0
   -3.5020   -3.5769   -3.5017 H   0  0  0  0  0  0  0  0  0  0  0  0
   -4.1440   -2.8890   -1.9623 H   0  0  0  0  0  0  0  0  0  0  0  0
    0.3760   -3.5097   -1.0750 H   0  0  0  0  0  0  0  0  0  0  0  0
    2.3906   -3.1691    0.2515 H   0  0  0  0  0  0  0  0  0  0  0  0
    0.7935    0.5002    1.8068 H   0  0  0  0  0  0  0  0  0  0  0  0
    2.9387    1.2345    0.5913 H   0  0  0  0  0  0  0  0  0  0  0  0
    4.1581    1.7551    1.8038 H   0  0  0  0  0  0  0  0  0  0  0  0
    4.2553    1.8080   -1.2001 H   0  0  0  0  0  0  0  0  0  0  0  0
    5.0305    2.8966   -0.0298 H   0  0  0  0  0  0  0  0  0  0  0  0
    6.9756    0.4484    1.3708 H   0  0  0  0  0  0  0  0  0  0  0  0
    6.8854    2.2276    1.1828 H   0  0  0  0  0  0  0  0  0  0  0  0
    8.7717    0.3791   -0.3933 H   0  0  0  0  0  0  0  0  0  0  0  0
    9.2024    1.4939    0.9560 H   0  0  0  0  0  0  0  0  0  0  0  0
    8.6105    2.1675   -0.6115 H   0  0  0  0  0  0  0  0  0  0  0  0
    6.8001   -0.9189   -0.6388 H   0  0  0  0  0  0  0  0  0  0  0  0
    5.7391   -0.3703   -1.9524 H   0  0  0  0  0  0  0  0  0  0  0  0
    4.8886   -2.0032    0.0519 H   0  0  0  0  0  0  0  0  0  0  0  0
    3.7888   -0.8663   -0.8083 H   0  0  0  0  0  0  0  0  0  0  0  0
  1  2  1  0
  2  3  1  0
  3  4  1  0
  4  5  2  0
  5  6  1  0
  6  7  1  0
  6  8  2  0
  8  9  1  0
  9 10  1  0
 10 11  1  0
 11 12  2  0
 12 13  1  0
 13 14  2  0
 11 15  1  0
 15 16  2  0
 16 17  1  0
 17 18  1  0
 18 19  1  0
 16 20  1  0
 20 21  2  0
 21 22  1  0
 22 23  2  0
 22 24  1  0
 24 25  2  0
 24 26  2  0
 24 27  1  0
 27 28  1  0
 28 29  1  0
 29 30  1  0
 30 31  1  0
 31 32  1  0
 30 33  1  0
 33 34  1  0
  9  4  1  0
 23 15  1  0
 34 27  1  0
 13  8  1  0
  1 35  1  0
  1 36  1  0
  1 37  1  0
  2 38  1  0
  2 39  1  0
  3 40  1  0
  3 41  1  0
  7 42  1  0
  7 43  1  0
  7 44  1  0
 10 45  1  0
 18 46  1  0
 18 47  1  0
 19 48  1  0
 19 49  1  0
 19 50  1  0
 20 51  1  0
 21 52  1  0
 23 53  1  0
 28 54  1  0
 28 55  1  0
 29 56  1  0
 29 57  1  0
 31 58  1  0
 31 59  1  0
 32 60  1  0
 32 61  1  0
 32 62  1  0
 33 63  1  0
 33 64  1  0
 34 65  1  0
 34 66  1  0
M  END
$$$$
