
     RDKit          3D

 19 19  0  0  0  0  0  0  0  0999 V2000
    4.2996    0.0028    0.2526 C   0  0  0  0  0  0  0  0  0  0  0  0
    2.9330   -0.0452   -0.3498 C   0  0  0  0  0  0  0  0  0  0  0  0
    2.8055    0.0180   -1.6024 O   0  0  0  0  0  0  0  0  0  0  0  0
    1.7823   -0.1392    0.5032 N   0  0  0  0  0  0  0  0  0  0  0  0
    0.4329   -0.1932    0.0227 C   0  0  0  0  0  0  0  0  0  0  0  0
    0.0880   -0.1667   -1.2843 N   0  0  0  0  0  0  0  0  0  0  0  0
   -1.2281   -0.2292   -1.4776 N   0  0  0  0  0  0  0  0  0  0  0  0
   -1.9297   -0.3068   -0.3261 C   0  0  0  0  0  0  0  0  0  0  0  0
   -0.9197   -0.2985    1.0214 S   0  0  0  0  0  0  0  0  0  0  0  0
   -3.6782   -0.3930   -0.2570 S   0  0  0  0  0  6  0  0  0  0  0  0
   -4.3075    1.0396    0.4777 N   0  0  0  0  0  0  0  0  0  0  0  0
   -4.0896   -1.5972    0.5421 O   0  0  0  0  0  0  0  0  0  0  0  0
   -4.2277   -0.5175   -1.6501 O   0  0  0  0  0  0  0  0  0  0  0  0
    4.4266    0.9565    0.8057 H   0  0  0  0  0  0  0  0  0  0  0  0
    5.0781   -0.0645   -0.5369 H   0  0  0  0  0  0  0  0  0  0  0  0
    4.4281   -0.8471    0.9550 H   0  0  0  0  0  0  0  0  0  0  0  0
    1.9330   -0.1710    1.5366 H   0  0  0  0  0  0  0  0  0  0  0  0
   -3.8907    1.1018    1.4336 H   0  0  0  0  0  0  0  0  0  0  0  0
   -3.9359    1.8503   -0.0663 H   0  0  0  0  0  0  0  0  0  0  0  0
  1  2  1  0
  2  3  2  0
  2  4  1  0
  4  5  1  0
  5  6  2  0
  6  7  1  0
  7  8  2  0
  8  9  1  0
  8 10  1  0
 10 11  1  0
 10 12  2  0
 10 13  2  0
  9  5  1  0
  1 14  1  0
  1 15  1  0
  1 16  1  0
  4 17  1  0
 11 18  1  0
 11 19  1  0
M  END
$$$$
