
     RDKit          3D

 27 28  0  0  0  0  0  0  0  0999 V2000
    5.4674   -0.5259   -0.0784 O   0  0  0  0  0  0  0  0  0  0  0  0
    4.4810    0.2701    0.4961 C   0  0  0  0  0  0  0  0  0  0  0  0
    4.8063    1.3110    1.1274 O   0  0  0  0  0  0  0  0  0  0  0  0
    3.0667   -0.1049    0.3587 C   0  0  0  0  0  0  0  0  0  0  0  0
    2.7669   -1.1443   -0.2890 O   0  0  0  0  0  0  0  0  0  0  0  0
    2.0372    0.6888    0.9697 N   0  0  0  0  0  0  0  0  0  0  0  0
    0.6419    0.4118    0.7962 C   0  0  0  0  0  0  0  0  0  0  0  0
   -0.0334    0.2208   -0.4167 C   0  0  0  0  0  0  0  0  0  0  0  0
    0.5962    0.4571   -1.7373 C   0  0  0  0  0  0  0  0  0  0  0  0
    1.6744    1.3305   -1.8473 O   0  0  0  0  0  0  0  0  0  0  0  0
    0.1625   -0.1154   -2.7715 O   0  0  0  0  0  0  0  0  0  0  0  0
   -1.4048   -0.0895   -0.2207 C   0  0  0  0  0  0  0  0  0  0  0  0
   -1.7789   -0.0507    1.1280 C   0  0  0  0  0  0  0  0  0  0  0  0
   -3.1424   -0.3326    1.6762 C   0  0  0  0  0  0  0  0  0  0  0  0
   -4.4358    0.1613    0.4902 S   0  0  0  0  0  0  0  0  0  0  0  0
   -3.7461   -0.8471   -0.8635 C   0  0  0  0  0  0  0  0  0  0  0  0
   -2.4054   -0.2808   -1.3399 C   0  0  0  0  0  0  0  0  0  0  0  0
   -0.4332    0.2763    2.0757 S   0  0  0  0  0  0  0  0  0  0  0  0
    6.4468   -0.2811    0.0050 H   0  0  0  0  0  0  0  0  0  0  0  0
    2.3041    1.3586    1.7253 H   0  0  0  0  0  0  0  0  0  0  0  0
    2.1163    1.5022   -2.7425 H   0  0  0  0  0  0  0  0  0  0  0  0
   -3.2336   -1.4158    1.9017 H   0  0  0  0  0  0  0  0  0  0  0  0
   -3.2912    0.2370    2.6172 H   0  0  0  0  0  0  0  0  0  0  0  0
   -3.6211   -1.8995   -0.5278 H   0  0  0  0  0  0  0  0  0  0  0  0
   -4.4648   -0.8423   -1.7098 H   0  0  0  0  0  0  0  0  0  0  0  0
   -1.9999   -0.9929   -2.0871 H   0  0  0  0  0  0  0  0  0  0  0  0
   -2.5769    0.6974   -1.8383 H   0  0  0  0  0  0  0  0  0  0  0  0
  1  2  1  0
  2  3  2  0
  2  4  1  0
  4  5  2  0
  4  6  1  0
  6  7  1  0
  7  8  2  0
  8  9  1  0
  9 10  1  0
  9 11  2  0
  8 12  1  0
 12 13  2  0
 13 14  1  0
 14 15  1  0
 15 16  1  0
 16 17  1  0
 13 18  1  0
 18  7  1  0
 17 12  1  0
  1 19  1  0
  6 20  1  0
 10 21  1  0
 14 22  1  0
 14 23  1  0
 16 24  1  0
 16 25  1  0
 17 26  1  0
 17 27  1  0
M  END
$$$$
