
     RDKit          3D

118120  0  0  0  0  0  0  0  0999 V2000
   -4.8890   -3.3510   -1.3381 C   0  0  0  0  0  0  0  0  0  0  0  0
   -5.0605   -3.6276    0.1543 C   0  0  0  0  0  0  0  0  0  0  0  0
   -3.7493   -3.4705    0.9690 C   0  0  1  0  0  0  0  0  0  0  0  0
   -3.3922   -2.0852    1.0724 O   0  0  0  0  0  0  0  0  0  0  0  0
   -2.6456   -1.4087    0.0925 C   0  0  0  0  0  0  0  0  0  0  0  0
   -2.1790   -2.0341   -0.8998 O   0  0  0  0  0  0  0  0  0  0  0  0
   -2.5030    0.0893    0.1552 C   0  0  2  0  0  0  0  0  0  0  0  0
   -3.5926    0.6967   -0.7410 C   0  0  0  0  0  0  0  0  0  0  0  0
   -1.0441    0.5606   -0.2070 C   0  0  1  0  0  0  0  0  0  0  0  0
   -1.0717    1.9548   -0.5119 O   0  0  0  0  0  0  0  0  0  0  0  0
   -0.9637    2.2267   -1.8986 C   0  0  1  0  0  0  0  0  0  0  0  0
   -1.4621    3.6608   -2.1257 C   0  0  0  0  0  0  0  0  0  0  0  0
   -1.3557    4.1201   -3.5984 C   0  0  1  0  0  0  0  0  0  0  0  0
   -2.5227    3.4837   -4.4090 C   0  0  0  0  0  0  0  0  0  0  0  0
   -1.4902    5.5441   -3.5636 O   0  0  0  0  0  0  0  0  0  0  0  0
   -1.5905    6.1486   -4.8409 C   0  0  0  0  0  0  0  0  0  0  0  0
    0.0536    3.7126   -4.1587 C   0  0  1  0  0  0  0  0  0  0  0  0
    1.0055    4.7030   -3.8473 O   0  0  0  0  0  0  0  0  0  0  0  0
    0.5780    2.3294   -3.6727 C   0  0  2  0  0  0  0  0  0  0  0  0
    0.1160    1.1340   -4.5245 C   0  0  0  0  0  0  0  0  0  0  0  0
    0.3907    2.1170   -2.2825 O   0  0  0  0  0  0  0  0  0  0  0  0
   -0.0589    0.3047    1.0110 C   0  0  2  0  0  0  0  0  0  0  0  0
    0.3435    1.6272    1.7075 C   0  0  0  0  0  0  0  0  0  0  0  0
    1.1858   -0.6369    0.7042 C   0  0  1  0  0  0  0  0  0  0  0  0
    2.4018    0.0407    1.0201 O   0  0  0  0  0  0  0  0  0  0  0  0
    3.4022   -0.0834    0.0193 C   0  0  2  0  0  0  0  0  0  0  0  0
    4.6475    0.1980    0.6313 O   0  0  0  0  0  0  0  0  0  0  0  0
    5.7227   -0.1093   -0.2430 C   0  0  2  0  0  0  0  0  0  0  0  0
    7.0288    0.2775    0.4505 C   0  0  0  0  0  0  0  0  0  0  0  0
    5.5837    0.6032   -1.6172 C   0  0  0  0  0  0  0  0  0  0  0  0
    4.4449    1.6562   -1.6022 C   0  0  1  0  0  0  0  0  0  0  0  0
    3.1409    0.9155   -1.1463 C   0  0  1  0  0  0  0  0  0  0  0  0
    2.5450    0.2543   -2.2376 O   0  0  0  0  0  0  0  0  0  0  0  0
    4.7927    2.8261   -0.7292 N   0  0  0  0  0  0  0  0  0  0  0  0
    5.9758    3.5483   -1.2485 C   0  0  0  0  0  0  0  0  0  0  0  0
    3.6762    3.7925   -0.6199 C   0  0  0  0  0  0  0  0  0  0  0  0
    1.1099   -1.9891    1.5212 C   0  0  2  0  0  0  0  0  0  0  0  0
    2.2014   -2.9864    1.0553 C   0  0  0  0  0  0  0  0  0  0  0  0
   -0.1402   -2.5815    1.2787 O   0  0  0  0  0  0  0  0  0  0  0  0
    1.2956   -1.7453    3.0663 C   0  0  0  0  0  0  0  0  0  0  0  0
    0.3060   -2.4879    4.0198 C   0  0  2  0  0  0  0  0  0  0  0  0
    0.8467   -2.4194    5.4566 C   0  0  0  0  0  0  0  0  0  0  0  0
    0.2603   -3.8259    3.6741 F   0  0  0  0  0  0  0  0  0  0  0  0
   -1.0764   -1.8254    4.0001 C   0  0  0  0  0  0  0  0  0  0  0  0
   -1.1129   -0.6087    4.1317 O   0  0  0  0  0  0  0  0  0  0  0  0
   -2.4270   -2.5425    4.0260 C   0  0  2  0  0  0  0  0  0  0  0  0
   -2.8734   -2.6539    5.4967 C   0  0  0  0  0  0  0  0  0  0  0  0
   -2.5216   -3.8985    3.2328 C   0  0  1  0  0  0  0  0  0  0  0  0
   -2.2355   -4.9902    4.0773 O   0  0  0  0  0  0  0  0  0  0  0  0
   -3.8431   -4.1488    2.3889 C   0  0  1  0  0  0  0  0  0  0  0  0
   -5.1119   -3.6931    3.1461 C   0  0  0  0  0  0  0  0  0  0  0  0
   -3.9885   -5.5393    2.1903 O   0  0  0  0  0  0  0  0  0  0  0  0
   -4.7163   -2.2703   -1.5183 H   0  0  0  0  0  0  0  0  0  0  0  0
   -5.8181   -3.6380   -1.8743 H   0  0  0  0  0  0  0  0  0  0  0  0
   -4.0478   -3.9452   -1.7538 H   0  0  0  0  0  0  0  0  0  0  0  0
   -5.4413   -4.6666    0.2573 H   0  0  0  0  0  0  0  0  0  0  0  0
   -5.8353   -2.9352    0.5486 H   0  0  0  0  0  0  0  0  0  0  0  0
   -2.9414   -4.0065    0.4207 H   0  0  0  0  0  0  0  0  0  0  0  0
   -2.7377    0.4218    1.1911 H   0  0  0  0  0  0  0  0  0  0  0  0
   -4.5942    0.3489   -0.4066 H   0  0  0  0  0  0  0  0  0  0  0  0
   -3.5921    1.8036   -0.6703 H   0  0  0  0  0  0  0  0  0  0  0  0
   -3.4580    0.3866   -1.7987 H   0  0  0  0  0  0  0  0  0  0  0  0
   -0.6970   -0.0359   -1.0820 H   0  0  0  0  0  0  0  0  0  0  0  0
   -1.5987    1.5232   -2.4730 H   0  0  0  0  0  0  0  0  0  0  0  0
   -0.8565    4.3398   -1.4843 H   0  0  0  0  0  0  0  0  0  0  0  0
   -2.5143    3.7498   -1.7759 H   0  0  0  0  0  0  0  0  0  0  0  0
   -3.4793    3.9829   -4.1440 H   0  0  0  0  0  0  0  0  0  0  0  0
   -2.6624    2.4087   -4.2001 H   0  0  0  0  0  0  0  0  0  0  0  0
   -2.3618    3.5974   -5.5018 H   0  0  0  0  0  0  0  0  0  0  0  0
   -2.6187    6.0406   -5.2454 H   0  0  0  0  0  0  0  0  0  0  0  0
   -0.8470    5.7632   -5.5679 H   0  0  0  0  0  0  0  0  0  0  0  0
   -1.3986    7.2350   -4.7273 H   0  0  0  0  0  0  0  0  0  0  0  0
    0.0012    3.6713   -5.2681 H   0  0  0  0  0  0  0  0  0  0  0  0
    1.0995    4.7302   -2.8596 H   0  0  0  0  0  0  0  0  0  0  0  0
    1.6800    2.3543   -3.8252 H   0  0  0  0  0  0  0  0  0  0  0  0
   -0.9820    1.0443   -4.5818 H   0  0  0  0  0  0  0  0  0  0  0  0
    0.5194    0.1918   -4.0978 H   0  0  0  0  0  0  0  0  0  0  0  0
    0.5038    1.2384   -5.5601 H   0  0  0  0  0  0  0  0  0  0  0  0
   -0.6522   -0.2091    1.7843 H   0  0  0  0  0  0  0  0  0  0  0  0
    0.9427    2.2652    1.0261 H   0  0  0  0  0  0  0  0  0  0  0  0
   -0.5652    2.1882    2.0152 H   0  0  0  0  0  0  0  0  0  0  0  0
    0.9378    1.4421    2.6242 H   0  0  0  0  0  0  0  0  0  0  0  0
    1.1429   -0.9142   -0.3729 H   0  0  0  0  0  0  0  0  0  0  0  0
    3.4292   -1.1232   -0.3787 H   0  0  0  0  0  0  0  0  0  0  0  0
    5.7645   -1.2113   -0.4069 H   0  0  0  0  0  0  0  0  0  0  0  0
    7.8988    0.0407   -0.1985 H   0  0  0  0  0  0  0  0  0  0  0  0
    7.0343    1.3604    0.6938 H   0  0  0  0  0  0  0  0  0  0  0  0
    7.1333   -0.2946    1.3968 H   0  0  0  0  0  0  0  0  0  0  0  0
    6.5438    1.0234   -1.9761 H   0  0  0  0  0  0  0  0  0  0  0  0
    5.3473   -0.1663   -2.3821 H   0  0  0  0  0  0  0  0  0  0  0  0
    4.2904    2.0149   -2.6465 H   0  0  0  0  0  0  0  0  0  0  0  0
    2.3874    1.6415   -0.8062 H   0  0  0  0  0  0  0  0  0  0  0  0
    3.1489   -0.4700   -2.5411 H   0  0  0  0  0  0  0  0  0  0  0  0
    6.1610    4.4832   -0.6760 H   0  0  0  0  0  0  0  0  0  0  0  0
    6.8996    2.9576   -1.1042 H   0  0  0  0  0  0  0  0  0  0  0  0
    5.8540    3.8054   -2.3241 H   0  0  0  0  0  0  0  0  0  0  0  0
    4.0169    4.7975   -0.2878 H   0  0  0  0  0  0  0  0  0  0  0  0
    3.1418    3.9109   -1.5883 H   0  0  0  0  0  0  0  0  0  0  0  0
    2.9728    3.4685    0.1730 H   0  0  0  0  0  0  0  0  0  0  0  0
    3.2195   -2.6322    1.3216 H   0  0  0  0  0  0  0  0  0  0  0  0
    2.1533   -3.1435   -0.0436 H   0  0  0  0  0  0  0  0  0  0  0  0
    2.0479   -3.9711    1.5465 H   0  0  0  0  0  0  0  0  0  0  0  0
   -0.1661   -2.8722    0.3301 H   0  0  0  0  0  0  0  0  0  0  0  0
    1.2562   -0.6651    3.3006 H   0  0  0  0  0  0  0  0  0  0  0  0
    2.3332   -2.0220    3.3586 H   0  0  0  0  0  0  0  0  0  0  0  0
    1.8387   -2.9157    5.5209 H   0  0  0  0  0  0  0  0  0  0  0  0
    0.1621   -2.9451    6.1543 H   0  0  0  0  0  0  0  0  0  0  0  0
    0.9561   -1.3647    5.7905 H   0  0  0  0  0  0  0  0  0  0  0  0
   -3.1275   -1.8305    3.5459 H   0  0  0  0  0  0  0  0  0  0  0  0
   -2.2041   -3.3335    6.0640 H   0  0  0  0  0  0  0  0  0  0  0  0
   -2.8460   -1.6554    5.9841 H   0  0  0  0  0  0  0  0  0  0  0  0
   -3.9107   -3.0244    5.5839 H   0  0  0  0  0  0  0  0  0  0  0  0
   -1.7224   -3.8999    2.4755 H   0  0  0  0  0  0  0  0  0  0  0  0
   -3.0481   -5.1843    4.6117 H   0  0  0  0  0  0  0  0  0  0  0  0
   -5.1783   -2.5900    3.2327 H   0  0  0  0  0  0  0  0  0  0  0  0
   -5.1548   -4.1579    4.1505 H   0  0  0  0  0  0  0  0  0  0  0  0
   -6.0270   -4.0426    2.6243 H   0  0  0  0  0  0  0  0  0  0  0  0
   -3.1716   -5.8778    1.7373 H   0  0  0  0  0  0  0  0  0  0  0  0
  1  2  1  0
  2  3  1  0
  3  4  1  0
  4  5  1  0
  5  6  2  0
  5  7  1  0
  7  8  1  0
  7  9  1  0
  9 10  1  0
 10 11  1  0
 11 12  1  0
 12 13  1  0
 13 14  1  0
 13 15  1  1
 15 16  1  0
 13 17  1  0
 17 18  1  0
 17 19  1  0
 19 20  1  0
 19 21  1  0
  9 22  1  0
 22 23  1  0
 22 24  1  0
 24 25  1  0
 25 26  1  0
 26 27  1  0
 27 28  1  0
 28 29  1  0
 28 30  1  0
 30 31  1  0
 31 32  1  0
 32 33  1  0
 31 34  1  0
 34 35  1  0
 34 36  1  0
 24 37  1  0
 37 38  1  0
 37 39  1  1
 37 40  1  0
 40 41  1  0
 41 42  1  0
 41 43  1  6
 41 44  1  0
 44 45  2  0
 44 46  1  0
 46 47  1  0
 46 48  1  0
 48 49  1  0
 48 50  1  0
 50 51  1  0
 50 52  1  6
 50  3  1  0
 21 11  1  0
 32 26  1  0
  1 53  1  0
  1 54  1  0
  1 55  1  0
  2 56  1  0
  2 57  1  0
  3 58  1  6
  7 59  1  1
  8 60  1  0
  8 61  1  0
  8 62  1  0
  9 63  1  6
 11 64  1  6
 12 65  1  0
 12 66  1  0
 14 67  1  0
 14 68  1  0
 14 69  1  0
 16 70  1  0
 16 71  1  0
 16 72  1  0
 17 73  1  6
 18 74  1  0
 19 75  1  1
 20 76  1  0
 20 77  1  0
 20 78  1  0
 22 79  1  1
 23 80  1  0
 23 81  1  0
 23 82  1  0
 24 83  1  6
 26 84  1  6
 28 85  1  6
 29 86  1  0
 29 87  1  0
 29 88  1  0
 30 89  1  0
 30 90  1  0
 31 91  1  6
 32 92  1  1
 33 93  1  0
 35 94  1  0
 35 95  1  0
 35 96  1  0
 36 97  1  0
 36 98  1  0
 36 99  1  0
 38100  1  0
 38101  1  0
 38102  1  0
 39103  1  0
 40104  1  0
 40105  1  0
 42106  1  0
 42107  1  0
 42108  1  0
 46109  1  6
 47110  1  0
 47111  1  0
 47112  1  0
 48113  1  6
 49114  1  0
 51115  1  0
 51116  1  0
 51117  1  0
 52118  1  0
M  END
$$$$
