
     RDKit          3D

 84 90  0  0  0  0  0  0  0  0999 V2000
    0.1858   -1.3441    0.5107 C   0  0  0  0  0  0  0  0  0  0  0  0
   -0.4964   -1.0514   -0.7576 N   0  0  0  0  0  0  0  0  0  0  0  0
    0.0851   -0.1087   -1.7348 C   0  0  0  0  0  0  0  0  0  0  0  0
    1.5644   -0.4578   -2.0678 C   0  0  0  0  0  0  0  0  0  0  0  0
    2.5557    0.6203   -1.6121 C   0  0  0  0  0  0  0  0  0  0  0  0
    2.1366    1.9386   -2.1116 N   0  0  0  0  0  0  0  0  0  0  0  0
    0.7194    2.3258   -2.0800 C   0  0  0  0  0  0  0  0  0  0  0  0
   -0.1113    1.3410   -1.2530 C   0  0  0  0  0  0  0  0  0  0  0  0
    3.0928    2.8465   -2.6912 C   0  0  0  0  0  0  0  0  0  0  0  0
    2.7496    3.5612   -3.6723 O   0  0  0  0  0  0  0  0  0  0  0  0
    4.4684    2.9704   -2.1571 C   0  0  0  0  0  0  0  0  0  0  0  0
    4.7171    2.8286   -0.7813 C   0  0  0  0  0  0  0  0  0  0  0  0
    6.0204    2.9526   -0.2773 C   0  0  0  0  0  0  0  0  0  0  0  0
    6.2740    2.8029    1.0953 C   0  0  0  0  0  0  0  0  0  0  0  0
    7.5769    2.9286    1.5860 C   0  0  0  0  0  0  0  0  0  0  0  0
    8.6333    3.2053    0.7141 C   0  0  0  0  0  0  0  0  0  0  0  0
    8.3940    3.3592   -0.6545 C   0  0  0  0  0  0  0  0  0  0  0  0
    7.0904    3.2352   -1.1599 C   0  0  0  0  0  0  0  0  0  0  0  0
    6.8359    3.3940   -2.5290 C   0  0  0  0  0  0  0  0  0  0  0  0
    5.5344    3.2681   -3.0218 C   0  0  0  0  0  0  0  0  0  0  0  0
   -1.8484   -1.5211   -0.9403 C   0  0  0  0  0  0  0  0  0  0  0  0
   -2.6702   -0.8280   -1.5996 O   0  0  0  0  0  0  0  0  0  0  0  0
   -2.2823   -2.8304   -0.4064 C   0  0  0  0  0  0  0  0  0  0  0  0
   -1.4792   -3.9539   -0.6632 C   0  0  0  0  0  0  0  0  0  0  0  0
   -1.8874   -5.2329   -0.2647 C   0  0  0  0  0  0  0  0  0  0  0  0
   -1.0807   -6.3533   -0.5204 C   0  0  0  0  0  0  0  0  0  0  0  0
   -1.5011   -7.6259   -0.1238 C   0  0  0  0  0  0  0  0  0  0  0  0
   -2.7264   -7.7900    0.5273 C   0  0  0  0  0  0  0  0  0  0  0  0
   -3.5392   -6.6824    0.7852 C   0  0  0  0  0  0  0  0  0  0  0  0
   -3.1278   -5.3991    0.3912 C   0  0  0  0  0  0  0  0  0  0  0  0
   -3.9329   -4.2818    0.6462 C   0  0  0  0  0  0  0  0  0  0  0  0
   -3.5179   -2.9956    0.2659 C   0  0  0  0  0  0  0  0  0  0  0  0
   -4.3780   -1.8520    0.6446 C   0  0  0  0  0  0  0  0  0  0  0  0
   -5.5840   -1.8606    0.2755 O   0  0  0  0  0  0  0  0  0  0  0  0
   -3.8748   -0.7860    1.6021 C   0  0  1  0  0  0  0  0  0  0  0  0
   -3.7016    0.6062    0.9860 C   0  0  0  0  0  0  0  0  0  0  0  0
   -4.6413    1.0668    0.0372 C   0  0  0  0  0  0  0  0  0  0  0  0
   -4.5190    2.3194   -0.5573 C   0  0  0  0  0  0  0  0  0  0  0  0
   -3.4763    3.1655   -0.2055 C   0  0  0  0  0  0  0  0  0  0  0  0
   -2.5543    2.7788    0.7722 C   0  0  0  0  0  0  0  0  0  0  0  0
   -1.5200    3.6589    1.1288 C   0  0  0  0  0  0  0  0  0  0  0  0
   -0.6016    3.3041    2.1136 C   0  0  0  0  0  0  0  0  0  0  0  0
   -0.7166    2.0790    2.7644 C   0  0  0  0  0  0  0  0  0  0  0  0
   -1.7389    1.1903    2.4239 C   0  0  0  0  0  0  0  0  0  0  0  0
   -2.6642    1.5034    1.3987 C   0  0  0  0  0  0  0  0  0  0  0  0
   -4.9710   -0.6851    3.0601 P   0  0  0  0  0  5  0  0  0  0  0  0
   -5.1028   -2.2136    3.7751 O   0  0  0  0  0  0  0  0  0  0  0  0
   -6.5041   -0.1458    2.5869 O   0  0  0  0  0  0  0  0  0  0  0  0
   -4.3921    0.2823    4.0674 O   0  0  0  0  0  0  0  0  0  0  0  0
    1.0573   -0.6783    0.6674 H   0  0  0  0  0  0  0  0  0  0  0  0
   -0.5083   -1.1941    1.3619 H   0  0  0  0  0  0  0  0  0  0  0  0
    0.5432   -2.3938    0.5160 H   0  0  0  0  0  0  0  0  0  0  0  0
   -0.4723   -0.2031   -2.6952 H   0  0  0  0  0  0  0  0  0  0  0  0
    1.6686   -0.5667   -3.1704 H   0  0  0  0  0  0  0  0  0  0  0  0
    1.8580   -1.4368   -1.6321 H   0  0  0  0  0  0  0  0  0  0  0  0
    3.5649    0.3561   -1.9972 H   0  0  0  0  0  0  0  0  0  0  0  0
    2.6068    0.6439   -0.5038 H   0  0  0  0  0  0  0  0  0  0  0  0
    0.6207    3.3372   -1.6286 H   0  0  0  0  0  0  0  0  0  0  0  0
    0.3235    2.3637   -3.1181 H   0  0  0  0  0  0  0  0  0  0  0  0
   -1.1843    1.6109   -1.3396 H   0  0  0  0  0  0  0  0  0  0  0  0
    0.1823    1.4346   -0.1856 H   0  0  0  0  0  0  0  0  0  0  0  0
    3.8951    2.6428   -0.1003 H   0  0  0  0  0  0  0  0  0  0  0  0
    5.4675    2.5877    1.7862 H   0  0  0  0  0  0  0  0  0  0  0  0
    7.7682    2.8113    2.6449 H   0  0  0  0  0  0  0  0  0  0  0  0
    9.6399    3.3017    1.1000 H   0  0  0  0  0  0  0  0  0  0  0  0
    9.2248    3.5755   -1.3156 H   0  0  0  0  0  0  0  0  0  0  0  0
    7.6424    3.6152   -3.2180 H   0  0  0  0  0  0  0  0  0  0  0  0
    5.3615    3.3904   -4.0841 H   0  0  0  0  0  0  0  0  0  0  0  0
   -0.5444   -3.8333   -1.1999 H   0  0  0  0  0  0  0  0  0  0  0  0
   -0.1278   -6.2449   -1.0247 H   0  0  0  0  0  0  0  0  0  0  0  0
   -0.8759   -8.4870   -0.3218 H   0  0  0  0  0  0  0  0  0  0  0  0
   -3.0472   -8.7776    0.8324 H   0  0  0  0  0  0  0  0  0  0  0  0
   -4.4863   -6.8285    1.2909 H   0  0  0  0  0  0  0  0  0  0  0  0
   -4.8773   -4.4078    1.1649 H   0  0  0  0  0  0  0  0  0  0  0  0
   -2.9015   -1.1642    1.9616 H   0  0  0  0  0  0  0  0  0  0  0  0
   -5.4853    0.4647   -0.2579 H   0  0  0  0  0  0  0  0  0  0  0  0
   -5.2433    2.6379   -1.2960 H   0  0  0  0  0  0  0  0  0  0  0  0
   -3.4000    4.1332   -0.6874 H   0  0  0  0  0  0  0  0  0  0  0  0
   -1.4222    4.6233    0.6441 H   0  0  0  0  0  0  0  0  0  0  0  0
    0.1944    3.9865    2.3823 H   0  0  0  0  0  0  0  0  0  0  0  0
   -0.0128    1.8175    3.5441 H   0  0  0  0  0  0  0  0  0  0  0  0
   -1.7902    0.2789    2.9962 H   0  0  0  0  0  0  0  0  0  0  0  0
   -5.6782   -2.7337    3.1594 H   0  0  0  0  0  0  0  0  0  0  0  0
   -7.0545   -0.1967    3.4086 H   0  0  0  0  0  0  0  0  0  0  0  0
  1  2  1  0
  2  3  1  0
  3  4  1  0
  4  5  1  0
  5  6  1  0
  6  7  1  0
  7  8  1  0
  6  9  1  0
  9 10  2  0
  9 11  1  0
 11 12  2  0
 12 13  1  0
 13 14  2  0
 14 15  1  0
 15 16  2  0
 16 17  1  0
 17 18  2  0
 18 19  1  0
 19 20  2  0
  2 21  1  0
 21 22  2  0
 21 23  1  0
 23 24  2  0
 24 25  1  0
 25 26  2  0
 26 27  1  0
 27 28  2  0
 28 29  1  0
 29 30  2  0
 30 31  1  0
 31 32  2  0
 32 33  1  0
 33 34  2  0
 33 35  1  0
 35 36  1  0
 36 37  2  0
 37 38  1  0
 38 39  2  0
 39 40  1  0
 40 41  2  0
 41 42  1  0
 42 43  2  0
 43 44  1  0
 44 45  2  0
 35 46  1  0
 46 47  1  0
 46 48  1  0
 46 49  2  0
  8  3  1  0
 20 11  1  0
 32 23  1  0
 45 36  1  0
 18 13  1  0
 30 25  1  0
 45 40  1  0
  1 50  1  0
  1 51  1  0
  1 52  1  0
  3 53  1  0
  4 54  1  0
  4 55  1  0
  5 56  1  0
  5 57  1  0
  7 58  1  0
  7 59  1  0
  8 60  1  0
  8 61  1  0
 12 62  1  0
 14 63  1  0
 15 64  1  0
 16 65  1  0
 17 66  1  0
 19 67  1  0
 20 68  1  0
 24 69  1  0
 26 70  1  0
 27 71  1  0
 28 72  1  0
 29 73  1  0
 31 74  1  0
 35 75  1  1
 37 76  1  0
 38 77  1  0
 39 78  1  0
 41 79  1  0
 42 80  1  0
 43 81  1  0
 44 82  1  0
 47 83  1  0
 48 84  1  0
M  END
$$$$
