
     RDKit          3D

 42 45  0  0  0  0  0  0  0  0999 V2000
   -3.5984    2.3096   -3.2758 N   0  0  0  0  0  0  0  0  0  0  0  0
   -3.0144    2.0911   -1.9906 C   0  0  0  0  0  0  0  0  0  0  0  0
   -2.5587    0.8513   -1.6625 N   0  0  0  0  0  0  0  0  0  0  0  0
   -1.9842    0.5864   -0.4559 C   0  0  0  0  0  0  0  0  0  0  0  0
   -1.5502   -0.7508   -0.1502 N   0  0  0  0  0  0  0  0  0  0  0  0
   -2.5474   -1.6797   -0.0508 C   0  0  0  0  0  0  0  0  0  0  0  0
   -2.3173   -2.9523    0.4823 C   0  0  0  0  0  0  0  0  0  0  0  0
   -3.4457   -3.9190    0.5735 C   0  0  0  0  0  0  0  0  0  0  0  0
   -4.7135   -3.5592    0.1223 O   0  0  0  0  0  0  0  0  0  0  0  0
   -3.2741   -5.0725    1.0524 O   0  0  0  0  0  0  0  0  0  0  0  0
   -1.0283   -3.2556    0.9509 C   0  0  0  0  0  0  0  0  0  0  0  0
   -0.7984   -4.3738    1.4908 O   0  0  0  0  0  0  0  0  0  0  0  0
    0.0111   -2.3161    0.8119 C   0  0  0  0  0  0  0  0  0  0  0  0
    1.2967   -2.6099    1.2900 C   0  0  0  0  0  0  0  0  0  0  0  0
    2.3382   -1.7065    1.1346 C   0  0  0  0  0  0  0  0  0  0  0  0
    3.5545   -2.0283    1.6421 F   0  0  0  0  0  0  0  0  0  0  0  0
    2.1489   -0.5114    0.4298 C   0  0  0  0  0  0  0  0  0  0  0  0
    3.2694    0.3802    0.2681 N   0  0  0  0  0  0  0  0  0  0  0  0
    3.5772    1.7154   -0.2887 C   0  0  0  0  0  0  0  0  0  0  0  0
    5.0044    1.7509    0.1482 C   0  0  0  0  0  0  0  0  0  0  0  0
    5.2345    2.6927    1.1599 O   0  0  0  0  0  0  0  0  0  0  0  0
    4.6832    0.4030    0.7001 C   0  0  0  0  0  0  0  0  0  0  0  0
    0.8700   -0.2118   -0.1029 C   0  0  0  0  0  0  0  0  0  0  0  0
    0.7532    1.0907   -1.2947 Cl  0  0  0  0  0  0  0  0  0  0  0  0
   -0.2439   -1.0693    0.1796 C   0  0  0  0  0  0  0  0  0  0  0  0
   -1.8831    1.6079    0.5027 C   0  0  0  0  0  0  0  0  0  0  0  0
   -1.3507    1.3609    1.7259 F   0  0  0  0  0  0  0  0  0  0  0  0
   -2.3416    2.8879    0.1882 C   0  0  0  0  0  0  0  0  0  0  0  0
   -2.9075    3.1380   -1.0634 C   0  0  0  0  0  0  0  0  0  0  0  0
   -3.3532    4.3834   -1.3647 F   0  0  0  0  0  0  0  0  0  0  0  0
   -3.6733    1.5224   -3.9577 H   0  0  0  0  0  0  0  0  0  0  0  0
   -3.9574    3.2493   -3.5558 H   0  0  0  0  0  0  0  0  0  0  0  0
   -3.5569   -1.4092   -0.3435 H   0  0  0  0  0  0  0  0  0  0  0  0
   -5.4895   -4.2081    0.1770 H   0  0  0  0  0  0  0  0  0  0  0  0
    1.5018   -3.5431    1.8009 H   0  0  0  0  0  0  0  0  0  0  0  0
    3.4916    1.7169   -1.3979 H   0  0  0  0  0  0  0  0  0  0  0  0
    2.9505    2.5014    0.1901 H   0  0  0  0  0  0  0  0  0  0  0  0
    5.7571    1.7480   -0.6726 H   0  0  0  0  0  0  0  0  0  0  0  0
    5.3845    3.5558    0.6943 H   0  0  0  0  0  0  0  0  0  0  0  0
    5.2622   -0.4056    0.2009 H   0  0  0  0  0  0  0  0  0  0  0  0
    4.7611    0.3537    1.8098 H   0  0  0  0  0  0  0  0  0  0  0  0
   -2.2625    3.6852    0.9161 H   0  0  0  0  0  0  0  0  0  0  0  0
  1  2  1  0
  2  3  2  0
  3  4  1  0
  4  5  1  0
  5  6  1  0
  6  7  2  0
  7  8  1  0
  8  9  1  0
  8 10  2  0
  7 11  1  0
 11 12  2  0
 11 13  1  0
 13 14  2  0
 14 15  1  0
 15 16  1  0
 15 17  2  0
 17 18  1  0
 18 19  1  0
 19 20  1  0
 20 21  1  0
 20 22  1  0
 17 23  1  0
 23 24  1  0
 23 25  2  0
  4 26  2  0
 26 27  1  0
 26 28  1  0
 28 29  2  0
 29 30  1  0
 29  2  1  0
 25  5  1  0
 25 13  1  0
 22 18  1  0
  1 31  1  0
  1 32  1  0
  6 33  1  0
  9 34  1  0
 14 35  1  0
 19 36  1  0
 19 37  1  0
 20 38  1  0
 21 39  1  0
 22 40  1  0
 22 41  1  0
 28 42  1  0
M  END
$$$$
