
     RDKit          3D

 42 45  0  0  0  0  0  0  0  0999 V2000
    5.3025    1.6175    0.1273 N   0  0  0  0  0  0  0  0  0  0  0  0
    4.6578    0.3088    0.0272 C   0  0  0  0  0  0  0  0  0  0  0  0
    4.5796   -0.1643   -1.4300 C   0  0  0  0  0  0  0  0  0  0  0  0
    3.2536   -0.9040   -1.5510 C   0  0  0  0  0  0  0  0  0  0  0  0
    2.4634   -0.4535   -0.4215 N   0  0  0  0  0  0  0  0  0  0  0  0
    3.2103    0.3620    0.5171 C   0  0  0  0  0  0  0  0  0  0  0  0
    1.0984   -0.8375   -0.2123 C   0  0  0  0  0  0  0  0  0  0  0  0
    0.8139   -2.1413    0.1938 C   0  0  0  0  0  0  0  0  0  0  0  0
    1.8202   -3.0239    0.4166 F   0  0  0  0  0  0  0  0  0  0  0  0
   -0.5025   -2.5583    0.3373 C   0  0  0  0  0  0  0  0  0  0  0  0
   -1.5661   -1.6600    0.1416 C   0  0  0  0  0  0  0  0  0  0  0  0
   -2.8971   -2.1071    0.2349 C   0  0  0  0  0  0  0  0  0  0  0  0
   -3.1380   -3.3187    0.4969 O   0  0  0  0  0  0  0  0  0  0  0  0
   -3.9555   -1.2091    0.0201 C   0  0  0  0  0  0  0  0  0  0  0  0
   -3.6496    0.1394   -0.1933 C   0  0  0  0  0  0  0  0  0  0  0  0
   -2.3597    0.5960   -0.1910 N   0  0  0  0  0  0  0  0  0  0  0  0
   -2.1844    2.0602   -0.1819 C   0  0  0  0  0  0  0  0  0  0  0  0
   -2.9293    2.7756    0.9470 C   0  0  0  0  0  0  0  0  0  0  0  0
   -1.4281    2.6054    1.0280 C   0  0  0  0  0  0  0  0  0  0  0  0
   -1.3008   -0.2958   -0.1660 C   0  0  0  0  0  0  0  0  0  0  0  0
    0.0535    0.0798   -0.4394 C   0  0  0  0  0  0  0  0  0  0  0  0
    0.4919    1.5703   -1.2882 Cl  0  0  0  0  0  0  0  0  0  0  0  0
   -5.3807   -1.6377    0.0471 C   0  0  0  0  0  0  0  0  0  0  0  0
   -6.3969   -0.6992   -0.1177 O   0  0  0  0  0  0  0  0  0  0  0  0
   -5.6905   -2.8483    0.2136 O   0  0  0  0  0  0  0  0  0  0  0  0
    6.2912    1.5164   -0.1991 H   0  0  0  0  0  0  0  0  0  0  0  0
    5.3543    1.8755    1.1397 H   0  0  0  0  0  0  0  0  0  0  0  0
    5.2226   -0.4430    0.6259 H   0  0  0  0  0  0  0  0  0  0  0  0
    4.5738    0.7090   -2.1200 H   0  0  0  0  0  0  0  0  0  0  0  0
    5.4359   -0.8251   -1.6864 H   0  0  0  0  0  0  0  0  0  0  0  0
    3.4120   -2.0019   -1.4867 H   0  0  0  0  0  0  0  0  0  0  0  0
    2.7446   -0.6493   -2.5058 H   0  0  0  0  0  0  0  0  0  0  0  0
    2.8127    1.4000    0.5071 H   0  0  0  0  0  0  0  0  0  0  0  0
    3.1301   -0.0589    1.5429 H   0  0  0  0  0  0  0  0  0  0  0  0
   -0.6860   -3.5916    0.6058 H   0  0  0  0  0  0  0  0  0  0  0  0
   -4.4623    0.8479   -0.3120 H   0  0  0  0  0  0  0  0  0  0  0  0
   -2.1513    2.6066   -1.1485 H   0  0  0  0  0  0  0  0  0  0  0  0
   -3.2445    3.8141    0.7125 H   0  0  0  0  0  0  0  0  0  0  0  0
   -3.4750    2.1391    1.6761 H   0  0  0  0  0  0  0  0  0  0  0  0
   -1.0991    1.8482    1.7717 H   0  0  0  0  0  0  0  0  0  0  0  0
   -0.8543    3.5343    0.8268 H   0  0  0  0  0  0  0  0  0  0  0  0
   -7.3707   -0.9779   -0.1030 H   0  0  0  0  0  0  0  0  0  0  0  0
  1  2  1  0
  2  3  1  0
  3  4  1  0
  4  5  1  0
  5  6  1  0
  5  7  1  0
  7  8  2  0
  8  9  1  0
  8 10  1  0
 10 11  2  0
 11 12  1  0
 12 13  2  0
 12 14  1  0
 14 15  2  0
 15 16  1  0
 16 17  1  0
 17 18  1  0
 18 19  1  0
 16 20  1  0
 20 21  2  0
 21 22  1  0
 14 23  1  0
 23 24  1  0
 23 25  2  0
  6  2  1  0
 21  7  1  0
 20 11  1  0
 19 17  1  0
  1 26  1  0
  1 27  1  0
  2 28  1  0
  3 29  1  0
  3 30  1  0
  4 31  1  0
  4 32  1  0
  6 33  1  0
  6 34  1  0
 10 35  1  0
 15 36  1  0
 17 37  1  0
 18 38  1  0
 18 39  1  0
 19 40  1  0
 19 41  1  0
 24 42  1  0
M  END
$$$$
