
     RDKit          3D

 15 15  0  0  0  0  0  0  0  0999 V2000
    3.0259    0.7138    0.9954 O   0  0  0  0  0  1  0  0  0  0  0  0
    2.3024   -0.0123    0.0572 C   0  0  0  0  0  0  0  0  0  0  0  0
    2.9162   -0.7049   -0.7964 O   0  0  0  0  0  0  0  0  0  0  0  0
    0.8311    0.0257    0.0586 C   0  0  0  0  0  0  0  0  0  0  0  0
    0.1512    0.7164    0.9078 N   0  0  0  0  0  4  0  0  0  0  0  0
   -1.2781    0.5903    0.7037 C   0  0  0  0  0  0  0  0  0  0  0  0
   -1.4366   -0.3544   -0.4922 C   0  0  0  0  0  0  0  0  0  0  0  0
   -0.0111   -0.7214   -0.9097 C   0  0  0  0  0  0  0  0  0  0  0  0
    0.5735    1.3039    1.6616 H   0  0  0  0  0  0  0  0  0  0  0  0
   -1.7163    1.5874    0.4826 H   0  0  0  0  0  0  0  0  0  0  0  0
   -1.7520    0.1622    1.6132 H   0  0  0  0  0  0  0  0  0  0  0  0
   -1.9683    0.1558   -1.3250 H   0  0  0  0  0  0  0  0  0  0  0  0
   -2.0039   -1.2646   -0.1982 H   0  0  0  0  0  0  0  0  0  0  0  0
    0.2010   -0.3835   -1.9470 H   0  0  0  0  0  0  0  0  0  0  0  0
    0.1651   -1.8143   -0.8119 H   0  0  0  0  0  0  0  0  0  0  0  0
  1  2  1  0
  2  3  2  0
  2  4  1  0
  4  5  2  0
  5  6  1  0
  6  7  1  0
  7  8  1  0
  8  4  1  0
  5  9  1  0
  6 10  1  0
  6 11  1  0
  7 12  1  0
  7 13  1  0
  8 14  1  0
  8 15  1  0
M  CHG  2   1  -1   5   1
M  END
$$$$
