
     RDKit          3D

 67 68  0  0  0  0  0  0  0  0999 V2000
   10.0425   -0.8099    1.7885 O   0  0  0  0  0  0  0  0  0  0  0  0
    9.6410   -0.2546    0.5663 C   0  0  0  0  0  0  0  0  0  0  0  0
    8.2138   -0.6357    0.2689 C   0  0  0  0  0  0  0  0  0  0  0  0
    7.9125   -1.8251   -0.4215 C   0  0  0  0  0  0  0  0  0  0  0  0
    8.9387   -2.6597   -0.8643 O   0  0  0  0  0  0  0  0  0  0  0  0
    6.5765   -2.1700   -0.6652 C   0  0  0  0  0  0  0  0  0  0  0  0
    5.5413   -1.3496   -0.2130 C   0  0  0  0  0  0  0  0  0  0  0  0
    5.8262   -0.1781    0.5049 C   0  0  0  0  0  0  0  0  0  0  0  0
    7.1667    0.1756    0.7364 C   0  0  0  0  0  0  0  0  0  0  0  0
    4.6992    0.7174    0.9725 C   0  0  0  0  0  0  0  0  0  0  0  0
    4.9386    1.1629    2.2829 O   0  0  0  0  0  0  0  0  0  0  0  0
    4.5590    1.9247    0.0386 C   0  0  0  0  0  0  0  0  0  0  0  0
    3.3964    2.7347    0.4471 N   0  0  0  0  0  0  0  0  0  0  0  0
    2.3674    2.8262   -0.6004 C   0  0  0  0  0  0  0  0  0  0  0  0
    1.5578    1.5260   -0.7177 C   0  0  0  0  0  0  0  0  0  0  0  0
    0.7744    1.2186    0.5693 C   0  0  0  0  0  0  0  0  0  0  0  0
    0.1298   -0.1789    0.5564 C   0  0  0  0  0  0  0  0  0  0  0  0
   -0.9040   -0.4056   -0.5616 C   0  0  0  0  0  0  0  0  0  0  0  0
   -2.1072    0.5353   -0.4675 C   0  0  0  0  0  0  0  0  0  0  0  0
   -3.0791    0.1310   -1.4096 O   0  0  0  0  0  0  0  0  0  0  0  0
   -4.2724    0.8764   -1.2478 C   0  0  0  0  0  0  0  0  0  0  0  0
   -5.2748    0.1222   -0.3655 C   0  0  0  0  0  0  0  0  0  0  0  0
   -5.6707   -1.2302   -0.9796 C   0  0  0  0  0  0  0  0  0  0  0  0
   -6.6299   -2.0208   -0.0782 C   0  0  0  0  0  0  0  0  0  0  0  0
   -7.9812   -1.3608    0.0271 C   0  0  0  0  0  0  0  0  0  0  0  0
   -8.3132   -0.5929    1.1563 C   0  0  0  0  0  0  0  0  0  0  0  0
   -9.5591    0.0367    1.2383 C   0  0  0  0  0  0  0  0  0  0  0  0
  -10.4794   -0.0922    0.1945 C   0  0  0  0  0  0  0  0  0  0  0  0
  -10.1545   -0.8493   -0.9344 C   0  0  0  0  0  0  0  0  0  0  0  0
   -8.9096   -1.4802   -1.0208 C   0  0  0  0  0  0  0  0  0  0  0  0
   10.2262   -1.7705    1.6174 H   0  0  0  0  0  0  0  0  0  0  0  0
    9.7331    0.8506    0.6313 H   0  0  0  0  0  0  0  0  0  0  0  0
   10.3208   -0.5802   -0.2535 H   0  0  0  0  0  0  0  0  0  0  0  0
    8.7456   -3.5205   -1.3629 H   0  0  0  0  0  0  0  0  0  0  0  0
    6.3388   -3.0771   -1.2062 H   0  0  0  0  0  0  0  0  0  0  0  0
    4.5162   -1.6314   -0.4202 H   0  0  0  0  0  0  0  0  0  0  0  0
    7.3952    1.0851    1.2794 H   0  0  0  0  0  0  0  0  0  0  0  0
    3.7386    0.1516    0.9531 H   0  0  0  0  0  0  0  0  0  0  0  0
    4.7908    0.3837    2.8807 H   0  0  0  0  0  0  0  0  0  0  0  0
    5.4872    2.5385    0.0943 H   0  0  0  0  0  0  0  0  0  0  0  0
    4.4771    1.5663   -1.0133 H   0  0  0  0  0  0  0  0  0  0  0  0
    3.7270    3.7074    0.6503 H   0  0  0  0  0  0  0  0  0  0  0  0
    2.8261    3.0784   -1.5830 H   0  0  0  0  0  0  0  0  0  0  0  0
    1.6679    3.6551   -0.3520 H   0  0  0  0  0  0  0  0  0  0  0  0
    0.8446    1.6466   -1.5604 H   0  0  0  0  0  0  0  0  0  0  0  0
    2.2328    0.6795   -0.9663 H   0  0  0  0  0  0  0  0  0  0  0  0
    0.0025    1.9988    0.7391 H   0  0  0  0  0  0  0  0  0  0  0  0
    1.4659    1.2551    1.4384 H   0  0  0  0  0  0  0  0  0  0  0  0
    0.9319   -0.9426    0.4565 H   0  0  0  0  0  0  0  0  0  0  0  0
   -0.3598   -0.3521    1.5396 H   0  0  0  0  0  0  0  0  0  0  0  0
   -0.4259   -0.3082   -1.5591 H   0  0  0  0  0  0  0  0  0  0  0  0
   -1.2702   -1.4523   -0.4787 H   0  0  0  0  0  0  0  0  0  0  0  0
   -2.5137    0.4934    0.5688 H   0  0  0  0  0  0  0  0  0  0  0  0
   -1.7759    1.5722   -0.6973 H   0  0  0  0  0  0  0  0  0  0  0  0
   -4.1030    1.8988   -0.8332 H   0  0  0  0  0  0  0  0  0  0  0  0
   -4.7244    1.0267   -2.2514 H   0  0  0  0  0  0  0  0  0  0  0  0
   -4.8381   -0.0363    0.6437 H   0  0  0  0  0  0  0  0  0  0  0  0
   -6.1795    0.7569   -0.2508 H   0  0  0  0  0  0  0  0  0  0  0  0
   -4.7567   -1.8451   -1.1290 H   0  0  0  0  0  0  0  0  0  0  0  0
   -6.1379   -1.0705   -1.9763 H   0  0  0  0  0  0  0  0  0  0  0  0
   -6.7593   -3.0402   -0.5027 H   0  0  0  0  0  0  0  0  0  0  0  0
   -6.1768   -2.1515    0.9292 H   0  0  0  0  0  0  0  0  0  0  0  0
   -7.6067   -0.4780    1.9691 H   0  0  0  0  0  0  0  0  0  0  0  0
   -9.8102    0.6267    2.1103 H   0  0  0  0  0  0  0  0  0  0  0  0
  -11.4429    0.3965    0.2593 H   0  0  0  0  0  0  0  0  0  0  0  0
  -10.8667   -0.9456   -1.7438 H   0  0  0  0  0  0  0  0  0  0  0  0
   -8.6676   -2.0598   -1.9031 H   0  0  0  0  0  0  0  0  0  0  0  0
  1  2  1  0
  2  3  1  0
  3  4  2  0
  4  5  1  0
  4  6  1  0
  6  7  2  0
  7  8  1  0
  8  9  2  0
  8 10  1  0
 10 11  1  0
 10 12  1  0
 12 13  1  0
 13 14  1  0
 14 15  1  0
 15 16  1  0
 16 17  1  0
 17 18  1  0
 18 19  1  0
 19 20  1  0
 20 21  1  0
 21 22  1  0
 22 23  1  0
 23 24  1  0
 24 25  1  0
 25 26  2  0
 26 27  1  0
 27 28  2  0
 28 29  1  0
 29 30  2  0
  9  3  1  0
 30 25  1  0
  1 31  1  0
  2 32  1  0
  2 33  1  0
  5 34  1  0
  6 35  1  0
  7 36  1  0
  9 37  1  0
 10 38  1  0
 11 39  1  0
 12 40  1  0
 12 41  1  0
 13 42  1  0
 14 43  1  0
 14 44  1  0
 15 45  1  0
 15 46  1  0
 16 47  1  0
 16 48  1  0
 17 49  1  0
 17 50  1  0
 18 51  1  0
 18 52  1  0
 19 53  1  0
 19 54  1  0
 21 55  1  0
 21 56  1  0
 22 57  1  0
 22 58  1  0
 23 59  1  0
 23 60  1  0
 24 61  1  0
 24 62  1  0
 26 63  1  0
 27 64  1  0
 28 65  1  0
 29 66  1  0
 30 67  1  0
M  END
$$$$
