
     RDKit          3D

 37 41  0  0  0  0  0  0  0  0999 V2000
   -6.2603    0.8685    0.2227 O   0  0  0  0  0  0  0  0  0  0  0  0
   -5.1123    0.0795    0.2094 C   0  0  0  0  0  0  0  0  0  0  0  0
   -3.8383    0.6747    0.1008 C   0  0  0  0  0  0  0  0  0  0  0  0
   -2.7157   -0.1589    0.0898 C   0  0  0  0  0  0  0  0  0  0  0  0
   -2.8498   -1.5329    0.1949 C   0  0  0  0  0  0  0  0  0  0  0  0
   -1.6549   -2.1555    0.1845 N   0  0  0  0  0  0  0  0  0  0  0  0
   -0.7454   -1.1670    0.0706 C   0  0  0  0  0  0  0  0  0  0  0  0
    0.6459   -1.3301    0.0217 C   0  0  0  0  0  0  0  0  0  0  0  0
    1.4670   -0.1845   -0.0933 C   0  0  0  0  0  0  0  0  0  0  0  0
    0.8385    1.0820   -0.1751 C   0  0  0  0  0  0  0  0  0  0  0  0
    1.4052    2.4163   -0.3886 C   0  0  0  0  0  0  0  0  0  0  0  0
    2.6230    2.6859   -0.5583 O   0  0  0  0  0  0  0  0  0  0  0  0
    0.3726    3.3926   -0.4432 N   0  0  0  0  0  0  0  0  0  0  0  0
   -0.8362    2.6563   -0.2913 C   0  0  0  0  0  0  0  0  0  0  0  0
   -1.9713    3.1926   -0.3280 O   0  0  0  0  0  0  0  0  0  0  0  0
   -0.5477    1.2266   -0.1260 C   0  0  0  0  0  0  0  0  0  0  0  0
   -1.3493    0.0837    0.0059 C   0  0  0  0  0  0  0  0  0  0  0  0
    2.9366   -0.3359   -0.1130 C   0  0  0  0  0  0  0  0  0  0  0  0
    3.7328    0.3214    0.8400 C   0  0  0  0  0  0  0  0  0  0  0  0
    5.1214    0.1570    0.8319 C   0  0  0  0  0  0  0  0  0  0  0  0
    5.7231   -0.6714   -0.1193 C   0  0  0  0  0  0  0  0  0  0  0  0
    4.9367   -1.3403   -1.0613 C   0  0  0  0  0  0  0  0  0  0  0  0
    3.5477   -1.1786   -1.0566 C   0  0  0  0  0  0  0  0  0  0  0  0
   -4.0978   -2.1427    0.3036 C   0  0  0  0  0  0  0  0  0  0  0  0
   -5.2370   -1.3224    0.3079 C   0  0  0  0  0  0  0  0  0  0  0  0
   -6.2097    1.8782    0.1544 H   0  0  0  0  0  0  0  0  0  0  0  0
   -3.7594    1.7436    0.0398 H   0  0  0  0  0  0  0  0  0  0  0  0
   -1.4727   -3.1820    0.2529 H   0  0  0  0  0  0  0  0  0  0  0  0
    1.0789   -2.3208    0.0869 H   0  0  0  0  0  0  0  0  0  0  0  0
    0.4755    4.4172   -0.6154 H   0  0  0  0  0  0  0  0  0  0  0  0
    3.2779    0.9546    1.5919 H   0  0  0  0  0  0  0  0  0  0  0  0
    5.7306    0.6686    1.5658 H   0  0  0  0  0  0  0  0  0  0  0  0
    6.7979   -0.7983   -0.1237 H   0  0  0  0  0  0  0  0  0  0  0  0
    5.4033   -1.9852   -1.7946 H   0  0  0  0  0  0  0  0  0  0  0  0
    2.9500   -1.7023   -1.7926 H   0  0  0  0  0  0  0  0  0  0  0  0
   -4.1885   -3.2182    0.3845 H   0  0  0  0  0  0  0  0  0  0  0  0
   -6.2181   -1.7721    0.3916 H   0  0  0  0  0  0  0  0  0  0  0  0
  1  2  1  0
  2  3  2  0
  3  4  1  0
  4  5  2  0
  5  6  1  0
  6  7  1  0
  7  8  2  0
  8  9  1  0
  9 10  2  0
 10 11  1  0
 11 12  2  0
 11 13  1  0
 13 14  1  0
 14 15  2  0
 14 16  1  0
 16 17  2  0
  9 18  1  0
 18 19  2  0
 19 20  1  0
 20 21  2  0
 21 22  1  0
 22 23  2  0
  5 24  1  0
 24 25  2  0
 25  2  1  0
 17  4  1  0
 23 18  1  0
 17  7  1  0
 16 10  1  0
  1 26  1  0
  3 27  1  0
  6 28  1  0
  8 29  1  0
 13 30  1  0
 19 31  1  0
 20 32  1  0
 21 33  1  0
 22 34  1  0
 23 35  1  0
 24 36  1  0
 25 37  1  0
M  END
$$$$
