
     RDKit          3D

 45 47  0  0  0  0  0  0  0  0999 V2000
   -1.9494   -3.7995    2.3874 C   0  0  0  0  0  0  0  0  0  0  0  0
   -0.9273   -3.9814    1.2707 C   0  0  0  0  0  0  0  0  0  0  0  0
   -0.3369   -2.6627    0.8693 C   0  0  0  0  0  0  0  0  0  0  0  0
   -0.9566   -1.6659    0.1097 C   0  0  0  0  0  0  0  0  0  0  0  0
   -2.3046   -1.7003   -0.4957 C   0  0  0  0  0  0  0  0  0  0  0  0
   -2.6955   -2.7627   -1.0499 O   0  0  0  0  0  0  0  0  0  0  0  0
   -3.2074   -0.5257   -0.4610 C   0  0  0  0  0  0  0  0  0  0  0  0
   -4.1756   -0.3519   -1.4623 C   0  0  0  0  0  0  0  0  0  0  0  0
   -5.0348    0.7509   -1.4367 C   0  0  0  0  0  0  0  0  0  0  0  0
   -6.3293    0.9556   -2.8316 Br  0  0  0  0  0  0  0  0  0  0  0  0
   -4.9454    1.6938   -0.4025 C   0  0  0  0  0  0  0  0  0  0  0  0
   -5.8140    2.7868   -0.4058 O   0  0  0  0  0  0  0  0  0  0  0  0
   -3.9867    1.5183    0.6146 C   0  0  0  0  0  0  0  0  0  0  0  0
   -3.8081    2.7572    2.0657 Br  0  0  0  0  0  0  0  0  0  0  0  0
   -3.1319    0.4112    0.5838 C   0  0  0  0  0  0  0  0  0  0  0  0
   -0.0262   -0.6453    0.0471 C   0  0  0  0  0  0  0  0  0  0  0  0
    1.0647   -1.0680    0.7613 C   0  0  0  0  0  0  0  0  0  0  0  0
    0.8657   -2.2689    1.2475 O   0  0  0  0  0  0  0  0  0  0  0  0
    2.2022   -0.2775    0.9014 C   0  0  0  0  0  0  0  0  0  0  0  0
    2.2126    0.9862    0.2750 C   0  0  0  0  0  0  0  0  0  0  0  0
    1.0944    1.4101   -0.4817 C   0  0  0  0  0  0  0  0  0  0  0  0
   -0.0400    0.5888   -0.6045 C   0  0  0  0  0  0  0  0  0  0  0  0
    3.6285    2.0270    0.3924 S   0  0  0  0  0  6  0  0  0  0  0  0
    4.5141    1.5610    1.5159 O   0  0  0  0  0  0  0  0  0  0  0  0
    3.1707    3.4271    0.6936 O   0  0  0  0  0  0  0  0  0  0  0  0
    4.5072    2.0043   -1.1160 N   0  0  0  0  0  0  0  0  0  0  0  0
    4.9698    0.6384   -1.3933 C   0  0  0  0  0  0  0  0  0  0  0  0
    5.6553    2.9146   -1.0228 C   0  0  0  0  0  0  0  0  0  0  0  0
   -2.3550   -4.7895    2.6843 H   0  0  0  0  0  0  0  0  0  0  0  0
   -1.4715   -3.3299    3.2737 H   0  0  0  0  0  0  0  0  0  0  0  0
   -2.7908   -3.1606    2.0440 H   0  0  0  0  0  0  0  0  0  0  0  0
   -0.1157   -4.6509    1.6276 H   0  0  0  0  0  0  0  0  0  0  0  0
   -1.4064   -4.4684    0.3960 H   0  0  0  0  0  0  0  0  0  0  0  0
   -4.2566   -1.0656   -2.2730 H   0  0  0  0  0  0  0  0  0  0  0  0
   -5.8012    3.5018    0.3097 H   0  0  0  0  0  0  0  0  0  0  0  0
   -2.4133    0.2812    1.3833 H   0  0  0  0  0  0  0  0  0  0  0  0
    3.0517   -0.6363    1.4677 H   0  0  0  0  0  0  0  0  0  0  0  0
    1.1080    2.3713   -0.9795 H   0  0  0  0  0  0  0  0  0  0  0  0
   -0.8876    0.9078   -1.1958 H   0  0  0  0  0  0  0  0  0  0  0  0
    5.6234    0.2568   -0.5778 H   0  0  0  0  0  0  0  0  0  0  0  0
    5.5345    0.6129   -2.3502 H   0  0  0  0  0  0  0  0  0  0  0  0
    4.1001   -0.0416   -1.5107 H   0  0  0  0  0  0  0  0  0  0  0  0
    6.2128    2.9253   -1.9841 H   0  0  0  0  0  0  0  0  0  0  0  0
    5.3042    3.9516   -0.8363 H   0  0  0  0  0  0  0  0  0  0  0  0
    6.3481    2.6126   -0.2062 H   0  0  0  0  0  0  0  0  0  0  0  0
  1  2  1  0
  2  3  1  0
  3  4  2  0
  4  5  1  0
  5  6  2  0
  5  7  1  0
  7  8  2  0
  8  9  1  0
  9 10  1  0
  9 11  2  0
 11 12  1  0
 11 13  1  0
 13 14  1  0
 13 15  2  0
  4 16  1  0
 16 17  2  0
 17 18  1  0
 17 19  1  0
 19 20  2  0
 20 21  1  0
 21 22  2  0
 20 23  1  0
 23 24  2  0
 23 25  2  0
 23 26  1  0
 26 27  1  0
 26 28  1  0
 18  3  1  0
 15  7  1  0
 22 16  1  0
  1 29  1  0
  1 30  1  0
  1 31  1  0
  2 32  1  0
  2 33  1  0
  8 34  1  0
 12 35  1  0
 15 36  1  0
 19 37  1  0
 21 38  1  0
 22 39  1  0
 27 40  1  0
 27 41  1  0
 27 42  1  0
 28 43  1  0
 28 44  1  0
 28 45  1  0
M  END
$$$$
