
     RDKit          3D

 45 47  0  0  0  0  0  0  0  0999 V2000
   -6.4796    0.0819    2.7757 O   0  0  0  0  0  0  0  0  0  0  0  0
   -5.6755    1.0194    2.1328 C   0  0  0  0  0  0  0  0  0  0  0  0
   -5.9490    2.2452    2.2394 O   0  0  0  0  0  0  0  0  0  0  0  0
   -4.4755    0.5748    1.3869 C   0  0  0  0  0  0  0  0  0  0  0  0
   -3.9667    1.2661    0.2528 C   0  0  0  0  0  0  0  0  0  0  0  0
   -2.7489    0.8490   -0.3143 C   0  0  0  0  0  0  0  0  0  0  0  0
   -2.0647   -0.2705    0.1857 C   0  0  0  0  0  0  0  0  0  0  0  0
   -0.8478   -0.7027   -0.3620 O   0  0  0  0  0  0  0  0  0  0  0  0
   -0.4677   -0.5721   -1.7070 C   0  0  0  0  0  0  0  0  0  0  0  0
    0.8954   -0.4106   -2.0201 C   0  0  0  0  0  0  0  0  0  0  0  0
    1.8610   -0.3114   -0.9592 N   0  0  0  0  0  0  0  0  0  0  0  0
    3.1562   -0.9394   -0.9987 C   0  0  0  0  0  0  0  0  0  0  0  0
    3.4873   -1.6382   -1.9954 O   0  0  0  0  0  0  0  0  0  0  0  0
    4.1158   -0.7874    0.1210 C   0  0  0  0  0  0  0  0  0  0  0  0
    3.6724   -0.6282    1.4477 C   0  0  0  0  0  0  0  0  0  0  0  0
    4.5932   -0.4888    2.5042 C   0  0  0  0  0  0  0  0  0  0  0  0
    5.9684   -0.5189    2.2183 C   0  0  0  0  0  0  0  0  0  0  0  0
    6.4142   -0.6921    0.9071 C   0  0  0  0  0  0  0  0  0  0  0  0
    5.4964   -0.8303   -0.1352 C   0  0  0  0  0  0  0  0  0  0  0  0
    4.1372   -0.3251    3.8601 N   0  0  0  0  0  4  0  0  0  0  0  0
    5.0401   -0.2005    4.8912 O   0  0  0  0  0  1  0  0  0  0  0  0
    2.9169   -0.2899    4.1227 O   0  0  0  0  0  0  0  0  0  0  0  0
    1.2848   -0.2746   -3.3651 C   0  0  0  0  0  0  0  0  0  0  0  0
    0.3346   -0.3437   -4.3865 C   0  0  0  0  0  0  0  0  0  0  0  0
   -1.0114   -0.5425   -4.0777 C   0  0  0  0  0  0  0  0  0  0  0  0
   -1.4135   -0.6583   -2.7456 C   0  0  0  0  0  0  0  0  0  0  0  0
   -2.5830   -0.9544    1.2846 C   0  0  0  0  0  0  0  0  0  0  0  0
   -3.7771   -0.5426    1.8756 C   0  0  0  0  0  0  0  0  0  0  0  0
   -4.6914    2.3771   -0.4066 C   0  0  0  0  0  0  0  0  0  0  0  0
   -3.9787    3.3943   -1.0361 O   0  0  0  0  0  0  0  0  0  0  0  0
   -5.9509    2.3848   -0.4527 O   0  0  0  0  0  0  0  0  0  0  0  0
   -7.2920    0.3709    3.3075 H   0  0  0  0  0  0  0  0  0  0  0  0
   -2.3363    1.3903   -1.1563 H   0  0  0  0  0  0  0  0  0  0  0  0
    1.5748    0.2121   -0.1029 H   0  0  0  0  0  0  0  0  0  0  0  0
    2.6142   -0.6424    1.6693 H   0  0  0  0  0  0  0  0  0  0  0  0
    6.7001   -0.4143    3.0088 H   0  0  0  0  0  0  0  0  0  0  0  0
    7.4759   -0.7186    0.6976 H   0  0  0  0  0  0  0  0  0  0  0  0
    5.8660   -0.9579   -1.1453 H   0  0  0  0  0  0  0  0  0  0  0  0
    2.3188   -0.0899   -3.6247 H   0  0  0  0  0  0  0  0  0  0  0  0
    0.6423   -0.2400   -5.4191 H   0  0  0  0  0  0  0  0  0  0  0  0
   -1.7445   -0.6060   -4.8714 H   0  0  0  0  0  0  0  0  0  0  0  0
   -2.4587   -0.8320   -2.5255 H   0  0  0  0  0  0  0  0  0  0  0  0
   -2.0541   -1.8094    1.6866 H   0  0  0  0  0  0  0  0  0  0  0  0
   -4.1395   -1.0829    2.7418 H   0  0  0  0  0  0  0  0  0  0  0  0
   -4.4593    4.1497   -1.5100 H   0  0  0  0  0  0  0  0  0  0  0  0
  1  2  1  0
  2  3  2  0
  2  4  1  0
  4  5  2  0
  5  6  1  0
  6  7  2  0
  7  8  1  0
  8  9  1  0
  9 10  1  0
 10 11  1  0
 11 12  1  0
 12 13  2  0
 12 14  1  0
 14 15  2  0
 15 16  1  0
 16 17  2  0
 17 18  1  0
 18 19  2  0
 16 20  1  0
 20 21  1  0
 20 22  2  0
 10 23  2  0
 23 24  1  0
 24 25  2  0
 25 26  1  0
  7 27  1  0
 27 28  2  0
  5 29  1  0
 29 30  1  0
 29 31  2  0
 28  4  1  0
 26  9  2  0
 19 14  1  0
  1 32  1  0
  6 33  1  0
 11 34  1  0
 15 35  1  0
 17 36  1  0
 18 37  1  0
 19 38  1  0
 23 39  1  0
 24 40  1  0
 25 41  1  0
 26 42  1  0
 27 43  1  0
 28 44  1  0
 30 45  1  0
M  CHG  2  20   1  21  -1
M  END
$$$$
