
     RDKit          3D

 89 91  0  0  0  0  0  0  0  0999 V2000
    9.9044   -6.9824    3.0098 N   0  0  0  0  0  0  0  0  0  0  0  0
    9.4187   -5.7869    2.3989 C   0  0  0  0  0  0  0  0  0  0  0  0
    9.5979   -5.5909    1.0668 N   0  0  0  0  0  0  0  0  0  0  0  0
    9.1518   -4.4668    0.4504 C   0  0  0  0  0  0  0  0  0  0  0  0
    9.2846   -4.3579   -0.7968 O   0  0  0  0  0  0  0  0  0  0  0  0
    8.5166   -3.4629    1.2048 C   0  0  0  0  0  0  0  0  0  0  0  0
    8.2941   -3.7104    2.5679 C   0  0  0  0  0  0  0  0  0  0  0  0
    7.5345   -2.7710    3.3426 N   0  0  0  0  0  0  0  0  0  0  0  0
    7.1132   -1.4847    2.7863 C   0  0  0  0  0  0  0  0  0  0  0  0
    6.8541   -1.5913    1.2696 C   0  0  2  0  0  0  0  0  0  0  0  0
    5.5674   -2.3800    0.9521 C   0  0  0  0  0  0  0  0  0  0  0  0
    4.3775   -1.6650    1.4182 N   0  0  0  0  0  0  0  0  0  0  0  0
    3.8416   -0.4753    0.8054 C   0  0  0  0  0  0  0  0  0  0  0  0
    2.7976    0.2097    1.4442 C   0  0  0  0  0  0  0  0  0  0  0  0
    2.2501    1.3648    0.8794 C   0  0  0  0  0  0  0  0  0  0  0  0
    2.7309    1.8560   -0.3466 C   0  0  0  0  0  0  0  0  0  0  0  0
    3.7813    1.1747   -0.9843 C   0  0  0  0  0  0  0  0  0  0  0  0
    4.3276    0.0186   -0.4198 C   0  0  0  0  0  0  0  0  0  0  0  0
    2.1634    3.0824   -0.9569 C   0  0  0  0  0  0  0  0  0  0  0  0
    2.8642    3.7511   -1.7654 O   0  0  0  0  0  0  0  0  0  0  0  0
    0.8239    3.5084   -0.6559 N   0  0  0  0  0  0  0  0  0  0  0  0
    0.2583    4.7523   -1.1928 C   0  0  1  0  0  0  0  0  0  0  0  0
   -0.2697    4.5362   -2.6321 C   0  0  0  0  0  0  0  0  0  0  0  0
   -1.2352    3.3485   -2.8058 C   0  0  0  0  0  0  0  0  0  0  0  0
   -2.5679    3.5950   -2.1628 C   0  0  0  0  0  0  0  0  0  0  0  0
   -3.3761    4.3948   -2.7079 O   0  0  0  0  0  0  0  0  0  0  0  0
   -2.9086    2.9403   -0.9313 N   0  0  0  0  0  0  0  0  0  0  0  0
   -4.1659    3.1808   -0.2168 C   0  0  1  0  0  0  0  0  0  0  0  0
   -4.9966    1.8879   -0.1449 C   0  0  0  0  0  0  0  0  0  0  0  0
   -5.4480    1.4254   -1.5358 C   0  0  0  0  0  0  0  0  0  0  0  0
   -6.2881    0.1892   -1.4274 C   0  0  0  0  0  0  0  0  0  0  0  0
   -5.7451   -0.9392   -1.5688 O   0  0  0  0  0  0  0  0  0  0  0  0
   -7.6882    0.2980   -1.1195 N   0  0  0  0  0  0  0  0  0  0  0  0
   -8.5902   -0.8436   -0.9272 C   0  0  1  0  0  0  0  0  0  0  0  0
   -8.6675   -1.7130   -2.2059 C   0  0  0  0  0  0  0  0  0  0  0  0
   -9.9297   -2.5893   -2.2744 C   0  0  0  0  0  0  0  0  0  0  0  0
   -9.8925   -3.7166   -1.2899 C   0  0  0  0  0  0  0  0  0  0  0  0
  -10.6636   -3.6539   -0.1335 O   0  0  0  0  0  0  0  0  0  0  0  0
   -9.1482   -4.7120   -1.4976 O   0  0  0  0  0  0  0  0  0  0  0  0
   -8.1898   -1.6177    0.3012 C   0  0  0  0  0  0  0  0  0  0  0  0
   -8.8083   -1.3405    1.5163 O   0  0  0  0  0  0  0  0  0  0  0  0
   -7.2766   -2.4854    0.2500 O   0  0  0  0  0  0  0  0  0  0  0  0
   -3.8637    3.6895    1.1631 C   0  0  0  0  0  0  0  0  0  0  0  0
   -4.2996    4.9546    1.5447 O   0  0  0  0  0  0  0  0  0  0  0  0
   -3.2074    2.9813    1.9740 O   0  0  0  0  0  0  0  0  0  0  0  0
   -0.7880    5.3170   -0.2631 C   0  0  0  0  0  0  0  0  0  0  0  0
   -1.6847    6.2780   -0.7221 O   0  0  0  0  0  0  0  0  0  0  0  0
   -0.8066    4.9840    0.9529 O   0  0  0  0  0  0  0  0  0  0  0  0
    8.0082   -2.2385    0.6258 N   0  0  0  0  0  0  0  0  0  0  0  0
    8.7010   -1.5310   -0.4181 C   0  0  0  0  0  0  0  0  0  0  0  0
    9.9230   -1.7378   -0.6431 O   0  0  0  0  0  0  0  0  0  0  0  0
    8.7557   -4.8568    3.1392 N   0  0  0  0  0  0  0  0  0  0  0  0
    9.7681   -7.1537    4.0307 H   0  0  0  0  0  0  0  0  0  0  0  0
   10.4042   -7.7000    2.4394 H   0  0  0  0  0  0  0  0  0  0  0  0
    7.3329   -2.9729    4.3476 H   0  0  0  0  0  0  0  0  0  0  0  0
    6.2060   -1.1240    3.3168 H   0  0  0  0  0  0  0  0  0  0  0  0
    7.9223   -0.7433    2.9609 H   0  0  0  0  0  0  0  0  0  0  0  0
    6.7370   -0.5544    0.8847 H   0  0  0  0  0  0  0  0  0  0  0  0
    5.4881   -2.5753   -0.1382 H   0  0  0  0  0  0  0  0  0  0  0  0
    5.6086   -3.3748    1.4467 H   0  0  0  0  0  0  0  0  0  0  0  0
    3.8839   -2.0598    2.2511 H   0  0  0  0  0  0  0  0  0  0  0  0
    2.4120   -0.1474    2.3910 H   0  0  0  0  0  0  0  0  0  0  0  0
    1.4681    1.8813    1.4197 H   0  0  0  0  0  0  0  0  0  0  0  0
    4.1735    1.5290   -1.9297 H   0  0  0  0  0  0  0  0  0  0  0  0
    5.1254   -0.4806   -0.9507 H   0  0  0  0  0  0  0  0  0  0  0  0
    0.1803    2.8406   -0.1753 H   0  0  0  0  0  0  0  0  0  0  0  0
    1.0612    5.5201   -1.2420 H   0  0  0  0  0  0  0  0  0  0  0  0
    0.6065    4.3513   -3.2908 H   0  0  0  0  0  0  0  0  0  0  0  0
   -0.7458    5.4674   -3.0099 H   0  0  0  0  0  0  0  0  0  0  0  0
   -0.7800    2.4135   -2.4166 H   0  0  0  0  0  0  0  0  0  0  0  0
   -1.4012    3.1881   -3.8930 H   0  0  0  0  0  0  0  0  0  0  0  0
   -2.2360    2.2481   -0.5295 H   0  0  0  0  0  0  0  0  0  0  0  0
   -4.7710    3.9552   -0.7374 H   0  0  0  0  0  0  0  0  0  0  0  0
   -4.3977    1.0822    0.3359 H   0  0  0  0  0  0  0  0  0  0  0  0
   -5.8972    2.0707    0.4834 H   0  0  0  0  0  0  0  0  0  0  0  0
   -4.5618    1.2122   -2.1724 H   0  0  0  0  0  0  0  0  0  0  0  0
   -6.0385    2.2276   -2.0290 H   0  0  0  0  0  0  0  0  0  0  0  0
   -8.0911    1.2559   -1.0056 H   0  0  0  0  0  0  0  0  0  0  0  0
   -9.6075   -0.4329   -0.7393 H   0  0  0  0  0  0  0  0  0  0  0  0
   -7.7630   -2.3490   -2.3174 H   0  0  0  0  0  0  0  0  0  0  0  0
   -8.6918   -1.0333   -3.0859 H   0  0  0  0  0  0  0  0  0  0  0  0
  -10.0123   -3.0182   -3.2965 H   0  0  0  0  0  0  0  0  0  0  0  0
  -10.8366   -1.9696   -2.1042 H   0  0  0  0  0  0  0  0  0  0  0  0
  -10.6382   -4.4020    0.5489 H   0  0  0  0  0  0  0  0  0  0  0  0
   -8.5471   -1.8399    2.3580 H   0  0  0  0  0  0  0  0  0  0  0  0
   -4.0964    5.3172    2.4684 H   0  0  0  0  0  0  0  0  0  0  0  0
   -2.3784    6.6794   -0.1027 H   0  0  0  0  0  0  0  0  0  0  0  0
    8.1854   -0.7711   -0.9913 H   0  0  0  0  0  0  0  0  0  0  0  0
    8.5925   -5.0281    4.1570 H   0  0  0  0  0  0  0  0  0  0  0  0
  1  2  1  0
  2  3  2  0
  3  4  1  0
  4  5  2  0
  4  6  1  0
  6  7  2  0
  7  8  1  0
  8  9  1  0
  9 10  1  0
 10 11  1  0
 11 12  1  0
 12 13  1  0
 13 14  2  0
 14 15  1  0
 15 16  2  0
 16 17  1  0
 17 18  2  0
 16 19  1  0
 19 20  2  0
 19 21  1  0
 21 22  1  0
 22 23  1  0
 23 24  1  0
 24 25  1  0
 25 26  2  0
 25 27  1  0
 27 28  1  0
 28 29  1  0
 29 30  1  0
 30 31  1  0
 31 32  2  0
 31 33  1  0
 33 34  1  0
 34 35  1  0
 35 36  1  0
 36 37  1  0
 37 38  1  0
 37 39  2  0
 34 40  1  0
 40 41  1  0
 40 42  2  0
 28 43  1  0
 43 44  1  0
 43 45  2  0
 22 46  1  0
 46 47  1  0
 46 48  2  0
 10 49  1  0
 49 50  1  0
 50 51  2  0
  7 52  1  0
 52  2  1  0
 49  6  1  0
 18 13  1  0
  1 53  1  0
  1 54  1  0
  8 55  1  0
  9 56  1  0
  9 57  1  0
 10 58  1  6
 11 59  1  0
 11 60  1  0
 12 61  1  0
 14 62  1  0
 15 63  1  0
 17 64  1  0
 18 65  1  0
 21 66  1  0
 22 67  1  6
 23 68  1  0
 23 69  1  0
 24 70  1  0
 24 71  1  0
 27 72  1  0
 28 73  1  6
 29 74  1  0
 29 75  1  0
 30 76  1  0
 30 77  1  0
 33 78  1  0
 34 79  1  1
 35 80  1  0
 35 81  1  0
 36 82  1  0
 36 83  1  0
 38 84  1  0
 41 85  1  0
 44 86  1  0
 47 87  1  0
 50 88  1  0
 52 89  1  0
M  END
$$$$
