
     RDKit          3D

 42 42  0  0  0  0  0  0  0  0999 V2000
    5.7233    1.7274   -0.3907 O   0  0  0  0  0  0  0  0  0  0  0  0
    4.8928    1.9906    0.6940 C   0  0  0  0  0  0  0  0  0  0  0  0
    5.3326    1.8680    1.8686 O   0  0  0  0  0  0  0  0  0  0  0  0
    3.4672    2.3888    0.4643 C   0  0  0  0  0  0  0  0  0  0  0  0
    2.5052    1.2133    0.6796 C   0  0  0  0  0  0  0  0  0  0  0  0
    2.6449    0.1409   -0.4126 C   0  0  0  0  0  0  0  0  0  0  0  0
    1.7110   -1.0522   -0.1812 C   0  0  0  0  0  0  0  0  0  0  0  0
    0.2988   -0.6448   -0.3670 N   0  0  0  0  0  0  0  0  0  0  0  0
   -0.4732   -0.6580    0.8955 C   0  0  0  0  0  0  0  0  0  0  0  0
   -1.7788    0.0848    0.7537 C   0  0  0  0  0  0  0  0  0  0  0  0
   -1.7955    1.3989    0.2615 C   0  0  0  0  0  0  0  0  0  0  0  0
   -3.0017    2.0942    0.1411 C   0  0  0  0  0  0  0  0  0  0  0  0
   -4.2145    1.4913    0.5210 C   0  0  0  0  0  0  0  0  0  0  0  0
   -4.1919    0.1805    1.0278 C   0  0  0  0  0  0  0  0  0  0  0  0
   -2.9847   -0.5139    1.1478 C   0  0  0  0  0  0  0  0  0  0  0  0
   -5.4594    2.2031    0.3979 N   0  0  0  0  0  4  0  0  0  0  0  0
   -6.6439    1.6103    0.7714 O   0  0  0  0  0  1  0  0  0  0  0  0
   -5.4854    3.3682   -0.0504 O   0  0  0  0  0  0  0  0  0  0  0  0
   -0.3632   -1.3299   -1.5036 C   0  0  0  0  0  0  0  0  0  0  0  0
   -0.7342   -3.1035   -1.2082 P   0  0  0  0  0  5  0  0  0  0  0  0
   -0.9593   -3.8588   -2.7057 O   0  0  0  0  0  0  0  0  0  0  0  0
    0.5335   -3.8656   -0.3850 O   0  0  0  0  0  0  0  0  0  0  0  0
   -2.0052   -3.2300   -0.3992 O   0  0  0  0  0  0  0  0  0  0  0  0
    6.6860    1.4446   -0.2512 H   0  0  0  0  0  0  0  0  0  0  0  0
    3.2057    3.2033    1.1740 H   0  0  0  0  0  0  0  0  0  0  0  0
    3.3501    2.7930   -0.5646 H   0  0  0  0  0  0  0  0  0  0  0  0
    1.4707    1.6154    0.6640 H   0  0  0  0  0  0  0  0  0  0  0  0
    2.6818    0.7629    1.6814 H   0  0  0  0  0  0  0  0  0  0  0  0
    3.6900   -0.2370   -0.4256 H   0  0  0  0  0  0  0  0  0  0  0  0
    2.4294    0.5871   -1.4082 H   0  0  0  0  0  0  0  0  0  0  0  0
    2.0086   -1.8405   -0.9076 H   0  0  0  0  0  0  0  0  0  0  0  0
    1.8940   -1.4820    0.8301 H   0  0  0  0  0  0  0  0  0  0  0  0
    0.1034   -0.1436    1.6945 H   0  0  0  0  0  0  0  0  0  0  0  0
   -0.6307   -1.6987    1.2507 H   0  0  0  0  0  0  0  0  0  0  0  0
   -0.8747    1.8838   -0.0364 H   0  0  0  0  0  0  0  0  0  0  0  0
   -2.9853    3.1040   -0.2484 H   0  0  0  0  0  0  0  0  0  0  0  0
   -5.1073   -0.3084    1.3347 H   0  0  0  0  0  0  0  0  0  0  0  0
   -2.9936   -1.5192    1.5498 H   0  0  0  0  0  0  0  0  0  0  0  0
   -1.3093   -0.8090   -1.7596 H   0  0  0  0  0  0  0  0  0  0  0  0
    0.2800   -1.2518   -2.4066 H   0  0  0  0  0  0  0  0  0  0  0  0
   -1.1510   -4.8055   -2.4868 H   0  0  0  0  0  0  0  0  0  0  0  0
    0.2337   -4.8019   -0.2667 H   0  0  0  0  0  0  0  0  0  0  0  0
  1  2  1  0
  2  3  2  0
  2  4  1  0
  4  5  1  0
  5  6  1  0
  6  7  1  0
  7  8  1  0
  8  9  1  0
  9 10  1  0
 10 11  2  0
 11 12  1  0
 12 13  2  0
 13 14  1  0
 14 15  2  0
 13 16  1  0
 16 17  1  0
 16 18  2  0
  8 19  1  0
 19 20  1  0
 20 21  1  0
 20 22  1  0
 20 23  2  0
 15 10  1  0
  1 24  1  0
  4 25  1  0
  4 26  1  0
  5 27  1  0
  5 28  1  0
  6 29  1  0
  6 30  1  0
  7 31  1  0
  7 32  1  0
  9 33  1  0
  9 34  1  0
 11 35  1  0
 12 36  1  0
 14 37  1  0
 15 38  1  0
 19 39  1  0
 19 40  1  0
 21 41  1  0
 22 42  1  0
M  CHG  2  16   1  17  -1
M  END
$$$$
