
     RDKit          3D

 66 68  0  0  0  0  0  0  0  0999 V2000
   -0.1746    0.8493   -0.2627 C   0  0  1  0  0  0  0  0  0  0  0  0
    0.2006    2.3232   -0.4656 C   0  0  0  0  0  0  0  0  0  0  0  0
    0.9920    0.0333   -0.2972 O   0  0  0  0  0  0  0  0  0  0  0  0
    1.5899   -0.0966    0.9828 C   0  0  2  0  0  0  0  0  0  0  0  0
    2.8758   -0.6748    0.8482 O   0  0  0  0  0  0  0  0  0  0  0  0
    3.8017    0.2387    0.2757 C   0  0  2  0  0  0  0  0  0  0  0  0
    4.5633   -0.4630   -0.8738 C   0  0  1  0  0  0  0  0  0  0  0  0
    3.5989   -0.8786   -1.9908 C   0  0  0  0  0  0  0  0  0  0  0  0
    4.3125   -1.5020   -3.0225 O   0  0  0  0  0  0  0  0  0  0  0  0
    5.5435    0.4015   -1.4298 O   0  0  0  0  0  0  0  0  0  0  0  0
    6.5420    0.7421   -0.4794 C   0  0  2  0  0  0  0  0  0  0  0  0
    7.2483   -0.3958   -0.0506 O   0  0  0  0  0  0  0  0  0  0  0  0
    5.9361    1.4975    0.7196 C   0  0  2  0  0  0  0  0  0  0  0  0
    6.9255    1.7592    1.6812 O   0  0  0  0  0  0  0  0  0  0  0  0
    4.8097    0.6737    1.3557 C   0  0  1  0  0  0  0  0  0  0  0  0
    4.1676    1.4526    2.3324 O   0  0  0  0  0  0  0  0  0  0  0  0
    0.7101   -0.9919    1.8904 C   0  0  2  0  0  0  0  0  0  0  0  0
    1.0148   -2.3504    1.6894 O   0  0  0  0  0  0  0  0  0  0  0  0
   -0.7992   -0.7742    1.6127 C   0  0  1  0  0  0  0  0  0  0  0  0
   -1.5314   -0.9169    2.8027 O   0  0  0  0  0  0  0  0  0  0  0  0
   -1.0467    0.6294    1.0199 C   0  0  2  0  0  0  0  0  0  0  0  0
   -2.4841    0.9155    0.8090 N   0  0  0  0  0  0  0  0  0  0  0  0
   -3.1932    0.0332   -0.1499 C   0  0  1  0  0  0  0  0  0  0  0  0
   -4.1976   -0.8102    0.5983 C   0  0  0  0  0  0  0  0  0  0  0  0
   -5.3424   -1.2631    0.0412 C   0  0  0  0  0  0  0  0  0  0  0  0
   -6.2345   -2.1803    0.8441 C   0  0  0  0  0  0  0  0  0  0  0  0
   -6.6760   -1.5388    2.0098 O   0  0  0  0  0  0  0  0  0  0  0  0
   -5.8236   -0.7950   -1.3228 C   0  0  1  0  0  0  0  0  0  0  0  0
   -6.8996    0.0877   -1.1328 O   0  0  0  0  0  0  0  0  0  0  0  0
   -4.7193   -0.1087   -2.1597 C   0  0  2  0  0  0  0  0  0  0  0  0
   -3.9042   -1.0915   -2.7477 O   0  0  0  0  0  0  0  0  0  0  0  0
   -3.8719    0.8379   -1.2834 C   0  0  1  0  0  0  0  0  0  0  0  0
   -4.6842    1.8505   -0.7421 O   0  0  0  0  0  0  0  0  0  0  0  0
   -0.7623    0.5671   -1.1579 H   0  0  0  0  0  0  0  0  0  0  0  0
   -0.7139    2.9355   -0.6122 H   0  0  0  0  0  0  0  0  0  0  0  0
    0.8370    2.4263   -1.3701 H   0  0  0  0  0  0  0  0  0  0  0  0
    0.7595    2.7221    0.4060 H   0  0  0  0  0  0  0  0  0  0  0  0
    1.6823    0.8965    1.4855 H   0  0  0  0  0  0  0  0  0  0  0  0
    3.3234    1.1570   -0.1494 H   0  0  0  0  0  0  0  0  0  0  0  0
    5.0357   -1.3971   -0.4900 H   0  0  0  0  0  0  0  0  0  0  0  0
    3.0759    0.0206   -2.3886 H   0  0  0  0  0  0  0  0  0  0  0  0
    2.8413   -1.5890   -1.5906 H   0  0  0  0  0  0  0  0  0  0  0  0
    3.6436   -1.7379   -3.7167 H   0  0  0  0  0  0  0  0  0  0  0  0
    7.2584    1.4342   -0.9768 H   0  0  0  0  0  0  0  0  0  0  0  0
    7.6967   -0.7656   -0.8552 H   0  0  0  0  0  0  0  0  0  0  0  0
    5.5052    2.4599    0.3533 H   0  0  0  0  0  0  0  0  0  0  0  0
    7.4877    2.4938    1.3205 H   0  0  0  0  0  0  0  0  0  0  0  0
    5.2582   -0.2343    1.8274 H   0  0  0  0  0  0  0  0  0  0  0  0
    3.7473    0.8225    2.9744 H   0  0  0  0  0  0  0  0  0  0  0  0
    0.9215   -0.7106    2.9508 H   0  0  0  0  0  0  0  0  0  0  0  0
    1.7830   -2.5684    2.2797 H   0  0  0  0  0  0  0  0  0  0  0  0
   -1.1352   -1.5394    0.8766 H   0  0  0  0  0  0  0  0  0  0  0  0
   -1.5523   -1.8875    3.0107 H   0  0  0  0  0  0  0  0  0  0  0  0
   -0.6946    1.3464    1.7974 H   0  0  0  0  0  0  0  0  0  0  0  0
   -2.5790    1.9255    0.5530 H   0  0  0  0  0  0  0  0  0  0  0  0
   -2.4971   -0.6824   -0.6334 H   0  0  0  0  0  0  0  0  0  0  0  0
   -3.9238   -1.1588    1.5903 H   0  0  0  0  0  0  0  0  0  0  0  0
   -5.6626   -3.0893    1.1274 H   0  0  0  0  0  0  0  0  0  0  0  0
   -7.1088   -2.5154    0.2412 H   0  0  0  0  0  0  0  0  0  0  0  0
   -7.3587   -0.8758    1.7264 H   0  0  0  0  0  0  0  0  0  0  0  0
   -6.1802   -1.6911   -1.8839 H   0  0  0  0  0  0  0  0  0  0  0  0
   -7.4104    0.1095   -1.9841 H   0  0  0  0  0  0  0  0  0  0  0  0
   -5.2049    0.4845   -2.9700 H   0  0  0  0  0  0  0  0  0  0  0  0
   -3.3738   -0.6398   -3.4552 H   0  0  0  0  0  0  0  0  0  0  0  0
   -3.0732    1.2993   -1.9103 H   0  0  0  0  0  0  0  0  0  0  0  0
   -4.8756    2.4881   -1.4786 H   0  0  0  0  0  0  0  0  0  0  0  0
  1  2  1  0
  1  3  1  0
  3  4  1  0
  4  5  1  0
  5  6  1  0
  6  7  1  0
  7  8  1  0
  8  9  1  0
  7 10  1  0
 10 11  1  0
 11 12  1  0
 11 13  1  0
 13 14  1  0
 13 15  1  0
 15 16  1  0
  4 17  1  0
 17 18  1  0
 17 19  1  0
 19 20  1  0
 19 21  1  0
 21 22  1  0
 22 23  1  0
 23 24  1  0
 24 25  2  0
 25 26  1  0
 26 27  1  0
 25 28  1  0
 28 29  1  0
 28 30  1  0
 30 31  1  0
 30 32  1  0
 32 33  1  0
 21  1  1  0
 32 23  1  0
 15  6  1  0
  1 34  1  6
  2 35  1  0
  2 36  1  0
  2 37  1  0
  4 38  1  1
  6 39  1  6
  7 40  1  1
  8 41  1  0
  8 42  1  0
  9 43  1  0
 11 44  1  6
 12 45  1  0
 13 46  1  6
 14 47  1  0
 15 48  1  1
 16 49  1  0
 17 50  1  1
 18 51  1  0
 19 52  1  6
 20 53  1  0
 21 54  1  1
 22 55  1  0
 23 56  1  6
 24 57  1  0
 26 58  1  0
 26 59  1  0
 27 60  1  0
 28 61  1  6
 29 62  1  0
 30 63  1  6
 31 64  1  0
 32 65  1  6
 33 66  1  0
M  END
$$$$
