
     RDKit          3D

 41 40  0  0  0  0  0  0  0  0999 V2000
    0.0202    0.2848   -0.1657 C   0  0  1  0  0  0  0  0  0  0  0  0
    1.5418    0.0270   -0.0580 C   0  0  0  0  0  0  0  0  0  0  0  0
    1.9154   -1.1369    0.8886 C   0  0  0  0  0  0  0  0  0  0  0  0
    2.2315   -2.4560    0.1558 C   0  0  0  0  0  0  0  0  0  0  0  0
    3.6125   -2.4685   -0.5202 C   0  0  0  0  0  0  0  0  0  0  0  0
    4.7253   -2.4719    0.4826 C   0  0  0  0  0  0  0  0  0  0  0  0
    5.4276   -1.2995    0.7440 O   0  0  0  0  0  0  0  0  0  0  0  0
    5.0102   -3.5292    1.1063 O   0  0  0  0  0  0  0  0  0  0  0  0
   -0.2298    1.6460   -0.8481 C   0  0  0  0  0  0  0  0  0  0  0  0
   -1.7025    2.0684   -0.7942 C   0  0  0  0  0  0  0  0  0  0  0  0
   -1.9175    3.7097   -1.5755 S   0  0  0  0  0  0  0  0  0  0  0  0
   -2.0395    4.6785   -0.0304 C   0  0  0  0  0  0  0  0  0  0  0  0
   -0.7705    4.6557    0.6864 N   0  0  0  0  0  0  0  0  0  0  0  0
   -0.7875   -1.0407   -1.1500 S   0  0  0  0  0  0  0  0  0  0  0  0
   -1.4708   -2.1747    0.5323 S   0  0  0  0  0  0  0  0  0  0  0  0
   -3.1072   -1.3673    0.6112 C   0  0  0  0  0  0  0  0  0  0  0  0
   -4.0451   -1.8765   -0.4838 C   0  0  0  0  0  0  0  0  0  0  0  0
   -4.3336   -3.2359   -0.2947 O   0  0  0  0  0  0  0  0  0  0  0  0
   -0.4118    0.3360    0.8577 H   0  0  0  0  0  0  0  0  0  0  0  0
    1.9653   -0.1230   -1.0737 H   0  0  0  0  0  0  0  0  0  0  0  0
    2.0251    0.9422    0.3500 H   0  0  0  0  0  0  0  0  0  0  0  0
    2.7943   -0.8409    1.5007 H   0  0  0  0  0  0  0  0  0  0  0  0
    1.0980   -1.3163    1.6185 H   0  0  0  0  0  0  0  0  0  0  0  0
    1.4578   -2.6589   -0.6121 H   0  0  0  0  0  0  0  0  0  0  0  0
    2.1806   -3.2928    0.8867 H   0  0  0  0  0  0  0  0  0  0  0  0
    3.6962   -3.3848   -1.1437 H   0  0  0  0  0  0  0  0  0  0  0  0
    3.7262   -1.5991   -1.2005 H   0  0  0  0  0  0  0  0  0  0  0  0
    6.1749   -1.2831    1.4276 H   0  0  0  0  0  0  0  0  0  0  0  0
    0.3723    2.4278   -0.3376 H   0  0  0  0  0  0  0  0  0  0  0  0
    0.1040    1.6006   -1.9082 H   0  0  0  0  0  0  0  0  0  0  0  0
   -2.0641    2.0694    0.2558 H   0  0  0  0  0  0  0  0  0  0  0  0
   -2.3210    1.3466   -1.3669 H   0  0  0  0  0  0  0  0  0  0  0  0
   -2.8461    4.2651    0.6121 H   0  0  0  0  0  0  0  0  0  0  0  0
   -2.3071    5.7261   -0.2891 H   0  0  0  0  0  0  0  0  0  0  0  0
   -0.0636    5.1650    0.1080 H   0  0  0  0  0  0  0  0  0  0  0  0
   -0.8920    5.2075    1.5661 H   0  0  0  0  0  0  0  0  0  0  0  0
   -2.9916   -0.2675    0.5272 H   0  0  0  0  0  0  0  0  0  0  0  0
   -3.5562   -1.5825    1.6037 H   0  0  0  0  0  0  0  0  0  0  0  0
   -4.9963   -1.3064   -0.4274 H   0  0  0  0  0  0  0  0  0  0  0  0
   -3.6110   -1.6957   -1.4932 H   0  0  0  0  0  0  0  0  0  0  0  0
   -3.6144   -3.7481   -0.7482 H   0  0  0  0  0  0  0  0  0  0  0  0
  1  2  1  0
  2  3  1  0
  3  4  1  0
  4  5  1  0
  5  6  1  0
  6  7  1  0
  6  8  2  0
  1  9  1  0
  9 10  1  0
 10 11  1  0
 11 12  1  0
 12 13  1  0
  1 14  1  0
 14 15  1  0
 15 16  1  0
 16 17  1  0
 17 18  1  0
  1 19  1  1
  2 20  1  0
  2 21  1  0
  3 22  1  0
  3 23  1  0
  4 24  1  0
  4 25  1  0
  5 26  1  0
  5 27  1  0
  7 28  1  0
  9 29  1  0
  9 30  1  0
 10 31  1  0
 10 32  1  0
 12 33  1  0
 12 34  1  0
 13 35  1  0
 13 36  1  0
 16 37  1  0
 16 38  1  0
 17 39  1  0
 17 40  1  0
 18 41  1  0
M  END
$$$$
