
     RDKit          3D

 49 52  0  0  0  0  0  0  0  0999 V2000
   -4.8510    4.7401    1.0421 N   0  0  0  0  0  0  0  0  0  0  0  0
   -4.6129    3.8274   -0.0327 C   0  0  0  0  0  0  0  0  0  0  0  0
   -4.7263    4.2537   -1.2525 N   0  0  0  0  0  0  0  0  0  0  0  0
   -4.2325    2.4208    0.2520 C   0  0  0  0  0  0  0  0  0  0  0  0
   -4.6996    1.3698   -0.5575 C   0  0  0  0  0  0  0  0  0  0  0  0
   -4.3391    0.0478   -0.2815 C   0  0  0  0  0  0  0  0  0  0  0  0
   -3.5105   -0.2485    0.8108 C   0  0  0  0  0  0  0  0  0  0  0  0
   -3.0900   -1.6676    1.0885 C   0  0  0  0  0  0  0  0  0  0  0  0
   -1.8072   -1.9614    0.4363 N   0  0  0  0  0  0  0  0  0  0  0  0
   -0.5648   -1.5478    1.1033 C   0  0  0  0  0  0  0  0  0  0  0  0
    0.6537   -2.2454    0.4990 C   0  0  0  0  0  0  0  0  0  0  0  0
    0.6520   -2.0547   -0.9595 N   0  0  0  0  0  0  0  0  0  0  0  0
   -0.4633   -2.7972   -1.5681 C   0  0  0  0  0  0  0  0  0  0  0  0
   -1.7695   -2.4175   -0.9320 C   0  0  0  0  0  0  0  0  0  0  0  0
   -2.8365   -2.5763   -1.5844 O   0  0  0  0  0  0  0  0  0  0  0  0
    2.1605   -2.6251   -1.6277 S   0  0  0  0  0  6  0  0  0  0  0  0
    2.1194   -2.5540   -3.1286 O   0  0  0  0  0  0  0  0  0  0  0  0
    2.4014   -4.0490   -1.2069 O   0  0  0  0  0  0  0  0  0  0  0  0
    3.4750   -1.6165   -1.0541 C   0  0  0  0  0  0  0  0  0  0  0  0
    3.4432   -0.2264   -0.9857 C   0  0  0  0  0  0  0  0  0  0  0  0
    4.6313    0.3008   -0.4709 C   0  0  0  0  0  0  0  0  0  0  0  0
    5.5720   -0.6663   -0.1446 C   0  0  0  0  0  0  0  0  0  0  0  0
    4.9580   -2.1930   -0.4827 S   0  0  0  0  0  0  0  0  0  0  0  0
    6.8175   -0.3362    0.3839 C   0  0  0  0  0  0  0  0  0  0  0  0
    7.1141    1.0219    0.5862 C   0  0  0  0  0  0  0  0  0  0  0  0
    8.6698    1.4860    1.2496 Cl  0  0  0  0  0  0  0  0  0  0  0  0
    6.1658    2.0126    0.2586 C   0  0  0  0  0  0  0  0  0  0  0  0
    4.9154    1.6542   -0.2733 C   0  0  0  0  0  0  0  0  0  0  0  0
   -3.0414    0.7976    1.6190 C   0  0  0  0  0  0  0  0  0  0  0  0
   -3.4017    2.1199    1.3447 C   0  0  0  0  0  0  0  0  0  0  0  0
   -4.8569    4.4176    2.0349 H   0  0  0  0  0  0  0  0  0  0  0  0
   -5.0775    5.7402    0.8438 H   0  0  0  0  0  0  0  0  0  0  0  0
   -4.5468    3.6485   -2.0842 H   0  0  0  0  0  0  0  0  0  0  0  0
   -5.3594    1.5658   -1.3931 H   0  0  0  0  0  0  0  0  0  0  0  0
   -4.7139   -0.7445   -0.9169 H   0  0  0  0  0  0  0  0  0  0  0  0
   -3.0022   -1.8255    2.1858 H   0  0  0  0  0  0  0  0  0  0  0  0
   -3.8713   -2.3802    0.7443 H   0  0  0  0  0  0  0  0  0  0  0  0
   -0.6138   -1.7890    2.1873 H   0  0  0  0  0  0  0  0  0  0  0  0
   -0.4422   -0.4486    0.9940 H   0  0  0  0  0  0  0  0  0  0  0  0
    0.6379   -3.3278    0.7623 H   0  0  0  0  0  0  0  0  0  0  0  0
    1.5646   -1.7928    0.9477 H   0  0  0  0  0  0  0  0  0  0  0  0
   -0.3208   -3.8951   -1.4536 H   0  0  0  0  0  0  0  0  0  0  0  0
   -0.5144   -2.5597   -2.6529 H   0  0  0  0  0  0  0  0  0  0  0  0
    2.5948    0.3729   -1.2908 H   0  0  0  0  0  0  0  0  0  0  0  0
    7.5355   -1.1074    0.6317 H   0  0  0  0  0  0  0  0  0  0  0  0
    6.3982    3.0579    0.4165 H   0  0  0  0  0  0  0  0  0  0  0  0
    4.1884    2.4165   -0.5237 H   0  0  0  0  0  0  0  0  0  0  0  0
   -2.3915    0.5900    2.4601 H   0  0  0  0  0  0  0  0  0  0  0  0
   -3.0116    2.9084    1.9756 H   0  0  0  0  0  0  0  0  0  0  0  0
  1  2  1  0
  2  3  2  3
  2  4  1  0
  4  5  2  0
  5  6  1  0
  6  7  2  0
  7  8  1  0
  8  9  1  0
  9 10  1  0
 10 11  1  0
 11 12  1  0
 12 13  1  0
 13 14  1  0
 14 15  2  0
 12 16  1  0
 16 17  2  0
 16 18  2  0
 16 19  1  0
 19 20  2  0
 20 21  1  0
 21 22  2  0
 22 23  1  0
 22 24  1  0
 24 25  2  0
 25 26  1  0
 25 27  1  0
 27 28  2  0
  7 29  1  0
 29 30  2  0
 30  4  1  0
 14  9  1  0
 23 19  1  0
 28 21  1  0
  1 31  1  0
  1 32  1  0
  3 33  1  0
  5 34  1  0
  6 35  1  0
  8 36  1  0
  8 37  1  0
 10 38  1  0
 10 39  1  0
 11 40  1  0
 11 41  1  0
 13 42  1  0
 13 43  1  0
 20 44  1  0
 24 45  1  0
 27 46  1  0
 28 47  1  0
 29 48  1  0
 30 49  1  0
M  END
$$$$
