
     RDKit          3D

 32 33  0  0  0  0  0  0  0  0999 V2000
    0.4758    2.3353   -1.1064 C   0  0  0  0  0  0  0  0  0  0  0  0
    0.5502    0.8930   -1.3939 N   0  0  0  0  0  0  0  0  0  0  0  0
    0.2506   -0.0291   -0.2644 C   0  0  0  0  0  0  0  0  0  0  0  0
    1.0383    0.4068    1.0170 C   0  0  0  0  0  0  0  0  0  0  0  0
    2.5752    0.3806    0.8492 C   0  0  0  0  0  0  0  0  0  0  0  0
    3.0848   -0.6824   -0.1434 C   0  0  0  0  0  0  0  0  0  0  0  0
    2.1305   -1.8707   -0.2758 C   0  0  0  0  0  0  0  0  0  0  0  0
    0.7690   -1.3919   -0.7066 C   0  0  0  0  0  0  0  0  0  0  0  0
    0.0999   -2.0914   -1.4542 O   0  0  0  0  0  0  0  0  0  0  0  0
   -1.2725   -0.1409    0.0522 C   0  0  0  0  0  0  0  0  0  0  0  0
   -2.2248    0.6816   -0.6058 C   0  0  0  0  0  0  0  0  0  0  0  0
   -3.5851    0.6108   -0.3027 C   0  0  0  0  0  0  0  0  0  0  0  0
   -4.0462   -0.2915    0.6468 C   0  0  0  0  0  0  0  0  0  0  0  0
   -3.1513   -1.1447    1.2823 C   0  0  0  0  0  0  0  0  0  0  0  0
   -1.7817   -1.0941    0.9921 C   0  0  0  0  0  0  0  0  0  0  0  0
   -0.7930   -2.3126    1.7993 Cl  0  0  0  0  0  0  0  0  0  0  0  0
    0.2443    2.8937   -2.0387 H   0  0  0  0  0  0  0  0  0  0  0  0
    1.4583    2.6950   -0.7413 H   0  0  0  0  0  0  0  0  0  0  0  0
   -0.2995    2.5801   -0.3515 H   0  0  0  0  0  0  0  0  0  0  0  0
   -0.0285    0.6566   -2.2341 H   0  0  0  0  0  0  0  0  0  0  0  0
    0.7987   -0.2619    1.8638 H   0  0  0  0  0  0  0  0  0  0  0  0
    0.7224    1.4130    1.3626 H   0  0  0  0  0  0  0  0  0  0  0  0
    2.9348    1.3778    0.5191 H   0  0  0  0  0  0  0  0  0  0  0  0
    3.0345    0.1945    1.8450 H   0  0  0  0  0  0  0  0  0  0  0  0
    3.2135   -0.2149   -1.1449 H   0  0  0  0  0  0  0  0  0  0  0  0
    4.0838   -1.0454    0.1815 H   0  0  0  0  0  0  0  0  0  0  0  0
    2.5391   -2.5787   -1.0294 H   0  0  0  0  0  0  0  0  0  0  0  0
    2.0480   -2.4033    0.6955 H   0  0  0  0  0  0  0  0  0  0  0  0
   -1.9505    1.3852   -1.3737 H   0  0  0  0  0  0  0  0  0  0  0  0
   -4.2867    1.2576   -0.8142 H   0  0  0  0  0  0  0  0  0  0  0  0
   -5.1026   -0.3441    0.8768 H   0  0  0  0  0  0  0  0  0  0  0  0
   -3.5295   -1.8642    1.9980 H   0  0  0  0  0  0  0  0  0  0  0  0
  1  2  1  0
  2  3  1  0
  3  4  1  0
  4  5  1  0
  5  6  1  0
  6  7  1  0
  7  8  1  0
  8  9  2  0
  3 10  1  0
 10 11  2  0
 11 12  1  0
 12 13  2  0
 13 14  1  0
 14 15  2  0
 15 16  1  0
  8  3  1  0
 15 10  1  0
  1 17  1  0
  1 18  1  0
  1 19  1  0
  2 20  1  0
  4 21  1  0
  4 22  1  0
  5 23  1  0
  5 24  1  0
  6 25  1  0
  6 26  1  0
  7 27  1  0
  7 28  1  0
 11 29  1  0
 12 30  1  0
 13 31  1  0
 14 32  1  0
M  END
$$$$
