
     RDKit          3D

 24 24  0  0  0  0  0  0  0  0999 V2000
    3.2627    1.0916   -0.7529 O   0  0  0  0  0  0  0  0  0  0  0  0
    2.1111    1.3824   -0.0055 C   0  0  0  0  0  0  0  0  0  0  0  0
    0.8811    0.7076   -0.6271 C   0  0  2  0  0  0  0  0  0  0  0  0
   -0.2836    1.2074   -0.0009 O   0  0  0  0  0  0  0  0  0  0  0  0
   -1.1817    0.1343    0.1681 C   0  0  1  0  0  0  0  0  0  0  0  0
   -1.9289    0.3567    1.3402 O   0  0  0  0  0  0  0  0  0  0  0  0
   -2.1354    0.0772   -1.0502 C   0  0  0  0  0  0  0  0  0  0  0  0
   -2.8198    1.2926   -1.1987 O   0  0  0  0  0  0  0  0  0  0  0  0
   -0.3411   -1.1484    0.2878 C   0  0  2  0  0  0  0  0  0  0  0  0
   -0.0332   -1.4494    1.6303 O   0  0  0  0  0  0  0  0  0  0  0  0
    0.9202   -0.8237   -0.4911 C   0  0  1  0  0  0  0  0  0  0  0  0
    0.8810   -1.4160   -1.7647 O   0  0  0  0  0  0  0  0  0  0  0  0
    3.6759    0.2848   -0.3490 H   0  0  0  0  0  0  0  0  0  0  0  0
    1.9610    2.4830   -0.0185 H   0  0  0  0  0  0  0  0  0  0  0  0
    2.2304    1.0769    1.0603 H   0  0  0  0  0  0  0  0  0  0  0  0
    0.8411    0.9969   -1.7019 H   0  0  0  0  0  0  0  0  0  0  0  0
   -2.5398   -0.4180    1.4578 H   0  0  0  0  0  0  0  0  0  0  0  0
   -1.5547   -0.1089   -1.9784 H   0  0  0  0  0  0  0  0  0  0  0  0
   -2.8587   -0.7637   -0.9411 H   0  0  0  0  0  0  0  0  0  0  0  0
   -3.5725    1.2780   -0.5517 H   0  0  0  0  0  0  0  0  0  0  0  0
   -0.8733   -2.0249   -0.1447 H   0  0  0  0  0  0  0  0  0  0  0  0
    0.4320   -0.6646    2.0243 H   0  0  0  0  0  0  0  0  0  0  0  0
    1.8262   -1.1754    0.0574 H   0  0  0  0  0  0  0  0  0  0  0  0
    1.0999   -2.3763   -1.6390 H   0  0  0  0  0  0  0  0  0  0  0  0
  1  2  1  0
  2  3  1  0
  3  4  1  0
  4  5  1  0
  5  6  1  1
  5  7  1  0
  7  8  1  0
  5  9  1  0
  9 10  1  0
  9 11  1  0
 11 12  1  0
 11  3  1  0
  1 13  1  0
  2 14  1  0
  2 15  1  0
  3 16  1  6
  6 17  1  0
  7 18  1  0
  7 19  1  0
  8 20  1  0
  9 21  1  6
 10 22  1  0
 11 23  1  1
 12 24  1  0
M  END
$$$$
