
     RDKit          3D

 34 36  0  0  0  0  0  0  0  0999 V2000
   -3.2318    2.5029   -0.6180 C   0  0  0  0  0  0  0  0  0  0  0  0
   -3.5648    1.1534    0.0099 C   0  0  0  0  0  0  0  0  0  0  0  0
   -2.3247    0.5065    0.5741 C   0  0  0  0  0  0  0  0  0  0  0  0
   -1.8869    0.7979    1.8792 C   0  0  0  0  0  0  0  0  0  0  0  0
   -2.6142    1.6747    2.6843 O   0  0  0  0  0  0  0  0  0  0  0  0
   -0.7180    0.2037    2.3717 C   0  0  0  0  0  0  0  0  0  0  0  0
    0.0319   -0.6670    1.5755 C   0  0  0  0  0  0  0  0  0  0  0  0
    1.1654   -1.2633    2.1317 O   0  0  0  0  0  0  0  0  0  0  0  0
   -0.3775   -0.9273    0.2493 C   0  0  0  0  0  0  0  0  0  0  0  0
   -1.5609   -0.3507   -0.2334 C   0  0  0  0  0  0  0  0  0  0  0  0
    0.3990   -1.8005   -0.6479 C   0  0  0  0  0  0  0  0  0  0  0  0
   -0.1004   -2.9338   -1.1792 N   0  0  0  0  0  0  0  0  0  0  0  0
    0.8534   -3.4920   -1.9069 N   0  0  0  0  0  0  0  0  0  0  0  0
    1.9644   -2.7361   -1.8615 C   0  0  0  0  0  0  0  0  0  0  0  0
    1.7119   -1.6318   -1.0735 C   0  0  0  0  0  0  0  0  0  0  0  0
    2.6487   -0.5209   -0.8217 C   0  0  0  0  0  0  0  0  0  0  0  0
    2.3371    0.7465   -0.3727 C   0  0  0  0  0  0  0  0  0  0  0  0
    3.4744    1.4546   -0.3132 N   0  0  0  0  0  0  0  0  0  0  0  0
    4.4434    0.6188   -0.7288 C   0  0  0  0  0  0  0  0  0  0  0  0
    3.9744   -0.6031   -1.0563 N   0  0  0  0  0  0  0  0  0  0  0  0
   -2.8069    3.1897    0.1448 H   0  0  0  0  0  0  0  0  0  0  0  0
   -2.4989    2.3733   -1.4430 H   0  0  0  0  0  0  0  0  0  0  0  0
   -4.1559    2.9590   -1.0314 H   0  0  0  0  0  0  0  0  0  0  0  0
   -4.0233    0.4966   -0.7613 H   0  0  0  0  0  0  0  0  0  0  0  0
   -4.3256    1.2946    0.8076 H   0  0  0  0  0  0  0  0  0  0  0  0
   -2.3183    1.9002    3.6268 H   0  0  0  0  0  0  0  0  0  0  0  0
   -0.3922    0.4140    3.3828 H   0  0  0  0  0  0  0  0  0  0  0  0
    1.7215   -1.9516    1.6412 H   0  0  0  0  0  0  0  0  0  0  0  0
   -1.8785   -0.5537   -1.2500 H   0  0  0  0  0  0  0  0  0  0  0  0
    0.7409   -4.3847   -2.4359 H   0  0  0  0  0  0  0  0  0  0  0  0
    2.8836   -2.9625   -2.3861 H   0  0  0  0  0  0  0  0  0  0  0  0
    1.3601    1.1435   -0.1360 H   0  0  0  0  0  0  0  0  0  0  0  0
    3.5827    2.4507   -0.0204 H   0  0  0  0  0  0  0  0  0  0  0  0
    5.4862    0.8982   -0.8016 H   0  0  0  0  0  0  0  0  0  0  0  0
  1  2  1  0
  2  3  1  0
  3  4  2  0
  4  5  1  0
  4  6  1  0
  6  7  2  0
  7  8  1  0
  7  9  1  0
  9 10  2  0
  9 11  1  0
 11 12  2  0
 12 13  1  0
 13 14  1  0
 14 15  2  0
 15 16  1  0
 16 17  2  0
 17 18  1  0
 18 19  1  0
 19 20  2  0
 10  3  1  0
 15 11  1  0
 20 16  1  0
  1 21  1  0
  1 22  1  0
  1 23  1  0
  2 24  1  0
  2 25  1  0
  5 26  1  0
  6 27  1  0
  8 28  1  0
 10 29  1  0
 13 30  1  0
 14 31  1  0
 17 32  1  0
 18 33  1  0
 19 34  1  0
M  END
$$$$
