
     RDKit          3D

 51 53  0  0  0  0  0  0  0  0999 V2000
   -4.3628   -2.6832    0.1674 C   0  0  0  0  0  0  0  0  0  0  0  0
   -4.6192   -1.2674   -0.4030 C   0  0  0  0  0  0  0  0  0  0  0  0
   -4.6342   -1.3781   -1.9431 C   0  0  0  0  0  0  0  0  0  0  0  0
   -6.0077   -0.8072    0.0919 C   0  0  0  0  0  0  0  0  0  0  0  0
   -3.5525   -0.2395    0.0274 C   0  0  0  0  0  0  0  0  0  0  0  0
   -3.6547    1.0991   -0.4146 C   0  0  0  0  0  0  0  0  0  0  0  0
   -2.7021    2.0546   -0.0532 C   0  0  0  0  0  0  0  0  0  0  0  0
   -1.6217    1.7000    0.7589 C   0  0  0  0  0  0  0  0  0  0  0  0
   -1.5044    0.3839    1.2122 C   0  0  0  0  0  0  0  0  0  0  0  0
   -2.4535   -0.5766    0.8534 C   0  0  0  0  0  0  0  0  0  0  0  0
   -0.3873    2.8817    1.1853 S   0  0  0  0  0  6  0  0  0  0  0  0
   -0.5784    4.1575    0.4137 O   0  0  0  0  0  0  0  0  0  0  0  0
   -0.4900    3.1764    2.6551 O   0  0  0  0  0  0  0  0  0  0  0  0
    1.1827    2.2335    0.8350 N   0  0  0  0  0  0  0  0  0  0  0  0
    1.4363    1.4064   -0.3145 C   0  0  0  0  0  0  0  0  0  0  0  0
    2.3808    0.3531   -0.2535 C   0  0  0  0  0  0  0  0  0  0  0  0
    2.6327   -0.4164   -1.4031 C   0  0  0  0  0  0  0  0  0  0  0  0
    1.9666   -0.1453   -2.6003 C   0  0  0  0  0  0  0  0  0  0  0  0
    2.2900   -1.1174   -4.0241 Cl  0  0  0  0  0  0  0  0  0  0  0  0
    1.0387    0.8944   -2.6616 C   0  0  0  0  0  0  0  0  0  0  0  0
    0.7765    1.6669   -1.5294 C   0  0  0  0  0  0  0  0  0  0  0  0
    3.0535   -0.0110    1.0156 C   0  0  0  0  0  0  0  0  0  0  0  0
    2.3528   -0.1461    2.0558 O   0  0  0  0  0  0  0  0  0  0  0  0
    4.5179   -0.2461    1.0894 C   0  0  0  0  0  0  0  0  0  0  0  0
    5.3922    0.3058    0.1377 C   0  0  0  0  0  0  0  0  0  0  0  0
    6.7657    0.0743    0.2413 C   0  0  0  0  0  0  0  0  0  0  0  0
    7.2614   -0.6769    1.2623 N   0  0  0  0  0  4  0  0  0  0  0  0
    8.6174   -0.8926    1.3462 O   0  0  0  0  0  1  0  0  0  0  0  0
    6.4392   -1.2143    2.2044 C   0  0  0  0  0  0  0  0  0  0  0  0
    5.0594   -1.0067    2.1381 C   0  0  0  0  0  0  0  0  0  0  0  0
   -4.3726   -2.6702    1.2789 H   0  0  0  0  0  0  0  0  0  0  0  0
   -3.3882   -3.0829   -0.1874 H   0  0  0  0  0  0  0  0  0  0  0  0
   -5.1533   -3.3911   -0.1645 H   0  0  0  0  0  0  0  0  0  0  0  0
   -5.3664   -2.1454   -2.2763 H   0  0  0  0  0  0  0  0  0  0  0  0
   -4.9208   -0.4171   -2.4189 H   0  0  0  0  0  0  0  0  0  0  0  0
   -3.6290   -1.6676   -2.3193 H   0  0  0  0  0  0  0  0  0  0  0  0
   -6.3067    0.1576   -0.3683 H   0  0  0  0  0  0  0  0  0  0  0  0
   -6.7874   -1.5553   -0.1695 H   0  0  0  0  0  0  0  0  0  0  0  0
   -6.0015   -0.6803    1.1962 H   0  0  0  0  0  0  0  0  0  0  0  0
   -4.4726    1.4134   -1.0483 H   0  0  0  0  0  0  0  0  0  0  0  0
   -2.8075    3.0689   -0.4157 H   0  0  0  0  0  0  0  0  0  0  0  0
   -0.6688    0.0975    1.8386 H   0  0  0  0  0  0  0  0  0  0  0  0
   -2.3059   -1.5773    1.2302 H   0  0  0  0  0  0  0  0  0  0  0  0
    1.9263    2.3672    1.5554 H   0  0  0  0  0  0  0  0  0  0  0  0
    3.3350   -1.2405   -1.3639 H   0  0  0  0  0  0  0  0  0  0  0  0
    0.5222    1.1090   -3.5886 H   0  0  0  0  0  0  0  0  0  0  0  0
    0.0687    2.4804   -1.6102 H   0  0  0  0  0  0  0  0  0  0  0  0
    5.0227    0.9225   -0.6716 H   0  0  0  0  0  0  0  0  0  0  0  0
    7.4365    0.5005   -0.4943 H   0  0  0  0  0  0  0  0  0  0  0  0
    6.8525   -1.8066    3.0114 H   0  0  0  0  0  0  0  0  0  0  0  0
    4.4216   -1.4456    2.8953 H   0  0  0  0  0  0  0  0  0  0  0  0
  1  2  1  0
  2  3  1  0
  2  4  1  0
  2  5  1  0
  5  6  2  0
  6  7  1  0
  7  8  2  0
  8  9  1  0
  9 10  2  0
  8 11  1  0
 11 12  2  0
 11 13  2  0
 11 14  1  0
 14 15  1  0
 15 16  1  0
 16 17  2  0
 17 18  1  0
 18 19  1  0
 18 20  2  0
 20 21  1  0
 16 22  1  0
 22 23  2  0
 22 24  1  0
 24 25  2  0
 25 26  1  0
 26 27  2  0
 27 28  1  0
 27 29  1  0
 29 30  2  0
 10  5  1  0
 21 15  2  0
 30 24  1  0
  1 31  1  0
  1 32  1  0
  1 33  1  0
  3 34  1  0
  3 35  1  0
  3 36  1  0
  4 37  1  0
  4 38  1  0
  4 39  1  0
  6 40  1  0
  7 41  1  0
  9 42  1  0
 10 43  1  0
 14 44  1  0
 17 45  1  0
 20 46  1  0
 21 47  1  0
 25 48  1  0
 26 49  1  0
 29 50  1  0
 30 51  1  0
M  CHG  2  27   1  28  -1
M  END
$$$$
