
     RDKit          3D

 35 37  0  0  0  0  0  0  0  0999 V2000
    4.2430    1.5529    1.5001 O   0  0  0  0  0  0  0  0  0  0  0  0
    3.9577    1.0348    0.2286 C   0  0  0  0  0  0  0  0  0  0  0  0
    3.3557   -0.3735    0.3461 C   0  0  1  0  0  0  0  0  0  0  0  0
    2.1503   -0.3086    1.0808 O   0  0  0  0  0  0  0  0  0  0  0  0
    1.1023   -0.7323    0.2368 C   0  0  2  0  0  0  0  0  0  0  0  0
    1.5993   -0.7572   -1.1973 C   0  0  0  0  0  0  0  0  0  0  0  0
    3.0734   -0.9783   -1.0336 C   0  0  2  0  0  0  0  0  0  0  0  0
    3.3448   -2.3564   -1.0291 O   0  0  0  0  0  0  0  0  0  0  0  0
   -0.0518    0.1604    0.3708 N   0  0  0  0  0  0  0  0  0  0  0  0
   -0.0282    1.4921    0.5835 C   0  0  0  0  0  0  0  0  0  0  0  0
   -1.2578    2.0462    0.5401 N   0  0  0  0  0  0  0  0  0  0  0  0
   -2.0903    1.0122    0.2894 C   0  0  0  0  0  0  0  0  0  0  0  0
   -1.3448   -0.1482    0.1668 C   0  0  0  0  0  0  0  0  0  0  0  0
   -1.7816   -1.4662   -0.2044 N   0  0  0  0  0  0  0  0  0  0  0  0
   -2.9811   -1.9312   -0.4026 C   0  0  0  0  0  0  0  0  0  0  0  0
   -4.1806   -1.1644   -0.2388 N   0  0  0  0  0  0  0  0  0  0  0  0
   -4.3116   -0.0235    0.6568 C   0  0  0  0  0  0  0  0  0  0  0  0
   -3.5669    1.1786    0.0903 C   0  0  1  0  0  0  0  0  0  0  0  0
   -4.0100    2.3361    0.7514 O   0  0  0  0  0  0  0  0  0  0  0  0
    3.3915    1.9159    1.8589 H   0  0  0  0  0  0  0  0  0  0  0  0
    3.2644    1.7113   -0.3230 H   0  0  0  0  0  0  0  0  0  0  0  0
    4.9075    0.9816   -0.3452 H   0  0  0  0  0  0  0  0  0  0  0  0
    4.0785   -1.0117    0.9014 H   0  0  0  0  0  0  0  0  0  0  0  0
    0.8122   -1.7626    0.5427 H   0  0  0  0  0  0  0  0  0  0  0  0
    1.4243    0.2252   -1.6911 H   0  0  0  0  0  0  0  0  0  0  0  0
    1.1101   -1.5607   -1.7908 H   0  0  0  0  0  0  0  0  0  0  0  0
    3.6358   -0.4796   -1.8584 H   0  0  0  0  0  0  0  0  0  0  0  0
    4.3291   -2.4497   -1.1190 H   0  0  0  0  0  0  0  0  0  0  0  0
    0.8759    2.0640    0.7464 H   0  0  0  0  0  0  0  0  0  0  0  0
   -3.0765   -2.9543   -0.7411 H   0  0  0  0  0  0  0  0  0  0  0  0
   -5.0568   -1.5608   -0.6476 H   0  0  0  0  0  0  0  0  0  0  0  0
   -3.9384   -0.2886    1.6711 H   0  0  0  0  0  0  0  0  0  0  0  0
   -5.3901    0.2318    0.7534 H   0  0  0  0  0  0  0  0  0  0  0  0
   -3.7817    1.2595   -1.0013 H   0  0  0  0  0  0  0  0  0  0  0  0
   -3.8076    3.1050    0.1561 H   0  0  0  0  0  0  0  0  0  0  0  0
  1  2  1  0
  2  3  1  0
  3  4  1  0
  4  5  1  0
  5  6  1  0
  6  7  1  0
  7  8  1  0
  5  9  1  0
  9 10  1  0
 10 11  2  0
 11 12  1  0
 12 13  2  0
 13 14  1  0
 14 15  2  0
 15 16  1  0
 16 17  1  0
 17 18  1  0
 18 19  1  0
  7  3  1  0
 13  9  1  0
 18 12  1  0
  1 20  1  0
  2 21  1  0
  2 22  1  0
  3 23  1  1
  5 24  1  1
  6 25  1  0
  6 26  1  0
  7 27  1  6
  8 28  1  0
 10 29  1  0
 15 30  1  0
 16 31  1  0
 17 32  1  0
 17 33  1  0
 18 34  1  6
 19 35  1  0
M  END
$$$$
