
     RDKit          3D

 34 35  0  0  0  0  0  0  0  0999 V2000
    6.4459   -0.2069    0.0673 N   0  0  0  0  0  0  0  0  0  0  0  0
    5.2708   -1.4600    0.2582 S   0  0  0  0  0  6  0  0  0  0  0  0
    5.5066   -2.5291   -0.7717 O   0  0  0  0  0  0  0  0  0  0  0  0
    5.4000   -2.0711    1.6257 O   0  0  0  0  0  0  0  0  0  0  0  0
    3.6574   -0.7846    0.0587 C   0  0  0  0  0  0  0  0  0  0  0  0
    2.9859   -0.2329    1.1560 C   0  0  0  0  0  0  0  0  0  0  0  0
    1.7103    0.3164    0.9979 C   0  0  0  0  0  0  0  0  0  0  0  0
    1.0843    0.3194   -0.2617 C   0  0  0  0  0  0  0  0  0  0  0  0
    1.7738   -0.2190   -1.3638 C   0  0  0  0  0  0  0  0  0  0  0  0
    3.0502   -0.7666   -1.2028 C   0  0  0  0  0  0  0  0  0  0  0  0
   -0.2677    0.9089   -0.4145 C   0  0  0  0  0  0  0  0  0  0  0  0
   -0.6560    1.7814    0.4097 O   0  0  0  0  0  0  0  0  0  0  0  0
   -1.1470    0.4903   -1.4719 N   0  0  0  0  0  0  0  0  0  0  0  0
   -2.4513    1.1110   -1.6961 C   0  0  0  0  0  0  0  0  0  0  0  0
   -3.4345    0.6631   -0.6434 C   0  0  0  0  0  0  0  0  0  0  0  0
   -3.9029    1.5593    0.3375 C   0  0  0  0  0  0  0  0  0  0  0  0
   -3.4923    2.8532    0.3480 F   0  0  0  0  0  0  0  0  0  0  0  0
   -4.8016    1.1229    1.3174 C   0  0  0  0  0  0  0  0  0  0  0  0
   -5.2494    1.9901    2.2593 F   0  0  0  0  0  0  0  0  0  0  0  0
   -5.2384   -0.2047    1.3291 C   0  0  0  0  0  0  0  0  0  0  0  0
   -6.1090   -0.6236    2.2810 F   0  0  0  0  0  0  0  0  0  0  0  0
   -4.7779   -1.1009    0.3606 C   0  0  0  0  0  0  0  0  0  0  0  0
   -5.2022   -2.3891    0.3746 F   0  0  0  0  0  0  0  0  0  0  0  0
   -3.8792   -0.6723   -0.6222 C   0  0  0  0  0  0  0  0  0  0  0  0
   -3.4409   -1.5578   -1.5534 F   0  0  0  0  0  0  0  0  0  0  0  0
    7.3808   -0.6332    0.2555 H   0  0  0  0  0  0  0  0  0  0  0  0
    6.2741    0.4904    0.8260 H   0  0  0  0  0  0  0  0  0  0  0  0
    3.4496   -0.2254    2.1343 H   0  0  0  0  0  0  0  0  0  0  0  0
    1.2088    0.7305    1.8640 H   0  0  0  0  0  0  0  0  0  0  0  0
    1.3456   -0.1955   -2.3566 H   0  0  0  0  0  0  0  0  0  0  0  0
    3.5672   -1.1680   -2.0650 H   0  0  0  0  0  0  0  0  0  0  0  0
   -0.8866   -0.3197   -2.0769 H   0  0  0  0  0  0  0  0  0  0  0  0
   -2.8343    0.8076   -2.6946 H   0  0  0  0  0  0  0  0  0  0  0  0
   -2.3401    2.2161   -1.7220 H   0  0  0  0  0  0  0  0  0  0  0  0
  1  2  1  0
  2  3  2  0
  2  4  2  0
  2  5  1  0
  5  6  2  0
  6  7  1  0
  7  8  2  0
  8  9  1  0
  9 10  2  0
  8 11  1  0
 11 12  2  0
 11 13  1  0
 13 14  1  0
 14 15  1  0
 15 16  2  0
 16 17  1  0
 16 18  1  0
 18 19  1  0
 18 20  2  0
 20 21  1  0
 20 22  1  0
 22 23  1  0
 22 24  2  0
 24 25  1  0
 10  5  1  0
 24 15  1  0
  1 26  1  0
  1 27  1  0
  6 28  1  0
  7 29  1  0
  9 30  1  0
 10 31  1  0
 13 32  1  0
 14 33  1  0
 14 34  1  0
M  END
$$$$
