
     RDKit          3D

 38 38  0  0  0  0  0  0  0  0999 V2000
   -1.0643   -2.4831   -1.7387 C   0  0  0  0  0  0  0  0  0  0  0  0
   -0.5714   -1.6897   -0.5278 C   0  0  0  0  0  0  0  0  0  0  0  0
   -0.6324   -0.1608   -0.7622 C   0  0  0  0  0  0  0  0  0  0  0  0
   -1.9617    0.2995   -1.2442 N   0  0  0  0  0  0  0  0  0  0  0  0
   -3.1187    0.5097   -0.3377 C   0  0  0  0  0  0  0  0  0  0  0  0
   -3.4550   -0.6844    0.5612 C   0  0  0  0  0  0  0  0  0  0  0  0
   -3.0614    1.8303    0.4474 C   0  0  0  0  0  0  0  0  0  0  0  0
   -0.0344    0.6796    0.4016 C   0  0  0  0  0  0  0  0  0  0  0  0
   -0.5061    0.2227    1.6433 O   0  0  0  0  0  0  0  0  0  0  0  0
    1.4854    0.6464    0.3733 C   0  0  0  0  0  0  0  0  0  0  0  0
    2.2100   -0.3295    1.0835 C   0  0  0  0  0  0  0  0  0  0  0  0
    3.6102   -0.3651    1.0182 C   0  0  0  0  0  0  0  0  0  0  0  0
    4.3250   -1.3294    1.7266 O   0  0  0  0  0  0  0  0  0  0  0  0
    4.2969    0.5711    0.2356 C   0  0  0  0  0  0  0  0  0  0  0  0
    5.6888    0.5332    0.1742 O   0  0  0  0  0  0  0  0  0  0  0  0
    3.5812    1.5374   -0.4826 C   0  0  0  0  0  0  0  0  0  0  0  0
    2.1860    1.5720   -0.4184 C   0  0  0  0  0  0  0  0  0  0  0  0
   -0.4622   -2.2288   -2.6368 H   0  0  0  0  0  0  0  0  0  0  0  0
   -0.9575   -3.5699   -1.5380 H   0  0  0  0  0  0  0  0  0  0  0  0
   -2.1332   -2.2687   -1.9448 H   0  0  0  0  0  0  0  0  0  0  0  0
    0.4838   -1.9854   -0.3482 H   0  0  0  0  0  0  0  0  0  0  0  0
   -1.1377   -1.9959    0.3710 H   0  0  0  0  0  0  0  0  0  0  0  0
    0.0556    0.0036   -1.6252 H   0  0  0  0  0  0  0  0  0  0  0  0
   -1.8320    1.1586   -1.8297 H   0  0  0  0  0  0  0  0  0  0  0  0
   -4.0000    0.6136   -1.0098 H   0  0  0  0  0  0  0  0  0  0  0  0
   -4.4652   -0.5419    1.0015 H   0  0  0  0  0  0  0  0  0  0  0  0
   -2.7444   -0.7806    1.4032 H   0  0  0  0  0  0  0  0  0  0  0  0
   -3.4795   -1.6220   -0.0308 H   0  0  0  0  0  0  0  0  0  0  0  0
   -2.6752    2.6524   -0.1912 H   0  0  0  0  0  0  0  0  0  0  0  0
   -4.0852    2.1092    0.7772 H   0  0  0  0  0  0  0  0  0  0  0  0
   -2.4413    1.7475    1.3591 H   0  0  0  0  0  0  0  0  0  0  0  0
   -0.3463    1.7387    0.2584 H   0  0  0  0  0  0  0  0  0  0  0  0
   -0.2737    0.9182    2.3132 H   0  0  0  0  0  0  0  0  0  0  0  0
    1.6907   -1.0649    1.6852 H   0  0  0  0  0  0  0  0  0  0  0  0
    3.8570   -2.0211    2.3006 H   0  0  0  0  0  0  0  0  0  0  0  0
    6.2129    1.1968   -0.3842 H   0  0  0  0  0  0  0  0  0  0  0  0
    4.1054    2.2605   -1.0945 H   0  0  0  0  0  0  0  0  0  0  0  0
    1.6501    2.3202   -0.9895 H   0  0  0  0  0  0  0  0  0  0  0  0
  1  2  1  0
  2  3  1  0
  3  4  1  0
  4  5  1  0
  5  6  1  0
  5  7  1  0
  3  8  1  0
  8  9  1  0
  8 10  1  0
 10 11  2  0
 11 12  1  0
 12 13  1  0
 12 14  2  0
 14 15  1  0
 14 16  1  0
 16 17  2  0
 17 10  1  0
  1 18  1  0
  1 19  1  0
  1 20  1  0
  2 21  1  0
  2 22  1  0
  3 23  1  0
  4 24  1  0
  5 25  1  0
  6 26  1  0
  6 27  1  0
  6 28  1  0
  7 29  1  0
  7 30  1  0
  7 31  1  0
  8 32  1  0
  9 33  1  0
 11 34  1  0
 13 35  1  0
 15 36  1  0
 16 37  1  0
 17 38  1  0
M  END
$$$$
