
     RDKit          3D

 52 54  0  0  0  0  0  0  0  0999 V2000
    0.0399    3.1969    0.9686 C   0  0  0  0  0  0  0  0  0  0  0  0
    0.1422    1.7227    0.9566 N   0  0  0  0  0  0  0  0  0  0  0  0
    1.3323    1.2892    1.7462 C   0  0  2  0  0  0  0  0  0  0  0  0
    2.1567    0.2319    0.9745 C   0  0  0  0  0  0  0  0  0  0  0  0
    2.7172    0.7730   -0.3622 C   0  0  2  0  0  0  0  0  0  0  0  0
    1.6954    1.0530   -1.2883 O   0  0  0  0  0  0  0  0  0  0  0  0
    3.7218   -0.1900   -0.9647 C   0  0  0  0  0  0  0  0  0  0  0  0
    3.3303   -1.4774   -1.3806 C   0  0  0  0  0  0  0  0  0  0  0  0
    4.2666   -2.3589   -1.9292 C   0  0  0  0  0  0  0  0  0  0  0  0
    5.6003   -1.9680   -2.0676 C   0  0  0  0  0  0  0  0  0  0  0  0
    6.0009   -0.6948   -1.6563 C   0  0  0  0  0  0  0  0  0  0  0  0
    5.0689    0.1909   -1.1067 C   0  0  0  0  0  0  0  0  0  0  0  0
    0.9493    0.8120    3.1593 C   0  0  0  0  0  0  0  0  0  0  0  0
   -0.0396   -0.3567    3.1383 C   0  0  0  0  0  0  0  0  0  0  0  0
   -0.9835   -0.3243    1.9289 C   0  0  0  0  0  0  0  0  0  0  0  0
   -1.1601    1.0954    1.3362 C   0  0  2  0  0  0  0  0  0  0  0  0
   -2.0704    1.0104    0.0834 C   0  0  0  0  0  0  0  0  0  0  0  0
   -3.4728    0.5453    0.4001 C   0  0  0  0  0  0  0  0  0  0  0  0
   -4.0473    0.9907    1.4314 O   0  0  0  0  0  0  0  0  0  0  0  0
   -4.2094   -0.3838   -0.4916 C   0  0  0  0  0  0  0  0  0  0  0  0
   -5.2377   -1.1887    0.0331 C   0  0  0  0  0  0  0  0  0  0  0  0
   -5.9431   -2.0675   -0.7946 C   0  0  0  0  0  0  0  0  0  0  0  0
   -5.6365   -2.1475   -2.1546 C   0  0  0  0  0  0  0  0  0  0  0  0
   -4.6268   -1.3454   -2.6904 C   0  0  0  0  0  0  0  0  0  0  0  0
   -3.9173   -0.4653   -1.8673 C   0  0  0  0  0  0  0  0  0  0  0  0
   -0.0677    3.5781    2.0082 H   0  0  0  0  0  0  0  0  0  0  0  0
    0.9476    3.6441    0.5089 H   0  0  0  0  0  0  0  0  0  0  0  0
   -0.8217    3.5532    0.3707 H   0  0  0  0  0  0  0  0  0  0  0  0
    2.0337    2.1421    1.9082 H   0  0  0  0  0  0  0  0  0  0  0  0
    1.5601   -0.6810    0.7860 H   0  0  0  0  0  0  0  0  0  0  0  0
    3.0160   -0.0726    1.6129 H   0  0  0  0  0  0  0  0  0  0  0  0
    3.2302    1.7353   -0.1437 H   0  0  0  0  0  0  0  0  0  0  0  0
    1.1202    0.2483   -1.3679 H   0  0  0  0  0  0  0  0  0  0  0  0
    2.3033   -1.8032   -1.2783 H   0  0  0  0  0  0  0  0  0  0  0  0
    3.9578   -3.3466   -2.2463 H   0  0  0  0  0  0  0  0  0  0  0  0
    6.3235   -2.6521   -2.4922 H   0  0  0  0  0  0  0  0  0  0  0  0
    7.0351   -0.3936   -1.7625 H   0  0  0  0  0  0  0  0  0  0  0  0
    5.4006    1.1726   -0.7921 H   0  0  0  0  0  0  0  0  0  0  0  0
    1.8594    0.5207    3.7280 H   0  0  0  0  0  0  0  0  0  0  0  0
    0.4858    1.6646    3.7031 H   0  0  0  0  0  0  0  0  0  0  0  0
   -0.6356   -0.3336    4.0770 H   0  0  0  0  0  0  0  0  0  0  0  0
    0.5224   -1.3162    3.1304 H   0  0  0  0  0  0  0  0  0  0  0  0
   -0.6099   -1.0141    1.1428 H   0  0  0  0  0  0  0  0  0  0  0  0
   -1.9685   -0.7267    2.2507 H   0  0  0  0  0  0  0  0  0  0  0  0
   -1.6656    1.7163    2.1126 H   0  0  0  0  0  0  0  0  0  0  0  0
   -2.1593    1.9969   -0.4120 H   0  0  0  0  0  0  0  0  0  0  0  0
   -1.5879    0.3231   -0.6442 H   0  0  0  0  0  0  0  0  0  0  0  0
   -5.4879   -1.1469    1.0861 H   0  0  0  0  0  0  0  0  0  0  0  0
   -6.7279   -2.6874   -0.3807 H   0  0  0  0  0  0  0  0  0  0  0  0
   -6.1845   -2.8274   -2.7940 H   0  0  0  0  0  0  0  0  0  0  0  0
   -4.3972   -1.4008   -3.7468 H   0  0  0  0  0  0  0  0  0  0  0  0
   -3.1594    0.1635   -2.3155 H   0  0  0  0  0  0  0  0  0  0  0  0
  1  2  1  0
  2  3  1  0
  3  4  1  0
  4  5  1  0
  5  6  1  0
  5  7  1  0
  7  8  2  0
  8  9  1  0
  9 10  2  0
 10 11  1  0
 11 12  2  0
  3 13  1  0
 13 14  1  0
 14 15  1  0
 15 16  1  0
 16 17  1  0
 17 18  1  0
 18 19  2  0
 18 20  1  0
 20 21  2  0
 21 22  1  0
 22 23  2  0
 23 24  1  0
 24 25  2  0
 16  2  1  0
 25 20  1  0
 12  7  1  0
  1 26  1  0
  1 27  1  0
  1 28  1  0
  3 29  1  1
  4 30  1  0
  4 31  1  0
  5 32  1  1
  6 33  1  0
  8 34  1  0
  9 35  1  0
 10 36  1  0
 11 37  1  0
 12 38  1  0
 13 39  1  0
 13 40  1  0
 14 41  1  0
 14 42  1  0
 15 43  1  0
 15 44  1  0
 16 45  1  1
 17 46  1  0
 17 47  1  0
 21 48  1  0
 22 49  1  0
 23 50  1  0
 24 51  1  0
 25 52  1  0
M  END
$$$$
