
     RDKit          3D

 40 42  0  0  0  0  0  0  0  0999 V2000
   -7.4111    1.3483   -0.1913 N   0  0  0  0  0  0  0  0  0  0  0  0
   -6.6951   -0.1928    0.1296 S   0  0  0  0  0  6  0  0  0  0  0  0
   -6.9345   -1.0955   -1.0485 O   0  0  0  0  0  0  0  0  0  0  0  0
   -7.3347   -0.8128    1.3405 O   0  0  0  0  0  0  0  0  0  0  0  0
   -4.9575    0.0030    0.3984 C   0  0  0  0  0  0  0  0  0  0  0  0
   -4.0598   -0.4064   -0.5988 C   0  0  0  0  0  0  0  0  0  0  0  0
   -2.6803   -0.2591   -0.4173 C   0  0  0  0  0  0  0  0  0  0  0  0
   -2.1762    0.3049    0.7637 C   0  0  0  0  0  0  0  0  0  0  0  0
   -3.0705    0.7194    1.7563 C   0  0  0  0  0  0  0  0  0  0  0  0
   -4.4526    0.5764    1.5843 C   0  0  0  0  0  0  0  0  0  0  0  0
   -5.5076    1.1364    2.8776 Cl  0  0  0  0  0  0  0  0  0  0  0  0
   -0.7667    0.4775    0.9962 N   0  0  0  0  0  0  0  0  0  0  0  0
    0.2212    0.1680    0.2029 C   0  0  0  0  0  0  0  0  0  0  0  0
    1.6212    0.4080    0.6708 C   0  0  0  0  0  0  0  0  0  0  0  0
    2.2743   -1.1224    1.4182 S   0  0  0  0  0  0  0  0  0  0  0  0
    3.8945   -0.4244    1.8957 C   0  0  0  0  0  0  0  0  0  0  0  0
    4.7889   -0.2793    0.6954 C   0  0  0  0  0  0  0  0  0  0  0  0
    5.0721    0.9908    0.1647 C   0  0  0  0  0  0  0  0  0  0  0  0
    5.8903    1.1163   -0.9624 C   0  0  0  0  0  0  0  0  0  0  0  0
    6.4297   -0.0223   -1.5671 C   0  0  0  0  0  0  0  0  0  0  0  0
    6.1512   -1.2889   -1.0462 C   0  0  0  0  0  0  0  0  0  0  0  0
    5.3331   -1.4190    0.0803 C   0  0  0  0  0  0  0  0  0  0  0  0
    0.0103   -0.4520   -1.0727 N   0  0  0  0  0  0  0  0  0  0  0  0
   -1.5746   -0.7761   -1.6594 S   0  0  0  0  0  6  0  0  0  0  0  0
   -1.8173    0.0005   -2.9225 O   0  0  0  0  0  0  0  0  0  0  0  0
   -1.7318   -2.2496   -1.9078 O   0  0  0  0  0  0  0  0  0  0  0  0
   -8.4326    1.1858   -0.3374 H   0  0  0  0  0  0  0  0  0  0  0  0
   -7.3200    1.9206    0.6772 H   0  0  0  0  0  0  0  0  0  0  0  0
   -4.4286   -0.8390   -1.5201 H   0  0  0  0  0  0  0  0  0  0  0  0
   -2.6873    1.1590    2.6692 H   0  0  0  0  0  0  0  0  0  0  0  0
    1.6371    1.2303    1.4183 H   0  0  0  0  0  0  0  0  0  0  0  0
    2.2498    0.7055   -0.1941 H   0  0  0  0  0  0  0  0  0  0  0  0
    3.7546    0.5462    2.4185 H   0  0  0  0  0  0  0  0  0  0  0  0
    4.3712   -1.1173    2.6209 H   0  0  0  0  0  0  0  0  0  0  0  0
    4.6564    1.8816    0.6191 H   0  0  0  0  0  0  0  0  0  0  0  0
    6.1047    2.0966   -1.3681 H   0  0  0  0  0  0  0  0  0  0  0  0
    7.0623    0.0768   -2.4397 H   0  0  0  0  0  0  0  0  0  0  0  0
    6.5680   -2.1702   -1.5164 H   0  0  0  0  0  0  0  0  0  0  0  0
    5.1213   -2.4062    0.4724 H   0  0  0  0  0  0  0  0  0  0  0  0
    0.8268   -0.7189   -1.6666 H   0  0  0  0  0  0  0  0  0  0  0  0
  1  2  1  0
  2  3  2  0
  2  4  2  0
  2  5  1  0
  5  6  2  0
  6  7  1  0
  7  8  2  0
  8  9  1  0
  9 10  2  0
 10 11  1  0
  8 12  1  0
 12 13  2  0
 13 14  1  0
 14 15  1  0
 15 16  1  0
 16 17  1  0
 17 18  2  0
 18 19  1  0
 19 20  2  0
 20 21  1  0
 21 22  2  0
 13 23  1  0
 23 24  1  0
 24 25  2  0
 24 26  2  0
 10  5  1  0
 22 17  1  0
 24  7  1  0
  1 27  1  0
  1 28  1  0
  6 29  1  0
  9 30  1  0
 14 31  1  0
 14 32  1  0
 16 33  1  0
 16 34  1  0
 18 35  1  0
 19 36  1  0
 20 37  1  0
 21 38  1  0
 22 39  1  0
 23 40  1  0
M  END
$$$$
