
     RDKit          3D

115108  0  0  0  0  0  0  0  0999 V2000
    0.0000    0.0000    0.0000 Tc  0  0  0  0  0 15  0  0  0  0  0  0
    2.1613   -0.2386   -0.6553 C   0  0  0  0  0  0  0  0  0  0  0  0
    1.1482   -0.9723    0.0057 O   0  0  0  0  0  0  0  0  0  0  0  0
   -0.1072   -0.2965    0.0949 C   0  0  0  0  0  0  0  0  0  0  0  0
   -0.9659   -1.1491    1.0504 C   0  0  0  0  0  0  0  0  0  0  0  0
   -0.8103   -0.2686   -1.2832 C   0  0  0  0  0  0  0  0  0  0  0  0
    0.0279    1.1430    0.6814 C   0  0  0  0  0  0  0  0  0  0  0  0
   -1.2340    1.7378    0.9049 N   0  0  0  0  0  4  0  0  0  0  0  0
   -2.2651    2.2313    1.0886 C   0  0  0  0  0  3  0  0  0  0  0  0
   -2.2265    0.4443    0.0570 C   0  0  0  0  0  0  0  0  0  0  0  0
   -1.3404   -0.6462    0.2226 O   0  0  0  0  0  0  0  0  0  0  0  0
    0.0427   -0.3038    0.1196 C   0  0  0  0  0  0  0  0  0  0  0  0
    0.7968   -1.6480    0.0779 C   0  0  0  0  0  0  0  0  0  0  0  0
    0.5085    0.4666    1.3780 C   0  0  0  0  0  0  0  0  0  0  0  0
    0.3656    0.5002   -1.1779 C   0  0  0  0  0  0  0  0  0  0  0  0
    1.7552    0.6971   -1.3397 N   0  0  0  0  0  4  0  0  0  0  0  0
    2.8928    0.8632   -1.4768 C   0  0  0  0  0  3  0  0  0  0  0  0
    1.9637   -0.1592   -0.7913 C   0  0  0  0  0  0  0  0  0  0  0  0
    0.6883    0.4071   -1.0244 O   0  0  0  0  0  0  0  0  0  0  0  0
   -0.2234    0.2600    0.0659 C   0  0  0  0  0  0  0  0  0  0  0  0
    0.3598    0.7754    1.4055 C   0  0  0  0  0  0  0  0  0  0  0  0
   -1.4452    1.1352   -0.2731 C   0  0  0  0  0  0  0  0  0  0  0  0
   -0.6988   -1.2104    0.2248 C   0  0  0  0  0  0  0  0  0  0  0  0
   -1.0496   -1.7671   -1.0243 N   0  0  0  0  0  4  0  0  0  0  0  0
   -1.3370   -2.2260   -2.0474 C   0  0  0  0  0  3  0  0  0  0  0  0
    0.4322    1.9422   -1.1223 C   0  0  0  0  0  0  0  0  0  0  0  0
    0.3958    0.5437   -1.3354 O   0  0  0  0  0  0  0  0  0  0  0  0
   -0.0345   -0.2164   -0.2046 C   0  0  0  0  0  0  0  0  0  0  0  0
   -1.3149    0.3556    0.4613 C   0  0  0  0  0  0  0  0  0  0  0  0
   -0.3745   -1.6167   -0.7524 C   0  0  0  0  0  0  0  0  0  0  0  0
    1.1221   -0.3407    0.8278 C   0  0  0  0  0  0  0  0  0  0  0  0
    0.7945   -1.2276    1.8778 N   0  0  0  0  0  4  0  0  0  0  0  0
    0.5314   -1.9522    2.7416 C   0  0  0  0  0  3  0  0  0  0  0  0
   -2.0607   -0.7328    0.0711 C   0  0  0  0  0  0  0  0  0  0  0  0
   -0.6988   -1.0178    0.3269 O   0  0  0  0  0  0  0  0  0  0  0  0
    0.1848    0.0791    0.0852 C   0  0  0  0  0  0  0  0  0  0  0  0
   -0.2518    1.3720    0.8194 C   0  0  0  0  0  0  0  0  0  0  0  0
    0.3330    0.3588   -1.4306 C   0  0  0  0  0  0  0  0  0  0  0  0
    1.5646   -0.3319    0.6528 C   0  0  0  0  0  0  0  0  0  0  0  0
    2.0180   -1.5358    0.0695 N   0  0  0  0  0  4  0  0  0  0  0  0
    2.3921   -2.5226   -0.4063 C   0  0  0  0  0  3  0  0  0  0  0  0
    1.8135    0.1151   -1.0978 C   0  0  0  0  0  0  0  0  0  0  0  0
    0.4053    0.0893   -1.2315 O   0  0  0  0  0  0  0  0  0  0  0  0
   -0.2909   -0.1923   -0.0160 C   0  0  0  0  0  0  0  0  0  0  0  0
   -1.7645   -0.4172   -0.4057 C   0  0  0  0  0  0  0  0  0  0  0  0
    0.2100   -1.4863    0.6730 C   0  0  0  0  0  0  0  0  0  0  0  0
   -0.2200    0.9997    0.9778 C   0  0  0  0  0  0  0  0  0  0  0  0
   -0.4807    2.2224    0.3218 N   0  0  0  0  0  4  0  0  0  0  0  0
   -0.6932    3.2262   -0.2141 C   0  0  0  0  0  3  0  0  0  0  0  0
    2.9851   -0.9362   -0.9100 H   0  0  0  0  0  0  0  0  0  0  0  0
    1.8206    0.2176   -1.6063 H   0  0  0  0  0  0  0  0  0  0  0  0
    2.5881    0.5327    0.0199 H   0  0  0  0  0  0  0  0  0  0  0  0
   -1.0309   -2.1946    0.6781 H   0  0  0  0  0  0  0  0  0  0  0  0
   -2.0001   -0.7536    1.1416 H   0  0  0  0  0  0  0  0  0  0  0  0
   -0.5069   -1.1734    2.0622 H   0  0  0  0  0  0  0  0  0  0  0  0
   -0.3543    0.4817   -1.9610 H   0  0  0  0  0  0  0  0  0  0  0  0
   -0.7487   -1.2677   -1.7655 H   0  0  0  0  0  0  0  0  0  0  0  0
   -1.8830    0.0015   -1.1760 H   0  0  0  0  0  0  0  0  0  0  0  0
    0.5826    1.1058    1.6434 H   0  0  0  0  0  0  0  0  0  0  0  0
    0.5924    1.7993   -0.0139 H   0  0  0  0  0  0  0  0  0  0  0  0
   -1.9333    1.3383    0.6431 H   0  0  0  0  0  0  0  0  0  0  0  0
   -3.2281    0.1358    0.4199 H   0  0  0  0  0  0  0  0  0  0  0  0
   -2.3363    0.6979   -1.0185 H   0  0  0  0  0  0  0  0  0  0  0  0
    0.5085   -2.2230   -0.8284 H   0  0  0  0  0  0  0  0  0  0  0  0
    0.5389   -2.2604    0.9690 H   0  0  0  0  0  0  0  0  0  0  0  0
    1.8984   -1.5042    0.0689 H   0  0  0  0  0  0  0  0  0  0  0  0
    0.1564    1.5184    1.3686 H   0  0  0  0  0  0  0  0  0  0  0  0
    1.6179    0.4972    1.4365 H   0  0  0  0  0  0  0  0  0  0  0  0
    0.1245   -0.0290    2.2953 H   0  0  0  0  0  0  0  0  0  0  0  0
   -0.0253   -0.0446   -2.0641 H   0  0  0  0  0  0  0  0  0  0  0  0
   -0.1164    1.5000   -1.1510 H   0  0  0  0  0  0  0  0  0  0  0  0
    2.5091   -0.1933   -1.7564 H   0  0  0  0  0  0  0  0  0  0  0  0
    1.9130   -1.2007   -0.4152 H   0  0  0  0  0  0  0  0  0  0  0  0
    2.5602    0.4796   -0.1066 H   0  0  0  0  0  0  0  0  0  0  0  0
   -0.4286    0.8121    2.1883 H   0  0  0  0  0  0  0  0  0  0  0  0
    1.1631    0.1067    1.7810 H   0  0  0  0  0  0  0  0  0  0  0  0
    0.7775    1.7970    1.2769 H   0  0  0  0  0  0  0  0  0  0  0  0
   -2.2226    1.0674    0.5188 H   0  0  0  0  0  0  0  0  0  0  0  0
   -1.1402    2.1992   -0.3754 H   0  0  0  0  0  0  0  0  0  0  0  0
   -1.8975    0.8178   -1.2371 H   0  0  0  0  0  0  0  0  0  0  0  0
   -1.5797   -1.2604    0.9011 H   0  0  0  0  0  0  0  0  0  0  0  0
    0.0880   -1.8404    0.6888 H   0  0  0  0  0  0  0  0  0  0  0  0
    0.9274    2.2267   -0.1726 H   0  0  0  0  0  0  0  0  0  0  0  0
   -0.5909    2.3713   -1.1715 H   0  0  0  0  0  0  0  0  0  0  0  0
    1.0176    2.4041   -1.9434 H   0  0  0  0  0  0  0  0  0  0  0  0
   -1.7270   -0.3581    1.2067 H   0  0  0  0  0  0  0  0  0  0  0  0
   -2.0962    0.5446   -0.3058 H   0  0  0  0  0  0  0  0  0  0  0  0
   -1.1007    1.3044    0.9973 H   0  0  0  0  0  0  0  0  0  0  0  0
    0.5271   -2.0851   -1.2031 H   0  0  0  0  0  0  0  0  0  0  0  0
   -1.1519   -1.5392   -1.5431 H   0  0  0  0  0  0  0  0  0  0  0  0
   -0.7602   -2.2888    0.0438 H   0  0  0  0  0  0  0  0  0  0  0  0
    2.0387   -0.7104    0.3198 H   0  0  0  0  0  0  0  0  0  0  0  0
    1.3638    0.6427    1.2780 H   0  0  0  0  0  0  0  0  0  0  0  0
   -2.6215   -1.6897    0.0762 H   0  0  0  0  0  0  0  0  0  0  0  0
   -2.4913   -0.1036    0.8782 H   0  0  0  0  0  0  0  0  0  0  0  0
   -2.2271   -0.2698   -0.9221 H   0  0  0  0  0  0  0  0  0  0  0  0
    0.5422    2.1472    0.7532 H   0  0  0  0  0  0  0  0  0  0  0  0
   -0.4483    1.1588    1.8920 H   0  0  0  0  0  0  0  0  0  0  0  0
   -1.1699    1.8043    0.3682 H   0  0  0  0  0  0  0  0  0  0  0  0
    1.2058    1.0190   -1.6246 H   0  0  0  0  0  0  0  0  0  0  0  0
   -0.5587    0.8745   -1.8426 H   0  0  0  0  0  0  0  0  0  0  0  0
    0.4772   -0.5910   -1.9882 H   0  0  0  0  0  0  0  0  0  0  0  0
    2.3208    0.4626    0.4698 H   0  0  0  0  0  0  0  0  0  0  0  0
    1.4897   -0.4814    1.7519 H   0  0  0  0  0  0  0  0  0  0  0  0
    2.2210   -0.9142   -1.0133 H   0  0  0  0  0  0  0  0  0  0  0  0
    2.1570    0.7460   -0.2536 H   0  0  0  0  0  0  0  0  0  0  0  0
    2.2411    0.5556   -2.0216 H   0  0  0  0  0  0  0  0  0  0  0  0
   -2.1736    0.4791   -0.9196 H   0  0  0  0  0  0  0  0  0  0  0  0
   -1.8510   -1.2777   -1.1039 H   0  0  0  0  0  0  0  0  0  0  0  0
   -2.3912   -0.6261    0.4885 H   0  0  0  0  0  0  0  0  0  0  0  0
    1.2254   -1.3495    1.1016 H   0  0  0  0  0  0  0  0  0  0  0  0
    0.2407   -2.3245   -0.0559 H   0  0  0  0  0  0  0  0  0  0  0  0
   -0.4635   -1.7709    1.5103 H   0  0  0  0  0  0  0  0  0  0  0  0
   -0.9610    0.8651    1.7956 H   0  0  0  0  0  0  0  0  0  0  0  0
    0.7755    1.0600    1.4644 H   0  0  0  0  0  0  0  0  0  0  0  0
  2  3  1  0
  3  4  1  0
  4  5  1  0
  4  6  1  0
  4  7  1  0
  7  8  1  0
  8  9  3  0
 10 11  1  0
 11 12  1  0
 12 13  1  0
 12 14  1  0
 12 15  1  0
 15 16  1  0
 16 17  3  0
 18 19  1  0
 19 20  1  0
 20 21  1  0
 20 22  1  0
 20 23  1  0
 23 24  1  0
 24 25  3  0
 26 27  1  0
 27 28  1  0
 28 29  1  0
 28 30  1  0
 28 31  1  0
 31 32  1  0
 32 33  3  0
 34 35  1  0
 35 36  1  0
 36 37  1  0
 36 38  1  0
 36 39  1  0
 39 40  1  0
 40 41  3  0
 42 43  1  0
 43 44  1  0
 44 45  1  0
 44 46  1  0
 44 47  1  0
 47 48  1  0
 48 49  3  0
  2 50  1  0
  2 51  1  0
  2 52  1  0
  5 53  1  0
  5 54  1  0
  5 55  1  0
  6 56  1  0
  6 57  1  0
  6 58  1  0
  7 59  1  0
  7 60  1  0
 10 61  1  0
 10 62  1  0
 10 63  1  0
 13 64  1  0
 13 65  1  0
 13 66  1  0
 14 67  1  0
 14 68  1  0
 14 69  1  0
 15 70  1  0
 15 71  1  0
 18 72  1  0
 18 73  1  0
 18 74  1  0
 21 75  1  0
 21 76  1  0
 21 77  1  0
 22 78  1  0
 22 79  1  0
 22 80  1  0
 23 81  1  0
 23 82  1  0
 26 83  1  0
 26 84  1  0
 26 85  1  0
 29 86  1  0
 29 87  1  0
 29 88  1  0
 30 89  1  0
 30 90  1  0
 30 91  1  0
 31 92  1  0
 31 93  1  0
 34 94  1  0
 34 95  1  0
 34 96  1  0
 37 97  1  0
 37 98  1  0
 37 99  1  0
 38100  1  0
 38101  1  0
 38102  1  0
 39103  1  0
 39104  1  0
 42105  1  0
 42106  1  0
 42107  1  0
 45108  1  0
 45109  1  0
 45110  1  0
 46111  1  0
 46112  1  0
 46113  1  0
 47114  1  0
 47115  1  0
M  CHG  8   1   1   8   1   9  -1  16   1  17  -1  24   1  25  -1  32   1
M  CHG  5  33  -1  40   1  41  -1  48   1  49  -1
M  END
$$$$
