
     RDKit          3D

 52 54  0  0  0  0  0  0  0  0999 V2000
   -2.9845   -2.0495   -0.1209 C   0  0  2  0  0  0  0  0  0  0  0  0
   -4.5200   -2.2223   -0.1423 C   0  0  0  0  0  0  0  0  0  0  0  0
   -4.9561   -3.6746   -0.3389 C   0  0  0  0  0  0  0  0  0  0  0  0
   -2.3318   -2.7156    1.1080 C   0  0  0  0  0  0  0  0  0  0  0  0
   -2.8658   -2.2118    2.3036 O   0  0  0  0  0  0  0  0  0  0  0  0
   -2.6445   -0.6220   -0.1523 N   0  0  0  0  0  0  0  0  0  0  0  0
   -1.3537   -0.1417   -0.5500 C   0  0  0  0  0  0  0  0  0  0  0  0
   -1.0859    1.1941   -0.4872 N   0  0  0  0  0  0  0  0  0  0  0  0
    0.1413    1.6194   -0.8664 C   0  0  0  0  0  0  0  0  0  0  0  0
    0.6270    2.9072   -0.9186 C   0  0  0  0  0  0  0  0  0  0  0  0
    1.9152    2.7471   -1.4221 C   0  0  0  0  0  0  0  0  0  0  0  0
    2.1641    1.4346   -1.6487 N   0  0  0  0  0  0  0  0  0  0  0  0
    1.0773    0.7693   -1.2945 N   0  0  0  0  0  0  0  0  0  0  0  0
    0.8398   -0.5678   -1.3600 C   0  0  0  0  0  0  0  0  0  0  0  0
    1.8302   -1.5154   -1.7947 N   0  0  0  0  0  0  0  0  0  0  0  0
    3.2749   -1.3341   -1.6424 C   0  0  0  0  0  0  0  0  0  0  0  0
    3.6387   -1.0923   -0.1994 C   0  0  0  0  0  0  0  0  0  0  0  0
    3.2337   -2.0017    0.7929 C   0  0  0  0  0  0  0  0  0  0  0  0
    3.5685   -1.7793    2.1321 C   0  0  0  0  0  0  0  0  0  0  0  0
    4.3172   -0.6548    2.4893 C   0  0  0  0  0  0  0  0  0  0  0  0
    4.7366    0.2465    1.5072 C   0  0  0  0  0  0  0  0  0  0  0  0
    4.4044    0.0278    0.1667 C   0  0  0  0  0  0  0  0  0  0  0  0
   -0.3936   -1.0124   -0.9907 N   0  0  0  0  0  0  0  0  0  0  0  0
   -0.0556    4.1993   -0.5532 C   0  0  0  0  0  0  0  0  0  0  0  0
   -1.2720    4.4447   -1.4512 C   0  0  0  0  0  0  0  0  0  0  0  0
   -0.4514    4.2064    0.9265 C   0  0  0  0  0  0  0  0  0  0  0  0
   -2.5787   -2.5297   -1.0393 H   0  0  0  0  0  0  0  0  0  0  0  0
   -4.9692   -1.8264    0.7943 H   0  0  0  0  0  0  0  0  0  0  0  0
   -4.9314   -1.6268   -0.9867 H   0  0  0  0  0  0  0  0  0  0  0  0
   -6.0557   -3.7118   -0.4891 H   0  0  0  0  0  0  0  0  0  0  0  0
   -4.7121   -4.2835    0.5559 H   0  0  0  0  0  0  0  0  0  0  0  0
   -4.4634   -4.1125   -1.2329 H   0  0  0  0  0  0  0  0  0  0  0  0
   -2.4962   -3.8121    1.0769 H   0  0  0  0  0  0  0  0  0  0  0  0
   -1.2285   -2.5667    1.0866 H   0  0  0  0  0  0  0  0  0  0  0  0
   -2.4248   -1.3377    2.4674 H   0  0  0  0  0  0  0  0  0  0  0  0
   -3.3629    0.0839    0.1296 H   0  0  0  0  0  0  0  0  0  0  0  0
    2.6248    3.5397   -1.6180 H   0  0  0  0  0  0  0  0  0  0  0  0
    1.4958   -2.4675   -2.0668 H   0  0  0  0  0  0  0  0  0  0  0  0
    3.7950   -2.2564   -1.9802 H   0  0  0  0  0  0  0  0  0  0  0  0
    3.6251   -0.5154   -2.3048 H   0  0  0  0  0  0  0  0  0  0  0  0
    2.6543   -2.8780    0.5294 H   0  0  0  0  0  0  0  0  0  0  0  0
    3.2480   -2.4792    2.8928 H   0  0  0  0  0  0  0  0  0  0  0  0
    4.5755   -0.4839    3.5264 H   0  0  0  0  0  0  0  0  0  0  0  0
    5.3207    1.1145    1.7845 H   0  0  0  0  0  0  0  0  0  0  0  0
    4.7409    0.7336   -0.5823 H   0  0  0  0  0  0  0  0  0  0  0  0
    0.6612    5.0343   -0.7164 H   0  0  0  0  0  0  0  0  0  0  0  0
   -2.0457    3.6628   -1.2962 H   0  0  0  0  0  0  0  0  0  0  0  0
   -0.9648    4.4393   -2.5190 H   0  0  0  0  0  0  0  0  0  0  0  0
   -1.7187    5.4360   -1.2236 H   0  0  0  0  0  0  0  0  0  0  0  0
   -0.8791    5.1943    1.2008 H   0  0  0  0  0  0  0  0  0  0  0  0
    0.4428    4.0271    1.5612 H   0  0  0  0  0  0  0  0  0  0  0  0
   -1.2072    3.4211    1.1408 H   0  0  0  0  0  0  0  0  0  0  0  0
  1  2  1  0
  2  3  1  0
  1  4  1  0
  4  5  1  0
  1  6  1  0
  6  7  1  0
  7  8  2  0
  8  9  1  0
  9 10  2  0
 10 11  1  0
 11 12  2  0
 12 13  1  0
 13 14  1  0
 14 15  1  0
 15 16  1  0
 16 17  1  0
 17 18  2  0
 18 19  1  0
 19 20  2  0
 20 21  1  0
 21 22  2  0
 14 23  2  0
 10 24  1  0
 24 25  1  0
 24 26  1  0
 23  7  1  0
 13  9  1  0
 22 17  1  0
  1 27  1  6
  2 28  1  0
  2 29  1  0
  3 30  1  0
  3 31  1  0
  3 32  1  0
  4 33  1  0
  4 34  1  0
  5 35  1  0
  6 36  1  0
 11 37  1  0
 15 38  1  0
 16 39  1  0
 16 40  1  0
 18 41  1  0
 19 42  1  0
 20 43  1  0
 21 44  1  0
 22 45  1  0
 24 46  1  0
 25 47  1  0
 25 48  1  0
 25 49  1  0
 26 50  1  0
 26 51  1  0
 26 52  1  0
M  END
$$$$
