
     RDKit          3D

 86 92  0  0  0  0  0  0  0  0999 V2000
    4.4629   -1.7971   -0.4756 C   0  0  2  0  0  0  0  0  0  0  0  0
    3.5806   -2.9473    0.0992 C   0  0  0  0  0  0  0  0  0  0  0  0
    2.1110   -2.8013   -0.2499 C   0  0  0  0  0  0  0  0  0  0  0  0
    1.1432   -2.7287    0.7677 C   0  0  0  0  0  0  0  0  0  0  0  0
   -0.1596   -2.3234    0.4728 C   0  0  0  0  0  0  0  0  0  0  0  0
   -0.5347   -2.0667   -0.8573 C   0  0  0  0  0  0  0  0  0  0  0  0
   -1.7882   -1.5396   -1.1954 O   0  0  0  0  0  0  0  0  0  0  0  0
   -2.9183   -1.5236   -0.3749 C   0  0  0  0  0  0  0  0  0  0  0  0
   -3.6962   -0.3439   -0.2358 C   0  0  0  0  0  0  0  0  0  0  0  0
   -4.9929   -0.4685    0.2978 C   0  0  0  0  0  0  0  0  0  0  0  0
   -5.9775    0.6273    0.0011 C   0  0  0  0  0  0  0  0  0  0  0  0
   -5.7731    1.0443   -1.4706 C   0  0  0  0  0  0  0  0  0  0  0  0
   -4.3685    1.5197   -1.7895 N   0  0  0  0  0  4  0  0  0  0  0  0
   -4.4174    3.0063   -1.8729 C   0  0  0  0  0  0  0  0  0  0  0  0
   -3.9843    0.9840   -3.1207 C   0  0  0  0  0  0  0  0  0  0  0  0
   -3.3666    1.0798   -0.7407 C   0  0  2  0  0  0  0  0  0  0  0  0
   -1.8558    1.4491   -1.0424 C   0  0  0  0  0  0  0  0  0  0  0  0
   -1.1242    2.0525    0.1465 C   0  0  0  0  0  0  0  0  0  0  0  0
    0.0904    1.5128    0.6160 C   0  0  0  0  0  0  0  0  0  0  0  0
    0.7688    2.1169    1.6957 C   0  0  0  0  0  0  0  0  0  0  0  0
    1.9689    1.5938    2.1897 O   0  0  0  0  0  0  0  0  0  0  0  0
    3.0536    1.2689    1.3726 C   0  0  0  0  0  0  0  0  0  0  0  0
    3.9628    2.2590    0.9842 C   0  0  0  0  0  0  0  0  0  0  0  0
    3.7187    3.5839    1.3778 O   0  0  0  0  0  0  0  0  0  0  0  0
    4.5546    4.6890    1.0518 C   0  0  0  0  0  0  0  0  0  0  0  0
    5.1001    1.8914    0.2423 C   0  0  0  0  0  0  0  0  0  0  0  0
    5.3001    0.5581   -0.1514 C   0  0  0  0  0  0  0  0  0  0  0  0
    6.6131    0.1844   -0.8009 C   0  0  0  0  0  0  0  0  0  0  0  0
    6.6377   -1.2382   -1.3930 C   0  0  0  0  0  0  0  0  0  0  0  0
    5.8801   -2.2146   -0.5820 N   0  0  0  0  0  0  0  0  0  0  0  0
    6.5237   -2.4641    0.7235 C   0  0  0  0  0  0  0  0  0  0  0  0
    4.3449   -0.4253    0.1858 C   0  0  0  0  0  0  0  0  0  0  0  0
    3.2548   -0.0558    0.9930 C   0  0  0  0  0  0  0  0  0  0  0  0
    0.2245    3.2571    2.3094 C   0  0  0  0  0  0  0  0  0  0  0  0
    0.8532    3.8599    3.3989 O   0  0  0  0  0  0  0  0  0  0  0  0
   -0.9516    3.8190    1.8137 C   0  0  0  0  0  0  0  0  0  0  0  0
   -1.6062    3.2397    0.7280 C   0  0  0  0  0  0  0  0  0  0  0  0
   -5.4066   -1.6472    0.9231 C   0  0  0  0  0  0  0  0  0  0  0  0
   -4.5807   -2.7790    0.9116 C   0  0  0  0  0  0  0  0  0  0  0  0
   -4.9579   -3.9788    1.5368 O   0  0  0  0  0  0  0  0  0  0  0  0
   -6.1651   -4.1653    2.2687 C   0  0  0  0  0  0  0  0  0  0  0  0
   -3.3640   -2.7306    0.2121 C   0  0  0  0  0  0  0  0  0  0  0  0
   -2.6094   -3.8944    0.0482 O   0  0  0  0  0  0  0  0  0  0  0  0
    0.3888   -2.2841   -1.8831 C   0  0  0  0  0  0  0  0  0  0  0  0
    1.6984   -2.6646   -1.5867 C   0  0  0  0  0  0  0  0  0  0  0  0
    4.1088   -1.6336   -1.5151 H   0  0  0  0  0  0  0  0  0  0  0  0
    3.7180   -3.0043    1.2007 H   0  0  0  0  0  0  0  0  0  0  0  0
    3.9288   -3.9146   -0.3234 H   0  0  0  0  0  0  0  0  0  0  0  0
    1.4222   -2.8806    1.8031 H   0  0  0  0  0  0  0  0  0  0  0  0
   -0.8526   -2.1603    1.2872 H   0  0  0  0  0  0  0  0  0  0  0  0
   -5.8198    1.4906    0.6822 H   0  0  0  0  0  0  0  0  0  0  0  0
   -7.0229    0.2721    0.1351 H   0  0  0  0  0  0  0  0  0  0  0  0
   -6.5493    1.8029   -1.7229 H   0  0  0  0  0  0  0  0  0  0  0  0
   -6.0477    0.1547   -2.0862 H   0  0  0  0  0  0  0  0  0  0  0  0
   -5.1515    3.3404   -2.6408 H   0  0  0  0  0  0  0  0  0  0  0  0
   -3.4516    3.4579   -2.1688 H   0  0  0  0  0  0  0  0  0  0  0  0
   -4.7231    3.4484   -0.8987 H   0  0  0  0  0  0  0  0  0  0  0  0
   -3.8466   -0.1192   -3.0786 H   0  0  0  0  0  0  0  0  0  0  0  0
   -4.7697    1.2033   -3.8791 H   0  0  0  0  0  0  0  0  0  0  0  0
   -3.0422    1.4330   -3.4988 H   0  0  0  0  0  0  0  0  0  0  0  0
   -3.5932    1.6872    0.1623 H   0  0  0  0  0  0  0  0  0  0  0  0
   -1.2790    0.6253   -1.4795 H   0  0  0  0  0  0  0  0  0  0  0  0
   -1.7790    2.2134   -1.8336 H   0  0  0  0  0  0  0  0  0  0  0  0
    0.5031    0.6259    0.1532 H   0  0  0  0  0  0  0  0  0  0  0  0
    5.5654    4.5450    1.4884 H   0  0  0  0  0  0  0  0  0  0  0  0
    4.6259    4.8016   -0.0507 H   0  0  0  0  0  0  0  0  0  0  0  0
    4.1133    5.6140    1.4758 H   0  0  0  0  0  0  0  0  0  0  0  0
    5.8443    2.6319   -0.0196 H   0  0  0  0  0  0  0  0  0  0  0  0
    6.8523    0.9117   -1.6070 H   0  0  0  0  0  0  0  0  0  0  0  0
    7.4125    0.2637   -0.0327 H   0  0  0  0  0  0  0  0  0  0  0  0
    6.2129   -1.2087   -2.4209 H   0  0  0  0  0  0  0  0  0  0  0  0
    7.6917   -1.5732   -1.5108 H   0  0  0  0  0  0  0  0  0  0  0  0
    6.4296   -1.5937    1.4072 H   0  0  0  0  0  0  0  0  0  0  0  0
    7.6022   -2.6928    0.5851 H   0  0  0  0  0  0  0  0  0  0  0  0
    6.0709   -3.3533    1.2081 H   0  0  0  0  0  0  0  0  0  0  0  0
    2.5547   -0.7743    1.3582 H   0  0  0  0  0  0  0  0  0  0  0  0
    1.7146    3.5003    3.7922 H   0  0  0  0  0  0  0  0  0  0  0  0
   -1.3544    4.7168    2.2653 H   0  0  0  0  0  0  0  0  0  0  0  0
   -2.4972    3.7194    0.3448 H   0  0  0  0  0  0  0  0  0  0  0  0
   -6.3941   -1.6918    1.3624 H   0  0  0  0  0  0  0  0  0  0  0  0
   -7.0416   -4.0261    1.6013 H   0  0  0  0  0  0  0  0  0  0  0  0
   -6.2119   -3.4504    3.1173 H   0  0  0  0  0  0  0  0  0  0  0  0
   -6.1879   -5.1981    2.6725 H   0  0  0  0  0  0  0  0  0  0  0  0
   -2.8933   -4.7873    0.4326 H   0  0  0  0  0  0  0  0  0  0  0  0
    0.1014   -2.1147   -2.9131 H   0  0  0  0  0  0  0  0  0  0  0  0
    2.3997   -2.7969   -2.4002 H   0  0  0  0  0  0  0  0  0  0  0  0
  1  2  1  0
  2  3  1  0
  3  4  2  0
  4  5  1  0
  5  6  2  0
  6  7  1  0
  7  8  1  0
  8  9  2  0
  9 10  1  0
 10 11  1  0
 11 12  1  0
 12 13  1  0
 13 14  1  0
 13 15  1  0
 13 16  1  0
 16 17  1  0
 17 18  1  0
 18 19  2  0
 19 20  1  0
 20 21  1  0
 21 22  1  0
 22 23  2  0
 23 24  1  0
 24 25  1  0
 23 26  1  0
 26 27  2  0
 27 28  1  0
 28 29  1  0
 29 30  1  0
 30 31  1  0
 27 32  1  0
 32 33  2  0
 20 34  2  0
 34 35  1  0
 34 36  1  0
 36 37  2  0
 10 38  2  0
 38 39  1  0
 39 40  1  0
 40 41  1  0
 39 42  2  0
 42 43  1  0
  6 44  1  0
 44 45  2  0
 30  1  1  0
 32  1  1  0
 45  3  1  0
 42  8  1  0
 16  9  1  0
 37 18  1  0
 33 22  1  0
  1 46  1  6
  2 47  1  0
  2 48  1  0
  4 49  1  0
  5 50  1  0
 11 51  1  0
 11 52  1  0
 12 53  1  0
 12 54  1  0
 14 55  1  0
 14 56  1  0
 14 57  1  0
 15 58  1  0
 15 59  1  0
 15 60  1  0
 16 61  1  1
 17 62  1  0
 17 63  1  0
 19 64  1  0
 25 65  1  0
 25 66  1  0
 25 67  1  0
 26 68  1  0
 28 69  1  0
 28 70  1  0
 29 71  1  0
 29 72  1  0
 31 73  1  0
 31 74  1  0
 31 75  1  0
 33 76  1  0
 35 77  1  0
 36 78  1  0
 37 79  1  0
 38 80  1  0
 41 81  1  0
 41 82  1  0
 41 83  1  0
 43 84  1  0
 44 85  1  0
 45 86  1  0
M  CHG  1  13   1
M  END
$$$$
