
     RDKit          3D

 63 67  0  0  0  0  0  0  0  0999 V2000
    1.1668    0.9169    4.1296 C   0  0  0  0  0  0  0  0  0  0  0  0
    2.0348    0.8202    3.0050 O   0  0  0  0  0  0  0  0  0  0  0  0
    1.9175   -0.1463    1.9951 C   0  0  0  0  0  0  0  0  0  0  0  0
    2.8607   -0.1462    0.9613 C   0  0  0  0  0  0  0  0  0  0  0  0
    2.7825   -1.0837   -0.0721 C   0  0  0  0  0  0  0  0  0  0  0  0
    1.7440   -2.0274   -0.0957 C   0  0  0  0  0  0  0  0  0  0  0  0
    0.8103   -2.0449    0.9512 C   0  0  0  0  0  0  0  0  0  0  0  0
    0.8901   -1.1086    1.9864 C   0  0  0  0  0  0  0  0  0  0  0  0
    1.6180   -2.9848   -1.2132 C   0  0  0  0  0  0  0  0  0  0  0  0
    1.7601   -2.7198   -2.5904 C   0  0  0  0  0  0  0  0  0  0  0  0
    1.9660   -1.4547   -3.1632 O   0  0  0  0  0  0  0  0  0  0  0  0
    1.3721   -0.2665   -2.7161 C   0  0  0  0  0  0  0  0  0  0  0  0
    0.1201   -0.2580   -2.0785 C   0  0  0  0  0  0  0  0  0  0  0  0
   -0.3934    0.9287   -1.5516 C   0  0  0  0  0  0  0  0  0  0  0  0
    0.3247    2.1323   -1.6828 C   0  0  0  0  0  0  0  0  0  0  0  0
   -0.1155    3.3399   -1.1181 O   0  0  0  0  0  0  0  0  0  0  0  0
   -1.0951    3.4539   -0.0848 C   0  0  0  0  0  0  0  0  0  0  0  0
   -0.5270    2.9283    1.2489 C   0  0  0  0  0  0  0  0  0  0  0  0
   -1.5377    2.7960    2.3188 N   0  0  0  0  0  0  0  0  0  0  0  0
   -2.0975    4.0881    2.7701 C   0  0  0  0  0  0  0  0  0  0  0  0
   -3.1838    3.8594    3.8237 C   0  0  0  0  0  0  0  0  0  0  0  0
   -4.3527    3.0281    3.2601 C   0  0  0  0  0  0  0  0  0  0  0  0
   -3.9695    2.2184    2.0096 C   0  0  0  0  0  0  0  0  0  0  0  0
   -2.5242    1.7076    2.0951 C   0  0  0  0  0  0  0  0  0  0  0  0
    1.5285    2.1328   -2.3970 C   0  0  0  0  0  0  0  0  0  0  0  0
    2.0490    0.9417   -2.9108 C   0  0  0  0  0  0  0  0  0  0  0  0
    1.6745   -3.8795   -3.3719 C   0  0  0  0  0  0  0  0  0  0  0  0
    1.4314   -5.0278   -2.6335 C   0  0  0  0  0  0  0  0  0  0  0  0
    1.3390   -4.6419   -1.0038 S   0  0  0  0  0  0  0  0  0  0  0  0
    1.2968   -6.2785   -3.2308 C   0  0  0  0  0  0  0  0  0  0  0  0
    1.4111   -6.3659   -4.6277 C   0  0  0  0  0  0  0  0  0  0  0  0
    1.2810   -7.6055   -5.2491 O   0  0  0  0  0  0  0  0  0  0  0  0
    1.6552   -5.2029   -5.3909 C   0  0  0  0  0  0  0  0  0  0  0  0
    1.7859   -3.9522   -4.7641 C   0  0  0  0  0  0  0  0  0  0  0  0
    0.1231    1.0890    3.7951 H   0  0  0  0  0  0  0  0  0  0  0  0
    1.4829    1.7735    4.7592 H   0  0  0  0  0  0  0  0  0  0  0  0
    1.2233   -0.0120    4.7354 H   0  0  0  0  0  0  0  0  0  0  0  0
    3.6583    0.5858    0.9585 H   0  0  0  0  0  0  0  0  0  0  0  0
    3.5268   -1.0666   -0.8586 H   0  0  0  0  0  0  0  0  0  0  0  0
    0.0016   -2.7654    0.9524 H   0  0  0  0  0  0  0  0  0  0  0  0
    0.1446   -1.1366    2.7693 H   0  0  0  0  0  0  0  0  0  0  0  0
   -0.4458   -1.1735   -1.9646 H   0  0  0  0  0  0  0  0  0  0  0  0
   -1.3440    0.8941   -1.0418 H   0  0  0  0  0  0  0  0  0  0  0  0
   -1.3400    4.5301    0.0212 H   0  0  0  0  0  0  0  0  0  0  0  0
   -2.0284    2.9326   -0.3781 H   0  0  0  0  0  0  0  0  0  0  0  0
   -0.0454    1.9401    1.0885 H   0  0  0  0  0  0  0  0  0  0  0  0
    0.2827    3.6104    1.5887 H   0  0  0  0  0  0  0  0  0  0  0  0
   -1.2883    4.7044    3.2182 H   0  0  0  0  0  0  0  0  0  0  0  0
   -2.5400    4.6562    1.9245 H   0  0  0  0  0  0  0  0  0  0  0  0
   -2.7328    3.3252    4.6889 H   0  0  0  0  0  0  0  0  0  0  0  0
   -3.5614    4.8385    4.1901 H   0  0  0  0  0  0  0  0  0  0  0  0
   -5.1971    3.7029    2.9998 H   0  0  0  0  0  0  0  0  0  0  0  0
   -4.7150    2.3347    4.0503 H   0  0  0  0  0  0  0  0  0  0  0  0
   -4.0757    2.8573    1.1060 H   0  0  0  0  0  0  0  0  0  0  0  0
   -4.6641    1.3583    1.8957 H   0  0  0  0  0  0  0  0  0  0  0  0
   -2.4526    0.9965    2.9459 H   0  0  0  0  0  0  0  0  0  0  0  0
   -2.2955    1.1191    1.1807 H   0  0  0  0  0  0  0  0  0  0  0  0
    2.0813    3.0551   -2.5228 H   0  0  0  0  0  0  0  0  0  0  0  0
    3.0014    0.9510   -3.4252 H   0  0  0  0  0  0  0  0  0  0  0  0
    1.1085   -7.1607   -2.6323 H   0  0  0  0  0  0  0  0  0  0  0  0
    1.3577   -7.7038   -6.2547 H   0  0  0  0  0  0  0  0  0  0  0  0
    1.7414   -5.2692   -6.4679 H   0  0  0  0  0  0  0  0  0  0  0  0
    1.9688   -3.0638   -5.3553 H   0  0  0  0  0  0  0  0  0  0  0  0
  1  2  1  0
  2  3  1  0
  3  4  2  0
  4  5  1  0
  5  6  2  0
  6  7  1  0
  7  8  2  0
  6  9  1  0
  9 10  2  0
 10 11  1  0
 11 12  1  0
 12 13  2  0
 13 14  1  0
 14 15  2  0
 15 16  1  0
 16 17  1  0
 17 18  1  0
 18 19  1  0
 19 20  1  0
 20 21  1  0
 21 22  1  0
 22 23  1  0
 23 24  1  0
 15 25  1  0
 25 26  2  0
 10 27  1  0
 27 28  2  0
 28 29  1  0
 28 30  1  0
 30 31  2  0
 31 32  1  0
 31 33  1  0
 33 34  2  0
  8  3  1  0
 29  9  1  0
 26 12  1  0
 34 27  1  0
 24 19  1  0
  1 35  1  0
  1 36  1  0
  1 37  1  0
  4 38  1  0
  5 39  1  0
  7 40  1  0
  8 41  1  0
 13 42  1  0
 14 43  1  0
 17 44  1  0
 17 45  1  0
 18 46  1  0
 18 47  1  0
 20 48  1  0
 20 49  1  0
 21 50  1  0
 21 51  1  0
 22 52  1  0
 22 53  1  0
 23 54  1  0
 23 55  1  0
 24 56  1  0
 24 57  1  0
 25 58  1  0
 26 59  1  0
 30 60  1  0
 32 61  1  0
 33 62  1  0
 34 63  1  0
M  END
$$$$
