
     RDKit          3D

 47 50  0  0  0  0  0  0  0  0999 V2000
    9.2332   -0.4460   -0.4511 F   0  0  0  0  0  0  0  0  0  0  0  0
    8.8435    0.8163   -0.8617 C   0  0  0  0  0  0  0  0  0  0  0  0
    9.7354    1.2697   -1.8141 F   0  0  0  0  0  0  0  0  0  0  0  0
    8.8577    1.6874    0.2129 F   0  0  0  0  0  0  0  0  0  0  0  0
    7.5394    0.7654   -1.4362 O   0  0  0  0  0  0  0  0  0  0  0  0
    6.3741    0.3553   -0.7684 C   0  0  0  0  0  0  0  0  0  0  0  0
    5.1683    0.3622   -1.4788 C   0  0  0  0  0  0  0  0  0  0  0  0
    3.9768   -0.0336   -0.8645 C   0  0  0  0  0  0  0  0  0  0  0  0
    3.9713   -0.4316    0.4835 C   0  0  0  0  0  0  0  0  0  0  0  0
    2.7642   -0.8668    1.1328 N   0  0  0  0  0  0  0  0  0  0  0  0
    1.4623   -0.3269    0.8519 C   0  0  0  0  0  0  0  0  0  0  0  0
    1.3533    0.7586    0.2215 O   0  0  0  0  0  0  0  0  0  0  0  0
    0.2524   -1.0446    1.3040 C   0  0  0  0  0  0  0  0  0  0  0  0
   -1.0565   -0.5547    1.4155 C   0  0  0  0  0  0  0  0  0  0  0  0
   -1.4158    0.8256    1.2127 N   0  0  0  0  0  0  0  0  0  0  0  0
   -2.7999    1.2770    1.0524 C   0  0  0  0  0  0  0  0  0  0  0  0
   -3.4364    0.7339   -0.2187 C   0  0  0  0  0  0  0  0  0  0  0  0
   -2.6212    0.4494   -1.3320 C   0  0  0  0  0  0  0  0  0  0  0  0
   -3.1779   -0.0697   -2.4983 C   0  0  0  0  0  0  0  0  0  0  0  0
   -4.5143   -0.2763   -2.5839 N   0  0  0  0  0  0  0  0  0  0  0  0
   -5.3535    0.0250   -1.5597 C   0  0  0  0  0  0  0  0  0  0  0  0
   -6.7281   -0.1851   -1.7173 C   0  0  0  0  0  0  0  0  0  0  0  0
   -7.6121    0.1514   -0.6923 C   0  0  0  0  0  0  0  0  0  0  0  0
   -7.1295    0.7088    0.4916 C   0  0  0  0  0  0  0  0  0  0  0  0
   -5.7587    0.9205    0.6659 C   0  0  0  0  0  0  0  0  0  0  0  0
   -4.8424    0.5640   -0.3492 C   0  0  0  0  0  0  0  0  0  0  0  0
   -1.9873   -1.5449    1.7867 C   0  0  0  0  0  0  0  0  0  0  0  0
   -1.4265   -2.7987    1.9776 C   0  0  0  0  0  0  0  0  0  0  0  0
    0.2204   -2.6857    1.6790 S   0  0  0  0  0  0  0  0  0  0  0  0
    5.1820   -0.4604    1.1901 C   0  0  0  0  0  0  0  0  0  0  0  0
    6.3736   -0.0637    0.5758 C   0  0  0  0  0  0  0  0  0  0  0  0
    5.1565    0.6683   -2.5173 H   0  0  0  0  0  0  0  0  0  0  0  0
    3.0682   -0.0510   -1.4515 H   0  0  0  0  0  0  0  0  0  0  0  0
    2.8527   -1.5476    1.9209 H   0  0  0  0  0  0  0  0  0  0  0  0
   -0.6755    1.5601    1.2250 H   0  0  0  0  0  0  0  0  0  0  0  0
   -2.8227    2.3869    1.0074 H   0  0  0  0  0  0  0  0  0  0  0  0
   -3.3584    0.9665    1.9570 H   0  0  0  0  0  0  0  0  0  0  0  0
   -1.5520    0.6157   -1.3018 H   0  0  0  0  0  0  0  0  0  0  0  0
   -2.5435   -0.3076   -3.3417 H   0  0  0  0  0  0  0  0  0  0  0  0
   -7.1144   -0.6021   -2.6393 H   0  0  0  0  0  0  0  0  0  0  0  0
   -8.6748   -0.0091   -0.8203 H   0  0  0  0  0  0  0  0  0  0  0  0
   -7.8215    0.9839    1.2773 H   0  0  0  0  0  0  0  0  0  0  0  0
   -5.4425    1.3814    1.5893 H   0  0  0  0  0  0  0  0  0  0  0  0
   -3.0439   -1.3624    1.9259 H   0  0  0  0  0  0  0  0  0  0  0  0
   -1.9608   -3.6930    2.2679 H   0  0  0  0  0  0  0  0  0  0  0  0
    5.1999   -0.7821    2.2240 H   0  0  0  0  0  0  0  0  0  0  0  0
    7.2850   -0.0897    1.1559 H   0  0  0  0  0  0  0  0  0  0  0  0
  1  2  1  0
  2  3  1  0
  2  4  1  0
  2  5  1  0
  5  6  1  0
  6  7  2  0
  7  8  1  0
  8  9  2  0
  9 10  1  0
 10 11  1  0
 11 12  2  0
 11 13  1  0
 13 14  2  0
 14 15  1  0
 15 16  1  0
 16 17  1  0
 17 18  2  0
 18 19  1  0
 19 20  2  0
 20 21  1  0
 21 22  2  0
 22 23  1  0
 23 24  2  0
 24 25  1  0
 25 26  2  0
 14 27  1  0
 27 28  2  0
 28 29  1  0
  9 30  1  0
 30 31  2  0
 31  6  1  0
 29 13  1  0
 26 17  1  0
 26 21  1  0
  7 32  1  0
  8 33  1  0
 10 34  1  0
 15 35  1  0
 16 36  1  0
 16 37  1  0
 18 38  1  0
 19 39  1  0
 22 40  1  0
 23 41  1  0
 24 42  1  0
 25 43  1  0
 27 44  1  0
 28 45  1  0
 30 46  1  0
 31 47  1  0
M  END
$$$$
