
     RDKit          3D

 48 50  0  0  0  0  0  0  0  0999 V2000
    6.7677    2.4781    1.1358 C   0  0  0  0  0  0  0  0  0  0  0  0
    6.2742    1.1711    0.7196 N   0  0  0  0  0  0  0  0  0  0  0  0
    6.8568    0.4678   -0.3891 C   0  0  0  0  0  0  0  0  0  0  0  0
    7.9158    0.9064   -0.9156 O   0  0  0  0  0  0  0  0  0  0  0  0
    6.2617   -0.7783   -0.9192 C   0  0  0  0  0  0  0  0  0  0  0  0
    7.0356   -1.6033   -1.6784 N   0  0  0  0  0  0  0  0  0  0  0  0
    6.5606   -2.7647   -2.1995 C   0  0  0  0  0  0  0  0  0  0  0  0
    5.2372   -3.1426   -1.9737 C   0  0  0  0  0  0  0  0  0  0  0  0
    4.3993   -2.3096   -1.2293 C   0  0  0  0  0  0  0  0  0  0  0  0
    3.0717   -2.7080   -1.0133 O   0  0  0  0  0  0  0  0  0  0  0  0
    1.9791   -1.8430   -0.8530 C   0  0  0  0  0  0  0  0  0  0  0  0
    0.9047   -2.2567   -0.0586 C   0  0  0  0  0  0  0  0  0  0  0  0
   -0.2097   -1.4305    0.1142 C   0  0  0  0  0  0  0  0  0  0  0  0
   -0.2760   -0.1830   -0.5320 C   0  0  0  0  0  0  0  0  0  0  0  0
   -1.3986    0.6977   -0.3528 N   0  0  0  0  0  0  0  0  0  0  0  0
   -2.7520    0.2527   -0.1742 C   0  0  0  0  0  0  0  0  0  0  0  0
   -3.0648   -0.9435   -0.4235 O   0  0  0  0  0  0  0  0  0  0  0  0
   -3.7619    1.1985    0.2095 N   0  0  0  0  0  0  0  0  0  0  0  0
   -5.0955    0.8372    0.6093 C   0  0  0  0  0  0  0  0  0  0  0  0
   -6.1587    1.7048    0.3193 C   0  0  0  0  0  0  0  0  0  0  0  0
   -7.4764    1.3966    0.7130 C   0  0  0  0  0  0  0  0  0  0  0  0
   -7.7116    0.1985    1.4248 C   0  0  0  0  0  0  0  0  0  0  0  0
   -9.3245   -0.2670    1.9592 Cl  0  0  0  0  0  0  0  0  0  0  0  0
   -6.6464   -0.6532    1.7338 C   0  0  0  0  0  0  0  0  0  0  0  0
   -5.3474   -0.3363    1.3367 C   0  0  0  0  0  0  0  0  0  0  0  0
   -8.6174    2.3346    0.3811 C   0  0  0  0  0  0  0  0  0  0  0  0
   -8.1832    3.4473   -0.3190 F   0  0  0  0  0  0  0  0  0  0  0  0
   -9.5520    1.6727   -0.3945 F   0  0  0  0  0  0  0  0  0  0  0  0
   -9.2189    2.7656    1.5496 F   0  0  0  0  0  0  0  0  0  0  0  0
    0.8027    0.2312   -1.3269 C   0  0  0  0  0  0  0  0  0  0  0  0
    1.9159   -0.5962   -1.4995 C   0  0  0  0  0  0  0  0  0  0  0  0
    4.9187   -1.1227   -0.6841 C   0  0  0  0  0  0  0  0  0  0  0  0
    6.6469    3.2067    0.3067 H   0  0  0  0  0  0  0  0  0  0  0  0
    6.1926    2.8369    2.0154 H   0  0  0  0  0  0  0  0  0  0  0  0
    7.8401    2.4060    1.4146 H   0  0  0  0  0  0  0  0  0  0  0  0
    5.5138    0.7334    1.2847 H   0  0  0  0  0  0  0  0  0  0  0  0
    7.2120   -3.3954   -2.7895 H   0  0  0  0  0  0  0  0  0  0  0  0
    4.8602   -4.0691   -2.3877 H   0  0  0  0  0  0  0  0  0  0  0  0
    0.9416   -3.2163    0.4414 H   0  0  0  0  0  0  0  0  0  0  0  0
   -1.0041   -1.7580    0.7712 H   0  0  0  0  0  0  0  0  0  0  0  0
   -1.2326    1.7265   -0.4316 H   0  0  0  0  0  0  0  0  0  0  0  0
   -3.5341    2.2145    0.1196 H   0  0  0  0  0  0  0  0  0  0  0  0
   -5.9476    2.6163   -0.2253 H   0  0  0  0  0  0  0  0  0  0  0  0
   -6.8240   -1.5633    2.2930 H   0  0  0  0  0  0  0  0  0  0  0  0
   -4.5394   -0.9967    1.6218 H   0  0  0  0  0  0  0  0  0  0  0  0
    0.7723    1.1910   -1.8275 H   0  0  0  0  0  0  0  0  0  0  0  0
    2.7178   -0.2703   -2.1487 H   0  0  0  0  0  0  0  0  0  0  0  0
    4.2779   -0.4840   -0.0942 H   0  0  0  0  0  0  0  0  0  0  0  0
  1  2  1  0
  2  3  1  0
  3  4  2  0
  3  5  1  0
  5  6  2  0
  6  7  1  0
  7  8  2  0
  8  9  1  0
  9 10  1  0
 10 11  1  0
 11 12  2  0
 12 13  1  0
 13 14  2  0
 14 15  1  0
 15 16  1  0
 16 17  2  0
 16 18  1  0
 18 19  1  0
 19 20  2  0
 20 21  1  0
 21 22  2  0
 22 23  1  0
 22 24  1  0
 24 25  2  0
 21 26  1  0
 26 27  1  0
 26 28  1  0
 26 29  1  0
 14 30  1  0
 30 31  2  0
  9 32  2  0
 32  5  1  0
 31 11  1  0
 25 19  1  0
  1 33  1  0
  1 34  1  0
  1 35  1  0
  2 36  1  0
  7 37  1  0
  8 38  1  0
 12 39  1  0
 13 40  1  0
 15 41  1  0
 18 42  1  0
 20 43  1  0
 24 44  1  0
 25 45  1  0
 30 46  1  0
 31 47  1  0
 32 48  1  0
M  END
$$$$
