
     RDKit          3D

 20 19  0  0  0  0  0  0  0  0999 V2000
    2.4783   -0.3606   -0.2494 N   0  0  0  0  0  4  0  0  0  0  0  0
    1.3792   -0.5704    0.6950 C   0  0  0  0  0  0  0  0  0  0  0  0
    0.4193    0.6328    0.7521 C   0  0  0  0  0  0  0  0  0  0  0  0
   -0.2593    0.9826   -0.5874 C   0  0  0  0  0  0  0  0  0  0  0  0
   -1.1261   -0.1425   -1.1740 C   0  0  0  0  0  0  0  0  0  0  0  0
   -2.2575   -0.5089   -0.2638 C   0  0  0  0  0  0  0  0  0  0  0  0
   -3.3631    0.3295   -0.1610 O   0  0  0  0  0  0  0  0  0  0  0  0
   -2.1975   -1.5603    0.4281 O   0  0  0  0  0  0  0  0  0  0  0  0
    3.1885   -1.1165   -0.1173 H   0  0  0  0  0  0  0  0  0  0  0  0
    2.9358    0.5641   -0.0780 H   0  0  0  0  0  0  0  0  0  0  0  0
    2.1261   -0.4101   -1.2321 H   0  0  0  0  0  0  0  0  0  0  0  0
    0.8267   -1.4983    0.4340 H   0  0  0  0  0  0  0  0  0  0  0  0
    1.8015   -0.7224    1.7130 H   0  0  0  0  0  0  0  0  0  0  0  0
   -0.3597    0.4313    1.5184 H   0  0  0  0  0  0  0  0  0  0  0  0
    0.9854    1.5237    1.1009 H   0  0  0  0  0  0  0  0  0  0  0  0
    0.5113    1.2726   -1.3326 H   0  0  0  0  0  0  0  0  0  0  0  0
   -0.8977    1.8799   -0.4316 H   0  0  0  0  0  0  0  0  0  0  0  0
   -1.5531    0.2066   -2.1384 H   0  0  0  0  0  0  0  0  0  0  0  0
   -0.5070   -1.0356   -1.4020 H   0  0  0  0  0  0  0  0  0  0  0  0
   -4.1312    0.1023    0.4590 H   0  0  0  0  0  0  0  0  0  0  0  0
  1  2  1  0
  2  3  1  0
  3  4  1  0
  4  5  1  0
  5  6  1  0
  6  7  1  0
  6  8  2  0
  1  9  1  0
  1 10  1  0
  1 11  1  0
  2 12  1  0
  2 13  1  0
  3 14  1  0
  3 15  1  0
  4 16  1  0
  4 17  1  0
  5 18  1  0
  5 19  1  0
  7 20  1  0
M  CHG  1   1   1
M  END
$$$$
