
     RDKit          3D

 15 14  0  0  0  0  0  0  0  0999 V2000
   -1.3363   -1.4496   -0.5412 N   0  0  0  0  0  0  0  0  0  0  0  0
   -0.6023   -0.5899    0.3891 C   0  0  1  0  0  0  0  0  0  0  0  0
    0.8431   -0.3679   -0.0907 C   0  0  0  0  0  0  0  0  0  0  0  0
    1.8223    0.5162    1.1698 S   0  0  0  0  0  0  0  0  0  0  0  0
    3.2421    0.4973    0.2030 O   0  0  0  0  0  0  0  0  0  0  0  0
   -1.3301    0.7167    0.5385 C   0  0  0  0  0  0  0  0  0  0  0  0
   -1.5455    1.5274   -0.5726 O   0  0  0  0  0  0  0  0  0  0  0  0
   -1.7443    1.0825    1.6712 O   0  0  0  0  0  0  0  0  0  0  0  0
   -0.8919   -2.3967   -0.5434 H   0  0  0  0  0  0  0  0  0  0  0  0
   -1.2535   -1.0659   -1.5115 H   0  0  0  0  0  0  0  0  0  0  0  0
   -0.5695   -1.0988    1.3791 H   0  0  0  0  0  0  0  0  0  0  0  0
    1.3256   -1.3511   -0.2782 H   0  0  0  0  0  0  0  0  0  0  0  0
    0.8520    0.2123   -1.0390 H   0  0  0  0  0  0  0  0  0  0  0  0
    3.2209    1.3563   -0.2898 H   0  0  0  0  0  0  0  0  0  0  0  0
   -2.0325    2.4112   -0.4843 H   0  0  0  0  0  0  0  0  0  0  0  0
  1  2  1  0
  2  3  1  0
  3  4  1  0
  4  5  1  0
  2  6  1  0
  6  7  1  0
  6  8  2  0
  1  9  1  0
  1 10  1  0
  2 11  1  1
  3 12  1  0
  3 13  1  0
  5 14  1  0
  7 15  1  0
M  END
$$$$
