
     RDKit          3D

 61 64  0  0  0  0  0  0  0  0999 V2000
   -0.1225   -0.3136   -1.0174 C   0  0  2  0  0  0  0  0  0  0  0  0
    0.7015   -1.4022   -1.6936 C   0  0  0  0  0  0  0  0  0  0  0  0
    2.1460   -0.8423   -1.6844 C   0  0  1  0  0  0  0  0  0  0  0  0
    2.6544   -0.5548   -3.1030 C   0  0  0  0  0  0  0  0  0  0  0  0
    2.1027    0.4527   -0.8103 C   0  0  2  0  0  0  0  0  0  0  0  0
    3.3541    0.7664    0.0013 C   0  0  0  0  0  0  0  0  0  0  0  0
    3.4134    1.8419    0.5796 O   0  0  0  0  0  0  0  0  0  0  0  0
    4.5181   -0.1858    0.1108 C   0  0  0  0  0  0  0  0  0  0  0  0
    5.5669    0.3920    0.8840 O   0  0  0  0  0  0  0  0  0  0  0  0
    6.7634   -0.2791    1.1508 C   0  0  0  0  0  0  0  0  0  0  0  0
    7.8231    0.3980    1.9515 C   0  0  0  0  0  0  0  0  0  0  0  0
    6.9723   -1.4332    0.6873 O   0  0  0  0  0  0  0  0  0  0  0  0
    0.8165    0.2862    0.0375 C   0  0  2  0  0  0  0  0  0  0  0  0
    1.1097   -0.6697    1.2424 C   0  0  0  0  0  0  0  0  0  0  0  0
    0.1900    1.6147    0.5309 C   0  0  0  0  0  0  0  0  0  0  0  0
   -1.2560    1.4278    1.0846 C   0  0  2  0  0  0  0  0  0  0  0  0
   -1.2002    0.8011    2.3375 O   0  0  0  0  0  0  0  0  0  0  0  0
   -2.2141    0.6567    0.0927 C   0  0  1  0  0  0  0  0  0  0  0  0
   -2.4830    1.8022   -1.2950 Cl  0  0  0  0  0  0  0  0  0  0  0  0
   -1.5241   -0.6561   -0.4577 C   0  0  1  0  0  0  0  0  0  0  0  0
   -2.3971   -1.3490   -1.5276 C   0  0  0  0  0  0  0  0  0  0  0  0
   -3.7938   -1.6758   -0.9947 C   0  0  2  0  0  0  0  0  0  0  0  0
   -4.5439   -2.2157   -2.0284 F   0  0  0  0  0  0  0  0  0  0  0  0
   -4.4399   -0.4374   -0.4025 C   0  0  0  0  0  0  0  0  0  0  0  0
   -5.6809   -0.0745   -0.7756 C   0  0  0  0  0  0  0  0  0  0  0  0
   -6.3121    1.1277   -0.2315 C   0  0  0  0  0  0  0  0  0  0  0  0
   -7.4801    1.4427   -0.5808 O   0  0  0  0  0  0  0  0  0  0  0  0
   -5.5755    1.9699    0.7059 C   0  0  0  0  0  0  0  0  0  0  0  0
   -4.3512    1.6275    1.1053 C   0  0  0  0  0  0  0  0  0  0  0  0
   -3.6571    0.3288    0.6840 C   0  0  2  0  0  0  0  0  0  0  0  0
   -3.6495   -0.5711    1.9492 C   0  0  0  0  0  0  0  0  0  0  0  0
   -0.2788    0.4458   -1.8195 H   0  0  0  0  0  0  0  0  0  0  0  0
    0.6452   -2.3461   -1.1079 H   0  0  0  0  0  0  0  0  0  0  0  0
    0.3259   -1.6037   -2.7215 H   0  0  0  0  0  0  0  0  0  0  0  0
    2.7991   -1.6190   -1.2349 H   0  0  0  0  0  0  0  0  0  0  0  0
    2.7035   -1.4991   -3.6857 H   0  0  0  0  0  0  0  0  0  0  0  0
    1.9776    0.1542   -3.6267 H   0  0  0  0  0  0  0  0  0  0  0  0
    3.6727   -0.1147   -3.0618 H   0  0  0  0  0  0  0  0  0  0  0  0
    1.9549    1.3237   -1.4913 H   0  0  0  0  0  0  0  0  0  0  0  0
    4.9019   -0.4168   -0.9055 H   0  0  0  0  0  0  0  0  0  0  0  0
    4.1786   -1.1222    0.6025 H   0  0  0  0  0  0  0  0  0  0  0  0
    8.3404   -0.3397    2.6005 H   0  0  0  0  0  0  0  0  0  0  0  0
    7.3706    1.1837    2.5921 H   0  0  0  0  0  0  0  0  0  0  0  0
    8.5610    0.8661    1.2674 H   0  0  0  0  0  0  0  0  0  0  0  0
    1.6754   -1.5704    0.9285 H   0  0  0  0  0  0  0  0  0  0  0  0
    0.2031   -1.0362    1.7527 H   0  0  0  0  0  0  0  0  0  0  0  0
    1.7210   -0.1446    2.0066 H   0  0  0  0  0  0  0  0  0  0  0  0
    0.8315    2.0682    1.3170 H   0  0  0  0  0  0  0  0  0  0  0  0
    0.1589    2.3477   -0.3048 H   0  0  0  0  0  0  0  0  0  0  0  0
   -1.6676    2.4537    1.2277 H   0  0  0  0  0  0  0  0  0  0  0  0
   -0.8649    1.4726    2.9878 H   0  0  0  0  0  0  0  0  0  0  0  0
   -1.3973   -1.3927    0.3552 H   0  0  0  0  0  0  0  0  0  0  0  0
   -2.4841   -0.7136   -2.4355 H   0  0  0  0  0  0  0  0  0  0  0  0
   -1.9181   -2.3028   -1.8378 H   0  0  0  0  0  0  0  0  0  0  0  0
   -3.7108   -2.4511   -0.2038 H   0  0  0  0  0  0  0  0  0  0  0  0
   -6.2370   -0.6503   -1.5043 H   0  0  0  0  0  0  0  0  0  0  0  0
   -6.0283    2.8799    1.0800 H   0  0  0  0  0  0  0  0  0  0  0  0
   -3.8659    2.2687    1.8298 H   0  0  0  0  0  0  0  0  0  0  0  0
   -4.6726   -0.9630    2.1414 H   0  0  0  0  0  0  0  0  0  0  0  0
   -2.9774   -1.4443    1.8550 H   0  0  0  0  0  0  0  0  0  0  0  0
   -3.3696   -0.0098    2.8642 H   0  0  0  0  0  0  0  0  0  0  0  0
  1  2  1  0
  2  3  1  0
  3  4  1  0
  3  5  1  0
  5  6  1  0
  6  7  2  0
  6  8  1  0
  8  9  1  0
  9 10  1  0
 10 11  1  0
 10 12  2  0
  5 13  1  0
 13 14  1  1
 13 15  1  0
 15 16  1  0
 16 17  1  0
 16 18  1  0
 18 19  1  6
 18 20  1  0
 20 21  1  0
 21 22  1  0
 22 23  1  0
 22 24  1  0
 24 25  2  0
 25 26  1  0
 26 27  2  0
 26 28  1  0
 28 29  2  0
 29 30  1  0
 30 31  1  1
 13  1  1  0
 30 18  1  0
 20  1  1  0
 30 24  1  0
  1 32  1  6
  2 33  1  0
  2 34  1  0
  3 35  1  1
  4 36  1  0
  4 37  1  0
  4 38  1  0
  5 39  1  6
  8 40  1  0
  8 41  1  0
 11 42  1  0
 11 43  1  0
 11 44  1  0
 14 45  1  0
 14 46  1  0
 14 47  1  0
 15 48  1  0
 15 49  1  0
 16 50  1  1
 17 51  1  0
 20 52  1  1
 21 53  1  0
 21 54  1  0
 22 55  1  1
 25 56  1  0
 28 57  1  0
 29 58  1  0
 31 59  1  0
 31 60  1  0
 31 61  1  0
M  END
$$$$
