
     RDKit          3D

 20 21  0  0  0  0  0  0  0  0999 V2000
    2.6227   -1.8983   -0.3481 O   0  0  0  0  0  0  0  0  0  0  0  0
    1.7830   -0.7928   -0.2042 C   0  0  0  0  0  0  0  0  0  0  0  0
    0.3891   -0.9392   -0.0933 C   0  0  0  0  0  0  0  0  0  0  0  0
   -0.1680   -2.1817   -0.1078 N   0  0  0  0  0  0  0  0  0  0  0  0
   -1.5051   -2.3753    0.0250 C   0  0  0  0  0  0  0  0  0  0  0  0
   -2.3545   -1.2849    0.1984 C   0  0  0  0  0  0  0  0  0  0  0  0
   -1.8229    0.0049    0.2183 C   0  0  0  0  0  0  0  0  0  0  0  0
   -0.4389    0.2054    0.0499 C   0  0  0  0  0  0  0  0  0  0  0  0
    0.1494    1.4962    0.0556 C   0  0  0  0  0  0  0  0  0  0  0  0
    1.5451    1.6124   -0.0318 C   0  0  0  0  0  0  0  0  0  0  0  0
    2.3504    0.4813   -0.1640 C   0  0  0  0  0  0  0  0  0  0  0  0
   -0.6406    2.6942    0.1297 N   0  0  0  0  0  4  0  0  0  0  0  0
   -0.1736    3.7767    0.8390 O   0  0  0  0  0  1  0  0  0  0  0  0
   -1.6147    2.8511   -0.6347 O   0  0  0  0  0  0  0  0  0  0  0  0
    2.2696   -2.8470   -0.3831 H   0  0  0  0  0  0  0  0  0  0  0  0
   -1.9073   -3.3794    0.0086 H   0  0  0  0  0  0  0  0  0  0  0  0
   -3.4186   -1.4384    0.3239 H   0  0  0  0  0  0  0  0  0  0  0  0
   -2.5008    0.8291    0.3872 H   0  0  0  0  0  0  0  0  0  0  0  0
    2.0119    2.5893   -0.0245 H   0  0  0  0  0  0  0  0  0  0  0  0
    3.4240    0.5966   -0.2439 H   0  0  0  0  0  0  0  0  0  0  0  0
  1  2  1  0
  2  3  2  0
  3  4  1  0
  4  5  2  0
  5  6  1  0
  6  7  2  0
  7  8  1  0
  8  9  2  0
  9 10  1  0
 10 11  2  0
  9 12  1  0
 12 13  1  0
 12 14  2  0
 11  2  1  0
  8  3  1  0
  1 15  1  0
  5 16  1  0
  6 17  1  0
  7 18  1  0
 10 19  1  0
 11 20  1  0
M  CHG  2  12   1  13  -1
M  END
$$$$
