
     RDKit          3D

 34 35  0  0  0  0  0  0  0  0999 V2000
    5.7524   -1.5320    1.8386 O   0  0  0  0  0  0  0  0  0  0  0  0
    5.7080   -0.3202    1.1563 C   0  0  0  0  0  0  0  0  0  0  0  0
    6.0370    0.7454    1.7428 O   0  0  0  0  0  0  0  0  0  0  0  0
    5.2399   -0.2821   -0.2661 C   0  0  0  0  0  0  0  0  0  0  0  0
    3.7160   -0.4251   -0.3665 C   0  0  0  0  0  0  0  0  0  0  0  0
    2.9795    0.8063    0.1775 C   0  0  0  0  0  0  0  0  0  0  0  0
    1.5359    0.6388    0.0402 N   0  0  0  0  0  0  0  0  0  0  0  0
    0.8977    0.7258   -1.2405 C   0  0  0  0  0  0  0  0  0  0  0  0
   -0.4213    0.5742   -1.3716 C   0  0  0  0  0  0  0  0  0  0  0  0
   -1.3347    0.3144   -0.3105 N   0  0  0  0  0  0  0  0  0  0  0  0
   -2.5139    0.2334   -0.8596 C   0  0  0  0  0  0  0  0  0  0  0  0
   -2.5124    0.4174   -2.2477 O   0  0  0  0  0  0  0  0  0  0  0  0
   -1.1932    0.6345   -2.5884 C   0  0  0  0  0  0  0  0  0  0  0  0
   -0.7697    0.8436   -3.7554 O   0  0  0  0  0  0  0  0  0  0  0  0
   -3.7443   -0.0298   -0.0854 C   0  0  0  0  0  0  0  0  0  0  0  0
   -4.9850   -0.1045   -0.7418 C   0  0  0  0  0  0  0  0  0  0  0  0
   -6.1544   -0.3533   -0.0162 C   0  0  0  0  0  0  0  0  0  0  0  0
   -6.0963   -0.5295    1.3684 C   0  0  0  0  0  0  0  0  0  0  0  0
   -4.8683   -0.4571    2.0305 C   0  0  0  0  0  0  0  0  0  0  0  0
   -3.6960   -0.2086    1.3098 C   0  0  0  0  0  0  0  0  0  0  0  0
    6.0556   -1.5735    2.8042 H   0  0  0  0  0  0  0  0  0  0  0  0
    5.5675    0.6622   -0.7537 H   0  0  0  0  0  0  0  0  0  0  0  0
    5.7161   -1.1230   -0.8144 H   0  0  0  0  0  0  0  0  0  0  0  0
    3.3845   -1.3335    0.1835 H   0  0  0  0  0  0  0  0  0  0  0  0
    3.4510   -0.5634   -1.4370 H   0  0  0  0  0  0  0  0  0  0  0  0
    3.3013    1.7212   -0.3664 H   0  0  0  0  0  0  0  0  0  0  0  0
    3.2249    0.9405    1.2531 H   0  0  0  0  0  0  0  0  0  0  0  0
    0.9647    0.5123    0.9065 H   0  0  0  0  0  0  0  0  0  0  0  0
    1.4976    0.9184   -2.1222 H   0  0  0  0  0  0  0  0  0  0  0  0
   -5.0516    0.0291   -1.8143 H   0  0  0  0  0  0  0  0  0  0  0  0
   -7.1064   -0.4096   -0.5281 H   0  0  0  0  0  0  0  0  0  0  0  0
   -7.0025   -0.7219    1.9281 H   0  0  0  0  0  0  0  0  0  0  0  0
   -4.8245   -0.5937    3.1034 H   0  0  0  0  0  0  0  0  0  0  0  0
   -2.7549   -0.1565    1.8428 H   0  0  0  0  0  0  0  0  0  0  0  0
  1  2  1  0
  2  3  2  0
  2  4  1  0
  4  5  1  0
  5  6  1  0
  6  7  1  0
  7  8  1  0
  8  9  2  3
  9 10  1  0
 10 11  2  0
 11 12  1  0
 12 13  1  0
 13 14  2  0
 11 15  1  0
 15 16  2  0
 16 17  1  0
 17 18  2  0
 18 19  1  0
 19 20  2  0
 13  9  1  0
 20 15  1  0
  1 21  1  0
  4 22  1  0
  4 23  1  0
  5 24  1  0
  5 25  1  0
  6 26  1  0
  6 27  1  0
  7 28  1  0
  8 29  1  0
 16 30  1  0
 17 31  1  0
 18 32  1  0
 19 33  1  0
 20 34  1  0
M  END
$$$$
