
     RDKit          3D

 41 41  0  0  0  0  0  0  0  0999 V2000
    4.0622    0.6441   -1.5235 C   0  0  0  0  0  0  0  0  0  0  0  0
    4.4333    0.3525   -0.0619 C   0  0  0  0  0  0  0  0  0  0  0  0
    5.2763    1.5103    0.4898 C   0  0  0  0  0  0  0  0  0  0  0  0
    3.2188    0.1818    0.7599 N   0  0  0  0  0  0  0  0  0  0  0  0
    2.5080   -1.0827    0.4870 C   0  0  0  0  0  0  0  0  0  0  0  0
    1.1274   -0.7979   -0.1280 C   0  0  0  0  0  0  0  0  0  0  0  0
    0.5290   -2.0089   -0.5082 O   0  0  0  0  0  0  0  0  0  0  0  0
    0.2167   -0.0622    0.8690 C   0  0  0  0  0  0  0  0  0  0  0  0
   -1.0327    0.2758    0.2638 O   0  0  0  0  0  0  0  0  0  0  0  0
   -2.1492   -0.5693    0.1241 C   0  0  0  0  0  0  0  0  0  0  0  0
   -2.2171   -1.8389    0.7350 C   0  0  0  0  0  0  0  0  0  0  0  0
   -3.3526   -2.6377    0.5827 C   0  0  0  0  0  0  0  0  0  0  0  0
   -4.4340   -2.1832   -0.1708 C   0  0  0  0  0  0  0  0  0  0  0  0
   -4.3838   -0.9282   -0.7787 C   0  0  0  0  0  0  0  0  0  0  0  0
   -3.2442   -0.1172   -0.6444 C   0  0  0  0  0  0  0  0  0  0  0  0
   -3.2191    1.2452   -1.2927 C   0  0  0  0  0  0  0  0  0  0  0  0
   -3.4769    2.3246   -0.2788 C   0  0  0  0  0  0  0  0  0  0  0  0
   -4.6825    2.4980    0.2706 C   0  0  0  0  0  0  0  0  0  0  0  0
    3.5564   -0.2302   -1.9825 H   0  0  0  0  0  0  0  0  0  0  0  0
    3.3852    1.5232   -1.5832 H   0  0  0  0  0  0  0  0  0  0  0  0
    4.9760    0.8516   -2.1204 H   0  0  0  0  0  0  0  0  0  0  0  0
    5.0607   -0.5672   -0.0207 H   0  0  0  0  0  0  0  0  0  0  0  0
    6.1890    1.6537   -0.1273 H   0  0  0  0  0  0  0  0  0  0  0  0
    5.5985    1.2881    1.5294 H   0  0  0  0  0  0  0  0  0  0  0  0
    4.6880    2.4532    0.4913 H   0  0  0  0  0  0  0  0  0  0  0  0
    3.4985    0.1728    1.7696 H   0  0  0  0  0  0  0  0  0  0  0  0
    2.3695   -1.6575    1.4316 H   0  0  0  0  0  0  0  0  0  0  0  0
    3.0825   -1.7487   -0.1956 H   0  0  0  0  0  0  0  0  0  0  0  0
    1.2514   -0.1451   -1.0233 H   0  0  0  0  0  0  0  0  0  0  0  0
    0.9510   -2.2831   -1.3642 H   0  0  0  0  0  0  0  0  0  0  0  0
    0.0708   -0.6433    1.8032 H   0  0  0  0  0  0  0  0  0  0  0  0
    0.7072    0.8898    1.1626 H   0  0  0  0  0  0  0  0  0  0  0  0
   -1.4044   -2.2230    1.3329 H   0  0  0  0  0  0  0  0  0  0  0  0
   -3.3956   -3.6109    1.0548 H   0  0  0  0  0  0  0  0  0  0  0  0
   -5.3143   -2.8031   -0.2817 H   0  0  0  0  0  0  0  0  0  0  0  0
   -5.2357   -0.5876   -1.3543 H   0  0  0  0  0  0  0  0  0  0  0  0
   -3.9694    1.3148   -2.1107 H   0  0  0  0  0  0  0  0  0  0  0  0
   -2.2245    1.4139   -1.7587 H   0  0  0  0  0  0  0  0  0  0  0  0
   -2.6641    2.9864    0.0056 H   0  0  0  0  0  0  0  0  0  0  0  0
   -5.5165    1.8571    0.0013 H   0  0  0  0  0  0  0  0  0  0  0  0
   -4.8395    3.2887    0.9969 H   0  0  0  0  0  0  0  0  0  0  0  0
  1  2  1  0
  2  3  1  0
  2  4  1  0
  4  5  1  0
  5  6  1  0
  6  7  1  0
  6  8  1  0
  8  9  1  0
  9 10  1  0
 10 11  2  0
 11 12  1  0
 12 13  2  0
 13 14  1  0
 14 15  2  0
 15 16  1  0
 16 17  1  0
 17 18  2  3
 15 10  1  0
  1 19  1  0
  1 20  1  0
  1 21  1  0
  2 22  1  0
  3 23  1  0
  3 24  1  0
  3 25  1  0
  4 26  1  0
  5 27  1  0
  5 28  1  0
  6 29  1  0
  7 30  1  0
  8 31  1  0
  8 32  1  0
 11 33  1  0
 12 34  1  0
 13 35  1  0
 14 36  1  0
 16 37  1  0
 16 38  1  0
 17 39  1  0
 18 40  1  0
 18 41  1  0
M  END
$$$$
