
     RDKit          3D

 69 71  0  0  0  0  0  0  0  0999 V2000
    9.0860   -1.7323    3.3510 C   0  0  0  0  0  0  0  0  0  0  0  0
    8.3971   -1.0084    2.2406 C   0  0  0  0  0  0  0  0  0  0  0  0
    8.1573   -1.6162    1.1624 O   0  0  0  0  0  0  0  0  0  0  0  0
    8.1016    0.3904    2.3748 N   0  0  0  0  0  0  0  0  0  0  0  0
    7.2847    1.1341    1.4541 C   0  0  0  0  0  0  0  0  0  0  0  0
    7.5681    2.4876    1.2244 C   0  0  0  0  0  0  0  0  0  0  0  0
    6.7799    3.2361    0.3484 C   0  0  0  0  0  0  0  0  0  0  0  0
    5.6917    2.6451   -0.2967 C   0  0  0  0  0  0  0  0  0  0  0  0
    5.3734    1.2971   -0.0628 C   0  0  0  0  0  0  0  0  0  0  0  0
    6.1725    0.5490    0.8215 C   0  0  0  0  0  0  0  0  0  0  0  0
    4.2393    0.6923   -0.7170 N   0  0  0  0  0  0  0  0  0  0  0  0
    3.3751   -0.2385    0.0219 C   0  0  0  0  0  0  0  0  0  0  0  0
    1.9069   -0.1721   -0.4572 C   0  0  0  0  0  0  0  0  0  0  0  0
    1.7442    0.4012   -1.8163 N   0  0  0  0  0  0  0  0  0  0  0  0
    0.4661   -0.0145   -2.4368 C   0  0  0  0  0  0  0  0  0  0  0  0
   -0.7401    0.6920   -1.7830 C   0  0  0  0  0  0  0  0  0  0  0  0
   -1.5087   -0.2277   -0.8195 C   0  0  0  0  0  0  0  0  0  0  0  0
   -2.6813    0.4982   -0.1513 C   0  0  0  0  0  0  0  0  0  0  0  0
   -3.6869    0.8782   -1.1475 N   0  0  0  0  0  0  0  0  0  0  0  0
   -4.9270    1.8487   -0.4091 S   0  0  0  0  0  6  0  0  0  0  0  0
   -5.9437    2.2153   -1.4530 O   0  0  0  0  0  0  0  0  0  0  0  0
   -4.3131    3.1142    0.1211 O   0  0  0  0  0  0  0  0  0  0  0  0
   -5.7411    0.9971    0.9466 C   0  0  0  0  0  0  0  0  0  0  0  0
   -6.2469   -0.4119    0.5695 C   0  0  0  0  0  0  0  0  0  0  0  0
   -7.3471   -0.3634   -0.5258 C   0  0  0  0  0  0  0  0  0  0  0  0
   -8.3140   -1.5645   -0.4869 C   0  0  0  0  0  0  0  0  0  0  0  0
   -7.6362   -2.8198    0.0682 C   0  0  0  0  0  0  0  0  0  0  0  0
   -7.1472   -2.6065    1.5141 C   0  0  0  0  0  0  0  0  0  0  0  0
   -6.7612   -1.1451    1.8234 C   0  0  0  0  0  0  0  0  0  0  0  0
    2.8837    0.0513   -2.6811 C   0  0  0  0  0  0  0  0  0  0  0  0
    4.1225    0.7904   -2.1783 C   0  0  0  0  0  0  0  0  0  0  0  0
   10.1763   -1.5308    3.3029 H   0  0  0  0  0  0  0  0  0  0  0  0
    8.6927   -1.3858    4.3297 H   0  0  0  0  0  0  0  0  0  0  0  0
    8.9127   -2.8260    3.2653 H   0  0  0  0  0  0  0  0  0  0  0  0
    8.5789    0.9149    3.1428 H   0  0  0  0  0  0  0  0  0  0  0  0
    8.4081    2.9597    1.7184 H   0  0  0  0  0  0  0  0  0  0  0  0
    7.0100    4.2790    0.1728 H   0  0  0  0  0  0  0  0  0  0  0  0
    5.0833    3.2492   -0.9562 H   0  0  0  0  0  0  0  0  0  0  0  0
    5.9191   -0.4828    1.0227 H   0  0  0  0  0  0  0  0  0  0  0  0
    3.4080   -0.0179    1.1120 H   0  0  0  0  0  0  0  0  0  0  0  0
    3.7618   -1.2707   -0.1246 H   0  0  0  0  0  0  0  0  0  0  0  0
    1.3413    0.4642    0.2569 H   0  0  0  0  0  0  0  0  0  0  0  0
    1.4853   -1.2011   -0.4001 H   0  0  0  0  0  0  0  0  0  0  0  0
    0.4614    0.2822   -3.5099 H   0  0  0  0  0  0  0  0  0  0  0  0
    0.3536   -1.1227   -2.4234 H   0  0  0  0  0  0  0  0  0  0  0  0
   -0.4051    1.6091   -1.2502 H   0  0  0  0  0  0  0  0  0  0  0  0
   -1.4375    1.0181   -2.5860 H   0  0  0  0  0  0  0  0  0  0  0  0
   -0.8303   -0.5929   -0.0216 H   0  0  0  0  0  0  0  0  0  0  0  0
   -1.8914   -1.1142   -1.3713 H   0  0  0  0  0  0  0  0  0  0  0  0
   -2.2952    1.3997    0.3736 H   0  0  0  0  0  0  0  0  0  0  0  0
   -3.1286   -0.1808    0.6068 H   0  0  0  0  0  0  0  0  0  0  0  0
   -4.1394    0.0118   -1.5185 H   0  0  0  0  0  0  0  0  0  0  0  0
   -6.5878    1.6222    1.3031 H   0  0  0  0  0  0  0  0  0  0  0  0
   -5.0123    0.9190    1.7813 H   0  0  0  0  0  0  0  0  0  0  0  0
   -5.3877   -1.0005    0.1816 H   0  0  0  0  0  0  0  0  0  0  0  0
   -6.8533   -0.3361   -1.5216 H   0  0  0  0  0  0  0  0  0  0  0  0
   -7.9518    0.5649   -0.4296 H   0  0  0  0  0  0  0  0  0  0  0  0
   -8.6946   -1.7688   -1.5110 H   0  0  0  0  0  0  0  0  0  0  0  0
   -9.1898   -1.3161    0.1526 H   0  0  0  0  0  0  0  0  0  0  0  0
   -8.3487   -3.6723    0.0390 H   0  0  0  0  0  0  0  0  0  0  0  0
   -6.7726   -3.0811   -0.5825 H   0  0  0  0  0  0  0  0  0  0  0  0
   -6.2692   -3.2653    1.6915 H   0  0  0  0  0  0  0  0  0  0  0  0
   -7.9440   -2.9209    2.2230 H   0  0  0  0  0  0  0  0  0  0  0  0
   -7.6499   -0.6069    2.2224 H   0  0  0  0  0  0  0  0  0  0  0  0
   -5.9830   -1.1418    2.6179 H   0  0  0  0  0  0  0  0  0  0  0  0
    3.0596   -1.0488   -2.6770 H   0  0  0  0  0  0  0  0  0  0  0  0
    2.7026    0.3685   -3.7322 H   0  0  0  0  0  0  0  0  0  0  0  0
    4.0309    1.8572   -2.4733 H   0  0  0  0  0  0  0  0  0  0  0  0
    5.0309    0.3668   -2.6585 H   0  0  0  0  0  0  0  0  0  0  0  0
  1  2  1  0
  2  3  2  0
  2  4  1  0
  4  5  1  0
  5  6  2  0
  6  7  1  0
  7  8  2  0
  8  9  1  0
  9 10  2  0
  9 11  1  0
 11 12  1  0
 12 13  1  0
 13 14  1  0
 14 15  1  0
 15 16  1  0
 16 17  1  0
 17 18  1  0
 18 19  1  0
 19 20  1  0
 20 21  2  0
 20 22  2  0
 20 23  1  0
 23 24  1  0
 24 25  1  0
 25 26  1  0
 26 27  1  0
 27 28  1  0
 28 29  1  0
 14 30  1  0
 30 31  1  0
 10  5  1  0
 31 11  1  0
 29 24  1  0
  1 32  1  0
  1 33  1  0
  1 34  1  0
  4 35  1  0
  6 36  1  0
  7 37  1  0
  8 38  1  0
 10 39  1  0
 12 40  1  0
 12 41  1  0
 13 42  1  0
 13 43  1  0
 15 44  1  0
 15 45  1  0
 16 46  1  0
 16 47  1  0
 17 48  1  0
 17 49  1  0
 18 50  1  0
 18 51  1  0
 19 52  1  0
 23 53  1  0
 23 54  1  0
 24 55  1  0
 25 56  1  0
 25 57  1  0
 26 58  1  0
 26 59  1  0
 27 60  1  0
 27 61  1  0
 28 62  1  0
 28 63  1  0
 29 64  1  0
 29 65  1  0
 30 66  1  0
 30 67  1  0
 31 68  1  0
 31 69  1  0
M  END
$$$$
