
     RDKit          3D

 49 50  0  0  0  0  0  0  0  0999 V2000
   -4.4288   -0.8759    0.4998 C   0  0  2  0  0  0  0  0  0  0  0  0
   -4.4304   -1.7778    1.6547 N   0  0  0  0  0  0  0  0  0  0  0  0
   -5.1104   -1.5427   -0.7140 C   0  0  0  0  0  0  0  0  0  0  0  0
   -4.4513   -2.8557   -1.1444 C   0  0  0  0  0  0  0  0  0  0  0  0
   -3.0151   -0.4499    0.1643 C   0  0  0  0  0  0  0  0  0  0  0  0
   -2.0683   -1.2596    0.3664 O   0  0  0  0  0  0  0  0  0  0  0  0
   -2.7314    0.8340   -0.4277 N   0  0  0  0  0  0  0  0  0  0  0  0
   -3.7265    1.8667   -0.6762 C   0  0  0  0  0  0  0  0  0  0  0  0
   -2.9647    3.0425   -1.2757 C   0  0  0  0  0  0  0  0  0  0  0  0
   -1.6190    2.4814   -1.7259 C   0  0  0  0  0  0  0  0  0  0  0  0
   -1.4076    1.2073   -0.9076 C   0  0  1  0  0  0  0  0  0  0  0  0
   -0.4780    1.4518    0.2536 C   0  0  0  0  0  0  0  0  0  0  0  0
   -0.8715    2.1385    1.2365 O   0  0  0  0  0  0  0  0  0  0  0  0
    0.8578    0.9330    0.2274 N   0  0  0  0  0  0  0  0  0  0  0  0
    1.7793    1.1454    1.3424 C   0  0  0  0  0  0  0  0  0  0  0  0
    3.1021    0.4821    1.0695 C   0  0  0  0  0  0  0  0  0  0  0  0
    3.3074   -0.8586    1.4259 C   0  0  0  0  0  0  0  0  0  0  0  0
    4.5222   -1.4877    1.1387 C   0  0  0  0  0  0  0  0  0  0  0  0
    5.5493   -0.7886    0.4791 C   0  0  0  0  0  0  0  0  0  0  0  0
    5.3312    0.5489    0.1063 C   0  0  0  0  0  0  0  0  0  0  0  0
    4.1164    1.1772    0.3952 C   0  0  0  0  0  0  0  0  0  0  0  0
    6.8402   -1.4516    0.1654 C   0  0  0  0  0  0  0  0  0  0  0  0
    7.5247   -1.1540   -1.0544 N   0  0  0  0  0  0  0  0  0  0  0  0
    7.3715   -2.3002    0.9901 N   0  0  0  0  0  0  0  0  0  0  0  0
   -5.0247    0.0232    0.7683 H   0  0  0  0  0  0  0  0  0  0  0  0
   -5.4232   -1.9974    1.9011 H   0  0  0  0  0  0  0  0  0  0  0  0
   -4.0372   -1.2611    2.4753 H   0  0  0  0  0  0  0  0  0  0  0  0
   -6.1740   -1.7468   -0.4630 H   0  0  0  0  0  0  0  0  0  0  0  0
   -5.1070   -0.8422   -1.5764 H   0  0  0  0  0  0  0  0  0  0  0  0
   -5.0281   -3.2988   -1.9834 H   0  0  0  0  0  0  0  0  0  0  0  0
   -4.4391   -3.5834   -0.3060 H   0  0  0  0  0  0  0  0  0  0  0  0
   -3.4135   -2.6771   -1.4949 H   0  0  0  0  0  0  0  0  0  0  0  0
   -4.4857    1.4946   -1.3963 H   0  0  0  0  0  0  0  0  0  0  0  0
   -4.2158    2.1723    0.2736 H   0  0  0  0  0  0  0  0  0  0  0  0
   -2.7987    3.8174   -0.4951 H   0  0  0  0  0  0  0  0  0  0  0  0
   -3.5194    3.4948   -2.1263 H   0  0  0  0  0  0  0  0  0  0  0  0
   -1.6799    2.2175   -2.8049 H   0  0  0  0  0  0  0  0  0  0  0  0
   -0.8030    3.2260   -1.5919 H   0  0  0  0  0  0  0  0  0  0  0  0
   -1.0064    0.4041   -1.5650 H   0  0  0  0  0  0  0  0  0  0  0  0
    1.1704    0.3900   -0.6101 H   0  0  0  0  0  0  0  0  0  0  0  0
    1.9270    2.2366    1.4971 H   0  0  0  0  0  0  0  0  0  0  0  0
    1.3345    0.7311    2.2735 H   0  0  0  0  0  0  0  0  0  0  0  0
    2.5241   -1.4190    1.9214 H   0  0  0  0  0  0  0  0  0  0  0  0
    4.6472   -2.5278    1.4114 H   0  0  0  0  0  0  0  0  0  0  0  0
    6.1053    1.1160   -0.3950 H   0  0  0  0  0  0  0  0  0  0  0  0
    3.9673    2.2069    0.0945 H   0  0  0  0  0  0  0  0  0  0  0  0
    7.0906   -0.5475   -1.7847 H   0  0  0  0  0  0  0  0  0  0  0  0
    8.4531   -1.5874   -1.2570 H   0  0  0  0  0  0  0  0  0  0  0  0
    6.9373   -2.5485    1.9067 H   0  0  0  0  0  0  0  0  0  0  0  0
  1  2  1  0
  1  3  1  0
  3  4  1  0
  1  5  1  0
  5  6  2  0
  5  7  1  0
  7  8  1  0
  8  9  1  0
  9 10  1  0
 10 11  1  0
 11 12  1  0
 12 13  2  0
 12 14  1  0
 14 15  1  0
 15 16  1  0
 16 17  2  0
 17 18  1  0
 18 19  2  0
 19 20  1  0
 20 21  2  0
 19 22  1  0
 22 23  1  0
 22 24  2  3
 11  7  1  0
 21 16  1  0
  1 25  1  1
  2 26  1  0
  2 27  1  0
  3 28  1  0
  3 29  1  0
  4 30  1  0
  4 31  1  0
  4 32  1  0
  8 33  1  0
  8 34  1  0
  9 35  1  0
  9 36  1  0
 10 37  1  0
 10 38  1  0
 11 39  1  6
 14 40  1  0
 15 41  1  0
 15 42  1  0
 17 43  1  0
 18 44  1  0
 20 45  1  0
 21 46  1  0
 23 47  1  0
 23 48  1  0
 24 49  1  0
M  END
$$$$
