
     RDKit          3D

 29 30  0  0  0  0  0  0  0  0999 V2000
   -1.3301    2.7570   -0.2277 C   0  0  0  0  0  0  0  0  0  0  0  0
   -0.7848    1.9999    0.9789 C   0  0  0  0  0  0  0  0  0  0  0  0
    0.1640    0.9582    0.5478 N   0  0  0  0  0  0  0  0  0  0  0  0
    1.4934    1.2722    0.4810 C   0  0  0  0  0  0  0  0  0  0  0  0
    2.4495    0.3336    0.0585 C   0  0  0  0  0  0  0  0  0  0  0  0
    3.8839    0.7265    0.0142 C   0  0  0  0  0  0  0  0  0  0  0  0
    4.2698    2.0095    0.3953 O   0  0  0  0  0  0  0  0  0  0  0  0
    4.7675   -0.0882   -0.3660 O   0  0  0  0  0  0  0  0  0  0  0  0
    2.0110   -0.9535   -0.3136 C   0  0  0  0  0  0  0  0  0  0  0  0
    2.8402   -1.8251   -0.6962 O   0  0  0  0  0  0  0  0  0  0  0  0
    0.6421   -1.2663   -0.2616 C   0  0  0  0  0  0  0  0  0  0  0  0
   -0.2774   -0.2852    0.1724 C   0  0  0  0  0  0  0  0  0  0  0  0
   -1.6071   -0.5877    0.2110 N   0  0  0  0  0  0  0  0  0  0  0  0
   -2.0916   -1.8051   -0.1516 C   0  0  0  0  0  0  0  0  0  0  0  0
   -3.5610   -2.0729   -0.0806 C   0  0  0  0  0  0  0  0  0  0  0  0
   -1.2106   -2.8022   -0.5793 C   0  0  0  0  0  0  0  0  0  0  0  0
    0.1562   -2.5321   -0.6350 C   0  0  0  0  0  0  0  0  0  0  0  0
   -2.0363    3.5434    0.1125 H   0  0  0  0  0  0  0  0  0  0  0  0
   -1.8683    2.0622   -0.9064 H   0  0  0  0  0  0  0  0  0  0  0  0
   -0.4977    3.2383   -0.7835 H   0  0  0  0  0  0  0  0  0  0  0  0
   -0.2906    2.7212    1.6671 H   0  0  0  0  0  0  0  0  0  0  0  0
   -1.6270    1.5549    1.5524 H   0  0  0  0  0  0  0  0  0  0  0  0
    1.8174    2.2685    0.7593 H   0  0  0  0  0  0  0  0  0  0  0  0
    5.2429    2.2899    0.3697 H   0  0  0  0  0  0  0  0  0  0  0  0
   -3.9344   -2.3893   -1.0773 H   0  0  0  0  0  0  0  0  0  0  0  0
   -4.1096   -1.1588    0.2311 H   0  0  0  0  0  0  0  0  0  0  0  0
   -3.7593   -2.8781    0.6576 H   0  0  0  0  0  0  0  0  0  0  0  0
   -1.5800   -3.7786   -0.8681 H   0  0  0  0  0  0  0  0  0  0  0  0
    0.8279   -3.3123   -0.9715 H   0  0  0  0  0  0  0  0  0  0  0  0
  1  2  1  0
  2  3  1  0
  3  4  1  0
  4  5  2  0
  5  6  1  0
  6  7  1  0
  6  8  2  0
  5  9  1  0
  9 10  2  0
  9 11  1  0
 11 12  2  0
 12 13  1  0
 13 14  2  0
 14 15  1  0
 14 16  1  0
 16 17  2  0
 12  3  1  0
 17 11  1  0
  1 18  1  0
  1 19  1  0
  1 20  1  0
  2 21  1  0
  2 22  1  0
  4 23  1  0
  7 24  1  0
 15 25  1  0
 15 26  1  0
 15 27  1  0
 16 28  1  0
 17 29  1  0
M  END
$$$$
