
     RDKit          3D

 40 43  0  0  0  0  0  0  0  0999 V2000
   -2.1638    5.9615   -0.0912 N   0  0  0  0  0  0  0  0  0  0  0  0
   -2.0759    4.5393   -0.1307 C   0  0  0  0  0  0  0  0  0  0  0  0
   -3.1988    3.7934   -0.3182 N   0  0  0  0  0  0  0  0  0  0  0  0
   -3.1491    2.4345   -0.3607 C   0  0  0  0  0  0  0  0  0  0  0  0
   -4.3544    1.6918   -0.5617 N   0  0  0  0  0  0  0  0  0  0  0  0
   -1.9136    1.7909   -0.2078 C   0  0  0  0  0  0  0  0  0  0  0  0
   -1.7938    0.4392   -0.2546 N   0  0  0  0  0  0  0  0  0  0  0  0
   -0.5891   -0.1793   -0.1110 C   0  0  0  0  0  0  0  0  0  0  0  0
   -0.5410   -1.6518   -0.2538 C   0  0  0  0  0  0  0  0  0  0  0  0
    0.3909   -2.2652   -1.1096 C   0  0  0  0  0  0  0  0  0  0  0  0
    0.4152   -3.6559   -1.2442 C   0  0  0  0  0  0  0  0  0  0  0  0
   -0.4982   -4.4446   -0.5405 C   0  0  0  0  0  0  0  0  0  0  0  0
   -1.4450   -3.8454    0.2962 C   0  0  0  0  0  0  0  0  0  0  0  0
   -2.3553   -4.6432    0.9858 O   0  0  0  0  0  0  0  0  0  0  0  0
   -1.4704   -2.4500    0.4335 C   0  0  0  0  0  0  0  0  0  0  0  0
    0.5646    0.6155    0.1231 C   0  0  0  0  0  0  0  0  0  0  0  0
    0.4339    1.9711    0.1484 N   0  0  0  0  0  0  0  0  0  0  0  0
   -0.7690    2.5756   -0.0154 C   0  0  0  0  0  0  0  0  0  0  0  0
   -0.8701    3.9284    0.0204 N   0  0  0  0  0  0  0  0  0  0  0  0
    1.9015    0.0391    0.3901 C   0  0  0  0  0  0  0  0  0  0  0  0
    3.0262    0.5429   -0.2839 C   0  0  0  0  0  0  0  0  0  0  0  0
    4.3002    0.0142   -0.0308 C   0  0  0  0  0  0  0  0  0  0  0  0
    5.4175    0.5003   -0.7060 O   0  0  0  0  0  0  0  0  0  0  0  0
    4.4536   -1.0108    0.9080 C   0  0  0  0  0  0  0  0  0  0  0  0
    3.3427   -1.5023    1.5979 C   0  0  0  0  0  0  0  0  0  0  0  0
    2.0726   -0.9762    1.3478 C   0  0  0  0  0  0  0  0  0  0  0  0
   -3.0860    6.4375   -0.2059 H   0  0  0  0  0  0  0  0  0  0  0  0
   -1.3068    6.5404    0.0528 H   0  0  0  0  0  0  0  0  0  0  0  0
   -4.3537    0.6483   -0.5981 H   0  0  0  0  0  0  0  0  0  0  0  0
   -5.2638    2.1924   -0.6747 H   0  0  0  0  0  0  0  0  0  0  0  0
    1.0925   -1.6685   -1.6789 H   0  0  0  0  0  0  0  0  0  0  0  0
    1.1393   -4.1225   -1.8995 H   0  0  0  0  0  0  0  0  0  0  0  0
   -0.4749   -5.5214   -0.6499 H   0  0  0  0  0  0  0  0  0  0  0  0
   -3.0537   -4.2405    1.5996 H   0  0  0  0  0  0  0  0  0  0  0  0
   -2.2040   -1.9902    1.0847 H   0  0  0  0  0  0  0  0  0  0  0  0
    2.9115    1.3350   -1.0142 H   0  0  0  0  0  0  0  0  0  0  0  0
    5.3405    1.2421   -1.3920 H   0  0  0  0  0  0  0  0  0  0  0  0
    5.4351   -1.4220    1.1069 H   0  0  0  0  0  0  0  0  0  0  0  0
    3.4668   -2.2883    2.3316 H   0  0  0  0  0  0  0  0  0  0  0  0
    1.2259   -1.3551    1.9064 H   0  0  0  0  0  0  0  0  0  0  0  0
  1  2  1  0
  2  3  2  0
  3  4  1  0
  4  5  1  0
  4  6  2  0
  6  7  1  0
  7  8  2  0
  8  9  1  0
  9 10  2  0
 10 11  1  0
 11 12  2  0
 12 13  1  0
 13 14  1  0
 13 15  2  0
  8 16  1  0
 16 17  2  0
 17 18  1  0
 18 19  2  0
 16 20  1  0
 20 21  2  0
 21 22  1  0
 22 23  1  0
 22 24  2  0
 24 25  1  0
 25 26  2  0
 19  2  1  0
 26 20  1  0
 18  6  1  0
 15  9  1  0
  1 27  1  0
  1 28  1  0
  5 29  1  0
  5 30  1  0
 10 31  1  0
 11 32  1  0
 12 33  1  0
 14 34  1  0
 15 35  1  0
 21 36  1  0
 23 37  1  0
 24 38  1  0
 25 39  1  0
 26 40  1  0
M  END
$$$$
