
     RDKit          3D

 28 27  0  0  0  0  0  0  0  0999 V2000
    1.8155   -0.7787   -0.4638 C   0  0  2  0  0  0  0  0  0  0  0  0
    2.5491   -1.9727   -0.3327 O   0  0  0  0  0  0  0  0  0  0  0  0
    2.4574    0.2990    0.3779 C   0  0  0  0  0  0  0  0  0  0  0  0
    2.5557    0.1453    1.6256 O   0  0  0  0  0  0  0  0  0  0  0  0
    2.9502    1.4972   -0.2293 N   0  0  0  0  0  0  0  0  0  0  0  0
    3.5120    2.4705    0.5268 O   0  0  0  0  0  0  0  0  0  0  0  0
    0.3200   -0.9893   -0.0970 C   0  0  1  0  0  0  0  0  0  0  0  0
   -0.5361    0.2608   -0.4442 C   0  0  0  0  0  0  0  0  0  0  0  0
   -1.8158    0.4066    0.4168 C   0  0  0  0  0  0  0  0  0  0  0  0
   -2.4590    1.7785    0.1696 C   0  0  0  0  0  0  0  0  0  0  0  0
   -2.8409   -0.7023    0.1384 C   0  0  0  0  0  0  0  0  0  0  0  0
   -0.2031   -2.1968   -0.8357 C   0  0  0  0  0  0  0  0  0  0  0  0
   -0.3986   -3.2472   -0.2448 O   0  0  0  0  0  0  0  0  0  0  0  0
    1.8680   -0.4774   -1.5331 H   0  0  0  0  0  0  0  0  0  0  0  0
    2.4389   -2.2952    0.6004 H   0  0  0  0  0  0  0  0  0  0  0  0
    2.8555    1.6453   -1.2589 H   0  0  0  0  0  0  0  0  0  0  0  0
    4.4808    2.2606    0.5318 H   0  0  0  0  0  0  0  0  0  0  0  0
    0.2552   -1.1823    0.9982 H   0  0  0  0  0  0  0  0  0  0  0  0
   -0.7996    0.2641   -1.5257 H   0  0  0  0  0  0  0  0  0  0  0  0
    0.0739    1.1741   -0.2774 H   0  0  0  0  0  0  0  0  0  0  0  0
   -1.5333    0.3602    1.4920 H   0  0  0  0  0  0  0  0  0  0  0  0
   -3.3541    1.9075    0.8151 H   0  0  0  0  0  0  0  0  0  0  0  0
   -1.7430    2.5911    0.4171 H   0  0  0  0  0  0  0  0  0  0  0  0
   -2.7651    1.8809   -0.8939 H   0  0  0  0  0  0  0  0  0  0  0  0
   -3.7966   -0.4874    0.6626 H   0  0  0  0  0  0  0  0  0  0  0  0
   -2.4743   -1.6749    0.5235 H   0  0  0  0  0  0  0  0  0  0  0  0
   -3.0435   -0.7873   -0.9508 H   0  0  0  0  0  0  0  0  0  0  0  0
   -0.3693   -2.1505   -1.9075 H   0  0  0  0  0  0  0  0  0  0  0  0
  1  2  1  0
  1  3  1  0
  3  4  2  0
  3  5  1  0
  5  6  1  0
  1  7  1  0
  7  8  1  0
  8  9  1  0
  9 10  1  0
  9 11  1  0
  7 12  1  0
 12 13  2  0
  1 14  1  6
  2 15  1  0
  5 16  1  0
  6 17  1  0
  7 18  1  1
  8 19  1  0
  8 20  1  0
  9 21  1  0
 10 22  1  0
 10 23  1  0
 10 24  1  0
 11 25  1  0
 11 26  1  0
 11 27  1  0
 12 28  1  0
M  END
$$$$
