
     RDKit          3D

 30 32  0  0  0  0  0  0  0  0999 V2000
    3.5886   -1.7710    1.3459 N   0  0  0  0  0  0  0  0  0  0  0  0
    2.5787   -1.4562    0.3869 C   0  0  0  0  0  0  0  0  0  0  0  0
    2.2544   -2.3149   -0.4777 O   0  0  0  0  0  0  0  0  0  0  0  0
    1.9245   -0.0995    0.3849 C   0  0  0  0  0  0  0  0  0  0  0  0
    2.4059    0.7267   -0.8330 C   0  0  0  0  0  0  0  0  0  0  0  0
    1.5614    2.0033   -1.0265 C   0  0  0  0  0  0  0  0  0  0  0  0
    0.0832    1.6693   -1.3025 C   0  0  0  0  0  0  0  0  0  0  0  0
   -0.4021    0.6331   -0.3354 C   0  0  0  0  0  0  0  0  0  0  0  0
    0.4230   -0.2208    0.3792 C   0  0  0  0  0  0  0  0  0  0  0  0
   -0.3050   -1.0635    1.1496 N   0  0  0  0  0  0  0  0  0  0  0  0
   -1.5923   -0.7681    0.8843 C   0  0  0  0  0  0  0  0  0  0  0  0
   -1.6906    0.2586   -0.0245 C   0  0  0  0  0  0  0  0  0  0  0  0
   -2.9223    0.7414   -0.4625 C   0  0  0  0  0  0  0  0  0  0  0  0
   -4.0840    0.1427    0.0611 C   0  0  0  0  0  0  0  0  0  0  0  0
   -5.6625    0.7087   -0.4522 Cl  0  0  0  0  0  0  0  0  0  0  0  0
   -3.9849   -0.9111    0.9993 C   0  0  0  0  0  0  0  0  0  0  0  0
   -2.7256   -1.3767    1.4208 C   0  0  0  0  0  0  0  0  0  0  0  0
    4.0445   -2.7103    1.3400 H   0  0  0  0  0  0  0  0  0  0  0  0
    3.8871   -1.0705    2.0602 H   0  0  0  0  0  0  0  0  0  0  0  0
    2.2065    0.4478    1.3106 H   0  0  0  0  0  0  0  0  0  0  0  0
    2.3442    0.1165   -1.7618 H   0  0  0  0  0  0  0  0  0  0  0  0
    3.4699    1.0131   -0.6848 H   0  0  0  0  0  0  0  0  0  0  0  0
    1.9681    2.5896   -1.8783 H   0  0  0  0  0  0  0  0  0  0  0  0
    1.6347    2.6338   -0.1131 H   0  0  0  0  0  0  0  0  0  0  0  0
   -0.0228    1.2723   -2.3348 H   0  0  0  0  0  0  0  0  0  0  0  0
   -0.5304    2.5907   -1.2101 H   0  0  0  0  0  0  0  0  0  0  0  0
    0.0542   -1.7854    1.8135 H   0  0  0  0  0  0  0  0  0  0  0  0
   -2.9828    1.5502   -1.1794 H   0  0  0  0  0  0  0  0  0  0  0  0
   -4.8821   -1.3663    1.3986 H   0  0  0  0  0  0  0  0  0  0  0  0
   -2.6413   -2.1835    2.1373 H   0  0  0  0  0  0  0  0  0  0  0  0
  1  2  1  0
  2  3  2  0
  2  4  1  0
  4  5  1  0
  5  6  1  0
  6  7  1  0
  7  8  1  0
  8  9  2  0
  9 10  1  0
 10 11  1  0
 11 12  2  0
 12 13  1  0
 13 14  2  0
 14 15  1  0
 14 16  1  0
 16 17  2  0
  9  4  1  0
 17 11  1  0
 12  8  1  0
  1 18  1  0
  1 19  1  0
  4 20  1  0
  5 21  1  0
  5 22  1  0
  6 23  1  0
  6 24  1  0
  7 25  1  0
  7 26  1  0
 10 27  1  0
 13 28  1  0
 16 29  1  0
 17 30  1  0
M  END
$$$$
