
     RDKit          3D

 37 38  0  0  0  0  0  0  0  0999 V2000
   -4.2751    0.7921   -1.8850 N   0  0  0  0  0  0  0  0  0  0  0  0
   -5.5369    0.8732   -1.3887 C   0  0  0  0  0  0  0  0  0  0  0  0
   -6.4877    1.2342   -2.1324 O   0  0  0  0  0  0  0  0  0  0  0  0
   -5.7783    0.5531   -0.0572 C   0  0  0  0  0  0  0  0  0  0  0  0
   -4.7067    0.1586    0.7393 C   0  0  0  0  0  0  0  0  0  0  0  0
   -3.4404    0.0964    0.2258 N   0  0  0  0  0  0  0  0  0  0  0  0
   -2.3349   -0.3435    1.1022 C   0  0  1  0  0  0  0  0  0  0  0  0
   -1.9001   -1.7722    0.7693 C   0  0  0  0  0  0  0  0  0  0  0  0
   -0.4270   -1.6489    0.4895 C   0  0  2  0  0  0  0  0  0  0  0  0
    0.2912   -2.6454    1.1301 F   0  0  0  0  0  0  0  0  0  0  0  0
   -0.0767   -0.2757    1.0461 C   0  0  1  0  0  0  0  0  0  0  0  0
    1.0658    0.3907    0.2747 C   0  0  0  0  0  0  0  0  0  0  0  0
    2.2295   -0.3952    0.3891 O   0  0  0  0  0  0  0  0  0  0  0  0
    3.4663    0.3298   -0.5349 P   0  0  0  0  0  5  0  0  0  0  0  0
    3.6790    1.9353   -0.0376 O   0  0  0  0  0  0  0  0  0  0  0  0
    3.0801    0.2966   -1.9980 O   0  0  0  0  0  0  0  0  0  0  0  0
    4.8956   -0.5630   -0.2859 O   0  0  0  0  0  0  0  0  0  0  0  0
    6.1385    0.1673   -1.1943 P   0  0  0  0  0  5  0  0  0  0  0  0
    6.3924    1.7637   -0.6928 O   0  0  0  0  0  0  0  0  0  0  0  0
    7.5672   -0.7059   -0.9518 O   0  0  0  0  0  0  0  0  0  0  0  0
    5.8025    0.1478   -2.6692 O   0  0  0  0  0  0  0  0  0  0  0  0
   -1.2305    0.5256    0.9721 O   0  0  0  0  0  0  0  0  0  0  0  0
   -3.2330    0.4039   -1.0985 C   0  0  0  0  0  0  0  0  0  0  0  0
   -2.0795    0.3261   -1.6038 O   0  0  0  0  0  0  0  0  0  0  0  0
   -4.1023    1.0278   -2.8893 H   0  0  0  0  0  0  0  0  0  0  0  0
   -6.7781    0.6054    0.3561 H   0  0  0  0  0  0  0  0  0  0  0  0
   -4.8991   -0.0978    1.7744 H   0  0  0  0  0  0  0  0  0  0  0  0
   -2.6524   -0.3112    2.1704 H   0  0  0  0  0  0  0  0  0  0  0  0
   -2.0822   -2.4392    1.6411 H   0  0  0  0  0  0  0  0  0  0  0  0
   -2.4347   -2.1862   -0.1141 H   0  0  0  0  0  0  0  0  0  0  0  0
   -0.2475   -1.7022   -0.6077 H   0  0  0  0  0  0  0  0  0  0  0  0
    0.2205   -0.3685    2.1162 H   0  0  0  0  0  0  0  0  0  0  0  0
    1.2339    1.3980    0.7179 H   0  0  0  0  0  0  0  0  0  0  0  0
    0.7580    0.5070   -0.7901 H   0  0  0  0  0  0  0  0  0  0  0  0
    3.9026    1.8722    0.9251 H   0  0  0  0  0  0  0  0  0  0  0  0
    6.6442    1.6896    0.2622 H   0  0  0  0  0  0  0  0  0  0  0  0
    7.3358   -1.6396   -1.1878 H   0  0  0  0  0  0  0  0  0  0  0  0
  1  2  1  0
  2  3  2  0
  2  4  1  0
  4  5  2  0
  5  6  1  0
  6  7  1  0
  7  8  1  0
  8  9  1  0
  9 10  1  0
  9 11  1  0
 11 12  1  0
 12 13  1  0
 13 14  1  0
 14 15  1  0
 14 16  2  0
 14 17  1  0
 17 18  1  0
 18 19  1  0
 18 20  1  0
 18 21  2  0
 11 22  1  0
  6 23  1  0
 23 24  2  0
 23  1  1  0
 22  7  1  0
  1 25  1  0
  4 26  1  0
  5 27  1  0
  7 28  1  1
  8 29  1  0
  8 30  1  0
  9 31  1  6
 11 32  1  1
 12 33  1  0
 12 34  1  0
 15 35  1  0
 19 36  1  0
 20 37  1  0
M  END
$$$$
