
     RDKit          3D

 25 26  0  0  0  0  0  0  0  0999 V2000
   -1.8685   -0.0686   -0.2437 C   0  0  1  0  0  0  0  0  0  0  0  0
   -3.1907   -0.5392    0.1757 N   0  0  0  0  0  0  0  0  0  0  0  0
   -1.5613    1.2768    0.4269 C   0  0  0  0  0  0  0  0  0  0  0  0
   -0.2399    1.8391   -0.0966 C   0  0  0  0  0  0  0  0  0  0  0  0
    0.8790    0.8308   -0.0218 C   0  0  0  0  0  0  0  0  0  0  0  0
    2.2051    1.2898   -0.0809 C   0  0  0  0  0  0  0  0  0  0  0  0
    3.2694    0.3877   -0.0489 C   0  0  0  0  0  0  0  0  0  0  0  0
    3.0218   -0.9816    0.0380 C   0  0  0  0  0  0  0  0  0  0  0  0
    1.7089   -1.4548    0.0816 C   0  0  0  0  0  0  0  0  0  0  0  0
    0.6216   -0.5627    0.0229 C   0  0  0  0  0  0  0  0  0  0  0  0
   -0.7923   -1.1090    0.1357 C   0  0  2  0  0  0  0  0  0  0  0  0
   -0.9364   -2.2281   -0.7052 O   0  0  0  0  0  0  0  0  0  0  0  0
   -1.8675    0.0738   -1.3501 H   0  0  0  0  0  0  0  0  0  0  0  0
   -3.4063   -1.4247   -0.3377 H   0  0  0  0  0  0  0  0  0  0  0  0
   -3.9052    0.1545   -0.1447 H   0  0  0  0  0  0  0  0  0  0  0  0
   -1.5049    1.1487    1.5310 H   0  0  0  0  0  0  0  0  0  0  0  0
   -2.3711    2.0058    0.2057 H   0  0  0  0  0  0  0  0  0  0  0  0
   -0.3660    2.1523   -1.1558 H   0  0  0  0  0  0  0  0  0  0  0  0
    0.0213    2.7412    0.4989 H   0  0  0  0  0  0  0  0  0  0  0  0
    2.4145    2.3504   -0.1490 H   0  0  0  0  0  0  0  0  0  0  0  0
    4.2881    0.7514   -0.0876 H   0  0  0  0  0  0  0  0  0  0  0  0
    3.8491   -1.6786    0.0747 H   0  0  0  0  0  0  0  0  0  0  0  0
    1.5423   -2.5213    0.1645 H   0  0  0  0  0  0  0  0  0  0  0  0
   -0.9522   -1.3946    1.2040 H   0  0  0  0  0  0  0  0  0  0  0  0
   -0.8588   -3.0391   -0.1376 H   0  0  0  0  0  0  0  0  0  0  0  0
  1  2  1  0
  1  3  1  0
  3  4  1  0
  4  5  1  0
  5  6  2  0
  6  7  1  0
  7  8  2  0
  8  9  1  0
  9 10  2  0
 10 11  1  0
 11 12  1  0
 11  1  1  0
 10  5  1  0
  1 13  1  6
  2 14  1  0
  2 15  1  0
  3 16  1  0
  3 17  1  0
  4 18  1  0
  4 19  1  0
  6 20  1  0
  7 21  1  0
  8 22  1  0
  9 23  1  0
 11 24  1  1
 12 25  1  0
M  END
$$$$
