
     RDKit          3D

 49 51  0  0  0  0  0  0  0  0999 V2000
   -1.1694   -2.3918   -2.9396 C   0  0  0  0  0  0  0  0  0  0  0  0
   -1.6991   -1.9569   -1.5702 C   0  0  0  0  0  0  0  0  0  0  0  0
   -2.0035   -3.1740   -0.6918 C   0  0  0  0  0  0  0  0  0  0  0  0
   -0.7029   -1.0566   -0.8870 C   0  0  0  0  0  0  0  0  0  0  0  0
   -0.8895    0.2601   -0.5090 C   0  0  0  0  0  0  0  0  0  0  0  0
   -2.3965    1.2274   -0.6983 S   0  0  0  0  0  0  0  0  0  0  0  0
   -3.0722    0.6762    0.8713 C   0  0  0  0  0  0  0  0  0  0  0  0
   -3.9373   -0.4246    0.9125 C   0  0  0  0  0  0  0  0  0  0  0  0
   -4.4508   -0.8702    2.1350 C   0  0  0  0  0  0  0  0  0  0  0  0
   -5.5172   -2.2618    2.1822 Cl  0  0  0  0  0  0  0  0  0  0  0  0
   -4.1125   -0.2061    3.3190 C   0  0  0  0  0  0  0  0  0  0  0  0
   -3.2657    0.9069    3.2795 C   0  0  0  0  0  0  0  0  0  0  0  0
   -2.8490    1.7456    4.7625 Cl  0  0  0  0  0  0  0  0  0  0  0  0
   -2.7502    1.3505    2.0566 C   0  0  0  0  0  0  0  0  0  0  0  0
    0.2638    0.7159    0.0207 N   0  0  0  0  0  0  0  0  0  0  0  0
    0.5721    2.0893    0.4359 C   0  0  0  0  0  0  0  0  0  0  0  0
    1.4605    2.7588   -0.5783 C   0  0  0  0  0  0  0  0  0  0  0  0
    0.9819    3.0207   -1.8703 C   0  0  0  0  0  0  0  0  0  0  0  0
    1.8219    3.6303   -2.8051 C   0  0  0  0  0  0  0  0  0  0  0  0
    3.0934    3.9674   -2.4620 N   0  0  0  0  0  0  0  0  0  0  0  0
    3.5829    3.7270   -1.2167 C   0  0  0  0  0  0  0  0  0  0  0  0
    2.7762    3.1197   -0.2514 C   0  0  0  0  0  0  0  0  0  0  0  0
    1.1137   -0.3382   -0.0267 C   0  0  0  0  0  0  0  0  0  0  0  0
    2.5546   -0.2856    0.3849 C   0  0  0  0  0  0  0  0  0  0  0  0
    3.0371   -1.6014    0.6381 O   0  0  0  0  0  0  0  0  0  0  0  0
    4.3546   -1.8582    1.0261 C   0  0  0  0  0  0  0  0  0  0  0  0
    4.7685   -3.2009    1.2626 N   0  0  0  0  0  0  0  0  0  0  0  0
    5.1794   -0.9151    1.1686 O   0  0  0  0  0  0  0  0  0  0  0  0
    0.5575   -1.4333   -0.5888 N   0  0  0  0  0  0  0  0  0  0  0  0
   -0.9645   -1.4992   -3.5690 H   0  0  0  0  0  0  0  0  0  0  0  0
   -0.2317   -2.9790   -2.8333 H   0  0  0  0  0  0  0  0  0  0  0  0
   -1.9256   -3.0174   -3.4601 H   0  0  0  0  0  0  0  0  0  0  0  0
   -2.6480   -1.4064   -1.7393 H   0  0  0  0  0  0  0  0  0  0  0  0
   -1.0911   -3.7909   -0.5424 H   0  0  0  0  0  0  0  0  0  0  0  0
   -2.3780   -2.8468    0.3014 H   0  0  0  0  0  0  0  0  0  0  0  0
   -2.7862   -3.8019   -1.1683 H   0  0  0  0  0  0  0  0  0  0  0  0
   -4.2125   -0.9341   -0.0011 H   0  0  0  0  0  0  0  0  0  0  0  0
   -4.5097   -0.5508    4.2654 H   0  0  0  0  0  0  0  0  0  0  0  0
   -2.1016    2.2151    2.0326 H   0  0  0  0  0  0  0  0  0  0  0  0
   -0.3557    2.6874    0.5370 H   0  0  0  0  0  0  0  0  0  0  0  0
    1.0465    2.0747    1.4404 H   0  0  0  0  0  0  0  0  0  0  0  0
   -0.0290    2.7534   -2.1511 H   0  0  0  0  0  0  0  0  0  0  0  0
    1.4625    3.8350   -3.8047 H   0  0  0  0  0  0  0  0  0  0  0  0
    4.5997    4.0066   -0.9756 H   0  0  0  0  0  0  0  0  0  0  0  0
    3.1760    2.9291    0.7367 H   0  0  0  0  0  0  0  0  0  0  0  0
    2.6610    0.3245    1.3064 H   0  0  0  0  0  0  0  0  0  0  0  0
    3.1451    0.1765   -0.4347 H   0  0  0  0  0  0  0  0  0  0  0  0
    5.7495   -3.4099    1.5531 H   0  0  0  0  0  0  0  0  0  0  0  0
    4.0912   -3.9867    1.1464 H   0  0  0  0  0  0  0  0  0  0  0  0
  1  2  1  0
  2  3  1  0
  2  4  1  0
  4  5  2  0
  5  6  1  0
  6  7  1  0
  7  8  2  0
  8  9  1  0
  9 10  1  0
  9 11  2  0
 11 12  1  0
 12 13  1  0
 12 14  2  0
  5 15  1  0
 15 16  1  0
 16 17  1  0
 17 18  2  0
 18 19  1  0
 19 20  2  0
 20 21  1  0
 21 22  2  0
 15 23  1  0
 23 24  1  0
 24 25  1  0
 25 26  1  0
 26 27  1  0
 26 28  2  0
 23 29  2  0
 29  4  1  0
 14  7  1  0
 22 17  1  0
  1 30  1  0
  1 31  1  0
  1 32  1  0
  2 33  1  0
  3 34  1  0
  3 35  1  0
  3 36  1  0
  8 37  1  0
 11 38  1  0
 14 39  1  0
 16 40  1  0
 16 41  1  0
 18 42  1  0
 19 43  1  0
 21 44  1  0
 22 45  1  0
 24 46  1  0
 24 47  1  0
 27 48  1  0
 27 49  1  0
M  END
$$$$
