
     RDKit          3D

 51 51  0  0  0  0  0  0  0  0999 V2000
   -4.5017   -1.6444   -0.4052 C   0  0  1  0  0  0  0  0  0  0  0  0
   -5.1513   -2.6550   -1.1322 O   0  0  0  0  0  0  0  0  0  0  0  0
   -3.3121   -1.1362   -1.2146 C   0  0  0  0  0  0  0  0  0  0  0  0
   -2.5719   -0.0767   -0.4913 N   0  0  0  0  0  0  0  0  0  0  0  0
   -1.3604    0.2840   -1.2780 C   0  0  0  0  0  0  0  0  0  0  0  0
   -0.1101    0.1790   -0.3970 C   0  0  0  0  0  0  0  0  0  0  0  0
    1.1578    0.5303   -1.1906 C   0  0  0  0  0  0  0  0  0  0  0  0
    2.4177    0.5714   -0.3107 C   0  0  0  0  0  0  0  0  0  0  0  0
    2.8848   -0.8306    0.1176 C   0  0  0  0  0  0  0  0  0  0  0  0
    4.1466   -0.7897    0.9949 C   0  0  0  0  0  0  0  0  0  0  0  0
    5.4152   -0.4555    0.1956 C   0  0  0  0  0  0  0  0  0  0  0  0
    6.6629   -0.5579    1.0807 C   0  0  0  0  0  0  0  0  0  0  0  0
    7.9262   -0.2174    0.2954 C   0  0  0  0  0  0  0  0  0  0  0  0
   -3.4463    1.1011   -0.1898 C   0  0  2  0  0  0  0  0  0  0  0  0
   -2.7094    2.1469    0.6979 C   0  0  0  0  0  0  0  0  0  0  0  0
   -1.8295    2.9445   -0.0465 O   0  0  0  0  0  0  0  0  0  0  0  0
   -4.7297    0.6628    0.5739 C   0  0  1  0  0  0  0  0  0  0  0  0
   -5.6019    1.7598    0.6926 O   0  0  0  0  0  0  0  0  0  0  0  0
   -5.4637   -0.4795   -0.1486 C   0  0  2  0  0  0  0  0  0  0  0  0
   -6.5787   -0.9067    0.5957 O   0  0  0  0  0  0  0  0  0  0  0  0
   -4.1216   -2.0515    0.5624 H   0  0  0  0  0  0  0  0  0  0  0  0
   -5.6740   -3.1892   -0.4787 H   0  0  0  0  0  0  0  0  0  0  0  0
   -2.6403   -2.0070   -1.3908 H   0  0  0  0  0  0  0  0  0  0  0  0
   -3.6596   -0.7617   -2.2058 H   0  0  0  0  0  0  0  0  0  0  0  0
   -1.4409    1.2918   -1.7364 H   0  0  0  0  0  0  0  0  0  0  0  0
   -1.2012   -0.3976   -2.1465 H   0  0  0  0  0  0  0  0  0  0  0  0
   -0.0407   -0.8609   -0.0140 H   0  0  0  0  0  0  0  0  0  0  0  0
   -0.1976    0.8631    0.4707 H   0  0  0  0  0  0  0  0  0  0  0  0
    1.3011   -0.1965   -2.0202 H   0  0  0  0  0  0  0  0  0  0  0  0
    1.0258    1.5371   -1.6448 H   0  0  0  0  0  0  0  0  0  0  0  0
    3.2204    1.0588   -0.9025 H   0  0  0  0  0  0  0  0  0  0  0  0
    2.2305    1.2016    0.5863 H   0  0  0  0  0  0  0  0  0  0  0  0
    2.0827   -1.3162    0.7118 H   0  0  0  0  0  0  0  0  0  0  0  0
    3.0691   -1.4619   -0.7791 H   0  0  0  0  0  0  0  0  0  0  0  0
    4.2722   -1.7925    1.4596 H   0  0  0  0  0  0  0  0  0  0  0  0
    4.0109   -0.0533    1.8173 H   0  0  0  0  0  0  0  0  0  0  0  0
    5.3456    0.5777   -0.2058 H   0  0  0  0  0  0  0  0  0  0  0  0
    5.5127   -1.1626   -0.6575 H   0  0  0  0  0  0  0  0  0  0  0  0
    6.5725    0.1440    1.9384 H   0  0  0  0  0  0  0  0  0  0  0  0
    6.7566   -1.5914    1.4799 H   0  0  0  0  0  0  0  0  0  0  0  0
    8.8114   -0.3014    0.9606 H   0  0  0  0  0  0  0  0  0  0  0  0
    7.8712    0.8221   -0.0927 H   0  0  0  0  0  0  0  0  0  0  0  0
    8.0531   -0.9206   -0.5552 H   0  0  0  0  0  0  0  0  0  0  0  0
   -3.7627    1.5881   -1.1415 H   0  0  0  0  0  0  0  0  0  0  0  0
   -3.4294    2.8171    1.2199 H   0  0  0  0  0  0  0  0  0  0  0  0
   -2.1427    1.6246    1.4969 H   0  0  0  0  0  0  0  0  0  0  0  0
   -2.3913    3.5599   -0.5862 H   0  0  0  0  0  0  0  0  0  0  0  0
   -4.4231    0.3070    1.5879 H   0  0  0  0  0  0  0  0  0  0  0  0
   -6.1718    1.5935    1.4885 H   0  0  0  0  0  0  0  0  0  0  0  0
   -5.8355   -0.0996   -1.1268 H   0  0  0  0  0  0  0  0  0  0  0  0
   -6.2476   -1.2528    1.4658 H   0  0  0  0  0  0  0  0  0  0  0  0
  1  2  1  0
  1  3  1  0
  3  4  1  0
  4  5  1  0
  5  6  1  0
  6  7  1  0
  7  8  1  0
  8  9  1  0
  9 10  1  0
 10 11  1  0
 11 12  1  0
 12 13  1  0
  4 14  1  0
 14 15  1  0
 15 16  1  0
 14 17  1  0
 17 18  1  0
 17 19  1  0
 19 20  1  0
 19  1  1  0
  1 21  1  1
  2 22  1  0
  3 23  1  0
  3 24  1  0
  5 25  1  0
  5 26  1  0
  6 27  1  0
  6 28  1  0
  7 29  1  0
  7 30  1  0
  8 31  1  0
  8 32  1  0
  9 33  1  0
  9 34  1  0
 10 35  1  0
 10 36  1  0
 11 37  1  0
 11 38  1  0
 12 39  1  0
 12 40  1  0
 13 41  1  0
 13 42  1  0
 13 43  1  0
 14 44  1  6
 15 45  1  0
 15 46  1  0
 16 47  1  0
 17 48  1  1
 18 49  1  0
 19 50  1  6
 20 51  1  0
M  END
$$$$
