
     RDKit          3D

 54 54  0  0  0  0  0  0  0  0999 V2000
    7.7801    1.8691   -1.7383 C   0  0  0  0  0  0  0  0  0  0  0  0
    6.5868    0.9876   -1.3813 C   0  0  0  0  0  0  0  0  0  0  0  0
    6.3725    0.9362    0.1385 C   0  0  0  0  0  0  0  0  0  0  0  0
    5.1029    0.1640    0.5298 C   0  0  0  0  0  0  0  0  0  0  0  0
    5.2233   -1.3454    0.2633 C   0  0  0  0  0  0  0  0  0  0  0  0
    4.0741   -2.1554    0.8879 C   0  0  0  0  0  0  0  0  0  0  0  0
    2.7008   -1.8769    0.2404 C   0  0  0  0  0  0  0  0  0  0  0  0
    1.8304   -0.9455    1.1025 C   0  0  0  0  0  0  0  0  0  0  0  0
    0.5554   -0.4865    0.3782 C   0  0  0  0  0  0  0  0  0  0  0  0
   -0.4520   -1.6258    0.1734 C   0  0  0  0  0  0  0  0  0  0  0  0
   -1.6921   -1.1115   -0.4045 N   0  0  0  0  0  0  0  0  0  0  0  0
   -2.6658   -0.3942    0.3664 C   0  0  0  0  0  0  0  0  0  0  0  0
   -2.4789   -0.2008    1.5990 O   0  0  0  0  0  0  0  0  0  0  0  0
   -3.8559    0.0936   -0.2691 N   0  0  0  0  0  0  0  0  0  0  0  0
   -4.9351    0.7550    0.4721 C   0  0  0  0  0  0  0  0  0  0  0  0
   -5.5436    1.8909   -0.3875 C   0  0  0  0  0  0  0  0  0  0  0  0
   -6.9915    2.1844    0.0175 C   0  0  0  0  0  0  0  0  0  0  0  0
   -7.8999    0.9556   -0.1936 C   0  0  0  0  0  0  0  0  0  0  0  0
   -7.1554   -0.3887   -0.0607 C   0  0  0  0  0  0  0  0  0  0  0  0
   -5.9848   -0.2912    0.9235 C   0  0  0  0  0  0  0  0  0  0  0  0
    7.9177    1.8805   -2.8401 H   0  0  0  0  0  0  0  0  0  0  0  0
    7.6087    2.9106   -1.3917 H   0  0  0  0  0  0  0  0  0  0  0  0
    8.7059    1.4736   -1.2686 H   0  0  0  0  0  0  0  0  0  0  0  0
    5.6789    1.3952   -1.8769 H   0  0  0  0  0  0  0  0  0  0  0  0
    6.7760   -0.0338   -1.7740 H   0  0  0  0  0  0  0  0  0  0  0  0
    7.2589    0.4793    0.6310 H   0  0  0  0  0  0  0  0  0  0  0  0
    6.2731    1.9753    0.5226 H   0  0  0  0  0  0  0  0  0  0  0  0
    4.9254    0.3262    1.6154 H   0  0  0  0  0  0  0  0  0  0  0  0
    4.2355    0.5803   -0.0262 H   0  0  0  0  0  0  0  0  0  0  0  0
    5.2529   -1.5398   -0.8302 H   0  0  0  0  0  0  0  0  0  0  0  0
    6.1776   -1.7160    0.6976 H   0  0  0  0  0  0  0  0  0  0  0  0
    4.0438   -1.9880    1.9873 H   0  0  0  0  0  0  0  0  0  0  0  0
    4.3138   -3.2317    0.7425 H   0  0  0  0  0  0  0  0  0  0  0  0
    2.1702   -2.8465    0.1260 H   0  0  0  0  0  0  0  0  0  0  0  0
    2.8276   -1.4507   -0.7790 H   0  0  0  0  0  0  0  0  0  0  0  0
    1.5584   -1.4592    2.0507 H   0  0  0  0  0  0  0  0  0  0  0  0
    2.4103   -0.0394    1.3745 H   0  0  0  0  0  0  0  0  0  0  0  0
    0.0827    0.3107    0.9911 H   0  0  0  0  0  0  0  0  0  0  0  0
    0.8189   -0.0387   -0.6049 H   0  0  0  0  0  0  0  0  0  0  0  0
   -0.6704   -2.1348    1.1375 H   0  0  0  0  0  0  0  0  0  0  0  0
   -0.0226   -2.3780   -0.5218 H   0  0  0  0  0  0  0  0  0  0  0  0
   -1.8994   -1.3245   -1.4063 H   0  0  0  0  0  0  0  0  0  0  0  0
   -4.0264   -0.1797   -1.2635 H   0  0  0  0  0  0  0  0  0  0  0  0
   -4.5172    1.2279    1.3890 H   0  0  0  0  0  0  0  0  0  0  0  0
   -4.9318    2.8118   -0.2713 H   0  0  0  0  0  0  0  0  0  0  0  0
   -5.5317    1.6179   -1.4660 H   0  0  0  0  0  0  0  0  0  0  0  0
   -7.3793    3.0396   -0.5772 H   0  0  0  0  0  0  0  0  0  0  0  0
   -7.0128    2.4833    1.0888 H   0  0  0  0  0  0  0  0  0  0  0  0
   -8.3607    1.0069   -1.2041 H   0  0  0  0  0  0  0  0  0  0  0  0
   -8.7269    0.9939    0.5485 H   0  0  0  0  0  0  0  0  0  0  0  0
   -7.8649   -1.1734    0.2801 H   0  0  0  0  0  0  0  0  0  0  0  0
   -6.7653   -0.6981   -1.0554 H   0  0  0  0  0  0  0  0  0  0  0  0
   -6.3853   -0.0040    1.9211 H   0  0  0  0  0  0  0  0  0  0  0  0
   -5.5130   -1.2914    1.0398 H   0  0  0  0  0  0  0  0  0  0  0  0
  1  2  1  0
  2  3  1  0
  3  4  1  0
  4  5  1  0
  5  6  1  0
  6  7  1  0
  7  8  1  0
  8  9  1  0
  9 10  1  0
 10 11  1  0
 11 12  1  0
 12 13  2  0
 12 14  1  0
 14 15  1  0
 15 16  1  0
 16 17  1  0
 17 18  1  0
 18 19  1  0
 19 20  1  0
 20 15  1  0
  1 21  1  0
  1 22  1  0
  1 23  1  0
  2 24  1  0
  2 25  1  0
  3 26  1  0
  3 27  1  0
  4 28  1  0
  4 29  1  0
  5 30  1  0
  5 31  1  0
  6 32  1  0
  6 33  1  0
  7 34  1  0
  7 35  1  0
  8 36  1  0
  8 37  1  0
  9 38  1  0
  9 39  1  0
 10 40  1  0
 10 41  1  0
 11 42  1  0
 14 43  1  0
 15 44  1  0
 16 45  1  0
 16 46  1  0
 17 47  1  0
 17 48  1  0
 18 49  1  0
 18 50  1  0
 19 51  1  0
 19 52  1  0
 20 53  1  0
 20 54  1  0
M  END
$$$$
