
     RDKit          3D

 44 48  0  0  0  0  0  0  0  0999 V2000
   -2.0876   -0.6373    1.2395 C   0  0  1  0  0  0  0  0  0  0  0  0
   -0.6795   -1.0931    1.0050 C   0  0  0  0  0  0  0  0  0  0  0  0
   -0.2693   -2.2594    1.2489 O   0  0  0  0  0  0  0  0  0  0  0  0
    0.1613   -0.0695    0.4961 N   0  0  0  0  0  0  0  0  0  0  0  0
   -0.6650    1.0705    0.3163 C   0  0  0  0  0  0  0  0  0  0  0  0
   -0.2486    2.1484   -0.1868 O   0  0  0  0  0  0  0  0  0  0  0  0
   -2.0784    0.8500    0.7623 C   0  0  1  0  0  0  0  0  0  0  0  0
   -3.1207    1.0581   -0.3730 C   0  0  2  0  0  0  0  0  0  0  0  0
   -4.5116    0.6833    0.1962 C   0  0  0  0  0  0  0  0  0  0  0  0
   -4.5229   -0.7953    0.6795 C   0  0  0  0  0  0  0  0  0  0  0  0
   -3.1421   -1.4551    0.4407 C   0  0  1  0  0  0  0  0  0  0  0  0
   -2.8397   -1.3765   -1.0782 C   0  0  0  0  0  0  0  0  0  0  0  0
   -2.8204    0.0991   -1.5547 C   0  0  0  0  0  0  0  0  0  0  0  0
    1.4413   -0.2677   -0.1241 C   0  0  0  0  0  0  0  0  0  0  0  0
    1.5518   -1.1855   -1.1736 C   0  0  0  0  0  0  0  0  0  0  0  0
    2.7682   -1.3827   -1.8208 C   0  0  0  0  0  0  0  0  0  0  0  0
    3.9124   -0.6714   -1.4343 C   0  0  0  0  0  0  0  0  0  0  0  0
    3.8190    0.2822   -0.3893 C   0  0  0  0  0  0  0  0  0  0  0  0
    4.9233    1.0765   -0.0154 C   0  0  0  0  0  0  0  0  0  0  0  0
    4.8197    1.9909    1.0336 C   0  0  0  0  0  0  0  0  0  0  0  0
    3.6181    2.1358    1.7223 C   0  0  0  0  0  0  0  0  0  0  0  0
    2.5028    1.3849    1.3524 C   0  0  0  0  0  0  0  0  0  0  0  0
    2.5766    0.4701    0.2825 C   0  0  0  0  0  0  0  0  0  0  0  0
    5.1588   -0.9554   -2.0902 N   0  0  0  0  0  4  0  0  0  0  0  0
    6.2735   -1.2612   -1.3439 O   0  0  0  0  0  1  0  0  0  0  0  0
    5.1824   -1.1625   -3.3210 O   0  0  0  0  0  0  0  0  0  0  0  0
   -2.3067   -0.6905    2.3290 H   0  0  0  0  0  0  0  0  0  0  0  0
   -2.2980    1.5305    1.6145 H   0  0  0  0  0  0  0  0  0  0  0  0
   -3.1175    2.1145   -0.7194 H   0  0  0  0  0  0  0  0  0  0  0  0
   -4.7638    1.3590    1.0427 H   0  0  0  0  0  0  0  0  0  0  0  0
   -5.2881    0.8305   -0.5863 H   0  0  0  0  0  0  0  0  0  0  0  0
   -5.3088   -1.3641    0.1358 H   0  0  0  0  0  0  0  0  0  0  0  0
   -4.7749   -0.8367    1.7619 H   0  0  0  0  0  0  0  0  0  0  0  0
   -3.1563   -2.5138    0.7799 H   0  0  0  0  0  0  0  0  0  0  0  0
   -1.8659   -1.8619   -1.3021 H   0  0  0  0  0  0  0  0  0  0  0  0
   -3.6161   -1.9412   -1.6396 H   0  0  0  0  0  0  0  0  0  0  0  0
   -1.8330    0.3397   -2.0046 H   0  0  0  0  0  0  0  0  0  0  0  0
   -3.5815    0.2451   -2.3522 H   0  0  0  0  0  0  0  0  0  0  0  0
    0.6848   -1.7471   -1.4973 H   0  0  0  0  0  0  0  0  0  0  0  0
    2.8245   -2.1127   -2.6187 H   0  0  0  0  0  0  0  0  0  0  0  0
    5.8675    1.0154   -0.5375 H   0  0  0  0  0  0  0  0  0  0  0  0
    5.6764    2.5905    1.3135 H   0  0  0  0  0  0  0  0  0  0  0  0
    3.5475    2.8403    2.5411 H   0  0  0  0  0  0  0  0  0  0  0  0
    1.5864    1.5249    1.9105 H   0  0  0  0  0  0  0  0  0  0  0  0
  1  2  1  0
  2  3  2  0
  2  4  1  0
  4  5  1  0
  5  6  2  0
  5  7  1  0
  7  8  1  0
  8  9  1  0
  9 10  1  0
 10 11  1  0
 11 12  1  0
 12 13  1  0
  4 14  1  0
 14 15  2  0
 15 16  1  0
 16 17  2  0
 17 18  1  0
 18 19  2  0
 19 20  1  0
 20 21  2  0
 21 22  1  0
 22 23  2  0
 17 24  1  0
 24 25  1  0
 24 26  2  0
  7  1  1  0
 13  8  1  0
 23 14  1  0
 11  1  1  0
 23 18  1  0
  1 27  1  1
  7 28  1  1
  8 29  1  6
  9 30  1  0
  9 31  1  0
 10 32  1  0
 10 33  1  0
 11 34  1  1
 12 35  1  0
 12 36  1  0
 13 37  1  0
 13 38  1  0
 15 39  1  0
 16 40  1  0
 19 41  1  0
 20 42  1  0
 21 43  1  0
 22 44  1  0
M  CHG  2  24   1  25  -1
M  END
$$$$
