
     RDKit          3D

 35 37  0  0  0  0  0  0  0  0999 V2000
    5.0776    0.5101    2.3680 C   0  0  0  0  0  0  0  0  0  0  0  0
    5.3160    0.6547    0.9716 O   0  0  0  0  0  0  0  0  0  0  0  0
    4.3426    0.4720   -0.0222 C   0  0  0  0  0  0  0  0  0  0  0  0
    3.0131    0.1150    0.2785 C   0  0  0  0  0  0  0  0  0  0  0  0
    2.0682   -0.0596   -0.7487 C   0  0  0  0  0  0  0  0  0  0  0  0
    2.4685    0.1289   -2.0829 C   0  0  0  0  0  0  0  0  0  0  0  0
    3.7854    0.4821   -2.3832 C   0  0  0  0  0  0  0  0  0  0  0  0
    4.7169    0.6526   -1.3578 C   0  0  0  0  0  0  0  0  0  0  0  0
    0.7054   -0.4134   -0.4416 N   0  0  0  0  0  0  0  0  0  0  0  0
    0.0163   -1.3911   -1.2558 C   0  0  0  0  0  0  0  0  0  0  0  0
   -1.3124   -1.6000   -1.2183 C   0  0  0  0  0  0  0  0  0  0  0  0
   -2.2353   -0.8633   -0.3344 C   0  0  0  0  0  0  0  0  0  0  0  0
   -1.8067    0.0524    0.6020 C   0  0  0  0  0  0  0  0  0  0  0  0
   -3.1131    0.6926    1.4410 S   0  0  0  0  0  0  0  0  0  0  0  0
   -4.2594   -0.2129    0.5983 C   0  0  0  0  0  0  0  0  0  0  0  0
   -3.6268   -1.0181   -0.3431 C   0  0  0  0  0  0  0  0  0  0  0  0
   -5.9905   -0.1259    0.8580 S   0  0  0  0  0  6  0  0  0  0  0  0
   -6.6894    0.9791   -0.2725 N   0  0  0  0  0  0  0  0  0  0  0  0
   -6.5943   -1.4893    0.6715 O   0  0  0  0  0  0  0  0  0  0  0  0
   -6.2655    0.3421    2.2596 O   0  0  0  0  0  0  0  0  0  0  0  0
   -0.1295    0.4089    0.8439 S   0  0  0  0  0  6  0  0  0  0  0  0
    0.3136   -0.1126    2.1815 O   0  0  0  0  0  0  0  0  0  0  0  0
    0.1007    1.8906    0.7462 O   0  0  0  0  0  0  0  0  0  0  0  0
    4.3034    1.2337    2.7003 H   0  0  0  0  0  0  0  0  0  0  0  0
    6.0174    0.7173    2.9195 H   0  0  0  0  0  0  0  0  0  0  0  0
    4.7539   -0.5277    2.5948 H   0  0  0  0  0  0  0  0  0  0  0  0
    2.7161   -0.0439    1.3038 H   0  0  0  0  0  0  0  0  0  0  0  0
    1.7565    0.0189   -2.8909 H   0  0  0  0  0  0  0  0  0  0  0  0
    4.0837    0.6284   -3.4133 H   0  0  0  0  0  0  0  0  0  0  0  0
    5.7354    0.9276   -1.6013 H   0  0  0  0  0  0  0  0  0  0  0  0
    0.5932   -1.9845   -1.9554 H   0  0  0  0  0  0  0  0  0  0  0  0
   -1.7327   -2.3439   -1.8842 H   0  0  0  0  0  0  0  0  0  0  0  0
   -4.1540   -1.6887   -1.0094 H   0  0  0  0  0  0  0  0  0  0  0  0
   -6.2691    1.9164   -0.0825 H   0  0  0  0  0  0  0  0  0  0  0  0
   -7.7054    1.0514   -0.0411 H   0  0  0  0  0  0  0  0  0  0  0  0
  1  2  1  0
  2  3  1  0
  3  4  2  0
  4  5  1  0
  5  6  2  0
  6  7  1  0
  7  8  2  0
  5  9  1  0
  9 10  1  0
 10 11  2  0
 11 12  1  0
 12 13  2  0
 13 14  1  0
 14 15  1  0
 15 16  2  0
 15 17  1  0
 17 18  1  0
 17 19  2  0
 17 20  2  0
 13 21  1  0
 21 22  2  0
 21 23  2  0
  8  3  1  0
 21  9  1  0
 16 12  1  0
  1 24  1  0
  1 25  1  0
  1 26  1  0
  4 27  1  0
  6 28  1  0
  7 29  1  0
  8 30  1  0
 10 31  1  0
 11 32  1  0
 16 33  1  0
 18 34  1  0
 18 35  1  0
M  END
$$$$
