
     RDKit          3D

 44 43  0  0  0  0  0  0  0  0999 V2000
    3.3046    0.7365    2.9322 C   0  0  0  0  0  0  0  0  0  0  0  0
    4.0173    1.0216    1.6195 C   0  0  0  0  0  0  0  0  0  0  0  0
    4.5255   -0.1881    1.0963 O   0  0  0  0  0  0  0  0  0  0  0  0
    5.0509    0.0143   -0.2021 C   0  0  0  0  0  0  0  0  0  0  0  0
    3.9988   -0.2876   -1.2734 C   0  0  0  0  0  0  0  0  0  0  0  0
    3.5836   -1.6400   -1.1966 O   0  0  0  0  0  0  0  0  0  0  0  0
    2.3597   -1.7762   -0.4959 C   0  0  0  0  0  0  0  0  0  0  0  0
    1.1931   -1.9254   -1.4767 C   0  0  0  0  0  0  0  0  0  0  0  0
    1.0614   -0.7742   -2.2905 O   0  0  0  0  0  0  0  0  0  0  0  0
    0.1945    0.1785   -1.7020 C   0  0  0  0  0  0  0  0  0  0  0  0
   -1.2237    0.0091   -2.2401 C   0  0  0  0  0  0  0  0  0  0  0  0
   -2.0490    1.0147   -1.6899 O   0  0  0  0  0  0  0  0  0  0  0  0
   -3.4031    0.7955   -2.0408 C   0  0  0  0  0  0  0  0  0  0  0  0
   -4.1329    0.0557   -0.9213 C   0  0  0  0  0  0  0  0  0  0  0  0
   -4.0155    0.7902    0.2792 O   0  0  0  0  0  0  0  0  0  0  0  0
   -4.6658    0.0958    1.3220 C   0  0  0  0  0  0  0  0  0  0  0  0
   -4.5370    0.8999    2.6122 C   0  0  0  0  0  0  0  0  0  0  0  0
   -5.1424    0.2163    3.6757 O   0  0  0  0  0  0  0  0  0  0  0  0
    2.4607    0.0349    2.7611 H   0  0  0  0  0  0  0  0  0  0  0  0
    2.9064    1.6822    3.3567 H   0  0  0  0  0  0  0  0  0  0  0  0
    4.0126    0.2850    3.6591 H   0  0  0  0  0  0  0  0  0  0  0  0
    4.8488    1.7346    1.8180 H   0  0  0  0  0  0  0  0  0  0  0  0
    3.2854    1.4902    0.9231 H   0  0  0  0  0  0  0  0  0  0  0  0
    5.9002   -0.6879   -0.3408 H   0  0  0  0  0  0  0  0  0  0  0  0
    5.4670    1.0384   -0.3560 H   0  0  0  0  0  0  0  0  0  0  0  0
    4.4719   -0.1362   -2.2666 H   0  0  0  0  0  0  0  0  0  0  0  0
    3.1630    0.4471   -1.2233 H   0  0  0  0  0  0  0  0  0  0  0  0
    2.1583   -0.9571    0.2318 H   0  0  0  0  0  0  0  0  0  0  0  0
    2.4182   -2.7066    0.1074 H   0  0  0  0  0  0  0  0  0  0  0  0
    0.2584   -2.1778   -0.9234 H   0  0  0  0  0  0  0  0  0  0  0  0
    1.4028   -2.7916   -2.1394 H   0  0  0  0  0  0  0  0  0  0  0  0
    0.5576    1.1895   -1.9847 H   0  0  0  0  0  0  0  0  0  0  0  0
    0.1897    0.1473   -0.5869 H   0  0  0  0  0  0  0  0  0  0  0  0
   -1.5900   -1.0057   -1.9658 H   0  0  0  0  0  0  0  0  0  0  0  0
   -1.1950    0.1026   -3.3494 H   0  0  0  0  0  0  0  0  0  0  0  0
   -3.5327    0.2495   -3.0058 H   0  0  0  0  0  0  0  0  0  0  0  0
   -3.8865    1.7862   -2.1774 H   0  0  0  0  0  0  0  0  0  0  0  0
   -3.6881   -0.9594   -0.8132 H   0  0  0  0  0  0  0  0  0  0  0  0
   -5.2027   -0.0467   -1.2146 H   0  0  0  0  0  0  0  0  0  0  0  0
   -5.7486   -0.0339    1.0931 H   0  0  0  0  0  0  0  0  0  0  0  0
   -4.1971   -0.9023    1.4829 H   0  0  0  0  0  0  0  0  0  0  0  0
   -4.9974    1.9062    2.4839 H   0  0  0  0  0  0  0  0  0  0  0  0
   -3.4609    1.0422    2.8487 H   0  0  0  0  0  0  0  0  0  0  0  0
   -6.1220    0.3422    3.5735 H   0  0  0  0  0  0  0  0  0  0  0  0
  1  2  1  0
  2  3  1  0
  3  4  1  0
  4  5  1  0
  5  6  1  0
  6  7  1  0
  7  8  1  0
  8  9  1  0
  9 10  1  0
 10 11  1  0
 11 12  1  0
 12 13  1  0
 13 14  1  0
 14 15  1  0
 15 16  1  0
 16 17  1  0
 17 18  1  0
  1 19  1  0
  1 20  1  0
  1 21  1  0
  2 22  1  0
  2 23  1  0
  4 24  1  0
  4 25  1  0
  5 26  1  0
  5 27  1  0
  7 28  1  0
  7 29  1  0
  8 30  1  0
  8 31  1  0
 10 32  1  0
 10 33  1  0
 11 34  1  0
 11 35  1  0
 13 36  1  0
 13 37  1  0
 14 38  1  0
 14 39  1  0
 16 40  1  0
 16 41  1  0
 17 42  1  0
 17 43  1  0
 18 44  1  0
M  END
$$$$
