
     RDKit          3D

 39 42  0  0  0  0  0  0  0  0999 V2000
    1.5945    0.5923   -0.7197 C   0  0  2  0  0  0  0  0  0  0  0  0
    1.1433    1.5907    0.3537 C   0  0  0  0  0  0  0  0  0  0  0  0
    0.0890    2.4880   -0.2986 C   0  0  0  0  0  0  0  0  0  0  0  0
   -0.0899    1.9947   -1.7319 C   0  0  0  0  0  0  0  0  0  0  0  0
    0.4686    0.5719   -1.7620 C   0  0  2  0  0  0  0  0  0  0  0  0
   -0.6000   -0.5389   -1.5284 C   0  0  1  0  0  0  0  0  0  0  0  0
    0.0300   -1.7862   -1.2471 O   0  0  0  0  0  0  0  0  0  0  0  0
    1.1936   -1.9032   -0.4822 C   0  0  0  0  0  0  0  0  0  0  0  0
    1.5610   -3.1699   -0.0203 C   0  0  0  0  0  0  0  0  0  0  0  0
    2.7011   -3.3301    0.7635 C   0  0  0  0  0  0  0  0  0  0  0  0
    3.4946   -2.2270    1.0729 C   0  0  0  0  0  0  0  0  0  0  0  0
    3.1619   -0.9535    0.5977 C   0  0  0  0  0  0  0  0  0  0  0  0
    4.0322    0.0962    0.8995 O   0  0  0  0  0  0  0  0  0  0  0  0
    1.9845   -0.7729   -0.1757 C   0  0  0  0  0  0  0  0  0  0  0  0
   -1.6642   -0.2337   -0.4800 C   0  0  0  0  0  0  0  0  0  0  0  0
   -1.4702   -0.5221    0.8855 C   0  0  0  0  0  0  0  0  0  0  0  0
   -2.4603   -0.2186    1.8243 C   0  0  0  0  0  0  0  0  0  0  0  0
   -3.6622    0.3652    1.4178 C   0  0  0  0  0  0  0  0  0  0  0  0
   -4.6380    0.6639    2.3659 O   0  0  0  0  0  0  0  0  0  0  0  0
   -3.8746    0.6414    0.0624 C   0  0  0  0  0  0  0  0  0  0  0  0
   -2.8869    0.3399   -0.8790 C   0  0  0  0  0  0  0  0  0  0  0  0
    2.4857    1.0213   -1.2320 H   0  0  0  0  0  0  0  0  0  0  0  0
    1.9953    2.2097    0.7054 H   0  0  0  0  0  0  0  0  0  0  0  0
    0.7128    1.0727    1.2359 H   0  0  0  0  0  0  0  0  0  0  0  0
   -0.8720    2.4127    0.2552 H   0  0  0  0  0  0  0  0  0  0  0  0
    0.4142    3.5514   -0.2929 H   0  0  0  0  0  0  0  0  0  0  0  0
   -1.1444    2.0593   -2.0698 H   0  0  0  0  0  0  0  0  0  0  0  0
    0.5189    2.6343   -2.4093 H   0  0  0  0  0  0  0  0  0  0  0  0
    0.9196    0.3834   -2.7633 H   0  0  0  0  0  0  0  0  0  0  0  0
   -1.1281   -0.6749   -2.4980 H   0  0  0  0  0  0  0  0  0  0  0  0
    0.9503   -4.0312   -0.2596 H   0  0  0  0  0  0  0  0  0  0  0  0
    2.9744   -4.3124    1.1268 H   0  0  0  0  0  0  0  0  0  0  0  0
    4.3868   -2.3642    1.6708 H   0  0  0  0  0  0  0  0  0  0  0  0
    3.9306    1.0318    0.5334 H   0  0  0  0  0  0  0  0  0  0  0  0
   -0.5576   -0.9776    1.2378 H   0  0  0  0  0  0  0  0  0  0  0  0
   -2.2927   -0.4392    2.8709 H   0  0  0  0  0  0  0  0  0  0  0  0
   -5.5203    1.0870    2.1023 H   0  0  0  0  0  0  0  0  0  0  0  0
   -4.8050    1.0889   -0.2634 H   0  0  0  0  0  0  0  0  0  0  0  0
   -3.0763    0.5588   -1.9225 H   0  0  0  0  0  0  0  0  0  0  0  0
  1  2  1  0
  2  3  1  0
  3  4  1  0
  4  5  1  0
  5  6  1  0
  6  7  1  0
  7  8  1  0
  8  9  2  0
  9 10  1  0
 10 11  2  0
 11 12  1  0
 12 13  1  0
 12 14  2  0
  6 15  1  0
 15 16  2  0
 16 17  1  0
 17 18  2  0
 18 19  1  0
 18 20  1  0
 20 21  2  0
  5  1  1  0
 14  8  1  0
 21 15  1  0
 14  1  1  0
  1 22  1  6
  2 23  1  0
  2 24  1  0
  3 25  1  0
  3 26  1  0
  4 27  1  0
  4 28  1  0
  5 29  1  6
  6 30  1  6
  9 31  1  0
 10 32  1  0
 11 33  1  0
 13 34  1  0
 16 35  1  0
 17 36  1  0
 19 37  1  0
 20 38  1  0
 21 39  1  0
M  END
$$$$
