
     RDKit          3D

 52 56  0  0  0  0  0  0  0  0999 V2000
    3.1157   -2.2688    1.9189 C   0  0  0  0  0  0  0  0  0  0  0  0
    3.2504   -1.0597    1.0555 C   0  0  0  0  0  0  0  0  0  0  0  0
    4.0925   -0.0579    1.4130 N   0  0  0  0  0  0  0  0  0  0  0  0
    4.2619    1.0415    0.6316 C   0  0  0  0  0  0  0  0  0  0  0  0
    5.2202    2.1015    1.0889 C   0  0  0  0  0  0  0  0  0  0  0  0
    3.5334    1.1570   -0.5732 C   0  0  0  0  0  0  0  0  0  0  0  0
    3.7180    2.3231   -1.5210 C   0  0  0  0  0  0  0  0  0  0  0  0
    2.4393    2.6208   -2.3070 C   0  0  0  0  0  0  0  0  0  0  0  0
    1.8937    1.3676   -2.9189 C   0  0  0  0  0  0  0  0  0  0  0  0
    1.3371    1.4228   -4.0489 O   0  0  0  0  0  0  0  0  0  0  0  0
    1.9550    0.1283   -2.1851 N   0  0  0  0  0  0  0  0  0  0  0  0
    1.1920   -1.0472   -2.6338 C   0  0  0  0  0  0  0  0  0  0  0  0
   -0.1064   -1.1476   -1.8768 C   0  0  0  0  0  0  0  0  0  0  0  0
   -1.1317   -0.2181   -2.1107 C   0  0  0  0  0  0  0  0  0  0  0  0
   -2.3174   -0.2748   -1.3738 C   0  0  0  0  0  0  0  0  0  0  0  0
   -2.4903   -1.2567   -0.3861 C   0  0  0  0  0  0  0  0  0  0  0  0
   -1.4769   -2.2014   -0.1677 C   0  0  0  0  0  0  0  0  0  0  0  0
   -0.2908   -2.1444   -0.9044 C   0  0  0  0  0  0  0  0  0  0  0  0
   -3.7395   -1.3086    0.4032 C   0  0  0  0  0  0  0  0  0  0  0  0
   -4.5576   -2.4440    0.2733 C   0  0  0  0  0  0  0  0  0  0  0  0
   -5.7865   -2.5133    0.9298 C   0  0  0  0  0  0  0  0  0  0  0  0
   -6.2157   -1.4502    1.7219 C   0  0  0  0  0  0  0  0  0  0  0  0
   -5.4104   -0.3202    1.8747 C   0  0  0  0  0  0  0  0  0  0  0  0
   -4.1590   -0.2357    1.2360 C   0  0  0  0  0  0  0  0  0  0  0  0
   -3.3104    0.9540    1.4981 C   0  0  0  0  0  0  0  0  0  0  0  0
   -3.7818    2.1349    1.9459 N   0  0  0  0  0  0  0  0  0  0  0  0
   -2.7021    2.8848    2.0789 N   0  0  0  0  0  0  0  0  0  0  0  0
   -1.6177    2.2088    1.7435 N   0  0  0  0  0  0  0  0  0  0  0  0
   -1.9668    0.9866    1.3778 N   0  0  0  0  0  0  0  0  0  0  0  0
    2.6949    0.0857   -0.9447 C   0  0  0  0  0  0  0  0  0  0  0  0
    2.5802   -0.9901   -0.1210 N   0  0  0  0  0  0  0  0  0  0  0  0
    3.8762   -3.0207    1.6226 H   0  0  0  0  0  0  0  0  0  0  0  0
    2.1026   -2.7093    1.8040 H   0  0  0  0  0  0  0  0  0  0  0  0
    3.2664   -1.9967    2.9850 H   0  0  0  0  0  0  0  0  0  0  0  0
    4.6630    3.0257    1.3489 H   0  0  0  0  0  0  0  0  0  0  0  0
    5.7754    1.7622    1.9892 H   0  0  0  0  0  0  0  0  0  0  0  0
    5.9586    2.3204    0.2890 H   0  0  0  0  0  0  0  0  0  0  0  0
    4.5396    2.0792   -2.2288 H   0  0  0  0  0  0  0  0  0  0  0  0
    3.9985    3.2463   -0.9727 H   0  0  0  0  0  0  0  0  0  0  0  0
    1.6728    3.0468   -1.6242 H   0  0  0  0  0  0  0  0  0  0  0  0
    2.6601    3.3699   -3.0982 H   0  0  0  0  0  0  0  0  0  0  0  0
    1.8045   -1.9649   -2.4939 H   0  0  0  0  0  0  0  0  0  0  0  0
    0.9785   -0.9935   -3.7228 H   0  0  0  0  0  0  0  0  0  0  0  0
   -1.0111    0.5551   -2.8584 H   0  0  0  0  0  0  0  0  0  0  0  0
   -3.0974    0.4520   -1.5651 H   0  0  0  0  0  0  0  0  0  0  0  0
   -1.5986   -2.9705    0.5852 H   0  0  0  0  0  0  0  0  0  0  0  0
    0.4867   -2.8722   -0.7081 H   0  0  0  0  0  0  0  0  0  0  0  0
   -4.2517   -3.2699   -0.3578 H   0  0  0  0  0  0  0  0  0  0  0  0
   -6.4118   -3.3894    0.8160 H   0  0  0  0  0  0  0  0  0  0  0  0
   -7.1716   -1.5049    2.2266 H   0  0  0  0  0  0  0  0  0  0  0  0
   -5.7588    0.4812    2.5147 H   0  0  0  0  0  0  0  0  0  0  0  0
   -2.7050    3.8749    2.4087 H   0  0  0  0  0  0  0  0  0  0  0  0
  1  2  1  0
  2  3  2  0
  3  4  1  0
  4  5  1  0
  4  6  2  0
  6  7  1  0
  7  8  1  0
  8  9  1  0
  9 10  2  0
  9 11  1  0
 11 12  1  0
 12 13  1  0
 13 14  2  0
 14 15  1  0
 15 16  2  0
 16 17  1  0
 17 18  2  0
 16 19  1  0
 19 20  2  0
 20 21  1  0
 21 22  2  0
 22 23  1  0
 23 24  2  0
 24 25  1  0
 25 26  2  0
 26 27  1  0
 27 28  1  0
 28 29  2  0
 11 30  1  0
 30 31  2  0
 31  2  1  0
 30  6  1  0
 18 13  1  0
 24 19  1  0
 29 25  1  0
  1 32  1  0
  1 33  1  0
  1 34  1  0
  5 35  1  0
  5 36  1  0
  5 37  1  0
  7 38  1  0
  7 39  1  0
  8 40  1  0
  8 41  1  0
 12 42  1  0
 12 43  1  0
 14 44  1  0
 15 45  1  0
 17 46  1  0
 18 47  1  0
 20 48  1  0
 21 49  1  0
 22 50  1  0
 23 51  1  0
 27 52  1  0
M  END
$$$$
