
     RDKit          3D

 29 31  0  0  0  0  0  0  0  0999 V2000
    0.1580    1.1377   -1.5034 Cl  0  0  0  0  0  0  0  0  0  0  0  0
    0.0021    0.1244   -0.0732 C   0  0  0  0  0  0  0  0  0  0  0  0
    1.0840   -0.4849    0.5695 C   0  0  0  0  0  0  0  0  0  0  0  0
    0.4859   -1.3937    1.8541 S   0  0  0  0  0  0  0  0  0  0  0  0
   -1.1341   -1.0152    1.6341 C   0  0  0  0  0  0  0  0  0  0  0  0
   -1.2355   -0.1771    0.5284 C   0  0  0  0  0  0  0  0  0  0  0  0
   -2.4941    0.3061    0.0395 N   0  0  0  0  0  0  0  0  0  0  0  0
   -3.0334   -0.0190   -1.2854 C   0  0  0  0  0  0  0  0  0  0  0  0
   -4.4786    0.4226   -1.2956 C   0  0  0  0  0  0  0  0  0  0  0  0
   -5.2150    0.2812   -2.3067 O   0  0  0  0  0  0  0  0  0  0  0  0
   -4.9692    1.0096   -0.0948 N   0  0  0  0  0  0  0  0  0  0  0  0
   -3.6996    1.0127    1.0439 S   0  0  0  0  0  6  0  0  0  0  0  0
   -4.0341    0.1488    2.2265 O   0  0  0  0  0  0  0  0  0  0  0  0
   -3.3270    2.4104    1.4491 O   0  0  0  0  0  0  0  0  0  0  0  0
    2.5155   -0.3860    0.2153 C   0  0  0  0  0  0  0  0  0  0  0  0
    3.0933    0.8503   -0.1234 C   0  0  0  0  0  0  0  0  0  0  0  0
    4.4528    0.9310   -0.4406 C   0  0  0  0  0  0  0  0  0  0  0  0
    5.2484   -0.2171   -0.4129 C   0  0  0  0  0  0  0  0  0  0  0  0
    4.6872   -1.4469   -0.0606 C   0  0  0  0  0  0  0  0  0  0  0  0
    3.3283   -1.5319    0.2582 C   0  0  0  0  0  0  0  0  0  0  0  0
   -1.9526   -1.3935    2.2297 H   0  0  0  0  0  0  0  0  0  0  0  0
   -2.9740   -1.1141   -1.4612 H   0  0  0  0  0  0  0  0  0  0  0  0
   -2.4782    0.5249   -2.0752 H   0  0  0  0  0  0  0  0  0  0  0  0
   -5.9395    1.3583    0.0678 H   0  0  0  0  0  0  0  0  0  0  0  0
    2.5031    1.7571   -0.1167 H   0  0  0  0  0  0  0  0  0  0  0  0
    4.8915    1.8859   -0.6998 H   0  0  0  0  0  0  0  0  0  0  0  0
    6.3007   -0.1525   -0.6576 H   0  0  0  0  0  0  0  0  0  0  0  0
    5.3053   -2.3350   -0.0340 H   0  0  0  0  0  0  0  0  0  0  0  0
    2.9091   -2.4941    0.5252 H   0  0  0  0  0  0  0  0  0  0  0  0
  1  2  1  0
  2  3  2  0
  3  4  1  0
  4  5  1  0
  5  6  2  0
  6  7  1  0
  7  8  1  0
  8  9  1  0
  9 10  2  0
  9 11  1  0
 11 12  1  0
 12 13  2  0
 12 14  2  0
  3 15  1  0
 15 16  2  0
 16 17  1  0
 17 18  2  0
 18 19  1  0
 19 20  2  0
  6  2  1  0
 12  7  1  0
 20 15  1  0
  5 21  1  0
  8 22  1  0
  8 23  1  0
 11 24  1  0
 16 25  1  0
 17 26  1  0
 18 27  1  0
 19 28  1  0
 20 29  1  0
M  END
$$$$
