
     RDKit          3D

 40 41  0  0  0  0  0  0  0  0999 V2000
    2.9146    1.4181    1.6054 C   0  0  2  0  0  0  0  0  0  0  0  0
    2.3716    2.4850    2.3390 O   0  0  0  0  0  0  0  0  0  0  0  0
    4.1666    1.8865    0.8475 C   0  0  0  0  0  0  0  0  0  0  0  0
    3.8532    2.9595    0.0020 O   0  0  0  0  0  0  0  0  0  0  0  0
    1.8448    0.8707    0.6545 C   0  0  0  0  0  0  0  0  0  0  0  0
    2.3256   -0.2805   -0.0007 O   0  0  0  0  0  0  0  0  0  0  0  0
    1.3647   -0.6529   -0.8880 N   0  0  0  0  0  0  0  0  0  0  0  0
    0.3510   -1.5943   -0.5177 C   0  0  0  0  0  0  0  0  0  0  0  0
    0.3505   -2.0862    0.6431 O   0  0  0  0  0  0  0  0  0  0  0  0
   -0.7062   -1.9771   -1.4760 C   0  0  0  0  0  0  0  0  0  0  0  0
   -0.3465   -2.3247   -2.7884 C   0  0  0  0  0  0  0  0  0  0  0  0
   -1.3117   -2.7739   -3.6917 C   0  0  0  0  0  0  0  0  0  0  0  0
   -2.6449   -2.8859   -3.2950 C   0  0  0  0  0  0  0  0  0  0  0  0
   -3.5755   -3.3319   -4.1749 F   0  0  0  0  0  0  0  0  0  0  0  0
   -3.0223   -2.5299   -1.9972 C   0  0  0  0  0  0  0  0  0  0  0  0
   -4.3270   -2.6165   -1.6339 F   0  0  0  0  0  0  0  0  0  0  0  0
   -2.0667   -2.0512   -1.0861 C   0  0  0  0  0  0  0  0  0  0  0  0
   -2.4993   -1.6224    0.2167 N   0  0  0  0  0  0  0  0  0  0  0  0
   -2.1812   -0.3298    0.7682 C   0  0  0  0  0  0  0  0  0  0  0  0
   -1.9234    0.7660   -0.0779 C   0  0  0  0  0  0  0  0  0  0  0  0
   -1.6069    2.0165    0.4576 C   0  0  0  0  0  0  0  0  0  0  0  0
   -1.5480    2.1912    1.8416 C   0  0  0  0  0  0  0  0  0  0  0  0
   -1.0441    4.0740    2.6457 I   0  0  0  0  0  0  0  0  0  0  0  0
   -1.8140    1.1151    2.6924 C   0  0  0  0  0  0  0  0  0  0  0  0
   -2.1348   -0.1416    2.1646 C   0  0  0  0  0  0  0  0  0  0  0  0
   -2.4230   -1.4727    3.2775 Cl  0  0  0  0  0  0  0  0  0  0  0  0
    3.2054    0.5967    2.3018 H   0  0  0  0  0  0  0  0  0  0  0  0
    2.9589    2.6198    3.1281 H   0  0  0  0  0  0  0  0  0  0  0  0
    4.5870    1.0447    0.2530 H   0  0  0  0  0  0  0  0  0  0  0  0
    4.9370    2.2066    1.5842 H   0  0  0  0  0  0  0  0  0  0  0  0
    4.6990    3.2059   -0.4549 H   0  0  0  0  0  0  0  0  0  0  0  0
    0.9476    0.6091    1.2588 H   0  0  0  0  0  0  0  0  0  0  0  0
    1.5611    1.6594   -0.0807 H   0  0  0  0  0  0  0  0  0  0  0  0
    1.3795   -0.2499   -1.8522 H   0  0  0  0  0  0  0  0  0  0  0  0
    0.6879   -2.2784   -3.1062 H   0  0  0  0  0  0  0  0  0  0  0  0
   -1.0218   -3.0487   -4.6978 H   0  0  0  0  0  0  0  0  0  0  0  0
   -3.1721   -2.2344    0.7307 H   0  0  0  0  0  0  0  0  0  0  0  0
   -1.9702    0.6556   -1.1535 H   0  0  0  0  0  0  0  0  0  0  0  0
   -1.4027    2.8481   -0.2042 H   0  0  0  0  0  0  0  0  0  0  0  0
   -1.7636    1.2541    3.7648 H   0  0  0  0  0  0  0  0  0  0  0  0
  1  2  1  0
  1  3  1  0
  3  4  1  0
  1  5  1  0
  5  6  1  0
  6  7  1  0
  7  8  1  0
  8  9  2  0
  8 10  1  0
 10 11  2  0
 11 12  1  0
 12 13  2  0
 13 14  1  0
 13 15  1  0
 15 16  1  0
 15 17  2  0
 17 18  1  0
 18 19  1  0
 19 20  2  0
 20 21  1  0
 21 22  2  0
 22 23  1  0
 22 24  1  0
 24 25  2  0
 25 26  1  0
 17 10  1  0
 25 19  1  0
  1 27  1  1
  2 28  1  0
  3 29  1  0
  3 30  1  0
  4 31  1  0
  5 32  1  0
  5 33  1  0
  7 34  1  0
 11 35  1  0
 12 36  1  0
 18 37  1  0
 20 38  1  0
 21 39  1  0
 24 40  1  0
M  END
$$$$
