
     RDKit          3D

 32 33  0  0  0  0  0  0  0  0999 V2000
   -4.1297    0.3789   -0.7702 C   0  0  0  0  0  0  0  0  0  0  0  0
   -3.1532    0.1889    0.3959 C   0  0  0  0  0  0  0  0  0  0  0  0
   -3.8137   -0.5395    1.5720 C   0  0  0  0  0  0  0  0  0  0  0  0
   -2.6339    1.4850    0.8351 N   0  0  0  0  0  0  0  0  0  0  0  0
   -1.2273    1.4938    0.6352 C   0  0  0  0  0  0  0  0  0  0  0  0
   -0.5052    2.4980    0.8723 O   0  0  0  0  0  0  0  0  0  0  0  0
   -0.7387    0.2763    0.0930 N   0  0  0  0  0  0  0  0  0  0  0  0
   -1.9065   -0.5283   -0.0559 C   0  0  0  0  0  0  0  0  0  0  0  0
   -1.8831   -1.7160   -0.4776 O   0  0  0  0  0  0  0  0  0  0  0  0
    0.6175   -0.0586   -0.2504 C   0  0  0  0  0  0  0  0  0  0  0  0
    1.6795    0.3563    0.5662 C   0  0  0  0  0  0  0  0  0  0  0  0
    3.0140    0.0271    0.2526 C   0  0  0  0  0  0  0  0  0  0  0  0
    3.2806   -0.6854   -0.9475 C   0  0  0  0  0  0  0  0  0  0  0  0
    2.2069   -1.1122   -1.7463 C   0  0  0  0  0  0  0  0  0  0  0  0
    0.8919   -0.8051   -1.4015 C   0  0  0  0  0  0  0  0  0  0  0  0
    4.6220   -0.9770   -1.3760 N   0  0  0  0  0  4  0  0  0  0  0  0
    5.5933   -0.0040   -1.3324 O   0  0  0  0  0  1  0  0  0  0  0  0
    4.8693   -2.0460   -1.9716 O   0  0  0  0  0  0  0  0  0  0  0  0
    4.1223    0.4560    1.1944 C   0  0  0  0  0  0  0  0  0  0  0  0
    5.0689   -0.5457    1.3182 F   0  0  0  0  0  0  0  0  0  0  0  0
    3.6311    0.7234    2.4612 F   0  0  0  0  0  0  0  0  0  0  0  0
    4.7237    1.6018    0.7079 F   0  0  0  0  0  0  0  0  0  0  0  0
   -5.0079    0.9751   -0.4419 H   0  0  0  0  0  0  0  0  0  0  0  0
   -4.4864   -0.6054   -1.1425 H   0  0  0  0  0  0  0  0  0  0  0  0
   -3.6337    0.9169   -1.6069 H   0  0  0  0  0  0  0  0  0  0  0  0
   -4.1658   -1.5456    1.2580 H   0  0  0  0  0  0  0  0  0  0  0  0
   -3.0907   -0.6606    2.4076 H   0  0  0  0  0  0  0  0  0  0  0  0
   -4.6842    0.0423    1.9434 H   0  0  0  0  0  0  0  0  0  0  0  0
   -3.1996    2.2798    1.2085 H   0  0  0  0  0  0  0  0  0  0  0  0
    1.4569    0.9139    1.4662 H   0  0  0  0  0  0  0  0  0  0  0  0
    2.3920   -1.6624   -2.6605 H   0  0  0  0  0  0  0  0  0  0  0  0
    0.0900   -1.1216   -2.0555 H   0  0  0  0  0  0  0  0  0  0  0  0
  1  2  1  0
  2  3  1  0
  2  4  1  0
  4  5  1  0
  5  6  2  0
  5  7  1  0
  7  8  1  0
  8  9  2  0
  7 10  1  0
 10 11  2  0
 11 12  1  0
 12 13  2  0
 13 14  1  0
 14 15  2  0
 13 16  1  0
 16 17  1  0
 16 18  2  0
 12 19  1  0
 19 20  1  0
 19 21  1  0
 19 22  1  0
  8  2  1  0
 15 10  1  0
  1 23  1  0
  1 24  1  0
  1 25  1  0
  3 26  1  0
  3 27  1  0
  3 28  1  0
  4 29  1  0
 11 30  1  0
 14 31  1  0
 15 32  1  0
M  CHG  2  16   1  17  -1
M  END
$$$$
