
     RDKit          3D

 44 46  0  0  0  0  0  0  0  0999 V2000
   -8.3067    0.4638    0.0974 O   0  0  0  0  0  0  0  0  0  0  0  0
   -7.3403    0.7842    1.0454 C   0  0  0  0  0  0  0  0  0  0  0  0
   -7.6592    0.8932    2.2594 O   0  0  0  0  0  0  0  0  0  0  0  0
   -5.9174    0.9444    0.6295 C   0  0  0  0  0  0  0  0  0  0  0  0
   -5.2755   -0.3250    0.6651 O   0  0  0  0  0  0  0  0  0  0  0  0
   -3.9537   -0.5032    0.2501 C   0  0  0  0  0  0  0  0  0  0  0  0
   -3.6192   -1.2992   -0.8424 C   0  0  0  0  0  0  0  0  0  0  0  0
   -1.9475   -1.2877   -1.0131 S   0  0  0  0  0  0  0  0  0  0  0  0
   -1.6255   -0.2753    0.2946 C   0  0  0  0  0  0  0  0  0  0  0  0
   -2.8401    0.0630    0.9014 C   0  0  0  0  0  0  0  0  0  0  0  0
   -2.9711    0.9924    2.5748 Br  0  0  0  0  0  0  0  0  0  0  0  0
   -0.2691    0.1313    0.7167 C   0  0  0  0  0  0  0  0  0  0  0  0
   -0.0022    1.4564    1.0933 C   0  0  0  0  0  0  0  0  0  0  0  0
    1.2863    1.8342    1.4745 C   0  0  0  0  0  0  0  0  0  0  0  0
    2.3237    0.8996    1.4719 C   0  0  0  0  0  0  0  0  0  0  0  0
    2.0826   -0.4288    1.0744 C   0  0  0  0  0  0  0  0  0  0  0  0
    3.1307   -1.4177    1.0479 N   0  0  0  0  0  0  0  0  0  0  0  0
    4.5554   -1.1187    1.2012 C   0  0  0  0  0  0  0  0  0  0  0  0
    5.0667   -0.3403    0.0172 C   0  0  0  0  0  0  0  0  0  0  0  0
    5.7066    0.8978    0.1972 C   0  0  0  0  0  0  0  0  0  0  0  0
    6.1825    1.6119   -0.9069 C   0  0  0  0  0  0  0  0  0  0  0  0
    6.0310    1.0929   -2.1955 C   0  0  0  0  0  0  0  0  0  0  0  0
    5.4063   -0.1430   -2.3822 C   0  0  0  0  0  0  0  0  0  0  0  0
    4.9287   -0.8603   -1.2811 C   0  0  0  0  0  0  0  0  0  0  0  0
    0.7814   -0.8011    0.6988 C   0  0  0  0  0  0  0  0  0  0  0  0
   -4.5504   -2.0285   -1.7157 C   0  0  0  0  0  0  0  0  0  0  0  0
   -5.9227   -1.9608   -1.4942 O   0  0  0  0  0  0  0  0  0  0  0  0
   -4.1061   -2.7182   -2.6719 O   0  0  0  0  0  0  0  0  0  0  0  0
   -9.2747    0.3332    0.3660 H   0  0  0  0  0  0  0  0  0  0  0  0
   -5.8819    1.3504   -0.4045 H   0  0  0  0  0  0  0  0  0  0  0  0
   -5.4108    1.6614    1.3065 H   0  0  0  0  0  0  0  0  0  0  0  0
   -0.7838    2.2048    1.0720 H   0  0  0  0  0  0  0  0  0  0  0  0
    1.4831    2.8573    1.7681 H   0  0  0  0  0  0  0  0  0  0  0  0
    3.3061    1.2234    1.7821 H   0  0  0  0  0  0  0  0  0  0  0  0
    2.8717   -2.4130    0.8597 H   0  0  0  0  0  0  0  0  0  0  0  0
    5.1241   -2.0718    1.2620 H   0  0  0  0  0  0  0  0  0  0  0  0
    4.7269   -0.5823    2.1591 H   0  0  0  0  0  0  0  0  0  0  0  0
    5.8353    1.3121    1.1894 H   0  0  0  0  0  0  0  0  0  0  0  0
    6.6703    2.5674   -0.7632 H   0  0  0  0  0  0  0  0  0  0  0  0
    6.4004    1.6469   -3.0488 H   0  0  0  0  0  0  0  0  0  0  0  0
    5.2931   -0.5461   -3.3803 H   0  0  0  0  0  0  0  0  0  0  0  0
    4.4490   -1.8184   -1.4391 H   0  0  0  0  0  0  0  0  0  0  0  0
    0.5873   -1.8239    0.3988 H   0  0  0  0  0  0  0  0  0  0  0  0
   -6.5713   -2.4588   -2.0920 H   0  0  0  0  0  0  0  0  0  0  0  0
  1  2  1  0
  2  3  2  0
  2  4  1  0
  4  5  1  0
  5  6  1  0
  6  7  2  0
  7  8  1  0
  8  9  1  0
  9 10  2  0
 10 11  1  0
  9 12  1  0
 12 13  2  0
 13 14  1  0
 14 15  2  0
 15 16  1  0
 16 17  1  0
 17 18  1  0
 18 19  1  0
 19 20  2  0
 20 21  1  0
 21 22  2  0
 22 23  1  0
 23 24  2  0
 16 25  2  0
  7 26  1  0
 26 27  1  0
 26 28  2  0
 10  6  1  0
 25 12  1  0
 24 19  1  0
  1 29  1  0
  4 30  1  0
  4 31  1  0
 13 32  1  0
 14 33  1  0
 15 34  1  0
 17 35  1  0
 18 36  1  0
 18 37  1  0
 20 38  1  0
 21 39  1  0
 22 40  1  0
 23 41  1  0
 24 42  1  0
 25 43  1  0
 27 44  1  0
M  END
$$$$
