
     RDKit          3D

 59 64  0  0  0  0  0  0  0  0999 V2000
   -7.2687   -0.0859    1.5378 C   0  0  1  0  0  0  0  0  0  0  0  0
   -8.0901    0.4254    0.3461 C   0  0  0  0  0  0  0  0  0  0  0  0
   -6.6789   -0.1054    0.1326 C   0  0  1  0  0  0  0  0  0  0  0  0
   -5.6370    0.8796   -0.4057 C   0  0  0  0  0  0  0  0  0  0  0  0
   -4.9273    0.0953   -1.5515 C   0  0  2  0  0  0  0  0  0  0  0  0
   -5.5369   -1.2348   -1.6031 N   0  0  0  0  0  0  0  0  0  0  0  0
   -6.5532   -1.3524   -0.6314 C   0  0  0  0  0  0  0  0  0  0  0  0
   -7.2347   -2.3980   -0.4599 O   0  0  0  0  0  0  0  0  0  0  0  0
   -3.4373   -0.0180   -1.3166 C   0  0  0  0  0  0  0  0  0  0  0  0
   -2.5375    0.6892   -2.1298 C   0  0  0  0  0  0  0  0  0  0  0  0
   -1.1605    0.6044   -1.9034 C   0  0  0  0  0  0  0  0  0  0  0  0
   -0.6612   -0.1866   -0.8515 C   0  0  0  0  0  0  0  0  0  0  0  0
    0.7102   -0.3056   -0.5840 O   0  0  0  0  0  0  0  0  0  0  0  0
    1.7383    0.3304   -1.3389 C   0  0  0  0  0  0  0  0  0  0  0  0
    3.0844   -0.0721   -0.7881 C   0  0  0  0  0  0  0  0  0  0  0  0
    3.8457    0.8836   -0.0953 C   0  0  0  0  0  0  0  0  0  0  0  0
    5.0994    0.5426    0.4379 C   0  0  0  0  0  0  0  0  0  0  0  0
    5.5554   -0.7306    0.2966 N   0  0  0  0  0  0  0  0  0  0  0  0
    4.8506   -1.6916   -0.3538 C   0  0  0  0  0  0  0  0  0  0  0  0
    3.5872   -1.3900   -0.9176 C   0  0  0  0  0  0  0  0  0  0  0  0
    2.8770   -2.4157   -1.5780 C   0  0  0  0  0  0  0  0  0  0  0  0
    3.4183   -3.7010   -1.6755 C   0  0  0  0  0  0  0  0  0  0  0  0
    4.6666   -3.9834   -1.1188 C   0  0  0  0  0  0  0  0  0  0  0  0
    5.3812   -2.9824   -0.4589 C   0  0  0  0  0  0  0  0  0  0  0  0
    5.9299    1.5315    1.1720 C   0  0  0  0  0  0  0  0  0  0  0  0
    5.8846    2.9052    0.8596 C   0  0  0  0  0  0  0  0  0  0  0  0
    6.6818    3.8173    1.5582 C   0  0  0  0  0  0  0  0  0  0  0  0
    7.5360    3.3723    2.5691 C   0  0  0  0  0  0  0  0  0  0  0  0
    7.5993    2.0127    2.8804 C   0  0  0  0  0  0  0  0  0  0  0  0
    6.8054    1.0958    2.1849 C   0  0  0  0  0  0  0  0  0  0  0  0
   -1.5593   -0.8830   -0.0357 C   0  0  0  0  0  0  0  0  0  0  0  0
   -2.9356   -0.7995   -0.2613 C   0  0  0  0  0  0  0  0  0  0  0  0
   -6.7468    0.9785    2.4544 C   0  0  0  0  0  0  0  0  0  0  0  0
   -5.4513    0.8830    2.9517 O   0  0  0  0  0  0  0  0  0  0  0  0
   -7.4935    1.9248    2.8217 O   0  0  0  0  0  0  0  0  0  0  0  0
   -7.5940   -1.0615    1.9572 H   0  0  0  0  0  0  0  0  0  0  0  0
   -8.9145   -0.2597    0.0535 H   0  0  0  0  0  0  0  0  0  0  0  0
   -8.2054    1.5295    0.2908 H   0  0  0  0  0  0  0  0  0  0  0  0
   -6.1147    1.7972   -0.8129 H   0  0  0  0  0  0  0  0  0  0  0  0
   -4.9243    1.1722    0.3940 H   0  0  0  0  0  0  0  0  0  0  0  0
   -5.1298    0.6056   -2.5193 H   0  0  0  0  0  0  0  0  0  0  0  0
   -5.2803   -1.9822   -2.2860 H   0  0  0  0  0  0  0  0  0  0  0  0
   -2.9004    1.3087   -2.9405 H   0  0  0  0  0  0  0  0  0  0  0  0
   -0.4946    1.1596   -2.5495 H   0  0  0  0  0  0  0  0  0  0  0  0
    1.6710    0.0345   -2.4078 H   0  0  0  0  0  0  0  0  0  0  0  0
    1.6017    1.4329   -1.2884 H   0  0  0  0  0  0  0  0  0  0  0  0
    3.4483    1.8805    0.0459 H   0  0  0  0  0  0  0  0  0  0  0  0
    1.9051   -2.2408   -2.0183 H   0  0  0  0  0  0  0  0  0  0  0  0
    2.8666   -4.4813   -2.1838 H   0  0  0  0  0  0  0  0  0  0  0  0
    5.0801   -4.9806   -1.1973 H   0  0  0  0  0  0  0  0  0  0  0  0
    6.3480   -3.2119   -0.0276 H   0  0  0  0  0  0  0  0  0  0  0  0
    5.2549    3.2762    0.0619 H   0  0  0  0  0  0  0  0  0  0  0  0
    6.6420    4.8702    1.3104 H   0  0  0  0  0  0  0  0  0  0  0  0
    8.1525    4.0803    3.1077 H   0  0  0  0  0  0  0  0  0  0  0  0
    8.2642    1.6683    3.6620 H   0  0  0  0  0  0  0  0  0  0  0  0
    6.8670    0.0470    2.4480 H   0  0  0  0  0  0  0  0  0  0  0  0
   -1.1878   -1.4912    0.7793 H   0  0  0  0  0  0  0  0  0  0  0  0
   -3.6113   -1.3407    0.3894 H   0  0  0  0  0  0  0  0  0  0  0  0
   -5.0857    1.5824    3.5868 H   0  0  0  0  0  0  0  0  0  0  0  0
  1  2  1  0
  3  2  1  6
  3  4  1  0
  4  5  1  0
  5  6  1  0
  6  7  1  0
  7  8  2  0
  5  9  1  0
  9 10  2  0
 10 11  1  0
 11 12  2  0
 12 13  1  0
 13 14  1  0
 14 15  1  0
 15 16  2  0
 16 17  1  0
 17 18  2  0
 18 19  1  0
 19 20  2  0
 20 21  1  0
 21 22  2  0
 22 23  1  0
 23 24  2  0
 17 25  1  0
 25 26  2  0
 26 27  1  0
 27 28  2  0
 28 29  1  0
 29 30  2  0
 12 31  1  0
 31 32  2  0
  1 33  1  0
 33 34  1  0
 33 35  2  0
  3  1  1  0
  7  3  1  0
 32  9  1  0
 20 15  1  0
 30 25  1  0
 24 19  1  0
  1 36  1  1
  2 37  1  0
  2 38  1  0
  4 39  1  0
  4 40  1  0
  5 41  1  6
  6 42  1  0
 10 43  1  0
 11 44  1  0
 14 45  1  0
 14 46  1  0
 16 47  1  0
 21 48  1  0
 22 49  1  0
 23 50  1  0
 24 51  1  0
 26 52  1  0
 27 53  1  0
 28 54  1  0
 29 55  1  0
 30 56  1  0
 31 57  1  0
 32 58  1  0
 34 59  1  0
M  END
$$$$
