
     RDKit          3D

 64 68  0  0  0  0  0  0  0  0999 V2000
   -4.2744    1.2364   -0.4669 C   0  0  2  0  0  0  0  0  0  0  0  0
   -5.1495    1.5798   -1.6844 C   0  0  0  0  0  0  0  0  0  0  0  0
   -4.0787    2.4828    0.3770 C   0  0  0  0  0  0  0  0  0  0  0  0
   -5.1371    2.9735    1.1611 C   0  0  0  0  0  0  0  0  0  0  0  0
   -4.9674    4.1244    1.9429 C   0  0  0  0  0  0  0  0  0  0  0  0
   -6.0140    4.6151    2.7204 O   0  0  0  0  0  0  0  0  0  0  0  0
   -3.7370    4.7874    1.9457 C   0  0  0  0  0  0  0  0  0  0  0  0
   -2.6776    4.3050    1.1738 C   0  0  0  0  0  0  0  0  0  0  0  0
   -2.8426    3.1607    0.3874 C   0  0  0  0  0  0  0  0  0  0  0  0
   -1.7572    2.6746   -0.3449 O   0  0  0  0  0  0  0  0  0  0  0  0
   -1.8989    1.6658   -1.3433 C   0  0  1  0  0  0  0  0  0  0  0  0
   -0.5536    1.0635   -1.6886 C   0  0  0  0  0  0  0  0  0  0  0  0
    0.4471    0.9202   -0.7113 C   0  0  0  0  0  0  0  0  0  0  0  0
    1.6403    0.2588   -1.0103 C   0  0  0  0  0  0  0  0  0  0  0  0
    1.8528   -0.2784   -2.2939 C   0  0  0  0  0  0  0  0  0  0  0  0
    3.0220   -0.9748   -2.6414 O   0  0  0  0  0  0  0  0  0  0  0  0
    4.0415   -1.3863   -1.7304 C   0  0  0  0  0  0  0  0  0  0  0  0
    3.5556   -2.5857   -0.8881 C   0  0  0  0  0  0  0  0  0  0  0  0
    4.4981   -3.0171    0.1710 N   0  0  0  0  0  0  0  0  0  0  0  0
    4.7226   -2.0012    1.2095 C   0  0  0  0  0  0  0  0  0  0  0  0
    6.1505   -1.4833    1.0751 C   0  0  0  0  0  0  0  0  0  0  0  0
    6.7923   -2.2952   -0.0339 C   0  0  0  0  0  0  0  0  0  0  0  0
    5.8162   -3.4201   -0.3332 C   0  0  0  0  0  0  0  0  0  0  0  0
    0.8627   -0.1209   -3.2699 C   0  0  0  0  0  0  0  0  0  0  0  0
   -0.3347    0.5341   -2.9699 C   0  0  0  0  0  0  0  0  0  0  0  0
   -2.9260    0.5861   -0.9078 C   0  0  1  0  0  0  0  0  0  0  0  0
   -2.3613   -0.3795    0.1355 C   0  0  0  0  0  0  0  0  0  0  0  0
   -1.8850   -1.6383   -0.2825 C   0  0  0  0  0  0  0  0  0  0  0  0
   -1.2876   -2.5145    0.6270 C   0  0  0  0  0  0  0  0  0  0  0  0
   -1.1531   -2.1489    1.9708 C   0  0  0  0  0  0  0  0  0  0  0  0
   -0.5547   -3.0121    2.8859 O   0  0  0  0  0  0  0  0  0  0  0  0
   -1.6199   -0.9042    2.3989 C   0  0  0  0  0  0  0  0  0  0  0  0
   -2.2145   -0.0226    1.4915 C   0  0  0  0  0  0  0  0  0  0  0  0
   -4.8398    0.4883    0.1337 H   0  0  0  0  0  0  0  0  0  0  0  0
   -4.6631    2.3498   -2.3195 H   0  0  0  0  0  0  0  0  0  0  0  0
   -5.3357    0.6718   -2.2965 H   0  0  0  0  0  0  0  0  0  0  0  0
   -6.1361    1.9687   -1.3539 H   0  0  0  0  0  0  0  0  0  0  0  0
   -6.0909    2.4603    1.1656 H   0  0  0  0  0  0  0  0  0  0  0  0
   -6.9181    4.1578    2.7410 H   0  0  0  0  0  0  0  0  0  0  0  0
   -3.6006    5.6749    2.5504 H   0  0  0  0  0  0  0  0  0  0  0  0
   -1.7247    4.8185    1.1891 H   0  0  0  0  0  0  0  0  0  0  0  0
   -2.2923    2.1668   -2.2552 H   0  0  0  0  0  0  0  0  0  0  0  0
    0.2951    1.2960    0.2926 H   0  0  0  0  0  0  0  0  0  0  0  0
    2.3811    0.1625   -0.2306 H   0  0  0  0  0  0  0  0  0  0  0  0
    4.9191   -1.6942   -2.3336 H   0  0  0  0  0  0  0  0  0  0  0  0
    4.3607   -0.5300   -1.1026 H   0  0  0  0  0  0  0  0  0  0  0  0
    3.3609   -3.4424   -1.5695 H   0  0  0  0  0  0  0  0  0  0  0  0
    2.5784   -2.3429   -0.4184 H   0  0  0  0  0  0  0  0  0  0  0  0
    3.9906   -1.1648    1.1620 H   0  0  0  0  0  0  0  0  0  0  0  0
    4.5986   -2.4840    2.2029 H   0  0  0  0  0  0  0  0  0  0  0  0
    6.7040   -1.6262    2.0293 H   0  0  0  0  0  0  0  0  0  0  0  0
    6.1532   -0.4017    0.8168 H   0  0  0  0  0  0  0  0  0  0  0  0
    6.9315   -1.6619   -0.9368 H   0  0  0  0  0  0  0  0  0  0  0  0
    7.7809   -2.6967    0.2791 H   0  0  0  0  0  0  0  0  0  0  0  0
    5.8076   -3.6749   -1.4162 H   0  0  0  0  0  0  0  0  0  0  0  0
    6.1344   -4.3321    0.2172 H   0  0  0  0  0  0  0  0  0  0  0  0
    1.0130   -0.5295   -4.2612 H   0  0  0  0  0  0  0  0  0  0  0  0
   -1.1000    0.6121   -3.7323 H   0  0  0  0  0  0  0  0  0  0  0  0
   -3.1430   -0.0191   -1.8175 H   0  0  0  0  0  0  0  0  0  0  0  0
   -1.9572   -1.9370   -1.3209 H   0  0  0  0  0  0  0  0  0  0  0  0
   -0.9222   -3.4741    0.2839 H   0  0  0  0  0  0  0  0  0  0  0  0
   -0.2031   -3.9201    2.6053 H   0  0  0  0  0  0  0  0  0  0  0  0
   -1.5139   -0.6149    3.4367 H   0  0  0  0  0  0  0  0  0  0  0  0
   -2.5450    0.9344    1.8603 H   0  0  0  0  0  0  0  0  0  0  0  0
  1  2  1  0
  1  3  1  0
  3  4  2  0
  4  5  1  0
  5  6  1  0
  5  7  2  0
  7  8  1  0
  8  9  2  0
  9 10  1  0
 10 11  1  0
 11 12  1  0
 12 13  2  0
 13 14  1  0
 14 15  2  0
 15 16  1  0
 16 17  1  0
 17 18  1  0
 18 19  1  0
 19 20  1  0
 20 21  1  0
 21 22  1  0
 22 23  1  0
 15 24  1  0
 24 25  2  0
 11 26  1  0
 26 27  1  0
 27 28  2  0
 28 29  1  0
 29 30  2  0
 30 31  1  0
 30 32  1  0
 32 33  2  0
 26  1  1  0
 33 27  1  0
  9  3  1  0
 25 12  1  0
 23 19  1  0
  1 34  1  1
  2 35  1  0
  2 36  1  0
  2 37  1  0
  4 38  1  0
  6 39  1  0
  7 40  1  0
  8 41  1  0
 11 42  1  6
 13 43  1  0
 14 44  1  0
 17 45  1  0
 17 46  1  0
 18 47  1  0
 18 48  1  0
 20 49  1  0
 20 50  1  0
 21 51  1  0
 21 52  1  0
 22 53  1  0
 22 54  1  0
 23 55  1  0
 23 56  1  0
 24 57  1  0
 25 58  1  0
 26 59  1  6
 28 60  1  0
 29 61  1  0
 31 62  1  0
 32 63  1  0
 33 64  1  0
M  END
$$$$
