
     RDKit          3D

 65 67  0  0  0  0  0  0  0  0999 V2000
   -1.0611   -2.0827   -0.4992 C   0  0  1  0  0  0  0  0  0  0  0  0
   -2.1822   -1.0120   -0.6409 C   0  0  2  0  0  0  0  0  0  0  0  0
   -2.3656   -0.6236   -2.1045 C   0  0  0  0  0  0  0  0  0  0  0  0
   -2.8676   -1.8500   -2.8911 C   0  0  1  0  0  0  0  0  0  0  0  0
   -2.8346   -1.5668   -4.3957 C   0  0  0  0  0  0  0  0  0  0  0  0
   -2.0691   -3.0968   -2.5730 C   0  0  0  0  0  0  0  0  0  0  0  0
   -1.2906   -3.2205   -1.4804 C   0  0  0  0  0  0  0  0  0  0  0  0
   -0.3626   -4.3602   -1.4037 C   0  0  0  0  0  0  0  0  0  0  0  0
    0.8676   -4.1971   -0.9043 C   0  0  0  0  0  0  0  0  0  0  0  0
    1.3546   -2.8888   -0.3044 C   0  0  2  0  0  0  0  0  0  0  0  0
    1.5269   -3.0877    1.2137 C   0  0  0  0  0  0  0  0  0  0  0  0
    0.4376   -1.6676   -0.6910 C   0  0  2  0  0  0  0  0  0  0  0  0
    0.8507   -0.3444    0.0034 C   0  0  0  0  0  0  0  0  0  0  0  0
    2.3240    0.0391   -0.2383 C   0  0  0  0  0  0  0  0  0  0  0  0
    2.6572    1.4078    0.3740 C   0  0  2  0  0  0  0  0  0  0  0  0
    4.0685    1.8638   -0.0358 C   0  0  0  0  0  0  0  0  0  0  0  0
    4.4365    3.1725    0.6837 C   0  0  1  0  0  0  0  0  0  0  0  0
    3.5436    4.1984    0.3307 O   0  0  0  0  0  0  0  0  0  0  0  0
    4.4165    2.9770    2.2057 C   0  0  0  0  0  0  0  0  0  0  0  0
    3.2029    2.2162    2.6601 C   0  0  0  0  0  0  0  0  0  0  0  0
    2.8388    2.2887    3.8629 O   0  0  0  0  0  0  0  0  0  0  0  0
    2.5423    1.3367    1.7969 O   0  0  0  0  0  0  0  0  0  0  0  0
   -1.9784    0.1489    0.1623 O   0  0  0  0  0  0  0  0  0  0  0  0
   -2.1932    0.1818    1.5465 C   0  0  0  0  0  0  0  0  0  0  0  0
   -2.4922   -0.8711    2.1734 O   0  0  0  0  0  0  0  0  0  0  0  0
   -2.1430    1.4930    2.2854 C   0  0  1  0  0  0  0  0  0  0  0  0
   -1.0053    2.3870    1.7747 C   0  0  0  0  0  0  0  0  0  0  0  0
   -3.5123    2.2073    2.2612 C   0  0  0  0  0  0  0  0  0  0  0  0
   -4.0027    2.5905    0.8615 C   0  0  0  0  0  0  0  0  0  0  0  0
   -1.1778   -2.4974    0.5231 H   0  0  0  0  0  0  0  0  0  0  0  0
   -3.1407   -1.4770   -0.3096 H   0  0  0  0  0  0  0  0  0  0  0  0
   -1.4039   -0.2500   -2.5203 H   0  0  0  0  0  0  0  0  0  0  0  0
   -3.1155    0.1943   -2.1800 H   0  0  0  0  0  0  0  0  0  0  0  0
   -3.9241   -2.0460   -2.6033 H   0  0  0  0  0  0  0  0  0  0  0  0
   -3.4357   -0.6617   -4.6278 H   0  0  0  0  0  0  0  0  0  0  0  0
   -3.2680   -2.4222   -4.9569 H   0  0  0  0  0  0  0  0  0  0  0  0
   -1.7904   -1.4035   -4.7399 H   0  0  0  0  0  0  0  0  0  0  0  0
   -2.1371   -3.9273   -3.2678 H   0  0  0  0  0  0  0  0  0  0  0  0
   -0.6315   -5.3101   -1.8503 H   0  0  0  0  0  0  0  0  0  0  0  0
    1.5393   -5.0470   -0.8957 H   0  0  0  0  0  0  0  0  0  0  0  0
    2.3632   -2.7115   -0.7353 H   0  0  0  0  0  0  0  0  0  0  0  0
    0.5582   -3.3023    1.7090 H   0  0  0  0  0  0  0  0  0  0  0  0
    1.9850   -2.2006    1.6935 H   0  0  0  0  0  0  0  0  0  0  0  0
    2.2073   -3.9450    1.4057 H   0  0  0  0  0  0  0  0  0  0  0  0
    0.5914   -1.4871   -1.7807 H   0  0  0  0  0  0  0  0  0  0  0  0
    0.2552    0.4800   -0.4364 H   0  0  0  0  0  0  0  0  0  0  0  0
    0.6355   -0.3978    1.0913 H   0  0  0  0  0  0  0  0  0  0  0  0
    2.5103    0.0720   -1.3346 H   0  0  0  0  0  0  0  0  0  0  0  0
    3.0059   -0.7145    0.2060 H   0  0  0  0  0  0  0  0  0  0  0  0
    1.9267    2.1580   -0.0029 H   0  0  0  0  0  0  0  0  0  0  0  0
    4.8125    1.0794    0.2274 H   0  0  0  0  0  0  0  0  0  0  0  0
    4.1093    2.0214   -1.1358 H   0  0  0  0  0  0  0  0  0  0  0  0
    5.4708    3.4667    0.3893 H   0  0  0  0  0  0  0  0  0  0  0  0
    3.7666    4.4645   -0.5995 H   0  0  0  0  0  0  0  0  0  0  0  0
    4.4550    3.9662    2.7118 H   0  0  0  0  0  0  0  0  0  0  0  0
    5.3180    2.4029    2.5105 H   0  0  0  0  0  0  0  0  0  0  0  0
   -1.9153    1.2704    3.3521 H   0  0  0  0  0  0  0  0  0  0  0  0
   -1.0904    2.5753    0.6840 H   0  0  0  0  0  0  0  0  0  0  0  0
   -1.0118    3.3606    2.3093 H   0  0  0  0  0  0  0  0  0  0  0  0
   -0.0306    1.8970    1.9713 H   0  0  0  0  0  0  0  0  0  0  0  0
   -4.2725    1.5464    2.7325 H   0  0  0  0  0  0  0  0  0  0  0  0
   -3.4538    3.1283    2.8813 H   0  0  0  0  0  0  0  0  0  0  0  0
   -3.3021    3.3001    0.3758 H   0  0  0  0  0  0  0  0  0  0  0  0
   -4.9917    3.0883    0.9450 H   0  0  0  0  0  0  0  0  0  0  0  0
   -4.1247    1.6905    0.2240 H   0  0  0  0  0  0  0  0  0  0  0  0
  1  2  1  0
  2  3  1  0
  3  4  1  0
  4  5  1  0
  4  6  1  0
  6  7  2  0
  7  8  1  0
  8  9  2  0
  9 10  1  0
 10 11  1  0
 10 12  1  0
 12 13  1  0
 13 14  1  0
 14 15  1  0
 15 16  1  0
 16 17  1  0
 17 18  1  0
 17 19  1  0
 19 20  1  0
 20 21  2  0
 20 22  1  0
  2 23  1  0
 23 24  1  0
 24 25  2  0
 24 26  1  0
 26 27  1  0
 26 28  1  0
 28 29  1  0
  7  1  1  0
 22 15  1  0
 12  1  1  0
  1 30  1  1
  2 31  1  1
  3 32  1  0
  3 33  1  0
  4 34  1  1
  5 35  1  0
  5 36  1  0
  5 37  1  0
  6 38  1  0
  8 39  1  0
  9 40  1  0
 10 41  1  6
 11 42  1  0
 11 43  1  0
 11 44  1  0
 12 45  1  6
 13 46  1  0
 13 47  1  0
 14 48  1  0
 14 49  1  0
 15 50  1  6
 16 51  1  0
 16 52  1  0
 17 53  1  6
 18 54  1  0
 19 55  1  0
 19 56  1  0
 26 57  1  1
 27 58  1  0
 27 59  1  0
 27 60  1  0
 28 61  1  0
 28 62  1  0
 29 63  1  0
 29 64  1  0
 29 65  1  0
M  END
$$$$
