
     RDKit          3D

 68 72  0  0  0  0  0  0  0  0999 V2000
   -4.9020    4.9399    0.8952 C   0  0  0  0  0  0  0  0  0  0  0  0
   -3.5022    4.9771    0.6375 O   0  0  0  0  0  0  0  0  0  0  0  0
   -2.6910    3.8403    0.5056 C   0  0  0  0  0  0  0  0  0  0  0  0
   -3.1959    2.5349    0.6251 C   0  0  0  0  0  0  0  0  0  0  0  0
   -2.3479    1.4342    0.4821 C   0  0  0  0  0  0  0  0  0  0  0  0
   -0.9766    1.6038    0.1997 C   0  0  0  0  0  0  0  0  0  0  0  0
   -0.4802    2.9214    0.1034 C   0  0  0  0  0  0  0  0  0  0  0  0
   -1.3301    4.0206    0.2490 C   0  0  0  0  0  0  0  0  0  0  0  0
   -0.0325    0.3935    0.0391 C   0  0  1  0  0  0  0  0  0  0  0  0
    1.2409    0.8400   -0.4483 O   0  0  0  0  0  0  0  0  0  0  0  0
    2.2377    0.6013    0.4717 C   0  0  0  0  0  0  0  0  0  0  0  0
    1.7612   -0.0429    1.5750 C   0  0  0  0  0  0  0  0  0  0  0  0
    2.6028   -0.3881    2.6372 C   0  0  0  0  0  0  0  0  0  0  0  0
    2.0675   -1.0617    3.7447 O   0  0  0  0  0  0  0  0  0  0  0  0
    2.8275   -1.4737    4.8753 C   0  0  0  0  0  0  0  0  0  0  0  0
    3.9698   -0.0403    2.5370 C   0  0  0  0  0  0  0  0  0  0  0  0
    4.4631    0.6273    1.3964 C   0  0  0  0  0  0  0  0  0  0  0  0
    5.8284    0.9453    1.3508 O   0  0  0  0  0  0  0  0  0  0  0  0
    6.4602    1.6153    0.2649 C   0  0  0  0  0  0  0  0  0  0  0  0
    3.5779    0.9523    0.3438 C   0  0  0  0  0  0  0  0  0  0  0  0
    0.2969   -0.3165    1.4078 C   0  0  1  0  0  0  0  0  0  0  0  0
   -0.3941    0.2408    2.5038 O   0  0  0  0  0  0  0  0  0  0  0  0
   -0.0326   -1.8276    1.2157 C   0  0  2  0  0  0  0  0  0  0  0  0
    1.1205   -2.6089    0.9918 O   0  0  0  0  0  0  0  0  0  0  0  0
   -1.0067   -1.8734    0.0257 C   0  0  1  0  0  0  0  0  0  0  0  0
   -0.5535   -0.7319   -0.9079 C   0  0  1  0  0  0  0  0  0  0  0  0
   -1.5437   -0.2588   -1.9720 C   0  0  0  0  0  0  0  0  0  0  0  0
   -1.0993    0.6766   -2.9259 C   0  0  0  0  0  0  0  0  0  0  0  0
   -1.9616    1.1510   -3.9174 C   0  0  0  0  0  0  0  0  0  0  0  0
   -3.2774    0.6910   -3.9788 C   0  0  0  0  0  0  0  0  0  0  0  0
   -3.7311   -0.2482   -3.0516 C   0  0  0  0  0  0  0  0  0  0  0  0
   -2.8737   -0.7262   -2.0562 C   0  0  0  0  0  0  0  0  0  0  0  0
   -1.1143   -3.2428   -0.6213 C   0  0  0  0  0  0  0  0  0  0  0  0
   -2.0826   -3.9874   -0.3096 O   0  0  0  0  0  0  0  0  0  0  0  0
   -0.1049   -3.7485   -1.5093 N   0  0  0  0  0  0  0  0  0  0  0  0
    0.6383   -4.9408   -1.1028 C   0  0  0  0  0  0  0  0  0  0  0  0
   -0.2417   -3.5081   -2.9453 C   0  0  0  0  0  0  0  0  0  0  0  0
   -5.0983    4.4383    1.8664 H   0  0  0  0  0  0  0  0  0  0  0  0
   -5.4270    4.4051    0.0756 H   0  0  0  0  0  0  0  0  0  0  0  0
   -5.2889    5.9781    0.9471 H   0  0  0  0  0  0  0  0  0  0  0  0
   -4.2426    2.3585    0.8314 H   0  0  0  0  0  0  0  0  0  0  0  0
   -2.7747    0.4507    0.5918 H   0  0  0  0  0  0  0  0  0  0  0  0
    0.5668    3.1149   -0.0864 H   0  0  0  0  0  0  0  0  0  0  0  0
   -0.9267    5.0217    0.1626 H   0  0  0  0  0  0  0  0  0  0  0  0
    3.2796   -0.5903    5.3736 H   0  0  0  0  0  0  0  0  0  0  0  0
    2.1567   -1.9842    5.5962 H   0  0  0  0  0  0  0  0  0  0  0  0
    3.6213   -2.1845    4.5627 H   0  0  0  0  0  0  0  0  0  0  0  0
    4.6596   -0.2845    3.3335 H   0  0  0  0  0  0  0  0  0  0  0  0
    6.0105    2.6208    0.1231 H   0  0  0  0  0  0  0  0  0  0  0  0
    6.3580    1.0163   -0.6647 H   0  0  0  0  0  0  0  0  0  0  0  0
    7.5390    1.7373    0.4923 H   0  0  0  0  0  0  0  0  0  0  0  0
    3.9124    1.4631   -0.5486 H   0  0  0  0  0  0  0  0  0  0  0  0
   -1.3317   -0.0816    2.4773 H   0  0  0  0  0  0  0  0  0  0  0  0
   -0.5350   -2.2347    2.1209 H   0  0  0  0  0  0  0  0  0  0  0  0
    1.5564   -2.2920    0.1587 H   0  0  0  0  0  0  0  0  0  0  0  0
   -2.0027   -1.6240    0.4456 H   0  0  0  0  0  0  0  0  0  0  0  0
    0.3268   -1.1165   -1.4704 H   0  0  0  0  0  0  0  0  0  0  0  0
   -0.0814    1.0451   -2.8966 H   0  0  0  0  0  0  0  0  0  0  0  0
   -1.6084    1.8758   -4.6394 H   0  0  0  0  0  0  0  0  0  0  0  0
   -3.9444    1.0590   -4.7476 H   0  0  0  0  0  0  0  0  0  0  0  0
   -4.7503   -0.6088   -3.1049 H   0  0  0  0  0  0  0  0  0  0  0  0
   -3.2650   -1.4575   -1.3658 H   0  0  0  0  0  0  0  0  0  0  0  0
    0.7609   -4.9745    0.0002 H   0  0  0  0  0  0  0  0  0  0  0  0
    1.6477   -4.9342   -1.5659 H   0  0  0  0  0  0  0  0  0  0  0  0
    0.0929   -5.8526   -1.4264 H   0  0  0  0  0  0  0  0  0  0  0  0
   -0.7586   -2.5505   -3.1471 H   0  0  0  0  0  0  0  0  0  0  0  0
   -0.8320   -4.3271   -3.4079 H   0  0  0  0  0  0  0  0  0  0  0  0
    0.7618   -3.4682   -3.4191 H   0  0  0  0  0  0  0  0  0  0  0  0
  1  2  1  0
  2  3  1  0
  3  4  2  0
  4  5  1  0
  5  6  2  0
  6  7  1  0
  7  8  2  0
  9  6  1  1
  9 10  1  0
 10 11  1  0
 11 12  2  0
 12 13  1  0
 13 14  1  0
 14 15  1  0
 13 16  2  0
 16 17  1  0
 17 18  1  0
 18 19  1  0
 17 20  2  0
 12 21  1  0
 21 22  1  1
 21 23  1  0
 23 24  1  0
 23 25  1  0
 25 26  1  0
 26 27  1  0
 27 28  2  0
 28 29  1  0
 29 30  2  0
 30 31  1  0
 31 32  2  0
 25 33  1  0
 33 34  2  0
 33 35  1  0
 35 36  1  0
 35 37  1  0
  8  3  1  0
 21  9  1  0
 32 27  1  0
 26  9  1  0
 20 11  1  0
  1 38  1  0
  1 39  1  0
  1 40  1  0
  4 41  1  0
  5 42  1  0
  7 43  1  0
  8 44  1  0
 15 45  1  0
 15 46  1  0
 15 47  1  0
 16 48  1  0
 19 49  1  0
 19 50  1  0
 19 51  1  0
 20 52  1  0
 22 53  1  0
 23 54  1  1
 24 55  1  0
 25 56  1  1
 26 57  1  6
 28 58  1  0
 29 59  1  0
 30 60  1  0
 31 61  1  0
 32 62  1  0
 36 63  1  0
 36 64  1  0
 36 65  1  0
 37 66  1  0
 37 67  1  0
 37 68  1  0
M  END
$$$$
