
     RDKit          3D

 16 17  0  0  0  0  0  0  0  0999 V2000
   -3.1039   -0.0903   -0.0812 N   0  0  0  0  0  0  0  0  0  0  0  0
   -1.6919    0.0674    0.0541 C   0  0  0  0  0  0  0  0  0  0  0  0
   -1.1936    1.0457    0.8795 N   0  0  0  0  0  0  0  0  0  0  0  0
    0.1505    1.2271    1.0346 C   0  0  0  0  0  0  0  0  0  0  0  0
    0.5949    2.1272    1.7942 O   0  0  0  0  0  0  0  0  0  0  0  0
    1.0005    0.3883    0.3289 C   0  0  0  0  0  0  0  0  0  0  0  0
    0.4968   -0.5700   -0.4797 C   0  0  0  0  0  0  0  0  0  0  0  0
   -0.8374   -0.7535   -0.6365 N   0  0  0  0  0  0  0  0  0  0  0  0
    1.4820   -1.2700   -1.0681 N   0  0  0  0  0  0  0  0  0  0  0  0
    2.5993   -0.6758   -0.5654 C   0  0  0  0  0  0  0  0  0  0  0  0
    2.3368    0.3426    0.2926 N   0  0  0  0  0  0  0  0  0  0  0  0
   -3.7564    0.5335    0.4436 H   0  0  0  0  0  0  0  0  0  0  0  0
   -3.5004   -0.8284   -0.7041 H   0  0  0  0  0  0  0  0  0  0  0  0
   -1.1994   -1.5025   -1.2685 H   0  0  0  0  0  0  0  0  0  0  0  0
    3.6022   -0.9871   -0.8262 H   0  0  0  0  0  0  0  0  0  0  0  0
    3.0201    0.9457    0.8022 H   0  0  0  0  0  0  0  0  0  0  0  0
  1  2  1  0
  2  3  2  0
  3  4  1  0
  4  5  2  0
  4  6  1  0
  6  7  2  0
  7  8  1  0
  7  9  1  0
  9 10  2  0
 10 11  1  0
  8  2  1  0
 11  6  1  0
  1 12  1  0
  1 13  1  0
  8 14  1  0
 10 15  1  0
 11 16  1  0
M  END
$$$$
