
     RDKit          3D

 61 63  0  0  0  0  0  0  0  0999 V2000
   -5.3508    3.2556   -1.6706 C   0  0  0  0  0  0  0  0  0  0  0  0
   -4.6585    2.0712   -1.0032 C   0  0  0  0  0  0  0  0  0  0  0  0
   -3.1816    1.9886   -1.4172 C   0  0  0  0  0  0  0  0  0  0  0  0
   -2.4735    0.7674   -0.8060 C   0  0  0  0  0  0  0  0  0  0  0  0
   -2.1959    0.8887    0.6753 C   0  0  0  0  0  0  0  0  0  0  0  0
   -2.4339    1.9758    1.2701 O   0  0  0  0  0  0  0  0  0  0  0  0
   -1.5524   -0.1774    1.4066 N   0  0  0  0  0  0  0  0  0  0  0  0
   -0.3385    0.1515    2.1684 C   0  0  0  0  0  0  0  0  0  0  0  0
    0.8769   -0.0979    1.3201 C   0  0  0  0  0  0  0  0  0  0  0  0
    1.5794   -1.3087    1.4232 C   0  0  0  0  0  0  0  0  0  0  0  0
    2.6693   -1.5647    0.5868 C   0  0  0  0  0  0  0  0  0  0  0  0
    3.0720   -0.6129   -0.3624 C   0  0  0  0  0  0  0  0  0  0  0  0
    2.3560    0.5889   -0.4800 C   0  0  0  0  0  0  0  0  0  0  0  0
    1.2670    0.8450    0.3569 C   0  0  0  0  0  0  0  0  0  0  0  0
    4.2081   -0.8968   -1.2666 C   0  0  0  0  0  0  0  0  0  0  0  0
    4.1030   -1.9991   -2.1328 C   0  0  0  0  0  0  0  0  0  0  0  0
    5.1032   -2.2674   -3.0673 C   0  0  0  0  0  0  0  0  0  0  0  0
    6.2195   -1.4380   -3.1524 C   0  0  0  0  0  0  0  0  0  0  0  0
    6.3487   -0.3464   -2.2921 C   0  0  0  0  0  0  0  0  0  0  0  0
    5.3605   -0.0667   -1.3295 C   0  0  0  0  0  0  0  0  0  0  0  0
    5.5899    1.0588   -0.3895 C   0  0  0  0  0  0  0  0  0  0  0  0
    6.4306    2.0848   -0.6298 N   0  0  0  0  0  0  0  0  0  0  0  0
    6.3641    2.8207    0.4655 N   0  0  0  0  0  0  0  0  0  0  0  0
    5.5380    2.2806    1.3436 N   0  0  0  0  0  0  0  0  0  0  0  0
    5.0376    1.1659    0.8369 N   0  0  0  0  0  0  0  0  0  0  0  0
   -2.0370   -1.5788    1.4065 C   0  0  1  0  0  0  0  0  0  0  0  0
   -3.4347   -1.7375    2.0824 C   0  0  0  0  0  0  0  0  0  0  0  0
   -3.4077   -1.2164    3.5265 C   0  0  0  0  0  0  0  0  0  0  0  0
   -4.6032   -1.0973    1.3146 C   0  0  0  0  0  0  0  0  0  0  0  0
   -1.9168   -2.2199    0.0453 C   0  0  0  0  0  0  0  0  0  0  0  0
   -0.8245   -1.9184   -0.7631 O   0  0  0  0  0  0  0  0  0  0  0  0
   -2.7407   -3.0972   -0.3302 O   0  0  0  0  0  0  0  0  0  0  0  0
   -4.8588    4.2065   -1.3743 H   0  0  0  0  0  0  0  0  0  0  0  0
   -6.4142    3.2919   -1.3531 H   0  0  0  0  0  0  0  0  0  0  0  0
   -5.3139    3.1519   -2.7760 H   0  0  0  0  0  0  0  0  0  0  0  0
   -5.1837    1.1365   -1.2977 H   0  0  0  0  0  0  0  0  0  0  0  0
   -4.7433    2.1871    0.0977 H   0  0  0  0  0  0  0  0  0  0  0  0
   -3.1277    1.8985   -2.5245 H   0  0  0  0  0  0  0  0  0  0  0  0
   -2.6473    2.9219   -1.1334 H   0  0  0  0  0  0  0  0  0  0  0  0
   -3.0822   -0.1330   -1.0159 H   0  0  0  0  0  0  0  0  0  0  0  0
   -1.4979    0.6422   -1.3219 H   0  0  0  0  0  0  0  0  0  0  0  0
   -0.2937   -0.4493    3.1032 H   0  0  0  0  0  0  0  0  0  0  0  0
   -0.3521    1.2135    2.4980 H   0  0  0  0  0  0  0  0  0  0  0  0
    1.2776   -2.0586    2.1436 H   0  0  0  0  0  0  0  0  0  0  0  0
    3.2005   -2.5041    0.6793 H   0  0  0  0  0  0  0  0  0  0  0  0
    2.6385    1.3236   -1.2241 H   0  0  0  0  0  0  0  0  0  0  0  0
    0.7200    1.7732    0.2465 H   0  0  0  0  0  0  0  0  0  0  0  0
    3.2301   -2.6403   -2.0998 H   0  0  0  0  0  0  0  0  0  0  0  0
    5.0072   -3.1146   -3.7341 H   0  0  0  0  0  0  0  0  0  0  0  0
    6.9920   -1.6459   -3.8815 H   0  0  0  0  0  0  0  0  0  0  0  0
    7.2377    0.2679   -2.3653 H   0  0  0  0  0  0  0  0  0  0  0  0
    6.8958    3.7056    0.6182 H   0  0  0  0  0  0  0  0  0  0  0  0
   -1.3472   -2.1874    2.0330 H   0  0  0  0  0  0  0  0  0  0  0  0
   -3.6493   -2.8283    2.1432 H   0  0  0  0  0  0  0  0  0  0  0  0
   -4.3744   -1.4320    4.0299 H   0  0  0  0  0  0  0  0  0  0  0  0
   -3.2340   -0.1193    3.5473 H   0  0  0  0  0  0  0  0  0  0  0  0
   -2.6010   -1.7179    4.1024 H   0  0  0  0  0  0  0  0  0  0  0  0
   -4.6137   -1.4170    0.2538 H   0  0  0  0  0  0  0  0  0  0  0  0
   -5.5648   -1.4215    1.7665 H   0  0  0  0  0  0  0  0  0  0  0  0
   -4.5680    0.0084    1.3687 H   0  0  0  0  0  0  0  0  0  0  0  0
   -0.7061   -2.3619   -1.6659 H   0  0  0  0  0  0  0  0  0  0  0  0
  1  2  1  0
  2  3  1  0
  3  4  1  0
  4  5  1  0
  5  6  2  0
  5  7  1  0
  7  8  1  0
  8  9  1  0
  9 10  2  0
 10 11  1  0
 11 12  2  0
 12 13  1  0
 13 14  2  0
 12 15  1  0
 15 16  2  0
 16 17  1  0
 17 18  2  0
 18 19  1  0
 19 20  2  0
 20 21  1  0
 21 22  2  0
 22 23  1  0
 23 24  1  0
 24 25  2  0
  7 26  1  0
 26 27  1  0
 27 28  1  0
 27 29  1  0
 26 30  1  0
 30 31  1  0
 30 32  2  0
 14  9  1  0
 20 15  1  0
 25 21  1  0
  1 33  1  0
  1 34  1  0
  1 35  1  0
  2 36  1  0
  2 37  1  0
  3 38  1  0
  3 39  1  0
  4 40  1  0
  4 41  1  0
  8 42  1  0
  8 43  1  0
 10 44  1  0
 11 45  1  0
 13 46  1  0
 14 47  1  0
 16 48  1  0
 17 49  1  0
 18 50  1  0
 19 51  1  0
 23 52  1  0
 26 53  1  1
 27 54  1  0
 28 55  1  0
 28 56  1  0
 28 57  1  0
 29 58  1  0
 29 59  1  0
 29 60  1  0
 31 61  1  0
M  END
$$$$
