
     RDKit          3D

 17 17  0  0  0  0  0  0  0  0999 V2000
    2.4814    0.7776    0.5029 O   0  0  0  0  0  0  0  0  0  0  0  0
    1.9667   -0.4711    0.1640 C   0  0  0  0  0  0  0  0  0  0  0  0
    2.7515   -1.4308   -0.0620 O   0  0  0  0  0  0  0  0  0  0  0  0
    0.4783   -0.6791    0.0667 C   0  0  2  0  0  0  0  0  0  0  0  0
   -0.1662    0.2225   -0.9746 C   0  0  0  0  0  0  0  0  0  0  0  0
   -1.5839    0.4109   -0.4729 C   0  0  0  0  0  0  0  0  0  0  0  0
   -1.5698   -0.0577    0.9806 C   0  0  0  0  0  0  0  0  0  0  0  0
   -0.1949   -0.4108    1.3381 N   0  0  0  0  0  0  0  0  0  0  0  0
    3.4811    0.9267    0.5705 H   0  0  0  0  0  0  0  0  0  0  0  0
    0.2803   -1.7395   -0.2125 H   0  0  0  0  0  0  0  0  0  0  0  0
   -0.1482   -0.2464   -1.9828 H   0  0  0  0  0  0  0  0  0  0  0  0
    0.3419    1.2118   -1.0189 H   0  0  0  0  0  0  0  0  0  0  0  0
   -1.8868    1.4786   -0.5435 H   0  0  0  0  0  0  0  0  0  0  0  0
   -2.2904   -0.2079   -1.0689 H   0  0  0  0  0  0  0  0  0  0  0  0
   -2.2142   -0.9564    1.0952 H   0  0  0  0  0  0  0  0  0  0  0  0
   -1.9616    0.7372    1.6544 H   0  0  0  0  0  0  0  0  0  0  0  0
    0.2347    0.4344    1.7855 H   0  0  0  0  0  0  0  0  0  0  0  0
  1  2  1  0
  2  3  2  0
  2  4  1  0
  4  5  1  0
  5  6  1  0
  6  7  1  0
  7  8  1  0
  8  4  1  0
  1  9  1  0
  4 10  1  6
  5 11  1  0
  5 12  1  0
  6 13  1  0
  6 14  1  0
  7 15  1  0
  7 16  1  0
  8 17  1  0
M  END
$$$$
