
     RDKit          3D

 51 53  0  0  0  0  0  0  0  0999 V2000
   -1.6162   -0.7742    3.8479 C   0  0  0  0  0  0  0  0  0  0  0  0
   -1.9180   -1.3427    2.4654 C   0  0  0  0  0  0  0  0  0  0  0  0
   -1.0950   -0.6473    1.4103 C   0  0  0  0  0  0  0  0  0  0  0  0
    0.1334   -1.1032    0.9257 C   0  0  0  0  0  0  0  0  0  0  0  0
    0.8203   -2.3498    1.3128 C   0  0  0  0  0  0  0  0  0  0  0  0
    1.0627   -2.5632    2.5304 O   0  0  0  0  0  0  0  0  0  0  0  0
    1.1827   -3.3655    0.3060 C   0  0  0  0  0  0  0  0  0  0  0  0
    1.9722   -4.5003    0.6662 N   0  0  0  0  0  0  0  0  0  0  0  0
    0.7848   -3.2430   -0.8836 O   0  0  0  0  0  0  0  0  0  0  0  0
    0.5591   -0.1516    0.0109 C   0  0  0  0  0  0  0  0  0  0  0  0
    1.7402   -0.0483   -0.7384 C   0  0  0  0  0  0  0  0  0  0  0  0
    2.7343   -1.0323   -0.6158 O   0  0  0  0  0  0  0  0  0  0  0  0
    4.0071   -1.0047   -1.2593 C   0  0  0  0  0  0  0  0  0  0  0  0
    4.8802    0.0455   -0.6506 C   0  0  0  0  0  0  0  0  0  0  0  0
    5.1255    0.0136    0.5862 O   0  0  0  0  0  0  0  0  0  0  0  0
    5.4206    1.0488   -1.4598 O   0  0  0  0  0  0  0  0  0  0  0  0
    6.2384    2.0913   -0.9431 C   0  0  0  0  0  0  0  0  0  0  0  0
    1.8762    1.0766   -1.5865 C   0  0  0  0  0  0  0  0  0  0  0  0
    0.8693    2.0603   -1.6409 C   0  0  0  0  0  0  0  0  0  0  0  0
   -0.2845    1.9448   -0.8516 C   0  0  0  0  0  0  0  0  0  0  0  0
   -0.4119    0.8226   -0.0284 C   0  0  0  0  0  0  0  0  0  0  0  0
   -1.4224    0.5361    0.8224 N   0  0  0  0  0  0  0  0  0  0  0  0
   -2.6380    1.3356    1.0254 C   0  0  0  0  0  0  0  0  0  0  0  0
   -3.5544    1.2207   -0.1660 C   0  0  0  0  0  0  0  0  0  0  0  0
   -3.9692    2.3713   -0.8590 C   0  0  0  0  0  0  0  0  0  0  0  0
   -4.8219    2.2615   -1.9618 C   0  0  0  0  0  0  0  0  0  0  0  0
   -5.2716    1.0056   -2.3775 C   0  0  0  0  0  0  0  0  0  0  0  0
   -4.8711   -0.1427   -1.6897 C   0  0  0  0  0  0  0  0  0  0  0  0
   -4.0186   -0.0376   -0.5865 C   0  0  0  0  0  0  0  0  0  0  0  0
   -2.2311   -1.3003    4.6080 H   0  0  0  0  0  0  0  0  0  0  0  0
   -1.8563    0.3093    3.8851 H   0  0  0  0  0  0  0  0  0  0  0  0
   -0.5437   -0.9163    4.0985 H   0  0  0  0  0  0  0  0  0  0  0  0
   -3.0001   -1.2375    2.2464 H   0  0  0  0  0  0  0  0  0  0  0  0
   -1.6990   -2.4315    2.4634 H   0  0  0  0  0  0  0  0  0  0  0  0
    2.2178   -5.2171   -0.0522 H   0  0  0  0  0  0  0  0  0  0  0  0
    2.3239   -4.6274    1.6409 H   0  0  0  0  0  0  0  0  0  0  0  0
    4.4946   -1.9920   -1.1201 H   0  0  0  0  0  0  0  0  0  0  0  0
    3.8866   -0.8411   -2.3514 H   0  0  0  0  0  0  0  0  0  0  0  0
    6.5420    2.7617   -1.7731 H   0  0  0  0  0  0  0  0  0  0  0  0
    5.6715    2.6819   -0.1925 H   0  0  0  0  0  0  0  0  0  0  0  0
    7.1495    1.6631   -0.4741 H   0  0  0  0  0  0  0  0  0  0  0  0
    2.7543    1.2084   -2.2018 H   0  0  0  0  0  0  0  0  0  0  0  0
    0.9913    2.9184   -2.2892 H   0  0  0  0  0  0  0  0  0  0  0  0
   -1.0443    2.7133   -0.8841 H   0  0  0  0  0  0  0  0  0  0  0  0
   -3.1862    1.0117    1.9325 H   0  0  0  0  0  0  0  0  0  0  0  0
   -2.3483    2.3938    1.2045 H   0  0  0  0  0  0  0  0  0  0  0  0
   -3.6316    3.3525   -0.5494 H   0  0  0  0  0  0  0  0  0  0  0  0
   -5.1347    3.1506   -2.4937 H   0  0  0  0  0  0  0  0  0  0  0  0
   -5.9315    0.9225   -3.2313 H   0  0  0  0  0  0  0  0  0  0  0  0
   -5.2215   -1.1149   -2.0113 H   0  0  0  0  0  0  0  0  0  0  0  0
   -3.7176   -0.9372   -0.0663 H   0  0  0  0  0  0  0  0  0  0  0  0
  1  2  1  0
  2  3  1  0
  3  4  2  0
  4  5  1  0
  5  6  2  0
  5  7  1  0
  7  8  1  0
  7  9  2  0
  4 10  1  0
 10 11  2  0
 11 12  1  0
 12 13  1  0
 13 14  1  0
 14 15  2  0
 14 16  1  0
 16 17  1  0
 11 18  1  0
 18 19  2  0
 19 20  1  0
 20 21  2  0
 21 22  1  0
 22 23  1  0
 23 24  1  0
 24 25  2  0
 25 26  1  0
 26 27  2  0
 27 28  1  0
 28 29  2  0
 22  3  1  0
 29 24  1  0
 21 10  1  0
  1 30  1  0
  1 31  1  0
  1 32  1  0
  2 33  1  0
  2 34  1  0
  8 35  1  0
  8 36  1  0
 13 37  1  0
 13 38  1  0
 17 39  1  0
 17 40  1  0
 17 41  1  0
 18 42  1  0
 19 43  1  0
 20 44  1  0
 23 45  1  0
 23 46  1  0
 25 47  1  0
 26 48  1  0
 27 49  1  0
 28 50  1  0
 29 51  1  0
M  END
$$$$
