
     RDKit          3D

 29 28  0  0  0  0  0  0  0  0999 V2000
    4.7891   -0.0342    0.2848 C   0  0  0  0  0  0  0  0  0  0  0  0
    3.4410    0.2872   -0.3536 C   0  0  0  0  0  0  0  0  0  0  0  0
    2.2936    0.0777    0.6408 C   0  0  0  0  0  0  0  0  0  0  0  0
    0.9444    0.4021   -0.0044 C   0  0  0  0  0  0  0  0  0  0  0  0
   -0.4166    0.1391    1.1802 P   0  0  0  0  0  5  0  0  0  0  0  0
   -0.4630   -1.4849    1.6572 O   0  0  0  0  0  0  0  0  0  0  0  0
   -0.1854    1.0029    2.3991 O   0  0  0  0  0  0  0  0  0  0  0  0
   -2.0108    0.6088    0.4314 C   0  0  0  0  0  0  0  0  0  0  0  0
   -2.3675   -0.3109   -0.7422 C   0  0  0  0  0  0  0  0  0  0  0  0
   -3.6471    0.1352   -1.4706 C   0  0  0  0  0  0  0  0  0  0  0  0
   -4.8480   -0.0426   -0.6545 N   0  0  0  0  0  0  0  0  0  0  0  0
    4.9706    0.6285    1.1577 H   0  0  0  0  0  0  0  0  0  0  0  0
    5.5994    0.1261   -0.4573 H   0  0  0  0  0  0  0  0  0  0  0  0
    4.8160   -1.0941    0.6166 H   0  0  0  0  0  0  0  0  0  0  0  0
    3.4496    1.3442   -0.6989 H   0  0  0  0  0  0  0  0  0  0  0  0
    3.2960   -0.3711   -1.2378 H   0  0  0  0  0  0  0  0  0  0  0  0
    2.4481    0.7365    1.5235 H   0  0  0  0  0  0  0  0  0  0  0  0
    2.2927   -0.9806    0.9832 H   0  0  0  0  0  0  0  0  0  0  0  0
    0.9272    1.4622   -0.3360 H   0  0  0  0  0  0  0  0  0  0  0  0
    0.7859   -0.2525   -0.8871 H   0  0  0  0  0  0  0  0  0  0  0  0
   -0.3525   -2.0019    0.8198 H   0  0  0  0  0  0  0  0  0  0  0  0
   -2.7899    0.5405    1.2185 H   0  0  0  0  0  0  0  0  0  0  0  0
   -1.9420    1.6617    0.0844 H   0  0  0  0  0  0  0  0  0  0  0  0
   -2.4866   -1.3561   -0.3832 H   0  0  0  0  0  0  0  0  0  0  0  0
   -1.5376   -0.2980   -1.4803 H   0  0  0  0  0  0  0  0  0  0  0  0
   -3.7578   -0.4706   -2.3955 H   0  0  0  0  0  0  0  0  0  0  0  0
   -3.5604    1.1997   -1.7803 H   0  0  0  0  0  0  0  0  0  0  0  0
   -4.8543   -1.0072   -0.2500 H   0  0  0  0  0  0  0  0  0  0  0  0
   -4.8340    0.6426    0.1343 H   0  0  0  0  0  0  0  0  0  0  0  0
  1  2  1  0
  2  3  1  0
  3  4  1  0
  4  5  1  0
  5  6  1  0
  5  7  2  0
  5  8  1  0
  8  9  1  0
  9 10  1  0
 10 11  1  0
  1 12  1  0
  1 13  1  0
  1 14  1  0
  2 15  1  0
  2 16  1  0
  3 17  1  0
  3 18  1  0
  4 19  1  0
  4 20  1  0
  6 21  1  0
  8 22  1  0
  8 23  1  0
  9 24  1  0
  9 25  1  0
 10 26  1  0
 10 27  1  0
 11 28  1  0
 11 29  1  0
M  END
$$$$
