
     RDKit          3D

 42 44  0  0  0  0  0  0  0  0999 V2000
    5.3590   -1.1571   -1.8927 N   0  0  0  0  0  0  0  0  0  0  0  0
    3.9953   -1.0975   -1.4745 C   0  0  0  0  0  0  0  0  0  0  0  0
    3.0348   -1.8167   -2.1292 N   0  0  0  0  0  0  0  0  0  0  0  0
    1.7182   -1.7653   -1.7461 C   0  0  0  0  0  0  0  0  0  0  0  0
    1.3334   -0.9868   -0.6907 N   0  0  0  0  0  0  0  0  0  0  0  0
    2.2887   -0.2799   -0.0401 C   0  0  0  0  0  0  0  0  0  0  0  0
    3.5916   -0.3114   -0.4011 C   0  0  0  0  0  0  0  0  0  0  0  0
    4.3198    0.5029    0.3859 N   0  0  0  0  0  0  0  0  0  0  0  0
    3.3851    1.0172    1.2326 C   0  0  0  0  0  0  0  0  0  0  0  0
    2.1318    0.5470    1.0026 N   0  0  0  0  0  0  0  0  0  0  0  0
    0.8948    0.9626    1.6682 C   0  0  2  0  0  0  0  0  0  0  0  0
    0.0518   -0.1570    1.8462 O   0  0  0  0  0  0  0  0  0  0  0  0
   -1.2328    0.2061    1.3955 C   0  0  2  0  0  0  0  0  0  0  0  0
   -1.9580   -1.0200    0.8331 C   0  0  0  0  0  0  0  0  0  0  0  0
   -2.1106   -1.9750    1.8566 O   0  0  0  0  0  0  0  0  0  0  0  0
   -2.8426   -3.3642    1.1912 P   0  0  0  0  0  5  0  0  0  0  0  0
   -3.1805   -4.4564    2.4378 O   0  0  0  0  0  0  0  0  0  0  0  0
   -4.2870   -2.9508    0.4094 O   0  0  0  0  0  0  0  0  0  0  0  0
   -1.9016   -4.0193    0.2047 O   0  0  0  0  0  0  0  0  0  0  0  0
   -1.0784    1.3044    0.3510 C   0  0  1  0  0  0  0  0  0  0  0  0
   -2.2228    2.1371    0.3485 O   0  0  0  0  0  0  0  0  0  0  0  0
   -2.4191    2.8300   -1.1987 P   0  0  0  0  0  5  0  0  0  0  0  0
   -2.7371    1.6127   -2.3313 O   0  0  0  0  0  0  0  0  0  0  0  0
   -1.0213    3.6719   -1.6505 O   0  0  0  0  0  0  0  0  0  0  0  0
   -3.5873    3.7888   -1.1630 O   0  0  0  0  0  0  0  0  0  0  0  0
    0.1641    2.0260    0.8347 C   0  0  1  0  0  0  0  0  0  0  0  0
   -0.1432    3.1629    1.6092 O   0  0  0  0  0  0  0  0  0  0  0  0
    5.6331   -1.7545   -2.7039 H   0  0  0  0  0  0  0  0  0  0  0  0
    6.0977   -0.6094   -1.3979 H   0  0  0  0  0  0  0  0  0  0  0  0
    0.9793   -2.3433   -2.2836 H   0  0  0  0  0  0  0  0  0  0  0  0
    3.6204    1.7401    2.0030 H   0  0  0  0  0  0  0  0  0  0  0  0
    1.1497    1.3667    2.6736 H   0  0  0  0  0  0  0  0  0  0  0  0
   -1.8136    0.5922    2.2650 H   0  0  0  0  0  0  0  0  0  0  0  0
   -2.9540   -0.6938    0.4565 H   0  0  0  0  0  0  0  0  0  0  0  0
   -1.3582   -1.4340   -0.0097 H   0  0  0  0  0  0  0  0  0  0  0  0
   -3.7929   -3.9657    3.0420 H   0  0  0  0  0  0  0  0  0  0  0  0
   -4.6742   -3.8153    0.1204 H   0  0  0  0  0  0  0  0  0  0  0  0
   -0.8647    0.8288   -0.6377 H   0  0  0  0  0  0  0  0  0  0  0  0
   -2.7380    2.0761   -3.2065 H   0  0  0  0  0  0  0  0  0  0  0  0
   -0.9170    4.3769   -0.9627 H   0  0  0  0  0  0  0  0  0  0  0  0
    0.7753    2.3524   -0.0356 H   0  0  0  0  0  0  0  0  0  0  0  0
   -0.6890    2.8706    2.3861 H   0  0  0  0  0  0  0  0  0  0  0  0
  1  2  1  0
  2  3  2  0
  3  4  1  0
  4  5  2  0
  5  6  1  0
  6  7  2  0
  7  8  1  0
  8  9  2  0
  9 10  1  0
 10 11  1  0
 11 12  1  0
 12 13  1  0
 13 14  1  0
 14 15  1  0
 15 16  1  0
 16 17  1  0
 16 18  1  0
 16 19  2  0
 13 20  1  0
 20 21  1  0
 21 22  1  0
 22 23  1  0
 22 24  1  0
 22 25  2  0
 20 26  1  0
 26 27  1  0
  7  2  1  0
 26 11  1  0
 10  6  1  0
  1 28  1  0
  1 29  1  0
  4 30  1  0
  9 31  1  0
 11 32  1  1
 13 33  1  1
 14 34  1  0
 14 35  1  0
 17 36  1  0
 18 37  1  0
 20 38  1  6
 23 39  1  0
 24 40  1  0
 26 41  1  6
 27 42  1  0
M  END
$$$$
