
     RDKit          3D

 56 59  0  0  0  0  0  0  0  0999 V2000
    2.8864    0.2484    0.4817 C   0  0  2  0  0  0  0  0  0  0  0  0
    2.0994    1.0435   -0.3903 O   0  0  0  0  0  0  0  0  0  0  0  0
    2.8832    2.0492   -1.0094 C   0  0  2  0  0  0  0  0  0  0  0  0
    1.9349    2.9559   -1.8115 C   0  0  0  0  0  0  0  0  0  0  0  0
    2.6045    4.0852   -2.3048 O   0  0  0  0  0  0  0  0  0  0  0  0
    3.9558    1.4002   -1.9240 C   0  0  1  0  0  0  0  0  0  0  0  0
    4.7569    2.3730   -2.5487 O   0  0  0  0  0  0  0  0  0  0  0  0
    4.8308    0.4265   -1.1081 C   0  0  2  0  0  0  0  0  0  0  0  0
    5.6678   -0.3044   -1.9670 O   0  0  0  0  0  0  0  0  0  0  0  0
    3.9446   -0.5463   -0.3186 C   0  0  1  0  0  0  0  0  0  0  0  0
    4.7541   -1.2949    0.5533 O   0  0  0  0  0  0  0  0  0  0  0  0
    1.9715   -0.6956    1.2303 C   0  0  0  0  0  0  0  0  0  0  0  0
    2.1035   -0.8627    2.6154 C   0  0  0  0  0  0  0  0  0  0  0  0
    1.2603   -1.7335    3.3059 C   0  0  0  0  0  0  0  0  0  0  0  0
    0.2674   -2.4605    2.6284 C   0  0  0  0  0  0  0  0  0  0  0  0
   -0.6268   -3.3827    3.4146 C   0  0  0  0  0  0  0  0  0  0  0  0
    0.1468   -2.3254    1.2224 C   0  0  0  0  0  0  0  0  0  0  0  0
   -0.9137   -3.0539    0.4283 C   0  0  0  0  0  0  0  0  0  0  0  0
   -2.1616   -2.2298    0.3417 C   0  0  0  0  0  0  0  0  0  0  0  0
   -3.3826   -2.5285    0.9312 C   0  0  0  0  0  0  0  0  0  0  0  0
   -4.3676   -1.5624    0.6903 C   0  0  0  0  0  0  0  0  0  0  0  0
   -3.9275   -0.4936   -0.0949 C   0  0  0  0  0  0  0  0  0  0  0  0
   -2.3070   -0.7698   -0.4777 S   0  0  0  0  0  0  0  0  0  0  0  0
   -4.7227    0.6872   -0.5203 C   0  0  0  0  0  0  0  0  0  0  0  0
   -6.1228    0.7169   -0.3622 C   0  0  0  0  0  0  0  0  0  0  0  0
   -6.8597    1.8343   -0.7670 C   0  0  0  0  0  0  0  0  0  0  0  0
   -6.2129    2.9338   -1.3346 C   0  0  0  0  0  0  0  0  0  0  0  0
   -6.9304    4.0156   -1.7262 F   0  0  0  0  0  0  0  0  0  0  0  0
   -4.8269    2.9172   -1.5003 C   0  0  0  0  0  0  0  0  0  0  0  0
   -4.0848    1.8026   -1.0981 C   0  0  0  0  0  0  0  0  0  0  0  0
    1.0001   -1.4392    0.5420 C   0  0  0  0  0  0  0  0  0  0  0  0
    3.4047    0.9017    1.2237 H   0  0  0  0  0  0  0  0  0  0  0  0
    3.3758    2.6812   -0.2333 H   0  0  0  0  0  0  0  0  0  0  0  0
    1.5046    2.3907   -2.6658 H   0  0  0  0  0  0  0  0  0  0  0  0
    1.0853    3.2749   -1.1650 H   0  0  0  0  0  0  0  0  0  0  0  0
    2.7436    4.6934   -1.5326 H   0  0  0  0  0  0  0  0  0  0  0  0
    3.4371    0.8196   -2.7194 H   0  0  0  0  0  0  0  0  0  0  0  0
    5.2019    2.9000   -1.8342 H   0  0  0  0  0  0  0  0  0  0  0  0
    5.4479    1.0052   -0.3790 H   0  0  0  0  0  0  0  0  0  0  0  0
    6.4258    0.2907   -2.2055 H   0  0  0  0  0  0  0  0  0  0  0  0
    3.4321   -1.2208   -1.0468 H   0  0  0  0  0  0  0  0  0  0  0  0
    4.2894   -2.1576    0.7126 H   0  0  0  0  0  0  0  0  0  0  0  0
    2.8587   -0.3152    3.1656 H   0  0  0  0  0  0  0  0  0  0  0  0
    1.3821   -1.8356    4.3773 H   0  0  0  0  0  0  0  0  0  0  0  0
   -1.6907   -3.1367    3.2222 H   0  0  0  0  0  0  0  0  0  0  0  0
   -0.4287   -4.4357    3.1250 H   0  0  0  0  0  0  0  0  0  0  0  0
   -0.4537   -3.2884    4.5078 H   0  0  0  0  0  0  0  0  0  0  0  0
   -0.5488   -3.2535   -0.6024 H   0  0  0  0  0  0  0  0  0  0  0  0
   -1.1367   -4.0467    0.8713 H   0  0  0  0  0  0  0  0  0  0  0  0
   -3.5600   -3.4175    1.5220 H   0  0  0  0  0  0  0  0  0  0  0  0
   -5.3649   -1.6497    1.0973 H   0  0  0  0  0  0  0  0  0  0  0  0
   -6.6574   -0.1218    0.0605 H   0  0  0  0  0  0  0  0  0  0  0  0
   -7.9349    1.8450   -0.6424 H   0  0  0  0  0  0  0  0  0  0  0  0
   -4.3245    3.7692   -1.9403 H   0  0  0  0  0  0  0  0  0  0  0  0
   -3.0114    1.8218   -1.2340 H   0  0  0  0  0  0  0  0  0  0  0  0
    0.9017   -1.3206   -0.5309 H   0  0  0  0  0  0  0  0  0  0  0  0
  1  2  1  0
  2  3  1  0
  3  4  1  0
  4  5  1  0
  3  6  1  0
  6  7  1  0
  6  8  1  0
  8  9  1  0
  8 10  1  0
 10 11  1  0
  1 12  1  0
 12 13  2  0
 13 14  1  0
 14 15  2  0
 15 16  1  0
 15 17  1  0
 17 18  1  0
 18 19  1  0
 19 20  2  0
 20 21  1  0
 21 22  2  0
 22 23  1  0
 22 24  1  0
 24 25  2  0
 25 26  1  0
 26 27  2  0
 27 28  1  0
 27 29  1  0
 29 30  2  0
 17 31  2  0
 10  1  1  0
 31 12  1  0
 23 19  1  0
 30 24  1  0
  1 32  1  1
  3 33  1  1
  4 34  1  0
  4 35  1  0
  5 36  1  0
  6 37  1  6
  7 38  1  0
  8 39  1  1
  9 40  1  0
 10 41  1  6
 11 42  1  0
 13 43  1  0
 14 44  1  0
 16 45  1  0
 16 46  1  0
 16 47  1  0
 18 48  1  0
 18 49  1  0
 20 50  1  0
 21 51  1  0
 25 52  1  0
 26 53  1  0
 29 54  1  0
 30 55  1  0
 31 56  1  0
M  END
$$$$
