
     RDKit          3D

 55 58  0  0  0  0  0  0  0  0999 V2000
    2.0985   -3.4765    2.0607 C   0  0  0  0  0  0  0  0  0  0  0  0
    2.4047   -2.2200    1.3145 C   0  0  0  0  0  0  0  0  0  0  0  0
    3.5980   -1.9108    0.9053 N   0  0  0  0  0  0  0  0  0  0  0  0
    3.5666   -0.7087    0.1790 N   0  0  0  0  0  0  0  0  0  0  0  0
    2.2183   -0.2509    0.1521 C   0  0  0  0  0  0  0  0  0  0  0  0
    1.8374    0.8507   -0.3235 O   0  0  0  0  0  0  0  0  0  0  0  0
    1.4211   -1.2323    0.8718 C   0  0  0  0  0  0  0  0  0  0  0  0
    0.1412   -1.2778    1.0988 N   0  0  0  0  0  0  0  0  0  0  0  0
   -0.7860   -0.3200    0.6513 N   0  0  0  0  0  0  0  0  0  0  0  0
   -2.1778   -0.4433    0.9907 C   0  0  0  0  0  0  0  0  0  0  0  0
   -3.1818    0.2018    0.2252 C   0  0  0  0  0  0  0  0  0  0  0  0
   -2.8755    0.8765   -0.9611 O   0  0  0  0  0  0  0  0  0  0  0  0
   -4.5321    0.1318    0.6358 C   0  0  0  0  0  0  0  0  0  0  0  0
   -4.8731   -0.6217    1.7701 C   0  0  0  0  0  0  0  0  0  0  0  0
   -3.8895   -1.2833    2.5011 C   0  0  0  0  0  0  0  0  0  0  0  0
   -2.5523   -1.1925    2.1196 C   0  0  0  0  0  0  0  0  0  0  0  0
   -5.6010    0.8256   -0.1238 C   0  0  0  0  0  0  0  0  0  0  0  0
   -5.4778    2.1875   -0.4433 C   0  0  0  0  0  0  0  0  0  0  0  0
   -6.4897    2.8403   -1.1491 C   0  0  0  0  0  0  0  0  0  0  0  0
   -7.6360    2.1448   -1.5397 C   0  0  0  0  0  0  0  0  0  0  0  0
   -7.7837    0.7827   -1.2243 C   0  0  0  0  0  0  0  0  0  0  0  0
   -6.7603    0.1311   -0.5128 C   0  0  0  0  0  0  0  0  0  0  0  0
   -8.9972    0.0415   -1.6343 C   0  0  0  0  0  0  0  0  0  0  0  0
   -9.1373   -1.3072   -1.3166 O   0  0  0  0  0  0  0  0  0  0  0  0
   -9.9151    0.6229   -2.2741 O   0  0  0  0  0  0  0  0  0  0  0  0
    4.7362   -0.0796   -0.3751 C   0  0  0  0  0  0  0  0  0  0  0  0
    4.6432    0.7779   -1.4814 C   0  0  0  0  0  0  0  0  0  0  0  0
    5.7872    1.3770   -2.0107 C   0  0  0  0  0  0  0  0  0  0  0  0
    7.0502    1.1302   -1.4499 C   0  0  0  0  0  0  0  0  0  0  0  0
    8.2653    1.7885   -2.0493 C   0  0  0  0  0  0  0  0  0  0  0  0
    7.1595    0.2446   -0.3522 C   0  0  0  0  0  0  0  0  0  0  0  0
    8.4941   -0.0575    0.2780 C   0  0  0  0  0  0  0  0  0  0  0  0
    5.9989   -0.3476    0.1754 C   0  0  0  0  0  0  0  0  0  0  0  0
    1.3156   -3.2819    2.8233 H   0  0  0  0  0  0  0  0  0  0  0  0
    3.0101   -3.8517    2.5720 H   0  0  0  0  0  0  0  0  0  0  0  0
    1.7341   -4.2479    1.3511 H   0  0  0  0  0  0  0  0  0  0  0  0
   -0.4672    0.5068    0.1070 H   0  0  0  0  0  0  0  0  0  0  0  0
   -1.9640    0.8614   -1.3973 H   0  0  0  0  0  0  0  0  0  0  0  0
   -5.9038   -0.6882    2.0966 H   0  0  0  0  0  0  0  0  0  0  0  0
   -4.1630   -1.8576    3.3770 H   0  0  0  0  0  0  0  0  0  0  0  0
   -1.8057   -1.6938    2.7222 H   0  0  0  0  0  0  0  0  0  0  0  0
   -4.6046    2.7485   -0.1339 H   0  0  0  0  0  0  0  0  0  0  0  0
   -6.3873    3.8904   -1.3908 H   0  0  0  0  0  0  0  0  0  0  0  0
   -8.4068    2.6742   -2.0858 H   0  0  0  0  0  0  0  0  0  0  0  0
   -6.8553   -0.9203   -0.2696 H   0  0  0  0  0  0  0  0  0  0  0  0
   -9.9640   -1.8236   -1.5925 H   0  0  0  0  0  0  0  0  0  0  0  0
    3.6925    0.9690   -1.9583 H   0  0  0  0  0  0  0  0  0  0  0  0
    5.6846    2.0330   -2.8665 H   0  0  0  0  0  0  0  0  0  0  0  0
    8.9124    1.0200   -2.5213 H   0  0  0  0  0  0  0  0  0  0  0  0
    7.9867    2.5330   -2.8253 H   0  0  0  0  0  0  0  0  0  0  0  0
    8.8388    2.3199   -1.2614 H   0  0  0  0  0  0  0  0  0  0  0  0
    8.8961    0.8582    0.7597 H   0  0  0  0  0  0  0  0  0  0  0  0
    8.4123   -0.8499    1.0522 H   0  0  0  0  0  0  0  0  0  0  0  0
    9.2086   -0.4117   -0.4941 H   0  0  0  0  0  0  0  0  0  0  0  0
    6.0761   -1.0134    1.0262 H   0  0  0  0  0  0  0  0  0  0  0  0
  1  2  1  0
  2  3  2  0
  3  4  1  0
  4  5  1  0
  5  6  2  0
  5  7  1  0
  7  8  2  0
  8  9  1  0
  9 10  1  0
 10 11  2  0
 11 12  1  0
 11 13  1  0
 13 14  2  0
 14 15  1  0
 15 16  2  0
 13 17  1  0
 17 18  2  0
 18 19  1  0
 19 20  2  0
 20 21  1  0
 21 22  2  0
 21 23  1  0
 23 24  1  0
 23 25  2  0
  4 26  1  0
 26 27  2  0
 27 28  1  0
 28 29  2  0
 29 30  1  0
 29 31  1  0
 31 32  1  0
 31 33  2  0
  7  2  1  0
 16 10  1  0
 22 17  1  0
 33 26  1  0
  1 34  1  0
  1 35  1  0
  1 36  1  0
  9 37  1  0
 12 38  1  0
 14 39  1  0
 15 40  1  0
 16 41  1  0
 18 42  1  0
 19 43  1  0
 20 44  1  0
 22 45  1  0
 24 46  1  0
 27 47  1  0
 28 48  1  0
 30 49  1  0
 30 50  1  0
 30 51  1  0
 32 52  1  0
 32 53  1  0
 32 54  1  0
 33 55  1  0
M  END
$$$$
