
     RDKit          3D

 29 30  0  0  0  0  0  0  0  0999 V2000
    3.9563    2.3030    0.9924 C   0  0  0  0  0  0  0  0  0  0  0  0
    2.6086    1.8497    1.0653 O   0  0  0  0  0  0  0  0  0  0  0  0
    2.1154    0.7233    0.3908 C   0  0  0  0  0  0  0  0  0  0  0  0
    2.9386   -0.0826   -0.4449 C   0  0  0  0  0  0  0  0  0  0  0  0
    2.4074   -1.2033   -1.1086 C   0  0  0  0  0  0  0  0  0  0  0  0
    1.0598   -1.4973   -0.9181 C   0  0  0  0  0  0  0  0  0  0  0  0
    0.3592   -2.5031   -1.4707 N   0  0  0  0  0  0  0  0  0  0  0  0
   -0.9065   -2.3736   -1.0115 C   0  0  0  0  0  0  0  0  0  0  0  0
   -1.0007   -1.2838   -0.1514 C   0  0  0  0  0  0  0  0  0  0  0  0
   -2.2464   -0.7683    0.5047 C   0  0  0  0  0  0  0  0  0  0  0  0
   -2.8787    0.3392   -0.3399 C   0  0  0  0  0  0  0  0  0  0  0  0
   -4.1153    0.8591    0.3213 C   0  0  0  0  0  0  0  0  0  0  0  0
   -4.0222    1.8895    1.2516 O   0  0  0  0  0  0  0  0  0  0  0  0
   -5.2343    0.3386    0.0669 O   0  0  0  0  0  0  0  0  0  0  0  0
    0.2632   -0.7282   -0.1118 C   0  0  0  0  0  0  0  0  0  0  0  0
    0.7560    0.3924    0.5556 C   0  0  0  0  0  0  0  0  0  0  0  0
    4.6441    1.5189    1.3736 H   0  0  0  0  0  0  0  0  0  0  0  0
    4.0682    3.2099    1.6212 H   0  0  0  0  0  0  0  0  0  0  0  0
    4.2155    2.5629   -0.0557 H   0  0  0  0  0  0  0  0  0  0  0  0
    3.9844    0.1522   -0.5877 H   0  0  0  0  0  0  0  0  0  0  0  0
    3.0277   -1.8158   -1.7502 H   0  0  0  0  0  0  0  0  0  0  0  0
    0.7127   -3.2296   -2.1323 H   0  0  0  0  0  0  0  0  0  0  0  0
   -1.7214   -3.0275   -1.2936 H   0  0  0  0  0  0  0  0  0  0  0  0
   -1.9949   -0.3790    1.5153 H   0  0  0  0  0  0  0  0  0  0  0  0
   -2.9683   -1.6051    0.6290 H   0  0  0  0  0  0  0  0  0  0  0  0
   -3.1347   -0.0542   -1.3483 H   0  0  0  0  0  0  0  0  0  0  0  0
   -2.1578    1.1760   -0.4668 H   0  0  0  0  0  0  0  0  0  0  0  0
   -4.8481    2.2420    1.7205 H   0  0  0  0  0  0  0  0  0  0  0  0
    0.1121    0.9948    1.1836 H   0  0  0  0  0  0  0  0  0  0  0  0
  1  2  1  0
  2  3  1  0
  3  4  2  0
  4  5  1  0
  5  6  2  0
  6  7  1  0
  7  8  1  0
  8  9  2  0
  9 10  1  0
 10 11  1  0
 11 12  1  0
 12 13  1  0
 12 14  2  0
  9 15  1  0
 15 16  2  0
 16  3  1  0
 15  6  1  0
  1 17  1  0
  1 18  1  0
  1 19  1  0
  4 20  1  0
  5 21  1  0
  7 22  1  0
  8 23  1  0
 10 24  1  0
 10 25  1  0
 11 26  1  0
 11 27  1  0
 13 28  1  0
 16 29  1  0
M  END
$$$$
