
     RDKit          3D

 39 41  0  0  0  0  0  0  0  0999 V2000
   -5.9182    2.2118   -1.0395 N   0  0  0  0  0  0  0  0  0  0  0  0
   -4.5751    1.8633   -1.3861 C   0  0  0  0  0  0  0  0  0  0  0  0
   -4.0238    2.4545   -2.3536 O   0  0  0  0  0  0  0  0  0  0  0  0
   -3.8183    0.8398   -0.6234 C   0  0  0  0  0  0  0  0  0  0  0  0
   -4.4838   -0.1710    0.0916 C   0  0  0  0  0  0  0  0  0  0  0  0
   -3.7624   -1.1416    0.8062 C   0  0  0  0  0  0  0  0  0  0  0  0
   -2.3583   -1.0982    0.7955 C   0  0  0  0  0  0  0  0  0  0  0  0
   -1.6746   -0.1036    0.0768 C   0  0  0  0  0  0  0  0  0  0  0  0
   -2.4135    0.8581   -0.6321 C   0  0  0  0  0  0  0  0  0  0  0  0
   -0.1896   -0.0689    0.0671 C   0  0  0  0  0  0  0  0  0  0  0  0
    0.4974    1.1515    0.1853 C   0  0  0  0  0  0  0  0  0  0  0  0
    1.8946    1.1840    0.1773 C   0  0  0  0  0  0  0  0  0  0  0  0
    2.6366   -0.0030    0.0487 C   0  0  0  0  0  0  0  0  0  0  0  0
    1.9491   -1.2233   -0.0705 C   0  0  0  0  0  0  0  0  0  0  0  0
    0.5520   -1.2559   -0.0603 C   0  0  0  0  0  0  0  0  0  0  0  0
    4.1215    0.0317    0.0391 C   0  0  0  0  0  0  0  0  0  0  0  0
    4.8235    0.8837    0.9130 C   0  0  0  0  0  0  0  0  0  0  0  0
    6.2214    0.9139    0.9020 C   0  0  0  0  0  0  0  0  0  0  0  0
    6.9333    0.0972    0.0208 C   0  0  0  0  0  0  0  0  0  0  0  0
    6.2488   -0.7520   -0.8514 C   0  0  0  0  0  0  0  0  0  0  0  0
    4.8510   -0.7871   -0.8442 C   0  0  0  0  0  0  0  0  0  0  0  0
   -4.4768   -2.1982    1.5586 C   0  0  0  0  0  0  0  0  0  0  0  0
   -5.8690   -2.2318    1.5728 O   0  0  0  0  0  0  0  0  0  0  0  0
   -3.8331   -3.0771    2.1935 O   0  0  0  0  0  0  0  0  0  0  0  0
   -6.3631    1.8753   -0.1579 H   0  0  0  0  0  0  0  0  0  0  0  0
   -6.4477    2.8917   -1.6291 H   0  0  0  0  0  0  0  0  0  0  0  0
   -5.5641   -0.2216    0.0738 H   0  0  0  0  0  0  0  0  0  0  0  0
   -1.7940   -1.8315    1.3586 H   0  0  0  0  0  0  0  0  0  0  0  0
   -1.8921    1.6205   -1.1985 H   0  0  0  0  0  0  0  0  0  0  0  0
   -0.0460    2.0812    0.2984 H   0  0  0  0  0  0  0  0  0  0  0  0
    2.3945    2.1411    0.2570 H   0  0  0  0  0  0  0  0  0  0  0  0
    2.4921   -2.1561   -0.1569 H   0  0  0  0  0  0  0  0  0  0  0  0
    0.0510   -2.2101   -0.1664 H   0  0  0  0  0  0  0  0  0  0  0  0
    4.2927    1.5128    1.6164 H   0  0  0  0  0  0  0  0  0  0  0  0
    6.7531    1.5689    1.5801 H   0  0  0  0  0  0  0  0  0  0  0  0
    8.0154    0.1224    0.0137 H   0  0  0  0  0  0  0  0  0  0  0  0
    6.8016   -1.3817   -1.5366 H   0  0  0  0  0  0  0  0  0  0  0  0
    4.3410   -1.4404   -1.5408 H   0  0  0  0  0  0  0  0  0  0  0  0
   -6.3671   -2.9503    2.0845 H   0  0  0  0  0  0  0  0  0  0  0  0
  1  2  1  0
  2  3  2  0
  2  4  1  0
  4  5  2  0
  5  6  1  0
  6  7  2  0
  7  8  1  0
  8  9  2  0
  8 10  1  0
 10 11  2  0
 11 12  1  0
 12 13  2  0
 13 14  1  0
 14 15  2  0
 13 16  1  0
 16 17  2  0
 17 18  1  0
 18 19  2  0
 19 20  1  0
 20 21  2  0
  6 22  1  0
 22 23  1  0
 22 24  2  0
  9  4  1  0
 15 10  1  0
 21 16  1  0
  1 25  1  0
  1 26  1  0
  5 27  1  0
  7 28  1  0
  9 29  1  0
 11 30  1  0
 12 31  1  0
 14 32  1  0
 15 33  1  0
 17 34  1  0
 18 35  1  0
 19 36  1  0
 20 37  1  0
 21 38  1  0
 23 39  1  0
M  END
$$$$
