
     RDKit          3D

 86 91  0  0  0  0  0  0  0  0999 V2000
   -6.5172   -1.3565    3.1418 C   0  0  1  0  0  0  0  0  0  0  0  0
   -5.1737   -1.3425    2.4014 C   0  0  0  0  0  0  0  0  0  0  0  0
   -4.7020   -0.0176    2.3253 O   0  0  0  0  0  0  0  0  0  0  0  0
   -3.3168   -0.0005    1.3327 P   0  0  0  0  0  5  0  0  0  0  0  0
   -2.1647   -1.0764    1.9561 O   0  0  0  0  0  0  0  0  0  0  0  0
   -2.7479    1.4007    1.3348 O   0  0  0  0  0  0  0  0  0  0  0  0
   -3.7728   -0.4302   -0.2512 O   0  0  0  0  0  0  0  0  0  0  0  0
   -2.3506   -0.6751   -1.1520 P   0  0  0  0  0  5  0  0  0  0  0  0
   -1.5600   -2.0643   -0.5891 O   0  0  0  0  0  0  0  0  0  0  0  0
   -2.7462   -0.8898   -2.5958 O   0  0  0  0  0  0  0  0  0  0  0  0
   -1.3481    0.7001   -1.0440 O   0  0  0  0  0  0  0  0  0  0  0  0
    0.1631    0.3029   -1.7249 P   0  0  0  0  0  5  0  0  0  0  0  0
    1.1007    1.7097   -1.8273 O   0  0  0  0  0  0  0  0  0  0  0  0
   -0.0189   -0.2409   -3.1251 O   0  0  0  0  0  0  0  0  0  0  0  0
    0.9571   -0.8695   -0.7783 O   0  0  0  0  0  0  0  0  0  0  0  0
    1.4444   -0.1235    0.6726 P   0  0  0  0  0  5  0  0  0  0  0  0
    1.9748   -1.3367    1.7268 O   0  0  0  0  0  0  0  0  0  0  0  0
    0.2816    0.6084    1.3097 O   0  0  0  0  0  0  0  0  0  0  0  0
    2.7333    0.9403    0.3429 O   0  0  0  0  0  0  0  0  0  0  0  0
    3.0519    1.8341    1.7579 P   0  0  0  0  0  5  0  0  0  0  0  0
    3.1695    0.8210    3.1116 O   0  0  0  0  0  0  0  0  0  0  0  0
    1.9433    2.8384    1.9810 O   0  0  0  0  0  0  0  0  0  0  0  0
    4.5149    2.6852    1.5594 O   0  0  0  0  0  0  0  0  0  0  0  0
    5.5474    1.7471    1.3656 C   0  0  0  0  0  0  0  0  0  0  0  0
    6.8662    2.4836    1.1122 C   0  0  1  0  0  0  0  0  0  0  0  0
    7.9134    1.5480    0.9765 O   0  0  0  0  0  0  0  0  0  0  0  0
    8.7964    2.0202   -0.0221 C   0  0  1  0  0  0  0  0  0  0  0  0
    8.9287    1.0112   -1.0758 N   0  0  0  0  0  0  0  0  0  0  0  0
    7.9586    0.2195   -1.6052 C   0  0  0  0  0  0  0  0  0  0  0  0
    8.3910   -0.5397   -2.6499 N   0  0  0  0  0  0  0  0  0  0  0  0
    9.6834   -0.1797   -2.7632 C   0  0  0  0  0  0  0  0  0  0  0  0
   10.6420   -0.6010   -3.6777 C   0  0  0  0  0  0  0  0  0  0  0  0
   10.3495   -1.5751   -4.6795 N   0  0  0  0  0  0  0  0  0  0  0  0
   11.8869   -0.0433   -3.5919 N   0  0  0  0  0  0  0  0  0  0  0  0
   12.1834    0.9011   -2.6415 C   0  0  0  0  0  0  0  0  0  0  0  0
   11.2316    1.3100   -1.7490 N   0  0  0  0  0  0  0  0  0  0  0  0
   10.0008    0.7492   -1.8329 C   0  0  0  0  0  0  0  0  0  0  0  0
    8.2580    3.3326   -0.6038 C   0  0  2  0  0  0  0  0  0  0  0  0
    8.9785    4.4427   -0.1177 O   0  0  0  0  0  0  0  0  0  0  0  0
    6.8172    3.3410   -0.1474 C   0  0  2  0  0  0  0  0  0  0  0  0
    6.3531    4.6352    0.1388 O   0  0  0  0  0  0  0  0  0  0  0  0
   -7.4278   -0.5094    2.4694 O   0  0  0  0  0  0  0  0  0  0  0  0
   -8.4539   -1.3089    1.9172 C   0  0  1  0  0  0  0  0  0  0  0  0
   -8.6684   -0.9553    0.5127 N   0  0  0  0  0  0  0  0  0  0  0  0
   -7.7518   -0.5270   -0.3954 C   0  0  0  0  0  0  0  0  0  0  0  0
   -8.2605   -0.3854   -1.6508 N   0  0  0  0  0  0  0  0  0  0  0  0
   -9.5450   -0.7572   -1.4939 C   0  0  0  0  0  0  0  0  0  0  0  0
  -10.5621   -0.8447   -2.4376 C   0  0  0  0  0  0  0  0  0  0  0  0
  -10.3519   -0.4941   -3.8054 N   0  0  0  0  0  0  0  0  0  0  0  0
  -11.7834   -1.2876   -2.0126 N   0  0  0  0  0  0  0  0  0  0  0  0
  -12.0014   -1.6374   -0.7037 C   0  0  0  0  0  0  0  0  0  0  0  0
  -10.9927   -1.5497    0.2153 N   0  0  0  0  0  0  0  0  0  0  0  0
   -9.7855   -1.1037   -0.2090 C   0  0  0  0  0  0  0  0  0  0  0  0
   -8.0753   -2.7788    2.0507 C   0  0  2  0  0  0  0  0  0  0  0  0
   -9.2066   -3.5718    2.3013 O   0  0  0  0  0  0  0  0  0  0  0  0
   -7.1092   -2.7683    3.2119 C   0  0  2  0  0  0  0  0  0  0  0  0
   -7.7586   -2.9888    4.4438 O   0  0  0  0  0  0  0  0  0  0  0  0
   -6.3497   -0.9626    4.1689 H   0  0  0  0  0  0  0  0  0  0  0  0
   -5.3273   -1.7774    1.3867 H   0  0  0  0  0  0  0  0  0  0  0  0
   -4.4507   -1.9721    2.9677 H   0  0  0  0  0  0  0  0  0  0  0  0
   -1.9776   -0.7454    2.8705 H   0  0  0  0  0  0  0  0  0  0  0  0
   -2.2540   -2.7708   -0.5970 H   0  0  0  0  0  0  0  0  0  0  0  0
    0.5162    2.3709   -2.2767 H   0  0  0  0  0  0  0  0  0  0  0  0
    1.1957   -1.9395    1.8296 H   0  0  0  0  0  0  0  0  0  0  0  0
    3.4073    1.4250    3.8595 H   0  0  0  0  0  0  0  0  0  0  0  0
    5.6748    1.1196    2.2767 H   0  0  0  0  0  0  0  0  0  0  0  0
    5.3359    1.0850    0.4949 H   0  0  0  0  0  0  0  0  0  0  0  0
    7.0884    3.1242    1.9961 H   0  0  0  0  0  0  0  0  0  0  0  0
    9.7932    2.1850    0.4443 H   0  0  0  0  0  0  0  0  0  0  0  0
    6.9378    0.2019   -1.2475 H   0  0  0  0  0  0  0  0  0  0  0  0
   11.0886   -1.8708   -5.3550 H   0  0  0  0  0  0  0  0  0  0  0  0
    9.4002   -2.0042   -4.7517 H   0  0  0  0  0  0  0  0  0  0  0  0
   13.1764    1.3267   -2.5994 H   0  0  0  0  0  0  0  0  0  0  0  0
    8.3083    3.3435   -1.7153 H   0  0  0  0  0  0  0  0  0  0  0  0
    8.9459    4.4245    0.8750 H   0  0  0  0  0  0  0  0  0  0  0  0
    6.1780    2.8578   -0.9247 H   0  0  0  0  0  0  0  0  0  0  0  0
    6.2068    5.0796   -0.7367 H   0  0  0  0  0  0  0  0  0  0  0  0
   -9.3860   -1.1049    2.4910 H   0  0  0  0  0  0  0  0  0  0  0  0
   -6.7161   -0.3276   -0.1546 H   0  0  0  0  0  0  0  0  0  0  0  0
   -9.4210   -0.1565   -4.1371 H   0  0  0  0  0  0  0  0  0  0  0  0
  -11.1337   -0.5722   -4.4929 H   0  0  0  0  0  0  0  0  0  0  0  0
  -12.9776   -1.9869   -0.3971 H   0  0  0  0  0  0  0  0  0  0  0  0
   -7.5503   -3.1269    1.1290 H   0  0  0  0  0  0  0  0  0  0  0  0
   -8.9087   -4.5157    2.2257 H   0  0  0  0  0  0  0  0  0  0  0  0
   -6.3361   -3.5575    3.0798 H   0  0  0  0  0  0  0  0  0  0  0  0
   -8.4324   -2.2706    4.5746 H   0  0  0  0  0  0  0  0  0  0  0  0
  1  2  1  0
  2  3  1  0
  3  4  1  0
  4  5  1  0
  4  6  2  0
  4  7  1  0
  7  8  1  0
  8  9  1  0
  8 10  2  0
  8 11  1  0
 11 12  1  0
 12 13  1  0
 12 14  2  0
 12 15  1  0
 15 16  1  0
 16 17  1  0
 16 18  2  0
 16 19  1  0
 19 20  1  0
 20 21  1  0
 20 22  2  0
 20 23  1  0
 23 24  1  0
 24 25  1  0
 25 26  1  0
 26 27  1  0
 27 28  1  0
 28 29  1  0
 29 30  2  0
 30 31  1  0
 31 32  2  0
 32 33  1  0
 32 34  1  0
 34 35  2  0
 35 36  1  0
 36 37  2  0
 27 38  1  0
 38 39  1  0
 38 40  1  0
 40 41  1  0
  1 42  1  0
 42 43  1  0
 43 44  1  0
 44 45  1  0
 45 46  2  0
 46 47  1  0
 47 48  2  0
 48 49  1  0
 48 50  1  0
 50 51  2  0
 51 52  1  0
 52 53  2  0
 43 54  1  0
 54 55  1  0
 54 56  1  0
 56 57  1  0
 56  1  1  0
 40 25  1  0
 53 44  1  0
 37 28  1  0
 53 47  1  0
 37 31  1  0
  1 58  1  1
  2 59  1  0
  2 60  1  0
  5 61  1  0
  9 62  1  0
 13 63  1  0
 17 64  1  0
 21 65  1  0
 24 66  1  0
 24 67  1  0
 25 68  1  1
 27 69  1  1
 29 70  1  0
 33 71  1  0
 33 72  1  0
 35 73  1  0
 38 74  1  6
 39 75  1  0
 40 76  1  6
 41 77  1  0
 43 78  1  1
 45 79  1  0
 49 80  1  0
 49 81  1  0
 51 82  1  0
 54 83  1  6
 55 84  1  0
 56 85  1  6
 57 86  1  0
M  END
$$$$
