
     RDKit          3D

 55 57  0  0  0  0  0  0  0  0999 V2000
    4.3952   -0.3660    2.0483 C   0  0  0  0  0  0  0  0  0  0  0  0
    3.7005   -1.4702    1.2376 C   0  0  0  0  0  0  0  0  0  0  0  0
    2.8818   -0.9728    0.1044 N   0  0  0  0  0  0  0  0  0  0  0  0
    3.6656   -0.2857   -0.9495 C   0  0  0  0  0  0  0  0  0  0  0  0
    4.4862   -1.2742   -1.7851 C   0  0  0  0  0  0  0  0  0  0  0  0
    3.6572   -2.2596   -2.3402 O   0  0  0  0  0  0  0  0  0  0  0  0
    1.7291   -0.1618    0.5536 C   0  0  0  0  0  0  0  0  0  0  0  0
    0.5103   -0.4499   -0.3262 C   0  0  0  0  0  0  0  0  0  0  0  0
   -0.6472    0.3198    0.1405 N   0  0  0  0  0  0  0  0  0  0  0  0
   -1.6048   -0.0692    1.0289 C   0  0  0  0  0  0  0  0  0  0  0  0
   -1.7009   -1.4387    1.6408 C   0  0  0  0  0  0  0  0  0  0  0  0
   -2.3917   -2.3963    0.7056 C   0  0  0  0  0  0  0  0  0  0  0  0
   -1.7048   -3.5050    0.1808 C   0  0  0  0  0  0  0  0  0  0  0  0
   -2.3526   -4.3895   -0.6871 C   0  0  0  0  0  0  0  0  0  0  0  0
   -3.6902   -4.1794   -1.0323 C   0  0  0  0  0  0  0  0  0  0  0  0
   -4.3840   -3.0861   -0.5073 C   0  0  0  0  0  0  0  0  0  0  0  0
   -3.7404   -2.1988    0.3607 C   0  0  0  0  0  0  0  0  0  0  0  0
   -2.5163    0.9017    1.2960 N   0  0  0  0  0  0  0  0  0  0  0  0
   -2.0820    1.9363    0.5522 C   0  0  0  0  0  0  0  0  0  0  0  0
   -0.9641    1.6013   -0.1343 C   0  0  0  0  0  0  0  0  0  0  0  0
   -0.3369    2.5400   -0.9490 C   0  0  0  0  0  0  0  0  0  0  0  0
    0.7274    2.2523   -1.5616 O   0  0  0  0  0  0  0  0  0  0  0  0
   -0.9057    3.7882   -1.0642 N   0  0  0  0  0  0  0  0  0  0  0  0
   -0.2623    4.8115   -1.9056 C   0  0  0  0  0  0  0  0  0  0  0  0
   -2.0414    4.1075   -0.3390 C   0  0  0  0  0  0  0  0  0  0  0  0
   -2.5410    5.2645   -0.4323 O   0  0  0  0  0  0  0  0  0  0  0  0
   -2.6336    3.1784    0.4880 N   0  0  0  0  0  0  0  0  0  0  0  0
   -3.8608    3.4975    1.2302 C   0  0  0  0  0  0  0  0  0  0  0  0
    5.2411    0.0715    1.4801 H   0  0  0  0  0  0  0  0  0  0  0  0
    3.6846    0.4354    2.3363 H   0  0  0  0  0  0  0  0  0  0  0  0
    4.8125   -0.8066    2.9782 H   0  0  0  0  0  0  0  0  0  0  0  0
    3.0514   -2.0579    1.9234 H   0  0  0  0  0  0  0  0  0  0  0  0
    4.4642   -2.1877    0.8739 H   0  0  0  0  0  0  0  0  0  0  0  0
    2.9847    0.2403   -1.6539 H   0  0  0  0  0  0  0  0  0  0  0  0
    4.3300    0.4940   -0.5239 H   0  0  0  0  0  0  0  0  0  0  0  0
    5.3033   -1.7309   -1.1841 H   0  0  0  0  0  0  0  0  0  0  0  0
    4.9721   -0.7177   -2.6143 H   0  0  0  0  0  0  0  0  0  0  0  0
    3.5346   -2.9554   -1.6429 H   0  0  0  0  0  0  0  0  0  0  0  0
    1.4458   -0.4111    1.6010 H   0  0  0  0  0  0  0  0  0  0  0  0
    1.9703    0.9250    0.5323 H   0  0  0  0  0  0  0  0  0  0  0  0
    0.7193   -0.2119   -1.3885 H   0  0  0  0  0  0  0  0  0  0  0  0
    0.2865   -1.5348   -0.2951 H   0  0  0  0  0  0  0  0  0  0  0  0
   -0.6862   -1.7994    1.9132 H   0  0  0  0  0  0  0  0  0  0  0  0
   -2.2814   -1.3779    2.5864 H   0  0  0  0  0  0  0  0  0  0  0  0
   -0.6702   -3.6875    0.4431 H   0  0  0  0  0  0  0  0  0  0  0  0
   -1.8178   -5.2395   -1.0906 H   0  0  0  0  0  0  0  0  0  0  0  0
   -4.1899   -4.8655   -1.7039 H   0  0  0  0  0  0  0  0  0  0  0  0
   -5.4212   -2.9264   -0.7721 H   0  0  0  0  0  0  0  0  0  0  0  0
   -4.2912   -1.3576    0.7628 H   0  0  0  0  0  0  0  0  0  0  0  0
   -1.0159    5.4926   -2.3554 H   0  0  0  0  0  0  0  0  0  0  0  0
    0.4468    5.4057   -1.2916 H   0  0  0  0  0  0  0  0  0  0  0  0
    0.2880    4.3519   -2.7542 H   0  0  0  0  0  0  0  0  0  0  0  0
   -3.8121    4.5291    1.6398 H   0  0  0  0  0  0  0  0  0  0  0  0
   -4.7368    3.4134    0.5533 H   0  0  0  0  0  0  0  0  0  0  0  0
   -4.0049    2.8126    2.0928 H   0  0  0  0  0  0  0  0  0  0  0  0
  1  2  1  0
  2  3  1  0
  3  4  1  0
  4  5  1  0
  5  6  1  0
  3  7  1  0
  7  8  1  0
  8  9  1  0
  9 10  1  0
 10 11  1  0
 11 12  1  0
 12 13  2  0
 13 14  1  0
 14 15  2  0
 15 16  1  0
 16 17  2  0
 10 18  2  0
 18 19  1  0
 19 20  2  0
 20 21  1  0
 21 22  2  0
 21 23  1  0
 23 24  1  0
 23 25  1  0
 25 26  2  0
 25 27  1  0
 27 28  1  0
 20  9  1  0
 17 12  1  0
 27 19  1  0
  1 29  1  0
  1 30  1  0
  1 31  1  0
  2 32  1  0
  2 33  1  0
  4 34  1  0
  4 35  1  0
  5 36  1  0
  5 37  1  0
  6 38  1  0
  7 39  1  0
  7 40  1  0
  8 41  1  0
  8 42  1  0
 11 43  1  0
 11 44  1  0
 13 45  1  0
 14 46  1  0
 15 47  1  0
 16 48  1  0
 17 49  1  0
 24 50  1  0
 24 51  1  0
 24 52  1  0
 28 53  1  0
 28 54  1  0
 28 55  1  0
M  END
$$$$
