
     RDKit          3D

 39 41  0  0  0  0  0  0  0  0999 V2000
   -1.1623   -1.5647    2.3910 C   0  0  0  0  0  0  0  0  0  0  0  0
   -0.6674   -0.8869    1.1907 N   0  0  0  0  0  0  0  0  0  0  0  0
   -1.4036   -0.3695    0.1702 C   0  0  0  0  0  0  0  0  0  0  0  0
   -2.9101   -0.3705    0.1105 C   0  0  0  0  0  0  0  0  0  0  0  0
   -3.4762    0.8710    0.8062 C   0  0  0  0  0  0  0  0  0  0  0  0
   -5.0059    0.8804    0.7587 C   0  0  0  0  0  0  0  0  0  0  0  0
   -5.5043    2.0088    1.4240 O   0  0  0  0  0  0  0  0  0  0  0  0
   -0.5615    0.1883   -0.7941 C   0  0  0  0  0  0  0  0  0  0  0  0
   -0.9615    0.8393   -2.0887 C   0  0  0  0  0  0  0  0  0  0  0  0
   -0.8823   -0.0852   -3.1380 O   0  0  0  0  0  0  0  0  0  0  0  0
    0.7272   -0.0643   -0.3574 C   0  0  0  0  0  0  0  0  0  0  0  0
    0.6283   -0.7157    0.8432 C   0  0  0  0  0  0  0  0  0  0  0  0
    1.8416   -1.1672    1.5525 C   0  0  0  0  0  0  0  0  0  0  0  0
    1.7769   -1.7988    2.6394 O   0  0  0  0  0  0  0  0  0  0  0  0
    3.1583   -0.8691    0.9401 C   0  0  0  0  0  0  0  0  0  0  0  0
    3.2544   -0.2250   -0.2408 C   0  0  0  0  0  0  0  0  0  0  0  0
    4.5414    0.0359   -0.7956 N   0  0  0  0  0  0  0  0  0  0  0  0
    5.4413    0.5838   -1.8529 C   0  0  0  0  0  0  0  0  0  0  0  0
    6.0324   -0.0281   -0.7677 C   0  0  0  0  0  0  0  0  0  0  0  0
    2.0368    0.2105   -0.9715 C   0  0  0  0  0  0  0  0  0  0  0  0
    2.1277    0.7901   -2.0860 O   0  0  0  0  0  0  0  0  0  0  0  0
   -2.2298   -1.3338    2.5769 H   0  0  0  0  0  0  0  0  0  0  0  0
   -0.6010   -1.2173    3.2828 H   0  0  0  0  0  0  0  0  0  0  0  0
   -1.0406   -2.6620    2.2769 H   0  0  0  0  0  0  0  0  0  0  0  0
   -3.3082   -1.2931    0.5824 H   0  0  0  0  0  0  0  0  0  0  0  0
   -3.2451   -0.3935   -0.9481 H   0  0  0  0  0  0  0  0  0  0  0  0
   -3.1459    0.8897    1.8678 H   0  0  0  0  0  0  0  0  0  0  0  0
   -3.0902    1.7851    0.3039 H   0  0  0  0  0  0  0  0  0  0  0  0
   -5.3609    0.8672   -0.2974 H   0  0  0  0  0  0  0  0  0  0  0  0
   -5.3979   -0.0275    1.2649 H   0  0  0  0  0  0  0  0  0  0  0  0
   -5.3697    2.7807    0.8141 H   0  0  0  0  0  0  0  0  0  0  0  0
   -0.2799    1.6876   -2.3033 H   0  0  0  0  0  0  0  0  0  0  0  0
   -1.9856    1.2676   -2.0215 H   0  0  0  0  0  0  0  0  0  0  0  0
   -1.6711   -0.6818   -3.0499 H   0  0  0  0  0  0  0  0  0  0  0  0
    4.0586   -1.1831    1.4547 H   0  0  0  0  0  0  0  0  0  0  0  0
    5.4267    1.6940   -1.8551 H   0  0  0  0  0  0  0  0  0  0  0  0
    5.3709   -0.0124   -2.7869 H   0  0  0  0  0  0  0  0  0  0  0  0
    6.4471    0.6380    0.0179 H   0  0  0  0  0  0  0  0  0  0  0  0
    6.3913   -1.0685   -0.9139 H   0  0  0  0  0  0  0  0  0  0  0  0
  1  2  1  0
  2  3  1  0
  3  4  1  0
  4  5  1  0
  5  6  1  0
  6  7  1  0
  3  8  2  0
  8  9  1  0
  9 10  1  0
  8 11  1  0
 11 12  2  0
 12 13  1  0
 13 14  2  0
 13 15  1  0
 15 16  2  0
 16 17  1  0
 17 18  1  0
 18 19  1  0
 16 20  1  0
 20 21  2  0
 12  2  1  0
 19 17  1  0
 20 11  1  0
  1 22  1  0
  1 23  1  0
  1 24  1  0
  4 25  1  0
  4 26  1  0
  5 27  1  0
  5 28  1  0
  6 29  1  0
  6 30  1  0
  7 31  1  0
  9 32  1  0
  9 33  1  0
 10 34  1  0
 15 35  1  0
 18 36  1  0
 18 37  1  0
 19 38  1  0
 19 39  1  0
M  END
$$$$
