
     RDKit          3D

 23 23  0  0  0  0  0  0  0  0999 V2000
   -1.4784   -0.9768    1.1891 N   0  0  0  0  0  0  0  0  0  0  0  0
   -1.6230    0.0865    0.1909 C   0  0  1  0  0  0  0  0  0  0  0  0
   -0.6128   -0.1027   -0.9544 C   0  0  0  0  0  0  0  0  0  0  0  0
    0.8065   -0.0044   -0.4563 C   0  0  0  0  0  0  0  0  0  0  0  0
    1.5206   -1.1638   -0.1087 C   0  0  0  0  0  0  0  0  0  0  0  0
    2.8273   -1.0660    0.3798 C   0  0  0  0  0  0  0  0  0  0  0  0
    3.4268    0.1873    0.5313 C   0  0  0  0  0  0  0  0  0  0  0  0
    2.7194    1.3456    0.1977 C   0  0  0  0  0  0  0  0  0  0  0  0
    1.4125    1.2524   -0.2910 C   0  0  0  0  0  0  0  0  0  0  0  0
   -3.0290    0.1258   -0.3473 C   0  0  0  0  0  0  0  0  0  0  0  0
   -3.7933    1.2790   -0.1995 O   0  0  0  0  0  0  0  0  0  0  0  0
   -3.5159   -0.8783   -0.9344 O   0  0  0  0  0  0  0  0  0  0  0  0
   -1.7316   -1.8973    0.7606 H   0  0  0  0  0  0  0  0  0  0  0  0
   -2.1513   -0.7977    1.9700 H   0  0  0  0  0  0  0  0  0  0  0  0
   -1.4136    1.0623    0.6841 H   0  0  0  0  0  0  0  0  0  0  0  0
   -0.7763   -1.0864   -1.4481 H   0  0  0  0  0  0  0  0  0  0  0  0
   -0.7803    0.6785   -1.7289 H   0  0  0  0  0  0  0  0  0  0  0  0
    1.0654   -2.1408   -0.2137 H   0  0  0  0  0  0  0  0  0  0  0  0
    3.3742   -1.9620    0.6435 H   0  0  0  0  0  0  0  0  0  0  0  0
    4.4378    0.2612    0.9105 H   0  0  0  0  0  0  0  0  0  0  0  0
    3.1828    2.3160    0.3204 H   0  0  0  0  0  0  0  0  0  0  0  0
    0.8722    2.1578   -0.5388 H   0  0  0  0  0  0  0  0  0  0  0  0
   -4.7401    1.3241   -0.5568 H   0  0  0  0  0  0  0  0  0  0  0  0
  1  2  1  0
  2  3  1  0
  3  4  1  0
  4  5  2  0
  5  6  1  0
  6  7  2  0
  7  8  1  0
  8  9  2  0
  2 10  1  0
 10 11  1  0
 10 12  2  0
  9  4  1  0
  1 13  1  0
  1 14  1  0
  2 15  1  1
  3 16  1  0
  3 17  1  0
  5 18  1  0
  6 19  1  0
  7 20  1  0
  8 21  1  0
  9 22  1  0
 11 23  1  0
M  END
$$$$
