
     RDKit          3D

 16 15  0  0  0  0  0  0  0  0999 V2000
    2.6582   -0.1402   -0.2343 C   0  0  0  0  0  0  0  0  0  0  0  0
    1.2926    0.5229   -0.3271 C   0  0  0  0  0  0  0  0  0  0  0  0
    0.3076   -0.3795    0.1289 O   0  0  0  0  0  0  0  0  0  0  0  0
   -0.9632    0.2297    0.0458 C   0  0  0  0  0  0  0  0  0  0  0  0
   -2.0209   -0.7536    0.5383 C   0  0  0  0  0  0  0  0  0  0  0  0
   -3.2992   -0.1881    0.4334 O   0  0  0  0  0  0  0  0  0  0  0  0
    3.4417    0.5613   -0.5909 H   0  0  0  0  0  0  0  0  0  0  0  0
    2.6801   -1.0550   -0.8640 H   0  0  0  0  0  0  0  0  0  0  0  0
    2.8753   -0.4174    0.8191 H   0  0  0  0  0  0  0  0  0  0  0  0
    1.1128    0.8020   -1.3905 H   0  0  0  0  0  0  0  0  0  0  0  0
    1.3090    1.4428    0.3012 H   0  0  0  0  0  0  0  0  0  0  0  0
   -1.0047    1.1416    0.6849 H   0  0  0  0  0  0  0  0  0  0  0  0
   -1.2014    0.5027   -1.0080 H   0  0  0  0  0  0  0  0  0  0  0  0
   -1.9866   -1.6712   -0.0868 H   0  0  0  0  0  0  0  0  0  0  0  0
   -1.8102   -1.0467    1.5922 H   0  0  0  0  0  0  0  0  0  0  0  0
   -3.3911    0.4487    1.1897 H   0  0  0  0  0  0  0  0  0  0  0  0
  1  2  1  0
  2  3  1  0
  3  4  1  0
  4  5  1  0
  5  6  1  0
  1  7  1  0
  1  8  1  0
  1  9  1  0
  2 10  1  0
  2 11  1  0
  4 12  1  0
  4 13  1  0
  5 14  1  0
  5 15  1  0
  6 16  1  0
M  END
$$$$
