
     RDKit          3D

 28 28  0  0  0  0  0  0  0  0999 V2000
    1.3028   -1.5274    1.0822 C   0  0  0  0  0  0  0  0  0  0  0  0
    1.7851   -0.3637    0.1923 C   0  0  2  0  0  0  0  0  0  0  0  0
    1.8346    0.8606    1.0057 N   0  0  0  0  0  0  0  0  0  0  0  0
    0.8228   -0.1549   -1.0092 C   0  0  0  0  0  0  0  0  0  0  0  0
   -0.5785    0.2354   -0.5973 C   0  0  0  0  0  0  0  0  0  0  0  0
   -0.9028    1.5826   -0.3702 C   0  0  0  0  0  0  0  0  0  0  0  0
   -2.1943    1.9409    0.0248 C   0  0  0  0  0  0  0  0  0  0  0  0
   -3.1777    0.9577    0.1978 C   0  0  0  0  0  0  0  0  0  0  0  0
   -4.4668    1.3106    0.5928 O   0  0  0  0  0  0  0  0  0  0  0  0
   -2.8639   -0.3887   -0.0274 C   0  0  0  0  0  0  0  0  0  0  0  0
   -3.8437   -1.3645    0.1462 O   0  0  0  0  0  0  0  0  0  0  0  0
   -1.5678   -0.7472   -0.4249 C   0  0  0  0  0  0  0  0  0  0  0  0
    3.1645   -0.6981   -0.3478 C   0  0  0  0  0  0  0  0  0  0  0  0
    4.2227    0.1953   -0.1969 O   0  0  0  0  0  0  0  0  0  0  0  0
    3.3559   -1.7831   -0.9621 O   0  0  0  0  0  0  0  0  0  0  0  0
    2.0574   -1.7538    1.8664 H   0  0  0  0  0  0  0  0  0  0  0  0
    0.3539   -1.2625    1.5948 H   0  0  0  0  0  0  0  0  0  0  0  0
    1.1361   -2.4462    0.4795 H   0  0  0  0  0  0  0  0  0  0  0  0
    2.5184    0.7361    1.7884 H   0  0  0  0  0  0  0  0  0  0  0  0
    2.1733    1.6598    0.4208 H   0  0  0  0  0  0  0  0  0  0  0  0
    0.7803   -1.0823   -1.6232 H   0  0  0  0  0  0  0  0  0  0  0  0
    1.2332    0.6351   -1.6774 H   0  0  0  0  0  0  0  0  0  0  0  0
   -0.1560    2.3559   -0.5003 H   0  0  0  0  0  0  0  0  0  0  0  0
   -2.4300    2.9834    0.1966 H   0  0  0  0  0  0  0  0  0  0  0  0
   -4.7232    2.2761    0.7632 H   0  0  0  0  0  0  0  0  0  0  0  0
   -3.6471   -2.3466   -0.0083 H   0  0  0  0  0  0  0  0  0  0  0  0
   -1.3308   -1.7904   -0.5946 H   0  0  0  0  0  0  0  0  0  0  0  0
    5.1418   -0.0202   -0.5642 H   0  0  0  0  0  0  0  0  0  0  0  0
  1  2  1  0
  2  3  1  1
  2  4  1  0
  4  5  1  0
  5  6  2  0
  6  7  1  0
  7  8  2  0
  8  9  1  0
  8 10  1  0
 10 11  1  0
 10 12  2  0
  2 13  1  0
 13 14  1  0
 13 15  2  0
 12  5  1  0
  1 16  1  0
  1 17  1  0
  1 18  1  0
  3 19  1  0
  3 20  1  0
  4 21  1  0
  4 22  1  0
  6 23  1  0
  7 24  1  0
  9 25  1  0
 11 26  1  0
 12 27  1  0
 14 28  1  0
M  END
$$$$
