
     RDKit          3D

 12 12  0  0  0  0  0  0  0  0999 V2000
   -1.3179   -2.2623    0.0747 O   0  0  0  0  0  0  0  0  0  0  0  0
   -0.6789   -1.1765    0.0389 C   0  0  0  0  0  0  0  0  0  0  0  0
    0.6827   -1.1881    0.0495 N   0  0  0  0  0  0  0  0  0  0  0  0
    1.3881   -0.0268    0.0114 C   0  0  0  0  0  0  0  0  0  0  0  0
    0.7186    1.1944   -0.0392 C   0  0  0  0  0  0  0  0  0  0  0  0
   -0.6766    1.1889   -0.0495 C   0  0  0  0  0  0  0  0  0  0  0  0
   -1.3099    2.2771   -0.0949 O   0  0  0  0  0  0  0  0  0  0  0  0
   -1.3510    0.0071   -0.0104 N   0  0  0  0  0  0  0  0  0  0  0  0
    1.1972   -2.0970    0.0873 H   0  0  0  0  0  0  0  0  0  0  0  0
    2.4706   -0.0488    0.0204 H   0  0  0  0  0  0  0  0  0  0  0  0
    1.2737    2.1239   -0.0698 H   0  0  0  0  0  0  0  0  0  0  0  0
   -2.3967    0.0082   -0.0183 H   0  0  0  0  0  0  0  0  0  0  0  0
  1  2  2  0
  2  3  1  0
  3  4  1  0
  4  5  2  0
  5  6  1  0
  6  7  2  0
  6  8  1  0
  8  2  1  0
  3  9  1  0
  4 10  1  0
  5 11  1  0
  8 12  1  0
M  END
$$$$
