
     RDKit          3D

 59 64  0  0  0  0  0  0  0  0999 V2000
   -1.3364   -1.8990   -0.6975 C   0  0  2  0  0  0  0  0  0  0  0  0
   -0.1591   -1.2592   -1.2056 O   0  0  0  0  0  0  0  0  0  0  0  0
   -0.2133    0.1049   -1.0048 C   0  0  0  0  0  0  0  0  0  0  0  0
    0.8097    1.0554   -1.1786 C   0  0  0  0  0  0  0  0  0  0  0  0
    2.0660    0.7723   -1.7404 O   0  0  0  0  0  0  0  0  0  0  0  0
    2.5835   -0.5246   -2.0296 C   0  0  0  0  0  0  0  0  0  0  0  0
    3.0018   -1.2852   -0.7509 C   0  0  0  0  0  0  0  0  0  0  0  0
    4.1066   -0.6759    0.0255 N   0  0  0  0  0  0  0  0  0  0  0  0
    3.6795    0.3929    0.9471 C   0  0  0  0  0  0  0  0  0  0  0  0
    4.9006    1.0124    1.6554 C   0  0  0  0  0  0  0  0  0  0  0  0
    6.0321    0.1713    1.5388 O   0  0  0  0  0  0  0  0  0  0  0  0
    6.4409    0.0931    0.1823 C   0  0  0  0  0  0  0  0  0  0  0  0
    5.2781   -0.2702   -0.7663 C   0  0  0  0  0  0  0  0  0  0  0  0
    0.5563    2.3672   -0.7317 C   0  0  0  0  0  0  0  0  0  0  0  0
   -0.6368    2.6758   -0.0468 C   0  0  0  0  0  0  0  0  0  0  0  0
   -1.6301    1.6939    0.1162 C   0  0  0  0  0  0  0  0  0  0  0  0
   -1.4209    0.4548   -0.4785 C   0  0  0  0  0  0  0  0  0  0  0  0
   -2.3348   -0.7205   -0.3783 C   0  0  1  0  0  0  0  0  0  0  0  0
   -3.4622   -0.5673   -1.4485 C   0  0  0  0  0  0  0  0  0  0  0  0
   -4.8545   -0.2955   -0.8484 C   0  0  0  0  0  0  0  0  0  0  0  0
   -4.8447    0.6712    0.2774 N   0  0  0  0  0  0  0  0  0  0  0  0
   -5.3371    2.0046   -0.0989 C   0  0  0  0  0  0  0  0  0  0  0  0
   -3.6949    0.6060    1.2353 C   0  0  2  0  0  0  0  0  0  0  0  0
   -2.7138    1.8362    1.1571 C   0  0  0  0  0  0  0  0  0  0  0  0
   -2.9246   -0.7381    1.0534 C   0  0  2  0  0  0  0  0  0  0  0  0
   -1.8284   -0.9792    2.0682 C   0  0  0  0  0  0  0  0  0  0  0  0
   -0.8932   -1.9049    1.8063 C   0  0  0  0  0  0  0  0  0  0  0  0
   -0.9925   -2.7515    0.5527 C   0  0  2  0  0  0  0  0  0  0  0  0
    0.2055   -3.4512    0.3392 O   0  0  0  0  0  0  0  0  0  0  0  0
   -1.7268   -2.5831   -1.4809 H   0  0  0  0  0  0  0  0  0  0  0  0
    1.8383   -1.1148   -2.6012 H   0  0  0  0  0  0  0  0  0  0  0  0
    3.4513   -0.4186   -2.7111 H   0  0  0  0  0  0  0  0  0  0  0  0
    3.3179   -2.3060   -1.0550 H   0  0  0  0  0  0  0  0  0  0  0  0
    2.1199   -1.4278   -0.0922 H   0  0  0  0  0  0  0  0  0  0  0  0
    2.9949   -0.0375    1.7104 H   0  0  0  0  0  0  0  0  0  0  0  0
    3.1395    1.1978    0.4108 H   0  0  0  0  0  0  0  0  0  0  0  0
    5.1200    2.0240    1.2417 H   0  0  0  0  0  0  0  0  0  0  0  0
    4.6697    1.1506    2.7330 H   0  0  0  0  0  0  0  0  0  0  0  0
    7.2239   -0.6910    0.1071 H   0  0  0  0  0  0  0  0  0  0  0  0
    6.9129    1.0512   -0.1309 H   0  0  0  0  0  0  0  0  0  0  0  0
    5.5917   -1.0981   -1.4399 H   0  0  0  0  0  0  0  0  0  0  0  0
    5.0345    0.6210   -1.3868 H   0  0  0  0  0  0  0  0  0  0  0  0
    1.3200    3.1271   -0.8377 H   0  0  0  0  0  0  0  0  0  0  0  0
   -0.7561    3.6522    0.4055 H   0  0  0  0  0  0  0  0  0  0  0  0
   -3.2288    0.2508   -2.1672 H   0  0  0  0  0  0  0  0  0  0  0  0
   -3.5516   -1.4870   -2.0642 H   0  0  0  0  0  0  0  0  0  0  0  0
   -5.5385    0.0307   -1.6637 H   0  0  0  0  0  0  0  0  0  0  0  0
   -5.2760   -1.2546   -0.4776 H   0  0  0  0  0  0  0  0  0  0  0  0
   -5.4712    2.6356    0.8051 H   0  0  0  0  0  0  0  0  0  0  0  0
   -6.3381    1.9218   -0.5736 H   0  0  0  0  0  0  0  0  0  0  0  0
   -4.6416    2.4901   -0.8173 H   0  0  0  0  0  0  0  0  0  0  0  0
   -4.1313    0.6040    2.2582 H   0  0  0  0  0  0  0  0  0  0  0  0
   -3.2249    2.8105    1.0408 H   0  0  0  0  0  0  0  0  0  0  0  0
   -2.2004    1.9089    2.1402 H   0  0  0  0  0  0  0  0  0  0  0  0
   -3.6360   -1.5877    1.1541 H   0  0  0  0  0  0  0  0  0  0  0  0
   -1.7483   -0.3664    2.9606 H   0  0  0  0  0  0  0  0  0  0  0  0
   -0.0606   -2.0364    2.4909 H   0  0  0  0  0  0  0  0  0  0  0  0
   -1.8254   -3.4784    0.6996 H   0  0  0  0  0  0  0  0  0  0  0  0
    0.2377   -4.1785    1.0146 H   0  0  0  0  0  0  0  0  0  0  0  0
  1  2  1  0
  2  3  1  0
  3  4  2  0
  4  5  1  0
  5  6  1  0
  6  7  1  0
  7  8  1  0
  8  9  1  0
  9 10  1  0
 10 11  1  0
 11 12  1  0
 12 13  1  0
  4 14  1  0
 14 15  2  0
 15 16  1  0
 16 17  2  0
 17 18  1  0
 18 19  1  6
 19 20  1  0
 20 21  1  0
 21 22  1  0
 21 23  1  0
 23 24  1  0
 23 25  1  0
 25 26  1  0
 26 27  2  0
 27 28  1  0
 28 29  1  0
 18  1  1  0
 25 18  1  0
 28  1  1  0
 17  3  1  0
 13  8  1  0
 24 16  1  0
  1 30  1  6
  6 31  1  0
  6 32  1  0
  7 33  1  0
  7 34  1  0
  9 35  1  0
  9 36  1  0
 10 37  1  0
 10 38  1  0
 12 39  1  0
 12 40  1  0
 13 41  1  0
 13 42  1  0
 14 43  1  0
 15 44  1  0
 19 45  1  0
 19 46  1  0
 20 47  1  0
 20 48  1  0
 22 49  1  0
 22 50  1  0
 22 51  1  0
 23 52  1  1
 24 53  1  0
 24 54  1  0
 25 55  1  6
 26 56  1  0
 27 57  1  0
 28 58  1  1
 29 59  1  0
M  END
$$$$
