
     RDKit          3D

 54 57  0  0  0  0  0  0  0  0999 V2000
   -2.6841   -0.3303   -1.3140 O   0  0  0  0  0  0  0  0  0  0  0  0
   -1.8948    0.1205   -0.2427 C   0  0  0  0  0  0  0  0  0  0  0  0
   -0.7538   -0.8886    0.0172 C   0  0  0  0  0  0  0  0  0  0  0  0
    0.2149   -0.9500   -1.0898 N   0  0  0  0  0  0  0  0  0  0  0  0
    1.0670    0.2474   -1.1685 C   0  0  0  0  0  0  0  0  0  0  0  0
    2.4050   -0.0712   -1.8633 C   0  0  0  0  0  0  0  0  0  0  0  0
    2.1914   -0.4038   -3.2136 O   0  0  0  0  0  0  0  0  0  0  0  0
    3.2081   -1.1754   -1.1232 C   0  0  0  0  0  0  0  0  0  0  0  0
    4.5570   -1.4885   -1.8030 C   0  0  0  0  0  0  0  0  0  0  0  0
    5.5533   -0.3278   -1.6589 C   0  0  0  0  0  0  0  0  0  0  0  0
    5.6002    0.2049   -0.2493 C   0  0  0  0  0  0  0  0  0  0  0  0
    4.5309   -0.0300    0.6380 C   0  0  0  0  0  0  0  0  0  0  0  0
    3.4288   -0.7934    0.2370 O   0  0  0  0  0  0  0  0  0  0  0  0
    4.5758    0.4835    1.9383 C   0  0  0  0  0  0  0  0  0  0  0  0
    5.6694    1.2482    2.3538 C   0  0  0  0  0  0  0  0  0  0  0  0
    6.7230    1.5018    1.4707 C   0  0  0  0  0  0  0  0  0  0  0  0
    7.7792    2.2501    1.8739 F   0  0  0  0  0  0  0  0  0  0  0  0
    6.6878    0.9858    0.1712 C   0  0  0  0  0  0  0  0  0  0  0  0
   -2.7575    0.3775    1.0224 C   0  0  0  0  0  0  0  0  0  0  0  0
   -3.4444   -0.8689    1.6268 C   0  0  0  0  0  0  0  0  0  0  0  0
   -4.6161   -1.3650    0.7689 C   0  0  0  0  0  0  0  0  0  0  0  0
   -5.5098   -0.2340    0.3281 C   0  0  0  0  0  0  0  0  0  0  0  0
   -5.0325    1.0924    0.3178 C   0  0  0  0  0  0  0  0  0  0  0  0
   -3.7320    1.3868    0.7456 O   0  0  0  0  0  0  0  0  0  0  0  0
   -5.8670    2.1314   -0.1079 C   0  0  0  0  0  0  0  0  0  0  0  0
   -7.1659    1.8557   -0.5437 C   0  0  0  0  0  0  0  0  0  0  0  0
   -7.6363    0.5395   -0.5555 C   0  0  0  0  0  0  0  0  0  0  0  0
   -8.8943    0.2739   -0.9859 F   0  0  0  0  0  0  0  0  0  0  0  0
   -6.8104   -0.5036   -0.1250 C   0  0  0  0  0  0  0  0  0  0  0  0
   -3.0840    0.4715   -1.7413 H   0  0  0  0  0  0  0  0  0  0  0  0
   -1.4308    1.0982   -0.5086 H   0  0  0  0  0  0  0  0  0  0  0  0
   -0.2305   -0.6486    0.9693 H   0  0  0  0  0  0  0  0  0  0  0  0
   -1.1862   -1.9040    0.1383 H   0  0  0  0  0  0  0  0  0  0  0  0
   -0.2971   -1.0699   -1.9951 H   0  0  0  0  0  0  0  0  0  0  0  0
    0.5492    1.0467   -1.7440 H   0  0  0  0  0  0  0  0  0  0  0  0
    1.2858    0.6533   -0.1554 H   0  0  0  0  0  0  0  0  0  0  0  0
    2.9992    0.8671   -1.8434 H   0  0  0  0  0  0  0  0  0  0  0  0
    1.7678   -1.3009   -3.2428 H   0  0  0  0  0  0  0  0  0  0  0  0
    2.6064   -2.1101   -1.1214 H   0  0  0  0  0  0  0  0  0  0  0  0
    4.4101   -1.7267   -2.8782 H   0  0  0  0  0  0  0  0  0  0  0  0
    4.9925   -2.3913   -1.3209 H   0  0  0  0  0  0  0  0  0  0  0  0
    6.5619   -0.6874   -1.9580 H   0  0  0  0  0  0  0  0  0  0  0  0
    5.2736    0.4969   -2.3482 H   0  0  0  0  0  0  0  0  0  0  0  0
    3.7599    0.2942    2.6242 H   0  0  0  0  0  0  0  0  0  0  0  0
    5.6978    1.6468    3.3597 H   0  0  0  0  0  0  0  0  0  0  0  0
    7.5069    1.1918   -0.5068 H   0  0  0  0  0  0  0  0  0  0  0  0
   -2.0762    0.7862    1.8006 H   0  0  0  0  0  0  0  0  0  0  0  0
   -3.8441   -0.5883    2.6264 H   0  0  0  0  0  0  0  0  0  0  0  0
   -2.7212   -1.6919    1.7976 H   0  0  0  0  0  0  0  0  0  0  0  0
   -4.2341   -1.9019   -0.1241 H   0  0  0  0  0  0  0  0  0  0  0  0
   -5.2053   -2.0947    1.3659 H   0  0  0  0  0  0  0  0  0  0  0  0
   -5.5056    3.1518   -0.1065 H   0  0  0  0  0  0  0  0  0  0  0  0
   -7.8061    2.6628   -0.8758 H   0  0  0  0  0  0  0  0  0  0  0  0
   -7.1831   -1.5204   -0.1420 H   0  0  0  0  0  0  0  0  0  0  0  0
  1  2  1  0
  2  3  1  0
  3  4  1  0
  4  5  1  0
  5  6  1  0
  6  7  1  0
  6  8  1  0
  8  9  1  0
  9 10  1  0
 10 11  1  0
 11 12  2  0
 12 13  1  0
 12 14  1  0
 14 15  2  0
 15 16  1  0
 16 17  1  0
 16 18  2  0
  2 19  1  0
 19 20  1  0
 20 21  1  0
 21 22  1  0
 22 23  2  0
 23 24  1  0
 23 25  1  0
 25 26  2  0
 26 27  1  0
 27 28  1  0
 27 29  2  0
 13  8  1  0
 24 19  1  0
 18 11  1  0
 29 22  1  0
  1 30  1  0
  2 31  1  0
  3 32  1  0
  3 33  1  0
  4 34  1  0
  5 35  1  0
  5 36  1  0
  6 37  1  0
  7 38  1  0
  8 39  1  0
  9 40  1  0
  9 41  1  0
 10 42  1  0
 10 43  1  0
 14 44  1  0
 15 45  1  0
 18 46  1  0
 19 47  1  0
 20 48  1  0
 20 49  1  0
 21 50  1  0
 21 51  1  0
 25 52  1  0
 26 53  1  0
 29 54  1  0
M  END
$$$$
