
     RDKit          3D

 38 38  0  0  0  0  0  0  0  0999 V2000
   -3.4687   -1.0066   -1.2163 C   0  0  0  0  0  0  0  0  0  0  0  0
   -2.9728   -0.3333    0.0841 C   0  0  0  0  0  0  0  0  0  0  0  0
   -3.3768   -1.1899    1.3060 C   0  0  0  0  0  0  0  0  0  0  0  0
   -3.7301    1.0142    0.2096 C   0  0  0  0  0  0  0  0  0  0  0  0
   -1.4292   -0.1619    0.0403 C   0  0  0  0  0  0  0  0  0  0  0  0
   -0.8240    1.1123    0.1109 C   0  0  0  0  0  0  0  0  0  0  0  0
    0.5667    1.2803    0.0724 C   0  0  0  0  0  0  0  0  0  0  0  0
    1.0795    2.5751    0.1479 O   0  0  0  0  0  0  0  0  0  0  0  0
    1.4292    0.1619   -0.0403 C   0  0  0  0  0  0  0  0  0  0  0  0
    0.8240   -1.1124   -0.1109 C   0  0  0  0  0  0  0  0  0  0  0  0
   -0.5667   -1.2803   -0.0724 C   0  0  0  0  0  0  0  0  0  0  0  0
   -1.0795   -2.5751   -0.1478 O   0  0  0  0  0  0  0  0  0  0  0  0
    2.9728    0.3333   -0.0841 C   0  0  0  0  0  0  0  0  0  0  0  0
    3.4687    1.0066    1.2162 C   0  0  0  0  0  0  0  0  0  0  0  0
    3.3767    1.1899   -1.3061 C   0  0  0  0  0  0  0  0  0  0  0  0
    3.7301   -1.0142   -0.2097 C   0  0  0  0  0  0  0  0  0  0  0  0
   -3.1131   -2.0505   -1.3142 H   0  0  0  0  0  0  0  0  0  0  0  0
   -3.1204   -0.4341   -2.1031 H   0  0  0  0  0  0  0  0  0  0  0  0
   -4.5795   -1.0450   -1.2418 H   0  0  0  0  0  0  0  0  0  0  0  0
   -3.0206   -2.2352    1.2261 H   0  0  0  0  0  0  0  0  0  0  0  0
   -2.9622   -0.7497    2.2387 H   0  0  0  0  0  0  0  0  0  0  0  0
   -4.4830   -1.2374    1.4061 H   0  0  0  0  0  0  0  0  0  0  0  0
   -3.4531    1.5404    1.1489 H   0  0  0  0  0  0  0  0  0  0  0  0
   -3.5191    1.6720   -0.6613 H   0  0  0  0  0  0  0  0  0  0  0  0
   -4.8297    0.8510    0.2378 H   0  0  0  0  0  0  0  0  0  0  0  0
   -1.4152    2.0102    0.1977 H   0  0  0  0  0  0  0  0  0  0  0  0
    0.4809    3.3888    0.2288 H   0  0  0  0  0  0  0  0  0  0  0  0
    1.4152   -2.0102   -0.1976 H   0  0  0  0  0  0  0  0  0  0  0  0
   -0.4809   -3.3888   -0.2287 H   0  0  0  0  0  0  0  0  0  0  0  0
    3.1204    0.4341    2.1031 H   0  0  0  0  0  0  0  0  0  0  0  0
    3.1132    2.0505    1.3141 H   0  0  0  0  0  0  0  0  0  0  0  0
    4.5795    1.0450    1.2417 H   0  0  0  0  0  0  0  0  0  0  0  0
    2.9621    0.7497   -2.2387 H   0  0  0  0  0  0  0  0  0  0  0  0
    3.0206    2.2351   -1.2261 H   0  0  0  0  0  0  0  0  0  0  0  0
    4.4830    1.2374   -1.4061 H   0  0  0  0  0  0  0  0  0  0  0  0
    3.4531   -1.5404   -1.1489 H   0  0  0  0  0  0  0  0  0  0  0  0
    4.8297   -0.8510   -0.2379 H   0  0  0  0  0  0  0  0  0  0  0  0
    3.5191   -1.6720    0.6613 H   0  0  0  0  0  0  0  0  0  0  0  0
  1  2  1  0
  2  3  1  0
  2  4  1  0
  2  5  1  0
  5  6  2  0
  6  7  1  0
  7  8  1  0
  7  9  2  0
  9 10  1  0
 10 11  2  0
 11 12  1  0
  9 13  1  0
 13 14  1  0
 13 15  1  0
 13 16  1  0
 11  5  1  0
  1 17  1  0
  1 18  1  0
  1 19  1  0
  3 20  1  0
  3 21  1  0
  3 22  1  0
  4 23  1  0
  4 24  1  0
  4 25  1  0
  6 26  1  0
  8 27  1  0
 10 28  1  0
 12 29  1  0
 14 30  1  0
 14 31  1  0
 14 32  1  0
 15 33  1  0
 15 34  1  0
 15 35  1  0
 16 36  1  0
 16 37  1  0
 16 38  1  0
M  END
$$$$
