
     RDKit          3D

 56 59  0  0  0  0  0  0  0  0999 V2000
    1.4445   -0.9771    0.9149 C   0  0  2  0  0  0  0  0  0  0  0  0
    1.2385   -2.4864    1.1023 C   0  0  0  0  0  0  0  0  0  0  0  0
    2.7092   -0.4743    1.6475 C   0  0  0  0  0  0  0  0  0  0  0  0
    4.0316   -0.9627    1.0310 C   0  0  0  0  0  0  0  0  0  0  0  0
    4.2204   -0.4618   -0.3786 C   0  0  0  0  0  0  0  0  0  0  0  0
    4.0177   -1.3196   -1.4726 C   0  0  0  0  0  0  0  0  0  0  0  0
    4.1624   -0.8424   -2.7788 C   0  0  0  0  0  0  0  0  0  0  0  0
    4.5075    0.4937   -3.0060 C   0  0  0  0  0  0  0  0  0  0  0  0
    4.6469    0.9555   -4.3128 O   0  0  0  0  0  0  0  0  0  0  0  0
    4.7084    1.3545   -1.9186 C   0  0  0  0  0  0  0  0  0  0  0  0
    4.5642    0.8799   -0.6115 C   0  0  0  0  0  0  0  0  0  0  0  0
    0.2724   -0.2540    1.4163 N   0  0  0  0  0  0  0  0  0  0  0  0
   -0.0702    1.0619    0.9563 C   0  0  0  0  0  0  0  0  0  0  0  0
    0.6823    1.6714    0.1482 O   0  0  0  0  0  0  0  0  0  0  0  0
   -1.3570    1.6976    1.3834 C   0  0  0  0  0  0  0  0  0  0  0  0
   -2.4242    1.4251    0.3595 C   0  0  0  0  0  0  0  0  0  0  0  0
   -3.1207    0.2275    0.1477 C   0  0  0  0  0  0  0  0  0  0  0  0
   -3.8371    0.2890   -0.9996 N   0  0  0  0  0  0  0  0  0  0  0  0
   -3.6038    1.5057   -1.5180 C   0  0  0  0  0  0  0  0  0  0  0  0
   -2.7412    2.2223   -0.7271 C   0  0  0  0  0  0  0  0  0  0  0  0
   -2.2999    3.4954   -1.0945 C   0  0  0  0  0  0  0  0  0  0  0  0
   -2.7862    4.0390   -2.2973 C   0  0  0  0  0  0  0  0  0  0  0  0
   -3.6821    3.3043   -3.1042 C   0  0  0  0  0  0  0  0  0  0  0  0
   -4.0964    2.0172   -2.7178 C   0  0  0  0  0  0  0  0  0  0  0  0
   -3.0391   -0.9904    0.9752 C   0  0  0  0  0  0  0  0  0  0  0  0
   -2.7490   -2.2250    0.3731 C   0  0  0  0  0  0  0  0  0  0  0  0
   -2.6538   -3.3827    1.1514 C   0  0  0  0  0  0  0  0  0  0  0  0
   -2.8596   -3.3172    2.5320 C   0  0  0  0  0  0  0  0  0  0  0  0
   -3.1709   -2.0955    3.1349 C   0  0  0  0  0  0  0  0  0  0  0  0
   -3.2668   -0.9356    2.3599 C   0  0  0  0  0  0  0  0  0  0  0  0
    1.5340   -0.7867   -0.1766 H   0  0  0  0  0  0  0  0  0  0  0  0
    2.0528   -3.0598    0.6143 H   0  0  0  0  0  0  0  0  0  0  0  0
    0.2820   -2.7950    0.6302 H   0  0  0  0  0  0  0  0  0  0  0  0
    1.2023   -2.7477    2.1816 H   0  0  0  0  0  0  0  0  0  0  0  0
    2.6698   -0.7964    2.7111 H   0  0  0  0  0  0  0  0  0  0  0  0
    2.7156    0.6373    1.6529 H   0  0  0  0  0  0  0  0  0  0  0  0
    4.8707   -0.5880    1.6567 H   0  0  0  0  0  0  0  0  0  0  0  0
    4.0907   -2.0708    1.0696 H   0  0  0  0  0  0  0  0  0  0  0  0
    3.7414   -2.3546   -1.3151 H   0  0  0  0  0  0  0  0  0  0  0  0
    4.0031   -1.5109   -3.6153 H   0  0  0  0  0  0  0  0  0  0  0  0
    4.8954    1.9178   -4.5105 H   0  0  0  0  0  0  0  0  0  0  0  0
    4.9734    2.3908   -2.0851 H   0  0  0  0  0  0  0  0  0  0  0  0
    4.7166    1.5579    0.2192 H   0  0  0  0  0  0  0  0  0  0  0  0
   -0.3505   -0.7152    2.1177 H   0  0  0  0  0  0  0  0  0  0  0  0
   -1.6602    1.3112    2.3761 H   0  0  0  0  0  0  0  0  0  0  0  0
   -1.2101    2.7916    1.5023 H   0  0  0  0  0  0  0  0  0  0  0  0
   -4.4319   -0.4645   -1.4120 H   0  0  0  0  0  0  0  0  0  0  0  0
   -1.6054    4.0530   -0.4807 H   0  0  0  0  0  0  0  0  0  0  0  0
   -2.4675    5.0253   -2.6085 H   0  0  0  0  0  0  0  0  0  0  0  0
   -4.0459    3.7308   -4.0299 H   0  0  0  0  0  0  0  0  0  0  0  0
   -4.7704    1.4399   -3.3375 H   0  0  0  0  0  0  0  0  0  0  0  0
   -2.5764   -2.2879   -0.6943 H   0  0  0  0  0  0  0  0  0  0  0  0
   -2.4164   -4.3298    0.6846 H   0  0  0  0  0  0  0  0  0  0  0  0
   -2.7844   -4.2139    3.1334 H   0  0  0  0  0  0  0  0  0  0  0  0
   -3.3428   -2.0480    4.2024 H   0  0  0  0  0  0  0  0  0  0  0  0
   -3.5338   -0.0017    2.8377 H   0  0  0  0  0  0  0  0  0  0  0  0
  1  2  1  0
  1  3  1  0
  3  4  1  0
  4  5  1  0
  5  6  2  0
  6  7  1  0
  7  8  2  0
  8  9  1  0
  8 10  1  0
 10 11  2  0
  1 12  1  0
 12 13  1  0
 13 14  2  0
 13 15  1  0
 15 16  1  0
 16 17  2  0
 17 18  1  0
 18 19  1  0
 19 20  2  0
 20 21  1  0
 21 22  2  0
 22 23  1  0
 23 24  2  0
 17 25  1  0
 25 26  2  0
 26 27  1  0
 27 28  2  0
 28 29  1  0
 29 30  2  0
 11  5  1  0
 20 16  1  0
 30 25  1  0
 24 19  1  0
  1 31  1  6
  2 32  1  0
  2 33  1  0
  2 34  1  0
  3 35  1  0
  3 36  1  0
  4 37  1  0
  4 38  1  0
  6 39  1  0
  7 40  1  0
  9 41  1  0
 10 42  1  0
 11 43  1  0
 12 44  1  0
 15 45  1  0
 15 46  1  0
 18 47  1  0
 21 48  1  0
 22 49  1  0
 23 50  1  0
 24 51  1  0
 26 52  1  0
 27 53  1  0
 28 54  1  0
 29 55  1  0
 30 56  1  0
M  END
$$$$
