
     RDKit          3D

 34 36  0  0  0  0  0  0  0  0999 V2000
    1.9505   -0.8746    1.6303 N   0  0  0  0  0  0  0  0  0  0  0  0
    0.6921   -0.4100    1.4418 C   0  0  0  0  0  0  0  0  0  0  0  0
    0.5953    0.3807    0.3437 N   0  0  0  0  0  4  0  0  0  0  0  0
   -0.6215    0.9388   -0.2519 C   0  0  2  0  0  0  0  0  0  0  0  0
   -1.5534    1.2474    0.7667 O   0  0  0  0  0  0  0  0  0  0  0  0
   -2.7915    0.6909    0.3891 C   0  0  2  0  0  0  0  0  0  0  0  0
   -3.6058    0.3069    1.6315 C   0  0  0  0  0  0  0  0  0  0  0  0
   -2.8563   -0.5096    2.4931 O   0  0  0  0  0  0  0  0  0  0  0  0
   -2.5191   -0.4917   -0.5291 C   0  0  1  0  0  0  0  0  0  0  0  0
   -3.5857   -0.6961   -1.4194 O   0  0  0  0  0  0  0  0  0  0  0  0
   -1.2477   -0.0659   -1.2319 C   0  0  1  0  0  0  0  0  0  0  0  0
   -1.5006    0.5290   -2.4846 O   0  0  0  0  0  0  0  0  0  0  0  0
    1.8398    0.3827   -0.1679 C   0  0  0  0  0  0  0  0  0  0  0  0
    2.6605   -0.3642    0.6088 C   0  0  0  0  0  0  0  0  0  0  0  0
    4.0849   -0.6555    0.2345 C   0  0  2  0  0  0  0  0  0  0  0  0
    4.9444   -0.1881    1.2379 O   0  0  0  0  0  0  0  0  0  0  0  0
    4.4397   -0.0033   -1.0436 N   0  0  0  0  0  0  0  0  0  0  0  0
    3.6327    0.7046   -1.7936 C   0  0  0  0  0  0  0  0  0  0  0  0
    2.2674    0.9304   -1.4095 N   0  0  0  0  0  0  0  0  0  0  0  0
    2.2815   -1.5278    2.3743 H   0  0  0  0  0  0  0  0  0  0  0  0
   -0.1444   -0.6777    2.0735 H   0  0  0  0  0  0  0  0  0  0  0  0
   -0.3622    1.8855   -0.7750 H   0  0  0  0  0  0  0  0  0  0  0  0
   -3.3649    1.4667   -0.1689 H   0  0  0  0  0  0  0  0  0  0  0  0
   -4.5592   -0.1862    1.3283 H   0  0  0  0  0  0  0  0  0  0  0  0
   -3.8757    1.2344    2.1797 H   0  0  0  0  0  0  0  0  0  0  0  0
   -3.1247   -1.4480    2.3136 H   0  0  0  0  0  0  0  0  0  0  0  0
   -2.3211   -1.4148    0.0640 H   0  0  0  0  0  0  0  0  0  0  0  0
   -3.4028   -1.5551   -1.8820 H   0  0  0  0  0  0  0  0  0  0  0  0
   -0.5910   -0.9496   -1.3929 H   0  0  0  0  0  0  0  0  0  0  0  0
   -2.0856    1.3189   -2.3407 H   0  0  0  0  0  0  0  0  0  0  0  0
    4.2043   -1.7553    0.1073 H   0  0  0  0  0  0  0  0  0  0  0  0
    4.8961   -0.8410    1.9847 H   0  0  0  0  0  0  0  0  0  0  0  0
    4.0028    1.1289   -2.7171 H   0  0  0  0  0  0  0  0  0  0  0  0
    1.6211    1.4687   -2.0272 H   0  0  0  0  0  0  0  0  0  0  0  0
  1  2  1  0
  2  3  2  0
  3  4  1  0
  4  5  1  0
  5  6  1  0
  6  7  1  0
  7  8  1  0
  6  9  1  0
  9 10  1  0
  9 11  1  0
 11 12  1  0
  3 13  1  0
 13 14  2  0
 14 15  1  0
 15 16  1  0
 15 17  1  0
 17 18  2  0
 18 19  1  0
 14  1  1  0
 11  4  1  0
 19 13  1  0
  1 20  1  0
  2 21  1  0
  4 22  1  6
  6 23  1  6
  7 24  1  0
  7 25  1  0
  8 26  1  0
  9 27  1  1
 10 28  1  0
 11 29  1  6
 12 30  1  0
 15 31  1  6
 16 32  1  0
 18 33  1  0
 19 34  1  0
M  CHG  1   3   1
M  END
$$$$
