
     RDKit          3D

 86 90  0  0  0  0  0  0  0  0999 V2000
   -4.2180   -3.6391   -0.0774 C   0  0  0  0  0  0  0  0  0  0  0  0
   -2.8210   -3.0878   -0.0112 C   0  0  0  0  0  0  0  0  0  0  0  0
   -1.7026   -3.7271    0.5072 C   0  0  0  0  0  0  0  0  0  0  0  0
   -1.6510   -5.1284    1.0621 C   0  0  0  0  0  0  0  0  0  0  0  0
   -1.2802   -6.1268   -0.0359 C   0  0  0  0  0  0  0  0  0  0  0  0
   -1.2112   -7.5133    0.5198 C   0  0  0  0  0  0  0  0  0  0  0  0
   -0.0229   -7.9789    1.0738 O   0  0  0  0  0  0  0  0  0  0  0  0
   -2.2376   -8.2444    0.5234 O   0  0  0  0  0  0  0  0  0  0  0  0
   -0.6414   -2.8345    0.3795 C   0  0  0  0  0  0  0  0  0  0  0  0
    0.6876   -3.1099    0.7570 C   0  0  0  0  0  0  0  0  0  0  0  0
    1.7418   -2.1869    0.8221 C   0  0  0  0  0  0  0  0  0  0  0  0
    1.6267   -0.8651    0.5847 N   0  0  0  0  0  0  0  0  0  0  0  0
    2.8269   -0.3094    0.8433 C   0  0  0  0  0  0  0  0  0  0  0  0
    3.1500    1.0405    0.6386 C   0  0  0  0  0  0  0  0  0  0  0  0
    2.2883    2.0440    0.1539 C   0  0  0  0  0  0  0  0  0  0  0  0
    2.6953    3.3251   -0.2022 C   0  0  0  0  0  0  0  0  0  0  0  0
    4.0973    3.8643   -0.1328 C   0  0  0  0  0  0  0  0  0  0  0  0
    1.5721    3.9736   -0.7031 C   0  0  0  0  0  0  0  0  0  0  0  0
    1.5055    5.3886   -1.2303 C   0  0  0  0  0  0  0  0  0  0  0  0
    0.9870    6.3680   -0.1701 C   0  0  0  0  0  0  0  0  0  0  0  0
    1.9554    6.5215    0.9617 C   0  0  0  0  0  0  0  0  0  0  0  0
    1.8519    5.6986    2.0789 O   0  0  0  0  0  0  0  0  0  0  0  0
    2.8867    7.3669    0.8859 O   0  0  0  0  0  0  0  0  0  0  0  0
    0.5150    3.0728   -0.5938 C   0  0  0  0  0  0  0  0  0  0  0  0
    0.9591    1.9146   -0.0552 N   0  0  0  0  0  0  0  0  0  0  0  0
   -0.8113    3.3424   -0.9860 C   0  0  0  0  0  0  0  0  0  0  0  0
   -1.8628    2.4169   -1.0613 C   0  0  0  0  0  0  0  0  0  0  0  0
   -1.7497    1.0964   -0.8157 N   0  0  0  0  0  0  0  0  0  0  0  0
   -2.9465    0.5385   -1.0857 C   0  0  0  0  0  0  0  0  0  0  0  0
   -3.2718   -0.8101   -0.8756 C   0  0  0  0  0  0  0  0  0  0  0  0
   -2.4129   -1.8105   -0.3803 C   0  0  0  0  0  0  0  0  0  0  0  0
   -1.0828   -1.6817   -0.1733 N   0  0  0  0  0  0  0  0  0  0  0  0
   -3.8828    1.5685   -1.5534 C   0  0  0  0  0  0  0  0  0  0  0  0
   -5.3215    1.3646   -1.9504 C   0  0  0  0  0  0  0  0  0  0  0  0
   -6.2315    1.4273   -0.7221 C   0  0  0  0  0  0  0  0  0  0  0  0
   -7.6558    1.1974   -1.1148 C   0  0  0  0  0  0  0  0  0  0  0  0
   -8.1568   -0.0992   -1.1747 O   0  0  0  0  0  0  0  0  0  0  0  0
   -8.3896    2.1721   -1.4301 O   0  0  0  0  0  0  0  0  0  0  0  0
   -3.2289    2.7273   -1.4996 C   0  0  0  0  0  0  0  0  0  0  0  0
   -3.7617    4.0757   -1.8914 C   0  0  0  0  0  0  0  0  0  0  0  0
    3.7675   -1.3423    1.2960 C   0  0  0  0  0  0  0  0  0  0  0  0
    5.2106   -1.1415    1.6785 C   0  0  0  0  0  0  0  0  0  0  0  0
    6.1069   -1.1960    0.4398 C   0  0  0  0  0  0  0  0  0  0  0  0
    7.5376   -0.9864    0.8205 C   0  0  0  0  0  0  0  0  0  0  0  0
    8.3224   -2.0739    1.1905 O   0  0  0  0  0  0  0  0  0  0  0  0
    8.0206    0.1773    0.8455 O   0  0  0  0  0  0  0  0  0  0  0  0
    3.1123   -2.5005    1.2436 C   0  0  0  0  0  0  0  0  0  0  0  0
    3.6482   -3.8510    1.6237 C   0  0  0  0  0  0  0  0  0  0  0  0
   -4.6952   -3.3613   -1.0395 H   0  0  0  0  0  0  0  0  0  0  0  0
   -4.8174   -3.2330    0.7635 H   0  0  0  0  0  0  0  0  0  0  0  0
   -4.2165   -4.7463   -0.0241 H   0  0  0  0  0  0  0  0  0  0  0  0
   -2.6340   -5.3982    1.5031 H   0  0  0  0  0  0  0  0  0  0  0  0
   -0.9147   -5.1809    1.8920 H   0  0  0  0  0  0  0  0  0  0  0  0
   -0.2917   -5.8618   -0.4700 H   0  0  0  0  0  0  0  0  0  0  0  0
   -2.0365   -6.0908   -0.8505 H   0  0  0  0  0  0  0  0  0  0  0  0
    0.0361   -8.9095    1.4695 H   0  0  0  0  0  0  0  0  0  0  0  0
    0.9136   -4.1171    1.0741 H   0  0  0  0  0  0  0  0  0  0  0  0
    4.1801    1.3182    0.8092 H   0  0  0  0  0  0  0  0  0  0  0  0
    4.5433    3.6320    0.8564 H   0  0  0  0  0  0  0  0  0  0  0  0
    4.7122    3.4007   -0.9319 H   0  0  0  0  0  0  0  0  0  0  0  0
    4.1220    4.9647   -0.2509 H   0  0  0  0  0  0  0  0  0  0  0  0
    0.8312    5.4194   -2.1118 H   0  0  0  0  0  0  0  0  0  0  0  0
    2.4962    5.7207   -1.6036 H   0  0  0  0  0  0  0  0  0  0  0  0
    0.0077    6.0228    0.2256 H   0  0  0  0  0  0  0  0  0  0  0  0
    0.8233    7.3597   -0.6446 H   0  0  0  0  0  0  0  0  0  0  0  0
    2.5135    5.7734    2.8421 H   0  0  0  0  0  0  0  0  0  0  0  0
    0.3726    1.1121    0.2339 H   0  0  0  0  0  0  0  0  0  0  0  0
   -1.0360    4.3474   -1.3109 H   0  0  0  0  0  0  0  0  0  0  0  0
   -4.3015   -1.0869   -1.0482 H   0  0  0  0  0  0  0  0  0  0  0  0
   -0.4936   -0.8868   -0.4787 H   0  0  0  0  0  0  0  0  0  0  0  0
   -5.4294    0.3795   -2.4524 H   0  0  0  0  0  0  0  0  0  0  0  0
   -5.6275    2.1348   -2.6908 H   0  0  0  0  0  0  0  0  0  0  0  0
   -6.1380    2.4210   -0.2317 H   0  0  0  0  0  0  0  0  0  0  0  0
   -5.9294    0.6500    0.0129 H   0  0  0  0  0  0  0  0  0  0  0  0
   -9.1146   -0.2735   -1.4549 H   0  0  0  0  0  0  0  0  0  0  0  0
   -3.5392    4.2649   -2.9618 H   0  0  0  0  0  0  0  0  0  0  0  0
   -4.8572    4.1349   -1.7269 H   0  0  0  0  0  0  0  0  0  0  0  0
   -3.2938    4.8686   -1.2730 H   0  0  0  0  0  0  0  0  0  0  0  0
    5.3247   -0.1600    2.1860 H   0  0  0  0  0  0  0  0  0  0  0  0
    5.5243   -1.9170    2.4102 H   0  0  0  0  0  0  0  0  0  0  0  0
    6.0049   -2.1854   -0.0564 H   0  0  0  0  0  0  0  0  0  0  0  0
    5.7994   -0.4121   -0.2866 H   0  0  0  0  0  0  0  0  0  0  0  0
    9.2886   -1.9470    1.4671 H   0  0  0  0  0  0  0  0  0  0  0  0
    3.4414   -4.0428    2.6968 H   0  0  0  0  0  0  0  0  0  0  0  0
    3.1699   -4.6414    1.0102 H   0  0  0  0  0  0  0  0  0  0  0  0
    4.7411   -3.9114    1.4428 H   0  0  0  0  0  0  0  0  0  0  0  0
  1  2  1  0
  2  3  2  0
  3  4  1  0
  4  5  1  0
  5  6  1  0
  6  7  1  0
  6  8  2  0
  3  9  1  0
  9 10  2  0
 10 11  1  0
 11 12  2  0
 12 13  1  0
 13 14  2  0
 14 15  1  0
 15 16  2  0
 16 17  1  0
 16 18  1  0
 18 19  1  0
 19 20  1  0
 20 21  1  0
 21 22  1  0
 21 23  2  0
 18 24  2  0
 24 25  1  0
 24 26  1  0
 26 27  2  0
 27 28  1  0
 28 29  2  0
 29 30  1  0
 30 31  2  0
 31 32  1  0
 29 33  1  0
 33 34  1  0
 34 35  1  0
 35 36  1  0
 36 37  1  0
 36 38  2  0
 33 39  2  0
 39 40  1  0
 13 41  1  0
 41 42  1  0
 42 43  1  0
 43 44  1  0
 44 45  1  0
 44 46  2  0
 41 47  2  0
 47 48  1  0
 31  2  1  0
 32  9  1  0
 47 11  1  0
 25 15  1  0
 39 27  1  0
  1 49  1  0
  1 50  1  0
  1 51  1  0
  4 52  1  0
  4 53  1  0
  5 54  1  0
  5 55  1  0
  7 56  1  0
 10 57  1  0
 14 58  1  0
 17 59  1  0
 17 60  1  0
 17 61  1  0
 19 62  1  0
 19 63  1  0
 20 64  1  0
 20 65  1  0
 22 66  1  0
 25 67  1  0
 26 68  1  0
 30 69  1  0
 32 70  1  0
 34 71  1  0
 34 72  1  0
 35 73  1  0
 35 74  1  0
 37 75  1  0
 40 76  1  0
 40 77  1  0
 40 78  1  0
 42 79  1  0
 42 80  1  0
 43 81  1  0
 43 82  1  0
 45 83  1  0
 48 84  1  0
 48 85  1  0
 48 86  1  0
M  END
$$$$
