
     RDKit          3D

 42 45  0  0  0  0  0  0  0  0999 V2000
    4.6815   -0.6590   -2.2596 N   0  0  0  0  0  0  0  0  0  0  0  0
    5.0700    0.3482   -1.3196 C   0  0  0  0  0  0  0  0  0  0  0  0
    6.3087    0.9018   -1.4360 N   0  0  0  0  0  0  0  0  0  0  0  0
    6.7764    1.8271   -0.5596 C   0  0  0  0  0  0  0  0  0  0  0  0
    5.9844    2.2356    0.5101 C   0  0  0  0  0  0  0  0  0  0  0  0
    4.7074    1.6967    0.6600 C   0  0  0  0  0  0  0  0  0  0  0  0
    4.2214    0.7483   -0.2592 C   0  0  0  0  0  0  0  0  0  0  0  0
    2.8797    0.2354   -0.1433 N   0  0  0  0  0  0  0  0  0  0  0  0
    2.1454    0.2209    1.1232 C   0  0  0  0  0  0  0  0  0  0  0  0
    0.9318   -0.6634    1.0187 C   0  0  0  0  0  0  0  0  0  0  0  0
    1.0384   -2.0388    1.2710 C   0  0  0  0  0  0  0  0  0  0  0  0
   -0.0788   -2.8655    1.1404 C   0  0  0  0  0  0  0  0  0  0  0  0
   -1.3070   -2.3303    0.7451 C   0  0  0  0  0  0  0  0  0  0  0  0
   -1.4301   -0.9567    0.4686 C   0  0  0  0  0  0  0  0  0  0  0  0
   -0.2992   -0.1299    0.6044 C   0  0  0  0  0  0  0  0  0  0  0  0
   -2.7320   -0.3891    0.0357 C   0  0  0  0  0  0  0  0  0  0  0  0
   -3.9363   -0.8215    0.6419 C   0  0  0  0  0  0  0  0  0  0  0  0
   -5.1339   -0.2602    0.2038 C   0  0  0  0  0  0  0  0  0  0  0  0
   -5.1681    0.6843   -0.7849 C   0  0  0  0  0  0  0  0  0  0  0  0
   -6.4872    1.0311   -0.9797 C   0  0  0  0  0  0  0  0  0  0  0  0
   -7.2035    0.2573   -0.0720 C   0  0  0  0  0  0  0  0  0  0  0  0
   -6.3721   -0.5295    0.6490 N   0  0  0  0  0  0  0  0  0  0  0  0
   -4.0104    1.1373   -1.4088 C   0  0  0  0  0  0  0  0  0  0  0  0
   -2.7827    0.5928   -0.9916 C   0  0  0  0  0  0  0  0  0  0  0  0
    3.8470   -1.2677   -2.1178 H   0  0  0  0  0  0  0  0  0  0  0  0
    5.3040   -0.8765   -3.0692 H   0  0  0  0  0  0  0  0  0  0  0  0
    7.7673    2.2407   -0.6911 H   0  0  0  0  0  0  0  0  0  0  0  0
    6.3535    2.9712    1.2131 H   0  0  0  0  0  0  0  0  0  0  0  0
    4.0958    2.0408    1.4828 H   0  0  0  0  0  0  0  0  0  0  0  0
    2.3849   -0.0891   -1.0041 H   0  0  0  0  0  0  0  0  0  0  0  0
    2.8076   -0.1567    1.9330 H   0  0  0  0  0  0  0  0  0  0  0  0
    1.8413    1.2565    1.3882 H   0  0  0  0  0  0  0  0  0  0  0  0
    1.9865   -2.4702    1.5676 H   0  0  0  0  0  0  0  0  0  0  0  0
    0.0090   -3.9260    1.3386 H   0  0  0  0  0  0  0  0  0  0  0  0
   -2.1547   -2.9946    0.6330 H   0  0  0  0  0  0  0  0  0  0  0  0
   -0.3766    0.9320    0.4043 H   0  0  0  0  0  0  0  0  0  0  0  0
   -3.9393   -1.5555    1.4379 H   0  0  0  0  0  0  0  0  0  0  0  0
   -6.8827    1.7503   -1.6847 H   0  0  0  0  0  0  0  0  0  0  0  0
   -8.2782    0.2724    0.0521 H   0  0  0  0  0  0  0  0  0  0  0  0
   -6.6420   -1.2062    1.3971 H   0  0  0  0  0  0  0  0  0  0  0  0
   -4.0517    1.8824   -2.1929 H   0  0  0  0  0  0  0  0  0  0  0  0
   -1.8754    0.9235   -1.4808 H   0  0  0  0  0  0  0  0  0  0  0  0
  1  2  1  0
  2  3  2  0
  3  4  1  0
  4  5  2  0
  5  6  1  0
  6  7  2  0
  7  8  1  0
  8  9  1  0
  9 10  1  0
 10 11  2  0
 11 12  1  0
 12 13  2  0
 13 14  1  0
 14 15  2  0
 14 16  1  0
 16 17  2  0
 17 18  1  0
 18 19  2  0
 19 20  1  0
 20 21  2  0
 21 22  1  0
 19 23  1  0
 23 24  2  0
  7  2  1  0
 15 10  1  0
 24 16  1  0
 22 18  1  0
  1 25  1  0
  1 26  1  0
  4 27  1  0
  5 28  1  0
  6 29  1  0
  8 30  1  0
  9 31  1  0
  9 32  1  0
 11 33  1  0
 12 34  1  0
 13 35  1  0
 15 36  1  0
 17 37  1  0
 20 38  1  0
 21 39  1  0
 22 40  1  0
 23 41  1  0
 24 42  1  0
M  END
$$$$
