
     RDKit          3D

 20 20  0  0  0  0  0  0  0  0999 V2000
    1.1854    0.1923   -0.2525 C   0  0  1  0  0  0  0  0  0  0  0  0
    2.2078   -0.6445   -1.0304 C   0  0  0  0  0  0  0  0  0  0  0  0
   -0.0488   -0.6633    0.0986 C   0  0  0  0  0  0  0  0  0  0  0  0
   -1.1977    0.1914    0.6604 C   0  0  0  0  0  0  0  0  0  0  0  0
   -2.0979    0.8461   -0.3764 C   0  0  0  0  0  0  0  0  0  0  0  0
   -2.5943   -0.3582    0.4091 C   0  0  0  0  0  0  0  0  0  0  0  0
    1.8288    0.7617    0.9875 C   0  0  0  0  0  0  0  0  0  0  0  0
    1.3569    1.7471    1.5319 O   0  0  0  0  0  0  0  0  0  0  0  0
    0.8733    1.0329   -0.9120 H   0  0  0  0  0  0  0  0  0  0  0  0
    1.7620   -1.0096   -1.9802 H   0  0  0  0  0  0  0  0  0  0  0  0
    3.0957   -0.0259   -1.2836 H   0  0  0  0  0  0  0  0  0  0  0  0
    2.5384   -1.5197   -0.4300 H   0  0  0  0  0  0  0  0  0  0  0  0
    0.2270   -1.4273    0.8578 H   0  0  0  0  0  0  0  0  0  0  0  0
   -0.3809   -1.2117   -0.8117 H   0  0  0  0  0  0  0  0  0  0  0  0
   -1.0839    0.7325    1.6234 H   0  0  0  0  0  0  0  0  0  0  0  0
   -1.8571    0.6275   -1.4389 H   0  0  0  0  0  0  0  0  0  0  0  0
   -2.5410    1.8115   -0.0529 H   0  0  0  0  0  0  0  0  0  0  0  0
   -3.3393   -0.1039    1.1924 H   0  0  0  0  0  0  0  0  0  0  0  0
   -2.6612   -1.2902   -0.1920 H   0  0  0  0  0  0  0  0  0  0  0  0
    2.7270    0.3113    1.3995 H   0  0  0  0  0  0  0  0  0  0  0  0
  1  2  1  0
  1  3  1  0
  3  4  1  0
  4  5  1  0
  5  6  1  0
  1  7  1  0
  7  8  2  0
  6  4  1  0
  1  9  1  6
  2 10  1  0
  2 11  1  0
  2 12  1  0
  3 13  1  0
  3 14  1  0
  4 15  1  0
  5 16  1  0
  5 17  1  0
  6 18  1  0
  6 19  1  0
  7 20  1  0
M  END
$$$$
