
     RDKit          3D

 47 49  0  0  0  0  0  0  0  0999 V2000
   -6.9345    2.2012    0.2242 N   0  0  0  0  0  0  0  0  0  0  0  0
   -5.5544    1.8371    0.2547 C   0  0  0  0  0  0  0  0  0  0  0  0
   -4.5816    2.7818    0.0825 N   0  0  0  0  0  0  0  0  0  0  0  0
   -3.2506    2.4488    0.1005 C   0  0  0  0  0  0  0  0  0  0  0  0
   -2.8628    1.1522    0.2936 N   0  0  0  0  0  0  0  0  0  0  0  0
   -3.8296    0.2195    0.4705 C   0  0  0  0  0  0  0  0  0  0  0  0
   -5.1475    0.5225    0.4527 C   0  0  0  0  0  0  0  0  0  0  0  0
   -5.8901   -0.5886    0.6172 N   0  0  0  0  0  0  0  0  0  0  0  0
   -4.9478   -1.5649    0.7353 C   0  0  0  0  0  0  0  0  0  0  0  0
   -3.6748   -1.0978    0.6599 N   0  0  0  0  0  0  0  0  0  0  0  0
   -2.4416   -1.8868    0.6618 C   0  0  2  0  0  0  0  0  0  0  0  0
   -1.4213   -1.1963    1.3483 O   0  0  0  0  0  0  0  0  0  0  0  0
   -0.2040   -1.4219    0.6647 C   0  0  2  0  0  0  0  0  0  0  0  0
    0.4302   -0.0659    0.3176 C   0  0  0  0  0  0  0  0  0  0  0  0
    1.6984   -0.2521   -0.2783 O   0  0  0  0  0  0  0  0  0  0  0  0
    2.9345    0.0664    0.8593 P   0  0  0  0  0  5  0  0  0  0  0  0
    2.8402    1.6752    1.3808 O   0  0  0  0  0  0  0  0  0  0  0  0
    2.7758   -0.8469    2.0542 O   0  0  0  0  0  0  0  0  0  0  0  0
    4.4632   -0.2162    0.1690 O   0  0  0  0  0  0  0  0  0  0  0  0
    4.4970    0.5591   -1.3471 P   0  0  0  0  0  5  0  0  0  0  0  0
    3.7859    2.0976   -1.2800 O   0  0  0  0  0  0  0  0  0  0  0  0
    3.7375   -0.2861   -2.3451 O   0  0  0  0  0  0  0  0  0  0  0  0
    6.1090    0.6823   -1.8790 O   0  0  0  0  0  0  0  0  0  0  0  0
    6.9131    1.7728   -0.8470 P   0  0  0  0  0  5  0  0  0  0  0  0
    6.7145    1.3419    0.7788 O   0  0  0  0  0  0  0  0  0  0  0  0
    8.5636    1.7491   -1.2180 O   0  0  0  0  0  0  0  0  0  0  0  0
    6.3920    3.1757   -1.0631 O   0  0  0  0  0  0  0  0  0  0  0  0
   -0.4755   -2.2690   -0.5908 C   0  0  1  0  0  0  0  0  0  0  0  0
   -0.0539   -3.6019   -0.4091 O   0  0  0  0  0  0  0  0  0  0  0  0
   -1.9741   -2.1622   -0.7572 C   0  0  1  0  0  0  0  0  0  0  0  0
   -2.5473   -3.3422   -1.2576 O   0  0  0  0  0  0  0  0  0  0  0  0
   -7.6828    1.4845    0.3537 H   0  0  0  0  0  0  0  0  0  0  0  0
   -7.2110    3.1963    0.0713 H   0  0  0  0  0  0  0  0  0  0  0  0
   -2.5029    3.2168   -0.0410 H   0  0  0  0  0  0  0  0  0  0  0  0
   -5.1941   -2.6111    0.8632 H   0  0  0  0  0  0  0  0  0  0  0  0
   -2.6232   -2.8480    1.1950 H   0  0  0  0  0  0  0  0  0  0  0  0
    0.4846   -1.9628    1.3495 H   0  0  0  0  0  0  0  0  0  0  0  0
    0.4374    0.5889    1.2204 H   0  0  0  0  0  0  0  0  0  0  0  0
   -0.2188    0.4532   -0.4194 H   0  0  0  0  0  0  0  0  0  0  0  0
    3.6658    1.8181    1.9089 H   0  0  0  0  0  0  0  0  0  0  0  0
    3.8177    2.4323   -2.2116 H   0  0  0  0  0  0  0  0  0  0  0  0
    7.1404    0.4513    0.8578 H   0  0  0  0  0  0  0  0  0  0  0  0
    8.8276    0.7984   -1.1328 H   0  0  0  0  0  0  0  0  0  0  0  0
    0.0330   -1.8662   -1.4946 H   0  0  0  0  0  0  0  0  0  0  0  0
   -0.5026   -3.9629    0.4004 H   0  0  0  0  0  0  0  0  0  0  0  0
   -2.2180   -1.2961   -1.4177 H   0  0  0  0  0  0  0  0  0  0  0  0
   -2.3164   -3.3773   -2.2224 H   0  0  0  0  0  0  0  0  0  0  0  0
  1  2  1  0
  2  3  2  0
  3  4  1  0
  4  5  2  0
  5  6  1  0
  6  7  2  0
  7  8  1  0
  8  9  2  0
  9 10  1  0
 10 11  1  0
 11 12  1  0
 12 13  1  0
 13 14  1  0
 14 15  1  0
 15 16  1  0
 16 17  1  0
 16 18  2  0
 16 19  1  0
 19 20  1  0
 20 21  1  0
 20 22  2  0
 20 23  1  0
 23 24  1  0
 24 25  1  0
 24 26  1  0
 24 27  2  0
 13 28  1  0
 28 29  1  0
 28 30  1  0
 30 31  1  0
  7  2  1  0
 30 11  1  0
 10  6  1  0
  1 32  1  0
  1 33  1  0
  4 34  1  0
  9 35  1  0
 11 36  1  1
 13 37  1  1
 14 38  1  0
 14 39  1  0
 17 40  1  0
 21 41  1  0
 25 42  1  0
 26 43  1  0
 28 44  1  6
 29 45  1  0
 30 46  1  6
 31 47  1  0
M  END
$$$$
