
     RDKit          3D

 63 67  0  0  0  0  0  0  0  0999 V2000
   -1.8930   -0.1090   -0.8339 C   0  0  2  0  0  0  0  0  0  0  0  0
   -1.6662    0.4133    0.5784 C   0  0  0  0  0  0  0  0  0  0  0  0
   -2.6384    1.5643    0.4176 C   0  0  1  0  0  0  0  0  0  0  0  0
   -2.0788    2.1725   -0.8442 C   0  0  0  0  0  0  0  0  0  0  0  0
   -1.6204    1.1661   -1.5923 C   0  0  0  0  0  0  0  0  0  0  0  0
   -3.9548    0.8263    0.0390 C   0  0  1  0  0  0  0  0  0  0  0  0
   -3.4292   -0.3256   -0.8794 C   0  0  2  0  0  0  0  0  0  0  0  0
   -3.9109   -1.6712   -0.5021 N   0  0  0  0  0  0  0  0  0  0  0  0
   -3.3166   -2.6141    0.4139 C   0  0  0  0  0  0  0  0  0  0  0  0
   -4.1149   -3.5830    1.0388 C   0  0  0  0  0  0  0  0  0  0  0  0
   -5.4537   -3.6369    0.8252 F   0  0  0  0  0  0  0  0  0  0  0  0
   -3.5113   -4.4933    1.9064 C   0  0  0  0  0  0  0  0  0  0  0  0
   -2.1747   -4.4300    2.1355 N   0  0  0  0  0  0  0  0  0  0  0  0
   -1.4035   -3.5001    1.5138 C   0  0  0  0  0  0  0  0  0  0  0  0
   -0.0075   -3.4071    1.8293 N   0  0  0  0  0  0  0  0  0  0  0  0
    0.8330   -2.3915    1.2662 C   0  0  0  0  0  0  0  0  0  0  0  0
    0.9218   -2.2285   -0.1216 C   0  0  0  0  0  0  0  0  0  0  0  0
    1.6755   -1.1855   -0.6596 C   0  0  0  0  0  0  0  0  0  0  0  0
    2.3624   -0.2995    0.1796 C   0  0  0  0  0  0  0  0  0  0  0  0
    3.0866    0.7900   -0.4102 N   0  0  0  0  0  0  0  0  0  0  0  0
    4.5471    0.8326   -0.3589 C   0  0  0  0  0  0  0  0  0  0  0  0
    5.0983    1.3117   -1.7086 C   0  0  0  0  0  0  0  0  0  0  0  0
    4.4410    2.5474   -2.1856 N   0  0  0  0  0  0  0  0  0  0  0  0
    4.8664    3.7402   -1.4339 C   0  0  0  0  0  0  0  0  0  0  0  0
    2.9699    2.4104   -2.2461 C   0  0  0  0  0  0  0  0  0  0  0  0
    2.3635    1.9574   -0.9116 C   0  0  0  0  0  0  0  0  0  0  0  0
    2.2992   -0.4703    1.5808 C   0  0  0  0  0  0  0  0  0  0  0  0
    3.0208    0.4629    2.5134 C   0  0  0  0  0  0  0  0  0  0  0  0
    1.5508   -1.5353    2.1105 C   0  0  0  0  0  0  0  0  0  0  0  0
   -1.9797   -2.6139    0.6563 N   0  0  0  0  0  0  0  0  0  0  0  0
   -4.7544    0.3577    1.2373 C   0  0  0  0  0  0  0  0  0  0  0  0
   -6.1152   -0.0385    1.0690 N   0  0  0  0  0  0  0  0  0  0  0  0
   -4.2310    0.2940    2.3825 O   0  0  0  0  0  0  0  0  0  0  0  0
   -1.2736   -0.9616   -1.1724 H   0  0  0  0  0  0  0  0  0  0  0  0
   -0.6159    0.7481    0.7560 H   0  0  0  0  0  0  0  0  0  0  0  0
   -1.9588   -0.2786    1.3927 H   0  0  0  0  0  0  0  0  0  0  0  0
   -2.7021    2.2672    1.2757 H   0  0  0  0  0  0  0  0  0  0  0  0
   -1.9620    3.2278   -1.0656 H   0  0  0  0  0  0  0  0  0  0  0  0
   -1.0730    1.2690   -2.5231 H   0  0  0  0  0  0  0  0  0  0  0  0
   -4.6047    1.5136   -0.5491 H   0  0  0  0  0  0  0  0  0  0  0  0
   -3.7820   -0.1401   -1.9209 H   0  0  0  0  0  0  0  0  0  0  0  0
   -4.8770   -1.8901   -0.8358 H   0  0  0  0  0  0  0  0  0  0  0  0
   -4.1072   -5.2444    2.4075 H   0  0  0  0  0  0  0  0  0  0  0  0
    0.3473   -3.9457    2.6516 H   0  0  0  0  0  0  0  0  0  0  0  0
    0.3922   -2.9000   -0.7855 H   0  0  0  0  0  0  0  0  0  0  0  0
    1.7178   -1.0571   -1.7340 H   0  0  0  0  0  0  0  0  0  0  0  0
    4.9570   -0.1779   -0.1396 H   0  0  0  0  0  0  0  0  0  0  0  0
    4.8732    1.5169    0.4519 H   0  0  0  0  0  0  0  0  0  0  0  0
    4.9420    0.5093   -2.4626 H   0  0  0  0  0  0  0  0  0  0  0  0
    6.1972    1.4629   -1.6288 H   0  0  0  0  0  0  0  0  0  0  0  0
    5.9704    3.8511   -1.4894 H   0  0  0  0  0  0  0  0  0  0  0  0
    4.4221    4.6526   -1.8857 H   0  0  0  0  0  0  0  0  0  0  0  0
    4.5657    3.6872   -0.3671 H   0  0  0  0  0  0  0  0  0  0  0  0
    2.5032    3.3699   -2.5595 H   0  0  0  0  0  0  0  0  0  0  0  0
    2.7118    1.6617   -3.0268 H   0  0  0  0  0  0  0  0  0  0  0  0
    2.4169    2.7756   -0.1632 H   0  0  0  0  0  0  0  0  0  0  0  0
    1.2897    1.7149   -1.0683 H   0  0  0  0  0  0  0  0  0  0  0  0
    2.6237    0.3858    3.5480 H   0  0  0  0  0  0  0  0  0  0  0  0
    2.8930    1.5153    2.1836 H   0  0  0  0  0  0  0  0  0  0  0  0
    4.1010    0.2090    2.5301 H   0  0  0  0  0  0  0  0  0  0  0  0
    1.4873   -1.6749    3.1830 H   0  0  0  0  0  0  0  0  0  0  0  0
   -6.6705   -0.3784    1.8852 H   0  0  0  0  0  0  0  0  0  0  0  0
   -6.5670   -0.0027    0.1283 H   0  0  0  0  0  0  0  0  0  0  0  0
  1  2  1  0
  2  3  1  0
  3  4  1  0
  4  5  2  0
  3  6  1  0
  6  7  1  0
  7  8  1  0
  8  9  1  0
  9 10  2  0
 10 11  1  0
 10 12  1  0
 12 13  2  0
 13 14  1  0
 14 15  1  0
 15 16  1  0
 16 17  2  0
 17 18  1  0
 18 19  2  0
 19 20  1  0
 20 21  1  0
 21 22  1  0
 22 23  1  0
 23 24  1  0
 23 25  1  0
 25 26  1  0
 19 27  1  0
 27 28  1  0
 27 29  2  0
 14 30  2  0
  6 31  1  0
 31 32  1  0
 31 33  2  0
  5  1  1  0
 30  9  1  0
  7  1  1  0
 29 16  1  0
 26 20  1  0
  1 34  1  6
  2 35  1  0
  2 36  1  0
  3 37  1  1
  4 38  1  0
  5 39  1  0
  6 40  1  6
  7 41  1  6
  8 42  1  0
 12 43  1  0
 15 44  1  0
 17 45  1  0
 18 46  1  0
 21 47  1  0
 21 48  1  0
 22 49  1  0
 22 50  1  0
 24 51  1  0
 24 52  1  0
 24 53  1  0
 25 54  1  0
 25 55  1  0
 26 56  1  0
 26 57  1  0
 28 58  1  0
 28 59  1  0
 28 60  1  0
 29 61  1  0
 32 62  1  0
 32 63  1  0
M  END
$$$$
