
     RDKit          3D

 36 37  0  0  0  0  0  0  0  0999 V2000
   -1.9784   -1.7031    1.4537 C   0  0  2  0  0  0  0  0  0  0  0  0
   -2.1828   -0.9613    2.6024 F   0  0  0  0  0  0  0  0  0  0  0  0
   -1.9920   -3.1631    1.8237 C   0  0  0  0  0  0  0  0  0  0  0  0
   -3.1809   -3.7619    2.0842 F   0  0  0  0  0  0  0  0  0  0  0  0
   -0.8609   -3.8496    2.0130 C   0  0  0  0  0  0  0  0  0  0  0  0
    0.4573   -3.2420    1.7591 C   0  0  0  0  0  0  0  0  0  0  0  0
    0.5719   -2.0271    1.1991 C   0  0  0  0  0  0  0  0  0  0  0  0
    1.9152   -1.4589    0.9279 C   0  0  0  0  0  0  0  0  0  0  0  0
    2.8907   -2.2273    0.7068 O   0  0  0  0  0  0  0  0  0  0  0  0
    2.1240   -0.0415    0.9253 N   0  0  0  0  0  0  0  0  0  0  0  0
    3.3051    0.4843    0.5059 O   0  0  0  0  0  0  0  0  0  0  0  0
    3.1210    0.8544   -0.8397 C   0  0  0  0  0  0  0  0  0  0  0  0
    4.4054    1.4703   -1.3792 C   0  0  0  0  0  0  0  0  0  0  0  0
    4.7146    2.6310   -0.6590 O   0  0  0  0  0  0  0  0  0  0  0  0
   -0.6619   -1.2911    0.8189 C   0  0  0  0  0  0  0  0  0  0  0  0
   -0.5881   -0.3682   -0.1011 N   0  0  0  0  0  0  0  0  0  0  0  0
   -1.6483    0.4750   -0.5745 C   0  0  0  0  0  0  0  0  0  0  0  0
   -1.8456    0.6148   -1.9556 C   0  0  0  0  0  0  0  0  0  0  0  0
   -1.0764   -0.0832   -2.8283 F   0  0  0  0  0  0  0  0  0  0  0  0
   -2.8454    1.4638   -2.4417 C   0  0  0  0  0  0  0  0  0  0  0  0
   -3.6379    2.1961   -1.5521 C   0  0  0  0  0  0  0  0  0  0  0  0
   -5.1415    3.4790   -2.2876 I   0  0  0  0  0  0  0  0  0  0  0  0
   -3.4215    2.0885   -0.1749 C   0  0  0  0  0  0  0  0  0  0  0  0
   -2.4232    1.2404    0.3135 C   0  0  0  0  0  0  0  0  0  0  0  0
   -2.8211   -1.5255    0.7530 H   0  0  0  0  0  0  0  0  0  0  0  0
   -0.9080   -4.8766    2.3523 H   0  0  0  0  0  0  0  0  0  0  0  0
    1.3393   -3.8133    2.0223 H   0  0  0  0  0  0  0  0  0  0  0  0
    1.4020    0.5961    1.3306 H   0  0  0  0  0  0  0  0  0  0  0  0
    2.2982    1.6006   -0.9318 H   0  0  0  0  0  0  0  0  0  0  0  0
    2.8729   -0.0390   -1.4572 H   0  0  0  0  0  0  0  0  0  0  0  0
    4.2642    1.7217   -2.4540 H   0  0  0  0  0  0  0  0  0  0  0  0
    5.2350    0.7338   -1.2877 H   0  0  0  0  0  0  0  0  0  0  0  0
    5.5554    2.9822   -1.0522 H   0  0  0  0  0  0  0  0  0  0  0  0
   -3.0015    1.5558   -3.5088 H   0  0  0  0  0  0  0  0  0  0  0  0
   -4.0178    2.6702    0.5160 H   0  0  0  0  0  0  0  0  0  0  0  0
   -2.2390    1.2021    1.3778 H   0  0  0  0  0  0  0  0  0  0  0  0
  1  2  1  0
  1  3  1  0
  3  4  1  0
  3  5  2  0
  5  6  1  0
  6  7  2  0
  7  8  1  0
  8  9  2  0
  8 10  1  0
 10 11  1  0
 11 12  1  0
 12 13  1  0
 13 14  1  0
  7 15  1  0
 15 16  2  0
 16 17  1  0
 17 18  2  0
 18 19  1  0
 18 20  1  0
 20 21  2  0
 21 22  1  0
 21 23  1  0
 23 24  2  0
 15  1  1  0
 24 17  1  0
  1 25  1  6
  5 26  1  0
  6 27  1  0
 10 28  1  0
 12 29  1  0
 12 30  1  0
 13 31  1  0
 13 32  1  0
 14 33  1  0
 20 34  1  0
 23 35  1  0
 24 36  1  0
M  END
$$$$
