
     RDKit          3D

 19 18  0  0  0  0  0  0  0  0999 V2000
    1.6496    1.1771   -1.0386 N   0  0  0  0  0  0  0  0  0  0  0  0
    1.2497    0.7156    0.2927 C   0  0  1  0  0  0  0  0  0  0  0  0
   -0.0444   -0.1016    0.2059 C   0  0  0  0  0  0  0  0  0  0  0  0
   -1.0700    0.7090   -0.3193 O   0  0  0  0  0  0  0  0  0  0  0  0
   -2.4882   -0.2301   -0.4473 P   0  0  0  0  0  5  0  0  0  0  0  0
   -2.8823   -0.9034    1.0555 O   0  0  0  0  0  0  0  0  0  0  0  0
   -3.7601    0.7633   -0.9552 O   0  0  0  0  0  0  0  0  0  0  0  0
   -2.2874   -1.3351   -1.4610 O   0  0  0  0  0  0  0  0  0  0  0  0
    2.3474   -0.0970    0.9275 C   0  0  0  0  0  0  0  0  0  0  0  0
    2.7838   -1.2744    0.3261 O   0  0  0  0  0  0  0  0  0  0  0  0
    2.8737    0.2883    2.0057 O   0  0  0  0  0  0  0  0  0  0  0  0
    2.5034    1.7743   -0.9429 H   0  0  0  0  0  0  0  0  0  0  0  0
    1.9081    0.3547   -1.6321 H   0  0  0  0  0  0  0  0  0  0  0  0
    1.0489    1.6079    0.9280 H   0  0  0  0  0  0  0  0  0  0  0  0
    0.1334   -0.9887   -0.4455 H   0  0  0  0  0  0  0  0  0  0  0  0
   -0.3101   -0.4438    1.2324 H   0  0  0  0  0  0  0  0  0  0  0  0
   -3.7425   -1.3707    0.9053 H   0  0  0  0  0  0  0  0  0  0  0  0
   -3.4341    1.1836   -1.7907 H   0  0  0  0  0  0  0  0  0  0  0  0
    3.5211   -1.8290    0.7442 H   0  0  0  0  0  0  0  0  0  0  0  0
  1  2  1  0
  2  3  1  0
  3  4  1  0
  4  5  1  0
  5  6  1  0
  5  7  1  0
  5  8  2  0
  2  9  1  0
  9 10  1  0
  9 11  2  0
  1 12  1  0
  1 13  1  0
  2 14  1  1
  3 15  1  0
  3 16  1  0
  6 17  1  0
  7 18  1  0
 10 19  1  0
M  END
$$$$
