
     RDKit          3D

 51 54  0  0  0  0  0  0  0  0999 V2000
    9.8994   -0.2065    0.3545 N   0  0  0  0  0  0  0  0  0  0  0  0
    8.7871    0.4674    0.9489 C   0  0  0  0  0  0  0  0  0  0  0  0
    8.9982    1.2531    1.9591 N   0  0  0  0  0  0  0  0  0  0  0  0
    7.4191    0.2740    0.4053 C   0  0  0  0  0  0  0  0  0  0  0  0
    6.3058    0.2151    1.2634 C   0  0  0  0  0  0  0  0  0  0  0  0
    5.0149    0.0290    0.7447 C   0  0  0  0  0  0  0  0  0  0  0  0
    3.9050   -0.0355    1.5979 C   0  0  0  0  0  0  0  0  0  0  0  0
    2.6224   -0.2205    1.0750 C   0  0  0  0  0  0  0  0  0  0  0  0
    2.4246   -0.3382   -0.3127 C   0  0  0  0  0  0  0  0  0  0  0  0
    3.5402   -0.2895   -1.1680 C   0  0  0  0  0  0  0  0  0  0  0  0
    4.8309   -0.1031   -0.6499 C   0  0  0  0  0  0  0  0  0  0  0  0
    5.9416   -0.0473   -1.5031 C   0  0  0  0  0  0  0  0  0  0  0  0
    7.2236    0.1381   -0.9795 C   0  0  0  0  0  0  0  0  0  0  0  0
    1.0710   -0.5402   -0.8839 C   0  0  0  0  0  0  0  0  0  0  0  0
    0.9527   -1.2062   -1.9487 O   0  0  0  0  0  0  0  0  0  0  0  0
   -0.0989    0.0010   -0.2410 N   0  0  0  0  0  0  0  0  0  0  0  0
   -1.4244   -0.0785   -0.7924 C   0  0  0  0  0  0  0  0  0  0  0  0
   -1.6581    0.0921   -2.1677 C   0  0  0  0  0  0  0  0  0  0  0  0
   -2.9591    0.0351   -2.6723 C   0  0  0  0  0  0  0  0  0  0  0  0
   -4.0393   -0.1761   -1.8123 C   0  0  0  0  0  0  0  0  0  0  0  0
   -3.8244   -0.3205   -0.4285 C   0  0  0  0  0  0  0  0  0  0  0  0
   -4.8719   -0.5225    0.4845 O   0  0  0  0  0  0  0  0  0  0  0  0
   -6.2634   -0.5343    0.1570 C   0  0  0  0  0  0  0  0  0  0  0  0
   -7.0757   -0.9968    1.3576 C   0  0  0  0  0  0  0  0  0  0  0  0
   -8.3990   -0.2657    1.2487 C   0  0  0  0  0  0  0  0  0  0  0  0
   -8.0667    1.0743    0.6131 C   0  0  0  0  0  0  0  0  0  0  0  0
   -6.7773    0.8699   -0.1792 C   0  0  0  0  0  0  0  0  0  0  0  0
   -2.5165   -0.2643    0.0687 C   0  0  0  0  0  0  0  0  0  0  0  0
   10.8676   -0.0397    0.7090 H   0  0  0  0  0  0  0  0  0  0  0  0
    9.7629   -0.9123   -0.4024 H   0  0  0  0  0  0  0  0  0  0  0  0
    8.2363    1.7922    2.4274 H   0  0  0  0  0  0  0  0  0  0  0  0
    6.4440    0.2930    2.3355 H   0  0  0  0  0  0  0  0  0  0  0  0
    4.0291    0.0501    2.6710 H   0  0  0  0  0  0  0  0  0  0  0  0
    1.7951   -0.3003    1.7664 H   0  0  0  0  0  0  0  0  0  0  0  0
    3.4018   -0.3845   -2.2393 H   0  0  0  0  0  0  0  0  0  0  0  0
    5.8190   -0.1438   -2.5754 H   0  0  0  0  0  0  0  0  0  0  0  0
    8.0617    0.1945   -1.6626 H   0  0  0  0  0  0  0  0  0  0  0  0
   -0.0067    0.4366    0.7027 H   0  0  0  0  0  0  0  0  0  0  0  0
   -0.8424    0.2955   -2.8485 H   0  0  0  0  0  0  0  0  0  0  0  0
   -3.1317    0.1634   -3.7332 H   0  0  0  0  0  0  0  0  0  0  0  0
   -5.0327   -0.2189   -2.2345 H   0  0  0  0  0  0  0  0  0  0  0  0
   -6.4573   -1.2321   -0.6885 H   0  0  0  0  0  0  0  0  0  0  0  0
   -7.2207   -2.0990    1.3516 H   0  0  0  0  0  0  0  0  0  0  0  0
   -6.5694   -0.6989    2.3031 H   0  0  0  0  0  0  0  0  0  0  0  0
   -9.0851   -0.8356    0.5834 H   0  0  0  0  0  0  0  0  0  0  0  0
   -8.8751   -0.1378    2.2450 H   0  0  0  0  0  0  0  0  0  0  0  0
   -7.9016    1.8329    1.4099 H   0  0  0  0  0  0  0  0  0  0  0  0
   -8.8951    1.4169   -0.0445 H   0  0  0  0  0  0  0  0  0  0  0  0
   -6.0329    1.6468    0.1031 H   0  0  0  0  0  0  0  0  0  0  0  0
   -6.9801    0.9529   -1.2691 H   0  0  0  0  0  0  0  0  0  0  0  0
   -2.3484   -0.3752    1.1331 H   0  0  0  0  0  0  0  0  0  0  0  0
  1  2  1  0
  2  3  2  3
  2  4  1  0
  4  5  2  0
  5  6  1  0
  6  7  2  0
  7  8  1  0
  8  9  2  0
  9 10  1  0
 10 11  2  0
 11 12  1  0
 12 13  2  0
  9 14  1  0
 14 15  2  0
 14 16  1  0
 16 17  1  0
 17 18  2  0
 18 19  1  0
 19 20  2  0
 20 21  1  0
 21 22  1  0
 22 23  1  0
 23 24  1  0
 24 25  1  0
 25 26  1  0
 26 27  1  0
 21 28  2  0
 13  4  1  0
 28 17  1  0
 11  6  1  0
 27 23  1  0
  1 29  1  0
  1 30  1  0
  3 31  1  0
  5 32  1  0
  7 33  1  0
  8 34  1  0
 10 35  1  0
 12 36  1  0
 13 37  1  0
 16 38  1  0
 18 39  1  0
 19 40  1  0
 20 41  1  0
 23 42  1  0
 24 43  1  0
 24 44  1  0
 25 45  1  0
 25 46  1  0
 26 47  1  0
 26 48  1  0
 27 49  1  0
 27 50  1  0
 28 51  1  0
M  END
$$$$
