
     RDKit          3D

 71 75  0  0  0  0  0  0  0  0999 V2000
   -1.0392    0.1825    2.3469 C   0  0  1  0  0  0  0  0  0  0  0  0
   -0.8642    1.5770    1.7296 C   0  0  0  0  0  0  0  0  0  0  0  0
   -1.8490    1.7883    0.7442 O   0  0  0  0  0  0  0  0  0  0  0  0
   -1.5164    3.2594   -0.0523 P   0  0  0  0  0  5  0  0  0  0  0  0
   -2.7387    3.5688   -1.1831 O   0  0  0  0  0  0  0  0  0  0  0  0
   -1.4935    4.3904    0.9519 O   0  0  0  0  0  0  0  0  0  0  0  0
   -0.0027    3.1757   -0.8239 O   0  0  0  0  0  0  0  0  0  0  0  0
   -0.1559    2.1188   -2.1514 P   0  0  0  0  0  5  0  0  0  0  0  0
   -1.1656    0.8064   -1.7933 O   0  0  0  0  0  0  0  0  0  0  0  0
   -0.7271    2.8696   -3.3350 O   0  0  0  0  0  0  0  0  0  0  0  0
    1.3855    1.5023   -2.5356 O   0  0  0  0  0  0  0  0  0  0  0  0
    2.1775    2.5443   -3.0578 C   0  0  0  0  0  0  0  0  0  0  0  0
    3.6398    2.0870   -3.1556 C   0  0  1  0  0  0  0  0  0  0  0  0
    4.1576    1.8989   -1.8527 O   0  0  0  0  0  0  0  0  0  0  0  0
    4.6525    0.5786   -1.7644 C   0  0  1  0  0  0  0  0  0  0  0  0
    4.3559   -0.0083   -0.4440 N   0  0  0  0  0  4  0  0  0  0  0  0
    3.2035    0.3137    0.2207 C   0  0  0  0  0  0  0  0  0  0  0  0
    2.9187   -0.2518    1.4611 C   0  0  0  0  0  0  0  0  0  0  0  0
    3.8005   -1.1731    2.0173 C   0  0  0  0  0  0  0  0  0  0  0  0
    4.9736   -1.5295    1.3342 C   0  0  0  0  0  0  0  0  0  0  0  0
    5.2260   -0.9218    0.0883 C   0  0  0  0  0  0  0  0  0  0  0  0
    5.9268   -2.5205    1.9042 C   0  0  0  0  0  0  0  0  0  0  0  0
    5.6108   -3.3270    3.4954 S   0  0  0  0  0  1  0  0  0  0  0  0
    7.0091   -2.8257    1.2616 N   0  0  0  0  0  0  0  0  0  0  0  0
    4.0341   -0.2503   -2.8835 C   0  0  2  0  0  0  0  0  0  0  0  0
    4.9018   -1.2633   -3.3233 O   0  0  0  0  0  0  0  0  0  0  0  0
    3.7904    0.7838   -3.9583 C   0  0  2  0  0  0  0  0  0  0  0  0
    4.8627    0.8664   -4.8702 O   0  0  0  0  0  0  0  0  0  0  0  0
   -2.3472    0.0640    2.8720 O   0  0  0  0  0  0  0  0  0  0  0  0
   -2.9639   -1.0501    2.2620 C   0  0  1  0  0  0  0  0  0  0  0  0
   -4.3627   -0.7494    1.9509 N   0  0  0  0  0  0  0  0  0  0  0  0
   -4.9108    0.4467    1.6081 C   0  0  0  0  0  0  0  0  0  0  0  0
   -6.2293    0.3619    1.2774 N   0  0  0  0  0  0  0  0  0  0  0  0
   -6.4863   -0.9523    1.4175 C   0  0  0  0  0  0  0  0  0  0  0  0
   -7.6667   -1.6516    1.1932 C   0  0  0  0  0  0  0  0  0  0  0  0
   -8.8624   -0.9945    0.7731 N   0  0  0  0  0  0  0  0  0  0  0  0
   -7.6465   -3.0049    1.3838 N   0  0  0  0  0  0  0  0  0  0  0  0
   -6.5042   -3.6544    1.7790 C   0  0  0  0  0  0  0  0  0  0  0  0
   -5.3483   -2.9565    1.9942 N   0  0  0  0  0  0  0  0  0  0  0  0
   -5.3744   -1.6141    1.8105 C   0  0  0  0  0  0  0  0  0  0  0  0
   -2.1968   -1.4057    0.9977 C   0  0  2  0  0  0  0  0  0  0  0  0
   -2.2571   -2.7847    0.7405 O   0  0  0  0  0  0  0  0  0  0  0  0
   -0.7973   -0.9381    1.3227 C   0  0  2  0  0  0  0  0  0  0  0  0
   -0.0082   -1.9706    1.8700 O   0  0  0  0  0  0  0  0  0  0  0  0
   -0.3122    0.0927    3.1844 H   0  0  0  0  0  0  0  0  0  0  0  0
    0.1640    1.6461    1.3055 H   0  0  0  0  0  0  0  0  0  0  0  0
   -0.9700    2.3307    2.5418 H   0  0  0  0  0  0  0  0  0  0  0  0
   -3.5836    3.4326   -0.6846 H   0  0  0  0  0  0  0  0  0  0  0  0
   -1.0630    0.1904   -2.5617 H   0  0  0  0  0  0  0  0  0  0  0  0
    1.8220    2.8187   -4.0763 H   0  0  0  0  0  0  0  0  0  0  0  0
    2.1493    3.4494   -2.4075 H   0  0  0  0  0  0  0  0  0  0  0  0
    4.2136    2.9044   -3.6463 H   0  0  0  0  0  0  0  0  0  0  0  0
    5.7564    0.6338   -1.9116 H   0  0  0  0  0  0  0  0  0  0  0  0
    2.4971    1.0183   -0.1976 H   0  0  0  0  0  0  0  0  0  0  0  0
    2.0175    0.0239    1.9907 H   0  0  0  0  0  0  0  0  0  0  0  0
    3.5549   -1.6014    2.9792 H   0  0  0  0  0  0  0  0  0  0  0  0
    6.1233   -1.1836   -0.4604 H   0  0  0  0  0  0  0  0  0  0  0  0
    7.6925   -3.5184    1.6408 H   0  0  0  0  0  0  0  0  0  0  0  0
    3.0561   -0.6815   -2.5620 H   0  0  0  0  0  0  0  0  0  0  0  0
    4.8377   -1.9970   -2.6582 H   0  0  0  0  0  0  0  0  0  0  0  0
    2.8704    0.5320   -4.5313 H   0  0  0  0  0  0  0  0  0  0  0  0
    5.6838    1.1071   -4.3654 H   0  0  0  0  0  0  0  0  0  0  0  0
   -2.9247   -1.8988    2.9822 H   0  0  0  0  0  0  0  0  0  0  0  0
   -4.3587    1.3765    1.5874 H   0  0  0  0  0  0  0  0  0  0  0  0
   -9.7340   -1.5457    0.6097 H   0  0  0  0  0  0  0  0  0  0  0  0
   -8.8844    0.0389    0.6242 H   0  0  0  0  0  0  0  0  0  0  0  0
   -6.5176   -4.7264    1.9194 H   0  0  0  0  0  0  0  0  0  0  0  0
   -2.5972   -0.8278    0.1310 H   0  0  0  0  0  0  0  0  0  0  0  0
   -1.8687   -2.9171   -0.1634 H   0  0  0  0  0  0  0  0  0  0  0  0
   -0.2920   -0.5694    0.4031 H   0  0  0  0  0  0  0  0  0  0  0  0
   -0.4449   -2.2891    2.7034 H   0  0  0  0  0  0  0  0  0  0  0  0
  1  2  1  0
  2  3  1  0
  3  4  1  0
  4  5  1  0
  4  6  2  0
  4  7  1  0
  7  8  1  0
  8  9  1  0
  8 10  2  0
  8 11  1  0
 11 12  1  0
 12 13  1  0
 13 14  1  0
 14 15  1  0
 15 16  1  0
 16 17  2  0
 17 18  1  0
 18 19  2  0
 19 20  1  0
 20 21  2  0
 20 22  1  0
 22 23  1  0
 22 24  2  3
 15 25  1  0
 25 26  1  0
 25 27  1  0
 27 28  1  0
  1 29  1  0
 29 30  1  0
 30 31  1  0
 31 32  1  0
 32 33  2  0
 33 34  1  0
 34 35  2  0
 35 36  1  0
 35 37  1  0
 37 38  2  0
 38 39  1  0
 39 40  2  0
 30 41  1  0
 41 42  1  0
 41 43  1  0
 43 44  1  0
 43  1  1  0
 27 13  1  0
 40 31  1  0
 21 16  1  0
 40 34  1  0
  1 45  1  1
  2 46  1  0
  2 47  1  0
  5 48  1  0
  9 49  1  0
 12 50  1  0
 12 51  1  0
 13 52  1  6
 15 53  1  6
 17 54  1  0
 18 55  1  0
 19 56  1  0
 21 57  1  0
 24 58  1  0
 25 59  1  1
 26 60  1  0
 27 61  1  6
 28 62  1  0
 30 63  1  1
 32 64  1  0
 36 65  1  0
 36 66  1  0
 38 67  1  0
 41 68  1  6
 42 69  1  0
 43 70  1  6
 44 71  1  0
M  CHG  2  16   1  23  -1
M  END
$$$$
