
     RDKit          3D

 29 29  0  0  0  0  0  0  0  0999 V2000
    1.9429   -2.0016   -0.8298 C   0  0  0  0  0  0  0  0  0  0  0  0
    1.7103   -0.5363   -1.2277 C   0  0  2  0  0  0  0  0  0  0  0  0
    2.4471    0.4546   -0.3095 C   0  0  0  0  0  0  0  0  0  0  0  0
    4.2535    0.3142   -0.5041 S   0  0  0  0  0  0  0  0  0  0  0  0
    0.2376   -0.1922   -1.3341 C   0  0  0  0  0  0  0  0  0  0  0  0
   -0.2083    0.1410   -2.4662 O   0  0  0  0  0  0  0  0  0  0  0  0
   -0.6543   -0.1648   -0.1983 N   0  0  0  0  0  0  0  0  0  0  0  0
   -0.5386   -1.0150    0.9778 C   0  0  0  0  0  0  0  0  0  0  0  0
   -1.7353   -0.6782    1.8578 C   0  0  0  0  0  0  0  0  0  0  0  0
   -2.7290    0.0395    0.9522 C   0  0  0  0  0  0  0  0  0  0  0  0
   -1.9066    0.5819   -0.2170 C   0  0  1  0  0  0  0  0  0  0  0  0
   -1.6351    2.0523   -0.0655 C   0  0  0  0  0  0  0  0  0  0  0  0
   -2.2741    2.9617   -0.9020 O   0  0  0  0  0  0  0  0  0  0  0  0
   -0.8498    2.4666    0.8298 O   0  0  0  0  0  0  0  0  0  0  0  0
    2.9751   -2.3068   -1.1031 H   0  0  0  0  0  0  0  0  0  0  0  0
    1.8280   -2.1570    0.2611 H   0  0  0  0  0  0  0  0  0  0  0  0
    1.2379   -2.6678   -1.3717 H   0  0  0  0  0  0  0  0  0  0  0  0
    2.1441   -0.4159   -2.2467 H   0  0  0  0  0  0  0  0  0  0  0  0
    2.1927    0.2846    0.7551 H   0  0  0  0  0  0  0  0  0  0  0  0
    2.1563    1.4948   -0.5727 H   0  0  0  0  0  0  0  0  0  0  0  0
    4.4995    1.3325    0.4365 H   0  0  0  0  0  0  0  0  0  0  0  0
    0.3973   -0.8085    1.5326 H   0  0  0  0  0  0  0  0  0  0  0  0
   -0.5811   -2.0826    0.6719 H   0  0  0  0  0  0  0  0  0  0  0  0
   -1.4182    0.0087    2.6735 H   0  0  0  0  0  0  0  0  0  0  0  0
   -2.1815   -1.5931    2.3048 H   0  0  0  0  0  0  0  0  0  0  0  0
   -3.2799    0.8335    1.5039 H   0  0  0  0  0  0  0  0  0  0  0  0
   -3.4681   -0.6989    0.5695 H   0  0  0  0  0  0  0  0  0  0  0  0
   -2.4525    0.3958   -1.1687 H   0  0  0  0  0  0  0  0  0  0  0  0
   -2.1098    3.9569   -0.8092 H   0  0  0  0  0  0  0  0  0  0  0  0
  1  2  1  0
  2  3  1  0
  3  4  1  0
  2  5  1  0
  5  6  2  0
  5  7  1  0
  7  8  1  0
  8  9  1  0
  9 10  1  0
 10 11  1  0
 11 12  1  0
 12 13  1  0
 12 14  2  0
 11  7  1  0
  1 15  1  0
  1 16  1  0
  1 17  1  0
  2 18  1  6
  3 19  1  0
  3 20  1  0
  4 21  1  0
  8 22  1  0
  8 23  1  0
  9 24  1  0
  9 25  1  0
 10 26  1  0
 10 27  1  0
 11 28  1  6
 13 29  1  0
M  END
$$$$
