
     RDKit          3D

 66 69  0  0  0  0  0  0  0  0999 V2000
    9.2534    0.4499   -3.5332 O   0  0  0  0  0  0  0  0  0  0  0  0
    8.1923    0.1723   -2.7020 N   0  0  0  0  0  0  0  0  0  0  0  0
    8.2750    0.2875   -1.4101 C   0  0  0  0  0  0  0  0  0  0  0  0
    9.5048    0.7132   -0.8033 N   0  0  0  0  0  0  0  0  0  0  0  0
    7.1244   -0.0193   -0.5914 N   0  0  0  0  0  0  0  0  0  0  0  0
    5.7856   -0.1135   -1.1957 C   0  0  0  0  0  0  0  0  0  0  0  0
    4.7241    0.4169   -0.2248 C   0  0  0  0  0  0  0  0  0  0  0  0
    4.7946   -0.2360    1.1867 C   0  0  0  0  0  0  0  0  0  0  0  0
    6.0701   -1.0816    1.3894 C   0  0  0  0  0  0  0  0  0  0  0  0
    7.3066   -0.3742    0.8252 C   0  0  0  0  0  0  0  0  0  0  0  0
    3.5455   -1.0916    1.4823 C   0  0  0  0  0  0  0  0  0  0  0  0
    2.3378   -0.2682    1.5616 N   0  0  0  0  0  0  0  0  0  0  0  0
    1.0466   -0.8556    1.7654 C   0  0  0  0  0  0  0  0  0  0  0  0
    0.9361   -2.1016    1.9312 O   0  0  0  0  0  0  0  0  0  0  0  0
   -0.1788    0.0174    1.8244 C   0  0  2  0  0  0  0  0  0  0  0  0
   -0.6446    0.2425    3.2679 C   0  0  0  0  0  0  0  0  0  0  0  0
   -2.1673    0.1143    3.2322 C   0  0  0  0  0  0  0  0  0  0  0  0
   -2.4610   -0.7613    2.0155 C   0  0  1  0  0  0  0  0  0  0  0  0
   -3.7413   -0.3672    1.2699 C   0  0  0  0  0  0  0  0  0  0  0  0
   -3.8160   -1.1494    0.0241 N   0  0  0  0  0  0  0  0  0  0  0  0
   -2.7641   -0.7410   -0.9278 C   0  0  0  0  0  0  0  0  0  0  0  0
   -1.4080   -0.7417   -0.2764 C   0  0  0  0  0  0  0  0  0  0  0  0
   -0.3705   -0.7578   -0.9917 O   0  0  0  0  0  0  0  0  0  0  0  0
   -1.3040   -0.6137    1.1501 N   0  0  0  0  0  0  0  0  0  0  0  0
   -5.3932   -0.9739   -0.7067 S   0  0  0  0  0  6  0  0  0  0  0  0
   -6.4104   -1.6576    0.1638 O   0  0  0  0  0  0  0  0  0  0  0  0
   -5.3944   -1.6369   -2.0565 O   0  0  0  0  0  0  0  0  0  0  0  0
   -5.8556    0.7460   -0.8956 C   0  0  0  0  0  0  0  0  0  0  0  0
   -7.1807    0.8557   -1.5965 C   0  0  0  0  0  0  0  0  0  0  0  0
   -7.2370    0.9318   -2.9983 C   0  0  0  0  0  0  0  0  0  0  0  0
   -8.4720    1.0018   -3.6505 C   0  0  0  0  0  0  0  0  0  0  0  0
   -9.6572    0.9882   -2.9100 C   0  0  0  0  0  0  0  0  0  0  0  0
   -9.6096    0.9010   -1.5159 C   0  0  0  0  0  0  0  0  0  0  0  0
   -8.3767    0.8308   -0.8597 C   0  0  0  0  0  0  0  0  0  0  0  0
    9.1513    0.3486   -4.5349 H   0  0  0  0  0  0  0  0  0  0  0  0
    9.5711    0.8909    0.2224 H   0  0  0  0  0  0  0  0  0  0  0  0
   10.3598    0.8925   -1.3747 H   0  0  0  0  0  0  0  0  0  0  0  0
    5.7290    0.4888   -2.1286 H   0  0  0  0  0  0  0  0  0  0  0  0
    5.5687   -1.1726   -1.4536 H   0  0  0  0  0  0  0  0  0  0  0  0
    3.7231    0.2806   -0.6895 H   0  0  0  0  0  0  0  0  0  0  0  0
    4.8760    1.5137   -0.1174 H   0  0  0  0  0  0  0  0  0  0  0  0
    4.8259    0.5826    1.9415 H   0  0  0  0  0  0  0  0  0  0  0  0
    5.9613   -2.0661    0.8820 H   0  0  0  0  0  0  0  0  0  0  0  0
    6.2228   -1.2763    2.4735 H   0  0  0  0  0  0  0  0  0  0  0  0
    7.5057    0.5473    1.4139 H   0  0  0  0  0  0  0  0  0  0  0  0
    8.1750   -1.0605    0.9321 H   0  0  0  0  0  0  0  0  0  0  0  0
    3.4212   -1.8561    0.6837 H   0  0  0  0  0  0  0  0  0  0  0  0
    3.6774   -1.6198    2.4522 H   0  0  0  0  0  0  0  0  0  0  0  0
    2.4064    0.7709    1.4682 H   0  0  0  0  0  0  0  0  0  0  0  0
    0.0230    1.0003    1.3432 H   0  0  0  0  0  0  0  0  0  0  0  0
   -0.3353    1.2440    3.6388 H   0  0  0  0  0  0  0  0  0  0  0  0
   -0.2353   -0.5347    3.9520 H   0  0  0  0  0  0  0  0  0  0  0  0
   -2.5582   -0.3460    4.1655 H   0  0  0  0  0  0  0  0  0  0  0  0
   -2.6120    1.1269    3.1115 H   0  0  0  0  0  0  0  0  0  0  0  0
   -2.5344   -1.8265    2.3297 H   0  0  0  0  0  0  0  0  0  0  0  0
   -4.6128   -0.5950    1.9222 H   0  0  0  0  0  0  0  0  0  0  0  0
   -3.7367    0.7241    1.0477 H   0  0  0  0  0  0  0  0  0  0  0  0
   -2.7466   -1.4499   -1.7833 H   0  0  0  0  0  0  0  0  0  0  0  0
   -2.9580    0.2806   -1.3188 H   0  0  0  0  0  0  0  0  0  0  0  0
   -5.0745    1.2813   -1.4742 H   0  0  0  0  0  0  0  0  0  0  0  0
   -5.9178    1.2222    0.1057 H   0  0  0  0  0  0  0  0  0  0  0  0
   -6.3262    0.9342   -3.5843 H   0  0  0  0  0  0  0  0  0  0  0  0
   -8.5102    1.0634   -4.7305 H   0  0  0  0  0  0  0  0  0  0  0  0
  -10.6123    1.0413   -3.4164 H   0  0  0  0  0  0  0  0  0  0  0  0
  -10.5282    0.8847   -0.9438 H   0  0  0  0  0  0  0  0  0  0  0  0
   -8.3538    0.7548    0.2205 H   0  0  0  0  0  0  0  0  0  0  0  0
  1  2  1  0
  2  3  2  0
  3  4  1  0
  3  5  1  0
  5  6  1  0
  6  7  1  0
  7  8  1  0
  8  9  1  0
  9 10  1  0
  8 11  1  0
 11 12  1  0
 12 13  1  0
 13 14  2  0
 13 15  1  0
 15 16  1  0
 16 17  1  0
 17 18  1  0
 18 19  1  0
 19 20  1  0
 20 21  1  0
 21 22  1  0
 22 23  2  0
 22 24  1  0
 20 25  1  0
 25 26  2  0
 25 27  2  0
 25 28  1  0
 28 29  1  0
 29 30  2  0
 30 31  1  0
 31 32  2  0
 32 33  1  0
 33 34  2  0
 10  5  1  0
 24 15  1  0
 34 29  1  0
 24 18  1  0
  1 35  1  0
  4 36  1  0
  4 37  1  0
  6 38  1  0
  6 39  1  0
  7 40  1  0
  7 41  1  0
  8 42  1  0
  9 43  1  0
  9 44  1  0
 10 45  1  0
 10 46  1  0
 11 47  1  0
 11 48  1  0
 12 49  1  0
 15 50  1  6
 16 51  1  0
 16 52  1  0
 17 53  1  0
 17 54  1  0
 18 55  1  1
 19 56  1  0
 19 57  1  0
 21 58  1  0
 21 59  1  0
 28 60  1  0
 28 61  1  0
 30 62  1  0
 31 63  1  0
 32 64  1  0
 33 65  1  0
 34 66  1  0
M  END
$$$$
