
     RDKit          3D

 39 41  0  0  0  0  0  0  0  0999 V2000
   -3.6469   -0.5426    0.1496 C   0  0  2  0  0  0  0  0  0  0  0  0
   -4.4324    0.7421    0.3790 C   0  0  0  0  0  0  0  0  0  0  0  0
   -3.3737    1.8439    0.3381 C   0  0  0  0  0  0  0  0  0  0  0  0
   -2.0871    1.2131    0.6688 N   0  0  0  0  0  0  0  0  0  0  0  0
   -0.9847    1.7262   -0.1543 C   0  0  0  0  0  0  0  0  0  0  0  0
    0.3031    0.9972    0.2445 C   0  0  0  0  0  0  0  0  0  0  0  0
    0.2277   -0.5411   -0.0172 C   0  0  1  0  0  0  0  0  0  0  0  0
    0.4735   -0.8332   -1.4385 N   0  0  0  0  0  0  0  0  0  0  0  0
    1.2784   -1.2907    0.8539 C   0  0  0  0  0  0  0  0  0  0  0  0
    2.7059   -0.8581    0.6033 C   0  0  0  0  0  0  0  0  0  0  0  0
    3.4688   -1.4763   -0.4030 C   0  0  0  0  0  0  0  0  0  0  0  0
    4.7851   -1.0695   -0.6415 C   0  0  0  0  0  0  0  0  0  0  0  0
    5.3518   -0.0470    0.1237 C   0  0  0  0  0  0  0  0  0  0  0  0
    4.6040    0.5685    1.1307 C   0  0  0  0  0  0  0  0  0  0  0  0
    3.2873    0.1650    1.3727 C   0  0  0  0  0  0  0  0  0  0  0  0
   -1.1584   -1.0622    0.3319 C   0  0  0  0  0  0  0  0  0  0  0  0
   -1.3611   -2.3028    0.4412 O   0  0  0  0  0  0  0  0  0  0  0  0
   -2.2691   -0.1517    0.3895 N   0  0  0  0  0  0  0  0  0  0  0  0
   -3.8140   -1.0552   -1.2570 C   0  0  0  0  0  0  0  0  0  0  0  0
   -3.4560   -0.3849   -2.2133 O   0  0  0  0  0  0  0  0  0  0  0  0
   -3.9582   -1.3236    0.8777 H   0  0  0  0  0  0  0  0  0  0  0  0
   -4.8962    0.7164    1.3897 H   0  0  0  0  0  0  0  0  0  0  0  0
   -5.2309    0.9133   -0.3770 H   0  0  0  0  0  0  0  0  0  0  0  0
   -3.3680    2.2970   -0.6802 H   0  0  0  0  0  0  0  0  0  0  0  0
   -3.6060    2.6374    1.0799 H   0  0  0  0  0  0  0  0  0  0  0  0
   -0.8541    2.8137    0.0379 H   0  0  0  0  0  0  0  0  0  0  0  0
   -1.1886    1.5834   -1.2393 H   0  0  0  0  0  0  0  0  0  0  0  0
    1.1607    1.4471   -0.3013 H   0  0  0  0  0  0  0  0  0  0  0  0
    0.4689    1.1864    1.3280 H   0  0  0  0  0  0  0  0  0  0  0  0
    1.3423   -0.3494   -1.7612 H   0  0  0  0  0  0  0  0  0  0  0  0
   -0.3082   -0.4527   -2.0204 H   0  0  0  0  0  0  0  0  0  0  0  0
    1.0362   -1.1488    1.9311 H   0  0  0  0  0  0  0  0  0  0  0  0
    1.2059   -2.3850    0.6655 H   0  0  0  0  0  0  0  0  0  0  0  0
    3.0427   -2.2698   -1.0043 H   0  0  0  0  0  0  0  0  0  0  0  0
    5.3658   -1.5472   -1.4200 H   0  0  0  0  0  0  0  0  0  0  0  0
    6.3708    0.2667   -0.0622 H   0  0  0  0  0  0  0  0  0  0  0  0
    5.0451    1.3582    1.7251 H   0  0  0  0  0  0  0  0  0  0  0  0
    2.7236    0.6485    2.1603 H   0  0  0  0  0  0  0  0  0  0  0  0
   -4.2540   -2.0326   -1.4245 H   0  0  0  0  0  0  0  0  0  0  0  0
  1  2  1  0
  2  3  1  0
  3  4  1  0
  4  5  1  0
  5  6  1  0
  6  7  1  0
  7  8  1  6
  7  9  1  0
  9 10  1  0
 10 11  2  0
 11 12  1  0
 12 13  2  0
 13 14  1  0
 14 15  2  0
  7 16  1  0
 16 17  2  0
 16 18  1  0
  1 19  1  0
 19 20  2  0
 18  1  1  0
 18  4  1  0
 15 10  1  0
  1 21  1  1
  2 22  1  0
  2 23  1  0
  3 24  1  0
  3 25  1  0
  5 26  1  0
  5 27  1  0
  6 28  1  0
  6 29  1  0
  8 30  1  0
  8 31  1  0
  9 32  1  0
  9 33  1  0
 11 34  1  0
 12 35  1  0
 13 36  1  0
 14 37  1  0
 15 38  1  0
 19 39  1  0
M  END
$$$$
