
     RDKit          3D

 58 61  0  0  0  0  0  0  0  0999 V2000
    0.9388   -1.0839   -0.0686 C   0  0  2  0  0  0  0  0  0  0  0  0
    1.9696   -1.9979    0.5762 C   0  0  0  0  0  0  0  0  0  0  0  0
    3.3150   -1.5038    0.0202 C   0  0  0  0  0  0  0  0  0  0  0  0
    3.0404   -0.1755   -0.7433 C   0  0  1  0  0  0  0  0  0  0  0  0
    4.0618    0.7911   -0.4695 O   0  0  0  0  0  0  0  0  0  0  0  0
    5.4256    0.6237   -0.7491 C   0  0  0  0  0  0  0  0  0  0  0  0
    6.3836    1.7043   -0.3815 C   0  0  0  0  0  0  0  0  0  0  0  0
    5.8571   -0.4416   -1.2677 O   0  0  0  0  0  0  0  0  0  0  0  0
    3.0045   -0.4340   -2.2050 C   0  0  0  0  0  0  0  0  0  0  0  0
    2.9794   -0.6462   -3.3917 C   0  0  0  0  0  0  0  0  0  0  0  0
    1.6455    0.2851   -0.1891 C   0  0  2  0  0  0  0  0  0  0  0  0
    1.8388    0.9982    1.2156 C   0  0  0  0  0  0  0  0  0  0  0  0
    2.2052    2.4914    1.1634 C   0  0  0  0  0  0  0  0  0  0  0  0
    0.7629    1.1507   -1.1314 C   0  0  0  0  0  0  0  0  0  0  0  0
   -0.6684    1.3035   -0.5670 C   0  0  0  0  0  0  0  0  0  0  0  0
   -1.3659   -0.0658   -0.3100 C   0  0  2  0  0  0  0  0  0  0  0  0
   -2.7744    0.0993    0.3412 C   0  0  1  0  0  0  0  0  0  0  0  0
   -3.7288    0.8884   -0.5874 C   0  0  0  0  0  0  0  0  0  0  0  0
   -5.1424    0.9844   -0.0106 C   0  0  0  0  0  0  0  0  0  0  0  0
   -5.6605   -0.3704    0.3964 C   0  0  0  0  0  0  0  0  0  0  0  0
   -4.7081   -1.4390    0.7418 C   0  0  0  0  0  0  0  0  0  0  0  0
   -3.3761   -1.2614    0.6941 C   0  0  0  0  0  0  0  0  0  0  0  0
   -2.4943   -2.3378    1.2842 C   0  0  0  0  0  0  0  0  0  0  0  0
   -1.1300   -2.4045    0.5998 C   0  0  0  0  0  0  0  0  0  0  0  0
   -0.4763   -1.0135    0.5524 C   0  0  1  0  0  0  0  0  0  0  0  0
   -6.9304   -0.6042    0.5641 N   0  0  0  0  0  0  0  0  0  0  0  0
   -7.9358    0.3278    0.3942 O   0  0  0  0  0  0  0  0  0  0  0  0
    0.7876   -1.4927   -1.0983 H   0  0  0  0  0  0  0  0  0  0  0  0
    1.7942   -3.0607    0.3009 H   0  0  0  0  0  0  0  0  0  0  0  0
    1.9416   -1.8959    1.6833 H   0  0  0  0  0  0  0  0  0  0  0  0
    3.7699   -2.2784   -0.6373 H   0  0  0  0  0  0  0  0  0  0  0  0
    4.0154   -1.3315    0.8669 H   0  0  0  0  0  0  0  0  0  0  0  0
    7.1735    1.7934   -1.1568 H   0  0  0  0  0  0  0  0  0  0  0  0
    6.8526    1.4655    0.5955 H   0  0  0  0  0  0  0  0  0  0  0  0
    5.8486    2.6738   -0.3012 H   0  0  0  0  0  0  0  0  0  0  0  0
    2.9567   -0.8324   -4.4330 H   0  0  0  0  0  0  0  0  0  0  0  0
    0.9279    0.9440    1.8362 H   0  0  0  0  0  0  0  0  0  0  0  0
    2.6244    0.4791    1.8048 H   0  0  0  0  0  0  0  0  0  0  0  0
    3.0210    2.7103    0.4498 H   0  0  0  0  0  0  0  0  0  0  0  0
    2.5329    2.8228    2.1715 H   0  0  0  0  0  0  0  0  0  0  0  0
    1.3227    3.1030    0.8849 H   0  0  0  0  0  0  0  0  0  0  0  0
    0.6727    0.6812   -2.1344 H   0  0  0  0  0  0  0  0  0  0  0  0
    1.2182    2.1490   -1.2975 H   0  0  0  0  0  0  0  0  0  0  0  0
   -0.6586    1.9019    0.3672 H   0  0  0  0  0  0  0  0  0  0  0  0
   -1.2412    1.8823   -1.3200 H   0  0  0  0  0  0  0  0  0  0  0  0
   -1.5076   -0.5437   -1.3073 H   0  0  0  0  0  0  0  0  0  0  0  0
   -2.6599    0.6696    1.2901 H   0  0  0  0  0  0  0  0  0  0  0  0
   -3.7751    0.3963   -1.5845 H   0  0  0  0  0  0  0  0  0  0  0  0
   -3.3651    1.9267   -0.7287 H   0  0  0  0  0  0  0  0  0  0  0  0
   -5.1409    1.6531    0.8771 H   0  0  0  0  0  0  0  0  0  0  0  0
   -5.7893    1.4287   -0.7961 H   0  0  0  0  0  0  0  0  0  0  0  0
   -5.1127   -2.3858    1.0828 H   0  0  0  0  0  0  0  0  0  0  0  0
   -2.9733   -3.3380    1.1945 H   0  0  0  0  0  0  0  0  0  0  0  0
   -2.3540   -2.1256    2.3664 H   0  0  0  0  0  0  0  0  0  0  0  0
   -0.4915   -3.1083    1.1754 H   0  0  0  0  0  0  0  0  0  0  0  0
   -1.2486   -2.8132   -0.4285 H   0  0  0  0  0  0  0  0  0  0  0  0
   -0.4254   -0.6481    1.5973 H   0  0  0  0  0  0  0  0  0  0  0  0
   -7.7538    1.3054    0.2076 H   0  0  0  0  0  0  0  0  0  0  0  0
  1  2  1  0
  2  3  1  0
  3  4  1  0
  4  5  1  0
  5  6  1  0
  6  7  1  0
  6  8  2  0
  4  9  1  6
  9 10  3  0
  4 11  1  0
 11 12  1  1
 12 13  1  0
 11 14  1  0
 14 15  1  0
 15 16  1  0
 16 17  1  0
 17 18  1  0
 18 19  1  0
 19 20  1  0
 20 21  1  0
 21 22  2  0
 22 23  1  0
 23 24  1  0
 24 25  1  0
 20 26  2  0
 26 27  1  0
 11  1  1  0
 25 16  1  0
 25  1  1  0
 22 17  1  0
  1 28  1  6
  2 29  1  0
  2 30  1  0
  3 31  1  0
  3 32  1  0
  7 33  1  0
  7 34  1  0
  7 35  1  0
 10 36  1  0
 12 37  1  0
 12 38  1  0
 13 39  1  0
 13 40  1  0
 13 41  1  0
 14 42  1  0
 14 43  1  0
 15 44  1  0
 15 45  1  0
 16 46  1  6
 17 47  1  1
 18 48  1  0
 18 49  1  0
 19 50  1  0
 19 51  1  0
 21 52  1  0
 23 53  1  0
 23 54  1  0
 24 55  1  0
 24 56  1  0
 25 57  1  1
 27 58  1  0
M  END
$$$$
