
     RDKit          3D

183184  0  0  0  0  0  0  0  0999 V2000
   -1.1504   -4.3494    0.2696 C   0  0  2  0  0  0  0  0  0  0  0  0
   -2.4461   -4.2900    0.9613 N   0  0  0  0  0  0  0  0  0  0  0  0
   -3.7260   -4.2016    0.3122 C   0  0  0  0  0  0  0  0  0  0  0  0
   -3.8005   -3.9203   -0.9147 O   0  0  0  0  0  0  0  0  0  0  0  0
   -4.9838   -4.4677    1.1044 C   0  0  2  0  0  0  0  0  0  0  0  0
   -5.0214   -5.9521    1.5293 C   0  0  0  0  0  0  0  0  0  0  0  0
   -6.2370   -6.3134    2.4065 C   0  0  0  0  0  0  0  0  0  0  0  0
   -6.1794   -5.6924    3.7298 N   0  0  0  0  0  0  0  0  0  0  0  0
   -6.1745   -4.1322    0.3103 N   0  0  0  0  0  0  0  0  0  0  0  0
   -6.6959   -2.8062    0.1109 C   0  0  0  0  0  0  0  0  0  0  0  0
   -7.7496   -2.6730   -0.5690 O   0  0  0  0  0  0  0  0  0  0  0  0
   -6.0268   -1.5612    0.6539 C   0  0  2  0  0  0  0  0  0  0  0  0
   -6.9689   -0.7939    1.6035 C   0  0  0  0  0  0  0  0  0  0  0  0
   -7.2747   -1.5483    2.9131 C   0  0  0  0  0  0  0  0  0  0  0  0
   -6.1729   -1.4683    3.8725 N   0  0  0  0  0  0  0  0  0  0  0  0
   -5.6628   -0.6989   -0.4738 N   0  0  0  0  0  0  0  0  0  0  0  0
   -4.3185   -0.6071   -0.9649 C   0  0  0  0  0  0  0  0  0  0  0  0
   -3.3531   -0.9502   -0.2313 O   0  0  0  0  0  0  0  0  0  0  0  0
   -4.0578   -0.1681   -2.3806 C   0  0  2  0  0  0  0  0  0  0  0  0
   -4.0662   -1.4065   -3.3010 C   0  0  0  0  0  0  0  0  0  0  0  0
   -3.9256   -1.0580   -4.8028 C   0  0  0  0  0  0  0  0  0  0  0  0
   -3.5088   -2.3043   -5.5946 C   0  0  0  0  0  0  0  0  0  0  0  0
   -5.2326   -0.4920   -5.3795 C   0  0  0  0  0  0  0  0  0  0  0  0
   -2.7640    0.5217   -2.4548 N   0  0  0  0  0  0  0  0  0  0  0  0
   -2.5215    1.8888   -2.0732 C   0  0  0  0  0  0  0  0  0  0  0  0
   -1.3290    2.2532   -1.8938 O   0  0  0  0  0  0  0  0  0  0  0  0
   -3.5991    2.9484   -1.9876 C   0  0  1  0  0  0  0  0  0  0  0  0
   -4.0483    3.3557   -3.4044 C   0  0  0  0  0  0  0  0  0  0  0  0
   -5.0059    4.5204   -3.3659 C   0  0  0  0  0  0  0  0  0  0  0  0
   -4.5346    5.8130   -3.0785 C   0  0  0  0  0  0  0  0  0  0  0  0
   -5.4253    6.8884   -3.0081 C   0  0  0  0  0  0  0  0  0  0  0  0
   -6.7907    6.6821   -3.2231 C   0  0  0  0  0  0  0  0  0  0  0  0
   -7.2677    5.3998   -3.5082 C   0  0  0  0  0  0  0  0  0  0  0  0
   -6.3807    4.3212   -3.5784 C   0  0  0  0  0  0  0  0  0  0  0  0
   -4.7361    2.5229   -1.1615 N   0  0  0  0  0  0  0  0  0  0  0  0
   -4.7689    2.5706    0.2748 C   0  0  0  0  0  0  0  0  0  0  0  0
   -5.8905    2.5257    0.8489 O   0  0  0  0  0  0  0  0  0  0  0  0
   -3.5201    2.6501    1.1288 C   0  0  1  0  0  0  0  0  0  0  0  0
   -3.5610    3.8934    2.0441 C   0  0  0  0  0  0  0  0  0  0  0  0
   -3.5326    5.2281    1.2812 C   0  0  0  0  0  0  0  0  0  0  0  0
   -2.1745    5.5615    0.8644 N   0  0  0  0  0  0  0  0  0  0  0  0
   -3.4418    1.4463    1.9648 N   0  0  0  0  0  0  0  0  0  0  0  0
   -2.2095    0.8719    2.4280 C   0  0  0  0  0  0  0  0  0  0  0  0
   -2.1848    0.3417    3.5722 O   0  0  0  0  0  0  0  0  0  0  0  0
   -0.9470    0.9057    1.5896 C   0  0  2  0  0  0  0  0  0  0  0  0
    0.0066   -0.2692    1.9184 C   0  0  0  0  0  0  0  0  0  0  0  0
   -0.5469   -1.6499    1.5335 C   0  0  0  0  0  0  0  0  0  0  0  0
   -0.5409   -1.8503    0.0813 N   0  0  0  0  0  0  0  0  0  0  0  0
   -0.9054   -3.0926   -0.5435 C   0  0  0  0  0  0  0  0  0  0  0  0
   -1.0207   -3.1258   -1.7984 O   0  0  0  0  0  0  0  0  0  0  0  0
   -0.2415    2.1735    1.8049 N   0  0  0  0  0  0  0  0  0  0  0  0
    0.8299    2.5967    0.9484 C   0  0  0  0  0  0  0  0  0  0  0  0
    0.9891    2.0548   -0.1798 O   0  0  0  0  0  0  0  0  0  0  0  0
    1.7889    3.6705    1.4012 C   0  0  2  0  0  0  0  0  0  0  0  0
    1.3934    5.0711    0.8740 C   0  0  0  0  0  0  0  0  0  0  0  0
    1.0948    5.1607   -0.6353 C   0  0  0  0  0  0  0  0  0  0  0  0
    2.2740    4.8486   -1.4358 N   0  0  0  0  0  0  0  0  0  0  0  0
    3.1668    3.3189    1.0356 N   0  0  0  0  0  0  0  0  0  0  0  0
    3.8009    2.1227    1.5133 C   0  0  0  0  0  0  0  0  0  0  0  0
    3.2280    1.4028    2.3772 O   0  0  0  0  0  0  0  0  0  0  0  0
    5.1253    1.6908    0.9344 C   0  0  1  0  0  0  0  0  0  0  0  0
    5.8808    0.8916    1.9071 N   0  0  0  0  0  0  0  0  0  0  0  0
    6.5135    1.4818    3.0525 C   0  0  0  0  0  0  0  0  0  0  0  0
    6.3476    2.7080    3.3024 O   0  0  0  0  0  0  0  0  0  0  0  0
    7.4114    0.6341    3.9207 C   0  0  2  0  0  0  0  0  0  0  0  0
    7.8819    1.3782    5.1865 C   0  0  0  0  0  0  0  0  0  0  0  0
    8.6853    0.4634    6.1184 C   0  0  0  0  0  0  0  0  0  0  0  0
    9.0566    1.1846    7.3317 N   0  0  0  0  0  0  0  0  0  0  0  0
    8.5667    0.2106    3.1253 N   0  0  0  0  0  0  0  0  0  0  0  0
    8.6415   -1.0839    2.5120 C   0  0  0  0  0  0  0  0  0  0  0  0
    7.9663   -2.0464    2.9673 O   0  0  0  0  0  0  0  0  0  0  0  0
    9.4641   -1.2803    1.2757 C   0  0  0  0  0  0  0  0  0  0  0  0
    8.6918   -0.7797    0.0511 C   0  0  0  0  0  0  0  0  0  0  0  0
    9.4936   -0.9981   -1.2400 C   0  0  0  0  0  0  0  0  0  0  0  0
    8.7258   -0.5340   -2.4957 C   0  0  0  0  0  0  0  0  0  0  0  0
    8.0606   -1.6813   -3.3022 C   0  0  0  0  0  0  0  0  0  0  0  0
    7.6417   -1.1484   -4.6820 C   0  0  0  0  0  0  0  0  0  0  0  0
    6.8293   -2.2959   -2.5808 C   0  0  0  0  0  0  0  0  0  0  0  0
    7.1632   -3.5873   -1.8325 C   0  0  0  0  0  0  0  0  0  0  0  0
    4.9474    0.9313   -0.4042 C   0  0  1  0  0  0  0  0  0  0  0  0
    4.0045   -0.2797   -0.3044 C   0  0  0  0  0  0  0  0  0  0  0  0
    4.4648    1.8197   -1.3796 O   0  0  0  0  0  0  0  0  0  0  0  0
   -0.9761   -5.6594   -0.5448 C   0  0  1  0  0  0  0  0  0  0  0  0
   -1.0675   -6.8943    0.3594 C   0  0  0  0  0  0  0  0  0  0  0  0
   -1.9351   -5.7521   -1.5659 O   0  0  0  0  0  0  0  0  0  0  0  0
   -0.3544   -4.3835    1.0438 H   0  0  0  0  0  0  0  0  0  0  0  0
   -2.4337   -4.3590    2.0042 H   0  0  0  0  0  0  0  0  0  0  0  0
   -4.9556   -3.8534    2.0251 H   0  0  0  0  0  0  0  0  0  0  0  0
   -5.0422   -6.5907    0.6185 H   0  0  0  0  0  0  0  0  0  0  0  0
   -4.0948   -6.2112    2.0858 H   0  0  0  0  0  0  0  0  0  0  0  0
   -6.2577   -7.4162    2.5390 H   0  0  0  0  0  0  0  0  0  0  0  0
   -7.1853   -6.0284    1.9029 H   0  0  0  0  0  0  0  0  0  0  0  0
   -5.2284   -5.8331    4.1416 H   0  0  0  0  0  0  0  0  0  0  0  0
   -6.3473   -4.6655    3.6380 H   0  0  0  0  0  0  0  0  0  0  0  0
   -6.6553   -4.9039   -0.2066 H   0  0  0  0  0  0  0  0  0  0  0  0
   -5.1125   -1.8141    1.2194 H   0  0  0  0  0  0  0  0  0  0  0  0
   -6.5214    0.1910    1.8500 H   0  0  0  0  0  0  0  0  0  0  0  0
   -7.9279   -0.5846    1.0803 H   0  0  0  0  0  0  0  0  0  0  0  0
   -7.5157   -2.6130    2.7091 H   0  0  0  0  0  0  0  0  0  0  0  0
   -8.1759   -1.0948    3.3793 H   0  0  0  0  0  0  0  0  0  0  0  0
   -5.9362   -0.4637    4.0419 H   0  0  0  0  0  0  0  0  0  0  0  0
   -5.3272   -1.9355    3.4769 H   0  0  0  0  0  0  0  0  0  0  0  0
   -6.4307   -0.2824   -1.0485 H   0  0  0  0  0  0  0  0  0  0  0  0
   -4.8689    0.5038   -2.7100 H   0  0  0  0  0  0  0  0  0  0  0  0
   -3.2292   -2.0721   -2.9955 H   0  0  0  0  0  0  0  0  0  0  0  0
   -5.0062   -1.9825   -3.1445 H   0  0  0  0  0  0  0  0  0  0  0  0
   -3.1258   -0.2968   -4.9358 H   0  0  0  0  0  0  0  0  0  0  0  0
   -3.3928   -2.0568   -6.6715 H   0  0  0  0  0  0  0  0  0  0  0  0
   -4.2700   -3.1073   -5.4895 H   0  0  0  0  0  0  0  0  0  0  0  0
   -2.5324   -2.6848   -5.2254 H   0  0  0  0  0  0  0  0  0  0  0  0
   -5.5048    0.4625   -4.8870 H   0  0  0  0  0  0  0  0  0  0  0  0
   -5.1129   -0.2828   -6.4640 H   0  0  0  0  0  0  0  0  0  0  0  0
   -6.0662   -1.2147   -5.2470 H   0  0  0  0  0  0  0  0  0  0  0  0
   -1.9145   -0.0699   -2.6061 H   0  0  0  0  0  0  0  0  0  0  0  0
   -3.1571    3.8552   -1.5245 H   0  0  0  0  0  0  0  0  0  0  0  0
   -3.1579    3.6507   -4.0028 H   0  0  0  0  0  0  0  0  0  0  0  0
   -4.5092    2.4915   -3.9267 H   0  0  0  0  0  0  0  0  0  0  0  0
   -3.4796    5.9852   -2.9043 H   0  0  0  0  0  0  0  0  0  0  0  0
   -5.0573    7.8814   -2.7848 H   0  0  0  0  0  0  0  0  0  0  0  0
   -7.4792    7.5153   -3.1670 H   0  0  0  0  0  0  0  0  0  0  0  0
   -8.3257    5.2407   -3.6717 H   0  0  0  0  0  0  0  0  0  0  0  0
   -6.7660    3.3321   -3.7934 H   0  0  0  0  0  0  0  0  0  0  0  0
   -5.6527    2.3453   -1.6314 H   0  0  0  0  0  0  0  0  0  0  0  0
   -2.6223    2.7140    0.4905 H   0  0  0  0  0  0  0  0  0  0  0  0
   -4.4827    3.8585    2.6660 H   0  0  0  0  0  0  0  0  0  0  0  0
   -2.7008    3.8634    2.7481 H   0  0  0  0  0  0  0  0  0  0  0  0
   -4.2136    5.2087    0.4019 H   0  0  0  0  0  0  0  0  0  0  0  0
   -3.8962    6.0260    1.9650 H   0  0  0  0  0  0  0  0  0  0  0  0
   -2.1970    6.5155    0.4372 H   0  0  0  0  0  0  0  0  0  0  0  0
   -1.8888    4.9071    0.1037 H   0  0  0  0  0  0  0  0  0  0  0  0
   -4.3020    1.1753    2.4942 H   0  0  0  0  0  0  0  0  0  0  0  0
   -1.2433    0.8346    0.5222 H   0  0  0  0  0  0  0  0  0  0  0  0
    0.2403   -0.2620    3.0058 H   0  0  0  0  0  0  0  0  0  0  0  0
    0.9752   -0.1296    1.3937 H   0  0  0  0  0  0  0  0  0  0  0  0
   -1.5764   -1.7834    1.9273 H   0  0  0  0  0  0  0  0  0  0  0  0
    0.1087   -2.4082    2.0099 H   0  0  0  0  0  0  0  0  0  0  0  0
   -0.2728   -1.0582   -0.5462 H   0  0  0  0  0  0  0  0  0  0  0  0
   -0.4256    2.7198    2.6771 H   0  0  0  0  0  0  0  0  0  0  0  0
    1.7476    3.7254    2.5116 H   0  0  0  0  0  0  0  0  0  0  0  0
    0.4835    5.3988    1.4203 H   0  0  0  0  0  0  0  0  0  0  0  0
    2.1924    5.7998    1.1328 H   0  0  0  0  0  0  0  0  0  0  0  0
    0.7501    6.1924   -0.8711 H   0  0  0  0  0  0  0  0  0  0  0  0
    0.2676    4.4724   -0.9072 H   0  0  0  0  0  0  0  0  0  0  0  0
    1.9854    4.8451   -2.4408 H   0  0  0  0  0  0  0  0  0  0  0  0
    2.9587    5.6318   -1.3261 H   0  0  0  0  0  0  0  0  0  0  0  0
    3.7363    3.9714    0.4528 H   0  0  0  0  0  0  0  0  0  0  0  0
    5.7226    2.6025    0.7090 H   0  0  0  0  0  0  0  0  0  0  0  0
    6.0374   -0.1260    1.7335 H   0  0  0  0  0  0  0  0  0  0  0  0
    6.8190   -0.2488    4.2473 H   0  0  0  0  0  0  0  0  0  0  0  0
    8.5077    2.2519    4.8986 H   0  0  0  0  0  0  0  0  0  0  0  0
    6.9937    1.7538    5.7413 H   0  0  0  0  0  0  0  0  0  0  0  0
    8.0648   -0.4170    6.3955 H   0  0  0  0  0  0  0  0  0  0  0  0
    9.6028    0.1000    5.6035 H   0  0  0  0  0  0  0  0  0  0  0  0
    9.7711    1.9053    7.0777 H   0  0  0  0  0  0  0  0  0  0  0  0
    9.5328    0.5075    7.9706 H   0  0  0  0  0  0  0  0  0  0  0  0
    9.2437    0.9446    2.8147 H   0  0  0  0  0  0  0  0  0  0  0  0
   10.4201   -0.7223    1.3757 H   0  0  0  0  0  0  0  0  0  0  0  0
    9.7033   -2.3599    1.1564 H   0  0  0  0  0  0  0  0  0  0  0  0
    8.4819    0.3067    0.1700 H   0  0  0  0  0  0  0  0  0  0  0  0
    7.7208   -1.3119   -0.0052 H   0  0  0  0  0  0  0  0  0  0  0  0
    9.8028   -2.0608   -1.3360 H   0  0  0  0  0  0  0  0  0  0  0  0
   10.4302   -0.4027   -1.1607 H   0  0  0  0  0  0  0  0  0  0  0  0
    7.9727    0.2438   -2.2401 H   0  0  0  0  0  0  0  0  0  0  0  0
    9.4674   -0.0337   -3.1576 H   0  0  0  0  0  0  0  0  0  0  0  0
    8.8219   -2.4714   -3.4910 H   0  0  0  0  0  0  0  0  0  0  0  0
    7.2189   -1.9693   -5.3002 H   0  0  0  0  0  0  0  0  0  0  0  0
    6.8785   -0.3473   -4.5752 H   0  0  0  0  0  0  0  0  0  0  0  0
    8.5202   -0.7385   -5.2249 H   0  0  0  0  0  0  0  0  0  0  0  0
    6.0339   -2.5534   -3.3146 H   0  0  0  0  0  0  0  0  0  0  0  0
    6.3733   -1.5648   -1.8830 H   0  0  0  0  0  0  0  0  0  0  0  0
    7.5334   -4.3561   -2.5434 H   0  0  0  0  0  0  0  0  0  0  0  0
    6.2468   -3.9761   -1.3404 H   0  0  0  0  0  0  0  0  0  0  0  0
    7.9300   -3.4198   -1.0523 H   0  0  0  0  0  0  0  0  0  0  0  0
    5.9533    0.5654   -0.7132 H   0  0  0  0  0  0  0  0  0  0  0  0
    3.9938   -0.8236   -1.2724 H   0  0  0  0  0  0  0  0  0  0  0  0
    2.9674    0.0468   -0.0850 H   0  0  0  0  0  0  0  0  0  0  0  0
    4.3365   -0.9878    0.4816 H   0  0  0  0  0  0  0  0  0  0  0  0
    4.6599    1.4120   -2.2640 H   0  0  0  0  0  0  0  0  0  0  0  0
    0.0450   -5.6430   -0.9949 H   0  0  0  0  0  0  0  0  0  0  0  0
   -0.3194   -6.8321    1.1781 H   0  0  0  0  0  0  0  0  0  0  0  0
   -0.8598   -7.8105   -0.2329 H   0  0  0  0  0  0  0  0  0  0  0  0
   -2.0826   -6.9832    0.7991 H   0  0  0  0  0  0  0  0  0  0  0  0
   -1.5951   -6.4142   -2.2230 H   0  0  0  0  0  0  0  0  0  0  0  0
  1  2  1  0
  2  3  1  0
  3  4  2  0
  3  5  1  0
  5  6  1  0
  6  7  1  0
  7  8  1  0
  5  9  1  0
  9 10  1  0
 10 11  2  0
 10 12  1  0
 12 13  1  0
 13 14  1  0
 14 15  1  0
 12 16  1  0
 16 17  1  0
 17 18  2  0
 17 19  1  0
 19 20  1  0
 20 21  1  0
 21 22  1  0
 21 23  1  0
 19 24  1  0
 24 25  1  0
 25 26  2  0
 25 27  1  0
 27 28  1  0
 28 29  1  0
 29 30  2  0
 30 31  1  0
 31 32  2  0
 32 33  1  0
 33 34  2  0
 27 35  1  0
 35 36  1  0
 36 37  2  0
 36 38  1  0
 38 39  1  0
 39 40  1  0
 40 41  1  0
 38 42  1  0
 42 43  1  0
 43 44  2  0
 43 45  1  0
 45 46  1  0
 46 47  1  0
 47 48  1  0
 48 49  1  0
 49 50  2  0
 45 51  1  0
 51 52  1  0
 52 53  2  0
 52 54  1  0
 54 55  1  0
 55 56  1  0
 56 57  1  0
 54 58  1  0
 58 59  1  0
 59 60  2  0
 59 61  1  0
 61 62  1  0
 62 63  1  0
 63 64  2  0
 63 65  1  0
 65 66  1  0
 66 67  1  0
 67 68  1  0
 65 69  1  0
 69 70  1  0
 70 71  2  0
 70 72  1  0
 72 73  1  0
 73 74  1  0
 74 75  1  0
 75 76  1  0
 76 77  1  0
 76 78  1  0
 78 79  1  0
 61 80  1  0
 80 81  1  0
 80 82  1  0
  1 83  1  0
 83 84  1  0
 83 85  1  0
 49  1  1  0
 34 29  1  0
  1 86  1  1
  2 87  1  0
  5 88  1  1
  6 89  1  0
  6 90  1  0
  7 91  1  0
  7 92  1  0
  8 93  1  0
  8 94  1  0
  9 95  1  0
 12 96  1  1
 13 97  1  0
 13 98  1  0
 14 99  1  0
 14100  1  0
 15101  1  0
 15102  1  0
 16103  1  0
 19104  1  6
 20105  1  0
 20106  1  0
 21107  1  0
 22108  1  0
 22109  1  0
 22110  1  0
 23111  1  0
 23112  1  0
 23113  1  0
 24114  1  0
 27115  1  1
 28116  1  0
 28117  1  0
 30118  1  0
 31119  1  0
 32120  1  0
 33121  1  0
 34122  1  0
 35123  1  0
 38124  1  6
 39125  1  0
 39126  1  0
 40127  1  0
 40128  1  0
 41129  1  0
 41130  1  0
 42131  1  0
 45132  1  6
 46133  1  0
 46134  1  0
 47135  1  0
 47136  1  0
 48137  1  0
 51138  1  0
 54139  1  1
 55140  1  0
 55141  1  0
 56142  1  0
 56143  1  0
 57144  1  0
 57145  1  0
 58146  1  0
 61147  1  6
 62148  1  0
 65149  1  1
 66150  1  0
 66151  1  0
 67152  1  0
 67153  1  0
 68154  1  0
 68155  1  0
 69156  1  0
 72157  1  0
 72158  1  0
 73159  1  0
 73160  1  0
 74161  1  0
 74162  1  0
 75163  1  0
 75164  1  0
 76165  1  0
 77166  1  0
 77167  1  0
 77168  1  0
 78169  1  0
 78170  1  0
 79171  1  0
 79172  1  0
 79173  1  0
 80174  1  6
 81175  1  0
 81176  1  0
 81177  1  0
 82178  1  0
 83179  1  6
 84180  1  0
 84181  1  0
 84182  1  0
 85183  1  0
M  END
$$$$
