
     RDKit          3D

 24 25  0  0  0  0  0  0  0  0999 V2000
   -2.7805   -1.5974    1.1085 N   0  0  0  0  0  0  0  0  0  0  0  0
   -2.6116   -0.8267   -0.4304 S   0  0  0  0  0  6  0  0  0  0  0  0
   -2.3960   -1.8622   -1.4982 O   0  0  0  0  0  0  0  0  0  0  0  0
   -3.8780   -0.0765   -0.7377 O   0  0  0  0  0  0  0  0  0  0  0  0
   -1.2280    0.2826   -0.3909 C   0  0  0  0  0  0  0  0  0  0  0  0
    0.0965   -0.1612   -0.1274 C   0  0  0  0  0  0  0  0  0  0  0  0
    0.3959   -1.5184    0.1164 C   0  0  0  0  0  0  0  0  0  0  0  0
    1.7056   -1.9244    0.3728 C   0  0  0  0  0  0  0  0  0  0  0  0
    2.7409   -0.9932    0.3917 C   0  0  0  0  0  0  0  0  0  0  0  0
    2.4794    0.3605    0.1538 C   0  0  0  0  0  0  0  0  0  0  0  0
    3.5292    1.2802    0.1764 O   0  0  0  0  0  0  0  0  0  0  0  0
    1.1600    0.7864   -0.1068 C   0  0  0  0  0  0  0  0  0  0  0  0
    0.8858    2.1431   -0.3468 C   0  0  0  0  0  0  0  0  0  0  0  0
   -0.4157    2.5650   -0.6034 C   0  0  0  0  0  0  0  0  0  0  0  0
   -1.4622    1.6463   -0.6252 C   0  0  0  0  0  0  0  0  0  0  0  0
   -3.6436   -2.1840    1.0643 H   0  0  0  0  0  0  0  0  0  0  0  0
   -2.9620   -0.8439    1.8088 H   0  0  0  0  0  0  0  0  0  0  0  0
   -0.3689   -2.2805    0.1126 H   0  0  0  0  0  0  0  0  0  0  0  0
    1.9192   -2.9693    0.5580 H   0  0  0  0  0  0  0  0  0  0  0  0
    3.7515   -1.3258    0.5923 H   0  0  0  0  0  0  0  0  0  0  0  0
    4.4836    0.9940    0.3617 H   0  0  0  0  0  0  0  0  0  0  0  0
    1.6759    2.8837   -0.3370 H   0  0  0  0  0  0  0  0  0  0  0  0
   -0.6156    3.6130   -0.7866 H   0  0  0  0  0  0  0  0  0  0  0  0
   -2.4615    2.0086   -0.8267 H   0  0  0  0  0  0  0  0  0  0  0  0
  1  2  1  0
  2  3  2  0
  2  4  2  0
  2  5  1  0
  5  6  2  0
  6  7  1  0
  7  8  2  0
  8  9  1  0
  9 10  2  0
 10 11  1  0
 10 12  1  0
 12 13  2  0
 13 14  1  0
 14 15  2  0
 15  5  1  0
 12  6  1  0
  1 16  1  0
  1 17  1  0
  7 18  1  0
  8 19  1  0
  9 20  1  0
 11 21  1  0
 13 22  1  0
 14 23  1  0
 15 24  1  0
M  END
$$$$
