
     RDKit          3D

 46 48  0  0  0  0  0  0  0  0999 V2000
    0.6023    0.6473   -4.0962 C   0  0  1  0  0  0  0  0  0  0  0  0
    1.2989    1.2726   -5.2227 N   0  0  0  0  0  0  0  0  0  0  0  0
   -0.8955    1.0291   -4.1212 C   0  0  0  0  0  0  0  0  0  0  0  0
   -1.8083   -0.0139   -3.4402 C   0  0  0  0  0  0  0  0  0  0  0  0
   -1.0974   -0.8042   -2.3235 C   0  0  1  0  0  0  0  0  0  0  0  0
    0.1680   -1.5308   -2.8555 C   0  0  0  0  0  0  0  0  0  0  0  0
    0.7849   -0.8806   -4.1091 C   0  0  0  0  0  0  0  0  0  0  0  0
   -0.7607    0.0767   -1.1960 N   0  0  0  0  0  0  0  0  0  0  0  0
   -0.4220   -0.4342    0.1030 C   0  0  0  0  0  0  0  0  0  0  0  0
   -0.4241   -1.7809    0.3338 N   0  0  0  0  0  0  0  0  0  0  0  0
   -0.0981   -2.2358    1.5658 C   0  0  0  0  0  0  0  0  0  0  0  0
   -0.0352   -3.5309    2.0101 C   0  0  0  0  0  0  0  0  0  0  0  0
    0.3452   -3.4133    3.3409 C   0  0  0  0  0  0  0  0  0  0  0  0
    0.4971   -2.1032    3.6576 N   0  0  0  0  0  0  0  0  0  0  0  0
    0.2236   -1.4070    2.5644 N   0  0  0  0  0  0  0  0  0  0  0  0
    0.2443   -0.0551    2.4183 C   0  0  0  0  0  0  0  0  0  0  0  0
    0.6045    0.7903    3.5304 N   0  0  0  0  0  0  0  0  0  0  0  0
    0.5332    2.2574    3.5163 C   0  0  0  0  0  0  0  0  0  0  0  0
   -0.9262    2.7157    3.6089 C   0  0  0  0  0  0  0  0  0  0  0  0
    1.3432    2.8391    4.6806 C   0  0  0  0  0  0  0  0  0  0  0  0
   -0.0856    0.4598    1.1452 C   0  0  0  0  0  0  0  0  0  0  0  0
   -0.2997   -4.7359    1.2727 C   0  0  0  0  0  0  0  0  0  0  0  0
   -0.5127   -5.7057    0.6785 N   0  0  0  0  0  0  0  0  0  0  0  0
    1.0482    1.0403   -3.1543 H   0  0  0  0  0  0  0  0  0  0  0  0
    0.9997    0.8130   -6.1140 H   0  0  0  0  0  0  0  0  0  0  0  0
    2.3256    1.1030   -5.1163 H   0  0  0  0  0  0  0  0  0  0  0  0
   -1.0204    2.0138   -3.6203 H   0  0  0  0  0  0  0  0  0  0  0  0
   -1.2422    1.1559   -5.1706 H   0  0  0  0  0  0  0  0  0  0  0  0
   -2.7091    0.4919   -3.0290 H   0  0  0  0  0  0  0  0  0  0  0  0
   -2.1637   -0.7366   -4.2080 H   0  0  0  0  0  0  0  0  0  0  0  0
   -1.8179   -1.5711   -1.9605 H   0  0  0  0  0  0  0  0  0  0  0  0
    0.9435   -1.5798   -2.0606 H   0  0  0  0  0  0  0  0  0  0  0  0
   -0.0945   -2.5823   -3.1041 H   0  0  0  0  0  0  0  0  0  0  0  0
    1.8664   -1.1346   -4.1556 H   0  0  0  0  0  0  0  0  0  0  0  0
    0.3012   -1.3019   -5.0184 H   0  0  0  0  0  0  0  0  0  0  0  0
   -0.8253    1.1133   -1.3157 H   0  0  0  0  0  0  0  0  0  0  0  0
    0.5014   -4.2282    4.0353 H   0  0  0  0  0  0  0  0  0  0  0  0
    0.9349    0.3223    4.4050 H   0  0  0  0  0  0  0  0  0  0  0  0
    0.9874    2.6465    2.5800 H   0  0  0  0  0  0  0  0  0  0  0  0
   -1.3881    2.3481    4.5502 H   0  0  0  0  0  0  0  0  0  0  0  0
   -1.5145    2.3256    2.7531 H   0  0  0  0  0  0  0  0  0  0  0  0
   -0.9819    3.8250    3.5883 H   0  0  0  0  0  0  0  0  0  0  0  0
    1.3250    3.9494    4.6449 H   0  0  0  0  0  0  0  0  0  0  0  0
    0.9274    2.5031    5.6550 H   0  0  0  0  0  0  0  0  0  0  0  0
    2.4002    2.5052    4.6084 H   0  0  0  0  0  0  0  0  0  0  0  0
   -0.0831    1.5219    0.9477 H   0  0  0  0  0  0  0  0  0  0  0  0
  1  2  1  0
  1  3  1  0
  3  4  1  0
  4  5  1  0
  5  6  1  0
  6  7  1  0
  5  8  1  0
  8  9  1  0
  9 10  2  0
 10 11  1  0
 11 12  2  0
 12 13  1  0
 13 14  2  0
 14 15  1  0
 15 16  1  0
 16 17  1  0
 17 18  1  0
 18 19  1  0
 18 20  1  0
 16 21  2  0
 12 22  1  0
 22 23  3  0
  7  1  1  0
 21  9  1  0
 15 11  1  0
  1 24  1  1
  2 25  1  0
  2 26  1  0
  3 27  1  0
  3 28  1  0
  4 29  1  0
  4 30  1  0
  5 31  1  1
  6 32  1  0
  6 33  1  0
  7 34  1  0
  7 35  1  0
  8 36  1  0
 13 37  1  0
 17 38  1  0
 18 39  1  0
 19 40  1  0
 19 41  1  0
 19 42  1  0
 20 43  1  0
 20 44  1  0
 20 45  1  0
 21 46  1  0
M  END
$$$$
