
     RDKit          3D

 30 29  0  0  0  0  0  0  0  0999 V2000
   -3.5417    0.2684   -0.1465 C   0  0  2  0  0  0  0  0  0  0  0  0
   -4.2546    1.4474   -0.4177 O   0  0  0  0  0  0  0  0  0  0  0  0
   -4.0776   -0.3707    1.1463 C   0  0  0  0  0  0  0  0  0  0  0  0
   -3.4374   -1.5912    1.4065 O   0  0  0  0  0  0  0  0  0  0  0  0
   -2.0508    0.6027   -0.0245 C   0  0  0  0  0  0  0  0  0  0  0  0
   -1.6051    1.1694   -1.2343 O   0  0  0  0  0  0  0  0  0  0  0  0
    0.0651    1.4874   -1.1007 P   0  0  0  0  0  5  0  0  0  0  0  0
    0.3353    2.6346    0.1175 O   0  0  0  0  0  0  0  0  0  0  0  0
    0.5484    2.0490   -2.4192 O   0  0  0  0  0  0  0  0  0  0  0  0
    0.8970    0.0375   -0.7520 O   0  0  0  0  0  0  0  0  0  0  0  0
    2.2773    0.3133   -0.6930 C   0  0  0  0  0  0  0  0  0  0  0  0
    3.0360   -0.9650   -0.3118 C   0  0  2  0  0  0  0  0  0  0  0  0
    2.6798   -1.3867    1.0448 N   0  0  0  0  0  0  0  0  0  0  0  0
    4.5171   -0.7254   -0.4004 C   0  0  0  0  0  0  0  0  0  0  0  0
    5.2438   -1.2706   -1.4543 O   0  0  0  0  0  0  0  0  0  0  0  0
    5.0987   -0.0107    0.4601 O   0  0  0  0  0  0  0  0  0  0  0  0
   -3.6706   -0.4517   -0.9888 H   0  0  0  0  0  0  0  0  0  0  0  0
   -5.1344    1.1727   -0.7873 H   0  0  0  0  0  0  0  0  0  0  0  0
   -5.1768   -0.5302    1.0624 H   0  0  0  0  0  0  0  0  0  0  0  0
   -3.9053    0.3146    2.0038 H   0  0  0  0  0  0  0  0  0  0  0  0
   -3.8103   -2.2501    0.7642 H   0  0  0  0  0  0  0  0  0  0  0  0
   -1.9179    1.3210    0.8161 H   0  0  0  0  0  0  0  0  0  0  0  0
   -1.4948   -0.3371    0.1950 H   0  0  0  0  0  0  0  0  0  0  0  0
    0.3738    2.1135    0.9588 H   0  0  0  0  0  0  0  0  0  0  0  0
    2.4980    1.0966    0.0684 H   0  0  0  0  0  0  0  0  0  0  0  0
    2.6407    0.6539   -1.6898 H   0  0  0  0  0  0  0  0  0  0  0  0
    2.7626   -1.7710   -1.0306 H   0  0  0  0  0  0  0  0  0  0  0  0
    1.6654   -1.6413    1.0588 H   0  0  0  0  0  0  0  0  0  0  0  0
    3.1973   -2.2703    1.2606 H   0  0  0  0  0  0  0  0  0  0  0  0
    6.2407   -1.1103   -1.5355 H   0  0  0  0  0  0  0  0  0  0  0  0
  1  2  1  0
  1  3  1  0
  3  4  1  0
  1  5  1  0
  5  6  1  0
  6  7  1  0
  7  8  1  0
  7  9  2  0
  7 10  1  0
 10 11  1  0
 11 12  1  0
 12 13  1  0
 12 14  1  0
 14 15  1  0
 14 16  2  0
  1 17  1  6
  2 18  1  0
  3 19  1  0
  3 20  1  0
  4 21  1  0
  5 22  1  0
  5 23  1  0
  8 24  1  0
 11 25  1  0
 11 26  1  0
 12 27  1  6
 13 28  1  0
 13 29  1  0
 15 30  1  0
M  END
$$$$
