
     RDKit          3D

 55 58  0  0  0  0  0  0  0  0999 V2000
    8.1728    2.9671    2.6172 C   0  0  0  0  0  0  0  0  0  0  0  0
    7.6224    1.6251    2.1623 C   0  0  0  0  0  0  0  0  0  0  0  0
    6.3613    1.8161    1.5291 O   0  0  0  0  0  0  0  0  0  0  0  0
    5.6135    0.7588    1.0036 C   0  0  0  0  0  0  0  0  0  0  0  0
    6.0344   -0.4269    1.0987 O   0  0  0  0  0  0  0  0  0  0  0  0
    4.3446    1.0370    0.3966 N   0  0  0  0  0  0  0  0  0  0  0  0
    3.5654    0.0737   -0.3335 C   0  0  0  0  0  0  0  0  0  0  0  0
    2.1645    0.1408   -0.2774 C   0  0  0  0  0  0  0  0  0  0  0  0
    1.3760   -0.7698   -0.9995 C   0  0  0  0  0  0  0  0  0  0  0  0
    2.0032   -1.7596   -1.7772 C   0  0  0  0  0  0  0  0  0  0  0  0
    0.9893   -2.8969   -2.7322 S   0  0  0  0  0  0  0  0  0  0  0  0
   -0.1125   -3.2266   -1.3512 C   0  0  0  0  0  0  0  0  0  0  0  0
   -0.4881   -4.5370   -1.0382 C   0  0  0  0  0  0  0  0  0  0  0  0
   -1.3753   -4.7749    0.0155 C   0  0  0  0  0  0  0  0  0  0  0  0
   -1.8710   -3.7067    0.7694 C   0  0  0  0  0  0  0  0  0  0  0  0
   -1.4762   -2.3975    0.4766 C   0  0  0  0  0  0  0  0  0  0  0  0
   -0.6081   -2.1458   -0.5978 C   0  0  0  0  0  0  0  0  0  0  0  0
   -0.0538   -0.8308   -0.8116 N   0  0  0  0  0  0  0  0  0  0  0  0
   -0.8793    0.3436   -1.0021 C   0  0  0  0  0  0  0  0  0  0  0  0
   -0.3445    1.4849   -1.0467 O   0  0  0  0  0  0  0  0  0  0  0  0
   -2.3669    0.2556   -1.2327 C   0  0  0  0  0  0  0  0  0  0  0  0
   -3.1432    0.9395   -0.0965 C   0  0  0  0  0  0  0  0  0  0  0  0
   -4.5909    0.6460   -0.1812 N   0  0  0  0  0  0  0  0  0  0  0  0
   -5.1990    1.2360   -1.3982 C   0  0  0  0  0  0  0  0  0  0  0  0
   -6.7059    1.4756   -1.2079 C   0  0  0  0  0  0  0  0  0  0  0  0
   -7.0100    2.3774   -0.1522 O   0  0  0  0  0  0  0  0  0  0  0  0
   -6.0387    2.3897    0.8856 C   0  0  0  0  0  0  0  0  0  0  0  0
   -5.3014    1.0491    1.0576 C   0  0  0  0  0  0  0  0  0  0  0  0
    3.3966   -1.8326   -1.8360 C   0  0  0  0  0  0  0  0  0  0  0  0
    4.1757   -0.9115   -1.1311 C   0  0  0  0  0  0  0  0  0  0  0  0
    9.1564    2.8210    3.1114 H   0  0  0  0  0  0  0  0  0  0  0  0
    8.3044    3.6393    1.7430 H   0  0  0  0  0  0  0  0  0  0  0  0
    7.4729    3.4394    3.3387 H   0  0  0  0  0  0  0  0  0  0  0  0
    8.3349    1.1594    1.4471 H   0  0  0  0  0  0  0  0  0  0  0  0
    7.5027    0.9593    3.0444 H   0  0  0  0  0  0  0  0  0  0  0  0
    3.9268    1.9783    0.5744 H   0  0  0  0  0  0  0  0  0  0  0  0
    1.6938    0.8693    0.3703 H   0  0  0  0  0  0  0  0  0  0  0  0
   -0.1065   -5.3675   -1.6182 H   0  0  0  0  0  0  0  0  0  0  0  0
   -1.6735   -5.7879    0.2526 H   0  0  0  0  0  0  0  0  0  0  0  0
   -2.5428   -3.8957    1.5967 H   0  0  0  0  0  0  0  0  0  0  0  0
   -1.8161   -1.5888    1.1075 H   0  0  0  0  0  0  0  0  0  0  0  0
   -2.5929    0.7633   -2.1945 H   0  0  0  0  0  0  0  0  0  0  0  0
   -2.7036   -0.7952   -1.3391 H   0  0  0  0  0  0  0  0  0  0  0  0
   -2.9629    2.0383   -0.1156 H   0  0  0  0  0  0  0  0  0  0  0  0
   -2.7406    0.5536    0.8654 H   0  0  0  0  0  0  0  0  0  0  0  0
   -4.7233    2.2079   -1.6627 H   0  0  0  0  0  0  0  0  0  0  0  0
   -5.0575    0.5374   -2.2505 H   0  0  0  0  0  0  0  0  0  0  0  0
   -7.1226    1.8870   -2.1513 H   0  0  0  0  0  0  0  0  0  0  0  0
   -7.2151    0.5060   -1.0170 H   0  0  0  0  0  0  0  0  0  0  0  0
   -5.3008    3.1967    0.6860 H   0  0  0  0  0  0  0  0  0  0  0  0
   -6.5494    2.6388    1.8396 H   0  0  0  0  0  0  0  0  0  0  0  0
   -4.6204    1.1187    1.9349 H   0  0  0  0  0  0  0  0  0  0  0  0
   -6.0478    0.2643    1.3058 H   0  0  0  0  0  0  0  0  0  0  0  0
    3.8771   -2.5849   -2.4484 H   0  0  0  0  0  0  0  0  0  0  0  0
    5.2519   -0.9572   -1.2293 H   0  0  0  0  0  0  0  0  0  0  0  0
  1  2  1  0
  2  3  1  0
  3  4  1  0
  4  5  2  0
  4  6  1  0
  6  7  1  0
  7  8  2  0
  8  9  1  0
  9 10  2  0
 10 11  1  0
 11 12  1  0
 12 13  2  0
 13 14  1  0
 14 15  2  0
 15 16  1  0
 16 17  2  0
 17 18  1  0
 18 19  1  0
 19 20  2  0
 19 21  1  0
 21 22  1  0
 22 23  1  0
 23 24  1  0
 24 25  1  0
 25 26  1  0
 26 27  1  0
 27 28  1  0
 10 29  1  0
 29 30  2  0
 30  7  1  0
 18  9  1  0
 28 23  1  0
 17 12  1  0
  1 31  1  0
  1 32  1  0
  1 33  1  0
  2 34  1  0
  2 35  1  0
  6 36  1  0
  8 37  1  0
 13 38  1  0
 14 39  1  0
 15 40  1  0
 16 41  1  0
 21 42  1  0
 21 43  1  0
 22 44  1  0
 22 45  1  0
 24 46  1  0
 24 47  1  0
 25 48  1  0
 25 49  1  0
 27 50  1  0
 27 51  1  0
 28 52  1  0
 28 53  1  0
 29 54  1  0
 30 55  1  0
M  END
$$$$
