
     RDKit          3D

 48 53  0  0  0  0  0  0  0  0999 V2000
   -2.0344   -0.1466    1.8541 C   0  0  2  0  0  0  0  0  0  0  0  0
   -3.1079    0.7014    1.4205 O   0  0  0  0  0  0  0  0  0  0  0  0
   -2.9168    1.0647    0.1030 C   0  0  0  0  0  0  0  0  0  0  0  0
   -3.8344    1.6587   -0.7621 C   0  0  0  0  0  0  0  0  0  0  0  0
   -5.0653    2.1055   -0.2894 O   0  0  0  0  0  0  0  0  0  0  0  0
   -3.4867    1.7614   -2.1263 C   0  0  0  0  0  0  0  0  0  0  0  0
   -2.2687    1.2174   -2.5924 C   0  0  0  0  0  0  0  0  0  0  0  0
   -1.3657    0.6310   -1.6844 C   0  0  0  0  0  0  0  0  0  0  0  0
   -1.6964    0.6576   -0.3327 C   0  0  0  0  0  0  0  0  0  0  0  0
   -0.9093    0.0507    0.7785 C   0  0  1  0  0  0  0  0  0  0  0  0
    0.1602    1.0668    1.2510 C   0  0  0  0  0  0  0  0  0  0  0  0
    1.1726    1.4059    0.1356 C   0  0  0  0  0  0  0  0  0  0  0  0
    1.7040    0.2120   -0.5695 N   0  0  0  0  0  0  0  0  0  0  0  0
    2.8837   -0.3716    0.1049 C   0  0  0  0  0  0  0  0  0  0  0  0
    4.1503    0.3606   -0.3548 C   0  0  0  0  0  0  0  0  0  0  0  0
    4.7669    1.3401    0.6339 C   0  0  0  0  0  0  0  0  0  0  0  0
    5.4053   -0.0218    0.4160 C   0  0  0  0  0  0  0  0  0  0  0  0
    0.6653   -0.7823   -0.9650 C   0  0  2  0  0  0  0  0  0  0  0  0
   -0.1833   -0.1937   -2.1409 C   0  0  0  0  0  0  0  0  0  0  0  0
   -0.2006   -1.2287    0.2677 C   0  0  1  0  0  0  0  0  0  0  0  0
    0.6651   -1.7752    1.2411 O   0  0  0  0  0  0  0  0  0  0  0  0
   -1.2450   -2.3049   -0.1083 C   0  0  0  0  0  0  0  0  0  0  0  0
   -2.0991   -2.7182    1.0975 C   0  0  0  0  0  0  0  0  0  0  0  0
   -2.5616   -1.5660    1.9644 C   0  0  0  0  0  0  0  0  0  0  0  0
   -3.4016   -1.7984    2.8203 O   0  0  0  0  0  0  0  0  0  0  0  0
   -1.6873    0.1784    2.8594 H   0  0  0  0  0  0  0  0  0  0  0  0
   -5.7453    2.5292   -0.9096 H   0  0  0  0  0  0  0  0  0  0  0  0
   -4.1782    2.2051   -2.8309 H   0  0  0  0  0  0  0  0  0  0  0  0
   -2.0519    1.2177   -3.6530 H   0  0  0  0  0  0  0  0  0  0  0  0
    0.7063    0.6626    2.1301 H   0  0  0  0  0  0  0  0  0  0  0  0
   -0.3290    2.0093    1.5838 H   0  0  0  0  0  0  0  0  0  0  0  0
    0.6911    2.0761   -0.6071 H   0  0  0  0  0  0  0  0  0  0  0  0
    1.9982    2.0079    0.5719 H   0  0  0  0  0  0  0  0  0  0  0  0
    3.0162   -1.4395   -0.1740 H   0  0  0  0  0  0  0  0  0  0  0  0
    2.7698   -0.3383    1.2117 H   0  0  0  0  0  0  0  0  0  0  0  0
    4.3213    0.5619   -1.4340 H   0  0  0  0  0  0  0  0  0  0  0  0
    5.3224    2.1781    0.1628 H   0  0  0  0  0  0  0  0  0  0  0  0
    4.2554    1.4439    1.6146 H   0  0  0  0  0  0  0  0  0  0  0  0
    6.3425    0.0131   -0.1787 H   0  0  0  0  0  0  0  0  0  0  0  0
    5.2658   -0.7235    1.2666 H   0  0  0  0  0  0  0  0  0  0  0  0
    1.1672   -1.6855   -1.3798 H   0  0  0  0  0  0  0  0  0  0  0  0
    0.4625    0.4218   -2.8040 H   0  0  0  0  0  0  0  0  0  0  0  0
   -0.5713   -1.0348   -2.7555 H   0  0  0  0  0  0  0  0  0  0  0  0
    0.2124   -1.7646    2.1234 H   0  0  0  0  0  0  0  0  0  0  0  0
   -1.9254   -1.9491   -0.9101 H   0  0  0  0  0  0  0  0  0  0  0  0
   -0.7244   -3.2041   -0.5041 H   0  0  0  0  0  0  0  0  0  0  0  0
   -2.9908   -3.2654    0.7216 H   0  0  0  0  0  0  0  0  0  0  0  0
   -1.5240   -3.4264    1.7320 H   0  0  0  0  0  0  0  0  0  0  0  0
  1  2  1  0
  2  3  1  0
  3  4  2  0
  4  5  1  0
  4  6  1  0
  6  7  2  0
  7  8  1  0
  8  9  2  0
  9 10  1  0
 10 11  1  1
 11 12  1  0
 12 13  1  0
 13 14  1  0
 14 15  1  0
 15 16  1  0
 16 17  1  0
 13 18  1  0
 18 19  1  0
 18 20  1  0
 20 21  1  1
 20 22  1  0
 22 23  1  0
 23 24  1  0
 24 25  2  0
 10  1  1  0
 20 10  1  0
 24  1  1  0
  9  3  1  0
 17 15  1  0
 19  8  1  0
  1 26  1  1
  5 27  1  0
  6 28  1  0
  7 29  1  0
 11 30  1  0
 11 31  1  0
 12 32  1  0
 12 33  1  0
 14 34  1  0
 14 35  1  0
 15 36  1  0
 16 37  1  0
 16 38  1  0
 17 39  1  0
 17 40  1  0
 18 41  1  6
 19 42  1  0
 19 43  1  0
 21 44  1  0
 22 45  1  0
 22 46  1  0
 23 47  1  0
 23 48  1  0
M  END
$$$$
