
     RDKit          3D

 56 58  0  0  0  0  0  0  0  0999 V2000
   -7.7423    3.1523    1.5465 C   0  0  0  0  0  0  0  0  0  0  0  0
   -6.8794    2.4484    2.5874 C   0  0  0  0  0  0  0  0  0  0  0  0
   -6.4049    1.1253    2.0691 C   0  0  0  0  0  0  0  0  0  0  0  0
   -7.0238    0.0741    2.3869 O   0  0  0  0  0  0  0  0  0  0  0  0
   -5.2818    1.0636    1.1839 N   0  0  0  0  0  0  0  0  0  0  0  0
   -4.7623   -0.4251    0.4672 S   0  0  0  0  0  6  0  0  0  0  0  0
   -5.9401   -1.1626   -0.1055 O   0  0  0  0  0  0  0  0  0  0  0  0
   -4.1204   -1.2801    1.5240 O   0  0  0  0  0  0  0  0  0  0  0  0
   -3.6040   -0.0749   -0.8268 C   0  0  0  0  0  0  0  0  0  0  0  0
   -2.2581   -0.4336   -0.6462 C   0  0  0  0  0  0  0  0  0  0  0  0
   -1.3046   -0.1841   -1.6465 C   0  0  0  0  0  0  0  0  0  0  0  0
    0.0786   -0.5314   -1.4650 N   0  0  0  0  0  0  0  0  0  0  0  0
    0.5306   -1.7137   -0.7896 C   0  0  0  0  0  0  0  0  0  0  0  0
   -0.3290   -2.7317   -0.5128 N   0  0  0  0  0  0  0  0  0  0  0  0
    0.1008   -3.8649    0.0984 C   0  0  0  0  0  0  0  0  0  0  0  0
    1.4440   -4.0025    0.4451 C   0  0  0  0  0  0  0  0  0  0  0  0
    1.8773   -5.1341    1.0553 F   0  0  0  0  0  0  0  0  0  0  0  0
    2.3234   -2.9519    0.1546 C   0  0  0  0  0  0  0  0  0  0  0  0
    3.7224   -3.0700    0.4639 N   0  0  0  0  0  0  0  0  0  0  0  0
    4.6387   -1.9619    0.4688 C   0  0  0  0  0  0  0  0  0  0  0  0
    4.2452   -0.6879    0.9138 C   0  0  0  0  0  0  0  0  0  0  0  0
    5.1610    0.3679    0.9305 C   0  0  0  0  0  0  0  0  0  0  0  0
    6.4839    0.1697    0.5201 C   0  0  0  0  0  0  0  0  0  0  0  0
    7.3631    1.2622    0.5534 O   0  0  0  0  0  0  0  0  0  0  0  0
    8.7323    1.2045    0.1663 C   0  0  0  0  0  0  0  0  0  0  0  0
    9.3348    2.5278    0.3294 C   0  0  0  0  0  0  0  0  0  0  0  0
    9.8314    3.6180    0.4637 C   0  0  0  0  0  0  0  0  0  0  0  0
    6.8858   -1.1109    0.0959 C   0  0  0  0  0  0  0  0  0  0  0  0
    5.9700   -2.1672    0.0797 C   0  0  0  0  0  0  0  0  0  0  0  0
    1.8458   -1.8401   -0.4690 N   0  0  0  0  0  0  0  0  0  0  0  0
   -1.6989    0.4710   -2.8174 C   0  0  0  0  0  0  0  0  0  0  0  0
   -3.0307    0.8401   -3.0079 C   0  0  0  0  0  0  0  0  0  0  0  0
   -3.9954    0.5793   -2.0208 C   0  0  0  0  0  0  0  0  0  0  0  0
   -5.4249    0.9813   -2.2757 C   0  0  0  0  0  0  0  0  0  0  0  0
   -8.0860    4.1289    1.9476 H   0  0  0  0  0  0  0  0  0  0  0  0
   -7.1577    3.3347    0.6192 H   0  0  0  0  0  0  0  0  0  0  0  0
   -8.6328    2.5342    1.3027 H   0  0  0  0  0  0  0  0  0  0  0  0
   -7.4707    2.3005    3.5171 H   0  0  0  0  0  0  0  0  0  0  0  0
   -6.0040    3.0863    2.8351 H   0  0  0  0  0  0  0  0  0  0  0  0
   -4.7637    1.9383    0.9450 H   0  0  0  0  0  0  0  0  0  0  0  0
   -1.9462   -0.8848    0.2855 H   0  0  0  0  0  0  0  0  0  0  0  0
    0.8020    0.0710   -1.9195 H   0  0  0  0  0  0  0  0  0  0  0  0
   -0.6012   -4.6602    0.3111 H   0  0  0  0  0  0  0  0  0  0  0  0
    4.1165   -4.0271    0.6111 H   0  0  0  0  0  0  0  0  0  0  0  0
    3.2391   -0.5125    1.2708 H   0  0  0  0  0  0  0  0  0  0  0  0
    4.8431    1.3447    1.2728 H   0  0  0  0  0  0  0  0  0  0  0  0
    9.2780    0.4803    0.8075 H   0  0  0  0  0  0  0  0  0  0  0  0
    8.8134    0.9021   -0.8992 H   0  0  0  0  0  0  0  0  0  0  0  0
   10.2672    4.5752    0.5816 H   0  0  0  0  0  0  0  0  0  0  0  0
    7.9021   -1.3010   -0.2209 H   0  0  0  0  0  0  0  0  0  0  0  0
    6.2955   -3.1469   -0.2474 H   0  0  0  0  0  0  0  0  0  0  0  0
   -0.9722    0.6864   -3.5908 H   0  0  0  0  0  0  0  0  0  0  0  0
   -3.3074    1.3339   -3.9313 H   0  0  0  0  0  0  0  0  0  0  0  0
   -6.0451    0.0758   -2.4374 H   0  0  0  0  0  0  0  0  0  0  0  0
   -5.5129    1.6241   -3.1774 H   0  0  0  0  0  0  0  0  0  0  0  0
   -5.8256    1.5593   -1.4184 H   0  0  0  0  0  0  0  0  0  0  0  0
  1  2  1  0
  2  3  1  0
  3  4  2  0
  3  5  1  0
  5  6  1  0
  6  7  2  0
  6  8  2  0
  6  9  1  0
  9 10  2  0
 10 11  1  0
 11 12  1  0
 12 13  1  0
 13 14  2  0
 14 15  1  0
 15 16  2  0
 16 17  1  0
 16 18  1  0
 18 19  1  0
 19 20  1  0
 20 21  2  0
 21 22  1  0
 22 23  2  0
 23 24  1  0
 24 25  1  0
 25 26  1  0
 26 27  3  0
 23 28  1  0
 28 29  2  0
 18 30  2  0
 11 31  2  0
 31 32  1  0
 32 33  2  0
 33 34  1  0
 33  9  1  0
 30 13  1  0
 29 20  1  0
  1 35  1  0
  1 36  1  0
  1 37  1  0
  2 38  1  0
  2 39  1  0
  5 40  1  0
 10 41  1  0
 12 42  1  0
 15 43  1  0
 19 44  1  0
 21 45  1  0
 22 46  1  0
 25 47  1  0
 25 48  1  0
 27 49  1  0
 28 50  1  0
 29 51  1  0
 31 52  1  0
 32 53  1  0
 34 54  1  0
 34 55  1  0
 34 56  1  0
M  END
$$$$
