
     RDKit          3D

 30 32  0  0  0  0  0  0  0  0999 V2000
   -4.5913   -2.4431    1.1801 O   0  0  0  0  0  0  0  0  0  0  0  0
   -3.5205   -1.6418    0.7904 C   0  0  0  0  0  0  0  0  0  0  0  0
   -2.2110   -2.0371    1.1185 C   0  0  0  0  0  0  0  0  0  0  0  0
   -1.1660   -1.2146    0.7146 C   0  0  0  0  0  0  0  0  0  0  0  0
   -1.3808   -0.0610    0.0237 C   0  0  0  0  0  0  0  0  0  0  0  0
   -0.2238    0.4967   -0.2171 O   0  0  0  0  0  0  0  0  0  0  0  0
    0.6864   -0.3020    0.3175 C   0  0  0  0  0  0  0  0  0  0  0  0
    0.1492   -1.3975    0.9188 N   0  0  0  0  0  0  0  0  0  0  0  0
    2.1370   -0.0291    0.2650 C   0  0  0  0  0  0  0  0  0  0  0  0
    2.6149    1.1262   -0.3756 C   0  0  0  0  0  0  0  0  0  0  0  0
    3.9870    1.3889   -0.4279 C   0  0  0  0  0  0  0  0  0  0  0  0
    4.8978    0.5039    0.1572 C   0  0  0  0  0  0  0  0  0  0  0  0
    6.2613    0.7859    0.0930 O   0  0  0  0  0  0  0  0  0  0  0  0
    4.4284   -0.6522    0.7990 C   0  0  0  0  0  0  0  0  0  0  0  0
    5.2982   -1.5215    1.3719 F   0  0  0  0  0  0  0  0  0  0  0  0
    3.0557   -0.9164    0.8521 C   0  0  0  0  0  0  0  0  0  0  0  0
   -2.6597    0.3813   -0.3296 C   0  0  0  0  0  0  0  0  0  0  0  0
   -2.8113    1.6513   -1.0839 C   0  0  0  0  0  0  0  0  0  0  0  0
   -3.9779    2.1684   -1.4719 C   0  0  0  0  0  0  0  0  0  0  0  0
   -3.7461   -0.4405    0.0709 C   0  0  0  0  0  0  0  0  0  0  0  0
   -5.5482   -2.1913    0.9620 H   0  0  0  0  0  0  0  0  0  0  0  0
   -2.0220   -2.9509    1.6672 H   0  0  0  0  0  0  0  0  0  0  0  0
    1.9286    1.8262   -0.8359 H   0  0  0  0  0  0  0  0  0  0  0  0
    4.3433    2.2825   -0.9244 H   0  0  0  0  0  0  0  0  0  0  0  0
    6.9543    0.1715    0.5037 H   0  0  0  0  0  0  0  0  0  0  0  0
    2.7133   -1.8140    1.3520 H   0  0  0  0  0  0  0  0  0  0  0  0
   -1.9141    2.2022   -1.3406 H   0  0  0  0  0  0  0  0  0  0  0  0
   -3.9908    3.1022   -2.0192 H   0  0  0  0  0  0  0  0  0  0  0  0
   -4.9264    1.6974   -1.2656 H   0  0  0  0  0  0  0  0  0  0  0  0
   -4.7654   -0.1717   -0.1618 H   0  0  0  0  0  0  0  0  0  0  0  0
  1  2  1  0
  2  3  2  0
  3  4  1  0
  4  5  2  0
  5  6  1  0
  6  7  1  0
  7  8  2  0
  7  9  1  0
  9 10  2  0
 10 11  1  0
 11 12  2  0
 12 13  1  0
 12 14  1  0
 14 15  1  0
 14 16  2  0
  5 17  1  0
 17 18  1  0
 18 19  2  3
 17 20  2  0
 20  2  1  0
  8  4  1  0
 16  9  1  0
  1 21  1  0
  3 22  1  0
 10 23  1  0
 11 24  1  0
 13 25  1  0
 16 26  1  0
 18 27  1  0
 19 28  1  0
 19 29  1  0
 20 30  1  0
M  END
$$$$
