
     RDKit          3D

 54 57  0  0  0  0  0  0  0  0999 V2000
   -2.1727    3.0291   -3.0513 C   0  0  0  0  0  0  0  0  0  0  0  0
   -1.8135    1.9785   -2.0918 N   0  0  0  0  0  0  0  0  0  0  0  0
   -2.8025    1.5269   -1.1471 C   0  0  0  0  0  0  0  0  0  0  0  0
   -3.1303    0.1538   -1.0666 C   0  0  0  0  0  0  0  0  0  0  0  0
   -4.0874   -0.2364   -0.1350 C   0  0  0  0  0  0  0  0  0  0  0  0
   -4.5538   -1.4780    0.0910 N   0  0  0  0  0  0  0  0  0  0  0  0
   -5.4650   -1.3692    1.0532 N   0  0  0  0  0  0  0  0  0  0  0  0
   -6.2120   -2.5053    1.5807 C   0  0  0  0  0  0  0  0  0  0  0  0
   -5.5736   -0.0776    1.4551 C   0  0  0  0  0  0  0  0  0  0  0  0
   -6.5489    0.4398    2.4684 C   0  0  0  0  0  0  0  0  0  0  0  0
   -4.7042    0.6673    0.6877 C   0  0  0  0  0  0  0  0  0  0  0  0
   -4.4174    2.0292    0.6363 C   0  0  0  0  0  0  0  0  0  0  0  0
   -3.4522    2.4575   -0.2935 C   0  0  0  0  0  0  0  0  0  0  0  0
   -0.4905    1.3912   -2.0839 C   0  0  0  0  0  0  0  0  0  0  0  0
    0.4228    1.6094   -3.1299 C   0  0  0  0  0  0  0  0  0  0  0  0
    1.6803    1.0123   -3.0584 C   0  0  0  0  0  0  0  0  0  0  0  0
    2.0071    0.2418   -1.9908 N   0  0  0  0  0  0  0  0  0  0  0  0
    1.1277    0.0466   -0.9721 C   0  0  0  0  0  0  0  0  0  0  0  0
    1.4651   -0.7925    0.1417 N   0  0  0  0  0  0  0  0  0  0  0  0
    2.7949   -1.2569    0.4293 C   0  0  0  0  0  0  0  0  0  0  0  0
    2.9720   -2.5296    0.9810 C   0  0  0  0  0  0  0  0  0  0  0  0
    4.2508   -2.9985    1.2817 C   0  0  0  0  0  0  0  0  0  0  0  0
    5.3815   -2.1990    1.0465 C   0  0  0  0  0  0  0  0  0  0  0  0
    6.7419   -2.7448    1.3928 C   0  0  0  0  0  0  0  0  0  0  0  0
    5.2090   -0.8895    0.5342 C   0  0  0  0  0  0  0  0  0  0  0  0
    3.9154   -0.4346    0.2287 C   0  0  0  0  0  0  0  0  0  0  0  0
    6.5858    0.1914    0.2551 S   0  0  0  0  0  6  0  0  0  0  0  0
    6.0424    1.7908   -0.1206 N   0  0  0  0  0  0  0  0  0  0  0  0
    7.4425    0.2564    1.4885 O   0  0  0  0  0  0  0  0  0  0  0  0
    7.3998   -0.3269   -0.8968 O   0  0  0  0  0  0  0  0  0  0  0  0
   -0.1066    0.6121   -1.0339 N   0  0  0  0  0  0  0  0  0  0  0  0
   -3.1924    3.4252   -2.8580 H   0  0  0  0  0  0  0  0  0  0  0  0
   -1.4523    3.8710   -2.9774 H   0  0  0  0  0  0  0  0  0  0  0  0
   -2.1636    2.6158   -4.0815 H   0  0  0  0  0  0  0  0  0  0  0  0
   -2.6600   -0.5755   -1.7142 H   0  0  0  0  0  0  0  0  0  0  0  0
   -7.3013   -2.2957    1.5323 H   0  0  0  0  0  0  0  0  0  0  0  0
   -5.9979   -3.4165    0.9828 H   0  0  0  0  0  0  0  0  0  0  0  0
   -5.9165   -2.6899    2.6347 H   0  0  0  0  0  0  0  0  0  0  0  0
   -6.6864   -0.3014    3.2825 H   0  0  0  0  0  0  0  0  0  0  0  0
   -7.5255    0.6295    1.9769 H   0  0  0  0  0  0  0  0  0  0  0  0
   -6.1766    1.3835    2.9182 H   0  0  0  0  0  0  0  0  0  0  0  0
   -4.9134    2.7367    1.2875 H   0  0  0  0  0  0  0  0  0  0  0  0
   -3.1997    3.5089   -0.3451 H   0  0  0  0  0  0  0  0  0  0  0  0
    0.1768    2.2170   -3.9895 H   0  0  0  0  0  0  0  0  0  0  0  0
    2.3972    1.1587   -3.8553 H   0  0  0  0  0  0  0  0  0  0  0  0
    0.6792   -1.1519    0.7300 H   0  0  0  0  0  0  0  0  0  0  0  0
    2.1156   -3.1658    1.1666 H   0  0  0  0  0  0  0  0  0  0  0  0
    4.3569   -3.9927    1.6984 H   0  0  0  0  0  0  0  0  0  0  0  0
    7.1193   -2.2519    2.3126 H   0  0  0  0  0  0  0  0  0  0  0  0
    6.7056   -3.8398    1.5763 H   0  0  0  0  0  0  0  0  0  0  0  0
    7.4530   -2.5741    0.5588 H   0  0  0  0  0  0  0  0  0  0  0  0
    3.7752    0.5701   -0.1435 H   0  0  0  0  0  0  0  0  0  0  0  0
    6.8934    2.3665   -0.3089 H   0  0  0  0  0  0  0  0  0  0  0  0
    5.6050    2.1771    0.7460 H   0  0  0  0  0  0  0  0  0  0  0  0
  1  2  1  0
  2  3  1  0
  3  4  2  0
  4  5  1  0
  5  6  2  0
  6  7  1  0
  7  8  1  0
  7  9  1  0
  9 10  1  0
  9 11  2  0
 11 12  1  0
 12 13  2  0
  2 14  1  0
 14 15  2  0
 15 16  1  0
 16 17  2  0
 17 18  1  0
 18 19  1  0
 19 20  1  0
 20 21  2  0
 21 22  1  0
 22 23  2  0
 23 24  1  0
 23 25  1  0
 25 26  2  0
 25 27  1  0
 27 28  1  0
 27 29  2  0
 27 30  2  0
 18 31  2  0
 13  3  1  0
 31 14  1  0
 11  5  1  0
 26 20  1  0
  1 32  1  0
  1 33  1  0
  1 34  1  0
  4 35  1  0
  8 36  1  0
  8 37  1  0
  8 38  1  0
 10 39  1  0
 10 40  1  0
 10 41  1  0
 12 42  1  0
 13 43  1  0
 15 44  1  0
 16 45  1  0
 19 46  1  0
 21 47  1  0
 22 48  1  0
 24 49  1  0
 24 50  1  0
 24 51  1  0
 26 52  1  0
 28 53  1  0
 28 54  1  0
M  END
$$$$
