
     RDKit          3D

 50 51  0  0  0  0  0  0  0  0999 V2000
   -2.6381    0.6898   -0.1356 C   0  0  2  0  0  0  0  0  0  0  0  0
   -2.7277    0.2461    1.2793 N   0  0  0  0  0  0  0  0  0  0  0  0
   -4.0567    0.2657    1.9034 C   0  0  0  0  0  0  0  0  0  0  0  0
   -4.6720    1.6678    2.0243 C   0  0  0  0  0  0  0  0  0  0  0  0
   -4.1182    2.8842    0.7753 S   0  0  0  0  0  0  0  0  0  0  0  0
   -3.7236    1.7372   -0.5958 C   0  0  0  0  0  0  0  0  0  0  0  0
   -5.0368    1.1226   -1.1431 C   0  0  0  0  0  0  0  0  0  0  0  0
   -3.1318    2.6077   -1.7254 C   0  0  0  0  0  0  0  0  0  0  0  0
   -1.4684    0.8964    2.3101 S   0  0  0  0  0  6  0  0  0  0  0  0
   -1.5118    2.3988    2.2946 O   0  0  0  0  0  0  0  0  0  0  0  0
   -1.6460    0.4116    3.7218 O   0  0  0  0  0  0  0  0  0  0  0  0
    0.0961    0.3432    1.7193 C   0  0  0  0  0  0  0  0  0  0  0  0
    1.2049    1.1993    1.7274 C   0  0  0  0  0  0  0  0  0  0  0  0
    2.4382    0.7587    1.2374 C   0  0  0  0  0  0  0  0  0  0  0  0
    2.5752   -0.5493    0.7333 C   0  0  0  0  0  0  0  0  0  0  0  0
    3.7888   -1.0376    0.2271 O   0  0  0  0  0  0  0  0  0  0  0  0
    4.9948   -0.2833    0.1630 C   0  0  0  0  0  0  0  0  0  0  0  0
    6.0488   -1.1112   -0.4229 C   0  0  0  0  0  0  0  0  0  0  0  0
    6.9164   -1.7946   -0.9061 C   0  0  0  0  0  0  0  0  0  0  0  0
    7.9731   -2.6292   -1.4955 C   0  0  0  0  0  0  0  0  0  0  0  0
    7.4434   -3.9240   -1.9151 N   0  0  0  0  0  0  0  0  0  0  0  0
    1.4642   -1.4008    0.7338 C   0  0  0  0  0  0  0  0  0  0  0  0
    0.2328   -0.9603    1.2260 C   0  0  0  0  0  0  0  0  0  0  0  0
   -2.5870   -0.5291   -1.0254 C   0  0  0  0  0  0  0  0  0  0  0  0
   -3.3798   -1.4888   -0.8241 O   0  0  0  0  0  0  0  0  0  0  0  0
   -1.6506   -0.6011   -2.1053 N   0  0  0  0  0  0  0  0  0  0  0  0
   -1.6002   -1.6968   -2.8997 O   0  0  0  0  0  0  0  0  0  0  0  0
   -1.6497    1.1837   -0.2650 H   0  0  0  0  0  0  0  0  0  0  0  0
   -4.7299   -0.4159    1.3496 H   0  0  0  0  0  0  0  0  0  0  0  0
   -3.9995   -0.1871    2.9163 H   0  0  0  0  0  0  0  0  0  0  0  0
   -5.7782    1.5855    1.9726 H   0  0  0  0  0  0  0  0  0  0  0  0
   -4.4200    2.0862    3.0217 H   0  0  0  0  0  0  0  0  0  0  0  0
   -4.8460    0.5299   -2.0631 H   0  0  0  0  0  0  0  0  0  0  0  0
   -5.7521    1.9297   -1.4116 H   0  0  0  0  0  0  0  0  0  0  0  0
   -5.5499    0.4713   -0.4172 H   0  0  0  0  0  0  0  0  0  0  0  0
   -2.8598    1.9837   -2.6033 H   0  0  0  0  0  0  0  0  0  0  0  0
   -3.8646    3.3743   -2.0593 H   0  0  0  0  0  0  0  0  0  0  0  0
   -2.2207    3.1420   -1.3788 H   0  0  0  0  0  0  0  0  0  0  0  0
    1.1171    2.2080    2.1099 H   0  0  0  0  0  0  0  0  0  0  0  0
    3.2764    1.4417    1.2536 H   0  0  0  0  0  0  0  0  0  0  0  0
    4.8480    0.6145   -0.4740 H   0  0  0  0  0  0  0  0  0  0  0  0
    5.3055    0.0238    1.1840 H   0  0  0  0  0  0  0  0  0  0  0  0
    8.4056   -2.1038   -2.3729 H   0  0  0  0  0  0  0  0  0  0  0  0
    8.7769   -2.7833   -0.7450 H   0  0  0  0  0  0  0  0  0  0  0  0
    6.6776   -3.7673   -2.6109 H   0  0  0  0  0  0  0  0  0  0  0  0
    7.0258   -4.4045   -1.0844 H   0  0  0  0  0  0  0  0  0  0  0  0
    1.5559   -2.4088    0.3497 H   0  0  0  0  0  0  0  0  0  0  0  0
   -0.6148   -1.6337    1.2168 H   0  0  0  0  0  0  0  0  0  0  0  0
   -1.0029    0.1954   -2.2978 H   0  0  0  0  0  0  0  0  0  0  0  0
   -0.9288   -2.2884   -2.4730 H   0  0  0  0  0  0  0  0  0  0  0  0
  1  2  1  0
  2  3  1  0
  3  4  1  0
  4  5  1  0
  5  6  1  0
  6  7  1  0
  6  8  1  0
  2  9  1  0
  9 10  2  0
  9 11  2  0
  9 12  1  0
 12 13  2  0
 13 14  1  0
 14 15  2  0
 15 16  1  0
 16 17  1  0
 17 18  1  0
 18 19  3  0
 19 20  1  0
 20 21  1  0
 15 22  1  0
 22 23  2  0
  1 24  1  0
 24 25  2  0
 24 26  1  0
 26 27  1  0
  6  1  1  0
 23 12  1  0
  1 28  1  1
  3 29  1  0
  3 30  1  0
  4 31  1  0
  4 32  1  0
  7 33  1  0
  7 34  1  0
  7 35  1  0
  8 36  1  0
  8 37  1  0
  8 38  1  0
 13 39  1  0
 14 40  1  0
 17 41  1  0
 17 42  1  0
 20 43  1  0
 20 44  1  0
 21 45  1  0
 21 46  1  0
 22 47  1  0
 23 48  1  0
 26 49  1  0
 27 50  1  0
M  END
$$$$
