
     RDKit          3D

 30 31  0  0  0  0  0  0  0  0999 V2000
   -3.6736   -0.7341   -1.4244 C   0  0  0  0  0  0  0  0  0  0  0  0
   -3.6326   -0.0116   -0.1160 C   0  0  0  0  0  0  0  0  0  0  0  0
   -4.7386    0.4361    0.5102 N   0  0  0  0  0  0  0  0  0  0  0  0
   -4.3592    0.9980    1.6463 N   0  0  0  0  0  0  0  0  0  0  0  0
   -3.0225    0.9234    1.7684 C   0  0  0  0  0  0  0  0  0  0  0  0
   -2.5121    0.2931    0.6494 C   0  0  0  0  0  0  0  0  0  0  0  0
   -1.0853    0.0035    0.3792 C   0  0  0  0  0  0  0  0  0  0  0  0
   -0.2244   -0.3283    1.4391 C   0  0  0  0  0  0  0  0  0  0  0  0
    1.1264   -0.5951    1.1990 C   0  0  0  0  0  0  0  0  0  0  0  0
    1.6397   -0.5344   -0.1050 C   0  0  0  0  0  0  0  0  0  0  0  0
    3.1018   -0.7869   -0.3589 C   0  0  0  0  0  0  0  0  0  0  0  0
    3.9013    0.5131   -0.2485 C   0  0  0  0  0  0  0  0  0  0  0  0
    5.3191    0.2521   -0.4749 N   0  0  0  0  0  0  0  0  0  0  0  0
    0.7895   -0.1748   -1.1613 C   0  0  0  0  0  0  0  0  0  0  0  0
   -0.5617    0.0912   -0.9217 C   0  0  0  0  0  0  0  0  0  0  0  0
   -3.5062   -0.0159   -2.2533 H   0  0  0  0  0  0  0  0  0  0  0  0
   -4.6671   -1.2104   -1.5608 H   0  0  0  0  0  0  0  0  0  0  0  0
   -2.8987   -1.5285   -1.4513 H   0  0  0  0  0  0  0  0  0  0  0  0
   -5.0143    1.4298    2.3346 H   0  0  0  0  0  0  0  0  0  0  0  0
   -2.4610    1.3150    2.6067 H   0  0  0  0  0  0  0  0  0  0  0  0
   -0.5993   -0.3931    2.4530 H   0  0  0  0  0  0  0  0  0  0  0  0
    1.7727   -0.8484    2.0304 H   0  0  0  0  0  0  0  0  0  0  0  0
    3.2383   -1.2243   -1.3724 H   0  0  0  0  0  0  0  0  0  0  0  0
    3.4919   -1.5257    0.3753 H   0  0  0  0  0  0  0  0  0  0  0  0
    3.5305    1.2525   -0.9941 H   0  0  0  0  0  0  0  0  0  0  0  0
    3.7685    0.9416    0.7696 H   0  0  0  0  0  0  0  0  0  0  0  0
    5.4503    0.0125   -1.4848 H   0  0  0  0  0  0  0  0  0  0  0  0
    5.8366    1.1463   -0.3132 H   0  0  0  0  0  0  0  0  0  0  0  0
    1.1754   -0.0915   -2.1699 H   0  0  0  0  0  0  0  0  0  0  0  0
   -1.1855    0.3949   -1.7506 H   0  0  0  0  0  0  0  0  0  0  0  0
  1  2  1  0
  2  3  2  0
  3  4  1  0
  4  5  1  0
  5  6  2  0
  6  7  1  0
  7  8  2  0
  8  9  1  0
  9 10  2  0
 10 11  1  0
 11 12  1  0
 12 13  1  0
 10 14  1  0
 14 15  2  0
  6  2  1  0
 15  7  1  0
  1 16  1  0
  1 17  1  0
  1 18  1  0
  4 19  1  0
  5 20  1  0
  8 21  1  0
  9 22  1  0
 11 23  1  0
 11 24  1  0
 12 25  1  0
 12 26  1  0
 13 27  1  0
 13 28  1  0
 14 29  1  0
 15 30  1  0
M  END
$$$$
