
     RDKit          3D

 53 53  0  0  0  0  0  0  0  0999 V2000
    0.9665   -0.0581   -1.7828 C   0  0  1  0  0  0  0  0  0  0  0  0
    0.7342   -0.9867   -2.9828 C   0  0  0  0  0  0  0  0  0  0  0  0
   -0.1411   -0.2841   -0.7716 C   0  0  0  0  0  0  0  0  0  0  0  0
   -1.2794    0.4349   -0.7010 C   0  0  0  0  0  0  0  0  0  0  0  0
   -1.5670    1.5669   -1.6603 C   0  0  0  0  0  0  0  0  0  0  0  0
   -2.2412    0.1070    0.3809 C   0  0  0  0  0  0  0  0  0  0  0  0
   -3.1028    1.0002    0.8886 C   0  0  0  0  0  0  0  0  0  0  0  0
   -4.0765    0.6773    2.0018 C   0  0  2  0  0  0  0  0  0  0  0  0
   -3.3945    0.0300    3.1284 N   0  0  0  0  0  0  0  0  0  0  0  0
   -5.3405   -0.1081    1.5350 C   0  0  2  0  0  0  0  0  0  0  0  0
   -5.0527   -1.4424    0.8261 C   0  0  0  0  0  0  0  0  0  0  0  0
   -6.2123    0.7600    0.6651 C   0  0  0  0  0  0  0  0  0  0  0  0
   -7.4074    1.2633    1.1698 O   0  0  0  0  0  0  0  0  0  0  0  0
   -5.8565    1.0526   -0.5089 O   0  0  0  0  0  0  0  0  0  0  0  0
    2.3603   -0.3079   -1.1472 C   0  0  2  0  0  0  0  0  0  0  0  0
    2.6264    0.6921   -0.0012 C   0  0  0  0  0  0  0  0  0  0  0  0
    3.9524    0.4242    0.6616 C   0  0  0  0  0  0  0  0  0  0  0  0
    5.1013    1.1308    0.2673 C   0  0  0  0  0  0  0  0  0  0  0  0
    6.3375    0.8499    0.8573 C   0  0  0  0  0  0  0  0  0  0  0  0
    6.4368   -0.1407    1.8381 C   0  0  0  0  0  0  0  0  0  0  0  0
    5.3005   -0.8543    2.2287 C   0  0  0  0  0  0  0  0  0  0  0  0
    4.0624   -0.5770    1.6412 C   0  0  0  0  0  0  0  0  0  0  0  0
    3.3593   -0.1246   -2.1423 O   0  0  0  0  0  0  0  0  0  0  0  0
    4.1463   -1.2864   -2.2911 C   0  0  0  0  0  0  0  0  0  0  0  0
    0.9561    0.9914   -2.1488 H   0  0  0  0  0  0  0  0  0  0  0  0
    1.4712   -0.7765   -3.7862 H   0  0  0  0  0  0  0  0  0  0  0  0
   -0.2801   -0.8279   -3.4067 H   0  0  0  0  0  0  0  0  0  0  0  0
    0.8271   -2.0512   -2.6769 H   0  0  0  0  0  0  0  0  0  0  0  0
    0.0005   -1.1020   -0.0723 H   0  0  0  0  0  0  0  0  0  0  0  0
   -2.6548    1.7804   -1.7115 H   0  0  0  0  0  0  0  0  0  0  0  0
   -1.2603    1.3064   -2.6939 H   0  0  0  0  0  0  0  0  0  0  0  0
   -1.0302    2.4813   -1.3316 H   0  0  0  0  0  0  0  0  0  0  0  0
   -2.2111   -0.8921    0.7972 H   0  0  0  0  0  0  0  0  0  0  0  0
   -3.0866    2.0238    0.5358 H   0  0  0  0  0  0  0  0  0  0  0  0
   -4.4403    1.6606    2.3792 H   0  0  0  0  0  0  0  0  0  0  0  0
   -3.1595   -0.9602    2.8978 H   0  0  0  0  0  0  0  0  0  0  0  0
   -4.0468    0.0067    3.9458 H   0  0  0  0  0  0  0  0  0  0  0  0
   -5.9315   -0.3529    2.4455 H   0  0  0  0  0  0  0  0  0  0  0  0
   -4.4498   -2.1164    1.4668 H   0  0  0  0  0  0  0  0  0  0  0  0
   -6.0105   -1.9621    0.6087 H   0  0  0  0  0  0  0  0  0  0  0  0
   -4.5264   -1.2843   -0.1381 H   0  0  0  0  0  0  0  0  0  0  0  0
   -8.0021    1.8560    0.6031 H   0  0  0  0  0  0  0  0  0  0  0  0
    2.3524   -1.3368   -0.7050 H   0  0  0  0  0  0  0  0  0  0  0  0
    1.8272    0.6223    0.7682 H   0  0  0  0  0  0  0  0  0  0  0  0
    2.6018    1.7314   -0.3975 H   0  0  0  0  0  0  0  0  0  0  0  0
    5.0406    1.8929   -0.4997 H   0  0  0  0  0  0  0  0  0  0  0  0
    7.2194    1.3976    0.5511 H   0  0  0  0  0  0  0  0  0  0  0  0
    7.3948   -0.3578    2.2926 H   0  0  0  0  0  0  0  0  0  0  0  0
    5.3797   -1.6253    2.9842 H   0  0  0  0  0  0  0  0  0  0  0  0
    3.1909   -1.1439    1.9448 H   0  0  0  0  0  0  0  0  0  0  0  0
    4.9177   -1.0954   -3.0646 H   0  0  0  0  0  0  0  0  0  0  0  0
    3.5276   -2.1453   -2.6325 H   0  0  0  0  0  0  0  0  0  0  0  0
    4.6714   -1.5394   -1.3438 H   0  0  0  0  0  0  0  0  0  0  0  0
  1  2  1  0
  1  3  1  0
  3  4  2  0
  4  5  1  0
  4  6  1  0
  6  7  2  0
  7  8  1  0
  8  9  1  0
  8 10  1  0
 10 11  1  0
 10 12  1  0
 12 13  1  0
 12 14  2  0
  1 15  1  0
 15 16  1  0
 16 17  1  0
 17 18  2  0
 18 19  1  0
 19 20  2  0
 20 21  1  0
 21 22  2  0
 15 23  1  0
 23 24  1  0
 22 17  1  0
  1 25  1  6
  2 26  1  0
  2 27  1  0
  2 28  1  0
  3 29  1  0
  5 30  1  0
  5 31  1  0
  5 32  1  0
  6 33  1  0
  7 34  1  0
  8 35  1  1
  9 36  1  0
  9 37  1  0
 10 38  1  1
 11 39  1  0
 11 40  1  0
 11 41  1  0
 13 42  1  0
 15 43  1  1
 16 44  1  0
 16 45  1  0
 18 46  1  0
 19 47  1  0
 20 48  1  0
 21 49  1  0
 22 50  1  0
 24 51  1  0
 24 52  1  0
 24 53  1  0
M  END
$$$$
