
     RDKit          3D

 70 73  0  0  0  0  0  0  0  0999 V2000
    0.2216   -3.6726   -1.0054 C   0  0  0  0  0  0  0  0  0  0  0  0
   -1.2705   -4.0188   -0.8932 C   0  0  0  0  0  0  0  0  0  0  0  0
   -1.6182   -4.4971    0.5226 C   0  0  0  0  0  0  0  0  0  0  0  0
   -2.2035   -2.8857   -1.4023 C   0  0  0  0  0  0  0  0  0  0  0  0
   -2.4124   -1.6755   -0.4572 C   0  0  2  0  0  0  0  0  0  0  0  0
   -3.4300   -0.7754   -1.0107 N   0  0  0  0  0  0  0  0  0  0  0  0
   -4.0554    0.2451   -0.2142 C   0  0  0  0  0  0  0  0  0  0  0  0
   -3.7624    0.3573    1.0069 O   0  0  0  0  0  0  0  0  0  0  0  0
   -5.0406    1.1751   -0.7927 C   0  0  0  0  0  0  0  0  0  0  0  0
   -5.4767    1.2092   -2.1187 C   0  0  0  0  0  0  0  0  0  0  0  0
   -6.3827    2.2434   -2.1522 C   0  0  0  0  0  0  0  0  0  0  0  0
   -7.1459    2.7546   -3.1997 C   0  0  0  0  0  0  0  0  0  0  0  0
   -7.9985    3.8387   -2.9193 C   0  0  0  0  0  0  0  0  0  0  0  0
   -8.0653    4.3776   -1.6144 C   0  0  0  0  0  0  0  0  0  0  0  0
   -7.2800    3.8369   -0.5789 C   0  0  0  0  0  0  0  0  0  0  0  0
   -6.4465    2.7645   -0.8883 C   0  0  0  0  0  0  0  0  0  0  0  0
   -5.6396    2.1176   -0.0846 O   0  0  0  0  0  0  0  0  0  0  0  0
   -1.1378   -0.9040   -0.2503 C   0  0  0  0  0  0  0  0  0  0  0  0
   -0.5530   -0.3931   -1.2447 O   0  0  0  0  0  0  0  0  0  0  0  0
   -0.6024   -0.7399    1.0720 N   0  0  0  0  0  0  0  0  0  0  0  0
    0.7401   -0.2075    1.3311 C   0  0  1  0  0  0  0  0  0  0  0  0
    0.6292    1.1060    2.1245 C   0  0  0  0  0  0  0  0  0  0  0  0
    1.9490    1.5978    2.7509 C   0  0  0  0  0  0  0  0  0  0  0  0
    3.1717    1.5045    1.8010 C   0  0  1  0  0  0  0  0  0  0  0  0
    4.3479    2.2829    2.3945 C   0  0  0  0  0  0  0  0  0  0  0  0
    3.6332    0.1187    1.5162 N   0  0  0  0  0  0  0  0  0  0  0  0
    3.0712   -1.0220    2.2681 C   0  0  0  0  0  0  0  0  0  0  0  0
    1.5887   -1.2266    2.0600 C   0  0  0  0  0  0  0  0  0  0  0  0
    1.0684   -2.2227    2.5411 O   0  0  0  0  0  0  0  0  0  0  0  0
    4.0059   -0.2208   -0.1644 S   0  0  0  0  0  6  0  0  0  0  0  0
    3.1911    0.6441   -1.0866 O   0  0  0  0  0  0  0  0  0  0  0  0
    3.7369   -1.6622   -0.4985 O   0  0  0  0  0  0  0  0  0  0  0  0
    5.7067    0.1142   -0.4270 C   0  0  0  0  0  0  0  0  0  0  0  0
    6.6732   -0.4554    0.4098 C   0  0  0  0  0  0  0  0  0  0  0  0
    8.0215   -0.1645    0.1924 C   0  0  0  0  0  0  0  0  0  0  0  0
    8.3887    0.6869   -0.8517 C   0  0  0  0  0  0  0  0  0  0  0  0
    7.3955    1.2370   -1.6658 C   0  0  0  0  0  0  0  0  0  0  0  0
    6.0875    0.9425   -1.4375 N   0  0  0  0  0  0  0  0  0  0  0  0
    0.8295   -4.5935   -0.8776 H   0  0  0  0  0  0  0  0  0  0  0  0
    0.5344   -2.9534   -0.2234 H   0  0  0  0  0  0  0  0  0  0  0  0
    0.4502   -3.2471   -2.0054 H   0  0  0  0  0  0  0  0  0  0  0  0
   -1.4391   -4.8838   -1.5733 H   0  0  0  0  0  0  0  0  0  0  0  0
   -2.7054   -4.7110    0.6003 H   0  0  0  0  0  0  0  0  0  0  0  0
   -1.3400   -3.7352    1.2810 H   0  0  0  0  0  0  0  0  0  0  0  0
   -1.0634   -5.4318    0.7519 H   0  0  0  0  0  0  0  0  0  0  0  0
   -1.8421   -2.5291   -2.3923 H   0  0  0  0  0  0  0  0  0  0  0  0
   -3.2027   -3.3397   -1.5863 H   0  0  0  0  0  0  0  0  0  0  0  0
   -2.7895   -2.0579    0.5149 H   0  0  0  0  0  0  0  0  0  0  0  0
   -3.6926   -0.8699   -2.0168 H   0  0  0  0  0  0  0  0  0  0  0  0
   -5.1812    0.5777   -2.9452 H   0  0  0  0  0  0  0  0  0  0  0  0
   -7.0864    2.3338   -4.1952 H   0  0  0  0  0  0  0  0  0  0  0  0
   -8.6066    4.2622   -3.7080 H   0  0  0  0  0  0  0  0  0  0  0  0
   -8.7243    5.2113   -1.4097 H   0  0  0  0  0  0  0  0  0  0  0  0
   -7.3223    4.2409    0.4241 H   0  0  0  0  0  0  0  0  0  0  0  0
   -1.1867   -1.0323    1.8883 H   0  0  0  0  0  0  0  0  0  0  0  0
    1.2305    0.0158    0.3665 H   0  0  0  0  0  0  0  0  0  0  0  0
   -0.1136    0.9846    2.9435 H   0  0  0  0  0  0  0  0  0  0  0  0
    0.2387    1.8931    1.4425 H   0  0  0  0  0  0  0  0  0  0  0  0
    2.1442    1.0590    3.7019 H   0  0  0  0  0  0  0  0  0  0  0  0
    1.7938    2.6615    3.0375 H   0  0  0  0  0  0  0  0  0  0  0  0
    2.8877    2.0277    0.8639 H   0  0  0  0  0  0  0  0  0  0  0  0
    4.0705    3.3462    2.5582 H   0  0  0  0  0  0  0  0  0  0  0  0
    4.6582    1.8345    3.3626 H   0  0  0  0  0  0  0  0  0  0  0  0
    5.2116    2.2552    1.6964 H   0  0  0  0  0  0  0  0  0  0  0  0
    3.6078   -1.9539    1.9899 H   0  0  0  0  0  0  0  0  0  0  0  0
    3.2726   -0.8833    3.3508 H   0  0  0  0  0  0  0  0  0  0  0  0
    6.3845   -1.1127    1.2204 H   0  0  0  0  0  0  0  0  0  0  0  0
    8.7798   -0.5971    0.8320 H   0  0  0  0  0  0  0  0  0  0  0  0
    9.4311    0.9184   -1.0280 H   0  0  0  0  0  0  0  0  0  0  0  0
    7.6643    1.8989   -2.4781 H   0  0  0  0  0  0  0  0  0  0  0  0
  1  2  1  0
  2  3  1  0
  2  4  1  0
  4  5  1  0
  5  6  1  0
  6  7  1  0
  7  8  2  0
  7  9  1  0
  9 10  2  0
 10 11  1  0
 11 12  2  0
 12 13  1  0
 13 14  2  0
 14 15  1  0
 15 16  2  0
 16 17  1  0
  5 18  1  0
 18 19  2  0
 18 20  1  0
 20 21  1  0
 21 22  1  0
 22 23  1  0
 23 24  1  0
 24 25  1  0
 24 26  1  0
 26 27  1  0
 27 28  1  0
 28 29  2  0
 26 30  1  0
 30 31  2  0
 30 32  2  0
 30 33  1  0
 33 34  2  0
 34 35  1  0
 35 36  2  0
 36 37  1  0
 37 38  2  0
 17  9  1  0
 28 21  1  0
 38 33  1  0
 16 11  1  0
  1 39  1  0
  1 40  1  0
  1 41  1  0
  2 42  1  0
  3 43  1  0
  3 44  1  0
  3 45  1  0
  4 46  1  0
  4 47  1  0
  5 48  1  1
  6 49  1  0
 10 50  1  0
 12 51  1  0
 13 52  1  0
 14 53  1  0
 15 54  1  0
 20 55  1  0
 21 56  1  6
 22 57  1  0
 22 58  1  0
 23 59  1  0
 23 60  1  0
 24 61  1  6
 25 62  1  0
 25 63  1  0
 25 64  1  0
 27 65  1  0
 27 66  1  0
 34 67  1  0
 35 68  1  0
 36 69  1  0
 37 70  1  0
M  END
$$$$
