
     RDKit          3D

 30 30  0  0  0  0  0  0  0  0999 V2000
   -2.2234   -0.0458   -1.4620 C   0  0  1  0  0  0  0  0  0  0  0  0
   -2.3550   -0.1611    0.0593 C   0  0  0  0  0  0  0  0  0  0  0  0
   -1.6135   -1.2764   -2.0055 N   0  0  0  0  0  0  0  0  0  0  0  0
    0.0899   -1.0672   -2.3030 S   0  0  0  0  0  6  0  0  0  0  0  0
    0.6512   -2.3453   -2.8599 O   0  0  0  0  0  0  0  0  0  0  0  0
    0.2965    0.0216   -3.3199 O   0  0  0  0  0  0  0  0  0  0  0  0
    0.9464   -0.6715   -0.8157 C   0  0  0  0  0  0  0  0  0  0  0  0
    1.2435   -1.6812    0.1079 C   0  0  0  0  0  0  0  0  0  0  0  0
    1.9008   -1.3712    1.3018 C   0  0  0  0  0  0  0  0  0  0  0  0
    2.2666   -0.0511    1.5904 C   0  0  0  0  0  0  0  0  0  0  0  0
    2.9229    0.2092    2.8024 O   0  0  0  0  0  0  0  0  0  0  0  0
    3.3487    1.5007    3.2244 C   0  0  0  0  0  0  0  0  0  0  0  0
    1.9639    0.9637    0.6618 C   0  0  0  0  0  0  0  0  0  0  0  0
    1.3069    0.6527   -0.5325 C   0  0  0  0  0  0  0  0  0  0  0  0
   -3.5881    0.1867   -2.0581 C   0  0  0  0  0  0  0  0  0  0  0  0
   -3.8794    1.4038   -2.6664 O   0  0  0  0  0  0  0  0  0  0  0  0
   -4.4705   -0.7122   -1.9989 O   0  0  0  0  0  0  0  0  0  0  0  0
   -1.6029    0.8499   -1.6895 H   0  0  0  0  0  0  0  0  0  0  0  0
   -1.3587   -0.2548    0.5342 H   0  0  0  0  0  0  0  0  0  0  0  0
   -2.9592   -1.0530    0.3321 H   0  0  0  0  0  0  0  0  0  0  0  0
   -2.8450    0.7469    0.4722 H   0  0  0  0  0  0  0  0  0  0  0  0
   -2.0301   -1.5076   -2.9377 H   0  0  0  0  0  0  0  0  0  0  0  0
    0.9604   -2.7067   -0.0931 H   0  0  0  0  0  0  0  0  0  0  0  0
    2.1246   -2.1603    2.0085 H   0  0  0  0  0  0  0  0  0  0  0  0
    2.4749    2.1800    3.3154 H   0  0  0  0  0  0  0  0  0  0  0  0
    4.0823    1.9160    2.5015 H   0  0  0  0  0  0  0  0  0  0  0  0
    3.8371    1.4153    4.2166 H   0  0  0  0  0  0  0  0  0  0  0  0
    2.2288    1.9943    0.8544 H   0  0  0  0  0  0  0  0  0  0  0  0
    1.0732    1.4465   -1.2301 H   0  0  0  0  0  0  0  0  0  0  0  0
   -4.7927    1.5782   -3.0684 H   0  0  0  0  0  0  0  0  0  0  0  0
  1  2  1  0
  1  3  1  0
  3  4  1  0
  4  5  2  0
  4  6  2  0
  4  7  1  0
  7  8  2  0
  8  9  1  0
  9 10  2  0
 10 11  1  0
 11 12  1  0
 10 13  1  0
 13 14  2  0
  1 15  1  0
 15 16  1  0
 15 17  2  0
 14  7  1  0
  1 18  1  1
  2 19  1  0
  2 20  1  0
  2 21  1  0
  3 22  1  0
  8 23  1  0
  9 24  1  0
 12 25  1  0
 12 26  1  0
 12 27  1  0
 13 28  1  0
 14 29  1  0
 16 30  1  0
M  END
$$$$
