
     RDKit          3D

 57 60  0  0  0  0  0  0  0  0999 V2000
   -0.7802   -0.1791    1.7115 C   0  0  2  0  0  0  0  0  0  0  0  0
    0.5176   -0.2364    0.8719 C   0  0  0  0  0  0  0  0  0  0  0  0
    0.3132   -0.0820   -0.6695 C   0  0  0  0  0  0  0  0  0  0  0  0
    0.5842    1.3643   -1.1579 C   0  0  0  0  0  0  0  0  0  0  0  0
    2.0487    1.5935   -1.5821 C   0  0  0  0  0  0  0  0  0  0  0  0
    2.9437    0.6614   -0.8713 N   0  0  0  0  0  0  0  0  0  0  0  0
    4.3568    1.0473   -1.0600 C   0  0  0  0  0  0  0  0  0  0  0  0
    5.2419    0.3040   -0.0938 C   0  0  0  0  0  0  0  0  0  0  0  0
    6.1214   -0.6922   -0.5499 C   0  0  0  0  0  0  0  0  0  0  0  0
    6.9186   -1.3960    0.3582 C   0  0  0  0  0  0  0  0  0  0  0  0
    6.8398   -1.1143    1.7250 C   0  0  0  0  0  0  0  0  0  0  0  0
    5.9619   -0.1295    2.1864 C   0  0  0  0  0  0  0  0  0  0  0  0
    5.1631    0.5767    1.2818 C   0  0  0  0  0  0  0  0  0  0  0  0
    2.7051   -0.7350   -1.3133 C   0  0  0  0  0  0  0  0  0  0  0  0
    1.2023   -1.0657   -1.4534 C   0  0  0  0  0  0  0  0  0  0  0  0
   -1.7682   -1.3379    1.3881 C   0  0  0  0  0  0  0  0  0  0  0  0
   -2.9991   -0.6450    0.8914 C   0  0  0  0  0  0  0  0  0  0  0  0
   -4.1680   -1.2446    0.4248 C   0  0  0  0  0  0  0  0  0  0  0  0
   -5.2401   -0.4233    0.0031 C   0  0  0  0  0  0  0  0  0  0  0  0
   -6.4423   -0.9634   -0.4799 O   0  0  0  0  0  0  0  0  0  0  0  0
   -6.7088   -2.3571   -0.5976 C   0  0  0  0  0  0  0  0  0  0  0  0
   -5.1142    0.9841    0.0635 C   0  0  0  0  0  0  0  0  0  0  0  0
   -6.1972    1.7683   -0.3632 O   0  0  0  0  0  0  0  0  0  0  0  0
   -6.2104    3.1921   -0.3603 C   0  0  0  0  0  0  0  0  0  0  0  0
   -3.9173    1.5620    0.5452 C   0  0  0  0  0  0  0  0  0  0  0  0
   -2.8845    0.7189    0.9482 C   0  0  0  0  0  0  0  0  0  0  0  0
   -1.5825    1.0618    1.4640 C   0  0  0  0  0  0  0  0  0  0  0  0
   -1.1991    2.2327    1.7264 O   0  0  0  0  0  0  0  0  0  0  0  0
   -0.5105   -0.2188    2.7900 H   0  0  0  0  0  0  0  0  0  0  0  0
    1.2195    0.5400    1.2480 H   0  0  0  0  0  0  0  0  0  0  0  0
    1.0045   -1.2103    1.0995 H   0  0  0  0  0  0  0  0  0  0  0  0
   -0.7387   -0.3291   -0.9283 H   0  0  0  0  0  0  0  0  0  0  0  0
   -0.0701    1.5826   -2.0303 H   0  0  0  0  0  0  0  0  0  0  0  0
    0.3116    2.0973   -0.3709 H   0  0  0  0  0  0  0  0  0  0  0  0
    2.3131    2.6490   -1.3490 H   0  0  0  0  0  0  0  0  0  0  0  0
    2.1491    1.4575   -2.6837 H   0  0  0  0  0  0  0  0  0  0  0  0
    4.6773    0.8794   -2.1135 H   0  0  0  0  0  0  0  0  0  0  0  0
    4.4893    2.1333   -0.8563 H   0  0  0  0  0  0  0  0  0  0  0  0
    6.1866   -0.9272   -1.6050 H   0  0  0  0  0  0  0  0  0  0  0  0
    7.5955   -2.1621    0.0027 H   0  0  0  0  0  0  0  0  0  0  0  0
    7.4566   -1.6609    2.4265 H   0  0  0  0  0  0  0  0  0  0  0  0
    5.8982    0.0847    3.2454 H   0  0  0  0  0  0  0  0  0  0  0  0
    4.4806    1.3323    1.6512 H   0  0  0  0  0  0  0  0  0  0  0  0
    3.1413   -1.4258   -0.5595 H   0  0  0  0  0  0  0  0  0  0  0  0
    3.2064   -0.9397   -2.2866 H   0  0  0  0  0  0  0  0  0  0  0  0
    1.0074   -2.1102   -1.1248 H   0  0  0  0  0  0  0  0  0  0  0  0
    0.9216   -1.0119   -2.5290 H   0  0  0  0  0  0  0  0  0  0  0  0
   -1.3782   -2.0369    0.6171 H   0  0  0  0  0  0  0  0  0  0  0  0
   -2.0108   -1.9096    2.3097 H   0  0  0  0  0  0  0  0  0  0  0  0
   -4.2333   -2.3236    0.3935 H   0  0  0  0  0  0  0  0  0  0  0  0
   -5.9804   -2.8279   -1.2913 H   0  0  0  0  0  0  0  0  0  0  0  0
   -6.6554   -2.8417    0.4001 H   0  0  0  0  0  0  0  0  0  0  0  0
   -7.7303   -2.4975   -1.0064 H   0  0  0  0  0  0  0  0  0  0  0  0
   -5.4045    3.5827   -1.0170 H   0  0  0  0  0  0  0  0  0  0  0  0
   -7.1875    3.5463   -0.7480 H   0  0  0  0  0  0  0  0  0  0  0  0
   -6.0791    3.5731    0.6745 H   0  0  0  0  0  0  0  0  0  0  0  0
   -3.7861    2.6339    0.6043 H   0  0  0  0  0  0  0  0  0  0  0  0
  1  2  1  0
  2  3  1  0
  3  4  1  0
  4  5  1  0
  5  6  1  0
  6  7  1  0
  7  8  1  0
  8  9  2  0
  9 10  1  0
 10 11  2  0
 11 12  1  0
 12 13  2  0
  6 14  1  0
 14 15  1  0
  1 16  1  0
 16 17  1  0
 17 18  2  0
 18 19  1  0
 19 20  1  0
 20 21  1  0
 19 22  2  0
 22 23  1  0
 23 24  1  0
 22 25  1  0
 25 26  2  0
 26 27  1  0
 27 28  2  0
 27  1  1  0
 15  3  1  0
 26 17  1  0
 13  8  1  0
  1 29  1  1
  2 30  1  0
  2 31  1  0
  3 32  1  0
  4 33  1  0
  4 34  1  0
  5 35  1  0
  5 36  1  0
  7 37  1  0
  7 38  1  0
  9 39  1  0
 10 40  1  0
 11 41  1  0
 12 42  1  0
 13 43  1  0
 14 44  1  0
 14 45  1  0
 15 46  1  0
 15 47  1  0
 16 48  1  0
 16 49  1  0
 18 50  1  0
 21 51  1  0
 21 52  1  0
 21 53  1  0
 24 54  1  0
 24 55  1  0
 24 56  1  0
 25 57  1  0
M  END
$$$$
