
     RDKit          3D

 30 31  0  0  0  0  0  0  0  0999 V2000
    3.8842    2.1411    0.3766 C   0  0  0  0  0  0  0  0  0  0  0  0
    3.6627    0.6997   -0.0936 C   0  0  0  0  0  0  0  0  0  0  0  0
    4.4289   -0.2767    0.7536 C   0  0  0  0  0  0  0  0  0  0  0  0
    5.2453   -1.2245    0.1443 O   0  0  0  0  0  0  0  0  0  0  0  0
    4.3178   -0.2607    2.0097 O   0  0  0  0  0  0  0  0  0  0  0  0
    2.2003    0.3482   -0.1045 C   0  0  0  0  0  0  0  0  0  0  0  0
    1.3250    0.3995    0.9777 C   0  0  0  0  0  0  0  0  0  0  0  0
    0.0281   -0.0235    0.6640 C   0  0  0  0  0  0  0  0  0  0  0  0
   -0.1241   -0.4022   -0.6683 C   0  0  0  0  0  0  0  0  0  0  0  0
    1.3625   -0.2360   -1.4413 S   0  0  0  0  0  0  0  0  0  0  0  0
   -1.3440   -0.9408   -1.3010 C   0  0  0  0  0  0  0  0  0  0  0  0
   -1.2285   -1.6090   -2.3638 O   0  0  0  0  0  0  0  0  0  0  0  0
   -2.6933   -0.7321   -0.7277 C   0  0  0  0  0  0  0  0  0  0  0  0
   -3.6613   -1.7471   -0.8265 C   0  0  0  0  0  0  0  0  0  0  0  0
   -4.9445   -1.5540   -0.3052 C   0  0  0  0  0  0  0  0  0  0  0  0
   -5.2771   -0.3433    0.3072 C   0  0  0  0  0  0  0  0  0  0  0  0
   -4.3291    0.6789    0.3937 C   0  0  0  0  0  0  0  0  0  0  0  0
   -3.0446    0.4904   -0.1257 C   0  0  0  0  0  0  0  0  0  0  0  0
    4.9650    2.3940    0.3282 H   0  0  0  0  0  0  0  0  0  0  0  0
    3.3324    2.8445   -0.2832 H   0  0  0  0  0  0  0  0  0  0  0  0
    3.5322    2.2812    1.4211 H   0  0  0  0  0  0  0  0  0  0  0  0
    4.0464    0.6294   -1.1352 H   0  0  0  0  0  0  0  0  0  0  0  0
    5.7616   -1.8980    0.6975 H   0  0  0  0  0  0  0  0  0  0  0  0
    1.6160    0.7186    1.9697 H   0  0  0  0  0  0  0  0  0  0  0  0
   -0.7630   -0.0730    1.4001 H   0  0  0  0  0  0  0  0  0  0  0  0
   -3.4206   -2.6929   -1.2963 H   0  0  0  0  0  0  0  0  0  0  0  0
   -5.6816   -2.3433   -0.3772 H   0  0  0  0  0  0  0  0  0  0  0  0
   -6.2712   -0.1950    0.7087 H   0  0  0  0  0  0  0  0  0  0  0  0
   -4.5917    1.6212    0.8571 H   0  0  0  0  0  0  0  0  0  0  0  0
   -2.3341    1.3055   -0.0736 H   0  0  0  0  0  0  0  0  0  0  0  0
  1  2  1  0
  2  3  1  0
  3  4  1  0
  3  5  2  0
  2  6  1  0
  6  7  2  0
  7  8  1  0
  8  9  2  0
  9 10  1  0
  9 11  1  0
 11 12  2  0
 11 13  1  0
 13 14  2  0
 14 15  1  0
 15 16  2  0
 16 17  1  0
 17 18  2  0
 10  6  1  0
 18 13  1  0
  1 19  1  0
  1 20  1  0
  1 21  1  0
  2 22  1  0
  4 23  1  0
  7 24  1  0
  8 25  1  0
 14 26  1  0
 15 27  1  0
 16 28  1  0
 17 29  1  0
 18 30  1  0
M  END
$$$$
