
     RDKit          3D

 43 44  0  0  0  0  0  0  0  0999 V2000
   -7.0144    0.5952   -0.5132 C   0  0  0  0  0  0  0  0  0  0  0  0
   -5.5645    0.2011   -0.4510 C   0  0  0  0  0  0  0  0  0  0  0  0
   -4.7892    0.5038    0.6734 C   0  0  0  0  0  0  0  0  0  0  0  0
   -3.4644    0.1671    0.7258 N   0  0  0  0  0  0  0  0  0  0  0  0
   -2.6929    0.5027    1.9405 C   0  0  2  0  0  0  0  0  0  0  0  0
   -1.5191    1.2236    1.6123 O   0  0  0  0  0  0  0  0  0  0  0  0
   -0.4868    0.6781    2.4154 C   0  0  2  0  0  0  0  0  0  0  0  0
    0.7855    0.4788    1.5915 C   0  0  0  0  0  0  0  0  0  0  0  0
    1.1915    1.7205    1.0658 O   0  0  0  0  0  0  0  0  0  0  0  0
    2.4637    1.4602   -0.0416 P   0  0  1  0  0  5  0  0  0  0  0  0
    1.8016    1.1092   -1.5621 O   0  0  0  0  0  0  0  0  0  0  0  0
    3.2668    2.7375   -0.1401 O   0  0  0  0  0  0  0  0  0  0  0  0
    3.4731    0.1982    0.5047 O   0  0  0  0  0  0  0  0  0  0  0  0
    4.5157   -0.2316   -0.7710 P   0  0  2  0  0  5  0  0  0  0  0  0
    5.2209    1.1569   -1.4468 O   0  0  0  0  0  0  0  0  0  0  0  0
    3.7290   -0.9847   -1.8226 O   0  0  0  0  0  0  0  0  0  0  0  0
    5.7144   -1.2544   -0.1258 O   0  0  0  0  0  0  0  0  0  0  0  0
    6.9106   -1.4732   -1.3167 P   0  0  0  0  0  5  0  0  0  0  0  0
    7.7963   -0.0430   -1.5112 O   0  0  0  0  0  0  0  0  0  0  0  0
    6.2184   -1.9269   -2.7952 O   0  0  0  0  0  0  0  0  0  0  0  0
    7.8475   -2.5685   -0.8605 O   0  0  0  0  0  0  0  0  0  0  0  0
   -0.9928   -0.6129    2.9495 C   0  0  0  0  0  0  0  0  0  0  0  0
   -2.2654   -0.7190    2.6668 C   0  0  0  0  0  0  0  0  0  0  0  0
   -2.8904   -0.4823   -0.3400 C   0  0  0  0  0  0  0  0  0  0  0  0
   -1.6763   -0.8200   -0.3087 O   0  0  0  0  0  0  0  0  0  0  0  0
   -3.6277   -0.7733   -1.4462 N   0  0  0  0  0  0  0  0  0  0  0  0
   -4.9425   -0.4431   -1.5258 C   0  0  0  0  0  0  0  0  0  0  0  0
   -5.5944   -0.7209   -2.5692 O   0  0  0  0  0  0  0  0  0  0  0  0
   -7.3860    0.9355    0.4768 H   0  0  0  0  0  0  0  0  0  0  0  0
   -7.6300   -0.2725   -0.8316 H   0  0  0  0  0  0  0  0  0  0  0  0
   -7.1431    1.4208   -1.2441 H   0  0  0  0  0  0  0  0  0  0  0  0
   -5.2557    1.0127    1.5094 H   0  0  0  0  0  0  0  0  0  0  0  0
   -3.2955    1.1252    2.6402 H   0  0  0  0  0  0  0  0  0  0  0  0
   -0.2766    1.3675    3.2628 H   0  0  0  0  0  0  0  0  0  0  0  0
    1.5767    0.0761    2.2634 H   0  0  0  0  0  0  0  0  0  0  0  0
    0.5792   -0.2597    0.7850 H   0  0  0  0  0  0  0  0  0  0  0  0
    1.2605    0.2915   -1.4266 H   0  0  0  0  0  0  0  0  0  0  0  0
    5.2325    0.9958   -2.4241 H   0  0  0  0  0  0  0  0  0  0  0  0
    8.4494   -0.2434   -2.2282 H   0  0  0  0  0  0  0  0  0  0  0  0
    6.9820   -2.0027   -3.4213 H   0  0  0  0  0  0  0  0  0  0  0  0
   -0.4267   -1.3303    3.5349 H   0  0  0  0  0  0  0  0  0  0  0  0
   -2.9075   -1.5339    2.9845 H   0  0  0  0  0  0  0  0  0  0  0  0
   -3.1731   -1.2620   -2.2515 H   0  0  0  0  0  0  0  0  0  0  0  0
  1  2  1  0
  2  3  2  0
  3  4  1  0
  4  5  1  0
  5  6  1  0
  6  7  1  0
  7  8  1  0
  8  9  1  0
 10  9  1  1
 10 11  1  0
 10 12  2  0
 10 13  1  0
 14 13  1  1
 14 15  1  0
 14 16  2  0
 14 17  1  0
 17 18  1  0
 18 19  1  0
 18 20  1  0
 18 21  2  0
  7 22  1  0
 22 23  2  0
  4 24  1  0
 24 25  2  0
 24 26  1  0
 26 27  1  0
 27 28  2  0
 27  2  1  0
 23  5  1  0
  1 29  1  0
  1 30  1  0
  1 31  1  0
  3 32  1  0
  5 33  1  1
  7 34  1  1
  8 35  1  0
  8 36  1  0
 11 37  1  0
 15 38  1  0
 19 39  1  0
 20 40  1  0
 22 41  1  0
 23 42  1  0
 26 43  1  0
M  END
$$$$
