
     RDKit          3D

 17 18  0  0  0  0  0  0  0  0999 V2000
    4.0098    0.9485    0.5681 Br  0  0  0  0  0  0  0  0  0  0  0  0
    2.4080   -0.0068    0.1644 C   0  0  0  0  0  0  0  0  0  0  0  0
    2.3661   -1.3120   -0.1868 N   0  0  0  0  0  0  0  0  0  0  0  0
    1.0960   -1.6521   -0.3776 N   0  0  0  0  0  0  0  0  0  0  0  0
    0.3209   -0.5725   -0.1545 C   0  0  0  0  0  0  0  0  0  0  0  0
    1.1210    0.4805    0.1997 C   0  0  0  0  0  0  0  0  0  0  0  0
    0.6081    1.7283    0.5385 C   0  0  0  0  0  0  0  0  0  0  0  0
   -0.7874    1.8856    0.5129 C   0  0  0  0  0  0  0  0  0  0  0  0
   -1.6250    0.8074    0.1506 C   0  0  0  0  0  0  0  0  0  0  0  0
   -1.0799   -0.4515   -0.2016 C   0  0  0  0  0  0  0  0  0  0  0  0
   -1.9374   -1.5373   -0.5949 N   0  0  0  0  0  4  0  0  0  0  0  0
   -1.4819   -2.5261   -1.4348 O   0  0  0  0  0  1  0  0  0  0  0  0
   -3.1465   -1.5262   -0.2838 O   0  0  0  0  0  0  0  0  0  0  0  0
    0.7913   -2.6167   -0.6284 H   0  0  0  0  0  0  0  0  0  0  0  0
    1.2569    2.5467    0.8223 H   0  0  0  0  0  0  0  0  0  0  0  0
   -1.2239    2.8410    0.7736 H   0  0  0  0  0  0  0  0  0  0  0  0
   -2.6960    0.9631    0.1323 H   0  0  0  0  0  0  0  0  0  0  0  0
  1  2  1  0
  2  3  2  0
  3  4  1  0
  4  5  1  0
  5  6  2  0
  6  7  1  0
  7  8  2  0
  8  9  1  0
  9 10  2  0
 10 11  1  0
 11 12  1  0
 11 13  2  0
  6  2  1  0
 10  5  1  0
  4 14  1  0
  7 15  1  0
  8 16  1  0
  9 17  1  0
M  CHG  2  11   1  12  -1
M  END
$$$$
