
     RDKit          3D

 58 61  0  0  0  0  0  0  0  0999 V2000
    6.9957   -1.9767   -2.1776 C   0  0  0  0  0  0  0  0  0  0  0  0
    7.1069   -1.1280   -0.9114 C   0  0  0  0  0  0  0  0  0  0  0  0
    5.7807   -0.4520   -0.5303 C   0  0  0  0  0  0  0  0  0  0  0  0
    4.7139   -1.4697   -0.0624 C   0  0  0  0  0  0  0  0  0  0  0  0
    3.5110   -0.8552    0.5429 N   0  0  0  0  0  0  0  0  0  0  0  0
    2.8965    0.1959   -0.2880 C   0  0  0  0  0  0  0  0  0  0  0  0
    1.4630    0.4895    0.1933 C   0  0  0  0  0  0  0  0  0  0  0  0
    1.2484    0.1222    1.6821 C   0  0  0  0  0  0  0  0  0  0  0  0
    0.0496    0.8755    2.2875 C   0  0  0  0  0  0  0  0  0  0  0  0
   -1.1922    0.4947    1.6136 N   0  0  0  0  0  0  0  0  0  0  0  0
   -1.8448    1.3335    0.6471 C   0  0  0  0  0  0  0  0  0  0  0  0
   -1.3367    2.4430    0.3321 O   0  0  0  0  0  0  0  0  0  0  0  0
   -3.1061    0.9079    0.0068 C   0  0  0  0  0  0  0  0  0  0  0  0
   -4.0470    0.0048    0.4959 C   0  0  0  0  0  0  0  0  0  0  0  0
   -4.0039   -0.6817    1.7082 O   0  0  0  0  0  0  0  0  0  0  0  0
   -4.9575   -1.7130    1.9756 C   0  0  0  0  0  0  0  0  0  0  0  0
   -6.3356   -1.3571    1.3857 C   0  0  0  0  0  0  0  0  0  0  0  0
   -6.2234   -1.0221   -0.1143 C   0  0  0  0  0  0  0  0  0  0  0  0
   -5.0924   -0.1227   -0.3440 N   0  0  0  0  0  0  0  0  0  0  0  0
   -4.8295    0.6751   -1.3951 C   0  0  0  0  0  0  0  0  0  0  0  0
   -5.6006    0.8620   -2.5440 C   0  0  0  0  0  0  0  0  0  0  0  0
   -5.1182    1.7473   -3.5232 C   0  0  0  0  0  0  0  0  0  0  0  0
   -3.8887    2.4158   -3.3409 C   0  0  0  0  0  0  0  0  0  0  0  0
   -3.1276    2.2076   -2.1767 C   0  0  0  0  0  0  0  0  0  0  0  0
   -3.6293    1.3297   -1.2121 C   0  0  0  0  0  0  0  0  0  0  0  0
    2.5301    0.3964    2.4883 C   0  0  0  0  0  0  0  0  0  0  0  0
    3.7251   -0.4148    1.9403 C   0  0  0  0  0  0  0  0  0  0  0  0
    8.0038   -2.3419   -2.4664 H   0  0  0  0  0  0  0  0  0  0  0  0
    6.5850   -1.3738   -3.0153 H   0  0  0  0  0  0  0  0  0  0  0  0
    6.3460   -2.8592   -2.0029 H   0  0  0  0  0  0  0  0  0  0  0  0
    7.4701   -1.7585   -0.0709 H   0  0  0  0  0  0  0  0  0  0  0  0
    7.8668   -0.3361   -1.0886 H   0  0  0  0  0  0  0  0  0  0  0  0
    5.4039    0.1229   -1.4036 H   0  0  0  0  0  0  0  0  0  0  0  0
    5.9968    0.2745    0.2785 H   0  0  0  0  0  0  0  0  0  0  0  0
    5.1686   -2.1810    0.6626 H   0  0  0  0  0  0  0  0  0  0  0  0
    4.3891   -2.0772   -0.9337 H   0  0  0  0  0  0  0  0  0  0  0  0
    2.8568   -0.1232   -1.3532 H   0  0  0  0  0  0  0  0  0  0  0  0
    3.4996    1.1304   -0.2300 H   0  0  0  0  0  0  0  0  0  0  0  0
    1.2558    1.5690    0.0253 H   0  0  0  0  0  0  0  0  0  0  0  0
    0.7414   -0.0893   -0.4242 H   0  0  0  0  0  0  0  0  0  0  0  0
    1.0352   -0.9692    1.7490 H   0  0  0  0  0  0  0  0  0  0  0  0
    0.2133    1.9740    2.2350 H   0  0  0  0  0  0  0  0  0  0  0  0
   -0.0448    0.6113    3.3630 H   0  0  0  0  0  0  0  0  0  0  0  0
   -1.5285   -0.4839    1.7507 H   0  0  0  0  0  0  0  0  0  0  0  0
   -5.0416   -1.8588    3.0729 H   0  0  0  0  0  0  0  0  0  0  0  0
   -4.5994   -2.6628    1.5230 H   0  0  0  0  0  0  0  0  0  0  0  0
   -6.7411   -0.4744    1.9266 H   0  0  0  0  0  0  0  0  0  0  0  0
   -7.0375   -2.2064    1.5289 H   0  0  0  0  0  0  0  0  0  0  0  0
   -6.0675   -1.9567   -0.6948 H   0  0  0  0  0  0  0  0  0  0  0  0
   -7.1669   -0.5436   -0.4537 H   0  0  0  0  0  0  0  0  0  0  0  0
   -6.5393    0.3425   -2.6844 H   0  0  0  0  0  0  0  0  0  0  0  0
   -5.6919    1.9144   -4.4255 H   0  0  0  0  0  0  0  0  0  0  0  0
   -3.5259    3.0903   -4.1055 H   0  0  0  0  0  0  0  0  0  0  0  0
   -2.1793    2.7109   -2.0493 H   0  0  0  0  0  0  0  0  0  0  0  0
    2.7688    1.4822    2.4343 H   0  0  0  0  0  0  0  0  0  0  0  0
    2.3728    0.1395    3.5589 H   0  0  0  0  0  0  0  0  0  0  0  0
    3.8584   -1.3171    2.5763 H   0  0  0  0  0  0  0  0  0  0  0  0
    4.6440    0.2002    2.0378 H   0  0  0  0  0  0  0  0  0  0  0  0
  1  2  1  0
  2  3  1  0
  3  4  1  0
  4  5  1  0
  5  6  1  0
  6  7  1  0
  7  8  1  0
  8  9  1  0
  9 10  1  0
 10 11  1  0
 11 12  2  0
 11 13  1  0
 13 14  2  0
 14 15  1  0
 15 16  1  0
 16 17  1  0
 17 18  1  0
 18 19  1  0
 19 20  1  0
 20 21  2  0
 21 22  1  0
 22 23  2  0
 23 24  1  0
 24 25  2  0
  8 26  1  0
 26 27  1  0
 27  5  1  0
 25 13  1  0
 19 14  1  0
 25 20  1  0
  1 28  1  0
  1 29  1  0
  1 30  1  0
  2 31  1  0
  2 32  1  0
  3 33  1  0
  3 34  1  0
  4 35  1  0
  4 36  1  0
  6 37  1  0
  6 38  1  0
  7 39  1  0
  7 40  1  0
  8 41  1  0
  9 42  1  0
  9 43  1  0
 10 44  1  0
 16 45  1  0
 16 46  1  0
 17 47  1  0
 17 48  1  0
 18 49  1  0
 18 50  1  0
 21 51  1  0
 22 52  1  0
 23 53  1  0
 24 54  1  0
 26 55  1  0
 26 56  1  0
 27 57  1  0
 27 58  1  0
M  END
$$$$
