
     RDKit          3D

 15 14  0  0  0  0  0  0  0  0999 V2000
   -2.5912   -0.6173    0.7520 O   0  0  0  0  0  0  0  0  0  0  0  0
   -1.2024   -0.7593    0.6208 C   0  0  0  0  0  0  0  0  0  0  0  0
   -0.6255    0.3848   -0.2261 C   0  0  1  0  0  0  0  0  0  0  0  0
   -0.8846    1.6126    0.4046 O   0  0  0  0  0  0  0  0  0  0  0  0
    0.8842    0.2109   -0.4644 C   0  0  0  0  0  0  0  0  0  0  0  0
    1.8468    0.3956    1.0766 S   0  0  0  0  0  0  0  0  0  0  0  0
    3.3429    0.1349    0.2739 O   0  0  0  0  0  0  0  0  0  0  0  0
   -2.9897   -0.9078   -0.1097 H   0  0  0  0  0  0  0  0  0  0  0  0
   -0.9614   -1.7435    0.1572 H   0  0  0  0  0  0  0  0  0  0  0  0
   -0.7531   -0.7442    1.6361 H   0  0  0  0  0  0  0  0  0  0  0  0
   -1.1344    0.3606   -1.2182 H   0  0  0  0  0  0  0  0  0  0  0  0
   -0.7523    2.3198   -0.2798 H   0  0  0  0  0  0  0  0  0  0  0  0
    1.2277    0.9794   -1.1897 H   0  0  0  0  0  0  0  0  0  0  0  0
    1.0842   -0.7890   -0.9063 H   0  0  0  0  0  0  0  0  0  0  0  0
    3.5088   -0.8375    0.3630 H   0  0  0  0  0  0  0  0  0  0  0  0
  1  2  1  0
  2  3  1  0
  3  4  1  0
  3  5  1  0
  5  6  1  0
  6  7  1  0
  1  8  1  0
  2  9  1  0
  2 10  1  0
  3 11  1  6
  4 12  1  0
  5 13  1  0
  5 14  1  0
  7 15  1  0
M  END
$$$$
