
     RDKit          3D

 39 40  0  0  0  0  0  0  0  0999 V2000
    4.3174   -1.8186   -1.2020 C   0  0  0  0  0  0  0  0  0  0  0  0
    4.1425   -0.3970   -0.6644 C   0  0  0  0  0  0  0  0  0  0  0  0
    5.1343   -0.1381    0.4826 C   0  0  0  0  0  0  0  0  0  0  0  0
    2.7438   -0.2184   -0.2340 N   0  0  0  0  0  0  0  0  0  0  0  0
    2.3747    1.1978   -0.0926 C   0  0  0  0  0  0  0  0  0  0  0  0
    0.8547    1.3402    0.0627 C   0  0  0  0  0  0  0  0  0  0  0  0
    0.5526    2.6843    0.3348 O   0  0  0  0  0  0  0  0  0  0  0  0
    0.1237    0.8943   -1.2173 C   0  0  0  0  0  0  0  0  0  0  0  0
   -1.2917    0.9566   -1.0418 O   0  0  0  0  0  0  0  0  0  0  0  0
   -2.0569    0.0427   -0.2994 C   0  0  0  0  0  0  0  0  0  0  0  0
   -1.5220   -1.1368    0.2719 C   0  0  0  0  0  0  0  0  0  0  0  0
   -2.3480   -2.0117    1.0056 C   0  0  0  0  0  0  0  0  0  0  0  0
   -3.7117   -1.7265    1.1772 C   0  0  0  0  0  0  0  0  0  0  0  0
   -4.2222   -0.5627    0.6047 C   0  0  0  0  0  0  0  0  0  0  0  0
   -3.4185    0.2908   -0.1105 C   0  0  0  0  0  0  0  0  0  0  0  0
   -4.2220    1.4038   -0.5746 C   0  0  0  0  0  0  0  0  0  0  0  0
   -5.4708    1.2240   -0.1519 C   0  0  0  0  0  0  0  0  0  0  0  0
   -5.6178   -0.0441    0.6452 C   0  0  0  0  0  0  0  0  0  0  0  0
    4.1178   -2.5653   -0.4035 H   0  0  0  0  0  0  0  0  0  0  0  0
    3.6091   -1.9945   -2.0396 H   0  0  0  0  0  0  0  0  0  0  0  0
    5.3511   -1.9636   -1.5829 H   0  0  0  0  0  0  0  0  0  0  0  0
    4.3785    0.2982   -1.5015 H   0  0  0  0  0  0  0  0  0  0  0  0
    5.0840    0.9203    0.8105 H   0  0  0  0  0  0  0  0  0  0  0  0
    4.9146   -0.7970    1.3498 H   0  0  0  0  0  0  0  0  0  0  0  0
    6.1730   -0.3341    0.1408 H   0  0  0  0  0  0  0  0  0  0  0  0
    2.5909   -0.7035    0.6822 H   0  0  0  0  0  0  0  0  0  0  0  0
    2.7017    1.7820   -0.9820 H   0  0  0  0  0  0  0  0  0  0  0  0
    2.8642    1.6290    0.8082 H   0  0  0  0  0  0  0  0  0  0  0  0
    0.5365    0.7055    0.9216 H   0  0  0  0  0  0  0  0  0  0  0  0
   -0.3455    2.6987    0.7583 H   0  0  0  0  0  0  0  0  0  0  0  0
    0.4249   -0.1289   -1.5275 H   0  0  0  0  0  0  0  0  0  0  0  0
    0.3996    1.5799   -2.0467 H   0  0  0  0  0  0  0  0  0  0  0  0
   -0.4780   -1.3912    0.1576 H   0  0  0  0  0  0  0  0  0  0  0  0
   -1.9288   -2.9103    1.4392 H   0  0  0  0  0  0  0  0  0  0  0  0
   -4.3507   -2.3945    1.7399 H   0  0  0  0  0  0  0  0  0  0  0  0
   -3.8772    2.2435   -1.1636 H   0  0  0  0  0  0  0  0  0  0  0  0
   -6.2791    1.9125   -0.3601 H   0  0  0  0  0  0  0  0  0  0  0  0
   -5.9302    0.1785    1.6873 H   0  0  0  0  0  0  0  0  0  0  0  0
   -6.3185   -0.7457    0.1455 H   0  0  0  0  0  0  0  0  0  0  0  0
  1  2  1  0
  2  3  1  0
  2  4  1  0
  4  5  1  0
  5  6  1  0
  6  7  1  0
  6  8  1  0
  8  9  1  0
  9 10  1  0
 10 11  2  0
 11 12  1  0
 12 13  2  0
 13 14  1  0
 14 15  2  0
 15 16  1  0
 16 17  2  0
 17 18  1  0
 15 10  1  0
 18 14  1  0
  1 19  1  0
  1 20  1  0
  1 21  1  0
  2 22  1  0
  3 23  1  0
  3 24  1  0
  3 25  1  0
  4 26  1  0
  5 27  1  0
  5 28  1  0
  6 29  1  0
  7 30  1  0
  8 31  1  0
  8 32  1  0
 11 33  1  0
 12 34  1  0
 13 35  1  0
 16 36  1  0
 17 37  1  0
 18 38  1  0
 18 39  1  0
M  END
$$$$
