
     RDKit          3D

 26 26  0  0  0  0  0  0  0  0999 V2000
    3.4238    0.4145   -0.8753 N   0  0  0  0  0  0  0  0  0  0  0  0
    2.6497   -0.0157    0.2862 C   0  0  0  0  0  0  0  0  0  0  0  0
    1.1706   -0.2273   -0.0884 C   0  0  1  0  0  0  0  0  0  0  0  0
    0.3990   -0.8211    1.1074 C   0  0  0  0  0  0  0  0  0  0  0  0
   -1.0827   -1.0241    0.7657 C   0  0  0  0  0  0  0  0  0  0  0  0
   -1.7286    0.2974    0.3137 C   0  0  1  0  0  0  0  0  0  0  0  0
   -0.9653    0.8920   -0.8829 C   0  0  0  0  0  0  0  0  0  0  0  0
    0.5167    1.0955   -0.5425 C   0  0  0  0  0  0  0  0  0  0  0  0
   -3.1722    0.0788   -0.0431 C   0  0  0  0  0  0  0  0  0  0  0  0
   -3.5147   -0.7894   -1.0765 O   0  0  0  0  0  0  0  0  0  0  0  0
   -4.0771    0.6821    0.5936 O   0  0  0  0  0  0  0  0  0  0  0  0
    4.3997    0.6081   -0.5536 H   0  0  0  0  0  0  0  0  0  0  0  0
    3.4848   -0.3880   -1.5435 H   0  0  0  0  0  0  0  0  0  0  0  0
    3.0778   -0.9647    0.6813 H   0  0  0  0  0  0  0  0  0  0  0  0
    2.7284    0.7539    1.0860 H   0  0  0  0  0  0  0  0  0  0  0  0
    1.1251   -0.9563   -0.9293 H   0  0  0  0  0  0  0  0  0  0  0  0
    0.8381   -1.8042    1.3849 H   0  0  0  0  0  0  0  0  0  0  0  0
    0.4842   -0.1473    1.9890 H   0  0  0  0  0  0  0  0  0  0  0  0
   -1.6105   -1.4079    1.6662 H   0  0  0  0  0  0  0  0  0  0  0  0
   -1.1708   -1.7903   -0.0367 H   0  0  0  0  0  0  0  0  0  0  0  0
   -1.6775    1.0215    1.1589 H   0  0  0  0  0  0  0  0  0  0  0  0
   -1.0479    0.2188   -1.7653 H   0  0  0  0  0  0  0  0  0  0  0  0
   -1.4098    1.8737   -1.1574 H   0  0  0  0  0  0  0  0  0  0  0  0
    0.6080    1.8613    0.2596 H   0  0  0  0  0  0  0  0  0  0  0  0
    1.0357    1.4830   -1.4457 H   0  0  0  0  0  0  0  0  0  0  0  0
   -4.4843   -0.9441   -1.3253 H   0  0  0  0  0  0  0  0  0  0  0  0
  1  2  1  0
  2  3  1  0
  3  4  1  0
  4  5  1  0
  5  6  1  0
  6  7  1  0
  7  8  1  0
  6  9  1  0
  9 10  1  0
  9 11  2  0
  8  3  1  0
  1 12  1  0
  1 13  1  0
  2 14  1  0
  2 15  1  0
  3 16  1  6
  4 17  1  0
  4 18  1  0
  5 19  1  0
  5 20  1  0
  6 21  1  1
  7 22  1  0
  7 23  1  0
  8 24  1  0
  8 25  1  0
 10 26  1  0
M  END
$$$$
