
     RDKit          3D

 66 69  0  0  0  0  0  0  0  0999 V2000
   -6.4762   -0.5352    0.2459 C   0  0  2  0  0  0  0  0  0  0  0  0
   -7.1472    0.4964   -0.4400 O   0  0  0  0  0  0  0  0  0  0  0  0
   -7.1180    0.6006    0.9701 C   0  0  1  0  0  0  0  0  0  0  0  0
   -8.5128    0.3895    1.5567 C   0  0  0  0  0  0  0  0  0  0  0  0
   -6.3379    1.8555    1.3929 C   0  0  0  0  0  0  0  0  0  0  0  0
   -4.8194    1.6599    1.3966 C   0  0  0  0  0  0  0  0  0  0  0  0
   -4.3391    0.9234    0.1232 C   0  0  2  0  0  0  0  0  0  0  0  0
   -4.9384   -0.5290    0.0167 C   0  0  1  0  0  0  0  0  0  0  0  0
   -4.3656   -1.5018    1.0797 C   0  0  0  0  0  0  0  0  0  0  0  0
   -4.6544   -1.0970   -1.4113 C   0  0  0  0  0  0  0  0  0  0  0  0
   -3.4748   -0.4137   -2.1246 C   0  0  0  0  0  0  0  0  0  0  0  0
   -2.3839    0.0024   -1.1318 C   0  0  0  0  0  0  0  0  0  0  0  0
   -2.8521    1.0106   -0.1297 N   0  0  1  0  0  4  0  0  0  0  0  0
   -2.6293    2.2370   -0.6774 O   0  0  0  0  0  1  0  0  0  0  0  0
   -2.0256    0.9507    1.1146 C   0  0  0  0  0  0  0  0  0  0  0  0
   -0.5397    0.9956    0.8457 C   0  0  0  0  0  0  0  0  0  0  0  0
   -0.0139    2.0772    0.4669 O   0  0  0  0  0  0  0  0  0  0  0  0
    0.2518   -0.1976    0.9702 N   0  0  0  0  0  0  0  0  0  0  0  0
    1.6837   -0.2296    0.8482 C   0  0  0  0  0  0  0  0  0  0  0  0
    2.2999   -1.3529    0.2790 C   0  0  0  0  0  0  0  0  0  0  0  0
    3.6916   -1.4181    0.1679 C   0  0  0  0  0  0  0  0  0  0  0  0
    4.4919   -0.3613    0.6244 C   0  0  0  0  0  0  0  0  0  0  0  0
    5.9220   -0.4632    0.5179 N   0  0  0  0  0  0  0  0  0  0  0  0
    6.7931    0.6547    0.2816 C   0  0  0  0  0  0  0  0  0  0  0  0
    6.3224    1.7805   -0.0356 O   0  0  0  0  0  0  0  0  0  0  0  0
    8.2822    0.4713    0.3319 C   0  0  0  0  0  0  0  0  0  0  0  0
    8.8857    0.3167   -1.0705 C   0  0  0  0  0  0  0  0  0  0  0  0
    8.4649   -0.9954   -1.7447 C   0  0  0  0  0  0  0  0  0  0  0  0
    9.1380   -1.1393   -3.0725 C   0  0  0  0  0  0  0  0  0  0  0  0
    8.5565   -0.5838   -4.2078 O   0  0  0  0  0  0  0  0  0  0  0  0
   10.2491   -1.7278   -3.1573 O   0  0  0  0  0  0  0  0  0  0  0  0
    3.8786    0.7449    1.2377 C   0  0  0  0  0  0  0  0  0  0  0  0
    2.4863    0.8101    1.3488 C   0  0  0  0  0  0  0  0  0  0  0  0
   -7.0351   -1.4936    0.1749 H   0  0  0  0  0  0  0  0  0  0  0  0
   -8.4262    0.1859    2.6442 H   0  0  0  0  0  0  0  0  0  0  0  0
   -9.0363   -0.4648    1.0759 H   0  0  0  0  0  0  0  0  0  0  0  0
   -9.1228    1.3055    1.4091 H   0  0  0  0  0  0  0  0  0  0  0  0
   -6.6531    2.1590    2.4146 H   0  0  0  0  0  0  0  0  0  0  0  0
   -6.6010    2.6926    0.7091 H   0  0  0  0  0  0  0  0  0  0  0  0
   -4.5236    1.1130    2.3150 H   0  0  0  0  0  0  0  0  0  0  0  0
   -4.3552    2.6689    1.4413 H   0  0  0  0  0  0  0  0  0  0  0  0
   -4.8312    1.4868   -0.7078 H   0  0  0  0  0  0  0  0  0  0  0  0
   -3.3010   -1.7413    0.9120 H   0  0  0  0  0  0  0  0  0  0  0  0
   -4.4918   -1.1085    2.1080 H   0  0  0  0  0  0  0  0  0  0  0  0
   -4.9020   -2.4752    1.0387 H   0  0  0  0  0  0  0  0  0  0  0  0
   -4.4626   -2.1923   -1.3675 H   0  0  0  0  0  0  0  0  0  0  0  0
   -5.5440   -0.9748   -2.0687 H   0  0  0  0  0  0  0  0  0  0  0  0
   -3.0460   -1.1097   -2.8780 H   0  0  0  0  0  0  0  0  0  0  0  0
   -3.8325    0.4868   -2.6705 H   0  0  0  0  0  0  0  0  0  0  0  0
   -1.9996   -0.9163   -0.6422 H   0  0  0  0  0  0  0  0  0  0  0  0
   -1.5244    0.4056   -1.7154 H   0  0  0  0  0  0  0  0  0  0  0  0
   -2.2578    0.0492    1.7120 H   0  0  0  0  0  0  0  0  0  0  0  0
   -2.2428    1.8205    1.7707 H   0  0  0  0  0  0  0  0  0  0  0  0
   -0.2496   -1.1102    1.0600 H   0  0  0  0  0  0  0  0  0  0  0  0
    1.6988   -2.1755   -0.0879 H   0  0  0  0  0  0  0  0  0  0  0  0
    4.1478   -2.2904   -0.2833 H   0  0  0  0  0  0  0  0  0  0  0  0
    6.3453   -1.4190    0.5158 H   0  0  0  0  0  0  0  0  0  0  0  0
    8.7337    1.3621    0.8197 H   0  0  0  0  0  0  0  0  0  0  0  0
    8.5396   -0.4110    0.9572 H   0  0  0  0  0  0  0  0  0  0  0  0
    9.9938    0.3349   -0.9744 H   0  0  0  0  0  0  0  0  0  0  0  0
    8.5860    1.1809   -1.7042 H   0  0  0  0  0  0  0  0  0  0  0  0
    8.7351   -1.8584   -1.0976 H   0  0  0  0  0  0  0  0  0  0  0  0
    7.3650   -1.0084   -1.9004 H   0  0  0  0  0  0  0  0  0  0  0  0
    9.0074   -0.6583   -5.1118 H   0  0  0  0  0  0  0  0  0  0  0  0
    4.4733    1.5427    1.6620 H   0  0  0  0  0  0  0  0  0  0  0  0
    2.0428    1.6563    1.8563 H   0  0  0  0  0  0  0  0  0  0  0  0
  1  2  1  0
  2  3  1  0
  3  4  1  1
  3  5  1  0
  5  6  1  0
  6  7  1  0
  7  8  1  0
  8  9  1  1
  8 10  1  0
 10 11  1  0
 11 12  1  0
 12 13  1  0
 13 14  1  6
 13 15  1  0
 15 16  1  0
 16 17  2  0
 16 18  1  0
 18 19  1  0
 19 20  2  0
 20 21  1  0
 21 22  2  0
 22 23  1  0
 23 24  1  0
 24 25  2  0
 24 26  1  0
 26 27  1  0
 27 28  1  0
 28 29  1  0
 29 30  1  0
 29 31  2  0
 22 32  1  0
 32 33  2  0
  3  1  1  0
 13  7  1  0
 33 19  1  0
  8  1  1  0
  1 34  1  1
  4 35  1  0
  4 36  1  0
  4 37  1  0
  5 38  1  0
  5 39  1  0
  6 40  1  0
  6 41  1  0
  7 42  1  6
  9 43  1  0
  9 44  1  0
  9 45  1  0
 10 46  1  0
 10 47  1  0
 11 48  1  0
 11 49  1  0
 12 50  1  0
 12 51  1  0
 15 52  1  0
 15 53  1  0
 18 54  1  0
 20 55  1  0
 21 56  1  0
 23 57  1  0
 26 58  1  0
 26 59  1  0
 27 60  1  0
 27 61  1  0
 28 62  1  0
 28 63  1  0
 30 64  1  0
 32 65  1  0
 33 66  1  0
M  CHG  2  13   1  14  -1
M  END
$$$$
