
     RDKit          3D

 51 53  0  0  0  0  0  0  0  0999 V2000
   -6.6375    2.3888    2.0165 C   0  0  0  0  0  0  0  0  0  0  0  0
   -5.4549    1.6821    1.6568 O   0  0  0  0  0  0  0  0  0  0  0  0
   -5.3567    0.8052    0.5661 C   0  0  0  0  0  0  0  0  0  0  0  0
   -4.1287    0.1755    0.3282 C   0  0  0  0  0  0  0  0  0  0  0  0
   -3.9702   -0.7169   -0.7485 C   0  0  0  0  0  0  0  0  0  0  0  0
   -5.0683   -0.9711   -1.5889 C   0  0  0  0  0  0  0  0  0  0  0  0
   -6.2951   -0.3453   -1.3577 C   0  0  0  0  0  0  0  0  0  0  0  0
   -6.4434    0.5390   -0.2874 C   0  0  0  0  0  0  0  0  0  0  0  0
   -2.6639   -1.3800   -0.9931 C   0  0  0  0  0  0  0  0  0  0  0  0
   -1.4611   -0.6626   -0.8548 C   0  0  0  0  0  0  0  0  0  0  0  0
   -0.2242   -1.2859   -1.0874 C   0  0  0  0  0  0  0  0  0  0  0  0
    1.0582   -0.5181   -0.9018 C   0  0  0  0  0  0  0  0  0  0  0  0
    1.5053   -0.5718    0.5713 C   0  0  0  0  0  0  0  0  0  0  0  0
    2.9015    0.0505    0.8463 C   0  0  2  0  0  0  0  0  0  0  0  0
    3.2853   -0.2587    2.3103 C   0  0  0  0  0  0  0  0  0  0  0  0
    2.8868    1.5872    0.6288 C   0  0  0  0  0  0  0  0  0  0  0  0
    4.2877    2.1231    0.6287 C   0  0  0  0  0  0  0  0  0  0  0  0
    4.4987    3.3142    0.9846 O   0  0  0  0  0  0  0  0  0  0  0  0
    5.3654    1.2880    0.1649 N   0  0  0  0  0  0  0  0  0  0  0  0
    6.7371    1.8008    0.1075 C   0  0  0  0  0  0  0  0  0  0  0  0
    5.0434   -0.0311   -0.3281 C   0  0  0  0  0  0  0  0  0  0  0  0
    5.9444   -0.7391   -1.1848 N   0  0  0  0  0  0  0  0  0  0  0  0
    3.8957   -0.5731   -0.0378 N   0  0  0  0  0  0  0  0  0  0  0  0
   -0.1913   -2.6438   -1.4380 C   0  0  0  0  0  0  0  0  0  0  0  0
   -1.3799   -3.3620   -1.5794 C   0  0  0  0  0  0  0  0  0  0  0  0
   -2.6097   -2.7363   -1.3617 C   0  0  0  0  0  0  0  0  0  0  0  0
   -6.9491    3.0587    1.1874 H   0  0  0  0  0  0  0  0  0  0  0  0
   -7.4519    1.6730    2.2566 H   0  0  0  0  0  0  0  0  0  0  0  0
   -6.4317    3.0068    2.9142 H   0  0  0  0  0  0  0  0  0  0  0  0
   -3.3022    0.3728    1.0000 H   0  0  0  0  0  0  0  0  0  0  0  0
   -4.9734   -1.6398   -2.4352 H   0  0  0  0  0  0  0  0  0  0  0  0
   -7.1333   -0.5439   -2.0131 H   0  0  0  0  0  0  0  0  0  0  0  0
   -7.4047    1.0093   -0.1325 H   0  0  0  0  0  0  0  0  0  0  0  0
   -1.4831    0.3854   -0.5807 H   0  0  0  0  0  0  0  0  0  0  0  0
    1.8443   -0.9460   -1.5606 H   0  0  0  0  0  0  0  0  0  0  0  0
    0.8941    0.5312   -1.2223 H   0  0  0  0  0  0  0  0  0  0  0  0
    0.7422   -0.0590    1.1987 H   0  0  0  0  0  0  0  0  0  0  0  0
    1.5248   -1.6406    0.8835 H   0  0  0  0  0  0  0  0  0  0  0  0
    4.2839    0.1586    2.5599 H   0  0  0  0  0  0  0  0  0  0  0  0
    2.5400    0.1747    3.0117 H   0  0  0  0  0  0  0  0  0  0  0  0
    3.3283   -1.3567    2.4770 H   0  0  0  0  0  0  0  0  0  0  0  0
    2.4466    1.8469   -0.3539 H   0  0  0  0  0  0  0  0  0  0  0  0
    2.2831    2.0872    1.4180 H   0  0  0  0  0  0  0  0  0  0  0  0
    6.9468    2.1932   -0.9095 H   0  0  0  0  0  0  0  0  0  0  0  0
    7.4600    0.9943    0.3532 H   0  0  0  0  0  0  0  0  0  0  0  0
    6.8921    2.6125    0.8491 H   0  0  0  0  0  0  0  0  0  0  0  0
    5.7040   -1.6993   -1.5178 H   0  0  0  0  0  0  0  0  0  0  0  0
    6.8252   -0.3041   -1.5355 H   0  0  0  0  0  0  0  0  0  0  0  0
    0.7545   -3.1460   -1.5998 H   0  0  0  0  0  0  0  0  0  0  0  0
   -1.3481   -4.4092   -1.8512 H   0  0  0  0  0  0  0  0  0  0  0  0
   -3.5171   -3.3189   -1.4592 H   0  0  0  0  0  0  0  0  0  0  0  0
  1  2  1  0
  2  3  1  0
  3  4  2  0
  4  5  1  0
  5  6  2  0
  6  7  1  0
  7  8  2  0
  5  9  1  0
  9 10  2  0
 10 11  1  0
 11 12  1  0
 12 13  1  0
 14 13  1  6
 14 15  1  0
 14 16  1  0
 16 17  1  0
 17 18  2  0
 17 19  1  0
 19 20  1  0
 19 21  1  0
 21 22  1  0
 21 23  2  0
 11 24  2  0
 24 25  1  0
 25 26  2  0
  8  3  1  0
 26  9  1  0
 23 14  1  0
  1 27  1  0
  1 28  1  0
  1 29  1  0
  4 30  1  0
  6 31  1  0
  7 32  1  0
  8 33  1  0
 10 34  1  0
 12 35  1  0
 12 36  1  0
 13 37  1  0
 13 38  1  0
 15 39  1  0
 15 40  1  0
 15 41  1  0
 16 42  1  0
 16 43  1  0
 20 44  1  0
 20 45  1  0
 20 46  1  0
 22 47  1  0
 22 48  1  0
 24 49  1  0
 25 50  1  0
 26 51  1  0
M  END
$$$$
