
     RDKit          3D

 48 52  0  0  0  0  0  0  0  0999 V2000
   -3.2770    5.4120   -2.4189 N   0  0  0  0  0  0  0  0  0  0  0  0
   -3.9201    4.5164   -2.7704 C   0  0  0  0  0  0  0  0  0  0  0  0
   -4.7346    3.3817   -3.2158 C   0  0  0  0  0  0  0  0  0  0  0  0
   -3.9409    2.1094   -3.1160 C   0  0  0  0  0  0  0  0  0  0  0  0
   -3.1561    1.6768   -4.1962 C   0  0  0  0  0  0  0  0  0  0  0  0
   -2.3961    0.5082   -4.0927 C   0  0  0  0  0  0  0  0  0  0  0  0
   -2.3877   -0.2321   -2.9018 C   0  0  0  0  0  0  0  0  0  0  0  0
   -1.6127   -1.4407   -2.8280 N   0  0  0  0  0  0  0  0  0  0  0  0
   -0.9336   -1.8914   -1.6473 C   0  0  0  0  0  0  0  0  0  0  0  0
   -0.4042   -3.1417   -1.6166 N   0  0  0  0  0  0  0  0  0  0  0  0
    0.2604   -3.5988   -0.5245 C   0  0  0  0  0  0  0  0  0  0  0  0
    0.7687   -4.9028   -0.5131 C   0  0  0  0  0  0  0  0  0  0  0  0
    1.4213   -5.3901    0.6221 C   0  0  0  0  0  0  0  0  0  0  0  0
    1.5605   -4.5810    1.7527 C   0  0  0  0  0  0  0  0  0  0  0  0
    1.0599   -3.2754    1.7509 C   0  0  0  0  0  0  0  0  0  0  0  0
    0.4232   -2.7640    0.6038 C   0  0  0  0  0  0  0  0  0  0  0  0
   -0.0947   -1.4538    0.5330 C   0  0  0  0  0  0  0  0  0  0  0  0
    0.0532   -0.5181    1.6078 N   0  0  0  0  0  0  0  0  0  0  0  0
    1.3365   -0.0456    2.0342 C   0  0  0  0  0  0  0  0  0  0  0  0
    2.5083   -0.4387    1.4952 N   0  0  0  0  0  0  0  0  0  0  0  0
    3.4675    0.2104    2.1346 N   0  0  0  0  0  0  0  0  0  0  0  0
    2.9199    1.0194    3.0615 C   0  0  0  0  0  0  0  0  0  0  0  0
    1.5474    0.8783    3.0377 C   0  0  0  0  0  0  0  0  0  0  0  0
    3.7033    1.8616    4.0215 C   0  0  0  0  0  0  0  0  0  0  0  0
    3.3728    3.3460    3.9814 C   0  0  0  0  0  0  0  0  0  0  0  0
    4.6654    2.8398    3.3649 C   0  0  0  0  0  0  0  0  0  0  0  0
   -0.7664   -1.0633   -0.5816 N   0  0  0  0  0  0  0  0  0  0  0  0
   -3.1836    0.1950   -1.8241 C   0  0  0  0  0  0  0  0  0  0  0  0
   -3.9446    1.3631   -1.9272 C   0  0  0  0  0  0  0  0  0  0  0  0
   -5.0585    3.5568   -4.2639 H   0  0  0  0  0  0  0  0  0  0  0  0
   -5.6474    3.3208   -2.5854 H   0  0  0  0  0  0  0  0  0  0  0  0
   -3.1334    2.2440   -5.1186 H   0  0  0  0  0  0  0  0  0  0  0  0
   -1.8003    0.1857   -4.9375 H   0  0  0  0  0  0  0  0  0  0  0  0
   -1.4614   -1.9833   -3.7086 H   0  0  0  0  0  0  0  0  0  0  0  0
    0.6512   -5.5426   -1.3791 H   0  0  0  0  0  0  0  0  0  0  0  0
    1.8102   -6.4001    0.6296 H   0  0  0  0  0  0  0  0  0  0  0  0
    2.0538   -4.9683    2.6349 H   0  0  0  0  0  0  0  0  0  0  0  0
    1.1641   -2.6816    2.6489 H   0  0  0  0  0  0  0  0  0  0  0  0
   -0.7935    0.0076    1.9210 H   0  0  0  0  0  0  0  0  0  0  0  0
    4.4863    0.0934    1.9387 H   0  0  0  0  0  0  0  0  0  0  0  0
    0.8123    1.3689    3.6621 H   0  0  0  0  0  0  0  0  0  0  0  0
    4.0161    1.4540    5.0059 H   0  0  0  0  0  0  0  0  0  0  0  0
    3.5128    3.8751    4.9476 H   0  0  0  0  0  0  0  0  0  0  0  0
    2.6132    3.6611    3.2335 H   0  0  0  0  0  0  0  0  0  0  0  0
    5.5700    3.0705    3.9661 H   0  0  0  0  0  0  0  0  0  0  0  0
    4.6676    2.8582    2.2534 H   0  0  0  0  0  0  0  0  0  0  0  0
   -3.2359   -0.3831   -0.9112 H   0  0  0  0  0  0  0  0  0  0  0  0
   -4.5430    1.6820   -1.0826 H   0  0  0  0  0  0  0  0  0  0  0  0
  1  2  3  0
  2  3  1  0
  3  4  1  0
  4  5  2  0
  5  6  1  0
  6  7  2  0
  7  8  1  0
  8  9  1  0
  9 10  2  0
 10 11  1  0
 11 12  2  0
 12 13  1  0
 13 14  2  0
 14 15  1  0
 15 16  2  0
 16 17  1  0
 17 18  1  0
 18 19  1  0
 19 20  2  0
 20 21  1  0
 21 22  1  0
 22 23  2  0
 22 24  1  0
 24 25  1  0
 25 26  1  0
 17 27  2  0
  7 28  1  0
 28 29  2  0
 29  4  1  0
 27  9  1  0
 16 11  1  0
 23 19  1  0
 26 24  1  0
  3 30  1  0
  3 31  1  0
  5 32  1  0
  6 33  1  0
  8 34  1  0
 12 35  1  0
 13 36  1  0
 14 37  1  0
 15 38  1  0
 18 39  1  0
 21 40  1  0
 23 41  1  0
 24 42  1  0
 25 43  1  0
 25 44  1  0
 26 45  1  0
 26 46  1  0
 28 47  1  0
 29 48  1  0
M  END
$$$$
