
     RDKit          3D

 41 44  0  0  0  0  0  0  0  0999 V2000
   -2.9003   -0.9092   -4.5862 N   0  0  0  0  0  0  0  0  0  0  0  0
   -2.5689   -1.1860   -3.5126 C   0  0  0  0  0  0  0  0  0  0  0  0
   -2.1569   -1.5290   -2.1791 C   0  0  0  0  0  0  0  0  0  0  0  0
   -1.6136   -0.7096   -1.2241 C   0  0  0  0  0  0  0  0  0  0  0  0
   -1.3337    0.6119   -1.2962 N   0  0  0  0  0  0  0  0  0  0  0  0
   -0.7738    1.2125   -0.2034 C   0  0  0  0  0  0  0  0  0  0  0  0
   -0.4805    2.6167   -0.2104 N   0  0  0  0  0  0  0  0  0  0  0  0
   -0.4761    3.4352   -1.3923 C   0  0  0  0  0  0  0  0  0  0  0  0
   -0.0043    2.9433   -2.6238 C   0  0  0  0  0  0  0  0  0  0  0  0
    0.0106    3.7680   -3.7531 C   0  0  0  0  0  0  0  0  0  0  0  0
   -0.4295    5.0909   -3.6609 C   0  0  0  0  0  0  0  0  0  0  0  0
   -0.8765    5.5942   -2.4367 C   0  0  0  0  0  0  0  0  0  0  0  0
   -0.8925    4.7729   -1.3051 C   0  0  0  0  0  0  0  0  0  0  0  0
   -0.5312    0.4824    0.9290 N   0  0  0  0  0  0  0  0  0  0  0  0
   -0.8212   -0.8496    0.9773 C   0  0  0  0  0  0  0  0  0  0  0  0
   -0.5581   -1.6218    2.1580 N   0  0  0  0  0  0  0  0  0  0  0  0
    0.1470   -1.0768    3.3181 C   0  0  0  0  0  0  0  0  0  0  0  0
    1.6362   -0.8730    3.0181 C   0  0  0  0  0  0  0  0  0  0  0  0
    2.2957   -2.1638    2.6355 C   0  0  0  0  0  0  0  0  0  0  0  0
    2.4645   -2.6493    1.3582 C   0  0  0  0  0  0  0  0  0  0  0  0
    3.0278   -3.8722    1.4231 N   0  0  0  0  0  0  0  0  0  0  0  0
    3.1798   -4.1012    2.7457 C   0  0  0  0  0  0  0  0  0  0  0  0
    2.7369   -3.0832    3.5071 N   0  0  0  0  0  0  0  0  0  0  0  0
   -1.3662   -1.4201   -0.1238 N   0  0  0  0  0  0  0  0  0  0  0  0
   -1.7192   -2.6835   -0.3018 N   0  0  0  0  0  0  0  0  0  0  0  0
   -2.2105   -2.7750   -1.5634 C   0  0  0  0  0  0  0  0  0  0  0  0
   -0.3407    3.0848    0.7138 H   0  0  0  0  0  0  0  0  0  0  0  0
    0.3755    1.9339   -2.7089 H   0  0  0  0  0  0  0  0  0  0  0  0
    0.3724    3.3838   -4.6982 H   0  0  0  0  0  0  0  0  0  0  0  0
   -0.4156    5.7282   -4.5356 H   0  0  0  0  0  0  0  0  0  0  0  0
   -1.2088    6.6217   -2.3637 H   0  0  0  0  0  0  0  0  0  0  0  0
   -1.2394    5.1747   -0.3613 H   0  0  0  0  0  0  0  0  0  0  0  0
   -0.8927   -2.6105    2.2051 H   0  0  0  0  0  0  0  0  0  0  0  0
    0.0407   -1.7768    4.1758 H   0  0  0  0  0  0  0  0  0  0  0  0
   -0.3128   -0.1101    3.6165 H   0  0  0  0  0  0  0  0  0  0  0  0
    2.1352   -0.4663    3.9236 H   0  0  0  0  0  0  0  0  0  0  0  0
    1.7667   -0.1297    2.2033 H   0  0  0  0  0  0  0  0  0  0  0  0
    2.1838   -2.1531    0.4384 H   0  0  0  0  0  0  0  0  0  0  0  0
    3.6037   -5.0111    3.1495 H   0  0  0  0  0  0  0  0  0  0  0  0
    2.7281   -3.0298    4.5499 H   0  0  0  0  0  0  0  0  0  0  0  0
   -2.5816   -3.6901   -2.0055 H   0  0  0  0  0  0  0  0  0  0  0  0
  1  2  3  0
  2  3  1  0
  3  4  2  0
  4  5  1  0
  5  6  2  0
  6  7  1  0
  7  8  1  0
  8  9  2  0
  9 10  1  0
 10 11  2  0
 11 12  1  0
 12 13  2  0
  6 14  1  0
 14 15  2  0
 15 16  1  0
 16 17  1  0
 17 18  1  0
 18 19  1  0
 19 20  2  0
 20 21  1  0
 21 22  2  0
 22 23  1  0
 15 24  1  0
 24 25  1  0
 25 26  2  0
 26  3  1  0
 24  4  1  0
 13  8  1  0
 23 19  1  0
  7 27  1  0
  9 28  1  0
 10 29  1  0
 11 30  1  0
 12 31  1  0
 13 32  1  0
 16 33  1  0
 17 34  1  0
 17 35  1  0
 18 36  1  0
 18 37  1  0
 20 38  1  0
 22 39  1  0
 23 40  1  0
 26 41  1  0
M  END
$$$$
