
     RDKit          3D

 37 39  0  0  0  0  0  0  0  0999 V2000
   -2.7493    0.5686   -2.3482 C   0  0  0  0  0  0  0  0  0  0  0  0
   -3.2135    0.2452   -0.9438 C   0  0  0  0  0  0  0  0  0  0  0  0
   -2.2989    0.2286    0.1365 C   0  0  0  0  0  0  0  0  0  0  0  0
   -0.8764    0.5955   -0.0593 C   0  0  0  0  0  0  0  0  0  0  0  0
   -0.4718    1.7061   -0.7068 N   0  0  0  0  0  0  0  0  0  0  0  0
    0.8245    1.6652   -0.6618 O   0  0  0  0  0  0  0  0  0  0  0  0
    1.2124    0.5891   -0.0209 C   0  0  0  0  0  0  0  0  0  0  0  0
    0.1588   -0.1429    0.3928 N   0  0  0  0  0  0  0  0  0  0  0  0
    2.6237    0.2260    0.2185 C   0  0  0  0  0  0  0  0  0  0  0  0
    3.6539    1.0487   -0.2592 C   0  0  0  0  0  0  0  0  0  0  0  0
    5.0065    0.7197   -0.0446 C   0  0  0  0  0  0  0  0  0  0  0  0
    5.3187   -0.4576    0.6740 C   0  0  0  0  0  0  0  0  0  0  0  0
    6.6499   -0.7985    0.9201 O   0  0  0  0  0  0  0  0  0  0  0  0
    4.2856   -1.2837    1.1518 C   0  0  0  0  0  0  0  0  0  0  0  0
    4.5931   -2.4464    1.8575 O   0  0  0  0  0  0  0  0  0  0  0  0
    2.9485   -0.9407    0.9225 C   0  0  0  0  0  0  0  0  0  0  0  0
    6.0428    1.5858   -0.5559 N   0  0  0  0  0  4  0  0  0  0  0  0
    7.3595    1.1875   -0.5776 O   0  0  0  0  0  1  0  0  0  0  0  0
    5.7548    2.7065   -1.0254 O   0  0  0  0  0  0  0  0  0  0  0  0
   -2.7648   -0.1205    1.4208 C   0  0  0  0  0  0  0  0  0  0  0  0
   -1.6742   -0.1166    2.8136 Cl  0  0  0  0  0  0  0  0  0  0  0  0
   -4.0802   -0.4184    1.6224 N   0  0  0  0  0  4  0  0  0  0  0  0
   -4.4924   -0.7409    2.8976 O   0  0  0  0  0  1  0  0  0  0  0  0
   -4.9918   -0.3780    0.6031 C   0  0  0  0  0  0  0  0  0  0  0  0
   -6.4492   -0.6760    0.8680 C   0  0  0  0  0  0  0  0  0  0  0  0
   -4.5769   -0.0181   -0.6943 C   0  0  0  0  0  0  0  0  0  0  0  0
   -5.7760    0.1247   -1.9912 Cl  0  0  0  0  0  0  0  0  0  0  0  0
   -1.7137    0.2109   -2.5237 H   0  0  0  0  0  0  0  0  0  0  0  0
   -3.3688    0.0592   -3.1137 H   0  0  0  0  0  0  0  0  0  0  0  0
   -2.7949    1.6653   -2.5125 H   0  0  0  0  0  0  0  0  0  0  0  0
    3.4011    1.9471   -0.8084 H   0  0  0  0  0  0  0  0  0  0  0  0
    6.9118   -1.6314    1.4336 H   0  0  0  0  0  0  0  0  0  0  0  0
    3.8693   -3.0598    2.2139 H   0  0  0  0  0  0  0  0  0  0  0  0
    2.1649   -1.5873    1.2981 H   0  0  0  0  0  0  0  0  0  0  0  0
   -7.0411    0.2590    0.7795 H   0  0  0  0  0  0  0  0  0  0  0  0
   -6.8254   -1.4187    0.1334 H   0  0  0  0  0  0  0  0  0  0  0  0
   -6.6207   -1.1033    1.8762 H   0  0  0  0  0  0  0  0  0  0  0  0
  1  2  1  0
  2  3  2  0
  3  4  1  0
  4  5  2  0
  5  6  1  0
  6  7  1  0
  7  8  2  0
  7  9  1  0
  9 10  2  0
 10 11  1  0
 11 12  2  0
 12 13  1  0
 12 14  1  0
 14 15  1  0
 14 16  2  0
 11 17  1  0
 17 18  1  0
 17 19  2  0
  3 20  1  0
 20 21  1  0
 20 22  2  0
 22 23  1  0
 22 24  1  0
 24 25  1  0
 24 26  2  0
 26 27  1  0
 26  2  1  0
  8  4  1  0
 16  9  1  0
  1 28  1  0
  1 29  1  0
  1 30  1  0
 10 31  1  0
 13 32  1  0
 15 33  1  0
 16 34  1  0
 25 35  1  0
 25 36  1  0
 25 37  1  0
M  CHG  4  17   1  18  -1  22   1  23  -1
M  END
$$$$
