
     RDKit          3D

 41 44  0  0  0  0  0  0  0  0999 V2000
   -1.9802    0.3418   -2.3584 O   0  0  0  0  0  0  0  0  0  0  0  0
   -2.7487    0.3941   -1.3626 C   0  0  0  0  0  0  0  0  0  0  0  0
   -3.7196    1.4210   -1.1808 N   0  0  0  0  0  0  0  0  0  0  0  0
   -4.4151    1.0557    0.0056 C   0  0  0  0  0  0  0  0  0  0  0  0
   -5.4729    1.7503    0.5906 C   0  0  0  0  0  0  0  0  0  0  0  0
   -6.0389    1.2328    1.7678 C   0  0  0  0  0  0  0  0  0  0  0  0
   -5.5424    0.0411    2.3346 C   0  0  0  0  0  0  0  0  0  0  0  0
   -4.4759   -0.6451    1.7292 C   0  0  0  0  0  0  0  0  0  0  0  0
   -3.9285   -0.1153    0.5581 C   0  0  0  0  0  0  0  0  0  0  0  0
   -2.8269   -0.5969   -0.2783 C   0  0  0  0  0  0  0  0  0  0  0  0
   -2.1066   -1.7120   -0.0960 C   0  0  0  0  0  0  0  0  0  0  0  0
   -1.0294   -2.0822   -0.9656 N   0  0  0  0  0  0  0  0  0  0  0  0
    0.1621   -1.2948   -1.1495 C   0  0  0  0  0  0  0  0  0  0  0  0
    1.0584   -1.6350   -2.1740 C   0  0  0  0  0  0  0  0  0  0  0  0
    2.2250   -0.8913   -2.3730 C   0  0  0  0  0  0  0  0  0  0  0  0
    2.5163    0.1980   -1.5424 C   0  0  0  0  0  0  0  0  0  0  0  0
    1.6300    0.5400   -0.5140 C   0  0  0  0  0  0  0  0  0  0  0  0
    0.4637   -0.2032   -0.3126 C   0  0  0  0  0  0  0  0  0  0  0  0
    3.9887    1.1330   -1.7801 S   0  0  0  0  0  6  0  0  0  0  0  0
    5.0157    0.3227   -2.5209 O   0  0  0  0  0  0  0  0  0  0  0  0
    3.6630    2.3618   -2.5808 O   0  0  0  0  0  0  0  0  0  0  0  0
    4.6435    1.6044   -0.2462 N   0  0  0  0  0  0  0  0  0  0  0  0
    5.0396    0.6525    0.7459 C   0  0  0  0  0  0  0  0  0  0  0  0
    5.5173    1.0153    1.9550 N   0  0  0  0  0  0  0  0  0  0  0  0
    5.8191   -0.0670    2.7211 C   0  0  0  0  0  0  0  0  0  0  0  0
    5.5819   -1.2998    2.1232 C   0  0  0  0  0  0  0  0  0  0  0  0
    4.9730   -1.0224    0.5800 S   0  0  0  0  0  0  0  0  0  0  0  0
   -3.9055    2.2385   -1.8030 H   0  0  0  0  0  0  0  0  0  0  0  0
   -5.8485    2.6647    0.1501 H   0  0  0  0  0  0  0  0  0  0  0  0
   -6.8608    1.7527    2.2426 H   0  0  0  0  0  0  0  0  0  0  0  0
   -5.9852   -0.3477    3.2423 H   0  0  0  0  0  0  0  0  0  0  0  0
   -4.0937   -1.5582    2.1654 H   0  0  0  0  0  0  0  0  0  0  0  0
   -2.3791   -2.3943    0.6981 H   0  0  0  0  0  0  0  0  0  0  0  0
   -1.0423   -3.0551   -1.3462 H   0  0  0  0  0  0  0  0  0  0  0  0
    0.8477   -2.4743   -2.8249 H   0  0  0  0  0  0  0  0  0  0  0  0
    2.8990   -1.1669   -3.1738 H   0  0  0  0  0  0  0  0  0  0  0  0
    1.8448    1.3783    0.1364 H   0  0  0  0  0  0  0  0  0  0  0  0
   -0.1939    0.0731    0.5007 H   0  0  0  0  0  0  0  0  0  0  0  0
    4.7319    2.6231   -0.0351 H   0  0  0  0  0  0  0  0  0  0  0  0
    6.2146    0.0331    3.7228 H   0  0  0  0  0  0  0  0  0  0  0  0
    5.7590   -2.2668    2.5741 H   0  0  0  0  0  0  0  0  0  0  0  0
  1  2  2  0
  2  3  1  0
  3  4  1  0
  4  5  2  0
  5  6  1  0
  6  7  2  0
  7  8  1  0
  8  9  2  0
  9 10  1  0
 10 11  2  0
 11 12  1  0
 12 13  1  0
 13 14  2  0
 14 15  1  0
 15 16  2  0
 16 17  1  0
 17 18  2  0
 16 19  1  0
 19 20  2  0
 19 21  2  0
 19 22  1  0
 22 23  1  0
 23 24  2  0
 24 25  1  0
 25 26  2  0
 26 27  1  0
 10  2  1  0
 18 13  1  0
 27 23  1  0
  9  4  1  0
  3 28  1  0
  5 29  1  0
  6 30  1  0
  7 31  1  0
  8 32  1  0
 11 33  1  0
 12 34  1  0
 14 35  1  0
 15 36  1  0
 17 37  1  0
 18 38  1  0
 22 39  1  0
 25 40  1  0
 26 41  1  0
M  END
$$$$
