
     RDKit          3D

 42 42  0  0  0  0  0  0  0  0999 V2000
    5.1840    0.9265   -0.0661 C   0  0  0  0  0  0  0  0  0  0  0  0
    4.2991   -0.2596   -0.4750 C   0  0  0  0  0  0  0  0  0  0  0  0
    2.9375   -0.2346    0.1154 N   0  0  0  0  0  0  0  0  0  0  0  0
    2.9221   -0.2906    1.5962 C   0  0  0  0  0  0  0  0  0  0  0  0
    3.4123   -1.6409    2.1171 C   0  0  0  0  0  0  0  0  0  0  0  0
    2.1238    0.8908   -0.3979 C   0  0  0  0  0  0  0  0  0  0  0  0
    0.6767    0.4443   -0.6004 C   0  0  0  0  0  0  0  0  0  0  0  0
   -0.1017    1.5472   -1.1609 N   0  0  0  0  0  0  0  0  0  0  0  0
   -1.3946    1.5559   -1.3221 C   0  0  0  0  0  0  0  0  0  0  0  0
   -2.0087    2.7004   -1.8223 O   0  0  0  0  0  0  0  0  0  0  0  0
   -2.2456    0.4012   -0.9637 C   0  0  0  0  0  0  0  0  0  0  0  0
   -3.2297    0.5321    0.0316 C   0  0  0  0  0  0  0  0  0  0  0  0
   -3.3658    1.7647    0.6924 O   0  0  0  0  0  0  0  0  0  0  0  0
   -4.3147    2.0312    1.7199 C   0  0  0  0  0  0  0  0  0  0  0  0
   -4.0426   -0.5742    0.3453 C   0  0  0  0  0  0  0  0  0  0  0  0
   -3.8867   -1.7956   -0.3266 C   0  0  0  0  0  0  0  0  0  0  0  0
   -4.7304   -2.9001    0.0235 N   0  0  0  0  0  0  0  0  0  0  0  0
   -2.9093   -1.9108   -1.3339 C   0  0  0  0  0  0  0  0  0  0  0  0
   -2.6391   -3.5362   -2.3148 Br  0  0  0  0  0  0  0  0  0  0  0  0
   -2.1033   -0.8134   -1.6494 C   0  0  0  0  0  0  0  0  0  0  0  0
    4.6592    1.8923   -0.2157 H   0  0  0  0  0  0  0  0  0  0  0  0
    6.1007    0.9298   -0.6926 H   0  0  0  0  0  0  0  0  0  0  0  0
    5.5031    0.8347    0.9922 H   0  0  0  0  0  0  0  0  0  0  0  0
    4.8133   -1.2065   -0.2102 H   0  0  0  0  0  0  0  0  0  0  0  0
    4.2173   -0.2762   -1.5841 H   0  0  0  0  0  0  0  0  0  0  0  0
    1.8817   -0.1654    1.9666 H   0  0  0  0  0  0  0  0  0  0  0  0
    3.5172    0.5325    2.0449 H   0  0  0  0  0  0  0  0  0  0  0  0
    4.5120   -1.7319    2.0019 H   0  0  0  0  0  0  0  0  0  0  0  0
    3.1752   -1.7299    3.1984 H   0  0  0  0  0  0  0  0  0  0  0  0
    2.9093   -2.4682    1.5729 H   0  0  0  0  0  0  0  0  0  0  0  0
    2.5005    1.2442   -1.3847 H   0  0  0  0  0  0  0  0  0  0  0  0
    2.1576    1.7625    0.2950 H   0  0  0  0  0  0  0  0  0  0  0  0
    0.2355    0.1350    0.3711 H   0  0  0  0  0  0  0  0  0  0  0  0
    0.6624   -0.4189   -1.2988 H   0  0  0  0  0  0  0  0  0  0  0  0
   -1.4665    3.5196   -2.0706 H   0  0  0  0  0  0  0  0  0  0  0  0
   -5.3462    1.8949    1.3318 H   0  0  0  0  0  0  0  0  0  0  0  0
   -4.1388    1.3588    2.5860 H   0  0  0  0  0  0  0  0  0  0  0  0
   -4.1982    3.0815    2.0568 H   0  0  0  0  0  0  0  0  0  0  0  0
   -4.8004   -0.4957    1.1130 H   0  0  0  0  0  0  0  0  0  0  0  0
   -4.6522   -3.8281   -0.4458 H   0  0  0  0  0  0  0  0  0  0  0  0
   -5.4533   -2.7991    0.7707 H   0  0  0  0  0  0  0  0  0  0  0  0
   -1.3723   -0.9042   -2.4432 H   0  0  0  0  0  0  0  0  0  0  0  0
  1  2  1  0
  2  3  1  0
  3  4  1  0
  4  5  1  0
  3  6  1  0
  6  7  1  0
  7  8  1  0
  8  9  2  3
  9 10  1  0
  9 11  1  0
 11 12  2  0
 12 13  1  0
 13 14  1  0
 12 15  1  0
 15 16  2  0
 16 17  1  0
 16 18  1  0
 18 19  1  0
 18 20  2  0
 20 11  1  0
  1 21  1  0
  1 22  1  0
  1 23  1  0
  2 24  1  0
  2 25  1  0
  4 26  1  0
  4 27  1  0
  5 28  1  0
  5 29  1  0
  5 30  1  0
  6 31  1  0
  6 32  1  0
  7 33  1  0
  7 34  1  0
 10 35  1  0
 14 36  1  0
 14 37  1  0
 14 38  1  0
 15 39  1  0
 17 40  1  0
 17 41  1  0
 20 42  1  0
M  END
$$$$
