
     RDKit          3D

 18 17  0  0  0  0  0  0  0  0999 V2000
   -1.9364   -1.6698   -0.9911 O   0  0  0  0  0  0  0  0  0  0  0  0
   -1.2479   -0.4524   -0.8714 C   0  0  2  0  0  0  0  0  0  0  0  0
    0.0032   -0.6625   -0.0157 C   0  0  0  0  0  0  0  0  0  0  0  0
    0.7442    0.5350    0.0366 O   0  0  0  0  0  0  0  0  0  0  0  0
    2.0669    0.3106    1.0904 P   0  0  0  0  0  5  0  0  0  0  0  0
    3.0513    1.6844    1.0274 O   0  0  0  0  0  0  0  0  0  0  0  0
    2.9809   -1.0380    0.6232 O   0  0  0  0  0  0  0  0  0  0  0  0
    1.5718    0.1300    2.5086 O   0  0  0  0  0  0  0  0  0  0  0  0
   -2.1427    0.5847   -0.2531 C   0  0  0  0  0  0  0  0  0  0  0  0
   -2.1674    1.8751   -0.7728 O   0  0  0  0  0  0  0  0  0  0  0  0
   -2.8455    0.2990    0.7538 O   0  0  0  0  0  0  0  0  0  0  0  0
   -2.5763   -1.5640   -1.7433 H   0  0  0  0  0  0  0  0  0  0  0  0
   -0.9260   -0.1055   -1.8811 H   0  0  0  0  0  0  0  0  0  0  0  0
   -0.3111   -0.9917    1.0023 H   0  0  0  0  0  0  0  0  0  0  0  0
    0.6097   -1.4667   -0.4899 H   0  0  0  0  0  0  0  0  0  0  0  0
    3.3270    1.7521    0.0785 H   0  0  0  0  0  0  0  0  0  0  0  0
    2.5526   -1.8105    1.0716 H   0  0  0  0  0  0  0  0  0  0  0  0
   -2.7542    2.5902   -0.3599 H   0  0  0  0  0  0  0  0  0  0  0  0
  1  2  1  0
  2  3  1  0
  3  4  1  0
  4  5  1  0
  5  6  1  0
  5  7  1  0
  5  8  2  0
  2  9  1  0
  9 10  1  0
  9 11  2  0
  1 12  1  0
  2 13  1  6
  3 14  1  0
  3 15  1  0
  6 16  1  0
  7 17  1  0
 10 18  1  0
M  END
$$$$
