
     RDKit          3D

 35 36  0  0  0  0  0  0  0  0999 V2000
    5.3392    0.4292    0.3031 N   0  0  0  0  0  0  0  0  0  0  0  0
    3.9496    0.1139    0.3920 C   0  0  0  0  0  0  0  0  0  0  0  0
    3.2791   -0.3025   -0.7112 N   0  0  0  0  0  0  0  0  0  0  0  0
    1.9569   -0.6119   -0.6648 C   0  0  0  0  0  0  0  0  0  0  0  0
    1.3811   -0.9759   -1.7250 O   0  0  0  0  0  0  0  0  0  0  0  0
    1.2648   -0.5196    0.5200 N   0  0  0  0  0  0  0  0  0  0  0  0
    1.9146   -0.0816    1.6417 C   0  0  0  0  0  0  0  0  0  0  0  0
    3.2700    0.2373    1.6015 C   0  0  0  0  0  0  0  0  0  0  0  0
   -0.1804   -0.8158    0.6093 C   0  0  2  0  0  0  0  0  0  0  0  0
   -0.5054   -1.9764   -0.1212 O   0  0  0  0  0  0  0  0  0  0  0  0
   -1.8234   -1.8151   -0.6068 C   0  0  2  0  0  0  0  0  0  0  0  0
   -1.8627   -2.1825   -2.0970 C   0  0  0  0  0  0  0  0  0  0  0  0
   -1.4067   -3.4940   -2.2918 O   0  0  0  0  0  0  0  0  0  0  0  0
   -2.2790   -0.3629   -0.3699 C   0  0  1  0  0  0  0  0  0  0  0  0
   -3.2957   -0.2974    0.6042 O   0  0  0  0  0  0  0  0  0  0  0  0
   -1.0112    0.3407    0.0744 C   0  0  1  0  0  0  0  0  0  0  0  0
   -1.2444    1.2840    1.1033 O   0  0  0  0  0  0  0  0  0  0  0  0
   -1.4721    2.8317    0.4204 P   0  0  0  0  0  5  0  0  0  0  0  0
   -2.6611    2.7765   -0.7833 O   0  0  0  0  0  0  0  0  0  0  0  0
   -1.9670    3.9004    1.6350 O   0  0  0  0  0  0  0  0  0  0  0  0
   -0.1712    3.3243   -0.1741 O   0  0  0  0  0  0  0  0  0  0  0  0
    5.8419    0.3375   -0.6075 H   0  0  0  0  0  0  0  0  0  0  0  0
    5.8711    0.7540    1.1413 H   0  0  0  0  0  0  0  0  0  0  0  0
    1.3857    0.0267    2.5814 H   0  0  0  0  0  0  0  0  0  0  0  0
    3.7782    0.5772    2.4951 H   0  0  0  0  0  0  0  0  0  0  0  0
   -0.4642   -1.0120    1.6707 H   0  0  0  0  0  0  0  0  0  0  0  0
   -2.4900   -2.5201   -0.0616 H   0  0  0  0  0  0  0  0  0  0  0  0
   -1.2072   -1.4919   -2.6694 H   0  0  0  0  0  0  0  0  0  0  0  0
   -2.8992   -2.0749   -2.4915 H   0  0  0  0  0  0  0  0  0  0  0  0
   -2.1404   -4.0961   -2.0005 H   0  0  0  0  0  0  0  0  0  0  0  0
   -2.6628    0.1110   -1.3003 H   0  0  0  0  0  0  0  0  0  0  0  0
   -2.9546   -0.7171    1.4375 H   0  0  0  0  0  0  0  0  0  0  0  0
   -0.4908    0.7671   -0.8173 H   0  0  0  0  0  0  0  0  0  0  0  0
   -2.7673    3.7163   -1.0770 H   0  0  0  0  0  0  0  0  0  0  0  0
   -1.2753    3.8195    2.3394 H   0  0  0  0  0  0  0  0  0  0  0  0
  1  2  1  0
  2  3  2  0
  3  4  1  0
  4  5  2  0
  4  6  1  0
  6  7  1  0
  7  8  2  0
  6  9  1  0
  9 10  1  0
 10 11  1  0
 11 12  1  0
 12 13  1  0
 11 14  1  0
 14 15  1  0
 14 16  1  0
 16 17  1  0
 17 18  1  0
 18 19  1  0
 18 20  1  0
 18 21  2  0
  8  2  1  0
 16  9  1  0
  1 22  1  0
  1 23  1  0
  7 24  1  0
  8 25  1  0
  9 26  1  1
 11 27  1  1
 12 28  1  0
 12 29  1  0
 13 30  1  0
 14 31  1  6
 15 32  1  0
 16 33  1  6
 19 34  1  0
 20 35  1  0
M  END
$$$$
