
     RDKit          3D

 22 22  0  0  0  0  0  0  0  0999 V2000
    3.6207   -0.2179    0.6551 N   0  0  0  0  0  0  0  0  0  0  0  0
    2.8789    0.2260   -0.5200 C   0  0  0  0  0  0  0  0  0  0  0  0
    1.4014    0.0980   -0.2719 C   0  0  0  0  0  0  0  0  0  0  0  0
    0.6730    1.1807    0.2457 C   0  0  0  0  0  0  0  0  0  0  0  0
   -0.6943    1.0502    0.5066 C   0  0  0  0  0  0  0  0  0  0  0  0
   -1.3450   -0.1677    0.2683 C   0  0  0  0  0  0  0  0  0  0  0  0
   -0.6187   -1.2521   -0.2418 C   0  0  0  0  0  0  0  0  0  0  0  0
    0.7487   -1.1230   -0.5031 C   0  0  0  0  0  0  0  0  0  0  0  0
   -3.0705   -0.3265    0.5822 S   0  0  0  0  0  6  0  0  0  0  0  0
   -3.9606    0.1053   -0.8351 N   0  0  0  0  0  0  0  0  0  0  0  0
   -3.3904   -1.7451    0.9620 O   0  0  0  0  0  0  0  0  0  0  0  0
   -3.4665    0.5761    1.7170 O   0  0  0  0  0  0  0  0  0  0  0  0
    3.4689    0.4797    1.4199 H   0  0  0  0  0  0  0  0  0  0  0  0
    4.6391   -0.1834    0.4201 H   0  0  0  0  0  0  0  0  0  0  0  0
    3.1669   -0.3971   -1.3952 H   0  0  0  0  0  0  0  0  0  0  0  0
    3.1440    1.2800   -0.7617 H   0  0  0  0  0  0  0  0  0  0  0  0
    1.1631    2.1255    0.4459 H   0  0  0  0  0  0  0  0  0  0  0  0
   -1.2439    1.8984    0.8946 H   0  0  0  0  0  0  0  0  0  0  0  0
   -1.1094   -2.1972   -0.4370 H   0  0  0  0  0  0  0  0  0  0  0  0
    1.2981   -1.9737   -0.8870 H   0  0  0  0  0  0  0  0  0  0  0  0
   -3.6780    1.0788   -1.0878 H   0  0  0  0  0  0  0  0  0  0  0  0
   -3.6257   -0.5149   -1.6062 H   0  0  0  0  0  0  0  0  0  0  0  0
  1  2  1  0
  2  3  1  0
  3  4  2  0
  4  5  1  0
  5  6  2  0
  6  7  1  0
  7  8  2  0
  6  9  1  0
  9 10  1  0
  9 11  2  0
  9 12  2  0
  8  3  1  0
  1 13  1  0
  1 14  1  0
  2 15  1  0
  2 16  1  0
  4 17  1  0
  5 18  1  0
  7 19  1  0
  8 20  1  0
 10 21  1  0
 10 22  1  0
M  END
$$$$
