
     RDKit          3D

 41 43  0  0  0  0  0  0  0  0999 V2000
   -1.9773    0.6938    0.1798 C   0  0  2  0  0  0  0  0  0  0  0  0
   -2.4589    2.0123   -0.0894 O   0  0  0  0  0  0  0  0  0  0  0  0
   -2.0013    3.1504    0.5844 C   0  0  0  0  0  0  0  0  0  0  0  0
   -2.5630    4.4859    0.2341 C   0  0  0  0  0  0  0  0  0  0  0  0
   -1.1516    3.0540    1.5113 O   0  0  0  0  0  0  0  0  0  0  0  0
   -0.5536    0.5412   -0.2805 C   0  0  0  0  0  0  0  0  0  0  0  0
   -0.1597    1.1557   -1.3097 O   0  0  0  0  0  0  0  0  0  0  0  0
    0.3397   -0.3277    0.4306 N   0  0  0  0  0  0  0  0  0  0  0  0
    1.6552   -0.6469   -0.0473 C   0  0  0  0  0  0  0  0  0  0  0  0
    1.7963   -1.1520   -1.3488 C   0  0  0  0  0  0  0  0  0  0  0  0
    3.0415   -1.5503   -1.8256 C   0  0  0  0  0  0  0  0  0  0  0  0
    4.1637   -1.4652   -1.0067 C   0  0  0  0  0  0  0  0  0  0  0  0
    4.0568   -0.9648    0.3020 C   0  0  0  0  0  0  0  0  0  0  0  0
    2.7967   -0.5335    0.7922 C   0  0  0  0  0  0  0  0  0  0  0  0
    2.7215    0.0628    2.1580 C   0  0  0  0  0  0  0  0  0  0  0  0
    1.6580    0.5830    2.5901 O   0  0  0  0  0  0  0  0  0  0  0  0
    3.9188    0.0860    3.0102 C   0  0  0  0  0  0  0  0  0  0  0  0
    3.8547    0.5394    4.1842 O   0  0  0  0  0  0  0  0  0  0  0  0
    5.1623   -0.3957    2.5018 N   0  0  0  0  0  0  0  0  0  0  0  0
    5.2618   -0.8939    1.1656 C   0  0  0  0  0  0  0  0  0  0  0  0
    6.3827   -1.2770    0.7336 O   0  0  0  0  0  0  0  0  0  0  0  0
   -2.8402   -0.3216   -0.5265 C   0  0  0  0  0  0  0  0  0  0  0  0
   -3.1954   -1.5187    0.1201 C   0  0  0  0  0  0  0  0  0  0  0  0
   -3.9640   -2.4793   -0.5447 C   0  0  0  0  0  0  0  0  0  0  0  0
   -4.3749   -2.2593   -1.8618 C   0  0  0  0  0  0  0  0  0  0  0  0
   -4.0140   -1.0803   -2.5188 C   0  0  0  0  0  0  0  0  0  0  0  0
   -3.2456   -0.1167   -1.8585 C   0  0  0  0  0  0  0  0  0  0  0  0
   -2.0294    0.5223    1.2786 H   0  0  0  0  0  0  0  0  0  0  0  0
   -3.3836    4.7379    0.9374 H   0  0  0  0  0  0  0  0  0  0  0  0
   -1.7711    5.2616    0.3001 H   0  0  0  0  0  0  0  0  0  0  0  0
   -2.9627    4.4690   -0.8015 H   0  0  0  0  0  0  0  0  0  0  0  0
    0.0130   -0.7665    1.3207 H   0  0  0  0  0  0  0  0  0  0  0  0
    0.9294   -1.2606   -1.9886 H   0  0  0  0  0  0  0  0  0  0  0  0
    3.1345   -1.9424   -2.8302 H   0  0  0  0  0  0  0  0  0  0  0  0
    5.1180   -1.7943   -1.3987 H   0  0  0  0  0  0  0  0  0  0  0  0
    6.0131   -0.3686    3.1080 H   0  0  0  0  0  0  0  0  0  0  0  0
   -2.8757   -1.7101    1.1370 H   0  0  0  0  0  0  0  0  0  0  0  0
   -4.2375   -3.3966   -0.0396 H   0  0  0  0  0  0  0  0  0  0  0  0
   -4.9684   -3.0048   -2.3751 H   0  0  0  0  0  0  0  0  0  0  0  0
   -4.3260   -0.9147   -3.5418 H   0  0  0  0  0  0  0  0  0  0  0  0
   -2.9637    0.7861   -2.3860 H   0  0  0  0  0  0  0  0  0  0  0  0
  1  2  1  0
  2  3  1  0
  3  4  1  0
  3  5  2  0
  1  6  1  0
  6  7  2  0
  6  8  1  0
  8  9  1  0
  9 10  2  0
 10 11  1  0
 11 12  2  0
 12 13  1  0
 13 14  2  0
 14 15  1  0
 15 16  2  0
 15 17  1  0
 17 18  2  0
 17 19  1  0
 19 20  1  0
 20 21  2  0
  1 22  1  0
 22 23  2  0
 23 24  1  0
 24 25  2  0
 25 26  1  0
 26 27  2  0
 14  9  1  0
 27 22  1  0
 20 13  1  0
  1 28  1  1
  4 29  1  0
  4 30  1  0
  4 31  1  0
  8 32  1  0
 10 33  1  0
 11 34  1  0
 12 35  1  0
 19 36  1  0
 23 37  1  0
 24 38  1  0
 25 39  1  0
 26 40  1  0
 27 41  1  0
M  END
$$$$
