
     RDKit          3D

 52 54  0  0  0  0  0  0  0  0999 V2000
   10.4464    0.4782   -0.9809 N   0  0  0  0  0  0  0  0  0  0  0  0
    9.0923    0.6484   -0.5691 C   0  0  0  0  0  0  0  0  0  0  0  0
    8.4564   -0.3480    0.1037 N   0  0  0  0  0  0  0  0  0  0  0  0
    7.1677   -0.2024    0.5033 C   0  0  0  0  0  0  0  0  0  0  0  0
    6.4750    0.9872    0.2232 C   0  0  0  0  0  0  0  0  0  0  0  0
    5.1838    1.1191    0.6288 N   0  0  0  0  0  0  0  0  0  0  0  0
    4.5540    0.1231    1.3098 C   0  0  0  0  0  0  0  0  0  0  0  0
    3.1165    0.2852    1.7084 C   0  0  0  0  0  0  0  0  0  0  0  0
    2.2308   -0.2918    0.6951 N   0  0  0  0  0  0  0  0  0  0  0  0
    0.7948   -0.2825    0.8042 C   0  0  0  0  0  0  0  0  0  0  0  0
    0.0251   -0.8631   -0.2147 C   0  0  0  0  0  0  0  0  0  0  0  0
   -1.3705   -0.8699   -0.1391 C   0  0  0  0  0  0  0  0  0  0  0  0
   -2.0281   -0.2881    0.9586 C   0  0  0  0  0  0  0  0  0  0  0  0
   -1.2574    0.2818    1.9862 C   0  0  0  0  0  0  0  0  0  0  0  0
    0.1383    0.2894    1.9096 C   0  0  0  0  0  0  0  0  0  0  0  0
   -3.5076   -0.2940    1.0570 C   0  0  0  0  0  0  0  0  0  0  0  0
   -4.0514   -0.2169    2.1931 O   0  0  0  0  0  0  0  0  0  0  0  0
   -4.3307   -0.3698   -0.1196 N   0  0  0  0  0  0  0  0  0  0  0  0
   -5.7819   -0.5698   -0.0389 C   0  0  1  0  0  0  0  0  0  0  0  0
   -6.4396   -0.2901   -1.4054 C   0  0  0  0  0  0  0  0  0  0  0  0
   -7.9724   -0.3013   -1.3268 C   0  0  0  0  0  0  0  0  0  0  0  0
   -8.5661    0.0349   -2.6579 C   0  0  0  0  0  0  0  0  0  0  0  0
   -8.8071    1.3635   -2.9935 O   0  0  0  0  0  0  0  0  0  0  0  0
   -8.8104   -0.8795   -3.4898 O   0  0  0  0  0  0  0  0  0  0  0  0
   -6.0717   -1.9719    0.4207 C   0  0  0  0  0  0  0  0  0  0  0  0
   -6.9243   -2.1837    1.4996 O   0  0  0  0  0  0  0  0  0  0  0  0
   -5.5582   -2.9560   -0.1772 O   0  0  0  0  0  0  0  0  0  0  0  0
    5.2455   -1.0689    1.5761 C   0  0  0  0  0  0  0  0  0  0  0  0
    6.5363   -1.2025    1.1706 N   0  0  0  0  0  0  0  0  0  0  0  0
    7.1445    2.0030   -0.4724 C   0  0  0  0  0  0  0  0  0  0  0  0
    6.4970    3.2375   -0.7909 N   0  0  0  0  0  0  0  0  0  0  0  0
    8.4367    1.8076   -0.8505 N   0  0  0  0  0  0  0  0  0  0  0  0
   10.9559   -0.4082   -0.7690 H   0  0  0  0  0  0  0  0  0  0  0  0
   10.9412    1.2385   -1.4980 H   0  0  0  0  0  0  0  0  0  0  0  0
    2.9429   -0.2165    2.6851 H   0  0  0  0  0  0  0  0  0  0  0  0
    2.8898    1.3671    1.8250 H   0  0  0  0  0  0  0  0  0  0  0  0
    2.6565   -0.7332   -0.1529 H   0  0  0  0  0  0  0  0  0  0  0  0
    0.5087   -1.3191   -1.0696 H   0  0  0  0  0  0  0  0  0  0  0  0
   -1.9270   -1.3540   -0.9304 H   0  0  0  0  0  0  0  0  0  0  0  0
   -1.7353    0.7334    2.8470 H   0  0  0  0  0  0  0  0  0  0  0  0
    0.6951    0.7439    2.7174 H   0  0  0  0  0  0  0  0  0  0  0  0
   -3.8896   -0.2303   -1.0565 H   0  0  0  0  0  0  0  0  0  0  0  0
   -6.1987    0.1519    0.6987 H   0  0  0  0  0  0  0  0  0  0  0  0
   -6.1102    0.7128   -1.7579 H   0  0  0  0  0  0  0  0  0  0  0  0
   -6.0964   -1.0425   -2.1505 H   0  0  0  0  0  0  0  0  0  0  0  0
   -8.3172    0.4448   -0.5786 H   0  0  0  0  0  0  0  0  0  0  0  0
   -8.3336   -1.3033   -1.0091 H   0  0  0  0  0  0  0  0  0  0  0  0
   -9.1935    1.6090   -3.8971 H   0  0  0  0  0  0  0  0  0  0  0  0
   -7.1359   -3.1218    1.8178 H   0  0  0  0  0  0  0  0  0  0  0  0
    4.7616   -1.8838    2.0990 H   0  0  0  0  0  0  0  0  0  0  0  0
    7.0154    3.9806   -1.3098 H   0  0  0  0  0  0  0  0  0  0  0  0
    5.5065    3.4219   -0.5167 H   0  0  0  0  0  0  0  0  0  0  0  0
  1  2  1  0
  2  3  2  0
  3  4  1  0
  4  5  2  0
  5  6  1  0
  6  7  2  0
  7  8  1  0
  8  9  1  0
  9 10  1  0
 10 11  2  0
 11 12  1  0
 12 13  2  0
 13 14  1  0
 14 15  2  0
 13 16  1  0
 16 17  2  0
 16 18  1  0
 18 19  1  0
 19 20  1  0
 20 21  1  0
 21 22  1  0
 22 23  1  0
 22 24  2  0
 19 25  1  0
 25 26  1  0
 25 27  2  0
  7 28  1  0
 28 29  2  0
  5 30  1  0
 30 31  1  0
 30 32  2  0
 32  2  1  0
 29  4  1  0
 15 10  1  0
  1 33  1  0
  1 34  1  0
  8 35  1  0
  8 36  1  0
  9 37  1  0
 11 38  1  0
 12 39  1  0
 14 40  1  0
 15 41  1  0
 18 42  1  0
 19 43  1  1
 20 44  1  0
 20 45  1  0
 21 46  1  0
 21 47  1  0
 23 48  1  0
 26 49  1  0
 28 50  1  0
 31 51  1  0
 31 52  1  0
M  END
$$$$
