
     RDKit          3D

 50 53  0  0  0  0  0  0  0  0999 V2000
    5.7076   -1.2221    1.3730 N   0  0  0  0  0  0  0  0  0  0  0  0
    6.2347   -0.9046    0.0783 C   0  0  0  0  0  0  0  0  0  0  0  0
    7.4511   -1.4774   -0.3257 C   0  0  0  0  0  0  0  0  0  0  0  0
    7.9745   -1.2095   -1.5923 C   0  0  0  0  0  0  0  0  0  0  0  0
    7.2915   -0.3632   -2.4659 C   0  0  0  0  0  0  0  0  0  0  0  0
    6.0828    0.2175   -2.0760 C   0  0  0  0  0  0  0  0  0  0  0  0
    5.5376   -0.0522   -0.8080 C   0  0  0  0  0  0  0  0  0  0  0  0
    4.3201    0.5908   -0.3969 N   0  0  0  0  0  0  0  0  0  0  0  0
    3.1359    0.6249   -1.2141 C   0  0  0  0  0  0  0  0  0  0  0  0
    3.1412    0.0746   -2.3495 O   0  0  0  0  0  0  0  0  0  0  0  0
    1.8991    1.2941   -0.7446 C   0  0  0  0  0  0  0  0  0  0  0  0
    0.9913    1.8218   -1.6797 C   0  0  0  0  0  0  0  0  0  0  0  0
   -0.1828    2.4493   -1.2543 C   0  0  0  0  0  0  0  0  0  0  0  0
   -0.4742    2.5556    0.1130 C   0  0  0  0  0  0  0  0  0  0  0  0
   -1.7532    3.2098    0.5611 C   0  0  0  0  0  0  0  0  0  0  0  0
   -2.9008    2.3787    0.2031 N   0  0  0  0  0  0  0  0  0  0  0  0
   -3.2050    1.1475    0.8702 C   0  0  0  0  0  0  0  0  0  0  0  0
   -2.4493    0.7210    1.9172 N   0  0  0  0  0  0  0  0  0  0  0  0
   -2.7316   -0.4431    2.5541 C   0  0  0  0  0  0  0  0  0  0  0  0
   -3.8096   -1.2227    2.1378 C   0  0  0  0  0  0  0  0  0  0  0  0
   -4.5830   -0.7809    1.0519 C   0  0  0  0  0  0  0  0  0  0  0  0
   -4.2602    0.3989    0.4529 N   0  0  0  0  0  0  0  0  0  0  0  0
   -5.7501   -1.5540    0.5541 C   0  0  0  0  0  0  0  0  0  0  0  0
   -6.8046   -0.8948   -0.1015 C   0  0  0  0  0  0  0  0  0  0  0  0
   -7.9003   -1.6170   -0.5764 C   0  0  0  0  0  0  0  0  0  0  0  0
   -7.9352   -2.9999   -0.4022 C   0  0  0  0  0  0  0  0  0  0  0  0
   -6.9064   -3.6325    0.2197 N   0  0  0  0  0  0  0  0  0  0  0  0
   -5.8284   -2.9531    0.6950 C   0  0  0  0  0  0  0  0  0  0  0  0
    0.4198    2.0161    1.0495 C   0  0  0  0  0  0  0  0  0  0  0  0
    1.5949    1.3886    0.6257 C   0  0  0  0  0  0  0  0  0  0  0  0
    6.2469   -1.8285    2.0306 H   0  0  0  0  0  0  0  0  0  0  0  0
    4.7631   -0.9009    1.6783 H   0  0  0  0  0  0  0  0  0  0  0  0
    7.9913   -2.1377    0.3411 H   0  0  0  0  0  0  0  0  0  0  0  0
    8.9124   -1.6566   -1.8956 H   0  0  0  0  0  0  0  0  0  0  0  0
    7.7039   -0.1488   -3.4435 H   0  0  0  0  0  0  0  0  0  0  0  0
    5.5838    0.8973   -2.7546 H   0  0  0  0  0  0  0  0  0  0  0  0
    4.3148    1.0571    0.5364 H   0  0  0  0  0  0  0  0  0  0  0  0
    1.1945    1.7577   -2.7416 H   0  0  0  0  0  0  0  0  0  0  0  0
   -0.8678    2.8505   -1.9912 H   0  0  0  0  0  0  0  0  0  0  0  0
   -1.8450    4.1977    0.0598 H   0  0  0  0  0  0  0  0  0  0  0  0
   -1.7538    3.3994    1.6567 H   0  0  0  0  0  0  0  0  0  0  0  0
   -3.5253    2.6974   -0.5719 H   0  0  0  0  0  0  0  0  0  0  0  0
   -2.1219   -0.7605    3.3895 H   0  0  0  0  0  0  0  0  0  0  0  0
   -4.0414   -2.1338    2.6724 H   0  0  0  0  0  0  0  0  0  0  0  0
   -6.7880    0.1797   -0.2358 H   0  0  0  0  0  0  0  0  0  0  0  0
   -8.7157   -1.1086   -1.0748 H   0  0  0  0  0  0  0  0  0  0  0  0
   -8.7780   -3.5722   -0.7660 H   0  0  0  0  0  0  0  0  0  0  0  0
   -5.0283   -3.5135    1.1578 H   0  0  0  0  0  0  0  0  0  0  0  0
    0.2034    2.0707    2.1093 H   0  0  0  0  0  0  0  0  0  0  0  0
    2.2438    0.9541    1.3738 H   0  0  0  0  0  0  0  0  0  0  0  0
  1  2  1  0
  2  3  2  0
  3  4  1  0
  4  5  2  0
  5  6  1  0
  6  7  2  0
  7  8  1  0
  8  9  1  0
  9 10  2  0
  9 11  1  0
 11 12  2  0
 12 13  1  0
 13 14  2  0
 14 15  1  0
 15 16  1  0
 16 17  1  0
 17 18  2  0
 18 19  1  0
 19 20  2  0
 20 21  1  0
 21 22  2  0
 21 23  1  0
 23 24  2  0
 24 25  1  0
 25 26  2  0
 26 27  1  0
 27 28  2  0
 14 29  1  0
 29 30  2  0
  7  2  1  0
 30 11  1  0
 22 17  1  0
 28 23  1  0
  1 31  1  0
  1 32  1  0
  3 33  1  0
  4 34  1  0
  5 35  1  0
  6 36  1  0
  8 37  1  0
 12 38  1  0
 13 39  1  0
 15 40  1  0
 15 41  1  0
 16 42  1  0
 19 43  1  0
 20 44  1  0
 24 45  1  0
 25 46  1  0
 26 47  1  0
 28 48  1  0
 29 49  1  0
 30 50  1  0
M  END
$$$$
