
     RDKit          2D

215216  0  0  0  0  0  0  0  0999 V2000
   16.9588   -9.5799    0.0000 C   0  0  0  0  0  0  0  0  0  0  0  0
   17.2193   -8.1027    0.0000 C   0  0  0  0  0  0  0  0  0  0  0  0
   17.4798   -6.6255    0.0000 C   0  0  0  0  0  0  0  0  0  0  0  0
   17.7402   -5.1483    0.0000 C   0  0  0  0  0  0  0  0  0  0  0  0
   18.0007   -3.6711    0.0000 C   0  0  0  0  0  0  0  0  0  0  0  0
   18.2612   -2.1939    0.0000 C   0  0  0  0  0  0  0  0  0  0  0  0
   18.5216   -0.7167    0.0000 C   0  0  0  0  0  0  0  0  0  0  0  0
   15.5493  -10.0930    0.0000 C   0  0  0  0  0  0  0  0  0  0  0  0
   14.4002   -9.1288    0.0000 C   0  0  0  0  0  0  0  0  0  0  0  0
   13.2511   -8.1646    0.0000 C   0  0  0  0  0  0  0  0  0  0  0  0
   12.1021   -7.2004    0.0000 C   0  0  0  0  0  0  0  0  0  0  0  0
   10.9530   -6.2362    0.0000 C   0  0  0  0  0  0  0  0  0  0  0  0
    9.8039   -5.2721    0.0000 C   0  0  0  0  0  0  0  0  0  0  0  0
    8.6549   -4.3079    0.0000 C   0  0  0  0  0  0  0  0  0  0  0  0
    7.5058   -3.3437    0.0000 C   0  0  0  0  0  0  0  0  0  0  0  0
    6.3567   -2.3795    0.0000 C   0  0  0  0  0  0  0  0  0  0  0  0
    5.2077   -1.4153    0.0000 C   0  0  0  0  0  0  0  0  0  0  0  0
    4.0586   -0.4512    0.0000 C   0  0  0  0  0  0  0  0  0  0  0  0
    4.3191    1.0261    0.0000 O   0  0  0  0  0  0  0  0  0  0  0  0
    2.6491   -0.9642    0.0000 N   0  0  0  0  0  0  0  0  0  0  0  0
    1.5000    0.0000    0.0000 C   0  0  0  0  0  0  0  0  0  0  0  0
    0.7500   -1.2990    0.0000 C   0  0  0  0  0  0  0  0  0  0  0  0
    0.4895   -2.7762    0.0000 O   0  0  0  0  0  0  0  0  0  0  0  0
   -0.9200   -3.2893    0.0000 C   0  0  0  0  0  0  0  0  0  0  0  0
   -2.3296   -3.8023    0.0000 C   0  0  0  0  0  0  0  0  0  0  0  0
   -1.5796   -5.1013    0.0000 O   0  0  0  0  0  0  0  0  0  0  0  0
   -2.3296   -6.4004    0.0000 C   0  0  0  0  0  0  0  0  0  0  0  0
   -0.9200   -6.9134    0.0000 O   0  0  0  0  0  0  0  0  0  0  0  0
   -0.6595   -8.3906    0.0000 P   0  0  0  0  0  5  0  0  0  0  0  0
   -2.1368   -8.6511    0.0000 O   0  0  0  0  0  0  0  0  0  0  0  0
   -0.3991   -9.8678    0.0000 O   0  0  0  0  0  0  0  0  0  0  0  0
    0.8177   -8.1302    0.0000 O   0  0  0  0  0  0  0  0  0  0  0  0
   -3.8296   -6.4004    0.0000 C   0  0  0  0  0  0  0  0  0  0  0  0
   -3.5691   -7.8776    0.0000 N   0  0  0  0  0  0  0  0  0  0  0  0
   -4.7181   -8.8418    0.0000 C   0  0  0  0  0  0  0  0  0  0  0  0
   -6.1277   -8.3287    0.0000 O   0  0  0  0  0  0  0  0  0  0  0  0
   -4.4577  -10.3190    0.0000 C   0  0  0  0  0  0  0  0  0  0  0  0
   -4.1972  -11.7962    0.0000 C   0  0  0  0  0  0  0  0  0  0  0  0
   -2.7877  -12.3092    0.0000 O   0  0  0  0  0  0  0  0  0  0  0  0
   -5.3463  -12.7604    0.0000 C   0  0  0  0  0  0  0  0  0  0  0  0
   -6.4953  -13.7246    0.0000 C   0  0  0  0  0  0  0  0  0  0  0  0
   -7.6444  -14.6887    0.0000 C   0  0  0  0  0  0  0  0  0  0  0  0
   -8.7935  -15.6529    0.0000 C   0  0  0  0  0  0  0  0  0  0  0  0
   -9.9425  -16.6171    0.0000 C   0  0  0  0  0  0  0  0  0  0  0  0
  -11.0916  -17.5813    0.0000 C   0  0  0  0  0  0  0  0  0  0  0  0
  -12.2407  -18.5455    0.0000 C   0  0  0  0  0  0  0  0  0  0  0  0
  -13.3897  -19.5097    0.0000 C   0  0  0  0  0  0  0  0  0  0  0  0
  -14.5388  -20.4738    0.0000 C   0  0  0  0  0  0  0  0  0  0  0  0
  -15.6879  -21.4380    0.0000 C   0  0  0  0  0  0  0  0  0  0  0  0
  -16.8369  -22.4022    0.0000 C   0  0  0  0  0  0  0  0  0  0  0  0
   -4.5796   -5.1013    0.0000 C   0  0  0  0  0  0  0  0  0  0  0  0
   -5.7286   -6.0655    0.0000 O   0  0  0  0  0  0  0  0  0  0  0  0
   -7.1382   -5.5525    0.0000 C   0  0  0  0  0  0  0  0  0  0  0  0
   -8.5477   -5.0395    0.0000 C   0  0  0  0  0  0  0  0  0  0  0  0
   -9.9572   -4.5264    0.0000 C   0  0  0  0  0  0  0  0  0  0  0  0
  -11.3668   -4.0134    0.0000 C   0  0  0  0  0  0  0  0  0  0  0  0
  -12.7763   -3.5004    0.0000 C   0  0  0  0  0  0  0  0  0  0  0  0
  -14.1859   -2.9873    0.0000 C   0  0  0  0  0  0  0  0  0  0  0  0
  -15.5954   -2.4743    0.0000 C   0  0  0  0  0  0  0  0  0  0  0  0
  -17.0049   -1.9613    0.0000 C   0  0  0  0  0  0  0  0  0  0  0  0
  -18.4145   -1.4483    0.0000 C   0  0  0  0  0  0  0  0  0  0  0  0
  -19.8240   -0.9352    0.0000 C   0  0  0  0  0  0  0  0  0  0  0  0
   -3.8296   -3.8023    0.0000 C   0  0  0  0  0  0  0  0  0  0  0  0
   -5.2391   -3.2893    0.0000 O   0  0  0  0  0  0  0  0  0  0  0  0
   -0.7500   -1.2990    0.0000 O   0  0  0  0  0  0  0  0  0  0  0  0
   -1.5000    0.0000    0.0000 C   0  0  0  0  0  0  0  0  0  0  0  0
   -2.6491    0.9642    0.0000 C   0  0  0  0  0  0  0  0  0  0  0  0
   -3.7981    1.9284    0.0000 O   0  0  0  0  0  0  0  0  0  0  0  0
   -5.2077    1.4153    0.0000 C   0  0  0  0  0  0  0  0  0  0  0  0
   -0.7500    1.2990    0.0000 C   0  0  0  0  0  0  0  0  0  0  0  0
   -0.4895    2.7762    0.0000 O   0  0  0  0  0  0  0  0  0  0  0  0
   -1.6386    3.7404    0.0000 P   0  0  0  0  0  5  0  0  0  0  0  0
   -2.6028    2.5914    0.0000 O   0  0  0  0  0  0  0  0  0  0  0  0
   -2.7877    4.7046    0.0000 O   0  0  0  0  0  0  0  0  0  0  0  0
   -0.5415    4.7634    0.0000 O   0  0  0  0  0  0  0  0  0  0  0  0
    0.7500    1.2990    0.0000 C   0  0  0  0  0  0  0  0  0  0  0  0
    2.1595    1.8121    0.0000 O   0  0  0  0  0  0  0  0  0  0  0  0
    2.4200    3.2893    0.0000 C   0  0  0  0  0  0  0  0  0  0  0  0
    2.6805    4.7665    0.0000 C   0  0  0  0  0  0  0  0  0  0  0  0
    2.9410    6.2437    0.0000 C   0  0  0  0  0  0  0  0  0  0  0  0
    1.4637    6.5042    0.0000 C   0  0  0  0  0  0  0  0  0  0  0  0
   -0.0135    6.7646    0.0000 C   0  0  0  0  0  0  0  0  0  0  0  0
   -1.4907    7.0251    0.0000 C   0  0  0  0  0  0  0  0  0  0  0  0
   -2.9679    7.2856    0.0000 C   0  0  0  0  0  0  0  0  0  0  0  0
   -4.4451    7.5461    0.0000 C   0  0  0  0  0  0  0  0  0  0  0  0
   -5.9223    7.8065    0.0000 C   0  0  0  0  0  0  0  0  0  0  0  0
   -7.3995    8.0670    0.0000 C   0  0  0  0  0  0  0  0  0  0  0  0
    3.2014    7.7209    0.0000 O   0  0  0  0  0  0  0  0  0  0  0  0
    4.6110    8.2339    0.0000 C   0  0  0  0  0  0  0  0  0  0  0  0
   18.1079  -10.5441    0.0000 H   0  0  0  0  0  0  0  0  0  0  0  0
   16.0574   -7.7475    0.0000 H   0  0  0  0  0  0  0  0  0  0  0  0
   18.6965   -8.3632    0.0000 H   0  0  0  0  0  0  0  0  0  0  0  0
   16.0025   -6.3650    0.0000 H   0  0  0  0  0  0  0  0  0  0  0  0
   18.9570   -6.8860    0.0000 H   0  0  0  0  0  0  0  0  0  0  0  0
   19.2174   -5.4088    0.0000 H   0  0  0  0  0  0  0  0  0  0  0  0
   16.2630   -4.8878    0.0000 H   0  0  0  0  0  0  0  0  0  0  0  0
   16.5235   -3.4106    0.0000 H   0  0  0  0  0  0  0  0  0  0  0  0
   19.4779   -3.9316    0.0000 H   0  0  0  0  0  0  0  0  0  0  0  0
   19.7384   -2.4543    0.0000 H   0  0  0  0  0  0  0  0  0  0  0  0
   16.7840   -1.9334    0.0000 H   0  0  0  0  0  0  0  0  0  0  0  0
   17.0444   -0.4562    0.0000 H   0  0  0  0  0  0  0  0  0  0  0  0
   19.9989   -0.9771    0.0000 H   0  0  0  0  0  0  0  0  0  0  0  0
   18.7821    0.7605    0.0000 H   0  0  0  0  0  0  0  0  0  0  0  0
   15.2888  -11.5702    0.0000 H   0  0  0  0  0  0  0  0  0  0  0  0
   13.4360  -10.2779    0.0000 H   0  0  0  0  0  0  0  0  0  0  0  0
   15.0619   -8.1098    0.0000 H   0  0  0  0  0  0  0  0  0  0  0  0
   14.2153   -7.0155    0.0000 H   0  0  0  0  0  0  0  0  0  0  0  0
   12.2870   -9.3137    0.0000 H   0  0  0  0  0  0  0  0  0  0  0  0
   11.1379   -8.3495    0.0000 H   0  0  0  0  0  0  0  0  0  0  0  0
   13.0663   -6.0514    0.0000 H   0  0  0  0  0  0  0  0  0  0  0  0
   11.9172   -5.0872    0.0000 H   0  0  0  0  0  0  0  0  0  0  0  0
    9.9888   -7.3853    0.0000 H   0  0  0  0  0  0  0  0  0  0  0  0
   10.7681   -4.1230    0.0000 H   0  0  0  0  0  0  0  0  0  0  0  0
    8.8398   -6.4211    0.0000 H   0  0  0  0  0  0  0  0  0  0  0  0
    7.6907   -5.4569    0.0000 H   0  0  0  0  0  0  0  0  0  0  0  0
    9.6191   -3.1588    0.0000 H   0  0  0  0  0  0  0  0  0  0  0  0
    8.4700   -2.1946    0.0000 H   0  0  0  0  0  0  0  0  0  0  0  0
    6.5416   -4.4928    0.0000 H   0  0  0  0  0  0  0  0  0  0  0  0
    5.3926   -3.5286    0.0000 H   0  0  0  0  0  0  0  0  0  0  0  0
    7.3209   -1.2304    0.0000 H   0  0  0  0  0  0  0  0  0  0  0  0
    6.1719   -0.2663    0.0000 H   0  0  0  0  0  0  0  0  0  0  0  0
    4.2435   -2.5644    0.0000 H   0  0  0  0  0  0  0  0  0  0  0  0
    5.7286    1.5391    0.0000 H   0  0  0  0  0  0  0  0  0  0  0  0
    2.6491    0.9642    0.0000 H   0  0  0  0  0  0  0  0  0  0  0  0
    2.1595   -1.8121    0.0000 H   0  0  0  0  0  0  0  0  0  0  0  0
   -0.4070   -4.6988    0.0000 H   0  0  0  0  0  0  0  0  0  0  0  0
   -1.6750   -2.1701    0.0000 H   0  0  0  0  0  0  0  0  0  0  0  0
   -2.5640   -2.4728    0.0000 H   0  0  0  0  0  0  0  0  0  0  0  0
   -2.7744   -7.3993    0.0000 H   0  0  0  0  0  0  0  0  0  0  0  0
   -2.4100   -9.8350    0.0000 H   0  0  0  0  0  0  0  0  0  0  0  0
   -1.5481  -10.8320    0.0000 H   0  0  0  0  0  0  0  0  0  0  0  0
   -5.2391   -6.9134    0.0000 H   0  0  0  0  0  0  0  0  0  0  0  0
   -7.2768   -9.2929    0.0000 H   0  0  0  0  0  0  0  0  0  0  0  0
   -3.2443  -10.2554    0.0000 H   0  0  0  0  0  0  0  0  0  0  0  0
   -5.9349  -10.5795    0.0000 H   0  0  0  0  0  0  0  0  0  0  0  0
   -4.3821  -13.9095    0.0000 H   0  0  0  0  0  0  0  0  0  0  0  0
   -6.3104  -11.6113    0.0000 H   0  0  0  0  0  0  0  0  0  0  0  0
   -7.4595  -12.5755    0.0000 H   0  0  0  0  0  0  0  0  0  0  0  0
   -5.5312  -14.8736    0.0000 H   0  0  0  0  0  0  0  0  0  0  0  0
   -6.6802  -15.8378    0.0000 H   0  0  0  0  0  0  0  0  0  0  0  0
   -8.6086  -13.5397    0.0000 H   0  0  0  0  0  0  0  0  0  0  0  0
   -9.7576  -14.5039    0.0000 H   0  0  0  0  0  0  0  0  0  0  0  0
   -7.8293  -16.8020    0.0000 H   0  0  0  0  0  0  0  0  0  0  0  0
   -8.9784  -17.7662    0.0000 H   0  0  0  0  0  0  0  0  0  0  0  0
  -10.9067  -15.4680    0.0000 H   0  0  0  0  0  0  0  0  0  0  0  0
  -12.0558  -16.4322    0.0000 H   0  0  0  0  0  0  0  0  0  0  0  0
  -10.1274  -18.7304    0.0000 H   0  0  0  0  0  0  0  0  0  0  0  0
  -11.2765  -19.6945    0.0000 H   0  0  0  0  0  0  0  0  0  0  0  0
  -13.2048  -17.3964    0.0000 H   0  0  0  0  0  0  0  0  0  0  0  0
  -14.3539  -18.3606    0.0000 H   0  0  0  0  0  0  0  0  0  0  0  0
  -12.4256  -20.6587    0.0000 H   0  0  0  0  0  0  0  0  0  0  0  0
  -13.5746  -21.6229    0.0000 H   0  0  0  0  0  0  0  0  0  0  0  0
  -15.5030  -19.3248    0.0000 H   0  0  0  0  0  0  0  0  0  0  0  0
  -16.6520  -20.2890    0.0000 H   0  0  0  0  0  0  0  0  0  0  0  0
  -14.7237  -22.5871    0.0000 H   0  0  0  0  0  0  0  0  0  0  0  0
  -15.8728  -23.5513    0.0000 H   0  0  0  0  0  0  0  0  0  0  0  0
  -17.8011  -21.2531    0.0000 H   0  0  0  0  0  0  0  0  0  0  0  0
  -17.9860  -23.3664    0.0000 H   0  0  0  0  0  0  0  0  0  0  0  0
   -5.4172   -4.3985    0.0000 H   0  0  0  0  0  0  0  0  0  0  0  0
   -7.6512   -6.9620    0.0000 H   0  0  0  0  0  0  0  0  0  0  0  0
   -6.9971   -4.2099    0.0000 H   0  0  0  0  0  0  0  0  0  0  0  0
   -9.0607   -6.4490    0.0000 H   0  0  0  0  0  0  0  0  0  0  0  0
   -8.0347   -3.6299    0.0000 H   0  0  0  0  0  0  0  0  0  0  0  0
   -9.4442   -3.1169    0.0000 H   0  0  0  0  0  0  0  0  0  0  0  0
  -10.4703   -5.9360    0.0000 H   0  0  0  0  0  0  0  0  0  0  0  0
  -11.8798   -5.4229    0.0000 H   0  0  0  0  0  0  0  0  0  0  0  0
  -10.8537   -2.6039    0.0000 H   0  0  0  0  0  0  0  0  0  0  0  0
  -12.2633   -2.0908    0.0000 H   0  0  0  0  0  0  0  0  0  0  0  0
  -13.2893   -4.9099    0.0000 H   0  0  0  0  0  0  0  0  0  0  0  0
  -14.6989   -4.3969    0.0000 H   0  0  0  0  0  0  0  0  0  0  0  0
  -13.6728   -1.5778    0.0000 H   0  0  0  0  0  0  0  0  0  0  0  0
  -15.0824   -1.0648    0.0000 H   0  0  0  0  0  0  0  0  0  0  0  0
  -16.1084   -3.8839    0.0000 H   0  0  0  0  0  0  0  0  0  0  0  0
  -17.5180   -3.3708    0.0000 H   0  0  0  0  0  0  0  0  0  0  0  0
  -16.4919   -0.5517    0.0000 H   0  0  0  0  0  0  0  0  0  0  0  0
  -17.9014   -0.0387    0.0000 H   0  0  0  0  0  0  0  0  0  0  0  0
  -18.9275   -2.8578    0.0000 H   0  0  0  0  0  0  0  0  0  0  0  0
  -20.3370   -2.3448    0.0000 H   0  0  0  0  0  0  0  0  0  0  0  0
  -19.3110    0.4743    0.0000 H   0  0  0  0  0  0  0  0  0  0  0  0
  -21.2335   -0.4222    0.0000 H   0  0  0  0  0  0  0  0  0  0  0  0
   -3.5691   -2.3251    0.0000 H   0  0  0  0  0  0  0  0  0  0  0  0
   -6.1237   -3.7207    0.0000 H   0  0  0  0  0  0  0  0  0  0  0  0
   -2.6491   -0.9642    0.0000 H   0  0  0  0  0  0  0  0  0  0  0  0
   -2.0535    1.8813    0.0000 H   0  0  0  0  0  0  0  0  0  0  0  0
   -3.6132   -0.1849    0.0000 H   0  0  0  0  0  0  0  0  0  0  0  0
   -5.7207    2.8249    0.0000 H   0  0  0  0  0  0  0  0  0  0  0  0
   -4.6946    0.0058    0.0000 H   0  0  0  0  0  0  0  0  0  0  0  0
   -6.6172    0.9023    0.0000 H   0  0  0  0  0  0  0  0  0  0  0  0
   -2.2116    1.6364    0.0000 H   0  0  0  0  0  0  0  0  0  0  0  0
   -4.0800    2.8518    0.0000 H   0  0  0  0  0  0  0  0  0  0  0  0
   -2.7092    6.2026    0.0000 H   0  0  0  0  0  0  0  0  0  0  0  0
    0.3114    2.7335    0.0000 H   0  0  0  0  0  0  0  0  0  0  0  0
    3.8972    3.0288    0.0000 H   0  0  0  0  0  0  0  0  0  0  0  0
    0.9856    3.7279    0.0000 H   0  0  0  0  0  0  0  0  0  0  0  0
    1.1825    4.8450    0.0000 H   0  0  0  0  0  0  0  0  0  0  0  0
    4.1577    4.5060    0.0000 H   0  0  0  0  0  0  0  0  0  0  0  0
    4.4182    5.9832    0.0000 H   0  0  0  0  0  0  0  0  0  0  0  0
    1.7242    7.9814    0.0000 H   0  0  0  0  0  0  0  0  0  0  0  0
    1.0251    5.0697    0.0000 H   0  0  0  0  0  0  0  0  0  0  0  0
    0.2470    8.2419    0.0000 H   0  0  0  0  0  0  0  0  0  0  0  0
   -0.0919    5.2667    0.0000 H   0  0  0  0  0  0  0  0  0  0  0  0
   -1.2302    8.5023    0.0000 H   0  0  0  0  0  0  0  0  0  0  0  0
   -1.7512    5.5479    0.0000 H   0  0  0  0  0  0  0  0  0  0  0  0
   -2.7074    8.7628    0.0000 H   0  0  0  0  0  0  0  0  0  0  0  0
   -3.4065    5.8511    0.0000 H   0  0  0  0  0  0  0  0  0  0  0  0
   -4.1846    9.0233    0.0000 H   0  0  0  0  0  0  0  0  0  0  0  0
   -4.7056    6.0689    0.0000 H   0  0  0  0  0  0  0  0  0  0  0  0
   -6.1828    6.3293    0.0000 H   0  0  0  0  0  0  0  0  0  0  0  0
   -5.6618    9.2837    0.0000 H   0  0  0  0  0  0  0  0  0  0  0  0
   -7.1391    9.5442    0.0000 H   0  0  0  0  0  0  0  0  0  0  0  0
   -7.6600    6.5898    0.0000 H   0  0  0  0  0  0  0  0  0  0  0  0
   -8.8767    8.3275    0.0000 H   0  0  0  0  0  0  0  0  0  0  0  0
    4.0979    9.6435    0.0000 H   0  0  0  0  0  0  0  0  0  0  0  0
    5.1240    6.8244    0.0000 H   0  0  0  0  0  0  0  0  0  0  0  0
    6.0205    8.7470    0.0000 H   0  0  0  0  0  0  0  0  0  0  0  0
  1  2  1  0
  2  3  1  0
  3  4  1  0
  4  5  1  0
  5  6  1  0
  6  7  1  0
  1  8  2  0
  8  9  1  0
  9 10  1  0
 10 11  1  0
 11 12  1  0
 12 13  1  0
 13 14  1  0
 14 15  1  0
 15 16  1  0
 16 17  1  0
 17 18  1  0
 18 19  1  0
 18 20  2  3
 20 21  1  0
 21 22  1  0
 22 23  1  0
 23 24  1  0
 24 25  1  0
 25 26  1  0
 26 27  1  0
 27 28  1  0
 28 29  1  0
 29 30  1  0
 29 31  1  0
 29 32  2  0
 27 33  1  0
 33 34  1  0
 34 35  2  3
 35 36  1  0
 35 37  1  0
 37 38  1  0
 38 39  2  0
 38 40  1  0
 40 41  1  0
 41 42  1  0
 42 43  1  0
 43 44  1  0
 44 45  1  0
 45 46  1  0
 46 47  1  0
 47 48  1  0
 48 49  1  0
 49 50  1  0
 33 51  1  0
 51 52  1  0
 52 53  1  0
 53 54  1  0
 54 55  1  0
 55 56  1  0
 56 57  1  0
 57 58  1  0
 58 59  1  0
 59 60  1  0
 60 61  1  0
 61 62  1  0
 51 63  1  0
 63 64  1  0
 22 65  1  0
 65 66  1  0
 66 67  1  0
 67 68  1  0
 68 69  1  0
 66 70  1  0
 70 71  1  0
 71 72  1  0
 72 73  1  0
 72 74  1  0
 72 75  2  0
 70 76  1  0
 76 77  1  0
 77 78  1  0
 78 79  1  0
 79 80  1  0
 80 81  1  0
 81 82  1  0
 82 83  1  0
 83 84  1  0
 84 85  1  0
 85 86  1  0
 86 87  1  0
 80 88  1  0
 88 89  1  0
 76 21  1  0
 63 25  1  0
  1 90  1  0
  2 91  1  0
  2 92  1  0
  3 93  1  0
  3 94  1  0
  4 95  1  0
  4 96  1  0
  5 97  1  0
  5 98  1  0
  6 99  1  0
  6100  1  0
  7101  1  0
  7102  1  0
  7103  1  0
  8104  1  0
  9105  1  0
  9106  1  0
 10107  1  0
 10108  1  0
 11109  1  0
 11110  1  0
 12111  1  0
 12112  1  0
 13113  1  0
 13114  1  0
 14115  1  0
 14116  1  0
 15117  1  0
 15118  1  0
 16119  1  0
 16120  1  0
 17121  1  0
 17122  1  0
 19123  1  0
 21124  1  6
 22125  1  1
 24126  1  0
 24127  1  0
 25128  1  6
 27129  1  1
 30130  1  0
 31131  1  0
 33132  1  1
 36133  1  0
 37134  1  0
 37135  1  0
 40136  1  0
 40137  1  0
 41138  1  0
 41139  1  0
 42140  1  0
 42141  1  0
 43142  1  0
 43143  1  0
 44144  1  0
 44145  1  0
 45146  1  0
 45147  1  0
 46148  1  0
 46149  1  0
 47150  1  0
 47151  1  0
 48152  1  0
 48153  1  0
 49154  1  0
 49155  1  0
 50156  1  0
 50157  1  0
 50158  1  0
 51159  1  6
 53160  1  0
 53161  1  0
 54162  1  0
 54163  1  0
 55164  1  0
 55165  1  0
 56166  1  0
 56167  1  0
 57168  1  0
 57169  1  0
 58170  1  0
 58171  1  0
 59172  1  0
 59173  1  0
 60174  1  0
 60175  1  0
 61176  1  0
 61177  1  0
 62178  1  0
 62179  1  0
 62180  1  0
 63181  1  1
 64182  1  0
 66183  1  1
 67184  1  0
 67185  1  0
 69186  1  0
 69187  1  0
 69188  1  0
 70189  1  6
 73190  1  0
 74191  1  0
 76192  1  1
 78193  1  0
 78194  1  0
 79195  1  0
 79196  1  0
 80197  1  6
 81198  1  0
 81199  1  0
 82200  1  0
 82201  1  0
 83202  1  0
 83203  1  0
 84204  1  0
 84205  1  0
 85206  1  0
 85207  1  0
 86208  1  0
 86209  1  0
 87210  1  0
 87211  1  0
 87212  1  0
 89213  1  0
 89214  1  0
 89215  1  0
M  END
$$$$
