
     RDKit          3D

 52 53  0  0  0  0  0  0  0  0999 V2000
   -6.7360    1.8501   -1.3612 C   0  0  0  0  0  0  0  0  0  0  0  0
   -6.2062    0.5057   -0.8883 C   0  0  0  0  0  0  0  0  0  0  0  0
   -5.9592    0.5684    0.5007 O   0  0  0  0  0  0  0  0  0  0  0  0
   -5.5684   -0.7017    0.9963 C   0  0  1  0  0  0  0  0  0  0  0  0
   -4.5965   -0.5059    2.1679 C   0  0  0  0  0  0  0  0  0  0  0  0
   -3.3319    0.1740    1.7097 C   0  0  0  0  0  0  0  0  0  0  0  0
   -3.2158    1.5710    1.7676 C   0  0  0  0  0  0  0  0  0  0  0  0
   -2.0582    2.2021    1.3044 C   0  0  0  0  0  0  0  0  0  0  0  0
   -1.0024    1.4536    0.7713 C   0  0  0  0  0  0  0  0  0  0  0  0
    0.1358    2.1427    0.3204 O   0  0  0  0  0  0  0  0  0  0  0  0
    1.3340    1.5362   -0.1637 C   0  0  0  0  0  0  0  0  0  0  0  0
    2.1635    0.9794    0.9966 C   0  0  0  0  0  0  0  0  0  0  0  0
    3.4077    0.3072    0.4825 C   0  0  0  0  0  0  0  0  0  0  0  0
    4.5900    1.0417    0.3063 C   0  0  0  0  0  0  0  0  0  0  0  0
    5.7367    0.4242   -0.2025 C   0  0  0  0  0  0  0  0  0  0  0  0
    5.7130   -0.9393   -0.5529 C   0  0  0  0  0  0  0  0  0  0  0  0
    6.8317   -1.6100   -1.0667 O   0  0  0  0  0  0  0  0  0  0  0  0
    8.3605   -0.8909   -1.3376 S   0  0  0  0  0  6  0  0  0  0  0  0
    9.4684   -2.1173   -1.9918 C   0  0  0  0  0  0  0  0  0  0  0  0
    8.9137   -0.3644   -0.0431 O   0  0  0  0  0  0  0  0  0  0  0  0
    8.2279    0.2337   -2.3258 O   0  0  0  0  0  0  0  0  0  0  0  0
    4.5270   -1.6645   -0.3878 C   0  0  0  0  0  0  0  0  0  0  0  0
    3.3805   -1.0478    0.1207 C   0  0  0  0  0  0  0  0  0  0  0  0
   -1.1249    0.0518    0.6988 C   0  0  0  0  0  0  0  0  0  0  0  0
   -2.2828   -0.5796    1.1621 C   0  0  0  0  0  0  0  0  0  0  0  0
   -6.7787   -1.4561    1.4687 C   0  0  0  0  0  0  0  0  0  0  0  0
   -6.8937   -2.8165    1.2008 O   0  0  0  0  0  0  0  0  0  0  0  0
   -7.6743   -0.8685    2.1334 O   0  0  0  0  0  0  0  0  0  0  0  0
   -7.6843    2.0905   -0.8354 H   0  0  0  0  0  0  0  0  0  0  0  0
   -5.9907    2.6467   -1.1517 H   0  0  0  0  0  0  0  0  0  0  0  0
   -6.9285    1.8148   -2.4543 H   0  0  0  0  0  0  0  0  0  0  0  0
   -5.2634    0.2886   -1.4398 H   0  0  0  0  0  0  0  0  0  0  0  0
   -6.9657   -0.2744   -1.1245 H   0  0  0  0  0  0  0  0  0  0  0  0
   -5.0410   -1.3214    0.2297 H   0  0  0  0  0  0  0  0  0  0  0  0
   -5.0828    0.0970    2.9671 H   0  0  0  0  0  0  0  0  0  0  0  0
   -4.3420   -1.4935    2.6134 H   0  0  0  0  0  0  0  0  0  0  0  0
   -4.0233    2.1720    2.1674 H   0  0  0  0  0  0  0  0  0  0  0  0
   -1.9813    3.2807    1.3581 H   0  0  0  0  0  0  0  0  0  0  0  0
    1.0980    0.7481   -0.9108 H   0  0  0  0  0  0  0  0  0  0  0  0
    1.9290    2.3166   -0.6845 H   0  0  0  0  0  0  0  0  0  0  0  0
    1.5634    0.2537    1.5854 H   0  0  0  0  0  0  0  0  0  0  0  0
    2.4347    1.8096    1.6849 H   0  0  0  0  0  0  0  0  0  0  0  0
    4.6235    2.0937    0.5618 H   0  0  0  0  0  0  0  0  0  0  0  0
    6.6302    1.0196   -0.3204 H   0  0  0  0  0  0  0  0  0  0  0  0
    9.5693   -2.9503   -1.2659 H   0  0  0  0  0  0  0  0  0  0  0  0
    9.0641   -2.5096   -2.9476 H   0  0  0  0  0  0  0  0  0  0  0  0
   10.4640   -1.6617   -2.1715 H   0  0  0  0  0  0  0  0  0  0  0  0
    4.4932   -2.7122   -0.6588 H   0  0  0  0  0  0  0  0  0  0  0  0
    2.4711   -1.6259    0.2308 H   0  0  0  0  0  0  0  0  0  0  0  0
   -0.3380   -0.5613    0.2834 H   0  0  0  0  0  0  0  0  0  0  0  0
   -2.3640   -1.6573    1.0902 H   0  0  0  0  0  0  0  0  0  0  0  0
   -7.6971   -3.3430    1.5223 H   0  0  0  0  0  0  0  0  0  0  0  0
  1  2  1  0
  2  3  1  0
  3  4  1  0
  4  5  1  0
  5  6  1  0
  6  7  2  0
  7  8  1  0
  8  9  2  0
  9 10  1  0
 10 11  1  0
 11 12  1  0
 12 13  1  0
 13 14  2  0
 14 15  1  0
 15 16  2  0
 16 17  1  0
 17 18  1  0
 18 19  1  0
 18 20  2  0
 18 21  2  0
 16 22  1  0
 22 23  2  0
  9 24  1  0
 24 25  2  0
  4 26  1  0
 26 27  1  0
 26 28  2  0
 25  6  1  0
 23 13  1  0
  1 29  1  0
  1 30  1  0
  1 31  1  0
  2 32  1  0
  2 33  1  0
  4 34  1  6
  5 35  1  0
  5 36  1  0
  7 37  1  0
  8 38  1  0
 11 39  1  0
 11 40  1  0
 12 41  1  0
 12 42  1  0
 14 43  1  0
 15 44  1  0
 19 45  1  0
 19 46  1  0
 19 47  1  0
 22 48  1  0
 23 49  1  0
 24 50  1  0
 25 51  1  0
 27 52  1  0
M  END
$$$$
