
     RDKit          3D

 20 19  0  0  0  0  0  0  0  0999 V2000
    0.2356    0.1173   -0.8433 C   0  0  1  0  0  0  0  0  0  0  0  0
    0.5992    1.5132   -1.1135 N   0  0  0  0  0  0  0  0  0  0  0  0
    1.4500   -0.7780   -0.9527 C   0  0  0  0  0  0  0  0  0  0  0  0
    2.6312   -0.4521   -0.2916 O   0  0  0  0  0  0  0  0  0  0  0  0
    1.3883   -1.8383   -1.6315 O   0  0  0  0  0  0  0  0  0  0  0  0
   -0.5094   -0.0284    0.5240 C   0  0  0  0  0  0  0  0  0  0  0  0
   -1.7666    0.8646    0.5398 C   0  0  0  0  0  0  0  0  0  0  0  0
   -0.9544   -1.4889    0.7370 C   0  0  0  0  0  0  0  0  0  0  0  0
    0.5674    0.4384    1.9386 S   0  0  0  0  0  0  0  0  0  0  0  0
   -0.4784   -0.1951   -1.6404 H   0  0  0  0  0  0  0  0  0  0  0  0
    0.9182    1.5871   -2.1073 H   0  0  0  0  0  0  0  0  0  0  0  0
    1.4061    1.7993   -0.5138 H   0  0  0  0  0  0  0  0  0  0  0  0
    3.4443   -1.0529   -0.3535 H   0  0  0  0  0  0  0  0  0  0  0  0
   -2.4595    0.5790   -0.2809 H   0  0  0  0  0  0  0  0  0  0  0  0
   -1.5002    1.9349    0.4118 H   0  0  0  0  0  0  0  0  0  0  0  0
   -2.3065    0.7615    1.5057 H   0  0  0  0  0  0  0  0  0  0  0  0
   -1.5395   -1.5861    1.6770 H   0  0  0  0  0  0  0  0  0  0  0  0
   -0.0764   -2.1642    0.8171 H   0  0  0  0  0  0  0  0  0  0  0  0
   -1.5894   -1.8337   -0.1075 H   0  0  0  0  0  0  0  0  0  0  0  0
    0.5401    1.8223    1.6850 H   0  0  0  0  0  0  0  0  0  0  0  0
  1  2  1  0
  1  3  1  0
  3  4  1  0
  3  5  2  0
  1  6  1  0
  6  7  1  0
  6  8  1  0
  6  9  1  0
  1 10  1  6
  2 11  1  0
  2 12  1  0
  4 13  1  0
  7 14  1  0
  7 15  1  0
  7 16  1  0
  8 17  1  0
  8 18  1  0
  8 19  1  0
  9 20  1  0
M  END
$$$$
