
     RDKit          3D

 25 25  0  0  0  0  0  0  0  0999 V2000
    1.5170    0.0149    0.0283 C   0  0  1  0  0  0  0  0  0  0  0  0
    2.9327    0.2580   -0.5247 C   0  0  0  0  0  0  0  0  0  0  0  0
    3.2948    2.0390   -0.6616 S   0  0  0  0  0  0  0  0  0  0  0  0
    0.4320    0.4009   -1.0015 C   0  0  0  0  0  0  0  0  0  0  0  0
   -0.9527    0.3150   -0.4093 C   0  0  0  0  0  0  0  0  0  0  0  0
   -1.7482   -0.8244   -0.6185 C   0  0  0  0  0  0  0  0  0  0  0  0
   -3.0189   -0.9117   -0.0414 C   0  0  0  0  0  0  0  0  0  0  0  0
   -3.5015    0.1329    0.7518 C   0  0  0  0  0  0  0  0  0  0  0  0
   -2.7130    1.2656    0.9716 C   0  0  0  0  0  0  0  0  0  0  0  0
   -1.4415    1.3568    0.3968 C   0  0  0  0  0  0  0  0  0  0  0  0
    1.3694   -1.4269    0.4386 C   0  0  0  0  0  0  0  0  0  0  0  0
    0.9874   -1.7387    1.7397 O   0  0  0  0  0  0  0  0  0  0  0  0
    1.5698   -2.3519   -0.3949 O   0  0  0  0  0  0  0  0  0  0  0  0
    1.3919    0.6471    0.9360 H   0  0  0  0  0  0  0  0  0  0  0  0
    3.6863   -0.1860    0.1618 H   0  0  0  0  0  0  0  0  0  0  0  0
    3.0479   -0.2169   -1.5232 H   0  0  0  0  0  0  0  0  0  0  0  0
    4.5881    1.8036   -1.1653 H   0  0  0  0  0  0  0  0  0  0  0  0
    0.5972    1.4415   -1.3545 H   0  0  0  0  0  0  0  0  0  0  0  0
    0.5088   -0.2525   -1.8990 H   0  0  0  0  0  0  0  0  0  0  0  0
   -1.3836   -1.6448   -1.2241 H   0  0  0  0  0  0  0  0  0  0  0  0
   -3.6284   -1.7907   -0.2068 H   0  0  0  0  0  0  0  0  0  0  0  0
   -4.4848    0.0632    1.1986 H   0  0  0  0  0  0  0  0  0  0  0  0
   -3.0858    2.0719    1.5900 H   0  0  0  0  0  0  0  0  0  0  0  0
   -0.8369    2.2364    0.5808 H   0  0  0  0  0  0  0  0  0  0  0  0
    0.8719   -2.7022    2.0303 H   0  0  0  0  0  0  0  0  0  0  0  0
  1  2  1  0
  2  3  1  0
  1  4  1  0
  4  5  1  0
  5  6  2  0
  6  7  1  0
  7  8  2  0
  8  9  1  0
  9 10  2  0
  1 11  1  0
 11 12  1  0
 11 13  2  0
 10  5  1  0
  1 14  1  1
  2 15  1  0
  2 16  1  0
  3 17  1  0
  4 18  1  0
  4 19  1  0
  6 20  1  0
  7 21  1  0
  8 22  1  0
  9 23  1  0
 10 24  1  0
 12 25  1  0
M  END
$$$$
