
     RDKit          3D

 77 81  0  0  0  0  0  0  0  0999 V2000
   -7.1009   -2.8853   -0.4644 C   0  0  0  0  0  0  0  0  0  0  0  0
   -6.9033   -1.5401   -1.0653 N   0  0  0  0  0  4  0  0  0  0  0  0
   -6.4871   -1.7372   -2.4755 C   0  0  0  0  0  0  0  0  0  0  0  0
   -8.2101   -0.8386   -1.0290 C   0  0  0  0  0  0  0  0  0  0  0  0
   -5.8888   -0.7290   -0.3614 C   0  0  0  0  0  0  0  0  0  0  0  0
   -5.5877    0.5819   -0.8124 C   0  0  0  0  0  0  0  0  0  0  0  0
   -4.6322    1.3730   -0.1714 C   0  0  0  0  0  0  0  0  0  0  0  0
   -3.9436    0.8881    0.9447 C   0  0  0  0  0  0  0  0  0  0  0  0
   -2.8930    1.7252    1.6224 C   0  0  0  0  0  0  0  0  0  0  0  0
   -1.5643    1.1753    1.3641 N   0  0  0  0  0  0  0  0  0  0  0  0
   -0.9331    1.2627    0.0776 C   0  0  0  0  0  0  0  0  0  0  0  0
   -1.5084    1.8739   -0.8615 O   0  0  0  0  0  0  0  0  0  0  0  0
    0.3757    0.6161   -0.1555 C   0  0  0  0  0  0  0  0  0  0  0  0
    0.8036   -0.5253    0.5176 C   0  0  0  0  0  0  0  0  0  0  0  0
    2.0627   -0.7849    0.0311 C   0  0  0  0  0  0  0  0  0  0  0  0
    2.3614    0.1795   -0.8965 C   0  0  0  0  0  0  0  0  0  0  0  0
    3.6020    0.1925   -1.5446 C   0  0  0  0  0  0  0  0  0  0  0  0
    4.5276   -0.8167   -1.2266 C   0  0  0  0  0  0  0  0  0  0  0  0
    4.2179   -1.8142   -0.2756 C   0  0  0  0  0  0  0  0  0  0  0  0
    5.1844   -2.7928   -0.0025 O   0  0  0  0  0  0  0  0  0  0  0  0
    5.0121   -3.8555    0.9306 C   0  0  0  0  0  0  0  0  0  0  0  0
    6.2531   -4.6986    0.9513 C   0  0  0  0  0  0  0  0  0  0  0  0
    6.3936   -5.7740    0.0587 C   0  0  0  0  0  0  0  0  0  0  0  0
    7.5666   -6.5356    0.0533 C   0  0  0  0  0  0  0  0  0  0  0  0
    8.6099   -6.2214    0.9288 C   0  0  0  0  0  0  0  0  0  0  0  0
    8.4839   -5.1420    1.8076 C   0  0  0  0  0  0  0  0  0  0  0  0
    7.3126   -4.3779    1.8162 C   0  0  0  0  0  0  0  0  0  0  0  0
    2.9581   -1.7968    0.3686 C   0  0  0  0  0  0  0  0  0  0  0  0
    1.3298    1.0456   -1.0318 N   0  0  0  0  0  0  0  0  0  0  0  0
    1.3190    2.2847   -1.8227 C   0  0  0  0  0  0  0  0  0  0  0  0
    1.5659    3.4747   -0.9323 C   0  0  0  0  0  0  0  0  0  0  0  0
    2.8224    3.6556   -0.3355 C   0  0  0  0  0  0  0  0  0  0  0  0
    3.0487    4.7401    0.5135 C   0  0  0  0  0  0  0  0  0  0  0  0
    2.0238    5.6512    0.7787 C   0  0  0  0  0  0  0  0  0  0  0  0
    0.7570    5.4870    0.1933 C   0  0  0  0  0  0  0  0  0  0  0  0
    0.5394    4.3972   -0.6695 C   0  0  0  0  0  0  0  0  0  0  0  0
   -0.3308    6.4547    0.4826 C   0  0  0  0  0  0  0  0  0  0  0  0
   -0.0346    7.8447    0.6403 N   0  0  0  0  0  0  0  0  0  0  0  0
   -1.5596    6.0582    0.6079 N   0  0  0  0  0  0  0  0  0  0  0  0
   -4.2171   -0.4023    1.4082 C   0  0  0  0  0  0  0  0  0  0  0  0
   -5.1719   -1.2002    0.7723 C   0  0  0  0  0  0  0  0  0  0  0  0
   -6.1626   -3.4834   -0.4989 H   0  0  0  0  0  0  0  0  0  0  0  0
   -7.4508   -2.8077    0.5896 H   0  0  0  0  0  0  0  0  0  0  0  0
   -7.8729   -3.4670   -1.0178 H   0  0  0  0  0  0  0  0  0  0  0  0
   -5.4804   -2.2099   -2.5267 H   0  0  0  0  0  0  0  0  0  0  0  0
   -6.4445   -0.7782   -3.0347 H   0  0  0  0  0  0  0  0  0  0  0  0
   -7.2042   -2.3920   -3.0206 H   0  0  0  0  0  0  0  0  0  0  0  0
   -9.0105   -1.4505   -1.5033 H   0  0  0  0  0  0  0  0  0  0  0  0
   -8.1802    0.1259   -1.5795 H   0  0  0  0  0  0  0  0  0  0  0  0
   -8.5142   -0.6263    0.0207 H   0  0  0  0  0  0  0  0  0  0  0  0
   -6.0899    1.0055   -1.6705 H   0  0  0  0  0  0  0  0  0  0  0  0
   -4.4282    2.3664   -0.5519 H   0  0  0  0  0  0  0  0  0  0  0  0
   -2.9334    2.7835    1.2842 H   0  0  0  0  0  0  0  0  0  0  0  0
   -3.0848    1.7259    2.7175 H   0  0  0  0  0  0  0  0  0  0  0  0
   -1.0475    0.7429    2.1624 H   0  0  0  0  0  0  0  0  0  0  0  0
    0.2652   -1.0939    1.2648 H   0  0  0  0  0  0  0  0  0  0  0  0
    3.8632    0.9482   -2.2711 H   0  0  0  0  0  0  0  0  0  0  0  0
    5.4921   -0.8256   -1.7181 H   0  0  0  0  0  0  0  0  0  0  0  0
    4.8198   -3.4391    1.9436 H   0  0  0  0  0  0  0  0  0  0  0  0
    4.1372   -4.4759    0.6367 H   0  0  0  0  0  0  0  0  0  0  0  0
    5.5967   -6.0218   -0.6317 H   0  0  0  0  0  0  0  0  0  0  0  0
    7.6683   -7.3669   -0.6323 H   0  0  0  0  0  0  0  0  0  0  0  0
    9.5176   -6.8109    0.9224 H   0  0  0  0  0  0  0  0  0  0  0  0
    9.2955   -4.8948    2.4797 H   0  0  0  0  0  0  0  0  0  0  0  0
    7.2317   -3.5379    2.4950 H   0  0  0  0  0  0  0  0  0  0  0  0
    2.6822   -2.5363    1.1083 H   0  0  0  0  0  0  0  0  0  0  0  0
    0.3575    2.3788   -2.3676 H   0  0  0  0  0  0  0  0  0  0  0  0
    2.0940    2.2570   -2.6147 H   0  0  0  0  0  0  0  0  0  0  0  0
    3.6261    2.9558   -0.5248 H   0  0  0  0  0  0  0  0  0  0  0  0
    4.0195    4.8711    0.9738 H   0  0  0  0  0  0  0  0  0  0  0  0
    2.2171    6.4720    1.4576 H   0  0  0  0  0  0  0  0  0  0  0  0
   -0.4219    4.2761   -1.1519 H   0  0  0  0  0  0  0  0  0  0  0  0
   -0.7921    8.5206    0.8851 H   0  0  0  0  0  0  0  0  0  0  0  0
    0.9245    8.2169    0.4633 H   0  0  0  0  0  0  0  0  0  0  0  0
   -1.8436    5.0566    0.5269 H   0  0  0  0  0  0  0  0  0  0  0  0
   -3.6845   -0.7951    2.2660 H   0  0  0  0  0  0  0  0  0  0  0  0
   -5.3267   -2.1836    1.1889 H   0  0  0  0  0  0  0  0  0  0  0  0
  1  2  1  0
  2  3  1  0
  2  4  1  0
  2  5  1  0
  5  6  2  0
  6  7  1  0
  7  8  2  0
  8  9  1  0
  9 10  1  0
 10 11  1  0
 11 12  2  0
 11 13  1  0
 13 14  2  0
 14 15  1  0
 15 16  2  0
 16 17  1  0
 17 18  2  0
 18 19  1  0
 19 20  1  0
 20 21  1  0
 21 22  1  0
 22 23  2  0
 23 24  1  0
 24 25  2  0
 25 26  1  0
 26 27  2  0
 19 28  2  0
 16 29  1  0
 29 30  1  0
 30 31  1  0
 31 32  2  0
 32 33  1  0
 33 34  2  0
 34 35  1  0
 35 36  2  0
 35 37  1  0
 37 38  1  0
 37 39  2  3
  8 40  1  0
 40 41  2  0
 41  5  1  0
 29 13  1  0
 36 31  1  0
 28 15  1  0
 27 22  1  0
  1 42  1  0
  1 43  1  0
  1 44  1  0
  3 45  1  0
  3 46  1  0
  3 47  1  0
  4 48  1  0
  4 49  1  0
  4 50  1  0
  6 51  1  0
  7 52  1  0
  9 53  1  0
  9 54  1  0
 10 55  1  0
 14 56  1  0
 17 57  1  0
 18 58  1  0
 21 59  1  0
 21 60  1  0
 23 61  1  0
 24 62  1  0
 25 63  1  0
 26 64  1  0
 27 65  1  0
 28 66  1  0
 30 67  1  0
 30 68  1  0
 32 69  1  0
 33 70  1  0
 34 71  1  0
 36 72  1  0
 38 73  1  0
 38 74  1  0
 39 75  1  0
 40 76  1  0
 41 77  1  0
M  CHG  1   2   1
M  END
$$$$
