
     RDKit          3D

 51 54  0  0  0  0  0  0  0  0999 V2000
    6.9789    2.6207   -1.2071 N   0  0  0  0  0  0  0  0  0  0  0  0
    6.8875    1.1915   -1.1654 C   0  0  0  0  0  0  0  0  0  0  0  0
    7.8974    0.4742   -1.5607 N   0  0  0  0  0  4  0  0  0  0  0  0
    5.6419    0.5448   -0.6823 C   0  0  0  0  0  0  0  0  0  0  0  0
    5.6975   -0.6451    0.0962 C   0  0  0  0  0  0  0  0  0  0  0  0
    4.5188   -1.2575    0.5605 C   0  0  0  0  0  0  0  0  0  0  0  0
    3.3079   -0.6597    0.2280 C   0  0  0  0  0  0  0  0  0  0  0  0
    2.0708   -1.0473    0.5600 N   0  0  0  0  0  0  0  0  0  0  0  0
    1.2701   -0.1077   -0.0082 C   0  0  0  0  0  0  0  0  0  0  0  0
    1.9612    0.8591   -0.6721 N   0  0  0  0  0  0  0  0  0  0  0  0
    3.2410    0.4807   -0.5100 C   0  0  0  0  0  0  0  0  0  0  0  0
    4.3836    1.1185   -0.9849 C   0  0  0  0  0  0  0  0  0  0  0  0
   -0.2062   -0.0896    0.1151 C   0  0  0  0  0  0  0  0  0  0  0  0
   -0.8685    1.1477    0.1636 C   0  0  0  0  0  0  0  0  0  0  0  0
   -2.2637    1.2172    0.3015 C   0  0  0  0  0  0  0  0  0  0  0  0
   -3.0009    0.0240    0.3766 C   0  0  0  0  0  0  0  0  0  0  0  0
   -2.3627   -1.2218    0.2983 C   0  0  0  0  0  0  0  0  0  0  0  0
   -0.9614   -1.2792    0.1705 C   0  0  0  0  0  0  0  0  0  0  0  0
   -0.3294   -2.5171    0.0895 O   0  0  0  0  0  1  0  0  0  0  0  0
   -3.1761   -2.4577    0.3592 C   0  0  0  0  0  0  0  0  0  0  0  0
   -3.1314   -3.4060   -0.6810 C   0  0  0  0  0  0  0  0  0  0  0  0
   -2.3589   -3.1961   -1.7773 F   0  0  0  0  0  0  0  0  0  0  0  0
   -3.9120   -4.5647   -0.6084 C   0  0  0  0  0  0  0  0  0  0  0  0
   -4.7439   -4.7836    0.4926 C   0  0  0  0  0  0  0  0  0  0  0  0
   -4.8026   -3.8418    1.5225 C   0  0  0  0  0  0  0  0  0  0  0  0
   -4.0257   -2.6815    1.4563 C   0  0  0  0  0  0  0  0  0  0  0  0
   -2.9543    2.5666    0.3702 C   0  0  1  0  0  0  0  0  0  0  0  0
   -3.9433    2.7446   -0.8012 C   0  0  0  0  0  0  0  0  0  0  0  0
   -4.4723    4.1454   -0.8661 C   0  0  0  0  0  0  0  0  0  0  0  0
   -5.6917    4.4574   -0.2782 O   0  0  0  0  0  1  0  0  0  0  0  0
   -3.7971    5.0523   -1.4202 O   0  0  0  0  0  0  0  0  0  0  0  0
   -3.6144    2.7446    1.7137 C   0  0  0  0  0  0  0  0  0  0  0  0
   -2.9619    3.4562    2.7125 O   0  0  0  0  0  1  0  0  0  0  0  0
   -4.7334    2.2197    1.9587 O   0  0  0  0  0  0  0  0  0  0  0  0
    6.2205    3.2210   -0.8145 H   0  0  0  0  0  0  0  0  0  0  0  0
    7.8308    3.0906   -1.5868 H   0  0  0  0  0  0  0  0  0  0  0  0
    8.7752    0.9288   -1.8979 H   0  0  0  0  0  0  0  0  0  0  0  0
    7.8567   -0.5691   -1.5807 H   0  0  0  0  0  0  0  0  0  0  0  0
    6.6498   -1.0860    0.3616 H   0  0  0  0  0  0  0  0  0  0  0  0
    4.5543   -2.1589    1.1585 H   0  0  0  0  0  0  0  0  0  0  0  0
    1.8043   -1.8583    1.1607 H   0  0  0  0  0  0  0  0  0  0  0  0
    4.2962    2.0179   -1.5812 H   0  0  0  0  0  0  0  0  0  0  0  0
   -0.2912    2.0635    0.1146 H   0  0  0  0  0  0  0  0  0  0  0  0
   -4.0785    0.0620    0.4787 H   0  0  0  0  0  0  0  0  0  0  0  0
   -3.8776   -5.2913   -1.4099 H   0  0  0  0  0  0  0  0  0  0  0  0
   -5.3472   -5.6807    0.5449 H   0  0  0  0  0  0  0  0  0  0  0  0
   -5.4504   -4.0108    2.3730 H   0  0  0  0  0  0  0  0  0  0  0  0
   -4.0788   -1.9621    2.2644 H   0  0  0  0  0  0  0  0  0  0  0  0
   -2.1882    3.3690    0.2731 H   0  0  0  0  0  0  0  0  0  0  0  0
   -4.7958    2.0375   -0.7104 H   0  0  0  0  0  0  0  0  0  0  0  0
   -3.4249    2.5181   -1.7590 H   0  0  0  0  0  0  0  0  0  0  0  0
  1  2  1  0
  2  3  2  3
  2  4  1  0
  4  5  2  0
  5  6  1  0
  6  7  2  0
  7  8  1  0
  8  9  1  0
  9 10  2  0
 10 11  1  0
 11 12  2  0
  9 13  1  0
 13 14  2  0
 14 15  1  0
 15 16  2  0
 16 17  1  0
 17 18  2  0
 18 19  1  0
 17 20  1  0
 20 21  2  0
 21 22  1  0
 21 23  1  0
 23 24  2  0
 24 25  1  0
 25 26  2  0
 15 27  1  0
 27 28  1  0
 28 29  1  0
 29 30  1  0
 29 31  2  0
 27 32  1  0
 32 33  1  0
 32 34  2  0
 12  4  1  0
 18 13  1  0
 26 20  1  0
 11  7  1  0
  1 35  1  0
  1 36  1  0
  3 37  1  0
  3 38  1  0
  5 39  1  0
  6 40  1  0
  8 41  1  0
 12 42  1  0
 14 43  1  0
 16 44  1  0
 23 45  1  0
 24 46  1  0
 25 47  1  0
 26 48  1  0
 27 49  1  6
 28 50  1  0
 28 51  1  0
M  CHG  4   3   1  19  -1  30  -1  33  -1
M  END
$$$$
