
     RDKit          3D

 60 61  0  0  0  0  0  0  0  0999 V2000
   -2.6508   -1.5104   -1.3870 C   0  0  2  0  0  0  0  0  0  0  0  0
   -1.2071   -1.0963   -1.7643 C   0  0  0  0  0  0  0  0  0  0  0  0
   -0.9742    0.7036   -2.0398 P   0  0  2  0  0  5  0  0  0  0  0  0
   -1.1267    1.5077   -0.5576 O   0  0  0  0  0  0  0  0  0  0  0  0
   -2.0355    1.2217   -2.9841 O   0  0  0  0  0  0  0  0  0  0  0  0
    0.6818    1.1142   -2.7267 C   0  0  1  0  0  0  0  0  0  0  0  0
    1.6629    1.1985   -1.6354 N   0  0  0  0  0  0  0  0  0  0  0  0
    2.0805    0.1014   -0.8117 C   0  0  0  0  0  0  0  0  0  0  0  0
    1.9481   -1.0881   -1.2069 O   0  0  0  0  0  0  0  0  0  0  0  0
    2.6513    0.3685    0.4349 O   0  0  0  0  0  0  0  0  0  0  0  0
    3.0469   -0.6611    1.3344 C   0  0  0  0  0  0  0  0  0  0  0  0
    3.5134   -0.0424    2.6189 C   0  0  0  0  0  0  0  0  0  0  0  0
    2.5825    0.3071    3.6110 C   0  0  0  0  0  0  0  0  0  0  0  0
    3.0102    0.9169    4.7943 C   0  0  0  0  0  0  0  0  0  0  0  0
    4.3665    1.1927    4.9894 C   0  0  0  0  0  0  0  0  0  0  0  0
    5.2965    0.8635    3.9991 C   0  0  0  0  0  0  0  0  0  0  0  0
    4.8725    0.2533    2.8141 C   0  0  0  0  0  0  0  0  0  0  0  0
    1.1459    0.1735   -3.8772 C   0  0  0  0  0  0  0  0  0  0  0  0
    2.5692    0.5315   -4.3360 C   0  0  0  0  0  0  0  0  0  0  0  0
    0.1969    0.2418   -5.0855 C   0  0  0  0  0  0  0  0  0  0  0  0
   -3.6358   -1.4165   -2.5322 C   0  0  0  0  0  0  0  0  0  0  0  0
   -4.9962   -1.5799   -2.2840 O   0  0  0  0  0  0  0  0  0  0  0  0
   -3.2372   -1.2780   -3.7204 O   0  0  0  0  0  0  0  0  0  0  0  0
   -3.1255   -0.8072   -0.1241 C   0  0  0  0  0  0  0  0  0  0  0  0
   -2.7051   -1.2920    1.1277 C   0  0  0  0  0  0  0  0  0  0  0  0
   -3.0723   -0.6361    2.3130 C   0  0  0  0  0  0  0  0  0  0  0  0
   -2.5743   -1.1403    3.6392 C   0  0  0  0  0  0  0  0  0  0  0  0
   -1.2221   -0.6489    3.8810 N   0  0  0  0  0  0  0  0  0  0  0  0
   -3.8454    0.5318    2.2440 C   0  0  0  0  0  0  0  0  0  0  0  0
   -4.2599    1.0278    1.0069 C   0  0  0  0  0  0  0  0  0  0  0  0
   -3.9002    0.3694   -0.1710 C   0  0  0  0  0  0  0  0  0  0  0  0
   -2.6025   -2.5978   -1.1559 H   0  0  0  0  0  0  0  0  0  0  0  0
   -0.5322   -1.4078   -0.9418 H   0  0  0  0  0  0  0  0  0  0  0  0
   -0.8932   -1.6504   -2.6727 H   0  0  0  0  0  0  0  0  0  0  0  0
   -1.0537    2.4699   -0.7803 H   0  0  0  0  0  0  0  0  0  0  0  0
    0.5829    2.1363   -3.1557 H   0  0  0  0  0  0  0  0  0  0  0  0
    2.0045    2.1493   -1.3682 H   0  0  0  0  0  0  0  0  0  0  0  0
    3.8595   -1.2664    0.8763 H   0  0  0  0  0  0  0  0  0  0  0  0
    2.1860   -1.3369    1.5341 H   0  0  0  0  0  0  0  0  0  0  0  0
    1.5281    0.1085    3.4668 H   0  0  0  0  0  0  0  0  0  0  0  0
    2.2897    1.1793    5.5582 H   0  0  0  0  0  0  0  0  0  0  0  0
    4.6961    1.6661    5.9052 H   0  0  0  0  0  0  0  0  0  0  0  0
    6.3455    1.0846    4.1480 H   0  0  0  0  0  0  0  0  0  0  0  0
    5.6021    0.0123    2.0508 H   0  0  0  0  0  0  0  0  0  0  0  0
    1.1613   -0.8783   -3.5270 H   0  0  0  0  0  0  0  0  0  0  0  0
    3.2963    0.3891   -3.5095 H   0  0  0  0  0  0  0  0  0  0  0  0
    2.6155    1.5877   -4.6784 H   0  0  0  0  0  0  0  0  0  0  0  0
    2.8844   -0.1296   -5.1715 H   0  0  0  0  0  0  0  0  0  0  0  0
    0.0822    1.2893   -5.4379 H   0  0  0  0  0  0  0  0  0  0  0  0
    0.5909   -0.3737   -5.9223 H   0  0  0  0  0  0  0  0  0  0  0  0
   -0.8007   -0.1660   -4.8261 H   0  0  0  0  0  0  0  0  0  0  0  0
   -5.6700   -1.5496   -3.0397 H   0  0  0  0  0  0  0  0  0  0  0  0
   -2.0788   -2.1751    1.1792 H   0  0  0  0  0  0  0  0  0  0  0  0
   -3.2501   -0.8149    4.4619 H   0  0  0  0  0  0  0  0  0  0  0  0
   -2.5673   -2.2525    3.6356 H   0  0  0  0  0  0  0  0  0  0  0  0
   -0.8825   -1.0749    4.7735 H   0  0  0  0  0  0  0  0  0  0  0  0
   -1.2733    0.3833    4.0447 H   0  0  0  0  0  0  0  0  0  0  0  0
   -4.1190    1.0633    3.1470 H   0  0  0  0  0  0  0  0  0  0  0  0
   -4.8496    1.9342    0.9595 H   0  0  0  0  0  0  0  0  0  0  0  0
   -4.2087    0.7933   -1.1177 H   0  0  0  0  0  0  0  0  0  0  0  0
  1  2  1  0
  2  3  1  0
  3  4  1  1
  3  5  2  0
  3  6  1  0
  6  7  1  0
  7  8  1  0
  8  9  2  0
  8 10  1  0
 10 11  1  0
 11 12  1  0
 12 13  2  0
 13 14  1  0
 14 15  2  0
 15 16  1  0
 16 17  2  0
  6 18  1  0
 18 19  1  0
 18 20  1  0
  1 21  1  0
 21 22  1  0
 21 23  2  0
  1 24  1  0
 24 25  2  0
 25 26  1  0
 26 27  1  0
 27 28  1  0
 26 29  2  0
 29 30  1  0
 30 31  2  0
 17 12  1  0
 31 24  1  0
  1 32  1  1
  2 33  1  0
  2 34  1  0
  4 35  1  0
  6 36  1  6
  7 37  1  0
 11 38  1  0
 11 39  1  0
 13 40  1  0
 14 41  1  0
 15 42  1  0
 16 43  1  0
 17 44  1  0
 18 45  1  0
 19 46  1  0
 19 47  1  0
 19 48  1  0
 20 49  1  0
 20 50  1  0
 20 51  1  0
 22 52  1  0
 25 53  1  0
 27 54  1  0
 27 55  1  0
 28 56  1  0
 28 57  1  0
 29 58  1  0
 30 59  1  0
 31 60  1  0
M  END
$$$$
