
     RDKit          3D

 83 87  0  0  0  0  0  0  0  0999 V2000
   -0.8423   -4.8783    1.2254 C   0  0  0  0  0  0  0  0  0  0  0  0
   -1.2475   -3.4585    1.5267 C   0  0  0  0  0  0  0  0  0  0  0  0
   -0.5082   -2.3858    1.1500 C   0  0  0  0  0  0  0  0  0  0  0  0
   -1.0136   -0.9791    1.4438 C   0  0  0  0  0  0  0  0  0  0  0  0
   -1.5312   -0.3588    0.1611 C   0  0  0  0  0  0  0  0  0  0  0  0
   -0.8078    0.6684   -0.4685 C   0  0  0  0  0  0  0  0  0  0  0  0
   -1.2848    1.2473   -1.6450 C   0  0  0  0  0  0  0  0  0  0  0  0
   -2.4761    0.7994   -2.2176 C   0  0  0  0  0  0  0  0  0  0  0  0
   -3.2069   -0.2404   -1.6195 C   0  0  0  0  0  0  0  0  0  0  0  0
   -2.7230   -0.8181   -0.4313 C   0  0  0  0  0  0  0  0  0  0  0  0
   -4.4331   -0.7033   -2.2147 N   0  0  0  0  0  4  0  0  0  0  0  0
   -4.9034   -0.1366   -3.3774 O   0  0  0  0  0  1  0  0  0  0  0  0
   -5.0906   -1.6237   -1.6860 O   0  0  0  0  0  0  0  0  0  0  0  0
   -2.0625   -0.8989    2.5401 C   0  0  0  0  0  0  0  0  0  0  0  0
   -2.7610   -1.9985    2.8934 C   0  0  0  0  0  0  0  0  0  0  0  0
   -3.8654   -1.9600    3.9174 C   0  0  0  0  0  0  0  0  0  0  0  0
   -2.4575   -3.2538    2.2709 N   0  0  0  0  0  0  0  0  0  0  0  0
   -2.3209    0.6999    3.3533 P   0  0  0  0  0  5  0  0  0  0  0  0
   -1.7256    0.6343    4.7417 O   0  0  0  0  0  0  0  0  0  0  0  0
   -1.5615    1.9586    2.4897 O   0  0  0  0  0  0  0  0  0  0  0  0
   -2.5421    2.5616    1.6737 C   0  0  0  0  0  0  0  0  0  0  0  0
   -3.6244    3.3113    2.5018 C   0  0  0  0  0  0  0  0  0  0  0  0
   -4.8377    3.5908    1.5910 C   0  0  0  0  0  0  0  0  0  0  0  0
   -3.0545    4.6549    2.9994 C   0  0  0  0  0  0  0  0  0  0  0  0
   -4.0727    2.4543    3.7260 C   0  0  0  0  0  0  0  0  0  0  0  0
   -3.9808    1.0719    3.4665 O   0  0  0  0  0  0  0  0  0  0  0  0
    0.7572   -2.4904    0.3675 C   0  0  0  0  0  0  0  0  0  0  0  0
    1.0323   -3.5225   -0.3031 O   0  0  0  0  0  0  0  0  0  0  0  0
    1.6311   -1.3974    0.3480 O   0  0  0  0  0  0  0  0  0  0  0  0
    2.7869   -1.3232   -0.4817 C   0  0  0  0  0  0  0  0  0  0  0  0
    2.3875   -1.0796   -1.9390 C   0  0  0  0  0  0  0  0  0  0  0  0
    3.5714   -0.7273   -2.7398 N   0  0  0  0  0  0  0  0  0  0  0  0
    3.6459    0.5842   -3.4040 C   0  0  0  0  0  0  0  0  0  0  0  0
    3.4165    1.7096   -2.4248 C   0  0  0  0  0  0  0  0  0  0  0  0
    2.2342    2.4678   -2.4793 C   0  0  0  0  0  0  0  0  0  0  0  0
    1.9980    3.4757   -1.5397 C   0  0  0  0  0  0  0  0  0  0  0  0
    2.9406    3.7379   -0.5425 C   0  0  0  0  0  0  0  0  0  0  0  0
    4.1222    2.9943   -0.4853 C   0  0  0  0  0  0  0  0  0  0  0  0
    4.3612    1.9841   -1.4222 C   0  0  0  0  0  0  0  0  0  0  0  0
    4.5872   -1.7188   -3.0005 C   0  0  0  0  0  0  0  0  0  0  0  0
    4.2399   -2.9979   -3.4735 C   0  0  0  0  0  0  0  0  0  0  0  0
    5.2298   -3.9561   -3.7125 C   0  0  0  0  0  0  0  0  0  0  0  0
    6.5729   -3.6485   -3.4844 C   0  0  0  0  0  0  0  0  0  0  0  0
    6.9291   -2.3805   -3.0199 C   0  0  0  0  0  0  0  0  0  0  0  0
    5.9429   -1.4191   -2.7800 C   0  0  0  0  0  0  0  0  0  0  0  0
   -0.9419   -5.0791    0.1382 H   0  0  0  0  0  0  0  0  0  0  0  0
    0.2002   -5.0633    1.5603 H   0  0  0  0  0  0  0  0  0  0  0  0
   -1.4927   -5.5983    1.7644 H   0  0  0  0  0  0  0  0  0  0  0  0
   -0.1464   -0.3913    1.8175 H   0  0  0  0  0  0  0  0  0  0  0  0
    0.1178    1.0338   -0.0412 H   0  0  0  0  0  0  0  0  0  0  0  0
   -0.7336    2.0511   -2.1128 H   0  0  0  0  0  0  0  0  0  0  0  0
   -2.8245    1.2666   -3.1295 H   0  0  0  0  0  0  0  0  0  0  0  0
   -3.2746   -1.6218    0.0384 H   0  0  0  0  0  0  0  0  0  0  0  0
   -4.1897   -2.9871    4.1854 H   0  0  0  0  0  0  0  0  0  0  0  0
   -3.5210   -1.4688    4.8509 H   0  0  0  0  0  0  0  0  0  0  0  0
   -4.7426   -1.4205    3.5042 H   0  0  0  0  0  0  0  0  0  0  0  0
   -3.0805   -4.0717    2.4576 H   0  0  0  0  0  0  0  0  0  0  0  0
   -3.0170    1.8039    1.0093 H   0  0  0  0  0  0  0  0  0  0  0  0
   -2.0335    3.2722    0.9870 H   0  0  0  0  0  0  0  0  0  0  0  0
   -5.3034    2.6376    1.2588 H   0  0  0  0  0  0  0  0  0  0  0  0
   -5.6074    4.1844    2.1301 H   0  0  0  0  0  0  0  0  0  0  0  0
   -4.5270    4.1617    0.6892 H   0  0  0  0  0  0  0  0  0  0  0  0
   -2.7782    5.3079    2.1434 H   0  0  0  0  0  0  0  0  0  0  0  0
   -3.8055    5.1910    3.6191 H   0  0  0  0  0  0  0  0  0  0  0  0
   -2.1452    4.4885    3.6165 H   0  0  0  0  0  0  0  0  0  0  0  0
   -3.4942    2.7153    4.6441 H   0  0  0  0  0  0  0  0  0  0  0  0
   -5.1269    2.6868    3.9896 H   0  0  0  0  0  0  0  0  0  0  0  0
    3.4103   -0.4753   -0.1283 H   0  0  0  0  0  0  0  0  0  0  0  0
    3.3879   -2.2540   -0.3903 H   0  0  0  0  0  0  0  0  0  0  0  0
    1.6347   -0.2638   -1.9741 H   0  0  0  0  0  0  0  0  0  0  0  0
    1.8897   -1.9790   -2.3538 H   0  0  0  0  0  0  0  0  0  0  0  0
    4.6362    0.7303   -3.8871 H   0  0  0  0  0  0  0  0  0  0  0  0
    2.8914    0.6132   -4.2197 H   0  0  0  0  0  0  0  0  0  0  0  0
    1.4914    2.2718   -3.2421 H   0  0  0  0  0  0  0  0  0  0  0  0
    1.0821    4.0508   -1.5824 H   0  0  0  0  0  0  0  0  0  0  0  0
    2.7554    4.5169    0.1857 H   0  0  0  0  0  0  0  0  0  0  0  0
    4.8514    3.1975    0.2882 H   0  0  0  0  0  0  0  0  0  0  0  0
    5.2756    1.4112   -1.3568 H   0  0  0  0  0  0  0  0  0  0  0  0
    3.2093   -3.2522   -3.6787 H   0  0  0  0  0  0  0  0  0  0  0  0
    4.9553   -4.9368   -4.0793 H   0  0  0  0  0  0  0  0  0  0  0  0
    7.3376   -4.3916   -3.6702 H   0  0  0  0  0  0  0  0  0  0  0  0
    7.9701   -2.1425   -2.8436 H   0  0  0  0  0  0  0  0  0  0  0  0
    6.2373   -0.4466   -2.4123 H   0  0  0  0  0  0  0  0  0  0  0  0
  1  2  1  0
  2  3  2  0
  3  4  1  0
  4  5  1  0
  5  6  2  0
  6  7  1  0
  7  8  2  0
  8  9  1  0
  9 10  2  0
  9 11  1  0
 11 12  1  0
 11 13  2  0
  4 14  1  0
 14 15  2  0
 15 16  1  0
 15 17  1  0
 14 18  1  0
 18 19  2  0
 18 20  1  0
 20 21  1  0
 21 22  1  0
 22 23  1  0
 22 24  1  0
 22 25  1  0
 25 26  1  0
  3 27  1  0
 27 28  2  0
 27 29  1  0
 29 30  1  0
 30 31  1  0
 31 32  1  0
 32 33  1  0
 33 34  1  0
 34 35  2  0
 35 36  1  0
 36 37  2  0
 37 38  1  0
 38 39  2  0
 32 40  1  0
 40 41  2  0
 41 42  1  0
 42 43  2  0
 43 44  1  0
 44 45  2  0
 17  2  1  0
 26 18  1  0
 39 34  1  0
 45 40  1  0
 10  5  1  0
  1 46  1  0
  1 47  1  0
  1 48  1  0
  4 49  1  0
  6 50  1  0
  7 51  1  0
  8 52  1  0
 10 53  1  0
 16 54  1  0
 16 55  1  0
 16 56  1  0
 17 57  1  0
 21 58  1  0
 21 59  1  0
 23 60  1  0
 23 61  1  0
 23 62  1  0
 24 63  1  0
 24 64  1  0
 24 65  1  0
 25 66  1  0
 25 67  1  0
 30 68  1  0
 30 69  1  0
 31 70  1  0
 31 71  1  0
 33 72  1  0
 33 73  1  0
 35 74  1  0
 36 75  1  0
 37 76  1  0
 38 77  1  0
 39 78  1  0
 41 79  1  0
 42 80  1  0
 43 81  1  0
 44 82  1  0
 45 83  1  0
M  CHG  2  11   1  12  -1
M  END
$$$$
