
     RDKit          3D

 23 24  0  0  0  0  0  0  0  0999 V2000
   -0.8949   -1.4629    0.6702 C   0  0  2  0  0  0  0  0  0  0  0  0
   -1.6688   -2.3684   -0.1296 C   0  0  0  0  0  0  0  0  0  0  0  0
   -2.5564   -1.2120   -0.4696 C   0  0  0  0  0  0  0  0  0  0  0  0
   -3.6016   -1.0606   -1.1539 O   0  0  0  0  0  0  0  0  0  0  0  0
   -1.6404   -0.3057    0.2610 N   0  0  0  0  0  0  0  0  0  0  0  0
   -0.8570    0.8245   -0.1775 C   0  0  1  0  0  0  0  0  0  0  0  0
   -0.8663    1.9121    0.8537 C   0  0  0  0  0  0  0  0  0  0  0  0
   -1.0564    3.2322    0.4586 O   0  0  0  0  0  0  0  0  0  0  0  0
   -0.6802    1.6413    2.0713 O   0  0  0  0  0  0  0  0  0  0  0  0
    0.4812    0.1517   -0.2675 C   0  0  0  0  0  0  0  0  0  0  0  0
    0.4156   -1.1750    0.1885 O   0  0  0  0  0  0  0  0  0  0  0  0
    1.5938    0.7198   -0.7380 C   0  0  0  0  0  0  0  0  0  0  0  0
    2.8928   -0.0262   -0.8090 C   0  0  0  0  0  0  0  0  0  0  0  0
    3.3296   -0.3750    0.4765 O   0  0  0  0  0  0  0  0  0  0  0  0
   -0.9406   -1.6241    1.7704 H   0  0  0  0  0  0  0  0  0  0  0  0
   -1.1298   -2.7548   -1.0217 H   0  0  0  0  0  0  0  0  0  0  0  0
   -2.2003   -3.1381    0.4699 H   0  0  0  0  0  0  0  0  0  0  0  0
   -1.2024    1.1841   -1.1709 H   0  0  0  0  0  0  0  0  0  0  0  0
   -1.0562    3.9831    1.1386 H   0  0  0  0  0  0  0  0  0  0  0  0
    1.5608    1.7439   -1.0898 H   0  0  0  0  0  0  0  0  0  0  0  0
    3.6590    0.6004   -1.3185 H   0  0  0  0  0  0  0  0  0  0  0  0
    2.7571   -0.9502   -1.4102 H   0  0  0  0  0  0  0  0  0  0  0  0
    3.6616    0.4598    0.8996 H   0  0  0  0  0  0  0  0  0  0  0  0
  1  2  1  0
  2  3  1  0
  3  4  2  0
  3  5  1  0
  5  6  1  0
  6  7  1  0
  7  8  1  0
  7  9  2  0
  6 10  1  0
 10 11  1  0
 10 12  2  0
 12 13  1  0
 13 14  1  0
  5  1  1  0
 11  1  1  0
  1 15  1  1
  2 16  1  0
  2 17  1  0
  6 18  1  6
  8 19  1  0
 12 20  1  0
 13 21  1  0
 13 22  1  0
 14 23  1  0
M  END
$$$$
