
     RDKit          3D

 41 41  0  0  0  0  0  0  0  0999 V2000
   -6.3252   -1.7564    0.6332 O   0  0  0  0  0  0  0  0  0  0  0  0
   -5.4978   -0.6936    0.9813 C   0  0  0  0  0  0  0  0  0  0  0  0
   -5.9985    0.4231    1.2815 O   0  0  0  0  0  0  0  0  0  0  0  0
   -4.0132   -0.8675    0.9678 C   0  0  0  0  0  0  0  0  0  0  0  0
   -3.4392   -0.2147   -0.2055 N   0  0  0  0  0  0  0  0  0  0  0  0
   -3.5739   -0.7532   -1.5288 C   0  0  0  0  0  0  0  0  0  0  0  0
   -4.2119   -1.8243   -1.7179 O   0  0  0  0  0  0  0  0  0  0  0  0
   -2.9237   -0.0677   -2.6956 C   0  0  0  0  0  0  0  0  0  0  0  0
   -1.6097   -0.7525   -3.1030 C   0  0  0  0  0  0  0  0  0  0  0  0
   -0.5047   -0.6798   -2.0359 C   0  0  0  0  0  0  0  0  0  0  0  0
    0.2312    0.9891   -1.8930 P   0  0  1  0  0  5  0  0  0  0  0  0
    0.5759    1.5760   -3.4420 O   0  0  0  0  0  0  0  0  0  0  0  0
   -0.7358    1.9371   -1.2193 O   0  0  0  0  0  0  0  0  0  0  0  0
    1.6914    0.9211   -1.0104 O   0  0  0  0  0  0  0  0  0  0  0  0
    1.4054    0.5633    0.3210 C   0  0  0  0  0  0  0  0  0  0  0  0
    2.6907    0.5288    1.0962 C   0  0  0  0  0  0  0  0  0  0  0  0
    3.4596   -0.6436    1.1391 C   0  0  0  0  0  0  0  0  0  0  0  0
    4.6753   -0.6667    1.8289 C   0  0  0  0  0  0  0  0  0  0  0  0
    5.1502    0.4866    2.4776 C   0  0  0  0  0  0  0  0  0  0  0  0
    4.3845    1.6654    2.4164 C   0  0  0  0  0  0  0  0  0  0  0  0
    3.1690    1.6871    1.7262 C   0  0  0  0  0  0  0  0  0  0  0  0
    6.4024    0.4596    3.1869 N   0  0  0  0  0  4  0  0  0  0  0  0
    7.1497   -0.6947    3.2429 O   0  0  0  0  0  1  0  0  0  0  0  0
    6.8301    1.4813    3.7634 O   0  0  0  0  0  0  0  0  0  0  0  0
   -7.3326   -1.6497    0.6260 H   0  0  0  0  0  0  0  0  0  0  0  0
   -3.7488   -1.9469    0.9692 H   0  0  0  0  0  0  0  0  0  0  0  0
   -3.5886   -0.4130    1.8888 H   0  0  0  0  0  0  0  0  0  0  0  0
   -2.8821    0.6576   -0.0643 H   0  0  0  0  0  0  0  0  0  0  0  0
   -2.7545    1.0047   -2.4706 H   0  0  0  0  0  0  0  0  0  0  0  0
   -3.6225   -0.1040   -3.5591 H   0  0  0  0  0  0  0  0  0  0  0  0
   -1.2430   -0.3010   -4.0497 H   0  0  0  0  0  0  0  0  0  0  0  0
   -1.8195   -1.8227   -3.3213 H   0  0  0  0  0  0  0  0  0  0  0  0
   -0.8894   -1.0093   -1.0491 H   0  0  0  0  0  0  0  0  0  0  0  0
    0.3075   -1.3787   -2.3274 H   0  0  0  0  0  0  0  0  0  0  0  0
    1.2516    0.9490   -3.8043 H   0  0  0  0  0  0  0  0  0  0  0  0
    0.7181    1.2998    0.7959 H   0  0  0  0  0  0  0  0  0  0  0  0
    0.9316   -0.4421    0.3703 H   0  0  0  0  0  0  0  0  0  0  0  0
    3.1179   -1.5409    0.6378 H   0  0  0  0  0  0  0  0  0  0  0  0
    5.2450   -1.5866    1.8510 H   0  0  0  0  0  0  0  0  0  0  0  0
    4.7270    2.5718    2.8988 H   0  0  0  0  0  0  0  0  0  0  0  0
    2.6008    2.6083    1.6831 H   0  0  0  0  0  0  0  0  0  0  0  0
  1  2  1  0
  2  3  2  0
  2  4  1  0
  4  5  1  0
  5  6  1  0
  6  7  2  0
  6  8  1  0
  8  9  1  0
  9 10  1  0
 10 11  1  0
 11 12  1  6
 11 13  2  0
 11 14  1  0
 14 15  1  0
 15 16  1  0
 16 17  2  0
 17 18  1  0
 18 19  2  0
 19 20  1  0
 20 21  2  0
 19 22  1  0
 22 23  1  0
 22 24  2  0
 21 16  1  0
  1 25  1  0
  4 26  1  0
  4 27  1  0
  5 28  1  0
  8 29  1  0
  8 30  1  0
  9 31  1  0
  9 32  1  0
 10 33  1  0
 10 34  1  0
 12 35  1  0
 15 36  1  0
 15 37  1  0
 17 38  1  0
 18 39  1  0
 20 40  1  0
 21 41  1  0
M  CHG  2  22   1  23  -1
M  END
$$$$
