
     RDKit          3D

 78 82  0  0  0  0  0  0  0  0999 V2000
   -0.3721   -1.7288   -0.6459 C   0  0  2  0  0  0  0  0  0  0  0  0
    0.1661   -0.8271    0.3204 O   0  0  0  0  0  0  0  0  0  0  0  0
    1.5200   -0.7268    0.6459 C   0  0  0  0  0  0  0  0  0  0  0  0
    2.3759   -1.4510    0.0667 O   0  0  0  0  0  0  0  0  0  0  0  0
    1.9435    0.2949    1.6833 C   0  0  1  0  0  0  0  0  0  0  0  0
    3.2977    0.1303    2.0411 O   0  0  0  0  0  0  0  0  0  0  0  0
    1.7542    1.7263    1.1082 C   0  0  0  0  0  0  0  0  0  0  0  0
    2.4093    1.9998   -0.2634 C   0  0  0  0  0  0  0  0  0  0  0  0
    3.9506    1.9550   -0.2228 C   0  0  0  0  0  0  0  0  0  0  0  0
    4.6618    2.5311   -1.4826 C   0  0  0  0  0  0  0  0  0  0  0  0
    4.4340    4.0516   -1.6228 C   0  0  0  0  0  0  0  0  0  0  0  0
    4.1794    1.8227   -2.7591 C   0  0  0  0  0  0  0  0  0  0  0  0
    6.0446    2.2878   -1.3693 O   0  0  0  0  0  0  0  0  0  0  0  0
    1.0568    0.1667    2.9549 C   0  0  0  0  0  0  0  0  0  0  0  0
    1.1102   -1.1968    3.5806 C   0  0  0  0  0  0  0  0  0  0  0  0
    0.3077   -2.0932    3.2010 O   0  0  0  0  0  0  0  0  0  0  0  0
    2.0670   -1.4672    4.5628 O   0  0  0  0  0  0  0  0  0  0  0  0
    2.1918   -2.7432    5.1782 C   0  0  0  0  0  0  0  0  0  0  0  0
   -0.1775   -1.2054   -2.0273 C   0  0  0  0  0  0  0  0  0  0  0  0
    1.0939   -0.9332   -2.5501 O   0  0  0  0  0  0  0  0  0  0  0  0
    1.3200   -0.4234   -3.8598 C   0  0  0  0  0  0  0  0  0  0  0  0
   -1.3146   -1.0441   -2.6884 C   0  0  0  0  0  0  0  0  0  0  0  0
   -2.5101   -1.4751   -1.8888 C   0  0  2  0  0  0  0  0  0  0  0  0
   -3.1782   -2.6673   -2.5818 C   0  0  0  0  0  0  0  0  0  0  0  0
   -4.1784   -2.0385   -3.5303 C   0  0  0  0  0  0  0  0  0  0  0  0
   -4.4640   -0.6538   -2.9566 C   0  0  0  0  0  0  0  0  0  0  0  0
   -3.5700   -0.4471   -1.8064 N   0  0  0  0  0  0  0  0  0  0  0  0
   -3.1340    0.9606   -1.6861 C   0  0  0  0  0  0  0  0  0  0  0  0
   -2.2083    1.1911   -0.4857 C   0  0  0  0  0  0  0  0  0  0  0  0
   -2.5925    0.3503    0.7090 C   0  0  0  0  0  0  0  0  0  0  0  0
   -3.0683    1.0035    1.8693 C   0  0  0  0  0  0  0  0  0  0  0  0
   -3.3880    0.2321    2.9776 C   0  0  0  0  0  0  0  0  0  0  0  0
   -3.2648   -1.1145    2.9742 C   0  0  0  0  0  0  0  0  0  0  0  0
   -3.6402   -1.6155    4.2058 O   0  0  0  0  0  0  0  0  0  0  0  0
   -4.0240   -0.5100    5.0348 C   0  0  0  0  0  0  0  0  0  0  0  0
   -3.8493    0.6506    4.2107 O   0  0  0  0  0  0  0  0  0  0  0  0
   -2.8142   -1.8110    1.8612 C   0  0  0  0  0  0  0  0  0  0  0  0
   -2.4753   -1.0827    0.6949 C   0  0  0  0  0  0  0  0  0  0  0  0
   -1.9101   -1.8609   -0.4986 C   0  0  2  0  0  0  0  0  0  0  0  0
    0.1099   -2.7275   -0.5500 H   0  0  0  0  0  0  0  0  0  0  0  0
    3.4369   -0.8098    2.3277 H   0  0  0  0  0  0  0  0  0  0  0  0
    2.1345    2.4709    1.8422 H   0  0  0  0  0  0  0  0  0  0  0  0
    0.6653    1.9270    0.9923 H   0  0  0  0  0  0  0  0  0  0  0  0
    2.0755    3.0083   -0.5806 H   0  0  0  0  0  0  0  0  0  0  0  0
    2.0249    1.2802   -1.0157 H   0  0  0  0  0  0  0  0  0  0  0  0
    4.2701    0.8973   -0.1090 H   0  0  0  0  0  0  0  0  0  0  0  0
    4.3070    2.5073    0.6747 H   0  0  0  0  0  0  0  0  0  0  0  0
    3.3855    4.2861   -1.9005 H   0  0  0  0  0  0  0  0  0  0  0  0
    4.6758    4.5723   -0.6716 H   0  0  0  0  0  0  0  0  0  0  0  0
    5.0930    4.4615   -2.4181 H   0  0  0  0  0  0  0  0  0  0  0  0
    4.2895    0.7222   -2.6534 H   0  0  0  0  0  0  0  0  0  0  0  0
    4.7867    2.1491   -3.6307 H   0  0  0  0  0  0  0  0  0  0  0  0
    3.1163    2.0594   -2.9764 H   0  0  0  0  0  0  0  0  0  0  0  0
    6.3751    2.7595   -0.5596 H   0  0  0  0  0  0  0  0  0  0  0  0
    1.3872    0.9120    3.7109 H   0  0  0  0  0  0  0  0  0  0  0  0
   -0.0037    0.4015    2.7120 H   0  0  0  0  0  0  0  0  0  0  0  0
    1.2475   -3.0079    5.6995 H   0  0  0  0  0  0  0  0  0  0  0  0
    2.4265   -3.5127    4.4124 H   0  0  0  0  0  0  0  0  0  0  0  0
    3.0158   -2.7112    5.9201 H   0  0  0  0  0  0  0  0  0  0  0  0
    0.8506    0.5777   -3.9635 H   0  0  0  0  0  0  0  0  0  0  0  0
    0.9038   -1.1199   -4.6180 H   0  0  0  0  0  0  0  0  0  0  0  0
    2.4111   -0.3281   -4.0300 H   0  0  0  0  0  0  0  0  0  0  0  0
   -1.3782   -0.6866   -3.7080 H   0  0  0  0  0  0  0  0  0  0  0  0
   -3.7419   -3.2806   -1.8436 H   0  0  0  0  0  0  0  0  0  0  0  0
   -2.4568   -3.3247   -3.1171 H   0  0  0  0  0  0  0  0  0  0  0  0
   -5.1050   -2.6494   -3.5994 H   0  0  0  0  0  0  0  0  0  0  0  0
   -3.7273   -1.9450   -4.5429 H   0  0  0  0  0  0  0  0  0  0  0  0
   -5.5178   -0.5954   -2.6095 H   0  0  0  0  0  0  0  0  0  0  0  0
   -4.3114    0.1116   -3.7518 H   0  0  0  0  0  0  0  0  0  0  0  0
   -4.0361    1.5970   -1.5481 H   0  0  0  0  0  0  0  0  0  0  0  0
   -2.6243    1.3062   -2.6132 H   0  0  0  0  0  0  0  0  0  0  0  0
   -1.1592    0.9910   -0.7707 H   0  0  0  0  0  0  0  0  0  0  0  0
   -2.2316    2.2733   -0.2306 H   0  0  0  0  0  0  0  0  0  0  0  0
   -3.1731    2.0802    1.9128 H   0  0  0  0  0  0  0  0  0  0  0  0
   -3.3627   -0.4510    5.9246 H   0  0  0  0  0  0  0  0  0  0  0  0
   -5.0875   -0.6088    5.3373 H   0  0  0  0  0  0  0  0  0  0  0  0
   -2.7170   -2.8882    1.9071 H   0  0  0  0  0  0  0  0  0  0  0  0
   -2.1053   -2.9424   -0.3166 H   0  0  0  0  0  0  0  0  0  0  0  0
  1  2  1  0
  2  3  1  0
  3  4  2  0
  3  5  1  0
  5  6  1  1
  5  7  1  0
  7  8  1  0
  8  9  1  0
  9 10  1  0
 10 11  1  0
 10 12  1  0
 10 13  1  0
  5 14  1  0
 14 15  1  0
 15 16  2  0
 15 17  1  0
 17 18  1  0
  1 19  1  0
 19 20  1  0
 20 21  1  0
 19 22  2  0
 22 23  1  0
 23 24  1  6
 24 25  1  0
 25 26  1  0
 26 27  1  0
 27 28  1  0
 28 29  1  0
 29 30  1  0
 30 31  2  0
 31 32  1  0
 32 33  2  0
 33 34  1  0
 34 35  1  0
 35 36  1  0
 33 37  1  0
 37 38  2  0
 38 39  1  0
 39  1  1  0
 27 23  1  0
 38 30  1  0
 39 23  1  0
 36 32  1  0
  1 40  1  6
  6 41  1  0
  7 42  1  0
  7 43  1  0
  8 44  1  0
  8 45  1  0
  9 46  1  0
  9 47  1  0
 11 48  1  0
 11 49  1  0
 11 50  1  0
 12 51  1  0
 12 52  1  0
 12 53  1  0
 13 54  1  0
 14 55  1  0
 14 56  1  0
 18 57  1  0
 18 58  1  0
 18 59  1  0
 21 60  1  0
 21 61  1  0
 21 62  1  0
 22 63  1  0
 24 64  1  0
 24 65  1  0
 25 66  1  0
 25 67  1  0
 26 68  1  0
 26 69  1  0
 28 70  1  0
 28 71  1  0
 29 72  1  0
 29 73  1  0
 31 74  1  0
 35 75  1  0
 35 76  1  0
 37 77  1  0
 39 78  1  1
M  END
$$$$
