
     RDKit          3D

 34 36  0  0  0  0  0  0  0  0999 V2000
    4.1819   -2.1161    1.7548 N   0  0  0  0  0  0  0  0  0  0  0  0
    2.8662   -1.7115    1.3667 C   0  0  0  0  0  0  0  0  0  0  0  0
    1.8919   -2.4607    1.6478 O   0  0  0  0  0  0  0  0  0  0  0  0
    2.6287   -0.4459    0.6316 C   0  0  0  0  0  0  0  0  0  0  0  0
    3.5612    0.6280    0.6846 C   0  0  0  0  0  0  0  0  0  0  0  0
    3.3241    1.7950    0.0133 N   0  0  0  0  0  0  0  0  0  0  0  0
    2.1862    1.9196   -0.7097 C   0  0  0  0  0  0  0  0  0  0  0  0
    1.7387    2.9955   -1.4428 C   0  0  0  0  0  0  0  0  0  0  0  0
    0.5078    2.5865   -1.9526 C   0  0  0  0  0  0  0  0  0  0  0  0
    0.2227    1.3248   -1.5492 N   0  0  0  0  0  0  0  0  0  0  0  0
    1.2580    0.9266   -0.7885 C   0  0  0  0  0  0  0  0  0  0  0  0
    1.4425   -0.2814   -0.1206 C   0  0  0  0  0  0  0  0  0  0  0  0
   -1.2107    0.4236   -1.9276 S   0  0  0  0  0  6  0  0  0  0  0  0
   -0.7988   -0.8397   -2.6305 O   0  0  0  0  0  0  0  0  0  0  0  0
   -2.0876    1.2360   -2.8386 O   0  0  0  0  0  0  0  0  0  0  0  0
   -2.1022    0.0477   -0.4455 C   0  0  0  0  0  0  0  0  0  0  0  0
   -1.8853    0.8489    0.6878 C   0  0  0  0  0  0  0  0  0  0  0  0
   -2.4913    0.5378    1.9057 C   0  0  0  0  0  0  0  0  0  0  0  0
   -3.3226   -0.5761    2.0077 C   0  0  0  0  0  0  0  0  0  0  0  0
   -3.5652   -1.3720    0.8872 C   0  0  0  0  0  0  0  0  0  0  0  0
   -2.9773   -1.0638   -0.3527 C   0  0  0  0  0  0  0  0  0  0  0  0
   -3.2940   -1.8732   -1.4965 N   0  0  0  0  0  4  0  0  0  0  0  0
   -3.6288   -1.2806   -2.6917 O   0  0  0  0  0  1  0  0  0  0  0  0
   -3.4752   -3.1011   -1.3620 O   0  0  0  0  0  0  0  0  0  0  0  0
    4.3128   -2.9824    2.3230 H   0  0  0  0  0  0  0  0  0  0  0  0
    5.0336   -1.6202    1.4134 H   0  0  0  0  0  0  0  0  0  0  0  0
    4.4609    0.5521    1.2782 H   0  0  0  0  0  0  0  0  0  0  0  0
    2.2281    3.9497   -1.5848 H   0  0  0  0  0  0  0  0  0  0  0  0
   -0.1400    3.1869   -2.5776 H   0  0  0  0  0  0  0  0  0  0  0  0
    0.7000   -1.0665   -0.1841 H   0  0  0  0  0  0  0  0  0  0  0  0
   -1.2352    1.7123    0.6359 H   0  0  0  0  0  0  0  0  0  0  0  0
   -2.3100    1.1582    2.7739 H   0  0  0  0  0  0  0  0  0  0  0  0
   -3.7884   -0.8181    2.9543 H   0  0  0  0  0  0  0  0  0  0  0  0
   -4.2324   -2.2197    0.9803 H   0  0  0  0  0  0  0  0  0  0  0  0
  1  2  1  0
  2  3  2  0
  2  4  1  0
  4  5  2  0
  5  6  1  0
  6  7  2  0
  7  8  1  0
  8  9  2  0
  9 10  1  0
 10 11  1  0
 11 12  2  0
 10 13  1  0
 13 14  2  0
 13 15  2  0
 13 16  1  0
 16 17  2  0
 17 18  1  0
 18 19  2  0
 19 20  1  0
 20 21  2  0
 21 22  1  0
 22 23  1  0
 22 24  2  0
 12  4  1  0
 21 16  1  0
 11  7  1  0
  1 25  1  0
  1 26  1  0
  5 27  1  0
  8 28  1  0
  9 29  1  0
 12 30  1  0
 17 31  1  0
 18 32  1  0
 19 33  1  0
 20 34  1  0
M  CHG  2  22   1  23  -1
M  END
$$$$
