
     RDKit          3D

 28 29  0  0  0  0  0  0  0  0999 V2000
    4.5453    0.7899    0.6033 N   0  0  0  0  0  0  0  0  0  0  0  0
    3.7275   -0.7247    0.4401 S   0  0  0  0  0  6  0  0  0  0  0  0
    4.4517   -1.5875   -0.5545 O   0  0  0  0  0  0  0  0  0  0  0  0
    3.7207   -1.4223    1.7721 O   0  0  0  0  0  0  0  0  0  0  0  0
    2.0735   -0.4446   -0.1166 C   0  0  0  0  0  0  0  0  0  0  0  0
    1.8167    0.1844   -1.3522 C   0  0  0  0  0  0  0  0  0  0  0  0
    3.1171    0.7228   -2.4097 Cl  0  0  0  0  0  0  0  0  0  0  0  0
    0.4963    0.3969   -1.7661 C   0  0  0  0  0  0  0  0  0  0  0  0
   -0.5769   -0.0012   -0.9589 C   0  0  0  0  0  0  0  0  0  0  0  0
   -1.9256    0.2329   -1.3927 N   0  0  0  0  0  0  0  0  0  0  0  0
   -3.0681    0.2886   -0.4705 C   0  0  0  0  0  0  0  0  0  0  0  0
   -3.1471   -0.9249    0.3605 N   0  0  0  0  0  0  0  0  0  0  0  0
   -1.6656   -1.2086    1.2262 S   0  0  0  0  0  6  0  0  0  0  0  0
   -1.6997   -0.4765    2.5381 O   0  0  0  0  0  0  0  0  0  0  0  0
   -1.5154   -2.6827    1.4774 O   0  0  0  0  0  0  0  0  0  0  0  0
   -0.3212   -0.6398    0.2595 C   0  0  0  0  0  0  0  0  0  0  0  0
    0.9950   -0.8564    0.6810 C   0  0  0  0  0  0  0  0  0  0  0  0
   -3.0286    1.5733    0.3801 C   0  0  0  0  0  0  0  0  0  0  0  0
   -4.4104    1.6273    1.5075 Cl  0  0  0  0  0  0  0  0  0  0  0  0
   -3.1051    3.0148   -0.6682 Cl  0  0  0  0  0  0  0  0  0  0  0  0
    4.0285    1.3394    1.3258 H   0  0  0  0  0  0  0  0  0  0  0  0
    5.4911    0.5864    0.9973 H   0  0  0  0  0  0  0  0  0  0  0  0
    0.3043    0.8844   -2.7140 H   0  0  0  0  0  0  0  0  0  0  0  0
   -2.0999    0.4516   -2.4001 H   0  0  0  0  0  0  0  0  0  0  0  0
   -3.9986    0.3362   -1.0801 H   0  0  0  0  0  0  0  0  0  0  0  0
   -3.2893   -1.7405   -0.2790 H   0  0  0  0  0  0  0  0  0  0  0  0
    1.1725   -1.3517    1.6269 H   0  0  0  0  0  0  0  0  0  0  0  0
   -2.0891    1.6324    0.9667 H   0  0  0  0  0  0  0  0  0  0  0  0
  1  2  1  0
  2  3  2  0
  2  4  2  0
  2  5  1  0
  5  6  2  0
  6  7  1  0
  6  8  1  0
  8  9  2  0
  9 10  1  0
 10 11  1  0
 11 12  1  0
 12 13  1  0
 13 14  2  0
 13 15  2  0
 13 16  1  0
 16 17  2  0
 11 18  1  0
 18 19  1  0
 18 20  1  0
 17  5  1  0
 16  9  1  0
  1 21  1  0
  1 22  1  0
  8 23  1  0
 10 24  1  0
 11 25  1  0
 12 26  1  0
 17 27  1  0
 18 28  1  0
M  END
$$$$
