
     RDKit          3D

 46 50  0  0  0  0  0  0  0  0999 V2000
    0.1606   -2.0781   -0.5601 C   0  0  2  0  0  0  0  0  0  0  0  0
    1.4514   -1.4605   -0.4509 O   0  0  0  0  0  0  0  0  0  0  0  0
    1.3216   -0.1237   -0.1340 C   0  0  0  0  0  0  0  0  0  0  0  0
    2.3345    0.7508    0.2596 C   0  0  0  0  0  0  0  0  0  0  0  0
    3.6705    0.3364    0.1741 O   0  0  0  0  0  0  0  0  0  0  0  0
    4.7824    1.1378    0.5627 C   0  0  0  0  0  0  0  0  0  0  0  0
    6.0708    0.3661    0.3276 C   0  0  0  0  0  0  0  0  0  0  0  0
    1.9465    2.0173    0.7624 C   0  0  0  0  0  0  0  0  0  0  0  0
    0.5792    2.3276    0.9274 C   0  0  0  0  0  0  0  0  0  0  0  0
   -0.4074    1.4106    0.5189 C   0  0  0  0  0  0  0  0  0  0  0  0
    0.0128    0.2470   -0.1194 C   0  0  0  0  0  0  0  0  0  0  0  0
   -0.8659   -0.8846   -0.5265 C   0  0  1  0  0  0  0  0  0  0  0  0
   -1.4846   -0.6077   -1.9174 C   0  0  0  0  0  0  0  0  0  0  0  0
   -2.4378    0.6046   -1.8937 C   0  0  0  0  0  0  0  0  0  0  0  0
   -3.4067    0.5054   -0.7807 N   0  0  0  0  0  0  0  0  0  0  0  0
   -4.3863    1.6034   -0.8194 C   0  0  0  0  0  0  0  0  0  0  0  0
   -2.7642    0.3291    0.5488 C   0  0  2  0  0  0  0  0  0  0  0  0
   -1.8486    1.5408    0.9618 C   0  0  0  0  0  0  0  0  0  0  0  0
   -1.9949   -1.0200    0.5184 C   0  0  2  0  0  0  0  0  0  0  0  0
   -1.4214   -1.4423    1.8518 C   0  0  0  0  0  0  0  0  0  0  0  0
   -0.4792   -2.3975    1.8796 C   0  0  0  0  0  0  0  0  0  0  0  0
   -0.0584   -3.0890    0.5968 C   0  0  2  0  0  0  0  0  0  0  0  0
    1.1116   -3.8355    0.8061 O   0  0  0  0  0  0  0  0  0  0  0  0
    0.1124   -2.6286   -1.5255 H   0  0  0  0  0  0  0  0  0  0  0  0
    4.8022    2.0718   -0.0398 H   0  0  0  0  0  0  0  0  0  0  0  0
    4.7032    1.3939    1.6414 H   0  0  0  0  0  0  0  0  0  0  0  0
    6.1675    0.1079   -0.7482 H   0  0  0  0  0  0  0  0  0  0  0  0
    6.0684   -0.5681    0.9283 H   0  0  0  0  0  0  0  0  0  0  0  0
    6.9405    0.9872    0.6294 H   0  0  0  0  0  0  0  0  0  0  0  0
    2.6855    2.7345    1.0921 H   0  0  0  0  0  0  0  0  0  0  0  0
    0.2952    3.2499    1.4181 H   0  0  0  0  0  0  0  0  0  0  0  0
   -0.6830   -0.4263   -2.6672 H   0  0  0  0  0  0  0  0  0  0  0  0
   -2.0553   -1.5041   -2.2461 H   0  0  0  0  0  0  0  0  0  0  0  0
   -2.9852    0.6275   -2.8615 H   0  0  0  0  0  0  0  0  0  0  0  0
   -1.8526    1.5479   -1.8272 H   0  0  0  0  0  0  0  0  0  0  0  0
   -5.0240    1.5981    0.0904 H   0  0  0  0  0  0  0  0  0  0  0  0
   -5.0576    1.4652   -1.6932 H   0  0  0  0  0  0  0  0  0  0  0  0
   -3.8931    2.5938   -0.9172 H   0  0  0  0  0  0  0  0  0  0  0  0
   -3.5667    0.2299    1.3144 H   0  0  0  0  0  0  0  0  0  0  0  0
   -1.8470    1.5976    2.0719 H   0  0  0  0  0  0  0  0  0  0  0  0
   -2.2543    2.5068    0.6038 H   0  0  0  0  0  0  0  0  0  0  0  0
   -2.6960   -1.8227    0.1946 H   0  0  0  0  0  0  0  0  0  0  0  0
   -1.7033   -0.9309    2.7672 H   0  0  0  0  0  0  0  0  0  0  0  0
   -0.0077   -2.6593    2.8222 H   0  0  0  0  0  0  0  0  0  0  0  0
   -0.8856   -3.7716    0.2912 H   0  0  0  0  0  0  0  0  0  0  0  0
    0.8500   -4.6388    1.3282 H   0  0  0  0  0  0  0  0  0  0  0  0
  1  2  1  0
  2  3  1  0
  3  4  2  0
  4  5  1  0
  5  6  1  0
  6  7  1  0
  4  8  1  0
  8  9  2  0
  9 10  1  0
 10 11  2  0
 11 12  1  0
 12 13  1  6
 13 14  1  0
 14 15  1  0
 15 16  1  0
 15 17  1  0
 17 18  1  0
 17 19  1  0
 19 20  1  0
 20 21  2  0
 21 22  1  0
 22 23  1  0
 12  1  1  0
 19 12  1  0
 22  1  1  0
 11  3  1  0
 18 10  1  0
  1 24  1  6
  6 25  1  0
  6 26  1  0
  7 27  1  0
  7 28  1  0
  7 29  1  0
  8 30  1  0
  9 31  1  0
 13 32  1  0
 13 33  1  0
 14 34  1  0
 14 35  1  0
 16 36  1  0
 16 37  1  0
 16 38  1  0
 17 39  1  1
 18 40  1  0
 18 41  1  0
 19 42  1  6
 20 43  1  0
 21 44  1  0
 22 45  1  6
 23 46  1  0
M  END
$$$$
