
     RDKit          3D

 40 42  0  0  0  0  0  0  0  0999 V2000
   -2.3418   -0.4778    2.2801 C   0  0  0  0  0  0  0  0  0  0  0  0
   -1.1545   -0.9948    1.4538 C   0  0  0  0  0  0  0  0  0  0  0  0
    0.0854   -0.7559    2.2035 N   0  0  0  0  0  0  0  0  0  0  0  0
    1.3497   -0.5420    1.5633 C   0  0  0  0  0  0  0  0  0  0  0  0
    2.5352   -0.6176    2.3061 C   0  0  0  0  0  0  0  0  0  0  0  0
    3.7751   -0.4109    1.6925 C   0  0  0  0  0  0  0  0  0  0  0  0
    5.2247   -0.5376    2.6839 Cl  0  0  0  0  0  0  0  0  0  0  0  0
    3.8371   -0.1158    0.3157 C   0  0  0  0  0  0  0  0  0  0  0  0
    2.6462   -0.0380   -0.4232 C   0  0  0  0  0  0  0  0  0  0  0  0
    1.4033   -0.2465    0.1981 C   0  0  0  0  0  0  0  0  0  0  0  0
    0.1413   -0.1408   -0.5512 C   0  0  0  0  0  0  0  0  0  0  0  0
    0.1622    0.1453   -1.7808 O   0  0  0  0  0  0  0  0  0  0  0  0
   -1.1158   -0.3575    0.1190 N   0  0  0  0  0  0  0  0  0  0  0  0
   -2.3269   -0.2406   -0.6533 C   0  0  0  0  0  0  0  0  0  0  0  0
   -3.0008   -1.4017   -1.0643 C   0  0  0  0  0  0  0  0  0  0  0  0
   -4.1675   -1.3093   -1.8256 C   0  0  0  0  0  0  0  0  0  0  0  0
   -4.6691   -0.0583   -2.1873 C   0  0  0  0  0  0  0  0  0  0  0  0
   -4.0095    1.1050   -1.7831 C   0  0  0  0  0  0  0  0  0  0  0  0
   -2.8444    1.0281   -1.0017 C   0  0  0  0  0  0  0  0  0  0  0  0
   -2.1452    2.2946   -0.5892 C   0  0  0  0  0  0  0  0  0  0  0  0
    5.3883    0.1504   -0.4911 S   0  0  0  0  0  6  0  0  0  0  0  0
    5.1546    0.5824   -2.1503 N   0  0  0  0  0  0  0  0  0  0  0  0
    6.1283    1.2624    0.1985 O   0  0  0  0  0  0  0  0  0  0  0  0
    6.2028   -1.1110   -0.4280 O   0  0  0  0  0  0  0  0  0  0  0  0
   -2.2807    0.6255    2.3910 H   0  0  0  0  0  0  0  0  0  0  0  0
   -2.3360   -0.9405    3.2899 H   0  0  0  0  0  0  0  0  0  0  0  0
   -3.3052   -0.7434    1.7970 H   0  0  0  0  0  0  0  0  0  0  0  0
   -1.2710   -2.0922    1.3211 H   0  0  0  0  0  0  0  0  0  0  0  0
    0.0839   -0.9608    3.2293 H   0  0  0  0  0  0  0  0  0  0  0  0
    2.4944   -0.8436    3.3645 H   0  0  0  0  0  0  0  0  0  0  0  0
    2.6834    0.1860   -1.4807 H   0  0  0  0  0  0  0  0  0  0  0  0
   -2.6136   -2.3778   -0.8014 H   0  0  0  0  0  0  0  0  0  0  0  0
   -4.6797   -2.2090   -2.1413 H   0  0  0  0  0  0  0  0  0  0  0  0
   -5.5696    0.0105   -2.7838 H   0  0  0  0  0  0  0  0  0  0  0  0
   -4.4110    2.0670   -2.0772 H   0  0  0  0  0  0  0  0  0  0  0  0
   -1.3218    2.5125   -1.3004 H   0  0  0  0  0  0  0  0  0  0  0  0
   -2.8491    3.1539   -0.5837 H   0  0  0  0  0  0  0  0  0  0  0  0
   -1.7269    2.1976    0.4344 H   0  0  0  0  0  0  0  0  0  0  0  0
    4.7414    1.5419   -2.1619 H   0  0  0  0  0  0  0  0  0  0  0  0
    6.1026    0.6602   -2.5821 H   0  0  0  0  0  0  0  0  0  0  0  0
  1  2  1  0
  2  3  1  0
  3  4  1  0
  4  5  2  0
  5  6  1  0
  6  7  1  0
  6  8  2  0
  8  9  1  0
  9 10  2  0
 10 11  1  0
 11 12  2  0
 11 13  1  0
 13 14  1  0
 14 15  2  0
 15 16  1  0
 16 17  2  0
 17 18  1  0
 18 19  2  0
 19 20  1  0
  8 21  1  0
 21 22  1  0
 21 23  2  0
 21 24  2  0
 13  2  1  0
 19 14  1  0
 10  4  1  0
  1 25  1  0
  1 26  1  0
  1 27  1  0
  2 28  1  0
  3 29  1  0
  5 30  1  0
  9 31  1  0
 15 32  1  0
 16 33  1  0
 17 34  1  0
 18 35  1  0
 20 36  1  0
 20 37  1  0
 20 38  1  0
 22 39  1  0
 22 40  1  0
M  END
$$$$
