
     RDKit          3D

 60 64  0  0  0  0  0  0  0  0999 V2000
   -9.8048    1.5413   -0.7742 C   0  0  0  0  0  0  0  0  0  0  0  0
   -8.8333    0.4335   -0.5389 C   0  0  0  0  0  0  0  0  0  0  0  0
   -7.5172    0.5823   -0.1652 C   0  0  0  0  0  0  0  0  0  0  0  0
   -6.9626   -0.6435   -0.1160 N   0  0  0  0  0  0  0  0  0  0  0  0
   -7.9481   -1.4976   -0.4722 C   0  0  0  0  0  0  0  0  0  0  0  0
   -9.1099   -0.8685   -0.7491 N   0  0  0  0  0  0  0  0  0  0  0  0
   -5.6019   -0.9738    0.2302 C   0  0  0  0  0  0  0  0  0  0  0  0
   -4.5711   -0.0359    0.0476 C   0  0  0  0  0  0  0  0  0  0  0  0
   -3.2468   -0.3481    0.3813 C   0  0  0  0  0  0  0  0  0  0  0  0
   -2.2257    0.6500    0.2116 N   0  0  0  0  0  0  0  0  0  0  0  0
   -0.8860    0.3574   -0.2292 C   0  0  0  0  0  0  0  0  0  0  0  0
   -0.5812   -0.8155   -0.5800 O   0  0  0  0  0  0  0  0  0  0  0  0
    0.1522    1.4145   -0.2892 C   0  0  0  0  0  0  0  0  0  0  0  0
   -0.1808    2.7535   -0.5488 C   0  0  0  0  0  0  0  0  0  0  0  0
    0.8118    3.7337   -0.5955 C   0  0  0  0  0  0  0  0  0  0  0  0
    2.1605    3.3967   -0.4047 C   0  0  0  0  0  0  0  0  0  0  0  0
    3.2085    4.4751   -0.4585 C   0  0  0  0  0  0  0  0  0  0  0  0
    2.5119    2.0508   -0.1615 C   0  0  0  0  0  0  0  0  0  0  0  0
    3.8834    1.6857    0.0772 N   0  0  0  0  0  0  0  0  0  0  0  0
    4.5005    0.5147   -0.4753 C   0  0  0  0  0  0  0  0  0  0  0  0
    3.8781   -0.2094   -1.4439 N   0  0  0  0  0  0  0  0  0  0  0  0
    4.4695   -1.3020   -1.9887 C   0  0  0  0  0  0  0  0  0  0  0  0
    5.7369   -1.6958   -1.5622 C   0  0  0  0  0  0  0  0  0  0  0  0
    6.3761   -0.9440   -0.5620 C   0  0  0  0  0  0  0  0  0  0  0  0
    5.7409    0.1488   -0.0560 N   0  0  0  0  0  0  0  0  0  0  0  0
    7.7297   -1.2758   -0.0564 C   0  0  0  0  0  0  0  0  0  0  0  0
    8.3097   -2.5496   -0.2088 C   0  0  0  0  0  0  0  0  0  0  0  0
    9.5518   -2.7852    0.2903 N   0  0  0  0  0  0  0  0  0  0  0  0
   10.2490   -1.8169    0.9381 C   0  0  0  0  0  0  0  0  0  0  0  0
    9.6765   -0.5569    1.1042 C   0  0  0  0  0  0  0  0  0  0  0  0
    8.4349   -0.3180    0.6080 N   0  0  0  0  0  0  0  0  0  0  0  0
    1.5020    1.0744   -0.1004 C   0  0  0  0  0  0  0  0  0  0  0  0
   -2.9548   -1.6041    0.9370 C   0  0  0  0  0  0  0  0  0  0  0  0
   -3.9642   -2.5662    1.1019 C   0  0  0  0  0  0  0  0  0  0  0  0
   -5.2871   -2.2361    0.7631 C   0  0  0  0  0  0  0  0  0  0  0  0
   -3.6512   -3.8964    1.7410 C   0  0  0  0  0  0  0  0  0  0  0  0
   -4.5117   -4.8765    1.2771 F   0  0  0  0  0  0  0  0  0  0  0  0
   -2.3555   -4.2868    1.4491 F   0  0  0  0  0  0  0  0  0  0  0  0
   -3.7905   -3.7866    3.1119 F   0  0  0  0  0  0  0  0  0  0  0  0
   -9.6375    2.3569   -0.0395 H   0  0  0  0  0  0  0  0  0  0  0  0
   -9.6698    1.9398   -1.8011 H   0  0  0  0  0  0  0  0  0  0  0  0
  -10.8434    1.1654   -0.6621 H   0  0  0  0  0  0  0  0  0  0  0  0
   -7.0142    1.5131    0.0627 H   0  0  0  0  0  0  0  0  0  0  0  0
   -7.8252   -2.5691   -0.5584 H   0  0  0  0  0  0  0  0  0  0  0  0
   -4.7885    0.9359   -0.3758 H   0  0  0  0  0  0  0  0  0  0  0  0
   -2.5046    1.6424    0.3736 H   0  0  0  0  0  0  0  0  0  0  0  0
   -1.2028    3.0494   -0.7411 H   0  0  0  0  0  0  0  0  0  0  0  0
    0.5249    4.7596   -0.7919 H   0  0  0  0  0  0  0  0  0  0  0  0
    2.7982    5.4220   -0.8697 H   0  0  0  0  0  0  0  0  0  0  0  0
    3.5917    4.6727    0.5644 H   0  0  0  0  0  0  0  0  0  0  0  0
    4.0488    4.1583   -1.1118 H   0  0  0  0  0  0  0  0  0  0  0  0
    4.4841    2.3299    0.6391 H   0  0  0  0  0  0  0  0  0  0  0  0
    3.9585   -1.8606   -2.7615 H   0  0  0  0  0  0  0  0  0  0  0  0
    6.2049   -2.5505   -2.0292 H   0  0  0  0  0  0  0  0  0  0  0  0
    7.7844   -3.3595   -0.6931 H   0  0  0  0  0  0  0  0  0  0  0  0
   11.2366   -2.0267    1.3264 H   0  0  0  0  0  0  0  0  0  0  0  0
   10.2129    0.2257    1.6238 H   0  0  0  0  0  0  0  0  0  0  0  0
    1.7664    0.0499    0.1312 H   0  0  0  0  0  0  0  0  0  0  0  0
   -1.9484   -1.8238    1.2685 H   0  0  0  0  0  0  0  0  0  0  0  0
   -6.0765   -2.9538    0.9433 H   0  0  0  0  0  0  0  0  0  0  0  0
  1  2  1  0
  2  3  2  0
  3  4  1  0
  4  5  1  0
  5  6  2  0
  4  7  1  0
  7  8  2  0
  8  9  1  0
  9 10  1  0
 10 11  1  0
 11 12  2  0
 11 13  1  0
 13 14  2  0
 14 15  1  0
 15 16  2  0
 16 17  1  0
 16 18  1  0
 18 19  1  0
 19 20  1  0
 20 21  2  0
 21 22  1  0
 22 23  2  0
 23 24  1  0
 24 25  2  0
 24 26  1  0
 26 27  2  0
 27 28  1  0
 28 29  2  0
 29 30  1  0
 30 31  2  0
 18 32  2  0
  9 33  2  0
 33 34  1  0
 34 35  2  0
 34 36  1  0
 36 37  1  0
 36 38  1  0
 36 39  1  0
  6  2  1  0
 35  7  1  0
 32 13  1  0
 25 20  1  0
 31 26  1  0
  1 40  1  0
  1 41  1  0
  1 42  1  0
  3 43  1  0
  5 44  1  0
  8 45  1  0
 10 46  1  0
 14 47  1  0
 15 48  1  0
 17 49  1  0
 17 50  1  0
 17 51  1  0
 19 52  1  0
 22 53  1  0
 23 54  1  0
 27 55  1  0
 29 56  1  0
 30 57  1  0
 32 58  1  0
 33 59  1  0
 35 60  1  0
M  END
$$$$
