
     RDKit          3D

 53 55  0  0  0  0  0  0  0  0999 V2000
   -4.0564    1.3193   -2.2108 C   0  0  0  0  0  0  0  0  0  0  0  0
   -3.4595    1.3291   -0.7848 C   0  0  0  0  0  0  0  0  0  0  0  0
   -2.9846    2.7665   -0.4557 C   0  0  0  0  0  0  0  0  0  0  0  0
   -4.5538    0.9707    0.2512 C   0  0  0  0  0  0  0  0  0  0  0  0
   -4.8726   -0.5193    0.2611 C   0  0  0  0  0  0  0  0  0  0  0  0
   -3.6479   -1.3792    0.6618 C   0  0  0  0  0  0  0  0  0  0  0  0
   -3.9897   -2.8443    0.2918 C   0  0  0  0  0  0  0  0  0  0  0  0
   -3.4189   -1.2945    2.1883 C   0  0  0  0  0  0  0  0  0  0  0  0
   -2.3726   -0.9180   -0.0615 C   0  0  0  0  0  0  0  0  0  0  0  0
   -1.2202   -1.7354   -0.0030 C   0  0  0  0  0  0  0  0  0  0  0  0
   -0.0308   -1.3758   -0.6477 C   0  0  0  0  0  0  0  0  0  0  0  0
    0.0089   -0.1914   -1.3868 C   0  0  0  0  0  0  0  0  0  0  0  0
   -1.0961    0.6533   -1.4243 C   0  0  0  0  0  0  0  0  0  0  0  0
   -2.2840    0.3416   -0.7275 C   0  0  0  0  0  0  0  0  0  0  0  0
    1.1454   -2.2776   -0.5922 C   0  0  0  0  0  0  0  0  0  0  0  0
    0.9588   -3.5238   -0.6175 O   0  0  0  0  0  0  0  0  0  0  0  0
    2.5375   -1.7846   -0.5263 C   0  0  0  0  0  0  0  0  0  0  0  0
    2.8622   -0.5986    0.0097 C   0  0  0  0  0  0  0  0  0  0  0  0
    4.2498   -0.0800    0.0946 C   0  0  0  0  0  0  0  0  0  0  0  0
    5.3802   -0.9188    0.0466 C   0  0  0  0  0  0  0  0  0  0  0  0
    6.6672   -0.3804    0.1404 C   0  0  0  0  0  0  0  0  0  0  0  0
    6.8537    1.0040    0.2923 C   0  0  0  0  0  0  0  0  0  0  0  0
    5.7263    1.8384    0.3556 C   0  0  0  0  0  0  0  0  0  0  0  0
    4.4396    1.3006    0.2628 C   0  0  0  0  0  0  0  0  0  0  0  0
    8.2143    1.5770    0.3911 C   0  0  0  0  0  0  0  0  0  0  0  0
    8.3883    2.9500    0.5454 O   0  0  0  0  0  0  0  0  0  0  0  0
    9.2279    0.8290    0.3363 O   0  0  0  0  0  0  0  0  0  0  0  0
   -4.9560    1.9693   -2.2678 H   0  0  0  0  0  0  0  0  0  0  0  0
   -4.3408    0.2923   -2.5208 H   0  0  0  0  0  0  0  0  0  0  0  0
   -3.3187    1.6969   -2.9507 H   0  0  0  0  0  0  0  0  0  0  0  0
   -2.3357    3.1867   -1.2514 H   0  0  0  0  0  0  0  0  0  0  0  0
   -3.8543    3.4521   -0.3559 H   0  0  0  0  0  0  0  0  0  0  0  0
   -2.4192    2.7795    0.5014 H   0  0  0  0  0  0  0  0  0  0  0  0
   -4.2388    1.2790    1.2713 H   0  0  0  0  0  0  0  0  0  0  0  0
   -5.4881    1.5344    0.0335 H   0  0  0  0  0  0  0  0  0  0  0  0
   -5.7152   -0.6993    0.9652 H   0  0  0  0  0  0  0  0  0  0  0  0
   -5.2434   -0.8155   -0.7438 H   0  0  0  0  0  0  0  0  0  0  0  0
   -4.9866   -3.1267    0.6953 H   0  0  0  0  0  0  0  0  0  0  0  0
   -3.2594   -3.5657    0.7124 H   0  0  0  0  0  0  0  0  0  0  0  0
   -4.0123   -2.9711   -0.8124 H   0  0  0  0  0  0  0  0  0  0  0  0
   -2.6247   -2.0020    2.5091 H   0  0  0  0  0  0  0  0  0  0  0  0
   -3.0976   -0.2761    2.4907 H   0  0  0  0  0  0  0  0  0  0  0  0
   -4.3466   -1.5532    2.7427 H   0  0  0  0  0  0  0  0  0  0  0  0
   -1.2353   -2.6560    0.5637 H   0  0  0  0  0  0  0  0  0  0  0  0
    0.8974    0.0820   -1.9424 H   0  0  0  0  0  0  0  0  0  0  0  0
   -1.0156    1.5560   -2.0130 H   0  0  0  0  0  0  0  0  0  0  0  0
    3.3059   -2.4481   -0.8969 H   0  0  0  0  0  0  0  0  0  0  0  0
    2.0734    0.0409    0.3872 H   0  0  0  0  0  0  0  0  0  0  0  0
    5.2830   -1.9918   -0.0381 H   0  0  0  0  0  0  0  0  0  0  0  0
    7.5166   -1.0510    0.1008 H   0  0  0  0  0  0  0  0  0  0  0  0
    5.8361    2.9087    0.4775 H   0  0  0  0  0  0  0  0  0  0  0  0
    3.5878    1.9683    0.3137 H   0  0  0  0  0  0  0  0  0  0  0  0
    9.3153    3.3526    0.6140 H   0  0  0  0  0  0  0  0  0  0  0  0
  1  2  1  0
  2  3  1  0
  2  4  1  0
  4  5  1  0
  5  6  1  0
  6  7  1  0
  6  8  1  0
  6  9  1  0
  9 10  2  0
 10 11  1  0
 11 12  2  0
 12 13  1  0
 13 14  2  0
 11 15  1  0
 15 16  2  0
 15 17  1  0
 17 18  2  0
 18 19  1  0
 19 20  2  0
 20 21  1  0
 21 22  2  0
 22 23  1  0
 23 24  2  0
 22 25  1  0
 25 26  1  0
 25 27  2  0
 14  2  1  0
 24 19  1  0
 14  9  1  0
  1 28  1  0
  1 29  1  0
  1 30  1  0
  3 31  1  0
  3 32  1  0
  3 33  1  0
  4 34  1  0
  4 35  1  0
  5 36  1  0
  5 37  1  0
  7 38  1  0
  7 39  1  0
  7 40  1  0
  8 41  1  0
  8 42  1  0
  8 43  1  0
 10 44  1  0
 12 45  1  0
 13 46  1  0
 17 47  1  0
 18 48  1  0
 20 49  1  0
 21 50  1  0
 23 51  1  0
 24 52  1  0
 26 53  1  0
M  END
$$$$
