
     RDKit          3D

 33 34  0  0  0  0  0  0  0  0999 V2000
   -0.6462   -2.8213    0.9422 O   0  0  0  0  0  1  0  0  0  0  0  0
   -1.5648   -1.8270    1.1868 N   0  0  0  0  0  4  0  0  0  0  0  0
   -2.2384   -1.8744    2.2369 O   0  0  0  0  0  0  0  0  0  0  0  0
   -1.8775   -0.8619    0.1674 C   0  0  0  0  0  0  0  0  0  0  0  0
   -0.8816   -0.3585   -0.7040 C   0  0  0  0  0  0  0  0  0  0  0  0
   -1.2490    0.5081   -1.7439 C   0  0  0  0  0  0  0  0  0  0  0  0
   -2.5776    0.8994   -1.9097 C   0  0  0  0  0  0  0  0  0  0  0  0
   -3.5738    0.4165   -1.0487 C   0  0  0  0  0  0  0  0  0  0  0  0
   -3.2105   -0.4450   -0.0007 C   0  0  0  0  0  0  0  0  0  0  0  0
   -5.0011    0.8838   -1.1911 C   0  0  0  0  0  0  0  0  0  0  0  0
   -5.8807   -0.1072   -0.7905 F   0  0  0  0  0  0  0  0  0  0  0  0
   -5.2845    1.2056   -2.5074 F   0  0  0  0  0  0  0  0  0  0  0  0
   -5.1939    2.0028   -0.4029 F   0  0  0  0  0  0  0  0  0  0  0  0
    0.5545   -0.6509   -0.5178 C   0  0  0  0  0  0  0  0  0  0  0  0
    1.2151   -1.1114   -1.4889 O   0  0  0  0  0  0  0  0  0  0  0  0
    1.2633   -0.2426    0.7511 C   0  0  0  0  0  0  0  0  0  0  0  0
    2.3814   -1.2049    1.0930 C   0  0  0  0  0  0  0  0  0  0  0  0
    2.1374   -2.2073    1.7475 O   0  0  0  0  0  0  0  0  0  0  0  0
    3.7763   -0.9858    0.5656 C   0  0  0  0  0  0  0  0  0  0  0  0
    4.1856    0.4824    0.7148 C   0  0  0  0  0  0  0  0  0  0  0  0
    3.1686    1.4109    0.0457 C   0  0  0  0  0  0  0  0  0  0  0  0
    1.7905    1.1645    0.5996 C   0  0  0  0  0  0  0  0  0  0  0  0
    1.0633    2.1133    0.8532 O   0  0  0  0  0  0  0  0  0  0  0  0
   -0.4962    0.9110   -2.4112 H   0  0  0  0  0  0  0  0  0  0  0  0
   -2.8235    1.5915   -2.7053 H   0  0  0  0  0  0  0  0  0  0  0  0
   -3.9722   -0.8151    0.6745 H   0  0  0  0  0  0  0  0  0  0  0  0
    0.5458   -0.2438    1.6008 H   0  0  0  0  0  0  0  0  0  0  0  0
    3.8118   -1.2785   -0.5056 H   0  0  0  0  0  0  0  0  0  0  0  0
    4.4993   -1.6222    1.1210 H   0  0  0  0  0  0  0  0  0  0  0  0
    5.1830    0.6342    0.2487 H   0  0  0  0  0  0  0  0  0  0  0  0
    4.2693    0.7379    1.7945 H   0  0  0  0  0  0  0  0  0  0  0  0
    3.4692    2.4670    0.2200 H   0  0  0  0  0  0  0  0  0  0  0  0
    3.1571    1.2292   -1.0507 H   0  0  0  0  0  0  0  0  0  0  0  0
  1  2  1  0
  2  3  2  0
  2  4  1  0
  4  5  2  0
  5  6  1  0
  6  7  2  0
  7  8  1  0
  8  9  2  0
  8 10  1  0
 10 11  1  0
 10 12  1  0
 10 13  1  0
  5 14  1  0
 14 15  2  0
 14 16  1  0
 16 17  1  0
 17 18  2  0
 17 19  1  0
 19 20  1  0
 20 21  1  0
 21 22  1  0
 22 23  2  0
  9  4  1  0
 22 16  1  0
  6 24  1  0
  7 25  1  0
  9 26  1  0
 16 27  1  0
 19 28  1  0
 19 29  1  0
 20 30  1  0
 20 31  1  0
 21 32  1  0
 21 33  1  0
M  CHG  2   1  -1   2   1
M  END
$$$$
