
     RDKit          3D

 53 55  0  0  0  0  0  0  0  0999 V2000
   -0.3871    1.5542    1.6710 O   0  0  0  0  0  0  0  0  0  0  0  0
   -0.7935    1.1421    0.3804 C   0  0  0  0  0  0  0  0  0  0  0  0
    0.5267    0.9010   -0.4303 C   0  0  0  0  0  0  0  0  0  0  0  0
    1.5624   -0.0403    0.2204 C   0  0  0  0  0  0  0  0  0  0  0  0
    2.9407    0.3532   -0.1554 N   0  0  0  0  0  0  0  0  0  0  0  0
    3.2975    0.0138   -1.5537 C   0  0  0  0  0  0  0  0  0  0  0  0
    3.5588   -1.4888   -1.7624 C   0  0  0  0  0  0  0  0  0  0  0  0
    4.5883   -2.0131   -0.7604 C   0  0  0  0  0  0  0  0  0  0  0  0
    4.1833   -1.6564    0.6696 C   0  0  0  0  0  0  0  0  0  0  0  0
    3.9553   -0.1436    0.7991 C   0  0  0  0  0  0  0  0  0  0  0  0
   -1.7332   -0.1310    0.4658 C   0  0  0  0  0  0  0  0  0  0  0  0
   -1.2718   -1.2293    1.4596 C   0  0  0  0  0  0  0  0  0  0  0  0
   -2.3423   -2.3213    1.5958 C   0  0  0  0  0  0  0  0  0  0  0  0
   -2.6704   -2.9430    0.2327 C   0  0  0  0  0  0  0  0  0  0  0  0
   -3.1048   -1.8708   -0.7741 C   0  0  0  0  0  0  0  0  0  0  0  0
   -2.0383   -0.7753   -0.9082 C   0  0  0  0  0  0  0  0  0  0  0  0
   -1.6084    2.3005   -0.2502 C   0  0  0  0  0  0  0  0  0  0  0  0
   -2.5477    3.0124    0.5341 C   0  0  0  0  0  0  0  0  0  0  0  0
   -3.3226    4.0360   -0.0178 C   0  0  0  0  0  0  0  0  0  0  0  0
   -3.1964    4.3625   -1.3660 C   0  0  0  0  0  0  0  0  0  0  0  0
   -2.3030    3.6577   -2.1694 C   0  0  0  0  0  0  0  0  0  0  0  0
   -1.5240    2.6321   -1.6263 C   0  0  0  0  0  0  0  0  0  0  0  0
   -1.1396    1.4513    2.3079 H   0  0  0  0  0  0  0  0  0  0  0  0
    1.0145    1.8921   -0.5707 H   0  0  0  0  0  0  0  0  0  0  0  0
    0.3097    0.5056   -1.4416 H   0  0  0  0  0  0  0  0  0  0  0  0
    1.3593   -1.0827   -0.0937 H   0  0  0  0  0  0  0  0  0  0  0  0
    1.4517   -0.0011    1.3247 H   0  0  0  0  0  0  0  0  0  0  0  0
    2.5049    0.3489   -2.2550 H   0  0  0  0  0  0  0  0  0  0  0  0
    4.2138    0.5779   -1.8348 H   0  0  0  0  0  0  0  0  0  0  0  0
    3.9423   -1.6500   -2.7929 H   0  0  0  0  0  0  0  0  0  0  0  0
    2.6150   -2.0661   -1.6713 H   0  0  0  0  0  0  0  0  0  0  0  0
    4.6712   -3.1169   -0.8577 H   0  0  0  0  0  0  0  0  0  0  0  0
    5.5844   -1.5722   -0.9860 H   0  0  0  0  0  0  0  0  0  0  0  0
    4.9912   -1.9665    1.3668 H   0  0  0  0  0  0  0  0  0  0  0  0
    3.2609   -2.2084    0.9518 H   0  0  0  0  0  0  0  0  0  0  0  0
    4.9159    0.3867    0.6160 H   0  0  0  0  0  0  0  0  0  0  0  0
    3.6627    0.1008    1.8435 H   0  0  0  0  0  0  0  0  0  0  0  0
   -2.7076    0.2343    0.8655 H   0  0  0  0  0  0  0  0  0  0  0  0
   -1.0845   -0.8041    2.4669 H   0  0  0  0  0  0  0  0  0  0  0  0
   -0.3405   -1.7152    1.1188 H   0  0  0  0  0  0  0  0  0  0  0  0
   -1.9718   -3.1155    2.2794 H   0  0  0  0  0  0  0  0  0  0  0  0
   -3.2650   -1.8903    2.0431 H   0  0  0  0  0  0  0  0  0  0  0  0
   -3.4892   -3.6841    0.3552 H   0  0  0  0  0  0  0  0  0  0  0  0
   -1.7778   -3.4804   -0.1568 H   0  0  0  0  0  0  0  0  0  0  0  0
   -3.2694   -2.3455   -1.7653 H   0  0  0  0  0  0  0  0  0  0  0  0
   -4.0676   -1.4193   -0.4482 H   0  0  0  0  0  0  0  0  0  0  0  0
   -1.1202   -1.2326   -1.3351 H   0  0  0  0  0  0  0  0  0  0  0  0
   -2.4116   -0.0101   -1.6200 H   0  0  0  0  0  0  0  0  0  0  0  0
   -2.7045    2.7775    1.5765 H   0  0  0  0  0  0  0  0  0  0  0  0
   -4.0301    4.5718    0.6019 H   0  0  0  0  0  0  0  0  0  0  0  0
   -3.8000    5.1539   -1.7912 H   0  0  0  0  0  0  0  0  0  0  0  0
   -2.2181    3.9009   -3.2208 H   0  0  0  0  0  0  0  0  0  0  0  0
   -0.8695    2.1067   -2.3032 H   0  0  0  0  0  0  0  0  0  0  0  0
  1  2  1  0
  2  3  1  0
  3  4  1  0
  4  5  1  0
  5  6  1  0
  6  7  1  0
  7  8  1  0
  8  9  1  0
  9 10  1  0
  2 11  1  0
 11 12  1  0
 12 13  1  0
 13 14  1  0
 14 15  1  0
 15 16  1  0
  2 17  1  0
 17 18  2  0
 18 19  1  0
 19 20  2  0
 20 21  1  0
 21 22  2  0
 10  5  1  0
 16 11  1  0
 22 17  1  0
  1 23  1  0
  3 24  1  0
  3 25  1  0
  4 26  1  0
  4 27  1  0
  6 28  1  0
  6 29  1  0
  7 30  1  0
  7 31  1  0
  8 32  1  0
  8 33  1  0
  9 34  1  0
  9 35  1  0
 10 36  1  0
 10 37  1  0
 11 38  1  0
 12 39  1  0
 12 40  1  0
 13 41  1  0
 13 42  1  0
 14 43  1  0
 14 44  1  0
 15 45  1  0
 15 46  1  0
 16 47  1  0
 16 48  1  0
 18 49  1  0
 19 50  1  0
 20 51  1  0
 21 52  1  0
 22 53  1  0
M  END
$$$$
