
     RDKit          3D

 44 45  0  0  0  0  0  0  0  0999 V2000
   -3.2807   -0.1398    1.3855 C   0  0  2  0  0  0  0  0  0  0  0  0
   -4.3252   -1.1699    1.3746 N   0  0  0  0  0  0  0  0  0  0  0  0
   -3.5704    1.0137    0.3994 C   0  0  0  0  0  0  0  0  0  0  0  0
   -4.8342    1.7883    0.7704 C   0  0  0  0  0  0  0  0  0  0  0  0
   -1.9280   -0.7540    1.1080 C   0  0  0  0  0  0  0  0  0  0  0  0
   -1.0391   -0.6738    1.9992 O   0  0  0  0  0  0  0  0  0  0  0  0
   -1.5966   -1.3565   -0.1598 N   0  0  0  0  0  0  0  0  0  0  0  0
   -2.5146   -2.1637   -0.9482 C   0  0  0  0  0  0  0  0  0  0  0  0
   -1.6491   -2.9246   -1.9449 C   0  0  0  0  0  0  0  0  0  0  0  0
   -0.3116   -2.1937   -1.9786 C   0  0  0  0  0  0  0  0  0  0  0  0
   -0.2273   -1.4388   -0.6520 C   0  0  1  0  0  0  0  0  0  0  0  0
    0.3678   -0.0666   -0.8356 C   0  0  0  0  0  0  0  0  0  0  0  0
   -0.3319    0.8572   -1.3351 O   0  0  0  0  0  0  0  0  0  0  0  0
    1.7351    0.1771   -0.4821 N   0  0  0  0  0  0  0  0  0  0  0  0
    2.3388    1.4990   -0.6416 C   0  0  0  0  0  0  0  0  0  0  0  0
    3.7718    1.4852   -0.1829 C   0  0  0  0  0  0  0  0  0  0  0  0
    4.0874    1.7469    1.1603 C   0  0  0  0  0  0  0  0  0  0  0  0
    5.4156    1.6960    1.5938 C   0  0  0  0  0  0  0  0  0  0  0  0
    6.4349    1.3727    0.6940 C   0  0  0  0  0  0  0  0  0  0  0  0
    6.1273    1.0944   -0.6419 C   0  0  0  0  0  0  0  0  0  0  0  0
    7.4059    0.6762   -1.7676 Cl  0  0  0  0  0  0  0  0  0  0  0  0
    4.7985    1.1447   -1.0789 C   0  0  0  0  0  0  0  0  0  0  0  0
   -3.2375    0.3000    2.4094 H   0  0  0  0  0  0  0  0  0  0  0  0
   -5.0998   -0.8678    2.0094 H   0  0  0  0  0  0  0  0  0  0  0  0
   -4.7417   -1.2573    0.4198 H   0  0  0  0  0  0  0  0  0  0  0  0
   -3.6738    0.6299   -0.6370 H   0  0  0  0  0  0  0  0  0  0  0  0
   -2.7145    1.7241    0.4101 H   0  0  0  0  0  0  0  0  0  0  0  0
   -4.7589    2.1795    1.8072 H   0  0  0  0  0  0  0  0  0  0  0  0
   -5.7301    1.1383    0.6856 H   0  0  0  0  0  0  0  0  0  0  0  0
   -4.9590    2.6465    0.0770 H   0  0  0  0  0  0  0  0  0  0  0  0
   -3.2297   -1.5083   -1.4873 H   0  0  0  0  0  0  0  0  0  0  0  0
   -3.0602   -2.8821   -0.2993 H   0  0  0  0  0  0  0  0  0  0  0  0
   -1.4920   -3.9654   -1.5850 H   0  0  0  0  0  0  0  0  0  0  0  0
   -2.1204   -2.9549   -2.9514 H   0  0  0  0  0  0  0  0  0  0  0  0
    0.5339   -2.9069   -2.0907 H   0  0  0  0  0  0  0  0  0  0  0  0
   -0.3082   -1.4937   -2.8444 H   0  0  0  0  0  0  0  0  0  0  0  0
    0.3792   -2.0277    0.0715 H   0  0  0  0  0  0  0  0  0  0  0  0
    2.3043   -0.6132   -0.1009 H   0  0  0  0  0  0  0  0  0  0  0  0
    2.2863    1.8029   -1.7099 H   0  0  0  0  0  0  0  0  0  0  0  0
    1.7602    2.2431   -0.0517 H   0  0  0  0  0  0  0  0  0  0  0  0
    3.3059    1.9883    1.8703 H   0  0  0  0  0  0  0  0  0  0  0  0
    5.6545    1.9035    2.6289 H   0  0  0  0  0  0  0  0  0  0  0  0
    7.4611    1.3337    1.0366 H   0  0  0  0  0  0  0  0  0  0  0  0
    4.5661    0.9178   -2.1123 H   0  0  0  0  0  0  0  0  0  0  0  0
  1  2  1  0
  1  3  1  0
  3  4  1  0
  1  5  1  0
  5  6  2  0
  5  7  1  0
  7  8  1  0
  8  9  1  0
  9 10  1  0
 10 11  1  0
 11 12  1  0
 12 13  2  0
 12 14  1  0
 14 15  1  0
 15 16  1  0
 16 17  2  0
 17 18  1  0
 18 19  2  0
 19 20  1  0
 20 21  1  0
 20 22  2  0
 11  7  1  0
 22 16  1  0
  1 23  1  1
  2 24  1  0
  2 25  1  0
  3 26  1  0
  3 27  1  0
  4 28  1  0
  4 29  1  0
  4 30  1  0
  8 31  1  0
  8 32  1  0
  9 33  1  0
  9 34  1  0
 10 35  1  0
 10 36  1  0
 11 37  1  1
 14 38  1  0
 15 39  1  0
 15 40  1  0
 17 41  1  0
 18 42  1  0
 19 43  1  0
 22 44  1  0
M  END
$$$$
