
     RDKit          3D

 23 24  0  0  0  0  0  0  0  0999 V2000
    2.5422   -1.2501    0.0659 C   0  0  0  0  0  0  0  0  0  0  0  0
    1.4678   -0.2347    0.0444 N   0  0  0  0  0  0  0  0  0  0  0  0
    1.8002    1.0986    0.0727 C   0  0  0  0  0  0  0  0  0  0  0  0
    3.0087    1.4616    0.1167 O   0  0  0  0  0  0  0  0  0  0  0  0
    0.8151    2.0866    0.0537 C   0  0  0  0  0  0  0  0  0  0  0  0
    1.2021    3.4292    0.0838 O   0  0  0  0  0  0  0  0  0  0  0  0
   -0.5357    1.7322    0.0052 C   0  0  0  0  0  0  0  0  0  0  0  0
   -1.4779    2.7678   -0.0121 O   0  0  0  0  0  0  0  0  0  0  0  0
   -0.8930    0.3643   -0.0242 C   0  0  0  0  0  0  0  0  0  0  0  0
   -2.2422   -0.0539   -0.0731 C   0  0  0  0  0  0  0  0  0  0  0  0
   -2.5699   -1.4076   -0.1013 C   0  0  0  0  0  0  0  0  0  0  0  0
   -1.5693   -2.3700   -0.0816 C   0  0  0  0  0  0  0  0  0  0  0  0
   -0.2306   -1.9884   -0.0334 C   0  0  0  0  0  0  0  0  0  0  0  0
    0.1404   -0.6200   -0.0036 C   0  0  0  0  0  0  0  0  0  0  0  0
    2.4358   -1.8944    0.9645 H   0  0  0  0  0  0  0  0  0  0  0  0
    2.4944   -1.8708   -0.8542 H   0  0  0  0  0  0  0  0  0  0  0  0
    3.5602   -0.8109    0.1044 H   0  0  0  0  0  0  0  0  0  0  0  0
    0.5337    4.1900    0.0721 H   0  0  0  0  0  0  0  0  0  0  0  0
   -2.4785    2.6444   -0.0469 H   0  0  0  0  0  0  0  0  0  0  0  0
   -3.0660    0.6400   -0.0905 H   0  0  0  0  0  0  0  0  0  0  0  0
   -3.6083   -1.7117   -0.1387 H   0  0  0  0  0  0  0  0  0  0  0  0
   -1.8316   -3.4201   -0.1038 H   0  0  0  0  0  0  0  0  0  0  0  0
    0.5023   -2.7820   -0.0201 H   0  0  0  0  0  0  0  0  0  0  0  0
  1  2  1  0
  2  3  1  0
  3  4  2  0
  3  5  1  0
  5  6  1  0
  5  7  2  0
  7  8  1  0
  7  9  1  0
  9 10  2  0
 10 11  1  0
 11 12  2  0
 12 13  1  0
 13 14  2  0
 14  2  1  0
 14  9  1  0
  1 15  1  0
  1 16  1  0
  1 17  1  0
  6 18  1  0
  8 19  1  0
 10 20  1  0
 11 21  1  0
 12 22  1  0
 13 23  1  0
M  END
$$$$
