
     RDKit          3D

 26 27  0  0  0  0  0  0  0  0999 V2000
   -5.1243   -0.6198    0.6814 C   0  0  0  0  0  0  0  0  0  0  0  0
   -3.6090   -0.5801    0.7965 C   0  0  0  0  0  0  0  0  0  0  0  0
   -3.0609    0.0579   -0.3540 O   0  0  0  0  0  0  0  0  0  0  0  0
   -1.6898    0.2605   -0.5684 C   0  0  0  0  0  0  0  0  0  0  0  0
   -0.7105   -0.1610    0.3608 C   0  0  0  0  0  0  0  0  0  0  0  0
    0.6279    0.0821    0.0650 C   0  0  0  0  0  0  0  0  0  0  0  0
    1.0219    0.7179   -1.1008 C   0  0  0  0  0  0  0  0  0  0  0  0
    0.0707    1.1402   -2.0283 C   0  0  0  0  0  0  0  0  0  0  0  0
   -1.2881    0.9083   -1.7563 C   0  0  0  0  0  0  0  0  0  0  0  0
    2.3613    0.8821   -1.2469 N   0  0  0  0  0  0  0  0  0  0  0  0
    3.0258    0.3702   -0.1831 C   0  0  0  0  0  0  0  0  0  0  0  0
    1.9873   -0.3030    0.9714 S   0  0  0  0  0  0  0  0  0  0  0  0
    4.7704    0.4003   -0.0337 S   0  0  0  0  0  6  0  0  0  0  0  0
    5.3843   -1.2148   -0.0846 N   0  0  0  0  0  0  0  0  0  0  0  0
    5.3551    1.1891   -1.1713 O   0  0  0  0  0  0  0  0  0  0  0  0
    5.1516    1.0534    1.2650 O   0  0  0  0  0  0  0  0  0  0  0  0
   -5.5556   -1.1164    1.5761 H   0  0  0  0  0  0  0  0  0  0  0  0
   -5.4211   -1.1884   -0.2253 H   0  0  0  0  0  0  0  0  0  0  0  0
   -5.5267    0.4130    0.6125 H   0  0  0  0  0  0  0  0  0  0  0  0
   -3.2225   -1.6197    0.8706 H   0  0  0  0  0  0  0  0  0  0  0  0
   -3.3284   -0.0137    1.7108 H   0  0  0  0  0  0  0  0  0  0  0  0
   -0.9740   -0.6608    1.2829 H   0  0  0  0  0  0  0  0  0  0  0  0
    0.3710    1.6376   -2.9417 H   0  0  0  0  0  0  0  0  0  0  0  0
   -2.0349    1.2323   -2.4699 H   0  0  0  0  0  0  0  0  0  0  0  0
    6.4182   -1.1530    0.0515 H   0  0  0  0  0  0  0  0  0  0  0  0
    5.0004   -1.7142    0.7488 H   0  0  0  0  0  0  0  0  0  0  0  0
  1  2  1  0
  2  3  1  0
  3  4  1  0
  4  5  2  0
  5  6  1  0
  6  7  2  0
  7  8  1  0
  8  9  2  0
  7 10  1  0
 10 11  2  0
 11 12  1  0
 11 13  1  0
 13 14  1  0
 13 15  2  0
 13 16  2  0
  9  4  1  0
 12  6  1  0
  1 17  1  0
  1 18  1  0
  1 19  1  0
  2 20  1  0
  2 21  1  0
  5 22  1  0
  8 23  1  0
  9 24  1  0
 14 25  1  0
 14 26  1  0
M  END
$$$$
