
     RDKit          3D

 30 30  0  0  0  0  0  0  0  0999 V2000
    1.9579    4.2051   -0.0312 C   0  0  0  0  0  0  0  0  0  0  0  0
    1.6113    2.7758   -0.4183 C   0  0  0  0  0  0  0  0  0  0  0  0
    0.3322    2.1203    0.7029 S   0  0  0  0  0  0  0  0  0  0  0  0
    0.2779    0.5155   -0.1087 C   0  0  0  0  0  0  0  0  0  0  0  0
   -0.6779    0.2905   -1.2400 C   0  0  0  0  0  0  0  0  0  0  0  0
   -1.7705   -0.6549   -0.8213 C   0  0  0  0  0  0  0  0  0  0  0  0
   -1.6422   -2.0353   -1.0507 C   0  0  0  0  0  0  0  0  0  0  0  0
   -2.6440   -2.9151   -0.6287 C   0  0  0  0  0  0  0  0  0  0  0  0
   -3.7741   -2.4252    0.0318 C   0  0  0  0  0  0  0  0  0  0  0  0
   -3.9026   -1.0549    0.2752 C   0  0  0  0  0  0  0  0  0  0  0  0
   -2.9032   -0.1716   -0.1449 C   0  0  0  0  0  0  0  0  0  0  0  0
    1.0498   -0.4509    0.2798 N   0  0  0  0  0  0  0  0  0  0  0  0
    1.9375   -0.2916    1.3187 O   0  0  0  0  0  0  0  0  0  0  0  0
    2.9327   -1.5867    1.7939 S   0  0  0  0  0  6  0  0  0  0  0  0
    3.8884   -2.0583    0.4938 O   0  0  0  0  0  0  0  0  0  0  0  0
    2.0745   -2.7388    2.2352 O   0  0  0  0  0  0  0  0  0  0  0  0
    3.8095   -1.1460    2.9317 O   0  0  0  0  0  0  0  0  0  0  0  0
    2.3478    4.2357    1.0083 H   0  0  0  0  0  0  0  0  0  0  0  0
    1.0568    4.8503   -0.1048 H   0  0  0  0  0  0  0  0  0  0  0  0
    2.7370    4.5988   -0.7174 H   0  0  0  0  0  0  0  0  0  0  0  0
    1.2350    2.7603   -1.4637 H   0  0  0  0  0  0  0  0  0  0  0  0
    2.5248    2.1467   -0.3515 H   0  0  0  0  0  0  0  0  0  0  0  0
   -0.1247   -0.1116   -2.1165 H   0  0  0  0  0  0  0  0  0  0  0  0
   -1.1244    1.2579   -1.5567 H   0  0  0  0  0  0  0  0  0  0  0  0
   -0.7671   -2.4290   -1.5527 H   0  0  0  0  0  0  0  0  0  0  0  0
   -2.5424   -3.9772   -0.8106 H   0  0  0  0  0  0  0  0  0  0  0  0
   -4.5478   -3.1076    0.3590 H   0  0  0  0  0  0  0  0  0  0  0  0
   -4.7751   -0.6774    0.7926 H   0  0  0  0  0  0  0  0  0  0  0  0
   -3.0097    0.8870    0.0582 H   0  0  0  0  0  0  0  0  0  0  0  0
    4.4324   -2.8118    0.8366 H   0  0  0  0  0  0  0  0  0  0  0  0
  1  2  1  0
  2  3  1  0
  3  4  1  0
  4  5  1  0
  5  6  1  0
  6  7  2  0
  7  8  1  0
  8  9  2  0
  9 10  1  0
 10 11  2  0
  4 12  2  0
 12 13  1  0
 13 14  1  0
 14 15  1  0
 14 16  2  0
 14 17  2  0
 11  6  1  0
  1 18  1  0
  1 19  1  0
  1 20  1  0
  2 21  1  0
  2 22  1  0
  5 23  1  0
  5 24  1  0
  7 25  1  0
  8 26  1  0
  9 27  1  0
 10 28  1  0
 11 29  1  0
 15 30  1  0
M  END
$$$$
