
     RDKit          3D

  9  9  0  0  0  0  0  0  0  0999 V2000
    2.6476    1.3338   -0.3727 I   0  0  0  0  0  0  0  0  0  0  0  0
    0.8195    0.3084   -0.1814 C   0  0  0  0  0  0  0  0  0  0  0  0
   -0.4073    0.8374    0.1504 C   0  0  0  0  0  0  0  0  0  0  0  0
   -1.3082   -0.1600    0.1624 N   0  0  0  0  0  0  0  0  0  0  0  0
   -0.7140   -1.3016   -0.1464 N   0  0  0  0  0  0  0  0  0  0  0  0
    0.5900   -1.0401   -0.3614 C   0  0  0  0  0  0  0  0  0  0  0  0
   -0.6289    1.8738    0.3677 H   0  0  0  0  0  0  0  0  0  0  0  0
   -2.3248   -0.0667    0.3796 H   0  0  0  0  0  0  0  0  0  0  0  0
    1.3261   -1.7850   -0.6320 H   0  0  0  0  0  0  0  0  0  0  0  0
  1  2  1  0
  2  3  2  0
  3  4  1  0
  4  5  1  0
  5  6  2  0
  6  2  1  0
  3  7  1  0
  4  8  1  0
  6  9  1  0
M  END
$$$$
