
     RDKit          3D

 47 49  0  0  0  0  0  0  0  0999 V2000
    6.5222    0.9344    0.6354 C   0  0  0  0  0  0  0  0  0  0  0  0
    5.0303    0.6744    0.8206 C   0  0  0  0  0  0  0  0  0  0  0  0
    4.3783    0.2307   -0.4930 C   0  0  0  0  0  0  0  0  0  0  0  0
    2.9073   -0.0217   -0.2951 C   0  0  0  0  0  0  0  0  0  0  0  0
    2.4557   -1.2834    0.1142 C   0  0  0  0  0  0  0  0  0  0  0  0
    1.0906   -1.5180    0.3292 C   0  0  0  0  0  0  0  0  0  0  0  0
    0.6716   -2.7673    0.7876 O   0  0  0  0  0  0  0  0  0  0  0  0
    0.1512   -0.4881    0.0992 C   0  0  0  0  0  0  0  0  0  0  0  0
   -1.3410   -0.7170    0.3053 C   0  0  2  0  0  0  0  0  0  0  0  0
   -1.8554   -1.9508   -0.4068 C   0  0  0  0  0  0  0  0  0  0  0  0
   -3.1826   -2.1691   -0.4600 C   0  0  0  0  0  0  0  0  0  0  0  0
   -3.7219   -3.3332   -1.2437 C   0  0  0  0  0  0  0  0  0  0  0  0
   -4.1170   -1.2224    0.2692 C   0  0  0  0  0  0  0  0  0  0  0  0
   -3.7050    0.2653    0.1238 C   0  0  0  0  0  0  0  0  0  0  0  0
   -2.1961    0.4709   -0.2095 C   0  0  1  0  0  0  0  0  0  0  0  0
   -1.5948    1.8446    0.2108 C   0  0  0  0  0  0  0  0  0  0  0  0
   -2.3702    3.0002   -0.4439 C   0  0  0  0  0  0  0  0  0  0  0  0
   -1.5667    2.0571    1.7403 C   0  0  0  0  0  0  0  0  0  0  0  0
   -0.2509    1.8985   -0.2737 O   0  0  0  0  0  0  0  0  0  0  0  0
    0.6257    0.8078   -0.2061 C   0  0  0  0  0  0  0  0  0  0  0  0
    1.9873    1.0255   -0.4311 C   0  0  0  0  0  0  0  0  0  0  0  0
    7.0359    0.0095    0.2965 H   0  0  0  0  0  0  0  0  0  0  0  0
    6.6836    1.7394   -0.1129 H   0  0  0  0  0  0  0  0  0  0  0  0
    6.9666    1.2536    1.6017 H   0  0  0  0  0  0  0  0  0  0  0  0
    4.5448    1.6067    1.1838 H   0  0  0  0  0  0  0  0  0  0  0  0
    4.8956   -0.1158    1.5915 H   0  0  0  0  0  0  0  0  0  0  0  0
    4.5235    1.0154   -1.2681 H   0  0  0  0  0  0  0  0  0  0  0  0
    4.8716   -0.6951   -0.8632 H   0  0  0  0  0  0  0  0  0  0  0  0
    3.1677   -2.0832    0.2782 H   0  0  0  0  0  0  0  0  0  0  0  0
    1.3289   -3.5182    0.9634 H   0  0  0  0  0  0  0  0  0  0  0  0
   -1.5140   -0.8520    1.3956 H   0  0  0  0  0  0  0  0  0  0  0  0
   -1.1803   -2.5988   -0.9594 H   0  0  0  0  0  0  0  0  0  0  0  0
   -4.8283   -3.3870   -1.1735 H   0  0  0  0  0  0  0  0  0  0  0  0
   -3.2996   -4.2805   -0.8466 H   0  0  0  0  0  0  0  0  0  0  0  0
   -3.4402   -3.2282   -2.3127 H   0  0  0  0  0  0  0  0  0  0  0  0
   -4.0932   -1.4935    1.3472 H   0  0  0  0  0  0  0  0  0  0  0  0
   -5.1647   -1.3512   -0.0777 H   0  0  0  0  0  0  0  0  0  0  0  0
   -3.9844    0.7859    1.0609 H   0  0  0  0  0  0  0  0  0  0  0  0
   -4.3109    0.7251   -0.6876 H   0  0  0  0  0  0  0  0  0  0  0  0
   -2.1242    0.4435   -1.3239 H   0  0  0  0  0  0  0  0  0  0  0  0
   -3.4117    3.0512   -0.0612 H   0  0  0  0  0  0  0  0  0  0  0  0
   -2.4010    2.8707   -1.5469 H   0  0  0  0  0  0  0  0  0  0  0  0
   -1.8716    3.9691   -0.2262 H   0  0  0  0  0  0  0  0  0  0  0  0
   -1.0519    3.0132    1.9757 H   0  0  0  0  0  0  0  0  0  0  0  0
   -2.5870    2.1122    2.1699 H   0  0  0  0  0  0  0  0  0  0  0  0
   -1.0047    1.2490    2.2509 H   0  0  0  0  0  0  0  0  0  0  0  0
    2.3307    2.0208   -0.6863 H   0  0  0  0  0  0  0  0  0  0  0  0
  1  2  1  0
  2  3  1  0
  3  4  1  0
  4  5  2  0
  5  6  1  0
  6  7  1  0
  6  8  2  0
  8  9  1  0
  9 10  1  0
 10 11  2  0
 11 12  1  0
 11 13  1  0
 13 14  1  0
 14 15  1  0
 15 16  1  0
 16 17  1  0
 16 18  1  0
 16 19  1  0
 19 20  1  0
 20 21  2  0
 21  4  1  0
 20  8  1  0
 15  9  1  0
  1 22  1  0
  1 23  1  0
  1 24  1  0
  2 25  1  0
  2 26  1  0
  3 27  1  0
  3 28  1  0
  5 29  1  0
  7 30  1  0
  9 31  1  1
 10 32  1  0
 12 33  1  0
 12 34  1  0
 12 35  1  0
 13 36  1  0
 13 37  1  0
 14 38  1  0
 14 39  1  0
 15 40  1  6
 17 41  1  0
 17 42  1  0
 17 43  1  0
 18 44  1  0
 18 45  1  0
 18 46  1  0
 21 47  1  0
M  END
$$$$
